0
                    3D
 Structure written by MMmdl.
169177  0  0  1  0            999 V2000
  -30.7039  -14.4649   20.6496 C   0  0  0  0  0  0
  -30.4360  -12.3363   19.4095 C   0  0  0  0  0  0
  -29.4989  -12.5542   18.2038 C   0  0  0  0  0  0
  -28.0235  -12.3842   18.6172 C   0  0  0  0  0  0
  -27.6703  -13.1988   19.8910 C   0  0  2  0  0  0
  -28.7127  -12.9283   20.9974 C   0  0  0  0  0  0
  -25.2660  -13.8141   20.5740 C   0  0  0  0  0  0
  -24.1880  -13.0427   20.9180 C   0  0  0  0  0  0
  -24.6407  -11.6888   20.8724 C   0  0  0  0  0  0
  -23.9043  -10.4293   21.0428 C   0  0  0  0  0  0
  -24.3591   -9.4196   21.9196 C   0  0  0  0  0  0
  -23.6260   -8.2244   22.0770 C   0  0  0  0  0  0
  -22.4241   -8.0303   21.3570 C   0  0  0  0  0  0
  -21.9894   -9.0275   20.4656 C   0  0  0  0  0  0
  -22.7229  -10.2159   20.3053 C   0  0  0  0  0  0
  -21.6858   -6.0720   22.5289 C   0  0  0  0  0  0
  -21.4017   -6.5623   23.8218 C   0  0  0  0  0  0
  -21.3650   -5.6782   24.9189 C   0  0  0  0  0  0
  -21.6041   -4.3049   24.7239 C   0  0  0  0  0  0
  -21.8820   -3.8129   23.4356 C   0  0  0  0  0  0
  -21.9210   -4.6943   22.3414 C   0  0  0  0  0  0
  -22.7909  -13.5255   21.1850 C   0  0  0  0  0  0
  -22.1697   -4.2119   21.0991 F   0  0  0  0  0  0
  -21.5615   -3.4532   25.7749 F   0  0  0  0  0  0
  -30.0397  -13.2854   20.4646 N   0  0  0  0  0  0
  -26.3085  -12.9284   20.3447 N   0  0  0  0  0  0
  -25.9340  -11.6448   20.5781 N   0  0  0  0  0  0
  -22.0548  -12.8231   22.0395 N   0  0  0  0  0  0
  -25.4369  -15.1853   20.4184 N   0  0  0  0  0  0
  -31.7630  -14.7079   20.0644 O   0  0  0  0  0  0
  -21.6635   -6.8881   21.4253 O   0  0  0  0  0  0
  -22.3609  -14.5592   20.6764 O   0  0  0  0  0  0
  -24.6130  -31.8685   23.2128 C   0  0  0  0  0  0
  -25.9030  -32.4826   23.8422 C   0  0  1  0  0  0
  -27.2453  -27.4438   20.1007 C   0  0  0  0  0  0
  -25.5899  -33.8628   24.2341 N   0  0  0  0  0  0
  -23.4013  -30.4897   21.5539 C   0  0  2  0  0  0
  -24.8522  -28.9492   20.1269 C   0  0  0  0  0  0
  -22.7394  -29.4667   22.5039 C   0  0  0  0  0  0
  -18.0272  -28.1378   22.8506 C   0  0  0  0  0  0
  -24.1476  -36.7319   23.2648 C   0  0  0  0  0  0
  -25.9290  -30.8370   21.3641 C   0  0  0  0  0  0
  -26.0112  -29.4670   20.7216 C   0  0  0  0  0  0
  -27.2118  -28.7194   20.7120 C   0  0  0  0  0  0
  -26.0739  -26.9367   19.5058 C   0  0  0  0  0  0
  -24.8780  -27.6817   19.5169 C   0  0  0  0  0  0
  -23.6102  -29.8138   20.1728 C   0  0  0  0  0  0
  -25.4090  -36.3104   24.0340 C   0  0  1  0  0  0
  -20.5854  -28.3670   23.1333 C   0  0  2  0  0  0
  -20.6746  -26.9402   22.5437 C   0  0  0  0  0  0
  -19.5728  -26.6379   21.5220 C   0  0  0  0  0  0
  -18.1910  -26.7930   22.1621 C   0  0  0  0  0  0
  -19.1524  -28.8842   23.2909 C   0  0  0  0  0  0
  -18.9447  -30.1445   23.8917 C   0  0  0  0  0  0
  -17.6459  -30.6593   24.0567 C   0  0  0  0  0  0
  -25.9017  -34.9470   23.5125 C   0  0  0  0  0  0
  -16.5338  -29.9098   23.6341 C   0  0  0  0  0  0
  -16.7260  -28.6506   23.0371 C   0  0  0  0  0  0
  -26.4481  -31.6620   25.0756 C   0  0  0  0  0  0
  -25.3763  -31.3712   26.1520 C   0  0  0  0  0  0
  -27.0355  -30.3066   24.6160 C   0  0  0  0  0  0
  -27.6049  -32.4376   25.7510 C   0  0  0  0  0  0
  -27.5571  -37.1800   24.8471 C   0  0  0  0  0  0
  -21.4134  -29.3026   22.3730 N   0  0  0  0  0  0
  -26.4275  -37.3791   23.9423 N   0  0  0  0  0  0
  -24.6660  -31.0807   22.1018 N   0  0  0  0  0  0
  -23.4153  -28.8189   23.3072 O   0  0  0  0  0  0
  -28.4161  -26.7244   20.0150 O   0  0  0  0  0  0
  -26.5586  -34.8914   22.4692 O   0  0  0  0  0  0
  -23.5324  -32.1450   23.7516 O   0  0  0  0  0  0
  -29.1015  -21.5309   22.8041 C   0  0  0  0  0  0
  -28.9776  -22.0385   21.5211 C   0  0  0  0  0  0
  -27.9423  -23.3367   22.9676 C   0  0  0  0  0  0
  -29.8003  -20.3235   23.3450 C   0  0  0  0  0  0
  -27.0459  -24.3815   23.5464 C   0  0  0  0  0  0
  -32.0492  -20.0435   20.4275 C   0  0  0  0  0  0
  -29.4058  -21.4895   20.1681 C   0  0  0  0  0  0
  -30.1627  -15.5676   21.5961 C   0  0  0  0  0  0
  -29.7843  -16.9383   20.9501 C   0  0  0  0  0  0
  -28.0680  -24.3245   20.6621 C   0  0  0  0  0  0
  -29.6011  -19.9400   19.9849 C   0  0  0  0  0  0
  -30.9620  -17.8385   20.4788 C   0  0  0  0  0  0
  -28.6327  -25.7310   21.0234 C   0  0  0  0  0  0
  -28.4107  -22.3344   23.6927 N   0  0  0  0  0  0
  -28.3409  -23.2933   21.6783 N   0  0  0  0  0  0
  -30.7784  -19.3187   20.6743 N   0  3  1  0  0  0
  -31.4763  -12.4607   19.1041 H   0  0  0  0  0  0
  -30.3618  -11.3101   19.7729 H   0  0  0  0  0  0
  -29.7485  -11.8645   17.3967 H   0  0  0  0  0  0
  -29.6442  -13.5610   17.8069 H   0  0  0  0  0  0
  -27.8581  -11.3233   18.8048 H   0  0  0  0  0  0
  -27.3625  -12.6618   17.7929 H   0  0  0  0  0  0
  -27.7304  -14.2543   19.6322 H   0  0  0  0  0  0
  -28.7072  -11.8675   21.2549 H   0  0  0  0  0  0
  -28.4360  -13.4209   21.9273 H   0  0  0  0  0  0
  -25.2759   -9.5657   22.4724 H   0  0  0  0  0  0
  -23.9987   -7.4623   22.7462 H   0  0  0  0  0  0
  -21.0838   -8.8780   19.8938 H   0  0  0  0  0  0
  -22.3717  -10.9680   19.6109 H   0  0  0  0  0  0
  -21.2003   -7.6135   23.9706 H   0  0  0  0  0  0
  -21.1477   -6.0523   25.9087 H   0  0  0  0  0  0
  -22.0604   -2.7580   23.2870 H   0  0  0  0  0  0
  -22.4177  -11.9849   22.4704 H   0  0  0  0  0  0
  -21.1172  -13.1254   22.2645 H   0  0  0  0  0  0
  -24.6649  -15.8362   20.5172 H   0  0  0  0  0  0
  -26.2940  -15.6321   20.1169 H   0  0  0  0  0  0
  -26.7110  -32.5547   23.1196 H   0  0  0  0  0  0
  -25.0051  -33.9789   25.0488 H   0  0  0  0  0  0
  -22.6919  -31.3078   21.4131 H   0  0  0  0  0  0
  -23.3723  -35.9671   23.3304 H   0  0  0  0  0  0
  -24.3564  -36.8951   22.2068 H   0  0  0  0  0  0
  -23.7239  -37.6519   23.6678 H   0  0  0  0  0  0
  -26.0325  -31.6013   20.5929 H   0  0  0  0  0  0
  -26.8201  -30.9009   21.9780 H   0  0  0  0  0  0
  -28.1097  -29.1226   21.1609 H   0  0  0  0  0  0
  -26.0923  -25.9729   19.0176 H   0  0  0  0  0  0
  -23.9905  -27.2770   19.0505 H   0  0  0  0  0  0
  -23.7128  -30.5867   19.4121 H   0  0  0  0  0  0
  -22.7350  -29.2325   19.8770 H   0  0  0  0  0  0
  -25.1259  -36.1962   25.0835 H   0  0  0  0  0  0
  -20.9951  -28.3241   24.1452 H   0  0  0  0  0  0
  -20.5666  -26.2266   23.3624 H   0  0  0  0  0  0
  -21.6609  -26.7456   22.1209 H   0  0  0  0  0  0
  -19.6884  -25.6297   21.1236 H   0  0  0  0  0  0
  -19.6661  -27.3192   20.6757 H   0  0  0  0  0  0
  -17.4178  -26.6720   21.4020 H   0  0  0  0  0  0
  -18.0282  -26.0067   22.9013 H   0  0  0  0  0  0
  -19.7921  -30.7257   24.2287 H   0  0  0  0  0  0
  -17.5017  -31.6278   24.5159 H   0  0  0  0  0  0
  -15.5331  -30.3012   23.7674 H   0  0  0  0  0  0
  -15.8649  -28.0827   22.7103 H   0  0  0  0  0  0
  -24.5936  -30.7047   25.7875 H   0  0  0  0  0  0
  -24.8944  -32.2862   26.4982 H   0  0  0  0  0  0
  -25.8145  -30.8896   27.0274 H   0  0  0  0  0  0
  -26.2922  -29.6755   24.1271 H   0  0  0  0  0  0
  -27.4190  -29.7363   25.4638 H   0  0  0  0  0  0
  -27.8717  -30.4389   23.9285 H   0  0  0  0  0  0
  -27.2656  -33.3679   26.2076 H   0  0  0  0  0  0
  -28.3846  -32.6937   25.0329 H   0  0  0  0  0  0
  -28.0734  -31.8530   26.5434 H   0  0  0  0  0  0
  -28.2573  -38.0110   24.7515 H   0  0  0  0  0  0
  -28.1075  -36.2636   24.6287 H   0  0  0  0  0  0
  -27.2299  -37.1437   25.8878 H   0  0  0  0  0  0
  -20.9309  -29.8728   21.6932 H   0  0  0  0  0  0
  -26.0153  -38.2864   24.1449 H   0  0  0  0  0  0
  -30.8472  -20.3036   23.0540 H   0  0  0  0  0  0
  -29.3131  -19.4027   23.0346 H   0  0  0  0  0  0
  -29.8065  -20.3277   24.4356 H   0  0  0  0  0  0
  -26.4576  -23.9505   24.3570 H   0  0  0  0  0  0
  -26.3513  -24.7654   22.7970 H   0  0  0  0  0  0
  -27.6357  -25.2010   23.9556 H   0  0  0  0  0  0
  -31.9894  -21.0901   20.7265 H   0  0  0  0  0  0
  -32.3324  -19.9983   19.3743 H   0  0  0  0  0  0
  -32.8601  -19.6165   21.0174 H   0  0  0  0  0  0
  -30.2741  -22.0430   19.8100 H   0  0  0  0  0  0
  -28.6278  -21.7598   19.4544 H   0  0  0  0  0  0
  -29.3003  -15.2334   22.1618 H   0  0  0  0  0  0
  -30.9272  -15.7320   22.3551 H   0  0  0  0  0  0
  -29.2106  -17.4810   21.6978 H   0  0  0  0  0  0
  -29.0922  -16.7731   20.1229 H   0  0  0  0  0  0
  -28.5053  -24.0106   19.7144 H   0  0  0  0  0  0
  -26.9891  -24.3697   20.5159 H   0  0  0  0  0  0
  -29.6969  -19.7356   18.9173 H   0  0  0  0  0  0
  -28.6878  -19.4345   20.3028 H   0  0  0  0  0  0
  -31.1970  -17.6236   19.4357 H   0  0  0  0  0  0
  -31.8500  -17.5493   21.0441 H   0  0  0  0  0  0
  -29.7122  -25.6460   21.1541 H   0  0  0  0  0  0
  -28.2509  -26.1034   21.9731 H   0  0  0  0  0  0
  -30.6048  -19.4426   21.6604 H   0  0  0  0  0  0
  1 25  1  0  0  0
  1 30  2  0  0  0
  1 78  1  0  0  0
  2  3  1  0  0  0
  2 25  1  0  0  0
  2 87  1  0  0  0
  2 88  1  0  0  0
  3  4  1  0  0  0
  3 89  1  0  0  0
  3 90  1  0  0  0
  4  5  1  0  0  0
  4 91  1  0  0  0
  4 92  1  0  0  0
  5  6  1  0  0  0
  5 26  1  0  0  0
  5 93  1  0  0  0
  6 25  1  0  0  0
  6 94  1  0  0  0
  6 95  1  0  0  0
  7  8  2  0  0  0
  7 26  1  0  0  0
  7 29  1  0  0  0
  8  9  1  0  0  0
  8 22  1  0  0  0
  9 10  1  0  0  0
  9 27  2  0  0  0
 10 11  2  0  0  0
 10 15  1  0  0  0
 11 12  1  0  0  0
 11 96  1  0  0  0
 12 13  2  0  0  0
 12 97  1  0  0  0
 13 14  1  0  0  0
 13 31  1  0  0  0
 14 15  2  0  0  0
 14 98  1  0  0  0
 15 99  1  0  0  0
 16 17  2  0  0  0
 16 21  1  0  0  0
 16 31  1  0  0  0
 17 18  1  0  0  0
 17100  1  0  0  0
 18 19  2  0  0  0
 18101  1  0  0  0
 19 20  1  0  0  0
 19 24  1  0  0  0
 20 21  2  0  0  0
 20102  1  0  0  0
 21 23  1  0  0  0
 22 28  1  0  0  0
 22 32  2  0  0  0
 26 27  1  0  0  0
 28103  1  0  0  0
 28104  1  0  0  0
 29105  1  0  0  0
 29106  1  0  0  0
 33 34  1  0  0  0
 33 66  1  0  0  0
 33 70  2  0  0  0
 34 36  1  0  0  0
 34 59  1  0  0  0
 34107  1  0  0  0
 35 44  2  0  0  0
 35 45  1  0  0  0
 35 68  1  0  0  0
 36 56  1  0  0  0
 36108  1  0  0  0
 37 39  1  0  0  0
 37 47  1  0  0  0
 37 66  1  0  0  0
 37109  1  0  0  0
 38 43  2  0  0  0
 38 46  1  0  0  0
 38 47  1  0  0  0
 39 64  1  0  0  0
 39 67  2  0  0  0
 40 52  1  0  0  0
 40 53  2  0  0  0
 40 58  1  0  0  0
 41110  1  0  0  0
 41111  1  0  0  0
 41112  1  0  0  0
 41 48  1  0  0  0
 42 43  1  0  0  0
 42 66  1  0  0  0
 42113  1  0  0  0
 42114  1  0  0  0
 43 44  1  0  0  0
 44115  1  0  0  0
 45 46  2  0  0  0
 45116  1  0  0  0
 46117  1  0  0  0
 47118  1  0  0  0
 47119  1  0  0  0
 48 56  1  0  0  0
 48 65  1  0  0  0
 48120  1  0  0  0
 49 50  1  0  0  0
 49 53  1  0  0  0
 49 64  1  0  0  0
 49121  1  0  0  0
 50 51  1  0  0  0
 50122  1  0  0  0
 50123  1  0  0  0
 51 52  1  0  0  0
 51124  1  0  0  0
 51125  1  0  0  0
 52126  1  0  0  0
 52127  1  0  0  0
 53 54  1  0  0  0
 54 55  2  0  0  0
 54128  1  0  0  0
 55 57  1  0  0  0
 55129  1  0  0  0
 56 69  2  0  0  0
 57 58  2  0  0  0
 57130  1  0  0  0
 58131  1  0  0  0
 59 60  1  0  0  0
 59 61  1  0  0  0
 59 62  1  0  0  0
 60132  1  0  0  0
 60133  1  0  0  0
 60134  1  0  0  0
 61135  1  0  0  0
 61136  1  0  0  0
 61137  1  0  0  0
 62138  1  0  0  0
 62139  1  0  0  0
 62140  1  0  0  0
 63 65  1  0  0  0
 63141  1  0  0  0
 63142  1  0  0  0
 63143  1  0  0  0
 64144  1  0  0  0
 65145  1  0  0  0
 68 83  1  0  0  0
 71 72  2  0  0  0
 71 74  1  0  0  0
 71 84  1  0  0  0
 72 77  1  0  0  0
 72 85  1  0  0  0
 73 75  1  0  0  0
 73 84  2  0  0  0
 73 85  1  0  0  0
 74146  1  0  0  0
 74147  1  0  0  0
 74148  1  0  0  0
 75149  1  0  0  0
 75150  1  0  0  0
 75151  1  0  0  0
 76152  1  0  0  0
 76153  1  0  0  0
 76154  1  0  0  0
 76 86  1  0  0  0
 77 81  1  0  0  0
 77155  1  0  0  0
 77156  1  0  0  0
 78 79  1  0  0  0
 78157  1  0  0  0
 78158  1  0  0  0
 79 82  1  0  0  0
 79159  1  0  0  0
 79160  1  0  0  0
 80 83  1  0  0  0
 80 85  1  0  0  0
 80161  1  0  0  0
 80162  1  0  0  0
 81 86  1  0  0  0
 81163  1  0  0  0
 81164  1  0  0  0
 82 86  1  0  0  0
 82165  1  0  0  0
 82166  1  0  0  0
 83167  1  0  0  0
 83168  1  0  0  0
 86169  1  0  0  0
M  CHG  1  86   1
M  ISO  4   1 100  68 101  78 100  83 101
M  END
> <chiral flag>
0

> <version>
0

> <s_m_source_file>
/data/baiqing/PycharmProjects/Reinvent-master-3.2/result/LINK_invent/BTK/process_docking_weight1_custom_sum_contain_oxygen_bond_distance_aromatic_linkinvent_7_9_3/rearranged_h_0048.sdf

> <i_m_source_file_index>
1

> <r_mmod_Potential_Energy-OPLS-2005>
-183.066314697266

> <r_mmod_Stretch_Energy-OPLS-2005>
46.281566619873

> <r_mmod_Bend_Energy-OPLS-2005>
127.852165222168

> <r_mmod_Torsional_Energy-OPLS-2005>
229.537796020508

> <r_mmod_Improper_Torsional_Energy-OPLS-2005>
2.21263837814331

> <r_mmod_Van_der_Waal_Energy-OPLS-2005>
124.274314880371

> <r_mmod_Electrostatic_Energy-OPLS-2005>
-287.719177246094

> <r_mmod_Solvation_Energy-OPLS-2005>
-435.471343994141

> <b_mmod_Minimization_Converged-OPLS-2005>
0

> <r_mmod_RMS_Derivative-OPLS-2005>
4.19343948364258

$$$$
1
                    3D
 Structure written by MMmdl.
155162  0  0  1  0            999 V2000
  -30.6393  -14.6729   20.4840 C   0  0  0  0  0  0
  -30.4389  -12.4170   19.4508 C   0  0  0  0  0  0
  -29.5061  -12.4923   18.2226 C   0  0  0  0  0  0
  -28.0345  -12.3185   18.6448 C   0  0  0  0  0  0
  -27.6486  -13.2164   19.8504 C   0  0  2  0  0  0
  -28.6965  -13.1200   20.9797 C   0  0  0  0  0  0
  -25.2552  -13.8166   20.5647 C   0  0  0  0  0  0
  -24.1820  -13.0435   20.9175 C   0  0  0  0  0  0
  -24.6382  -11.6900   20.8731 C   0  0  0  0  0  0
  -23.9056  -10.4282   21.0407 C   0  0  0  0  0  0
  -24.3611   -9.4196   21.9184 C   0  0  0  0  0  0
  -23.6283   -8.2239   22.0756 C   0  0  0  0  0  0
  -22.4275   -8.0270   21.3545 C   0  0  0  0  0  0
  -21.9911   -9.0238   20.4650 C   0  0  0  0  0  0
  -22.7232  -10.2117   20.3047 C   0  0  0  0  0  0
  -21.6847   -6.0715   22.5269 C   0  0  0  0  0  0
  -21.4008   -6.5624   23.8196 C   0  0  0  0  0  0
  -21.3663   -5.6788   24.9163 C   0  0  0  0  0  0
  -21.6055   -4.3051   24.7230 C   0  0  0  0  0  0
  -21.8820   -3.8129   23.4351 C   0  0  0  0  0  0
  -21.9191   -4.6941   22.3397 C   0  0  0  0  0  0
  -22.7842  -13.5224   21.1857 C   0  0  0  0  0  0
  -22.1656   -4.2118   21.0981 F   0  0  0  0  0  0
  -21.5642   -3.4547   25.7752 F   0  0  0  0  0  0
  -30.0028  -13.4615   20.3970 N   0  0  0  0  0  0
  -26.2971  -12.9344   20.3276 N   0  0  0  0  0  0
  -25.9316  -11.6503   20.5758 N   0  0  0  0  0  0
  -22.0513  -12.8181   22.0417 N   0  0  0  0  0  0
  -25.4297  -15.1887   20.4013 N   0  0  0  0  0  0
  -31.8294  -14.7930   20.1869 O   0  0  0  0  0  0
  -21.6637   -6.8864   21.4235 O   0  0  0  0  0  0
  -22.3515  -14.5533   20.6723 O   0  0  0  0  0  0
  -24.6292  -31.8593   23.2021 C   0  0  0  0  0  0
  -25.9117  -32.4775   23.8365 C   0  0  1  0  0  0
  -27.2279  -27.3003   20.1044 C   0  0  0  0  0  0
  -25.5928  -33.8573   24.2271 N   0  0  0  0  0  0
  -23.4229  -30.4886   21.5450 C   0  0  2  0  0  0
  -24.8717  -28.9437   20.1113 C   0  0  0  0  0  0
  -22.7480  -29.4636   22.4884 C   0  0  0  0  0  0
  -18.0295  -28.1410   22.8483 C   0  0  0  0  0  0
  -24.1483  -36.7287   23.2642 C   0  0  0  0  0  0
  -25.9682  -30.7883   21.3728 C   0  0  0  0  0  0
  -26.0450  -29.4129   20.7138 C   0  0  0  0  0  0
  -27.2257  -28.6030   20.6987 C   0  0  0  0  0  0
  -26.0242  -26.8939   19.4809 C   0  0  0  0  0  0
  -24.8637  -27.6898   19.4887 C   0  0  0  0  0  0
  -23.6398  -29.8270   20.1601 C   0  0  0  0  0  0
  -25.4108  -36.3075   24.0324 C   0  0  1  0  0  0
  -20.5904  -28.3710   23.1270 C   0  0  2  0  0  0
  -20.6773  -26.9421   22.5409 C   0  0  0  0  0  0
  -19.5746  -26.6403   21.5214 C   0  0  0  0  0  0
  -18.1924  -26.7956   22.1627 C   0  0  0  0  0  0
  -19.1553  -28.8868   23.2885 C   0  0  0  0  0  0
  -18.9478  -30.1462   23.8909 C   0  0  0  0  0  0
  -17.6483  -30.6608   24.0567 C   0  0  0  0  0  0
  -25.9054  -34.9445   23.5088 C   0  0  0  0  0  0
  -16.5375  -29.9102   23.6344 C   0  0  0  0  0  0
  -16.7280  -28.6533   23.0345 C   0  0  0  0  0  0
  -26.4508  -31.6579   25.0730 C   0  0  0  0  0  0
  -25.3716  -31.3689   26.1432 C   0  0  0  0  0  0
  -27.0363  -30.3022   24.6143 C   0  0  0  0  0  0
  -27.6086  -32.4308   25.7489 C   0  0  0  0  0  0
  -27.5566  -37.1787   24.8464 C   0  0  0  0  0  0
  -21.4185  -29.3068   22.3644 N   0  0  0  0  0  0
  -26.4282  -37.3765   23.9405 N   0  0  0  0  0  0
  -24.6936  -31.0589   22.0991 N   0  0  0  0  0  0
  -23.4194  -28.8136   23.2933 O   0  0  0  0  0  0
  -28.3442  -26.4332   20.1301 O   0  0  0  0  0  0
  -26.5619  -34.8911   22.4656 O   0  0  0  0  0  0
  -23.5444  -32.1397   23.7330 O   0  0  0  0  0  0
  -31.2030  -21.5146   20.1664 C   0  0  0  0  0  0
  -29.8219  -18.4456   20.1743 C   0  0  0  0  0  0
  -29.2579  -23.8646   20.1459 C   0  0  0  0  0  0
  -30.2291  -17.1985   21.1007 C   0  0  0  0  0  0
  -29.5103  -19.8535   20.8935 C   0  0  0  0  0  0
  -28.8549  -22.3486   20.5268 C   0  0  0  0  0  0
  -28.0910  -24.9610   20.1663 C   0  0  0  0  0  0
  -29.8559  -15.7772   20.7273 N   0  0  0  0  0  0
  -29.7609  -21.1671   20.1427 N   0  3  1  0  0  0
  -31.4791  -12.5467   19.1467 H   0  0  0  0  0  0
  -30.3833  -11.4339   19.9217 H   0  0  0  0  0  0
  -29.7798  -11.7240   17.4987 H   0  0  0  0  0  0
  -29.6342  -13.4496   17.7161 H   0  0  0  0  0  0
  -27.8960  -11.2694   18.9077 H   0  0  0  0  0  0
  -27.3715  -12.5090   17.8004 H   0  0  0  0  0  0
  -27.6529  -14.2402   19.4783 H   0  0  0  0  0  0
  -28.7249  -12.1130   21.3964 H   0  0  0  0  0  0
  -28.4395  -13.7810   21.8087 H   0  0  0  0  0  0
  -25.2758   -9.5659   22.4750 H   0  0  0  0  0  0
  -23.9980   -7.4631   22.7475 H   0  0  0  0  0  0
  -21.0843   -8.8737   19.8959 H   0  0  0  0  0  0
  -22.3685  -10.9637   19.6142 H   0  0  0  0  0  0
  -21.1985   -7.6134   23.9678 H   0  0  0  0  0  0
  -21.1497   -6.0533   25.9064 H   0  0  0  0  0  0
  -22.0601   -2.7590   23.2863 H   0  0  0  0  0  0
  -22.4150  -11.9798   22.4695 H   0  0  0  0  0  0
  -21.1141  -13.1176   22.2703 H   0  0  0  0  0  0
  -24.6655  -15.8493   20.4923 H   0  0  0  0  0  0
  -26.2788  -15.6160   20.0531 H   0  0  0  0  0  0
  -26.7202  -32.5446   23.1139 H   0  0  0  0  0  0
  -25.0086  -33.9712   25.0427 H   0  0  0  0  0  0
  -22.7208  -31.3115   21.3965 H   0  0  0  0  0  0
  -23.3751  -35.9613   23.3316 H   0  0  0  0  0  0
  -24.3589  -36.8901   22.2061 H   0  0  0  0  0  0
  -23.7253  -37.6495   23.6669 H   0  0  0  0  0  0
  -26.0886  -31.5509   20.6018 H   0  0  0  0  0  0
  -26.8534  -30.8491   21.9947 H   0  0  0  0  0  0
  -28.1277  -28.9547   21.1808 H   0  0  0  0  0  0
  -25.9364  -25.9499   18.9718 H   0  0  0  0  0  0
  -23.9647  -27.3235   19.0141 H   0  0  0  0  0  0
  -23.7595  -30.6053   19.4062 H   0  0  0  0  0  0
  -22.7595  -29.2585   19.8541 H   0  0  0  0  0  0
  -25.1287  -36.1925   25.0816 H   0  0  0  0  0  0
  -21.0026  -28.3303   24.1381 H   0  0  0  0  0  0
  -20.5697  -26.2298   23.3605 H   0  0  0  0  0  0
  -21.6627  -26.7452   22.1174 H   0  0  0  0  0  0
  -19.6913  -25.6313   21.1238 H   0  0  0  0  0  0
  -19.6707  -27.3205   20.6741 H   0  0  0  0  0  0
  -17.4195  -26.6737   21.4025 H   0  0  0  0  0  0
  -18.0307  -26.0081   22.9008 H   0  0  0  0  0  0
  -19.7952  -30.7267   24.2282 H   0  0  0  0  0  0
  -17.5040  -31.6279   24.5164 H   0  0  0  0  0  0
  -15.5365  -30.3007   23.7666 H   0  0  0  0  0  0
  -15.8684  -28.0860   22.7044 H   0  0  0  0  0  0
  -24.5973  -30.6950   25.7756 H   0  0  0  0  0  0
  -24.8803  -32.2814   26.4813 H   0  0  0  0  0  0
  -25.8033  -30.8937   27.0246 H   0  0  0  0  0  0
  -26.2941  -29.6759   24.1190 H   0  0  0  0  0  0
  -27.4139  -29.7286   25.4612 H   0  0  0  0  0  0
  -27.8746  -30.4354   23.9307 H   0  0  0  0  0  0
  -27.2771  -33.3657   26.2016 H   0  0  0  0  0  0
  -28.3930  -32.6770   25.0322 H   0  0  0  0  0  0
  -28.0704  -31.8441   26.5440 H   0  0  0  0  0  0
  -28.2562  -38.0101   24.7515 H   0  0  0  0  0  0
  -28.1083  -36.2623   24.6292 H   0  0  0  0  0  0
  -27.2268  -37.1432   25.8862 H   0  0  0  0  0  0
  -20.9340  -29.8880   21.6940 H   0  0  0  0  0  0
  -26.0163  -38.2833   24.1447 H   0  0  0  0  0  0
  -31.8221  -20.6541   19.9098 H   0  0  0  0  0  0
  -31.5102  -21.8551   21.1552 H   0  0  0  0  0  0
  -31.4405  -22.3005   19.4495 H   0  0  0  0  0  0
  -28.9487  -18.1791   19.5762 H   0  0  0  0  0  0
  -30.6228  -18.5917   19.4505 H   0  0  0  0  0  0
  -29.6933  -23.8755   19.1465 H   0  0  0  0  0  0
  -30.0508  -24.1873   20.8211 H   0  0  0  0  0  0
  -29.7756  -17.3596   22.0791 H   0  0  0  0  0  0
  -31.3045  -17.2375   21.2875 H   0  0  0  0  0  0
  -30.0612  -19.8992   21.8352 H   0  0  0  0  0  0
  -28.4614  -19.8284   21.1901 H   0  0  0  0  0  0
  -27.8749  -22.1363   20.0971 H   0  0  0  0  0  0
  -28.7072  -22.3170   21.6068 H   0  0  0  0  0  0
  -27.4701  -24.7713   21.0447 H   0  0  0  0  0  0
  -27.4896  -24.6859   19.3050 H   0  0  0  0  0  0
  -28.8789  -15.5545   20.8403 H   0  0  0  0  0  0
  -29.5397  -20.9795   19.1751 H   0  0  0  0  0  0
  1 25  1  0  0  0
  1 30  2  0  0  0
  1 78  1  0  0  0
  2  3  1  0  0  0
  2 25  1  0  0  0
  2 80  1  0  0  0
  2 81  1  0  0  0
  3  4  1  0  0  0
  3 82  1  0  0  0
  3 83  1  0  0  0
  4  5  1  0  0  0
  4 84  1  0  0  0
  4 85  1  0  0  0
  5  6  1  0  0  0
  5 26  1  0  0  0
  5 86  1  0  0  0
  6 25  1  0  0  0
  6 87  1  0  0  0
  6 88  1  0  0  0
  7  8  2  0  0  0
  7 26  1  0  0  0
  7 29  1  0  0  0
  8  9  1  0  0  0
  8 22  1  0  0  0
  9 10  1  0  0  0
  9 27  2  0  0  0
 10 11  2  0  0  0
 10 15  1  0  0  0
 11 12  1  0  0  0
 11 89  1  0  0  0
 12 13  2  0  0  0
 12 90  1  0  0  0
 13 14  1  0  0  0
 13 31  1  0  0  0
 14 15  2  0  0  0
 14 91  1  0  0  0
 15 92  1  0  0  0
 16 17  2  0  0  0
 16 21  1  0  0  0
 16 31  1  0  0  0
 17 18  1  0  0  0
 17 93  1  0  0  0
 18 19  2  0  0  0
 18 94  1  0  0  0
 19 20  1  0  0  0
 19 24  1  0  0  0
 20 21  2  0  0  0
 20 95  1  0  0  0
 21 23  1  0  0  0
 22 28  1  0  0  0
 22 32  2  0  0  0
 26 27  1  0  0  0
 28 96  1  0  0  0
 28 97  1  0  0  0
 29 98  1  0  0  0
 29 99  1  0  0  0
 33 34  1  0  0  0
 33 66  1  0  0  0
 33 70  2  0  0  0
 34 36  1  0  0  0
 34 59  1  0  0  0
 34100  1  0  0  0
 35 44  2  0  0  0
 35 45  1  0  0  0
 35 68  1  0  0  0
 36 56  1  0  0  0
 36101  1  0  0  0
 37 39  1  0  0  0
 37 47  1  0  0  0
 37 66  1  0  0  0
 37102  1  0  0  0
 38 43  2  0  0  0
 38 46  1  0  0  0
 38 47  1  0  0  0
 39 64  1  0  0  0
 39 67  2  0  0  0
 40 52  1  0  0  0
 40 53  2  0  0  0
 40 58  1  0  0  0
 41103  1  0  0  0
 41104  1  0  0  0
 41105  1  0  0  0
 41 48  1  0  0  0
 42 43  1  0  0  0
 42 66  1  0  0  0
 42106  1  0  0  0
 42107  1  0  0  0
 43 44  1  0  0  0
 44108  1  0  0  0
 45 46  2  0  0  0
 45109  1  0  0  0
 46110  1  0  0  0
 47111  1  0  0  0
 47112  1  0  0  0
 48 56  1  0  0  0
 48 65  1  0  0  0
 48113  1  0  0  0
 49 50  1  0  0  0
 49 53  1  0  0  0
 49 64  1  0  0  0
 49114  1  0  0  0
 50 51  1  0  0  0
 50115  1  0  0  0
 50116  1  0  0  0
 51 52  1  0  0  0
 51117  1  0  0  0
 51118  1  0  0  0
 52119  1  0  0  0
 52120  1  0  0  0
 53 54  1  0  0  0
 54 55  2  0  0  0
 54121  1  0  0  0
 55 57  1  0  0  0
 55122  1  0  0  0
 56 69  2  0  0  0
 57 58  2  0  0  0
 57123  1  0  0  0
 58124  1  0  0  0
 59 60  1  0  0  0
 59 61  1  0  0  0
 59 62  1  0  0  0
 60125  1  0  0  0
 60126  1  0  0  0
 60127  1  0  0  0
 61128  1  0  0  0
 61129  1  0  0  0
 61130  1  0  0  0
 62131  1  0  0  0
 62132  1  0  0  0
 62133  1  0  0  0
 63 65  1  0  0  0
 63134  1  0  0  0
 63135  1  0  0  0
 63136  1  0  0  0
 64137  1  0  0  0
 65138  1  0  0  0
 68 77  1  0  0  0
 71139  1  0  0  0
 71140  1  0  0  0
 71141  1  0  0  0
 71 79  1  0  0  0
 72 74  1  0  0  0
 72 75  1  0  0  0
 72142  1  0  0  0
 72143  1  0  0  0
 73 76  1  0  0  0
 73 77  1  0  0  0
 73144  1  0  0  0
 73145  1  0  0  0
 74 78  1  0  0  0
 74146  1  0  0  0
 74147  1  0  0  0
 75 79  1  0  0  0
 75148  1  0  0  0
 75149  1  0  0  0
 76 79  1  0  0  0
 76150  1  0  0  0
 76151  1  0  0  0
 77152  1  0  0  0
 77153  1  0  0  0
 78154  1  0  0  0
 79155  1  0  0  0
M  CHG  1  79   1
M  ISO  4   1 100  68 101  77 101  78 100
M  END
> <chiral flag>
0

> <version>
0

> <s_m_source_file>
/data/baiqing/PycharmProjects/Reinvent-master-3.2/result/LINK_invent/BTK/process_docking_weight1_custom_sum_contain_oxygen_bond_distance_aromatic_linkinvent_7_9_3/rearranged_h_0048.sdf

> <i_m_source_file_index>
2

> <r_mmod_Potential_Energy-OPLS-2005>
-10.5999460220337

> <r_mmod_Stretch_Energy-OPLS-2005>
100.678665161133

> <r_mmod_Bend_Energy-OPLS-2005>
156.520233154297

> <r_mmod_Torsional_Energy-OPLS-2005>
233.494720458984

> <r_mmod_Improper_Torsional_Energy-OPLS-2005>
4.34607315063477

> <r_mmod_Van_der_Waal_Energy-OPLS-2005>
126.595008850098

> <r_mmod_Electrostatic_Energy-OPLS-2005>
-229.011428833008

> <r_mmod_Solvation_Energy-OPLS-2005>
-463.714080810547

> <b_mmod_Minimization_Converged-OPLS-2005>
0

> <r_mmod_RMS_Derivative-OPLS-2005>
3.06623601913452

$$$$
2
                    3D
 Structure written by MMmdl.
145153  0  0  1  0            999 V2000
  -30.4634  -15.2128   20.3770 C   0  0  0  0  0  0
  -30.4361  -12.7721   19.5214 C   0  0  0  0  0  0
  -29.5310  -12.5651   18.2821 C   0  0  0  0  0  0
  -28.0770  -12.3006   18.7096 C   0  0  0  0  0  0
  -27.6129  -13.2711   19.8246 C   0  0  2  0  0  0
  -28.6482  -13.4285   20.9583 C   0  0  0  0  0  0
  -25.2392  -13.8243   20.5744 C   0  0  0  0  0  0
  -24.1741  -13.0437   20.9260 C   0  0  0  0  0  0
  -24.6392  -11.6931   20.8765 C   0  0  0  0  0  0
  -23.9086  -10.4293   21.0410 C   0  0  0  0  0  0
  -24.3633   -9.4206   21.9186 C   0  0  0  0  0  0
  -23.6305   -8.2241   22.0751 C   0  0  0  0  0  0
  -22.4286   -8.0282   21.3544 C   0  0  0  0  0  0
  -21.9927   -9.0255   20.4643 C   0  0  0  0  0  0
  -22.7258  -10.2134   20.3056 C   0  0  0  0  0  0
  -21.6856   -6.0739   22.5279 C   0  0  0  0  0  0
  -21.4015   -6.5642   23.8213 C   0  0  0  0  0  0
  -21.3659   -5.6794   24.9175 C   0  0  0  0  0  0
  -21.6045   -4.3057   24.7225 C   0  0  0  0  0  0
  -21.8818   -3.8149   23.4346 C   0  0  0  0  0  0
  -21.9195   -4.6967   22.3403 C   0  0  0  0  0  0
  -22.7760  -13.5190   21.1910 C   0  0  0  0  0  0
  -22.1663   -4.2152   21.0981 F   0  0  0  0  0  0
  -21.5630   -3.4540   25.7737 F   0  0  0  0  0  0
  -29.8862  -13.9171   20.3323 N   0  0  0  0  0  0
  -26.2819  -12.9511   20.3227 N   0  0  0  0  0  0
  -25.9328  -11.6621   20.5729 N   0  0  0  0  0  0
  -22.0424  -12.8164   22.0464 N   0  0  0  0  0  0
  -25.4025  -15.1975   20.4170 N   0  0  0  0  0  0
  -31.6839  -15.2096   20.1652 O   0  0  0  0  0  0
  -21.6645   -6.8882   21.4241 O   0  0  0  0  0  0
  -22.3438  -14.5494   20.6755 O   0  0  0  0  0  0
  -24.6607  -31.8264   23.1740 C   0  0  0  0  0  0
  -25.9301  -32.4606   23.8190 C   0  0  1  0  0  0
  -27.2133  -26.9547   20.1771 C   0  0  0  0  0  0
  -25.5981  -33.8420   24.2096 N   0  0  0  0  0  0
  -23.4737  -30.4410   21.5223 C   0  0  2  0  0  0
  -24.9263  -28.8370   20.1107 C   0  0  0  0  0  0
  -22.7654  -29.4458   22.4786 C   0  0  0  0  0  0
  -18.0320  -28.1410   22.8472 C   0  0  0  0  0  0
  -24.1489  -36.7204   23.2646 C   0  0  0  0  0  0
  -26.0422  -30.6419   21.4009 C   0  0  0  0  0  0
  -26.1104  -29.2355   20.7438 C   0  0  0  0  0  0
  -27.2502  -28.3150   20.7543 C   0  0  0  0  0  0
  -26.0009  -26.7078   19.4926 C   0  0  0  0  0  0
  -24.8958  -27.5926   19.4651 C   0  0  0  0  0  0
  -23.7118  -29.7615   20.1468 C   0  0  0  0  0  0
  -25.4129  -36.2974   24.0303 C   0  0  1  0  0  0
  -20.5945  -28.3750   23.1191 C   0  0  2  0  0  0
  -20.6795  -26.9435   22.5400 C   0  0  0  0  0  0
  -19.5767  -26.6383   21.5211 C   0  0  0  0  0  0
  -18.1951  -26.7943   22.1627 C   0  0  0  0  0  0
  -19.1582  -28.8900   23.2821 C   0  0  0  0  0  0
  -18.9493  -30.1491   23.8856 C   0  0  0  0  0  0
  -17.6487  -30.6602   24.0555 C   0  0  0  0  0  0
  -25.9096  -34.9359   23.5018 C   0  0  0  0  0  0
  -16.5376  -29.9091   23.6347 C   0  0  0  0  0  0
  -16.7302  -28.6509   23.0371 C   0  0  0  0  0  0
  -26.4560  -31.6545   25.0708 C   0  0  0  0  0  0
  -25.3697  -31.3788   26.1371 C   0  0  0  0  0  0
  -27.0449  -30.2915   24.6425 C   0  0  0  0  0  0
  -27.6051  -32.4351   25.7511 C   0  0  0  0  0  0
  -27.5566  -37.1757   24.8467 C   0  0  0  0  0  0
  -21.4325  -29.3045   22.3538 N   0  0  0  0  0  0
  -26.4270  -37.3712   23.9415 N   0  0  0  0  0  0
  -24.7467  -30.9956   22.0861 N   0  0  0  0  0  0
  -23.4215  -28.8021   23.3011 O   0  0  0  0  0  0
  -28.2005  -25.8445   20.2604 O   0  0  0  0  0  0
  -26.5693  -34.8890   22.4607 O   0  0  0  0  0  0
  -23.5684  -32.1219   23.6854 O   0  0  0  0  0  0
  -28.7702  -20.4831   21.3485 C   0  0  0  0  0  0
  -29.5508  -20.6586   19.2448 C   0  0  0  0  0  0
  -29.3859  -19.6775   20.3058 C   0  0  0  0  0  0
  -28.6147  -22.7177   20.2553 C   0  0  0  0  0  0
  -30.1331  -18.0925   20.3600 C   0  0  0  0  0  0
  -27.8199  -24.2646   20.0660 C   0  0  0  0  0  0
  -28.4002  -21.8584   21.3086 N   0  0  0  0  0  0
  -29.1804  -22.0281   19.2152 N   0  0  0  0  0  0
  -29.7178  -16.4887   20.4539 N   0  0  0  0  0  0
  -31.4581  -12.9652   19.1920 H   0  0  0  0  0  0
  -30.4893  -11.8614   20.1203 H   0  0  0  0  0  0
  -29.9005  -11.7385   17.6736 H   0  0  0  0  0  0
  -29.5700  -13.4537   17.6505 H   0  0  0  0  0  0
  -28.0236  -11.2740   19.0737 H   0  0  0  0  0  0
  -27.4084  -12.3559   17.8498 H   0  0  0  0  0  0
  -27.5343  -14.2423   19.3351 H   0  0  0  0  0  0
  -28.8040  -12.4904   21.4929 H   0  0  0  0  0  0
  -28.2978  -14.1532   21.6949 H   0  0  0  0  0  0
  -25.2773   -9.5686   22.4766 H   0  0  0  0  0  0
  -24.0017   -7.4630   22.7466 H   0  0  0  0  0  0
  -21.0861   -8.8774   19.8944 H   0  0  0  0  0  0
  -22.3713  -10.9674   19.6168 H   0  0  0  0  0  0
  -21.2003   -7.6149   23.9717 H   0  0  0  0  0  0
  -21.1483   -6.0524   25.9078 H   0  0  0  0  0  0
  -22.0597   -2.7611   23.2845 H   0  0  0  0  0  0
  -22.4064  -11.9832   22.4843 H   0  0  0  0  0  0
  -21.1034  -13.1159   22.2674 H   0  0  0  0  0  0
  -24.6294  -15.8453   20.5251 H   0  0  0  0  0  0
  -26.2403  -15.6390   20.0621 H   0  0  0  0  0  0
  -26.7370  -32.5150   23.0905 H   0  0  0  0  0  0
  -25.0100  -33.9504   25.0226 H   0  0  0  0  0  0
  -22.7858  -31.2723   21.3552 H   0  0  0  0  0  0
  -23.3763  -35.9523   23.3288 H   0  0  0  0  0  0
  -24.3565  -36.8866   22.2065 H   0  0  0  0  0  0
  -23.7234  -37.6386   23.6705 H   0  0  0  0  0  0
  -26.2203  -31.3859   20.6232 H   0  0  0  0  0  0
  -26.9034  -30.6964   22.0549 H   0  0  0  0  0  0
  -28.1446  -28.6164   21.2814 H   0  0  0  0  0  0
  -25.8614  -25.7614   18.9930 H   0  0  0  0  0  0
  -23.9970  -27.2821   18.9502 H   0  0  0  0  0  0
  -23.8663  -30.5318   19.3906 H   0  0  0  0  0  0
  -22.8219  -29.2158   19.8287 H   0  0  0  0  0  0
  -25.1327  -36.1767   25.0792 H   0  0  0  0  0  0
  -21.0037  -28.3353   24.1313 H   0  0  0  0  0  0
  -20.5671  -26.2369   23.3638 H   0  0  0  0  0  0
  -21.6659  -26.7413   22.1204 H   0  0  0  0  0  0
  -19.6923  -25.6283   21.1271 H   0  0  0  0  0  0
  -19.6702  -27.3167   20.6719 H   0  0  0  0  0  0
  -17.4215  -26.6685   21.4036 H   0  0  0  0  0  0
  -18.0352  -26.0100   22.9039 H   0  0  0  0  0  0
  -19.7968  -30.7319   24.2207 H   0  0  0  0  0  0
  -17.5040  -31.6280   24.5162 H   0  0  0  0  0  0
  -15.5375  -30.2980   23.7696 H   0  0  0  0  0  0
  -15.8703  -28.0809   22.7118 H   0  0  0  0  0  0
  -24.5891  -30.7121   25.7686 H   0  0  0  0  0  0
  -24.8871  -32.2988   26.4679 H   0  0  0  0  0  0
  -25.7942  -30.9039   27.0224 H   0  0  0  0  0  0
  -26.3112  -29.6601   24.1403 H   0  0  0  0  0  0
  -27.3955  -29.7269   25.5074 H   0  0  0  0  0  0
  -27.9066  -30.4101   23.9856 H   0  0  0  0  0  0
  -27.2617  -33.3691   26.1969 H   0  0  0  0  0  0
  -28.3928  -32.6849   25.0390 H   0  0  0  0  0  0
  -28.0647  -31.8559   26.5529 H   0  0  0  0  0  0
  -28.2563  -38.0072   24.7526 H   0  0  0  0  0  0
  -28.1084  -36.2601   24.6280 H   0  0  0  0  0  0
  -27.2287  -37.1387   25.8871 H   0  0  0  0  0  0
  -20.9566  -29.8744   21.6682 H   0  0  0  0  0  0
  -26.0117  -38.2766   24.1441 H   0  0  0  0  0  0
  -28.5898  -20.0129   22.3041 H   0  0  0  0  0  0
  -30.0539  -20.3349   18.3453 H   0  0  0  0  0  0
  -30.8360  -18.1965   21.1877 H   0  0  0  0  0  0
  -30.7802  -18.1081   19.4819 H   0  0  0  0  0  0
  -26.9118  -24.1472   20.6574 H   0  0  0  0  0  0
  -27.4735  -24.2147   19.0342 H   0  0  0  0  0  0
  -28.7277  -16.3338   20.5767 H   0  0  0  0  0  0
  1 25  1  0  0  0
  1 30  2  0  0  0
  1 79  1  0  0  0
  2  3  1  0  0  0
  2 25  1  0  0  0
  2 80  1  0  0  0
  2 81  1  0  0  0
  3  4  1  0  0  0
  3 82  1  0  0  0
  3 83  1  0  0  0
  4  5  1  0  0  0
  4 84  1  0  0  0
  4 85  1  0  0  0
  5  6  1  0  0  0
  5 26  1  0  0  0
  5 86  1  0  0  0
  6 25  1  0  0  0
  6 87  1  0  0  0
  6 88  1  0  0  0
  7  8  2  0  0  0
  7 26  1  0  0  0
  7 29  1  0  0  0
  8  9  1  0  0  0
  8 22  1  0  0  0
  9 10  1  0  0  0
  9 27  2  0  0  0
 10 11  2  0  0  0
 10 15  1  0  0  0
 11 12  1  0  0  0
 11 89  1  0  0  0
 12 13  2  0  0  0
 12 90  1  0  0  0
 13 14  1  0  0  0
 13 31  1  0  0  0
 14 15  2  0  0  0
 14 91  1  0  0  0
 15 92  1  0  0  0
 16 17  2  0  0  0
 16 21  1  0  0  0
 16 31  1  0  0  0
 17 18  1  0  0  0
 17 93  1  0  0  0
 18 19  2  0  0  0
 18 94  1  0  0  0
 19 20  1  0  0  0
 19 24  1  0  0  0
 20 21  2  0  0  0
 20 95  1  0  0  0
 21 23  1  0  0  0
 22 28  1  0  0  0
 22 32  2  0  0  0
 26 27  1  0  0  0
 28 96  1  0  0  0
 28 97  1  0  0  0
 29 98  1  0  0  0
 29 99  1  0  0  0
 33 34  1  0  0  0
 33 66  1  0  0  0
 33 70  2  0  0  0
 34 36  1  0  0  0
 34 59  1  0  0  0
 34100  1  0  0  0
 35 44  2  0  0  0
 35 45  1  0  0  0
 35 68  1  0  0  0
 36 56  1  0  0  0
 36101  1  0  0  0
 37 39  1  0  0  0
 37 47  1  0  0  0
 37 66  1  0  0  0
 37102  1  0  0  0
 38 43  2  0  0  0
 38 46  1  0  0  0
 38 47  1  0  0  0
 39 64  1  0  0  0
 39 67  2  0  0  0
 40 52  1  0  0  0
 40 53  2  0  0  0
 40 58  1  0  0  0
 41103  1  0  0  0
 41104  1  0  0  0
 41105  1  0  0  0
 41 48  1  0  0  0
 42 43  1  0  0  0
 42 66  1  0  0  0
 42106  1  0  0  0
 42107  1  0  0  0
 43 44  1  0  0  0
 44108  1  0  0  0
 45 46  2  0  0  0
 45109  1  0  0  0
 46110  1  0  0  0
 47111  1  0  0  0
 47112  1  0  0  0
 48 56  1  0  0  0
 48 65  1  0  0  0
 48113  1  0  0  0
 49 50  1  0  0  0
 49 53  1  0  0  0
 49 64  1  0  0  0
 49114  1  0  0  0
 50 51  1  0  0  0
 50115  1  0  0  0
 50116  1  0  0  0
 51 52  1  0  0  0
 51117  1  0  0  0
 51118  1  0  0  0
 52119  1  0  0  0
 52120  1  0  0  0
 53 54  1  0  0  0
 54 55  2  0  0  0
 54121  1  0  0  0
 55 57  1  0  0  0
 55122  1  0  0  0
 56 69  2  0  0  0
 57 58  2  0  0  0
 57123  1  0  0  0
 58124  1  0  0  0
 59 60  1  0  0  0
 59 61  1  0  0  0
 59 62  1  0  0  0
 60125  1  0  0  0
 60126  1  0  0  0
 60127  1  0  0  0
 61128  1  0  0  0
 61129  1  0  0  0
 61130  1  0  0  0
 62131  1  0  0  0
 62132  1  0  0  0
 62133  1  0  0  0
 63 65  1  0  0  0
 63134  1  0  0  0
 63135  1  0  0  0
 63136  1  0  0  0
 64137  1  0  0  0
 65138  1  0  0  0
 68 76  1  0  0  0
 71 73  2  0  0  0
 71 77  1  0  0  0
 71139  1  0  0  0
 72 73  1  0  0  0
 72 78  2  0  0  0
 72140  1  0  0  0
 73 75  1  0  0  0
 74 76  1  0  0  0
 74 77  2  0  0  0
 74 78  1  0  0  0
 75 79  1  0  0  0
 75141  1  0  0  0
 75142  1  0  0  0
 76143  1  0  0  0
 76144  1  0  0  0
 79145  1  0  0  0
M  ISO  4   1 100  68 101  76 101  79 100
M  END
> <chiral flag>
0

> <version>
0

> <s_m_source_file>
/data/baiqing/PycharmProjects/Reinvent-master-3.2/result/LINK_invent/BTK/process_docking_weight1_custom_sum_contain_oxygen_bond_distance_aromatic_linkinvent_7_9_3/rearranged_h_0048.sdf

> <i_m_source_file_index>
3

> <r_mmod_Potential_Energy-OPLS-2005>
805.581665039062

> <r_mmod_Stretch_Energy-OPLS-2005>
481.773284912109

> <r_mmod_Bend_Energy-OPLS-2005>
442.117462158203

> <r_mmod_Torsional_Energy-OPLS-2005>
217.913314819336

> <r_mmod_Improper_Torsional_Energy-OPLS-2005>
10.528546333313

> <r_mmod_Van_der_Waal_Energy-OPLS-2005>
138.772994995117

> <r_mmod_Electrostatic_Energy-OPLS-2005>
-654.269348144531

> <r_mmod_Solvation_Energy-OPLS-2005>
-245.484130859375

> <b_mmod_Minimization_Converged-OPLS-2005>
0

> <r_mmod_RMS_Derivative-OPLS-2005>
0.598635911941528

$$$$
3
                    3D
 Structure written by MMmdl.
168176  0  0  1  0            999 V2000
  -30.5866  -14.9259   20.3871 C   0  0  0  0  0  0
  -30.4240  -12.5788   19.4683 C   0  0  0  0  0  0
  -29.5046  -12.5032   18.2324 C   0  0  0  0  0  0
  -28.0391  -12.3019   18.6628 C   0  0  0  0  0  0
  -27.6178  -13.2507   19.8180 C   0  0  2  0  0  0
  -28.6673  -13.3125   20.9431 C   0  0  0  0  0  0
  -25.2439  -13.8231   20.5727 C   0  0  0  0  0  0
  -24.1756  -13.0443   20.9225 C   0  0  0  0  0  0
  -24.6376  -11.6930   20.8753 C   0  0  0  0  0  0
  -23.9064  -10.4294   21.0404 C   0  0  0  0  0  0
  -24.3623   -9.4208   21.9176 C   0  0  0  0  0  0
  -23.6303   -8.2237   22.0743 C   0  0  0  0  0  0
  -22.4278   -8.0275   21.3546 C   0  0  0  0  0  0
  -21.9916   -9.0243   20.4636 C   0  0  0  0  0  0
  -22.7238  -10.2124   20.3048 C   0  0  0  0  0  0
  -21.6855   -6.0734   22.5278 C   0  0  0  0  0  0
  -21.4015   -6.5639   23.8208 C   0  0  0  0  0  0
  -21.3655   -5.6792   24.9173 C   0  0  0  0  0  0
  -21.6051   -4.3056   24.7227 C   0  0  0  0  0  0
  -21.8815   -3.8142   23.4343 C   0  0  0  0  0  0
  -21.9190   -4.6959   22.3404 C   0  0  0  0  0  0
  -22.7774  -13.5206   21.1886 C   0  0  0  0  0  0
  -22.1659   -4.2144   21.0984 F   0  0  0  0  0  0
  -21.5630   -3.4540   25.7737 F   0  0  0  0  0  0
  -29.9262  -13.7060   20.3027 N   0  0  0  0  0  0
  -26.2837  -12.9461   20.3202 N   0  0  0  0  0  0
  -25.9302  -11.6589   20.5728 N   0  0  0  0  0  0
  -22.0432  -12.8194   22.0444 N   0  0  0  0  0  0
  -25.4156  -15.1957   20.4195 N   0  0  0  0  0  0
  -31.8220  -14.8655   20.3504 O   0  0  0  0  0  0
  -21.6644   -6.8871   21.4235 O   0  0  0  0  0  0
  -22.3446  -14.5499   20.6717 O   0  0  0  0  0  0
  -24.6415  -31.8424   23.1863 C   0  0  0  0  0  0
  -25.9187  -32.4677   23.8253 C   0  0  1  0  0  0
  -27.2134  -27.1495   20.1585 C   0  0  0  0  0  0
  -25.5945  -33.8490   24.2174 N   0  0  0  0  0  0
  -23.4435  -30.4622   21.5319 C   0  0  2  0  0  0
  -24.8908  -28.8802   20.1184 C   0  0  0  0  0  0
  -22.7544  -29.4553   22.4856 C   0  0  0  0  0  0
  -18.0291  -28.1400   22.8472 C   0  0  0  0  0  0
  -24.1503  -36.7254   23.2648 C   0  0  0  0  0  0
  -25.9983  -30.7214   21.3811 C   0  0  0  0  0  0
  -26.0679  -29.3317   20.7294 C   0  0  0  0  0  0
  -27.2353  -28.4845   20.7245 C   0  0  0  0  0  0
  -26.0103  -26.7813   19.5278 C   0  0  0  0  0  0
  -24.8722  -27.6178   19.5038 C   0  0  0  0  0  0
  -23.6691  -29.7847   20.1535 C   0  0  0  0  0  0
  -25.4128  -36.3016   24.0316 C   0  0  1  0  0  0
  -20.5904  -28.3728   23.1231 C   0  0  2  0  0  0
  -20.6778  -26.9428   22.5401 C   0  0  0  0  0  0
  -19.5757  -26.6381   21.5203 C   0  0  0  0  0  0
  -18.1934  -26.7938   22.1606 C   0  0  0  0  0  0
  -19.1545  -28.8877   23.2854 C   0  0  0  0  0  0
  -18.9469  -30.1466   23.8891 C   0  0  0  0  0  0
  -17.6466  -30.6601   24.0556 C   0  0  0  0  0  0
  -25.9079  -34.9394   23.5050 C   0  0  0  0  0  0
  -16.5359  -29.9092   23.6339 C   0  0  0  0  0  0
  -16.7271  -28.6506   23.0365 C   0  0  0  0  0  0
  -26.4518  -31.6543   25.0690 C   0  0  0  0  0  0
  -25.3713  -31.3722   26.1396 C   0  0  0  0  0  0
  -27.0369  -30.2933   24.6261 C   0  0  0  0  0  0
  -27.6066  -32.4304   25.7451 C   0  0  0  0  0  0
  -27.5579  -37.1775   24.8459 C   0  0  0  0  0  0
  -21.4239  -29.3057   22.3606 N   0  0  0  0  0  0
  -26.4284  -37.3734   23.9413 N   0  0  0  0  0  0
  -24.7142  -31.0307   22.0881 N   0  0  0  0  0  0
  -23.4200  -28.8098   23.3001 O   0  0  0  0  0  0
  -28.2948  -26.2118   20.1300 O   0  0  0  0  0  0
  -26.5679  -34.8895   22.4637 O   0  0  0  0  0  0
  -23.5537  -32.1274   23.7101 O   0  0  0  0  0  0
  -29.9641  -17.7542   17.8928 C   0  0  0  0  0  0
  -30.0126  -19.0525   18.7139 C   0  0  0  0  0  0
  -30.5690  -16.5404   18.6307 C   0  0  0  0  0  0
  -29.5985  -17.4609   20.7200 C   0  0  0  0  0  0
  -29.1278  -18.8738   19.9376 C   0  0  1  0  0  0
  -24.9936  -21.3976   21.6550 C   0  0  0  0  0  0
  -26.6425  -20.3471   23.2446 C   0  0  0  0  0  0
  -28.2956  -23.2919   19.8557 C   0  0  0  0  0  0
  -29.1566  -21.9025   20.2942 C   0  0  0  0  0  0
  -27.0923  -20.3266   20.7399 C   0  0  0  0  0  0
  -28.2118  -24.7604   20.6670 C   0  0  0  0  0  0
  -28.6393  -20.3326   20.6498 C   0  0  1  0  0  0
  -26.4797  -21.1097   21.9194 C   0  0  0  0  0  0
  -29.9690  -16.1435   19.9356 N   0  0  0  0  0  0
  -31.4582  -12.7242   19.1514 H   0  0  0  0  0  0
  -30.4078  -11.6418   20.0276 H   0  0  0  0  0  0
  -29.8191  -11.6917   17.5747 H   0  0  0  0  0  0
  -29.5920  -13.4211   17.6498 H   0  0  0  0  0  0
  -27.9351  -11.2645   18.9838 H   0  0  0  0  0  0
  -27.3707  -12.4211   17.8092 H   0  0  0  0  0  0
  -27.5691  -14.2455   19.3737 H   0  0  0  0  0  0
  -28.7598  -12.3531   21.4530 H   0  0  0  0  0  0
  -28.3786  -14.0470   21.6963 H   0  0  0  0  0  0
  -25.2763   -9.5693   22.4753 H   0  0  0  0  0  0
  -24.0014   -7.4627   22.7463 H   0  0  0  0  0  0
  -21.0843   -8.8751   19.8947 H   0  0  0  0  0  0
  -22.3683  -10.9661   19.6159 H   0  0  0  0  0  0
  -21.2010   -7.6148   23.9718 H   0  0  0  0  0  0
  -21.1485   -6.0523   25.9082 H   0  0  0  0  0  0
  -22.0600   -2.7604   23.2848 H   0  0  0  0  0  0
  -22.4072  -11.9881   22.4868 H   0  0  0  0  0  0
  -21.1032  -13.1189   22.2620 H   0  0  0  0  0  0
  -24.6587  -15.8576   20.5506 H   0  0  0  0  0  0
  -26.2809  -15.6336   20.1295 H   0  0  0  0  0  0
  -26.7252  -32.5281   23.0987 H   0  0  0  0  0  0
  -25.0045  -33.9613   25.0282 H   0  0  0  0  0  0
  -22.7464  -31.2881   21.3730 H   0  0  0  0  0  0
  -23.3765  -35.9584   23.3254 H   0  0  0  0  0  0
  -24.3608  -36.8933   22.2075 H   0  0  0  0  0  0
  -23.7253  -37.6430   23.6723 H   0  0  0  0  0  0
  -26.1532  -31.4704   20.6034 H   0  0  0  0  0  0
  -26.8712  -30.7726   22.0203 H   0  0  0  0  0  0
  -28.1430  -28.8320   21.1974 H   0  0  0  0  0  0
  -25.9433  -25.8111   19.0550 H   0  0  0  0  0  0
  -23.9713  -27.2663   19.0198 H   0  0  0  0  0  0
  -23.8088  -30.5541   19.3934 H   0  0  0  0  0  0
  -22.7842  -29.2266   19.8430 H   0  0  0  0  0  0
  -25.1312  -36.1832   25.0809 H   0  0  0  0  0  0
  -20.9985  -28.3315   24.1357 H   0  0  0  0  0  0
  -20.5652  -26.2343   23.3624 H   0  0  0  0  0  0
  -21.6651  -26.7437   22.1211 H   0  0  0  0  0  0
  -19.6928  -25.6280   21.1257 H   0  0  0  0  0  0
  -19.6701  -27.3178   20.6723 H   0  0  0  0  0  0
  -17.4201  -26.6668   21.4012 H   0  0  0  0  0  0
  -18.0347  -26.0084   22.9008 H   0  0  0  0  0  0
  -19.7947  -30.7276   24.2269 H   0  0  0  0  0  0
  -17.5027  -31.6290   24.5148 H   0  0  0  0  0  0
  -15.5362  -30.3004   23.7681 H   0  0  0  0  0  0
  -15.8657  -28.0827   22.7112 H   0  0  0  0  0  0
  -24.5907  -30.7056   25.7704 H   0  0  0  0  0  0
  -24.8898  -32.2902   26.4783 H   0  0  0  0  0  0
  -25.8015  -30.8911   27.0192 H   0  0  0  0  0  0
  -26.2962  -29.6652   24.1306 H   0  0  0  0  0  0
  -27.4000  -29.7245   25.4829 H   0  0  0  0  0  0
  -27.8866  -30.4132   23.9539 H   0  0  0  0  0  0
  -27.2684  -33.3645   26.1950 H   0  0  0  0  0  0
  -28.3915  -32.6796   25.0295 H   0  0  0  0  0  0
  -28.0695  -31.8471   26.5420 H   0  0  0  0  0  0
  -28.2561  -38.0109   24.7541 H   0  0  0  0  0  0
  -28.1108  -36.2636   24.6228 H   0  0  0  0  0  0
  -27.2313  -37.1351   25.8867 H   0  0  0  0  0  0
  -20.9434  -29.8779   21.6795 H   0  0  0  0  0  0
  -26.0130  -38.2789   24.1433 H   0  0  0  0  0  0
  -30.5175  -17.9094   16.9659 H   0  0  0  0  0  0
  -28.9402  -17.5307   17.5889 H   0  0  0  0  0  0
  -29.6453  -19.8783   18.1023 H   0  0  0  0  0  0
  -31.0341  -19.3023   19.0039 H   0  0  0  0  0  0
  -31.6292  -16.7596   18.7767 H   0  0  0  0  0  0
  -30.5328  -15.6878   17.9479 H   0  0  0  0  0  0
  -28.8124  -17.1920   21.4265 H   0  0  0  0  0  0
  -30.4630  -17.7011   21.3408 H   0  0  0  0  0  0
  -28.2005  -18.5381   19.4732 H   0  0  0  0  0  0
  -24.5366  -21.9263   22.4926 H   0  0  0  0  0  0
  -24.4311  -20.4754   21.4980 H   0  0  0  0  0  0
  -24.8643  -22.0195   20.7682 H   0  0  0  0  0  0
  -26.1657  -20.8791   24.0686 H   0  0  0  0  0  0
  -27.6917  -20.2184   23.5095 H   0  0  0  0  0  0
  -26.1903  -19.3555   23.1898 H   0  0  0  0  0  0
  -27.2736  -22.9998   19.6184 H   0  0  0  0  0  0
  -28.7018  -23.5569   18.8794 H   0  0  0  0  0  0
  -29.7588  -22.2086   21.1507 H   0  0  0  0  0  0
  -29.9122  -21.7827   19.5187 H   0  0  0  0  0  0
  -26.7194  -19.3037   20.8137 H   0  0  0  0  0  0
  -26.6999  -20.7018   19.7936 H   0  0  0  0  0  0
  -29.0335  -24.7246   21.3823 H   0  0  0  0  0  0
  -27.3261  -24.7184   21.3027 H   0  0  0  0  0  0
  -28.9971  -20.1894   21.6687 H   0  0  0  0  0  0
  -26.9843  -22.0714   22.0166 H   0  0  0  0  0  0
  1 25  1  0  0  0
  1 30  2  0  0  0
  1 84  1  0  0  0
  2  3  1  0  0  0
  2 25  1  0  0  0
  2 85  1  0  0  0
  2 86  1  0  0  0
  3  4  1  0  0  0
  3 87  1  0  0  0
  3 88  1  0  0  0
  4  5  1  0  0  0
  4 89  1  0  0  0
  4 90  1  0  0  0
  5  6  1  0  0  0
  5 26  1  0  0  0
  5 91  1  0  0  0
  6 25  1  0  0  0
  6 92  1  0  0  0
  6 93  1  0  0  0
  7  8  2  0  0  0
  7 26  1  0  0  0
  7 29  1  0  0  0
  8  9  1  0  0  0
  8 22  1  0  0  0
  9 10  1  0  0  0
  9 27  2  0  0  0
 10 11  2  0  0  0
 10 15  1  0  0  0
 11 12  1  0  0  0
 11 94  1  0  0  0
 12 13  2  0  0  0
 12 95  1  0  0  0
 13 14  1  0  0  0
 13 31  1  0  0  0
 14 15  2  0  0  0
 14 96  1  0  0  0
 15 97  1  0  0  0
 16 17  2  0  0  0
 16 21  1  0  0  0
 16 31  1  0  0  0
 17 18  1  0  0  0
 17 98  1  0  0  0
 18 19  2  0  0  0
 18 99  1  0  0  0
 19 20  1  0  0  0
 19 24  1  0  0  0
 20 21  2  0  0  0
 20100  1  0  0  0
 21 23  1  0  0  0
 22 28  1  0  0  0
 22 32  2  0  0  0
 26 27  1  0  0  0
 28101  1  0  0  0
 28102  1  0  0  0
 29103  1  0  0  0
 29104  1  0  0  0
 33 34  1  0  0  0
 33 66  1  0  0  0
 33 70  2  0  0  0
 34 36  1  0  0  0
 34 59  1  0  0  0
 34105  1  0  0  0
 35 44  2  0  0  0
 35 45  1  0  0  0
 35 68  1  0  0  0
 36 56  1  0  0  0
 36106  1  0  0  0
 37 39  1  0  0  0
 37 47  1  0  0  0
 37 66  1  0  0  0
 37107  1  0  0  0
 38 43  2  0  0  0
 38 46  1  0  0  0
 38 47  1  0  0  0
 39 64  1  0  0  0
 39 67  2  0  0  0
 40 52  1  0  0  0
 40 53  2  0  0  0
 40 58  1  0  0  0
 41108  1  0  0  0
 41109  1  0  0  0
 41110  1  0  0  0
 41 48  1  0  0  0
 42 43  1  0  0  0
 42 66  1  0  0  0
 42111  1  0  0  0
 42112  1  0  0  0
 43 44  1  0  0  0
 44113  1  0  0  0
 45 46  2  0  0  0
 45114  1  0  0  0
 46115  1  0  0  0
 47116  1  0  0  0
 47117  1  0  0  0
 48 56  1  0  0  0
 48 65  1  0  0  0
 48118  1  0  0  0
 49 50  1  0  0  0
 49 53  1  0  0  0
 49 64  1  0  0  0
 49119  1  0  0  0
 50 51  1  0  0  0
 50120  1  0  0  0
 50121  1  0  0  0
 51 52  1  0  0  0
 51122  1  0  0  0
 51123  1  0  0  0
 52124  1  0  0  0
 52125  1  0  0  0
 53 54  1  0  0  0
 54 55  2  0  0  0
 54126  1  0  0  0
 55 57  1  0  0  0
 55127  1  0  0  0
 56 69  2  0  0  0
 57 58  2  0  0  0
 57128  1  0  0  0
 58129  1  0  0  0
 59 60  1  0  0  0
 59 61  1  0  0  0
 59 62  1  0  0  0
 60130  1  0  0  0
 60131  1  0  0  0
 60132  1  0  0  0
 61133  1  0  0  0
 61134  1  0  0  0
 61135  1  0  0  0
 62136  1  0  0  0
 62137  1  0  0  0
 62138  1  0  0  0
 63 65  1  0  0  0
 63139  1  0  0  0
 63140  1  0  0  0
 63141  1  0  0  0
 64142  1  0  0  0
 65143  1  0  0  0
 68 81  1  0  0  0
 71 72  1  0  0  0
 71 73  1  0  0  0
 71144  1  0  0  0
 71145  1  0  0  0
 72146  1  0  0  0
 72147  1  0  0  0
 72 75  1  0  0  0
 73 84  1  0  0  0
 73148  1  0  0  0
 73149  1  0  0  0
 74 75  1  0  0  0
 74 84  1  0  0  0
 74150  1  0  0  0
 74151  1  0  0  0
 75 82  1  0  0  0
 75152  1  0  0  0
 76153  1  0  0  0
 76154  1  0  0  0
 76155  1  0  0  0
 76 83  1  0  0  0
 77 83  1  0  0  0
 77156  1  0  0  0
 77157  1  0  0  0
 77158  1  0  0  0
 78 79  1  0  0  0
 78 81  1  0  0  0
 78159  1  0  0  0
 78160  1  0  0  0
 79161  1  0  0  0
 79162  1  0  0  0
 79 82  1  0  0  0
 80 82  1  0  0  0
 80 83  1  0  0  0
 80163  1  0  0  0
 80164  1  0  0  0
 81165  1  0  0  0
 81166  1  0  0  0
 82167  1  0  0  0
 83168  1  0  0  0
M  ISO  4   1 100  68 101  81 101  84 100
M  END
> <chiral flag>
0

> <version>
0

> <s_m_source_file>
/data/baiqing/PycharmProjects/Reinvent-master-3.2/result/LINK_invent/BTK/process_docking_weight1_custom_sum_contain_oxygen_bond_distance_aromatic_linkinvent_7_9_3/rearranged_h_0048.sdf

> <i_m_source_file_index>
4

> <r_mmod_Potential_Energy-OPLS-2005>
878.952453613281

> <r_mmod_Stretch_Energy-OPLS-2005>
272.153503417969

> <r_mmod_Bend_Energy-OPLS-2005>
328.935791015625

> <r_mmod_Torsional_Energy-OPLS-2005>
415.303009033203

> <r_mmod_Improper_Torsional_Energy-OPLS-2005>
24.5068759918213

> <r_mmod_Van_der_Waal_Energy-OPLS-2005>
117.544555664062

> <r_mmod_Electrostatic_Energy-OPLS-2005>
-286.774688720703

> <r_mmod_Solvation_Energy-OPLS-2005>
-176.496429443359

> <b_mmod_Minimization_Converged-OPLS-2005>
0

> <r_mmod_RMS_Derivative-OPLS-2005>
1.77993810176849

$$$$
4
                    3D
 Structure written by MMmdl.
156164  0  0  1  0            999 V2000
  -31.4612  -14.7781   18.6836 C   0  0  0  0  0  0
  -30.8333  -13.8539   20.4703 C   0  0  0  0  0  0
  -29.7272  -12.7558   21.1865 C   0  0  0  0  0  0
  -28.0506  -12.6971   20.8595 C   0  0  0  0  0  0
  -27.2356  -13.6611   19.6455 C   0  0  2  0  0  0
  -28.3762  -15.0132   18.6118 C   0  0  0  0  0  0
  -24.9334  -14.0278   20.5106 C   0  0  0  0  0  0
  -23.9802  -13.1446   20.9281 C   0  0  0  0  0  0
  -24.4934  -11.8155   20.8225 C   0  0  0  0  0  0
  -23.8564  -10.4896   21.0190 C   0  0  0  0  0  0
  -24.3633   -9.4912   21.8840 C   0  0  0  0  0  0
  -23.6487   -8.2735   22.0665 C   0  0  0  0  0  0
  -22.4374   -8.0455   21.3602 C   0  0  0  0  0  0
  -21.9798   -9.0278   20.4618 C   0  0  0  0  0  0
  -22.6878  -10.2259   20.2845 C   0  0  0  0  0  0
  -21.6993   -6.0812   22.5322 C   0  0  0  0  0  0
  -21.4132   -6.5706   23.8237 C   0  0  0  0  0  0
  -21.3717   -5.6857   24.9173 C   0  0  0  0  0  0
  -21.6069   -4.3078   24.7216 C   0  0  0  0  0  0
  -21.8851   -3.8206   23.4315 C   0  0  0  0  0  0
  -21.9261   -4.7049   22.3394 C   0  0  0  0  0  0
  -22.5993  -13.5468   21.2459 C   0  0  0  0  0  0
  -22.1729   -4.2228   21.0957 F   0  0  0  0  0  0
  -21.5596   -3.4545   25.7676 F   0  0  0  0  0  0
  -30.3241  -14.9654   19.2091 N   0  0  0  0  0  0
  -25.9376  -13.2712   20.0784 N   0  0  0  0  0  0
  -25.6773  -11.9146   20.2736 N   0  0  0  0  0  0
  -21.9500  -12.8004   22.1251 N   0  0  0  0  0  0
  -25.0386  -15.3953   20.3794 N   0  0  0  0  0  0
  -32.5065  -15.1190   19.2462 O   0  0  0  0  0  0
  -21.6884   -6.8977   21.4282 O   0  0  0  0  0  0
  -22.1205  -14.5531   20.7299 O   0  0  0  0  0  0
  -24.7249  -31.7428   23.1161 C   0  0  0  0  0  0
  -25.9607  -32.4199   23.7834 C   0  0  1  0  0  0
  -27.0695  -26.0986   20.3900 C   0  0  0  0  0  0
  -25.5973  -33.8037   24.1594 N   0  0  0  0  0  0
  -23.5717  -30.3313   21.4778 C   0  0  2  0  0  0
  -25.0091  -28.5551   20.1367 C   0  0  0  0  0  0
  -22.7950  -29.4037   22.4545 C   0  0  0  0  0  0
  -18.0372  -28.1427   22.8467 C   0  0  0  0  0  0
  -24.1521  -36.7023   23.2672 C   0  0  0  0  0  0
  -26.1642  -30.2723   21.4889 C   0  0  0  0  0  0
  -26.1878  -28.7750   20.8534 C   0  0  0  0  0  0
  -27.1900  -27.5922   20.9289 C   0  0  0  0  0  0
  -25.9038  -26.2449   19.5602 C   0  0  0  0  0  0
  -24.9522  -27.3299   19.4527 C   0  0  0  0  0  0
  -23.8508  -29.5962   20.1245 C   0  0  0  0  0  0
  -25.4185  -36.2697   24.0221 C   0  0  1  0  0  0
  -20.6024  -28.3803   23.1066 C   0  0  2  0  0  0
  -20.6791  -26.9420   22.5445 C   0  0  0  0  0  0
  -19.5776  -26.6332   21.5260 C   0  0  0  0  0  0
  -18.1968  -26.7941   22.1634 C   0  0  0  0  0  0
  -19.1644  -28.8954   23.2740 C   0  0  0  0  0  0
  -18.9541  -30.1531   23.8792 C   0  0  0  0  0  0
  -17.6511  -30.6605   24.0537 C   0  0  0  0  0  0
  -25.9204  -34.9143   23.4822 C   0  0  0  0  0  0
  -16.5394  -29.9069   23.6369 C   0  0  0  0  0  0
  -16.7344  -28.6482   23.0410 C   0  0  0  0  0  0
  -26.4634  -31.6504   25.0735 C   0  0  0  0  0  0
  -25.3518  -31.3999   26.1233 C   0  0  0  0  0  0
  -27.0754  -30.2780   24.7188 C   0  0  0  0  0  0
  -27.5930  -32.4617   25.7508 C   0  0  0  0  0  0
  -27.5579  -37.1633   24.8400 C   0  0  0  0  0  0
  -21.4537  -29.2932   22.3291 N   0  0  0  0  0  0
  -26.4227  -37.3533   23.9451 N   0  0  0  0  0  0
  -24.8494  -30.8349   22.0721 N   0  0  0  0  0  0
  -23.4181  -28.7727   23.3120 O   0  0  0  0  0  0
  -27.8559  -24.5913   20.5181 O   0  0  0  0  0  0
  -26.5960  -34.8794   22.4526 O   0  0  0  0  0  0
  -23.6142  -32.0749   23.5740 O   0  0  0  0  0  0
  -27.6864  -15.8355   21.4385 C   0  0  0  0  0  0
  -28.3054  -18.2567   20.8421 C   0  0  0  0  0  0
  -29.1684  -16.8922   20.7513 C   0  0  0  0  0  0
  -30.6287  -17.3224   20.8865 C   0  0  0  0  0  0
  -32.4344  -13.7766   16.6575 C   0  0  0  0  0  0
  -28.4054  -20.4291   20.7854 C   0  0  0  0  0  0
  -29.3075  -12.9891   18.9070 C   0  0  0  0  0  0
  -30.0702  -13.2016   17.4511 C   0  0  0  0  0  0
  -27.6300  -22.5594   20.6187 C   0  0  0  0  0  0
  -27.3996  -17.2642   21.4485 N   0  0  0  0  0  0
  -28.7695  -15.1741   20.7983 N   0  0  0  0  0  0
  -31.3298  -13.9821   17.6016 N   0  0  0  0  0  0
  -31.6583  -13.1472   20.2528 H   0  0  0  0  0  0
  -31.2589  -14.4795   21.2691 H   0  0  0  0  0  0
  -29.8866  -12.8183   22.2641 H   0  0  0  0  0  0
  -30.0757  -11.7357   21.0023 H   0  0  0  0  0  0
  -27.6812  -13.1046   21.8042 H   0  0  0  0  0  0
  -27.8919  -11.6047   20.9195 H   0  0  0  0  0  0
  -26.9432  -13.1914   18.7095 H   0  0  0  0  0  0
  -28.2012  -14.9326   17.5380 H   0  0  0  0  0  0
  -27.9705  -16.0253   18.7053 H   0  0  0  0  0  0
  -25.2981   -9.6485   22.4041 H   0  0  0  0  0  0
  -24.0399   -7.5208   22.7378 H   0  0  0  0  0  0
  -21.0702   -8.8578   19.8982 H   0  0  0  0  0  0
  -22.3221  -10.9575   19.5726 H   0  0  0  0  0  0
  -21.2214   -7.6222   23.9738 H   0  0  0  0  0  0
  -21.1438   -6.0578   25.9080 H   0  0  0  0  0  0
  -22.0540   -2.7638   23.2800 H   0  0  0  0  0  0
  -22.3929  -11.9614   22.4866 H   0  0  0  0  0  0
  -21.0271  -13.0649   22.4384 H   0  0  0  0  0  0
  -24.3246  -15.9762   20.8028 H   0  0  0  0  0  0
  -25.9033  -15.8946   20.2197 H   0  0  0  0  0  0
  -26.7756  -32.4465   23.0567 H   0  0  0  0  0  0
  -24.9776  -33.8968   24.9500 H   0  0  0  0  0  0
  -22.9233  -31.1830   21.2593 H   0  0  0  0  0  0
  -23.3819  -35.9303   23.3059 H   0  0  0  0  0  0
  -24.3587  -36.8974   22.2147 H   0  0  0  0  0  0
  -23.7213  -37.6080   23.6948 H   0  0  0  0  0  0
  -26.4653  -30.9568   20.6914 H   0  0  0  0  0  0
  -26.9725  -30.3214   22.2045 H   0  0  0  0  0  0
  -28.0545  -27.7808   21.5452 H   0  0  0  0  0  0
  -25.6323  -25.3572   19.0037 H   0  0  0  0  0  0
  -24.0805  -27.1504   18.8320 H   0  0  0  0  0  0
  -24.0911  -30.3449   19.3687 H   0  0  0  0  0  0
  -22.9331  -29.1168   19.7802 H   0  0  0  0  0  0
  -25.1405  -36.1356   25.0678 H   0  0  0  0  0  0
  -21.0108  -28.3482   24.1182 H   0  0  0  0  0  0
  -20.5617  -26.2485   23.3775 H   0  0  0  0  0  0
  -21.6667  -26.7281   22.1314 H   0  0  0  0  0  0
  -19.6946  -25.6210   21.1400 H   0  0  0  0  0  0
  -19.6738  -27.3051   20.6727 H   0  0  0  0  0  0
  -17.4275  -26.6763   21.3993 H   0  0  0  0  0  0
  -18.0257  -26.0077   22.8995 H   0  0  0  0  0  0
  -19.8018  -30.7388   24.2124 H   0  0  0  0  0  0
  -17.5052  -31.6255   24.5158 H   0  0  0  0  0  0
  -15.5400  -30.2932   23.7691 H   0  0  0  0  0  0
  -15.8755  -28.0728   22.7190 H   0  0  0  0  0  0
  -24.5750  -30.7323   25.7481 H   0  0  0  0  0  0
  -24.8692  -32.3294   26.4233 H   0  0  0  0  0  0
  -25.7506  -30.9415   27.0270 H   0  0  0  0  0  0
  -26.3591  -29.6059   24.2475 H   0  0  0  0  0  0
  -27.4156  -29.7687   25.6188 H   0  0  0  0  0  0
  -27.9538  -30.3745   24.0822 H   0  0  0  0  0  0
  -27.2357  -33.4095   26.1484 H   0  0  0  0  0  0
  -28.3924  -32.6889   25.0475 H   0  0  0  0  0  0
  -28.0369  -31.9247   26.5865 H   0  0  0  0  0  0
  -28.2336  -38.0169   24.7676 H   0  0  0  0  0  0
  -28.1319  -36.2694   24.5899 H   0  0  0  0  0  0
  -27.2321  -37.0827   25.8782 H   0  0  0  0  0  0
  -20.9920  -29.8538   21.6212 H   0  0  0  0  0  0
  -25.9972  -38.2510   24.1555 H   0  0  0  0  0  0
  -26.9702  -15.1777   21.9081 H   0  0  0  0  0  0
  -30.6413  -18.3670   21.1886 H   0  0  0  0  0  0
  -31.2713  -17.2163   20.0068 H   0  0  0  0  0  0
  -31.1218  -16.8625   21.7354 H   0  0  0  0  0  0
  -33.0826  -14.6578   16.6463 H   0  0  0  0  0  0
  -32.1062  -13.6107   15.6305 H   0  0  0  0  0  0
  -33.0452  -12.9288   16.9696 H   0  0  0  0  0  0
  -29.0382  -20.4964   19.9002 H   0  0  0  0  0  0
  -29.0981  -20.5879   21.6144 H   0  0  0  0  0  0
  -29.9523  -12.1356   19.1067 H   0  0  0  0  0  0
  -28.5690  -12.2555   18.5552 H   0  0  0  0  0  0
  -29.5153  -13.7348   16.6783 H   0  0  0  0  0  0
  -30.2052  -12.2322   16.9461 H   0  0  0  0  0  0
  -26.8282  -22.4072   19.8930 H   0  0  0  0  0  0
  -27.1229  -22.5621   21.5839 H   0  0  0  0  0  0
  1 25  1  0  0  0
  1 30  2  0  0  0
  1 82  1  0  0  0
  2  3  1  0  0  0
  2 25  1  0  0  0
  2 83  1  0  0  0
  2 84  1  0  0  0
  3  4  1  0  0  0
  3 85  1  0  0  0
  3 86  1  0  0  0
  4  5  1  0  0  0
  4 87  1  0  0  0
  4 88  1  0  0  0
  5  6  1  0  0  0
  5 26  1  0  0  0
  5 89  1  0  0  0
  6 25  1  0  0  0
  6 90  1  0  0  0
  6 91  1  0  0  0
  7  8  2  0  0  0
  7 26  1  0  0  0
  7 29  1  0  0  0
  8  9  1  0  0  0
  8 22  1  0  0  0
  9 10  1  0  0  0
  9 27  2  0  0  0
 10 11  2  0  0  0
 10 15  1  0  0  0
 11 12  1  0  0  0
 11 92  1  0  0  0
 12 13  2  0  0  0
 12 93  1  0  0  0
 13 14  1  0  0  0
 13 31  1  0  0  0
 14 15  2  0  0  0
 14 94  1  0  0  0
 15 95  1  0  0  0
 16 17  2  0  0  0
 16 21  1  0  0  0
 16 31  1  0  0  0
 17 18  1  0  0  0
 17 96  1  0  0  0
 18 19  2  0  0  0
 18 97  1  0  0  0
 19 20  1  0  0  0
 19 24  1  0  0  0
 20 21  2  0  0  0
 20 98  1  0  0  0
 21 23  1  0  0  0
 22 28  1  0  0  0
 22 32  2  0  0  0
 26 27  1  0  0  0
 28 99  1  0  0  0
 28100  1  0  0  0
 29101  1  0  0  0
 29102  1  0  0  0
 33 34  1  0  0  0
 33 66  1  0  0  0
 33 70  2  0  0  0
 34 36  1  0  0  0
 34 59  1  0  0  0
 34103  1  0  0  0
 35 44  2  0  0  0
 35 45  1  0  0  0
 35 68  1  0  0  0
 36 56  1  0  0  0
 36104  1  0  0  0
 37 39  1  0  0  0
 37 47  1  0  0  0
 37 66  1  0  0  0
 37105  1  0  0  0
 38 43  2  0  0  0
 38 46  1  0  0  0
 38 47  1  0  0  0
 39 64  1  0  0  0
 39 67  2  0  0  0
 40 52  1  0  0  0
 40 53  2  0  0  0
 40 58  1  0  0  0
 41106  1  0  0  0
 41107  1  0  0  0
 41108  1  0  0  0
 41 48  1  0  0  0
 42 43  1  0  0  0
 42 66  1  0  0  0
 42109  1  0  0  0
 42110  1  0  0  0
 43 44  1  0  0  0
 44111  1  0  0  0
 45 46  2  0  0  0
 45112  1  0  0  0
 46113  1  0  0  0
 47114  1  0  0  0
 47115  1  0  0  0
 48 56  1  0  0  0
 48 65  1  0  0  0
 48116  1  0  0  0
 49 50  1  0  0  0
 49 53  1  0  0  0
 49 64  1  0  0  0
 49117  1  0  0  0
 50 51  1  0  0  0
 50118  1  0  0  0
 50119  1  0  0  0
 51 52  1  0  0  0
 51120  1  0  0  0
 51121  1  0  0  0
 52122  1  0  0  0
 52123  1  0  0  0
 53 54  1  0  0  0
 54 55  2  0  0  0
 54124  1  0  0  0
 55 57  1  0  0  0
 55125  1  0  0  0
 56 69  2  0  0  0
 57 58  2  0  0  0
 57126  1  0  0  0
 58127  1  0  0  0
 59 60  1  0  0  0
 59 61  1  0  0  0
 59 62  1  0  0  0
 60128  1  0  0  0
 60129  1  0  0  0
 60130  1  0  0  0
 61131  1  0  0  0
 61132  1  0  0  0
 61133  1  0  0  0
 62134  1  0  0  0
 62135  1  0  0  0
 62136  1  0  0  0
 63 65  1  0  0  0
 63137  1  0  0  0
 63138  1  0  0  0
 63139  1  0  0  0
 64140  1  0  0  0
 65141  1  0  0  0
 68 79  1  0  0  0
 71 80  2  0  0  0
 71 81  1  0  0  0
 71142  1  0  0  0
 72 73  2  0  0  0
 72 76  1  0  0  0
 72 80  1  0  0  0
 73 74  1  0  0  0
 73 81  1  0  0  0
 74143  1  0  0  0
 74144  1  0  0  0
 74145  1  0  0  0
 75 82  1  0  0  0
 75146  1  0  0  0
 75147  1  0  0  0
 75148  1  0  0  0
 76 79  1  0  0  0
 76149  1  0  0  0
 76150  1  0  0  0
 77 78  1  0  0  0
 77 81  1  0  0  0
 77151  1  0  0  0
 77152  1  0  0  0
 78 82  1  0  0  0
 78153  1  0  0  0
 78154  1  0  0  0
 79155  1  0  0  0
 79156  1  0  0  0
M  ISO  4   1 100  68 101  79 101  82 100
M  END
> <chiral flag>
0

> <version>
0

> <s_m_source_file>
/data/baiqing/PycharmProjects/Reinvent-master-3.2/result/LINK_invent/BTK/process_docking_weight1_custom_sum_contain_oxygen_bond_distance_aromatic_linkinvent_7_9_3/rearranged_h_0048.sdf

> <i_m_source_file_index>
5

> <r_mmod_Potential_Energy-OPLS-2005>
15489.4248046875

> <r_mmod_Stretch_Energy-OPLS-2005>
6695.91064453125

> <r_mmod_Bend_Energy-OPLS-2005>
1610.38891601562

> <r_mmod_Torsional_Energy-OPLS-2005>
479.210754394531

> <r_mmod_Improper_Torsional_Energy-OPLS-2005>
41.0309677124023

> <r_mmod_Van_der_Waal_Energy-OPLS-2005>
2013.61779785156

> <r_mmod_Electrostatic_Energy-OPLS-2005>
-301.277465820312

> <r_mmod_Solvation_Energy-OPLS-2005>
-213.72526550293

> <b_mmod_Minimization_Converged-OPLS-2005>
0

> <r_mmod_RMS_Derivative-OPLS-2005>
23.8997955322266

$$$$
5
                    3D
 Structure written by MMmdl.
149156  0  0  1  0            999 V2000
  -30.1638  -16.0119   20.3160 C   0  0  0  0  0  0
  -30.3947  -13.3606   19.5646 C   0  0  0  0  0  0
  -29.5653  -12.7707   18.3739 C   0  0  0  0  0  0
  -28.1685  -12.3291   18.8238 C   0  0  0  0  0  0
  -27.5886  -13.3498   19.8213 C   0  0  2  0  0  0
  -28.5770  -13.8157   20.9270 C   0  0  0  0  0  0
  -25.2252  -13.8332   20.5837 C   0  0  0  0  0  0
  -24.1685  -13.0430   20.9301 C   0  0  0  0  0  0
  -24.6454  -11.6963   20.8760 C   0  0  0  0  0  0
  -23.9163  -10.4296   21.0385 C   0  0  0  0  0  0
  -24.3682   -9.4206   21.9176 C   0  0  0  0  0  0
  -23.6328   -8.2255   22.0756 C   0  0  0  0  0  0
  -22.4304   -8.0302   21.3549 C   0  0  0  0  0  0
  -21.9961   -9.0281   20.4647 C   0  0  0  0  0  0
  -22.7318  -10.2144   20.3047 C   0  0  0  0  0  0
  -21.6865   -6.0752   22.5280 C   0  0  0  0  0  0
  -21.4028   -6.5650   23.8216 C   0  0  0  0  0  0
  -21.3659   -5.6798   24.9174 C   0  0  0  0  0  0
  -21.6040   -4.3060   24.7222 C   0  0  0  0  0  0
  -21.8817   -3.8157   23.4340 C   0  0  0  0  0  0
  -21.9197   -4.6978   22.3400 C   0  0  0  0  0  0
  -22.7690  -13.5132   21.1925 C   0  0  0  0  0  0
  -22.1661   -4.2165   21.0977 F   0  0  0  0  0  0
  -21.5624   -3.4540   25.7730 F   0  0  0  0  0  0
  -29.6951  -14.5704   20.2695 N   0  0  0  0  0  0
  -26.2771  -12.9756   20.3323 N   0  0  0  0  0  0
  -25.9425  -11.6779   20.5706 N   0  0  0  0  0  0
  -22.0364  -12.8105   22.0479 N   0  0  0  0  0  0
  -25.3751  -15.2072   20.4260 N   0  0  0  0  0  0
  -31.3886  -15.8931   20.0635 O   0  0  0  0  0  0
  -21.6653   -6.8905   21.4247 O   0  0  0  0  0  0
  -22.3351  -14.5429   20.6765 O   0  0  0  0  0  0
  -24.7071  -31.7691   23.1294 C   0  0  0  0  0  0
  -25.9533  -32.4310   23.7936 C   0  0  1  0  0  0
  -27.2447  -26.4462   20.2373 C   0  0  0  0  0  0
  -25.6006  -33.8152   24.1792 N   0  0  0  0  0  0
  -23.5461  -30.3578   21.4877 C   0  0  2  0  0  0
  -25.0099  -28.6450   20.1191 C   0  0  0  0  0  0
  -22.7874  -29.4143   22.4627 C   0  0  0  0  0  0
  -18.0355  -28.1432   22.8440 C   0  0  0  0  0  0
  -24.1499  -36.7090   23.2661 C   0  0  0  0  0  0
  -26.1356  -30.4151   21.4359 C   0  0  0  0  0  0
  -26.1985  -28.9520   20.7894 C   0  0  0  0  0  0
  -27.2820  -27.8863   20.8149 C   0  0  0  0  0  0
  -26.0257  -26.4169   19.4929 C   0  0  0  0  0  0
  -24.9781  -27.4066   19.4466 C   0  0  0  0  0  0
  -23.8156  -29.6298   20.1335 C   0  0  0  0  0  0
  -25.4160  -36.2804   24.0259 C   0  0  1  0  0  0
  -20.6002  -28.3803   23.1092 C   0  0  2  0  0  0
  -20.6807  -26.9438   22.5406 C   0  0  0  0  0  0
  -19.5787  -26.6358   21.5218 C   0  0  0  0  0  0
  -18.1970  -26.7952   22.1615 C   0  0  0  0  0  0
  -19.1627  -28.8948   23.2738 C   0  0  0  0  0  0
  -18.9528  -30.1525   23.8796 C   0  0  0  0  0  0
  -17.6515  -30.6608   24.0543 C   0  0  0  0  0  0
  -25.9151  -34.9200   23.4882 C   0  0  0  0  0  0
  -16.5403  -29.9084   23.6358 C   0  0  0  0  0  0
  -16.7333  -28.6508   23.0372 C   0  0  0  0  0  0
  -26.4633  -31.6464   25.0672 C   0  0  0  0  0  0
  -25.3635  -31.3866   26.1243 C   0  0  0  0  0  0
  -27.0611  -30.2772   24.6773 C   0  0  0  0  0  0
  -27.6021  -32.4397   25.7513 C   0  0  0  0  0  0
  -27.5552  -37.1707   24.8471 C   0  0  0  0  0  0
  -21.4500  -29.2997   22.3377 N   0  0  0  0  0  0
  -26.4268  -37.3589   23.9395 N   0  0  0  0  0  0
  -24.8223  -30.8874   22.0692 N   0  0  0  0  0  0
  -23.4194  -28.7793   23.3098 O   0  0  0  0  0  0
  -28.1743  -25.1153   20.3754 O   0  0  0  0  0  0
  -26.5833  -34.8828   22.4527 O   0  0  0  0  0  0
  -23.6037  -32.0889   23.6085 O   0  0  0  0  0  0
  -29.7857  -21.5838   21.6755 C   0  0  0  0  0  0
  -27.3991  -20.9803   21.3162 C   0  0  0  0  0  0
  -28.3028  -17.3356   21.3914 C   0  0  0  0  0  0
  -29.3498  -19.3521   20.0325 C   0  0  0  0  0  0
  -28.3004  -23.2611   19.9887 C   0  0  0  0  0  0
  -28.7263  -21.2878   20.6052 C   0  0  0  0  0  0
  -29.4103  -17.4833   20.4545 N   0  0  0  0  0  0
  -31.3604  -13.6665   19.1614 H   0  0  0  0  0  0
  -30.6460  -12.5775   20.2820 H   0  0  0  0  0  0
  -30.0951  -11.9370   17.9113 H   0  0  0  0  0  0
  -29.4668  -13.5366   17.6032 H   0  0  0  0  0  0
  -28.2572  -11.3563   19.3089 H   0  0  0  0  0  0
  -27.5063  -12.1947   17.9677 H   0  0  0  0  0  0
  -27.4089  -14.2309   19.2032 H   0  0  0  0  0  0
  -28.9200  -12.9828   21.5430 H   0  0  0  0  0  0
  -28.0583  -14.4836   21.6124 H   0  0  0  0  0  0
  -25.2821   -9.5677   22.4763 H   0  0  0  0  0  0
  -24.0026   -7.4649   22.7484 H   0  0  0  0  0  0
  -21.0890   -8.8820   19.8951 H   0  0  0  0  0  0
  -22.3783  -10.9693   19.6162 H   0  0  0  0  0  0
  -21.2030   -7.6160   23.9723 H   0  0  0  0  0  0
  -21.1478   -6.0527   25.9078 H   0  0  0  0  0  0
  -22.0593   -2.7620   23.2832 H   0  0  0  0  0  0
  -22.4020  -11.9794   22.4888 H   0  0  0  0  0  0
  -21.0973  -13.1103   22.2686 H   0  0  0  0  0  0
  -24.5995  -15.8506   20.5394 H   0  0  0  0  0  0
  -26.2174  -15.6544   20.0904 H   0  0  0  0  0  0
  -26.7639  -32.4715   23.0659 H   0  0  0  0  0  0
  -25.0012  -33.9142   24.9851 H   0  0  0  0  0  0
  -22.8866  -31.2014   21.2748 H   0  0  0  0  0  0
  -23.3769  -35.9411   23.3283 H   0  0  0  0  0  0
  -24.3547  -36.8808   22.2082 H   0  0  0  0  0  0
  -23.7265  -37.6251   23.6789 H   0  0  0  0  0  0
  -26.3667  -31.1225   20.6384 H   0  0  0  0  0  0
  -26.9758  -30.4910   22.1129 H   0  0  0  0  0  0
  -28.1622  -28.1319   21.3923 H   0  0  0  0  0  0
  -25.8202  -25.4953   18.9667 H   0  0  0  0  0  0
  -24.0893  -27.1584   18.8831 H   0  0  0  0  0  0
  -24.0098  -30.3790   19.3652 H   0  0  0  0  0  0
  -22.9160  -29.1072   19.8039 H   0  0  0  0  0  0
  -25.1389  -36.1529   25.0750 H   0  0  0  0  0  0
  -21.0076  -28.3449   24.1222 H   0  0  0  0  0  0
  -20.5645  -26.2435   23.3691 H   0  0  0  0  0  0
  -21.6667  -26.7334   22.1243 H   0  0  0  0  0  0
  -19.6937  -25.6241   21.1315 H   0  0  0  0  0  0
  -19.6737  -27.3114   20.6706 H   0  0  0  0  0  0
  -17.4238  -26.6690   21.4021 H   0  0  0  0  0  0
  -18.0353  -26.0121   22.9037 H   0  0  0  0  0  0
  -19.8006  -30.7366   24.2120 H   0  0  0  0  0  0
  -17.5066  -31.6279   24.5164 H   0  0  0  0  0  0
  -15.5401  -30.2955   23.7740 H   0  0  0  0  0  0
  -15.8734  -28.0794   22.7147 H   0  0  0  0  0  0
  -24.5827  -30.7217   25.7532 H   0  0  0  0  0  0
  -24.8826  -32.3123   26.4415 H   0  0  0  0  0  0
  -25.7745  -30.9178   27.0192 H   0  0  0  0  0  0
  -26.3377  -29.6299   24.1805 H   0  0  0  0  0  0
  -27.3969  -29.7332   25.5613 H   0  0  0  0  0  0
  -27.9385  -30.3836   24.0391 H   0  0  0  0  0  0
  -27.2500  -33.3781   26.1814 H   0  0  0  0  0  0
  -28.3972  -32.6834   25.0454 H   0  0  0  0  0  0
  -28.0538  -31.8727   26.5663 H   0  0  0  0  0  0
  -28.2548  -38.0017   24.7473 H   0  0  0  0  0  0
  -28.1064  -36.2531   24.6360 H   0  0  0  0  0  0
  -27.2253  -37.1413   25.8871 H   0  0  0  0  0  0
  -20.9863  -29.8606   21.6364 H   0  0  0  0  0  0
  -26.0072  -38.2631   24.1381 H   0  0  0  0  0  0
  -29.9545  -20.7237   22.3241 H   0  0  0  0  0  0
  -29.4924  -22.4227   22.3078 H   0  0  0  0  0  0
  -30.7392  -21.8391   21.2125 H   0  0  0  0  0  0
  -27.5216  -20.2860   22.1441 H   0  0  0  0  0  0
  -26.6759  -20.5544   20.6206 H   0  0  0  0  0  0
  -26.9559  -21.8833   21.7373 H   0  0  0  0  0  0
  -27.3845  -17.0847   20.8634 H   0  0  0  0  0  0
  -28.1368  -18.2535   21.9455 H   0  0  0  0  0  0
  -28.4945  -16.5767   22.1503 H   0  0  0  0  0  0
  -30.3938  -19.5192   19.7660 H   0  0  0  0  0  0
  -28.8619  -19.2732   19.0609 H   0  0  0  0  0  0
  -27.3590  -23.1228   19.4566 H   0  0  0  0  0  0
  -29.0254  -23.3457   19.1791 H   0  0  0  0  0  0
  1 25  1  0  0  0
  1 30  2  0  0  0
  1 77  1  0  0  0
  2  3  1  0  0  0
  2 25  1  0  0  0
  2 78  1  0  0  0
  2 79  1  0  0  0
  3  4  1  0  0  0
  3 80  1  0  0  0
  3 81  1  0  0  0
  4  5  1  0  0  0
  4 82  1  0  0  0
  4 83  1  0  0  0
  5  6  1  0  0  0
  5 26  1  0  0  0
  5 84  1  0  0  0
  6 25  1  0  0  0
  6 85  1  0  0  0
  6 86  1  0  0  0
  7  8  2  0  0  0
  7 26  1  0  0  0
  7 29  1  0  0  0
  8  9  1  0  0  0
  8 22  1  0  0  0
  9 10  1  0  0  0
  9 27  2  0  0  0
 10 11  2  0  0  0
 10 15  1  0  0  0
 11 12  1  0  0  0
 11 87  1  0  0  0
 12 13  2  0  0  0
 12 88  1  0  0  0
 13 14  1  0  0  0
 13 31  1  0  0  0
 14 15  2  0  0  0
 14 89  1  0  0  0
 15 90  1  0  0  0
 16 17  2  0  0  0
 16 21  1  0  0  0
 16 31  1  0  0  0
 17 18  1  0  0  0
 17 91  1  0  0  0
 18 19  2  0  0  0
 18 92  1  0  0  0
 19 20  1  0  0  0
 19 24  1  0  0  0
 20 21  2  0  0  0
 20 93  1  0  0  0
 21 23  1  0  0  0
 22 28  1  0  0  0
 22 32  2  0  0  0
 26 27  1  0  0  0
 28 94  1  0  0  0
 28 95  1  0  0  0
 29 96  1  0  0  0
 29 97  1  0  0  0
 33 34  1  0  0  0
 33 66  1  0  0  0
 33 70  2  0  0  0
 34 36  1  0  0  0
 34 59  1  0  0  0
 34 98  1  0  0  0
 35 44  2  0  0  0
 35 45  1  0  0  0
 35 68  1  0  0  0
 36 56  1  0  0  0
 36 99  1  0  0  0
 37 39  1  0  0  0
 37 47  1  0  0  0
 37 66  1  0  0  0
 37100  1  0  0  0
 38 43  2  0  0  0
 38 46  1  0  0  0
 38 47  1  0  0  0
 39 64  1  0  0  0
 39 67  2  0  0  0
 40 52  1  0  0  0
 40 53  2  0  0  0
 40 58  1  0  0  0
 41101  1  0  0  0
 41102  1  0  0  0
 41103  1  0  0  0
 41 48  1  0  0  0
 42 43  1  0  0  0
 42 66  1  0  0  0
 42104  1  0  0  0
 42105  1  0  0  0
 43 44  1  0  0  0
 44106  1  0  0  0
 45 46  2  0  0  0
 45107  1  0  0  0
 46108  1  0  0  0
 47109  1  0  0  0
 47110  1  0  0  0
 48 56  1  0  0  0
 48 65  1  0  0  0
 48111  1  0  0  0
 49 50  1  0  0  0
 49 53  1  0  0  0
 49 64  1  0  0  0
 49112  1  0  0  0
 50 51  1  0  0  0
 50113  1  0  0  0
 50114  1  0  0  0
 51 52  1  0  0  0
 51115  1  0  0  0
 51116  1  0  0  0
 52117  1  0  0  0
 52118  1  0  0  0
 53 54  1  0  0  0
 54 55  2  0  0  0
 54119  1  0  0  0
 55 57  1  0  0  0
 55120  1  0  0  0
 56 69  2  0  0  0
 57 58  2  0  0  0
 57121  1  0  0  0
 58122  1  0  0  0
 59 60  1  0  0  0
 59 61  1  0  0  0
 59 62  1  0  0  0
 60123  1  0  0  0
 60124  1  0  0  0
 60125  1  0  0  0
 61126  1  0  0  0
 61127  1  0  0  0
 61128  1  0  0  0
 62129  1  0  0  0
 62130  1  0  0  0
 62131  1  0  0  0
 63 65  1  0  0  0
 63132  1  0  0  0
 63133  1  0  0  0
 63134  1  0  0  0
 64135  1  0  0  0
 65136  1  0  0  0
 68 75  1  0  0  0
 71137  1  0  0  0
 71138  1  0  0  0
 71139  1  0  0  0
 71 76  1  0  0  0
 72 76  1  0  0  0
 72140  1  0  0  0
 72141  1  0  0  0
 72142  1  0  0  0
 73 77  1  0  0  0
 73143  1  0  0  0
 73144  1  0  0  0
 73145  1  0  0  0
 74 76  1  0  0  0
 74 77  1  0  0  0
 74146  1  0  0  0
 74147  1  0  0  0
 75 76  1  0  0  0
 75148  1  0  0  0
 75149  1  0  0  0
M  ISO  4   1 100  68 101  75 101  77 100
M  END
> <chiral flag>
0

> <version>
0

> <s_m_source_file>
/data/baiqing/PycharmProjects/Reinvent-master-3.2/result/LINK_invent/BTK/process_docking_weight1_custom_sum_contain_oxygen_bond_distance_aromatic_linkinvent_7_9_3/rearranged_h_0048.sdf

> <i_m_source_file_index>
6

> <r_mmod_Potential_Energy-OPLS-2005>
4311.88525390625

> <r_mmod_Stretch_Energy-OPLS-2005>
1962.51940917969

> <r_mmod_Bend_Energy-OPLS-2005>
900.8505859375

> <r_mmod_Torsional_Energy-OPLS-2005>
296.341705322266

> <r_mmod_Improper_Torsional_Energy-OPLS-2005>
3.7424054145813

> <r_mmod_Van_der_Waal_Energy-OPLS-2005>
113.817779541016

> <r_mmod_Electrostatic_Energy-OPLS-2005>
-293.495910644531

> <r_mmod_Solvation_Energy-OPLS-2005>
-209.17170715332

> <b_mmod_Minimization_Converged-OPLS-2005>
0

> <r_mmod_RMS_Derivative-OPLS-2005>
0.6614870429039

$$$$
6
                    3D
 Structure written by MMmdl.
157165  0  0  1  0            999 V2000
  -30.5519  -14.9257   20.3427 C   0  0  0  0  0  0
  -30.4442  -12.5561   19.4729 C   0  0  0  0  0  0
  -29.5166  -12.4450   18.2412 C   0  0  0  0  0  0
  -28.0360  -12.2982   18.6566 C   0  0  0  0  0  0
  -27.6197  -13.2262   19.8291 C   0  0  2  0  0  0
  -28.6788  -13.2833   20.9466 C   0  0  0  0  0  0
  -25.2484  -13.8161   20.5763 C   0  0  0  0  0  0
  -24.1769  -13.0428   20.9247 C   0  0  0  0  0  0
  -24.6354  -11.6900   20.8795 C   0  0  0  0  0  0
  -23.9046  -10.4285   21.0429 C   0  0  0  0  0  0
  -24.3611   -9.4201   21.9198 C   0  0  0  0  0  0
  -23.6286   -8.2240   22.0762 C   0  0  0  0  0  0
  -22.4271   -8.0277   21.3550 C   0  0  0  0  0  0
  -21.9907   -9.0252   20.4658 C   0  0  0  0  0  0
  -22.7232  -10.2130   20.3066 C   0  0  0  0  0  0
  -21.6853   -6.0742   22.5281 C   0  0  0  0  0  0
  -21.4007   -6.5639   23.8216 C   0  0  0  0  0  0
  -21.3641   -5.6788   24.9175 C   0  0  0  0  0  0
  -21.6039   -4.3052   24.7222 C   0  0  0  0  0  0
  -21.8820   -3.8152   23.4340 C   0  0  0  0  0  0
  -21.9194   -4.6972   22.3403 C   0  0  0  0  0  0
  -22.7789  -13.5231   21.1861 C   0  0  0  0  0  0
  -22.1669   -4.2152   21.0982 F   0  0  0  0  0  0
  -21.5626   -3.4538   25.7739 F   0  0  0  0  0  0
  -29.9458  -13.6738   20.3134 N   0  0  0  0  0  0
  -26.2864  -12.9331   20.3306 N   0  0  0  0  0  0
  -25.9280  -11.6494   20.5807 N   0  0  0  0  0  0
  -22.0417  -12.8239   22.0403 N   0  0  0  0  0  0
  -25.4206  -15.1902   20.4229 N   0  0  0  0  0  0
  -31.7855  -14.9643   20.2817 O   0  0  0  0  0  0
  -21.6632   -6.8881   21.4240 O   0  0  0  0  0  0
  -22.3498  -14.5543   20.6685 O   0  0  0  0  0  0
  -24.6399  -31.8485   23.1921 C   0  0  0  0  0  0
  -25.9186  -32.4727   23.8304 C   0  0  1  0  0  0
  -27.2292  -27.1806   20.1294 C   0  0  0  0  0  0
  -25.5951  -33.8536   24.2230 N   0  0  0  0  0  0
  -23.4421  -30.4694   21.5365 C   0  0  2  0  0  0
  -24.8927  -28.9082   20.1045 C   0  0  0  0  0  0
  -22.7560  -29.4559   22.4863 C   0  0  0  0  0  0
  -18.0298  -28.1401   22.8484 C   0  0  0  0  0  0
  -24.1486  -36.7272   23.2643 C   0  0  0  0  0  0
  -25.9959  -30.7360   21.3850 C   0  0  0  0  0  0
  -26.0672  -29.3521   20.7237 C   0  0  0  0  0  0
  -27.2316  -28.5018   20.7252 C   0  0  0  0  0  0
  -26.0186  -26.8244   19.4877 C   0  0  0  0  0  0
  -24.8803  -27.6563   19.4751 C   0  0  0  0  0  0
  -23.6660  -29.8029   20.1535 C   0  0  0  0  0  0
  -25.4121  -36.3058   24.0322 C   0  0  1  0  0  0
  -20.5912  -28.3717   23.1255 C   0  0  2  0  0  0
  -20.6785  -26.9424   22.5406 C   0  0  0  0  0  0
  -19.5752  -26.6386   21.5218 C   0  0  0  0  0  0
  -18.1934  -26.7943   22.1630 C   0  0  0  0  0  0
  -19.1554  -28.8877   23.2863 C   0  0  0  0  0  0
  -18.9470  -30.1477   23.8886 C   0  0  0  0  0  0
  -17.6465  -30.6597   24.0566 C   0  0  0  0  0  0
  -25.9068  -34.9432   23.5079 C   0  0  0  0  0  0
  -16.5359  -29.9093   23.6330 C   0  0  0  0  0  0
  -16.7285  -28.6509   23.0359 C   0  0  0  0  0  0
  -26.4524  -31.6575   25.0733 C   0  0  0  0  0  0
  -25.3713  -31.3744   26.1428 C   0  0  0  0  0  0
  -27.0387  -30.2976   24.6285 C   0  0  0  0  0  0
  -27.6062  -32.4336   25.7532 C   0  0  0  0  0  0
  -27.5580  -37.1804   24.8465 C   0  0  0  0  0  0
  -21.4252  -29.3051   22.3629 N   0  0  0  0  0  0
  -26.4288  -37.3766   23.9405 N   0  0  0  0  0  0
  -24.7121  -31.0380   22.0935 N   0  0  0  0  0  0
  -23.4226  -28.8086   23.2978 O   0  0  0  0  0  0
  -28.3063  -26.2361   20.2455 O   0  0  0  0  0  0
  -26.5645  -34.8920   22.4653 O   0  0  0  0  0  0
  -23.5530  -32.1340   23.7159 O   0  0  0  0  0  0
  -27.8580  -21.1470   20.1975 C   0  0  0  0  0  0
  -29.1369  -20.4916   20.1865 C   0  0  0  0  0  0
  -30.0032  -22.7451   20.1067 C   0  0  0  0  0  0
  -28.7093  -23.3955   20.0466 C   0  0  0  0  0  0
  -32.1114  -23.4425   21.3393 C   0  0  0  0  0  0
  -29.0928  -16.1558   18.8279 C   0  0  0  0  0  0
  -29.2983  -18.9047   19.8076 C   0  0  0  0  0  0
  -31.2965  -23.5439   20.0406 C   0  0  0  0  0  0
  -28.4030  -24.9087   19.4799 C   0  0  0  0  0  0
  -29.9536  -17.6007   20.6358 C   0  0  0  0  0  0
  -27.6536  -22.5190   20.1226 N   0  0  0  0  0  0
  -30.2003  -21.3607   20.1563 N   0  0  0  0  0  0
  -29.7806  -16.1111   20.1286 N   0  0  0  0  0  0
  -31.4727  -12.7264   19.1471 H   0  0  0  0  0  0
  -30.4524  -11.6231   20.0391 H   0  0  0  0  0  0
  -29.8107  -11.5865   17.6375 H   0  0  0  0  0  0
  -29.6488  -13.3037   17.5856 H   0  0  0  0  0  0
  -27.8850  -11.2584   18.9457 H   0  0  0  0  0  0
  -27.3849  -12.4651   17.7980 H   0  0  0  0  0  0
  -27.5435  -14.2145   19.3969 H   0  0  0  0  0  0
  -28.7707  -12.3215   21.4532 H   0  0  0  0  0  0
  -28.3932  -14.0166   21.7028 H   0  0  0  0  0  0
  -25.2760   -9.5679   22.4770 H   0  0  0  0  0  0
  -23.9995   -7.4632   22.7482 H   0  0  0  0  0  0
  -21.0842   -8.8782   19.8965 H   0  0  0  0  0  0
  -22.3708  -10.9673   19.6176 H   0  0  0  0  0  0
  -21.1997   -7.6147   23.9716 H   0  0  0  0  0  0
  -21.1456   -6.0521   25.9074 H   0  0  0  0  0  0
  -22.0615   -2.7612   23.2843 H   0  0  0  0  0  0
  -22.4029  -11.9907   22.4812 H   0  0  0  0  0  0
  -21.1021  -13.1260   22.2577 H   0  0  0  0  0  0
  -24.6612  -15.8499   20.5524 H   0  0  0  0  0  0
  -26.2879  -15.6308   20.1455 H   0  0  0  0  0  0
  -26.7260  -32.5354   23.1044 H   0  0  0  0  0  0
  -25.0093  -33.9667   25.0374 H   0  0  0  0  0  0
  -22.7423  -31.2937   21.3862 H   0  0  0  0  0  0
  -23.3754  -35.9595   23.3300 H   0  0  0  0  0  0
  -24.3562  -36.8912   22.2056 H   0  0  0  0  0  0
  -23.7231  -37.6466   23.6682 H   0  0  0  0  0  0
  -26.1454  -31.4937   20.6142 H   0  0  0  0  0  0
  -26.8695  -30.7870   22.0241 H   0  0  0  0  0  0
  -28.1270  -28.8352   21.2319 H   0  0  0  0  0  0
  -25.8806  -25.8604   19.0283 H   0  0  0  0  0  0
  -23.9793  -27.3099   18.9876 H   0  0  0  0  0  0
  -23.7930  -30.5796   19.3986 H   0  0  0  0  0  0
  -22.7842  -29.2388   19.8459 H   0  0  0  0  0  0
  -25.1305  -36.1896   25.0815 H   0  0  0  0  0  0
  -21.0002  -28.3296   24.1378 H   0  0  0  0  0  0
  -20.5677  -26.2326   23.3614 H   0  0  0  0  0  0
  -21.6651  -26.7434   22.1201 H   0  0  0  0  0  0
  -19.6909  -25.6287   21.1267 H   0  0  0  0  0  0
  -19.6696  -27.3180   20.6734 H   0  0  0  0  0  0
  -17.4203  -26.6691   21.4038 H   0  0  0  0  0  0
  -18.0337  -26.0094   22.9034 H   0  0  0  0  0  0
  -19.7945  -30.7300   24.2256 H   0  0  0  0  0  0
  -17.5016  -31.6274   24.5173 H   0  0  0  0  0  0
  -15.5359  -30.2994   23.7658 H   0  0  0  0  0  0
  -15.8685  -28.0823   22.7090 H   0  0  0  0  0  0
  -24.5904  -30.7088   25.7738 H   0  0  0  0  0  0
  -24.8881  -32.2916   26.4807 H   0  0  0  0  0  0
  -25.7988  -30.8948   27.0241 H   0  0  0  0  0  0
  -26.2997  -29.6718   24.1272 H   0  0  0  0  0  0
  -27.3994  -29.7262   25.4846 H   0  0  0  0  0  0
  -27.8908  -30.4231   23.9603 H   0  0  0  0  0  0
  -27.2661  -33.3660   26.2055 H   0  0  0  0  0  0
  -28.3908  -32.6863   25.0387 H   0  0  0  0  0  0
  -28.0691  -31.8495   26.5496 H   0  0  0  0  0  0
  -28.2595  -38.0106   24.7508 H   0  0  0  0  0  0
  -28.1082  -36.2633   24.6297 H   0  0  0  0  0  0
  -27.2297  -37.1461   25.8871 H   0  0  0  0  0  0
  -20.9444  -29.8775   21.6829 H   0  0  0  0  0  0
  -26.0161  -38.2839   24.1404 H   0  0  0  0  0  0
  -26.9554  -20.5548   20.1505 H   0  0  0  0  0  0
  -33.0334  -24.0201   21.2679 H   0  0  0  0  0  0
  -32.3825  -22.4081   21.5572 H   0  0  0  0  0  0
  -31.5434  -23.8225   22.1887 H   0  0  0  0  0  0
  -28.0458  -16.4341   18.9455 H   0  0  0  0  0  0
  -29.5692  -16.8630   18.1518 H   0  0  0  0  0  0
  -29.1179  -15.2232   18.2753 H   0  0  0  0  0  0
  -29.8122  -18.9434   18.8472 H   0  0  0  0  0  0
  -28.2765  -18.6214   19.5609 H   0  0  0  0  0  0
  -31.0896  -24.5942   19.8407 H   0  0  0  0  0  0
  -31.8899  -23.1824   19.1992 H   0  0  0  0  0  0
  -27.5616  -24.7849   18.8075 H   0  0  0  0  0  0
  -29.2089  -25.1018   18.7734 H   0  0  0  0  0  0
  -31.0226  -17.7779   20.7573 H   0  0  0  0  0  0
  -29.5440  -17.6204   21.6466 H   0  0  0  0  0  0
  1 25  1  0  0  0
  1 30  2  0  0  0
  1 83  1  0  0  0
  2  3  1  0  0  0
  2 25  1  0  0  0
  2 84  1  0  0  0
  2 85  1  0  0  0
  3  4  1  0  0  0
  3 86  1  0  0  0
  3 87  1  0  0  0
  4  5  1  0  0  0
  4 88  1  0  0  0
  4 89  1  0  0  0
  5  6  1  0  0  0
  5 26  1  0  0  0
  5 90  1  0  0  0
  6 25  1  0  0  0
  6 91  1  0  0  0
  6 92  1  0  0  0
  7  8  2  0  0  0
  7 26  1  0  0  0
  7 29  1  0  0  0
  8  9  1  0  0  0
  8 22  1  0  0  0
  9 10  1  0  0  0
  9 27  2  0  0  0
 10 11  2  0  0  0
 10 15  1  0  0  0
 11 12  1  0  0  0
 11 93  1  0  0  0
 12 13  2  0  0  0
 12 94  1  0  0  0
 13 14  1  0  0  0
 13 31  1  0  0  0
 14 15  2  0  0  0
 14 95  1  0  0  0
 15 96  1  0  0  0
 16 17  2  0  0  0
 16 21  1  0  0  0
 16 31  1  0  0  0
 17 18  1  0  0  0
 17 97  1  0  0  0
 18 19  2  0  0  0
 18 98  1  0  0  0
 19 20  1  0  0  0
 19 24  1  0  0  0
 20 21  2  0  0  0
 20 99  1  0  0  0
 21 23  1  0  0  0
 22 28  1  0  0  0
 22 32  2  0  0  0
 26 27  1  0  0  0
 28100  1  0  0  0
 28101  1  0  0  0
 29102  1  0  0  0
 29103  1  0  0  0
 33 34  1  0  0  0
 33 66  1  0  0  0
 33 70  2  0  0  0
 34 36  1  0  0  0
 34 59  1  0  0  0
 34104  1  0  0  0
 35 44  2  0  0  0
 35 45  1  0  0  0
 35 68  1  0  0  0
 36 56  1  0  0  0
 36105  1  0  0  0
 37 39  1  0  0  0
 37 47  1  0  0  0
 37 66  1  0  0  0
 37106  1  0  0  0
 38 43  2  0  0  0
 38 46  1  0  0  0
 38 47  1  0  0  0
 39 64  1  0  0  0
 39 67  2  0  0  0
 40 52  1  0  0  0
 40 53  2  0  0  0
 40 58  1  0  0  0
 41107  1  0  0  0
 41108  1  0  0  0
 41109  1  0  0  0
 41 48  1  0  0  0
 42 43  1  0  0  0
 42 66  1  0  0  0
 42110  1  0  0  0
 42111  1  0  0  0
 43 44  1  0  0  0
 44112  1  0  0  0
 45 46  2  0  0  0
 45113  1  0  0  0
 46114  1  0  0  0
 47115  1  0  0  0
 47116  1  0  0  0
 48 56  1  0  0  0
 48 65  1  0  0  0
 48117  1  0  0  0
 49 50  1  0  0  0
 49 53  1  0  0  0
 49 64  1  0  0  0
 49118  1  0  0  0
 50 51  1  0  0  0
 50119  1  0  0  0
 50120  1  0  0  0
 51 52  1  0  0  0
 51121  1  0  0  0
 51122  1  0  0  0
 52123  1  0  0  0
 52124  1  0  0  0
 53 54  1  0  0  0
 54 55  2  0  0  0
 54125  1  0  0  0
 55 57  1  0  0  0
 55126  1  0  0  0
 56 69  2  0  0  0
 57 58  2  0  0  0
 57127  1  0  0  0
 58128  1  0  0  0
 59 60  1  0  0  0
 59 61  1  0  0  0
 59 62  1  0  0  0
 60129  1  0  0  0
 60130  1  0  0  0
 60131  1  0  0  0
 61132  1  0  0  0
 61133  1  0  0  0
 61134  1  0  0  0
 62135  1  0  0  0
 62136  1  0  0  0
 62137  1  0  0  0
 63 65  1  0  0  0
 63138  1  0  0  0
 63139  1  0  0  0
 63140  1  0  0  0
 64141  1  0  0  0
 65142  1  0  0  0
 68 79  1  0  0  0
 71 72  2  0  0  0
 71 81  1  0  0  0
 71143  1  0  0  0
 72 77  1  0  0  0
 72 82  1  0  0  0
 73 74  1  0  0  0
 73 78  1  0  0  0
 73 82  2  0  0  0
 74 79  1  0  0  0
 74 81  2  0  0  0
 75 78  1  0  0  0
 75144  1  0  0  0
 75145  1  0  0  0
 75146  1  0  0  0
 76 83  1  0  0  0
 76147  1  0  0  0
 76148  1  0  0  0
 76149  1  0  0  0
 77 80  1  0  0  0
 77150  1  0  0  0
 77151  1  0  0  0
 78152  1  0  0  0
 78153  1  0  0  0
 79154  1  0  0  0
 79155  1  0  0  0
 80 83  1  0  0  0
 80156  1  0  0  0
 80157  1  0  0  0
M  ISO  4   1 100  68 101  79 101  83 100
M  END
> <chiral flag>
0

> <version>
0

> <s_m_source_file>
/data/baiqing/PycharmProjects/Reinvent-master-3.2/result/LINK_invent/BTK/process_docking_weight1_custom_sum_contain_oxygen_bond_distance_aromatic_linkinvent_7_9_3/rearranged_h_0048.sdf

> <i_m_source_file_index>
7

> <r_mmod_Potential_Energy-OPLS-2005>
703.945251464844

> <r_mmod_Stretch_Energy-OPLS-2005>
218.688522338867

> <r_mmod_Bend_Energy-OPLS-2005>
267.583648681641

> <r_mmod_Torsional_Energy-OPLS-2005>
310.013580322266

> <r_mmod_Improper_Torsional_Energy-OPLS-2005>
15.5214033126831

> <r_mmod_Van_der_Waal_Energy-OPLS-2005>
150.506332397461

> <r_mmod_Electrostatic_Energy-OPLS-2005>
-215.441970825195

> <r_mmod_Solvation_Energy-OPLS-2005>
-219.224746704102

> <b_mmod_Minimization_Converged-OPLS-2005>
0

> <r_mmod_RMS_Derivative-OPLS-2005>
2.1624116897583

$$$$
7
                    3D
 Structure written by MMmdl.
157165  0  0  1  0            999 V2000
  -30.6707  -14.7082   20.3788 C   0  0  0  0  0  0
  -30.4432  -12.4099   19.4567 C   0  0  0  0  0  0
  -29.4954  -12.4059   18.2367 C   0  0  0  0  0  0
  -28.0428  -12.2386   18.6997 C   0  0  0  0  0  0
  -27.6468  -13.2228   19.8315 C   0  0  2  0  0  0
  -28.7047  -13.2280   20.9599 C   0  0  0  0  0  0
  -25.2585  -13.8217   20.5676 C   0  0  0  0  0  0
  -24.1830  -13.0458   20.9159 C   0  0  0  0  0  0
  -24.6437  -11.6960   20.8768 C   0  0  0  0  0  0
  -23.9107  -10.4332   21.0483 C   0  0  0  0  0  0
  -24.3650   -9.4248   21.9254 C   0  0  0  0  0  0
  -23.6299   -8.2303   22.0811 C   0  0  0  0  0  0
  -22.4286   -8.0333   21.3592 C   0  0  0  0  0  0
  -21.9938   -9.0337   20.4712 C   0  0  0  0  0  0
  -22.7312  -10.2185   20.3106 C   0  0  0  0  0  0
  -21.6910   -6.0747   22.5220 C   0  0  0  0  0  0
  -21.4080   -6.5655   23.8146 C   0  0  0  0  0  0
  -21.3615   -5.6784   24.9092 C   0  0  0  0  0  0
  -21.6027   -4.3047   24.7153 C   0  0  0  0  0  0
  -21.8853   -3.8155   23.4284 C   0  0  0  0  0  0
  -21.9204   -4.6987   22.3339 C   0  0  0  0  0  0
  -22.7867  -13.5264   21.1720 C   0  0  0  0  0  0
  -22.1691   -4.2176   21.0916 F   0  0  0  0  0  0
  -21.5559   -3.4514   25.7661 F   0  0  0  0  0  0
  -30.0052  -13.5104   20.3404 N   0  0  0  0  0  0
  -26.3013  -12.9434   20.3330 N   0  0  0  0  0  0
  -25.9391  -11.6593   20.5893 N   0  0  0  0  0  0
  -22.0529  -12.8314   22.0311 N   0  0  0  0  0  0
  -25.4261  -15.1917   20.4039 N   0  0  0  0  0  0
  -31.9004  -14.7315   20.2935 O   0  0  0  0  0  0
  -21.6701   -6.8910   21.4200 O   0  0  0  0  0  0
  -22.3556  -14.5508   20.6506 O   0  0  0  0  0  0
  -24.6329  -31.8614   23.2042 C   0  0  0  0  0  0
  -25.9155  -32.4802   23.8389 C   0  0  1  0  0  0
  -27.2094  -27.2773   20.1273 C   0  0  0  0  0  0
  -25.5942  -33.8597   24.2324 N   0  0  0  0  0  0
  -23.4304  -30.4864   21.5508 C   0  0  2  0  0  0
  -24.8768  -28.9488   20.1082 C   0  0  0  0  0  0
  -22.7524  -29.4646   22.4958 C   0  0  0  0  0  0
  -18.0302  -28.1403   22.8496 C   0  0  0  0  0  0
  -24.1491  -36.7286   23.2650 C   0  0  0  0  0  0
  -25.9808  -30.7751   21.3915 C   0  0  0  0  0  0
  -26.0500  -29.4050   20.7250 C   0  0  0  0  0  0
  -27.2236  -28.5846   20.7202 C   0  0  0  0  0  0
  -26.0216  -26.9067   19.4566 C   0  0  0  0  0  0
  -24.8690  -27.7081   19.4596 C   0  0  0  0  0  0
  -23.6456  -29.8293   20.1635 C   0  0  0  0  0  0
  -25.4119  -36.3127   24.0367 C   0  0  1  0  0  0
  -20.5916  -28.3700   23.1274 C   0  0  2  0  0  0
  -20.6804  -26.9419   22.5418 C   0  0  0  0  0  0
  -19.5757  -26.6393   21.5238 C   0  0  0  0  0  0
  -18.1930  -26.7950   22.1641 C   0  0  0  0  0  0
  -19.1559  -28.8870   23.2891 C   0  0  0  0  0  0
  -18.9464  -30.1477   23.8895 C   0  0  0  0  0  0
  -17.6452  -30.6589   24.0563 C   0  0  0  0  0  0
  -25.9052  -34.9475   23.5156 C   0  0  0  0  0  0
  -16.5349  -29.9076   23.6340 C   0  0  0  0  0  0
  -16.7290  -28.6511   23.0349 C   0  0  0  0  0  0
  -26.4499  -31.6615   25.0770 C   0  0  0  0  0  0
  -25.3662  -31.3728   26.1436 C   0  0  0  0  0  0
  -27.0344  -30.3024   24.6291 C   0  0  0  0  0  0
  -27.6085  -32.4324   25.7496 C   0  0  0  0  0  0
  -27.5601  -37.1805   24.8477 C   0  0  0  0  0  0
  -21.4236  -29.3030   22.3648 N   0  0  0  0  0  0
  -26.4319  -37.3811   23.9414 N   0  0  0  0  0  0
  -24.7009  -31.0586   22.1035 N   0  0  0  0  0  0
  -23.4225  -28.8162   23.3037 O   0  0  0  0  0  0
  -28.2828  -26.3599   20.1794 O   0  0  0  0  0  0
  -26.5617  -34.8947   22.4720 O   0  0  0  0  0  0
  -23.5474  -32.1436   23.7322 O   0  0  0  0  0  0
  -27.0228  -21.9282   20.0091 C   0  0  0  0  0  0
  -28.4111  -22.1824   20.1215 C   0  0  0  0  0  0
  -27.3578  -19.6345   19.8981 C   0  0  0  0  0  0
  -28.7673  -19.7850   20.0436 C   0  0  0  0  0  0
  -26.6910  -18.2922   19.6529 C   0  0  0  0  0  0
  -30.2339  -15.9959   18.4278 C   0  0  0  0  0  0
  -28.9410  -23.6886   20.0762 C   0  0  0  0  0  0
  -29.7357  -18.5438   19.8068 C   0  0  0  0  0  0
  -29.6026  -17.1005   20.5792 C   0  0  0  0  0  0
  -27.9594  -24.9160   20.4684 C   0  0  0  0  0  0
  -26.5074  -20.6858   19.9050 N   0  0  0  0  0  0
  -29.2763  -21.0832   20.1391 N   0  0  0  0  0  0
  -29.9879  -15.8014   19.8650 N   0  0  0  0  0  0
  -31.4822  -12.5208   19.1322 H   0  0  0  0  0  0
  -30.3971  -11.4569   19.9898 H   0  0  0  0  0  0
  -29.7653  -11.5912   17.5671 H   0  0  0  0  0  0
  -29.5805  -13.3096   17.6398 H   0  0  0  0  0  0
  -27.9606  -11.2211   19.0828 H   0  0  0  0  0  0
  -27.3523  -12.3027   17.8584 H   0  0  0  0  0  0
  -27.6361  -14.2180   19.3819 H   0  0  0  0  0  0
  -28.7294  -12.2786   21.5013 H   0  0  0  0  0  0
  -28.4668  -14.0081   21.6856 H   0  0  0  0  0  0
  -25.2813   -9.5663   22.4840 H   0  0  0  0  0  0
  -23.9929   -7.4744   22.7635 H   0  0  0  0  0  0
  -21.0842   -8.8956   19.9048 H   0  0  0  0  0  0
  -22.3803  -10.9781   19.6232 H   0  0  0  0  0  0
  -21.2213   -7.6192   23.9656 H   0  0  0  0  0  0
  -21.1340   -6.0518   25.8977 H   0  0  0  0  0  0
  -22.0682   -2.7642   23.2760 H   0  0  0  0  0  0
  -22.4091  -11.9944   22.4673 H   0  0  0  0  0  0
  -21.1214  -13.1442   22.2613 H   0  0  0  0  0  0
  -24.6682  -15.8528   20.5264 H   0  0  0  0  0  0
  -26.2818  -15.6184   20.0765 H   0  0  0  0  0  0
  -26.7233  -32.5444   23.1149 H   0  0  0  0  0  0
  -25.0061  -33.9748   25.0442 H   0  0  0  0  0  0
  -22.7283  -31.3121   21.4092 H   0  0  0  0  0  0
  -23.3806  -35.9569   23.3321 H   0  0  0  0  0  0
  -24.3577  -36.8869   22.2059 H   0  0  0  0  0  0
  -23.7171  -37.6472   23.6620 H   0  0  0  0  0  0
  -26.1401  -31.5450   20.6357 H   0  0  0  0  0  0
  -26.8525  -30.8081   22.0335 H   0  0  0  0  0  0
  -28.1204  -28.9283   21.2188 H   0  0  0  0  0  0
  -25.9485  -25.9780   18.9126 H   0  0  0  0  0  0
  -23.9811  -27.3587   18.9523 H   0  0  0  0  0  0
  -23.7651  -30.6101   19.4145 H   0  0  0  0  0  0
  -22.7646  -29.2635   19.8532 H   0  0  0  0  0  0
  -25.1297  -36.2045   25.0869 H   0  0  0  0  0  0
  -21.0037  -28.3294   24.1390 H   0  0  0  0  0  0
  -20.5754  -26.2290   23.3619 H   0  0  0  0  0  0
  -21.6647  -26.7458   22.1155 H   0  0  0  0  0  0
  -19.6899  -25.6308   21.1242 H   0  0  0  0  0  0
  -19.6696  -27.3227   20.6786 H   0  0  0  0  0  0
  -17.4215  -26.6740   21.4035 H   0  0  0  0  0  0
  -18.0297  -26.0099   22.9032 H   0  0  0  0  0  0
  -19.7926  -30.7321   24.2254 H   0  0  0  0  0  0
  -17.4986  -31.6265   24.5168 H   0  0  0  0  0  0
  -15.5347  -30.2952   23.7677 H   0  0  0  0  0  0
  -15.8702  -28.0829   22.7038 H   0  0  0  0  0  0
  -24.5903  -30.7059   25.7683 H   0  0  0  0  0  0
  -24.8765  -32.2852   26.4838 H   0  0  0  0  0  0
  -25.7918  -30.8883   27.0231 H   0  0  0  0  0  0
  -26.2945  -29.6778   24.1286 H   0  0  0  0  0  0
  -27.3954  -29.7330   25.4871 H   0  0  0  0  0  0
  -27.8868  -30.4307   23.9617 H   0  0  0  0  0  0
  -27.2799  -33.3680   26.2044 H   0  0  0  0  0  0
  -28.3878  -32.6797   25.0268 H   0  0  0  0  0  0
  -28.0780  -31.8444   26.5401 H   0  0  0  0  0  0
  -28.2659  -38.0073   24.7562 H   0  0  0  0  0  0
  -28.1077  -36.2622   24.6298 H   0  0  0  0  0  0
  -27.2310  -37.1439   25.8877 H   0  0  0  0  0  0
  -20.9443  -29.8706   21.6790 H   0  0  0  0  0  0
  -26.0254  -38.2924   24.1353 H   0  0  0  0  0  0
  -26.2880  -22.7199   19.9445 H   0  0  0  0  0  0
  -27.2671  -17.6756   18.9608 H   0  0  0  0  0  0
  -25.6941  -18.4032   19.2221 H   0  0  0  0  0  0
  -26.5960  -17.7679   20.6025 H   0  0  0  0  0  0
  -29.3141  -16.2658   17.9089 H   0  0  0  0  0  0
  -30.6308  -15.1184   17.9206 H   0  0  0  0  0  0
  -30.9980  -16.7560   18.2723 H   0  0  0  0  0  0
  -29.2686  -23.8583   19.0513 H   0  0  0  0  0  0
  -29.8403  -23.7494   20.6881 H   0  0  0  0  0  0
  -30.7567  -18.8903   19.9609 H   0  0  0  0  0  0
  -29.6536  -18.4048   18.7296 H   0  0  0  0  0  0
  -28.5780  -16.9308   20.8988 H   0  0  0  0  0  0
  -30.1595  -17.1574   21.5160 H   0  0  0  0  0  0
  -27.7853  -24.8509   21.5443 H   0  0  0  0  0  0
  -26.9985  -24.6690   20.0429 H   0  0  0  0  0  0
  1 25  1  0  0  0
  1 30  2  0  0  0
  1 83  1  0  0  0
  2  3  1  0  0  0
  2 25  1  0  0  0
  2 84  1  0  0  0
  2 85  1  0  0  0
  3  4  1  0  0  0
  3 86  1  0  0  0
  3 87  1  0  0  0
  4  5  1  0  0  0
  4 88  1  0  0  0
  4 89  1  0  0  0
  5  6  1  0  0  0
  5 26  1  0  0  0
  5 90  1  0  0  0
  6 25  1  0  0  0
  6 91  1  0  0  0
  6 92  1  0  0  0
  7  8  2  0  0  0
  7 26  1  0  0  0
  7 29  1  0  0  0
  8  9  1  0  0  0
  8 22  1  0  0  0
  9 10  1  0  0  0
  9 27  2  0  0  0
 10 11  2  0  0  0
 10 15  1  0  0  0
 11 12  1  0  0  0
 11 93  1  0  0  0
 12 13  2  0  0  0
 12 94  1  0  0  0
 13 14  1  0  0  0
 13 31  1  0  0  0
 14 15  2  0  0  0
 14 95  1  0  0  0
 15 96  1  0  0  0
 16 17  2  0  0  0
 16 21  1  0  0  0
 16 31  1  0  0  0
 17 18  1  0  0  0
 17 97  1  0  0  0
 18 19  2  0  0  0
 18 98  1  0  0  0
 19 20  1  0  0  0
 19 24  1  0  0  0
 20 21  2  0  0  0
 20 99  1  0  0  0
 21 23  1  0  0  0
 22 28  1  0  0  0
 22 32  2  0  0  0
 26 27  1  0  0  0
 28100  1  0  0  0
 28101  1  0  0  0
 29102  1  0  0  0
 29103  1  0  0  0
 33 34  1  0  0  0
 33 66  1  0  0  0
 33 70  2  0  0  0
 34 36  1  0  0  0
 34 59  1  0  0  0
 34104  1  0  0  0
 35 44  2  0  0  0
 35 45  1  0  0  0
 35 68  1  0  0  0
 36 56  1  0  0  0
 36105  1  0  0  0
 37 39  1  0  0  0
 37 47  1  0  0  0
 37 66  1  0  0  0
 37106  1  0  0  0
 38 43  2  0  0  0
 38 46  1  0  0  0
 38 47  1  0  0  0
 39 64  1  0  0  0
 39 67  2  0  0  0
 40 52  1  0  0  0
 40 53  2  0  0  0
 40 58  1  0  0  0
 41107  1  0  0  0
 41108  1  0  0  0
 41109  1  0  0  0
 41 48  1  0  0  0
 42 43  1  0  0  0
 42 66  1  0  0  0
 42110  1  0  0  0
 42111  1  0  0  0
 43 44  1  0  0  0
 44112  1  0  0  0
 45 46  2  0  0  0
 45113  1  0  0  0
 46114  1  0  0  0
 47115  1  0  0  0
 47116  1  0  0  0
 48 56  1  0  0  0
 48 65  1  0  0  0
 48117  1  0  0  0
 49 50  1  0  0  0
 49 53  1  0  0  0
 49 64  1  0  0  0
 49118  1  0  0  0
 50 51  1  0  0  0
 50119  1  0  0  0
 50120  1  0  0  0
 51 52  1  0  0  0
 51121  1  0  0  0
 51122  1  0  0  0
 52123  1  0  0  0
 52124  1  0  0  0
 53 54  1  0  0  0
 54 55  2  0  0  0
 54125  1  0  0  0
 55 57  1  0  0  0
 55126  1  0  0  0
 56 69  2  0  0  0
 57 58  2  0  0  0
 57127  1  0  0  0
 58128  1  0  0  0
 59 60  1  0  0  0
 59 61  1  0  0  0
 59 62  1  0  0  0
 60129  1  0  0  0
 60130  1  0  0  0
 60131  1  0  0  0
 61132  1  0  0  0
 61133  1  0  0  0
 61134  1  0  0  0
 62135  1  0  0  0
 62136  1  0  0  0
 62137  1  0  0  0
 63 65  1  0  0  0
 63138  1  0  0  0
 63139  1  0  0  0
 63140  1  0  0  0
 64141  1  0  0  0
 65142  1  0  0  0
 68 80  1  0  0  0
 71 72  2  0  0  0
 71 81  1  0  0  0
 71143  1  0  0  0
 72 77  1  0  0  0
 72 82  1  0  0  0
 73 74  1  0  0  0
 73 75  1  0  0  0
 73 81  2  0  0  0
 74 78  1  0  0  0
 74 82  2  0  0  0
 75144  1  0  0  0
 75145  1  0  0  0
 75146  1  0  0  0
 76 83  1  0  0  0
 76147  1  0  0  0
 76148  1  0  0  0
 76149  1  0  0  0
 77 80  1  0  0  0
 77150  1  0  0  0
 77151  1  0  0  0
 78 79  1  0  0  0
 78152  1  0  0  0
 78153  1  0  0  0
 79 83  1  0  0  0
 79154  1  0  0  0
 79155  1  0  0  0
 80156  1  0  0  0
 80157  1  0  0  0
M  ISO  4   1 100  68 101  80 101  83 100
M  END
> <chiral flag>
0

> <version>
0

> <s_m_source_file>
/data/baiqing/PycharmProjects/Reinvent-master-3.2/result/LINK_invent/BTK/process_docking_weight1_custom_sum_contain_oxygen_bond_distance_aromatic_linkinvent_7_9_3/rearranged_h_0048.sdf

> <i_m_source_file_index>
8

> <r_mmod_Potential_Energy-OPLS-2005>
436.260131835938

> <r_mmod_Stretch_Energy-OPLS-2005>
128.503067016602

> <r_mmod_Bend_Energy-OPLS-2005>
171.370635986328

> <r_mmod_Torsional_Energy-OPLS-2005>
330.780700683594

> <r_mmod_Improper_Torsional_Energy-OPLS-2005>
27.354211807251

> <r_mmod_Van_der_Waal_Energy-OPLS-2005>
158.005035400391

> <r_mmod_Electrostatic_Energy-OPLS-2005>
-258.486572265625

> <r_mmod_Solvation_Energy-OPLS-2005>
-215.814346313477

> <b_mmod_Minimization_Converged-OPLS-2005>
0

> <r_mmod_RMS_Derivative-OPLS-2005>
7.22116470336914

$$$$
8
                    3D
 Structure written by MMmdl.
160168  0  0  1  0            999 V2000
  -30.8975  -14.2694   20.8539 C   0  0  0  0  0  0
  -30.7342  -12.2948   19.2620 C   0  0  0  0  0  0
  -29.8337  -12.6065   18.0151 C   0  0  0  0  0  0
  -28.3498  -12.9098   18.2935 C   0  0  0  0  0  0
  -28.2963  -13.8004   19.5936 C   0  0  2  0  0  0
  -28.9951  -12.8384   20.6114 C   0  0  0  0  0  0
  -25.0585  -14.6743   20.7352 C   0  0  0  0  0  0
  -23.9190  -13.7160   21.1369 C   0  0  0  0  0  0
  -24.4323  -12.5299   21.4445 C   0  0  0  0  0  0
  -23.8942  -10.9730   21.1851 C   0  0  0  0  0  0
  -24.3593   -9.8362   21.9693 C   0  0  0  0  0  0
  -23.7268   -8.5362   22.0588 C   0  0  0  0  0  0
  -22.5403   -8.2368   21.3473 C   0  0  0  0  0  0
  -22.1262   -9.2648   20.4633 C   0  0  0  0  0  0
  -22.7774  -10.5498   20.3773 C   0  0  0  0  0  0
  -21.7754   -6.1674   22.4992 C   0  0  0  0  0  0
  -21.4646   -6.6225   23.8021 C   0  0  0  0  0  0
  -21.3864   -5.7222   24.8893 C   0  0  0  0  0  0
  -21.6009   -4.3461   24.6906 C   0  0  0  0  0  0
  -21.8738   -3.8701   23.3970 C   0  0  0  0  0  0
  -21.9477   -4.7680   22.3106 C   0  0  0  0  0  0
  -22.4071  -13.8809   21.2500 C   0  0  0  0  0  0
  -22.1837   -4.2689   21.0738 F   0  0  0  0  0  0
  -21.5468   -3.4853   25.7356 F   0  0  0  0  0  0
  -30.3533  -13.0973   20.4378 N   0  0  0  0  0  0
  -26.5794  -14.7122   20.1751 N   0  0  0  0  0  0
  -24.8681  -13.9473   20.9141 N   0  0  0  0  0  0
  -21.7598  -13.0341   22.0523 N   0  0  0  0  0  0
  -26.6621  -15.1051   20.1196 N   0  0  0  0  0  0
  -31.8873  -14.7095   20.2553 O   0  0  0  0  0  0
  -21.8243   -7.0285   21.4048 O   0  0  0  0  0  0
  -21.8842  -14.7812   20.6239 O   0  0  0  0  0  0
  -24.7436  -31.7071   23.1079 C   0  0  0  0  0  0
  -25.9754  -32.3963   23.7762 C   0  0  1  0  0  0
  -26.5271  -25.7058   20.3819 C   0  0  0  0  0  0
  -25.6069  -33.7871   24.1518 N   0  0  0  0  0  0
  -23.5662  -30.3219   21.4810 C   0  0  2  0  0  0
  -24.8966  -28.4945   20.1052 C   0  0  0  0  0  0
  -22.7871  -29.3894   22.4490 C   0  0  0  0  0  0
  -18.0340  -28.1449   22.8416 C   0  0  0  0  0  0
  -24.1487  -36.6923   23.2665 C   0  0  0  0  0  0
  -26.1370  -30.0737   21.5262 C   0  0  0  0  0  0
  -26.0479  -28.5529   20.8843 C   0  0  0  0  0  0
  -26.8504  -27.1972   20.9792 C   0  0  0  0  0  0
  -25.5526  -26.1263   19.4281 C   0  0  0  0  0  0
  -24.7650  -27.3318   19.3299 C   0  0  0  0  0  0
  -23.8277  -29.6190   20.1109 C   0  0  0  0  0  0
  -25.4172  -36.2605   24.0211 C   0  0  1  0  0  0
  -20.5977  -28.3802   23.1037 C   0  0  2  0  0  0
  -20.6763  -26.9412   22.5420 C   0  0  0  0  0  0
  -19.5758  -26.6335   21.5223 C   0  0  0  0  0  0
  -18.1938  -26.7968   22.1598 C   0  0  0  0  0  0
  -19.1617  -28.8964   23.2694 C   0  0  0  0  0  0
  -18.9525  -30.1536   23.8766 C   0  0  0  0  0  0
  -17.6516  -30.6617   24.0544 C   0  0  0  0  0  0
  -25.9218  -34.9025   23.4756 C   0  0  0  0  0  0
  -16.5402  -29.9096   23.6369 C   0  0  0  0  0  0
  -16.7323  -28.6526   23.0369 C   0  0  0  0  0  0
  -26.4733  -31.6447   25.0750 C   0  0  0  0  0  0
  -25.3604  -31.4024   26.1231 C   0  0  0  0  0  0
  -27.0849  -30.2726   24.7345 C   0  0  0  0  0  0
  -27.6003  -32.4578   25.7554 C   0  0  0  0  0  0
  -27.5554  -37.1589   24.8440 C   0  0  0  0  0  0
  -21.4486  -29.2933   22.3268 N   0  0  0  0  0  0
  -26.4208  -37.3477   23.9444 N   0  0  0  0  0  0
  -24.8593  -30.7663   22.0827 N   0  0  0  0  0  0
  -23.4071  -28.7552   23.3059 O   0  0  0  0  0  0
  -26.8922  -23.9625   20.4813 O   0  0  0  0  0  0
  -26.5962  -34.8764   22.4450 O   0  0  0  0  0  0
  -23.6365  -32.0664   23.5584 O   0  0  0  0  0  0
  -26.3824  -12.5544   20.1152 C   0  0  0  0  0  0
  -25.3591  -13.8866   18.5454 C   0  0  0  0  0  0
  -26.8262  -13.7868   22.1275 C   0  0  0  0  0  0
  -25.6756  -17.1107   20.5935 C   0  0  0  0  0  0
  -24.9567  -13.3435   17.1988 C   0  0  0  0  0  0
  -30.2277  -16.4970   21.4715 C   0  0  0  0  0  0
  -27.4439  -13.2636   23.4337 C   0  0  0  0  0  0
  -26.2680  -19.3664   20.5102 C   0  0  0  0  0  0
  -28.9756  -13.5715   23.7393 C   0  0  0  0  0  0
  -29.7107  -14.8413   23.1538 C   0  0  0  0  0  0
  -26.1692  -21.8569   20.5114 C   0  0  0  0  0  0
  -25.0689  -16.0344   18.8943 N   0  0  0  0  0  0
  -26.3771  -15.9260   22.1707 N   0  0  0  0  0  0
  -30.1477  -15.0468   21.7197 N   0  0  0  0  0  0
  -31.7850  -12.4508   19.0087 H   0  0  0  0  0  0
  -30.6643  -11.2315   19.5091 H   0  0  0  0  0  0
  -29.9131  -11.7965   17.2917 H   0  0  0  0  0  0
  -30.2609  -13.4753   17.5105 H   0  0  0  0  0  0
  -27.8369  -11.9495   18.3209 H   0  0  0  0  0  0
  -27.9225  -13.4502   17.4489 H   0  0  0  0  0  0
  -28.9233  -14.6517   19.3138 H   0  0  0  0  0  0
  -28.7672  -11.7855   20.4160 H   0  0  0  0  0  0
  -28.8429  -12.8386   21.6224 H   0  0  0  0  0  0
  -25.2116  -10.0041   22.6135 H   0  0  0  0  0  0
  -24.1542   -7.7877   22.7104 H   0  0  0  0  0  0
  -21.2547   -9.0922   19.8479 H   0  0  0  0  0  0
  -22.3309  -11.2887   19.7302 H   0  0  0  0  0  0
  -21.2938   -7.6770   23.9674 H   0  0  0  0  0  0
  -21.1649   -6.0953   25.8807 H   0  0  0  0  0  0
  -22.0211   -2.8129   23.2358 H   0  0  0  0  0  0
  -22.2461  -12.3186   22.5722 H   0  0  0  0  0  0
  -20.7612  -13.1282   22.1785 H   0  0  0  0  0  0
  -26.6876  -15.5816   21.0766 H   0  0  0  0  0  0
  -26.0328  -15.6416   19.4421 H   0  0  0  0  0  0
  -26.7881  -32.4184   23.0475 H   0  0  0  0  0  0
  -24.9987  -33.8798   24.9522 H   0  0  0  0  0  0
  -22.9374  -31.1909   21.2785 H   0  0  0  0  0  0
  -23.3833  -35.9154   23.3101 H   0  0  0  0  0  0
  -24.3552  -36.8878   22.2132 H   0  0  0  0  0  0
  -23.7150  -37.5955   23.6967 H   0  0  0  0  0  0
  -26.4987  -30.7257   20.7289 H   0  0  0  0  0  0
  -26.9491  -30.0823   22.2361 H   0  0  0  0  0  0
  -27.6750  -27.2260   21.6784 H   0  0  0  0  0  0
  -25.2194  -25.3376   18.7703 H   0  0  0  0  0  0
  -23.9397  -27.2999   18.6324 H   0  0  0  0  0  0
  -24.1384  -30.3662   19.3775 H   0  0  0  0  0  0
  -22.8910  -29.2095   19.7290 H   0  0  0  0  0  0
  -25.1407  -36.1221   25.0684 H   0  0  0  0  0  0
  -21.0042  -28.3494   24.1166 H   0  0  0  0  0  0
  -20.5577  -26.2438   23.3726 H   0  0  0  0  0  0
  -21.6621  -26.7272   22.1278 H   0  0  0  0  0  0
  -19.6895  -25.6212   21.1329 H   0  0  0  0  0  0
  -19.6740  -27.3077   20.6703 H   0  0  0  0  0  0
  -17.4223  -26.6716   21.3991 H   0  0  0  0  0  0
  -18.0291  -26.0149   22.9018 H   0  0  0  0  0  0
  -19.8013  -30.7370   24.2072 H   0  0  0  0  0  0
  -17.5084  -31.6285   24.5169 H   0  0  0  0  0  0
  -15.5404  -30.2966   23.7779 H   0  0  0  0  0  0
  -15.8713  -28.0821   22.7143 H   0  0  0  0  0  0
  -24.5833  -30.7323   25.7541 H   0  0  0  0  0  0
  -24.8759  -32.3335   26.4185 H   0  0  0  0  0  0
  -25.7594  -30.9503   27.0323 H   0  0  0  0  0  0
  -26.3599  -29.5894   24.2921 H   0  0  0  0  0  0
  -27.4430  -29.7745   25.6371 H   0  0  0  0  0  0
  -27.9551  -30.3676   24.0840 H   0  0  0  0  0  0
  -27.2408  -33.4046   26.1605 H   0  0  0  0  0  0
  -28.4035  -32.6915   25.0548 H   0  0  0  0  0  0
  -28.0452  -31.9145   26.5905 H   0  0  0  0  0  0
  -28.2369  -38.0074   24.7666 H   0  0  0  0  0  0
  -28.1246  -36.2600   24.6016 H   0  0  0  0  0  0
  -27.2306  -37.0888   25.8838 H   0  0  0  0  0  0
  -20.9888  -29.8542   21.6233 H   0  0  0  0  0  0
  -25.9939  -38.2443   24.1605 H   0  0  0  0  0  0
  -26.5503  -11.4914   20.0041 H   0  0  0  0  0  0
  -25.4470  -12.3857   17.0394 H   0  0  0  0  0  0
  -25.2790  -14.0323   16.4179 H   0  0  0  0  0  0
  -23.8800  -13.1944   17.1249 H   0  0  0  0  0  0
  -29.2827  -16.9896   21.7013 H   0  0  0  0  0  0
  -30.4474  -16.7470   20.4300 H   0  0  0  0  0  0
  -31.0068  -16.9434   22.0908 H   0  0  0  0  0  0
  -27.2621  -12.1903   23.4928 H   0  0  0  0  0  0
  -26.8425  -13.6994   24.2320 H   0  0  0  0  0  0
  -26.8215  -19.2618   19.5780 H   0  0  0  0  0  0
  -27.0264  -19.2710   21.2849 H   0  0  0  0  0  0
  -29.5823  -12.6846   23.5466 H   0  0  0  0  0  0
  -29.0402  -13.6453   24.8260 H   0  0  0  0  0  0
  -30.6173  -14.9715   23.7469 H   0  0  0  0  0  0
  -29.0723  -15.6773   23.4428 H   0  0  0  0  0  0
  -25.6214  -21.9565   21.4506 H   0  0  0  0  0  0
  -25.3994  -21.9768   19.7493 H   0  0  0  0  0  0
  1 25  1  0  0  0
  1 30  2  0  0  0
  1 84  1  0  0  0
  2  3  1  0  0  0
  2 25  1  0  0  0
  2 85  1  0  0  0
  2 86  1  0  0  0
  3  4  1  0  0  0
  3 87  1  0  0  0
  3 88  1  0  0  0
  4  5  1  0  0  0
  4 89  1  0  0  0
  4 90  1  0  0  0
  5  6  1  0  0  0
  5 26  1  0  0  0
  5 91  1  0  0  0
  6 25  1  0  0  0
  6 92  1  0  0  0
  6 93  1  0  0  0
  7  8  2  0  0  0
  7 26  1  0  0  0
  7 29  1  0  0  0
  8  9  1  0  0  0
  8 22  1  0  0  0
  9 10  1  0  0  0
  9 27  2  0  0  0
 10 11  2  0  0  0
 10 15  1  0  0  0
 11 12  1  0  0  0
 11 94  1  0  0  0
 12 13  2  0  0  0
 12 95  1  0  0  0
 13 14  1  0  0  0
 13 31  1  0  0  0
 14 15  2  0  0  0
 14 96  1  0  0  0
 15 97  1  0  0  0
 16 17  2  0  0  0
 16 21  1  0  0  0
 16 31  1  0  0  0
 17 18  1  0  0  0
 17 98  1  0  0  0
 18 19  2  0  0  0
 18 99  1  0  0  0
 19 20  1  0  0  0
 19 24  1  0  0  0
 20 21  2  0  0  0
 20100  1  0  0  0
 21 23  1  0  0  0
 22 28  1  0  0  0
 22 32  2  0  0  0
 26 27  1  0  0  0
 28101  1  0  0  0
 28102  1  0  0  0
 29103  1  0  0  0
 29104  1  0  0  0
 33 34  1  0  0  0
 33 66  1  0  0  0
 33 70  2  0  0  0
 34 36  1  0  0  0
 34 59  1  0  0  0
 34105  1  0  0  0
 35 44  2  0  0  0
 35 45  1  0  0  0
 35 68  1  0  0  0
 36 56  1  0  0  0
 36106  1  0  0  0
 37 39  1  0  0  0
 37 47  1  0  0  0
 37 66  1  0  0  0
 37107  1  0  0  0
 38 43  2  0  0  0
 38 46  1  0  0  0
 38 47  1  0  0  0
 39 64  1  0  0  0
 39 67  2  0  0  0
 40 52  1  0  0  0
 40 53  2  0  0  0
 40 58  1  0  0  0
 41108  1  0  0  0
 41109  1  0  0  0
 41110  1  0  0  0
 41 48  1  0  0  0
 42 43  1  0  0  0
 42 66  1  0  0  0
 42111  1  0  0  0
 42112  1  0  0  0
 43 44  1  0  0  0
 44113  1  0  0  0
 45 46  2  0  0  0
 45114  1  0  0  0
 46115  1  0  0  0
 47116  1  0  0  0
 47117  1  0  0  0
 48 56  1  0  0  0
 48 65  1  0  0  0
 48118  1  0  0  0
 49 50  1  0  0  0
 49 53  1  0  0  0
 49 64  1  0  0  0
 49119  1  0  0  0
 50 51  1  0  0  0
 50120  1  0  0  0
 50121  1  0  0  0
 51 52  1  0  0  0
 51122  1  0  0  0
 51123  1  0  0  0
 52124  1  0  0  0
 52125  1  0  0  0
 53 54  1  0  0  0
 54 55  2  0  0  0
 54126  1  0  0  0
 55 57  1  0  0  0
 55127  1  0  0  0
 56 69  2  0  0  0
 57 58  2  0  0  0
 57128  1  0  0  0
 58129  1  0  0  0
 59 60  1  0  0  0
 59 61  1  0  0  0
 59 62  1  0  0  0
 60130  1  0  0  0
 60131  1  0  0  0
 60132  1  0  0  0
 61133  1  0  0  0
 61134  1  0  0  0
 61135  1  0  0  0
 62136  1  0  0  0
 62137  1  0  0  0
 62138  1  0  0  0
 63 65  1  0  0  0
 63139  1  0  0  0
 63140  1  0  0  0
 63141  1  0  0  0
 64142  1  0  0  0
 65143  1  0  0  0
 68 81  1  0  0  0
 71 72  2  0  0  0
 71 73  1  0  0  0
 71144  1  0  0  0
 72 75  1  0  0  0
 72 82  1  0  0  0
 73 77  1  0  0  0
 73 83  2  0  0  0
 74 78  1  0  0  0
 74 82  2  0  0  0
 74 83  1  0  0  0
 75145  1  0  0  0
 75146  1  0  0  0
 75147  1  0  0  0
 76 84  1  0  0  0
 76148  1  0  0  0
 76149  1  0  0  0
 76150  1  0  0  0
 77 79  1  0  0  0
 77151  1  0  0  0
 77152  1  0  0  0
 78 81  1  0  0  0
 78153  1  0  0  0
 78154  1  0  0  0
 79 80  1  0  0  0
 79155  1  0  0  0
 79156  1  0  0  0
 80 84  1  0  0  0
 80157  1  0  0  0
 80158  1  0  0  0
 81159  1  0  0  0
 81160  1  0  0  0
M  ISO  4   1 100  68 101  81 101  84 100
M  END
> <chiral flag>
0

> <version>
0

> <s_m_source_file>
/data/baiqing/PycharmProjects/Reinvent-master-3.2/result/LINK_invent/BTK/process_docking_weight1_custom_sum_contain_oxygen_bond_distance_aromatic_linkinvent_7_9_3/rearranged_h_0048.sdf

> <i_m_source_file_index>
9

> <r_mmod_Potential_Energy-OPLS-2005>
25897.65234375

> <r_mmod_Stretch_Energy-OPLS-2005>
14320.1494140625

> <r_mmod_Bend_Energy-OPLS-2005>
3697.97875976562

> <r_mmod_Torsional_Energy-OPLS-2005>
421.552490234375

> <r_mmod_Improper_Torsional_Energy-OPLS-2005>
58.1028289794922

> <r_mmod_Van_der_Waal_Energy-OPLS-2005>
4566.052734375

> <r_mmod_Electrostatic_Energy-OPLS-2005>
-699.338684082031

> <r_mmod_Solvation_Energy-OPLS-2005>
-252.313201904297

> <b_mmod_Minimization_Converged-OPLS-2005>
0

> <r_mmod_RMS_Derivative-OPLS-2005>
6.14098787307739

$$$$
9
                    3D
 Structure written by MMmdl.
159167  0  0  1  0            999 V2000
  -30.4840  -14.9936   20.4238 C   0  0  0  0  0  0
  -30.4466  -12.6238   19.4792 C   0  0  0  0  0  0
  -29.5140  -12.5265   18.2482 C   0  0  0  0  0  0
  -28.0531  -12.3008   18.6798 C   0  0  0  0  0  0
  -27.6263  -13.2391   19.8364 C   0  0  2  0  0  0
  -28.6721  -13.2771   20.9675 C   0  0  0  0  0  0
  -25.2474  -13.8186   20.5716 C   0  0  0  0  0  0
  -24.1774  -13.0423   20.9221 C   0  0  0  0  0  0
  -24.6363  -11.6902   20.8758 C   0  0  0  0  0  0
  -23.9046  -10.4282   21.0400 C   0  0  0  0  0  0
  -24.3604   -9.4201   21.9175 C   0  0  0  0  0  0
  -23.6288   -8.2237   22.0750 C   0  0  0  0  0  0
  -22.4275   -8.0264   21.3532 C   0  0  0  0  0  0
  -21.9895   -9.0231   20.4638 C   0  0  0  0  0  0
  -22.7215  -10.2117   20.3051 C   0  0  0  0  0  0
  -21.6852   -6.0715   22.5264 C   0  0  0  0  0  0
  -21.4014   -6.5628   23.8188 C   0  0  0  0  0  0
  -21.3660   -5.6789   24.9165 C   0  0  0  0  0  0
  -21.6041   -4.3049   24.7231 C   0  0  0  0  0  0
  -21.8816   -3.8129   23.4354 C   0  0  0  0  0  0
  -21.9197   -4.6938   22.3405 C   0  0  0  0  0  0
  -22.7809  -13.5206   21.1890 C   0  0  0  0  0  0
  -22.1671   -4.2109   21.0989 F   0  0  0  0  0  0
  -21.5629   -3.4545   25.7758 F   0  0  0  0  0  0
  -29.9331  -13.7141   20.3553 N   0  0  0  0  0  0
  -26.2869  -12.9389   20.3258 N   0  0  0  0  0  0
  -25.9293  -11.6525   20.5758 N   0  0  0  0  0  0
  -22.0490  -12.8174   22.0460 N   0  0  0  0  0  0
  -25.4155  -15.1908   20.4125 N   0  0  0  0  0  0
  -31.7023  -15.0966   20.2451 O   0  0  0  0  0  0
  -21.6644   -6.8851   21.4224 O   0  0  0  0  0  0
  -22.3493  -14.5508   20.6735 O   0  0  0  0  0  0
  -24.6431  -31.8399   23.1845 C   0  0  0  0  0  0
  -25.9210  -32.4654   23.8225 C   0  0  1  0  0  0
  -27.2098  -27.1045   20.1662 C   0  0  0  0  0  0
  -25.5945  -33.8465   24.2110 N   0  0  0  0  0  0
  -23.4486  -30.4563   21.5299 C   0  0  2  0  0  0
  -24.9015  -28.8807   20.1049 C   0  0  0  0  0  0
  -22.7546  -29.4505   22.4823 C   0  0  0  0  0  0
  -18.0267  -28.1387   22.8433 C   0  0  0  0  0  0
  -24.1508  -36.7290   23.2642 C   0  0  0  0  0  0
  -26.0061  -30.7039   21.3931 C   0  0  0  0  0  0
  -26.0768  -29.3118   20.7318 C   0  0  0  0  0  0
  -27.2338  -28.4403   20.7451 C   0  0  0  0  0  0
  -26.0134  -26.7826   19.4902 C   0  0  0  0  0  0
  -24.8817  -27.6303   19.4658 C   0  0  0  0  0  0
  -23.6781  -29.7852   20.1482 C   0  0  0  0  0  0
  -25.4136  -36.2998   24.0263 C   0  0  1  0  0  0
  -20.5884  -28.3703   23.1207 C   0  0  2  0  0  0
  -20.6778  -26.9393   22.5388 C   0  0  0  0  0  0
  -19.5781  -26.6359   21.5182 C   0  0  0  0  0  0
  -18.1934  -26.7922   22.1581 C   0  0  0  0  0  0
  -19.1533  -28.8853   23.2810 C   0  0  0  0  0  0
  -18.9480  -30.1460   23.8820 C   0  0  0  0  0  0
  -17.6481  -30.6583   24.0531 C   0  0  0  0  0  0
  -25.9085  -34.9364   23.4998 C   0  0  0  0  0  0
  -16.5367  -29.9075   23.6340 C   0  0  0  0  0  0
  -16.7257  -28.6507   23.0313 C   0  0  0  0  0  0
  -26.4527  -31.6562   25.0693 C   0  0  0  0  0  0
  -25.3694  -31.3747   26.1355 C   0  0  0  0  0  0
  -27.0428  -30.2930   24.6354 C   0  0  0  0  0  0
  -27.6032  -32.4372   25.7467 C   0  0  0  0  0  0
  -27.5588  -37.1745   24.8441 C   0  0  0  0  0  0
  -21.4241  -29.3026   22.3578 N   0  0  0  0  0  0
  -26.4302  -37.3694   23.9381 N   0  0  0  0  0  0
  -24.7171  -31.0217   22.0903 N   0  0  0  0  0  0
  -23.4161  -28.8031   23.2969 O   0  0  0  0  0  0
  -28.2623  -26.1146   20.2060 O   0  0  0  0  0  0
  -26.5710  -34.8891   22.4613 O   0  0  0  0  0  0
  -23.5542  -32.1357   23.7011 O   0  0  0  0  0  0
  -31.1210  -18.7517   19.2457 C   0  0  0  0  0  0
  -31.5595  -20.0220   18.8152 C   0  0  0  0  0  0
  -30.0514  -18.9667   20.0702 C   0  0  0  0  0  0
  -32.3205  -20.6583   16.5118 C   0  0  0  0  0  0
  -28.6876  -23.2794   18.4175 C   0  0  0  0  0  0
  -32.7462  -20.3463   17.9525 C   0  0  0  0  0  0
  -29.5474  -17.6651   20.8977 C   0  0  0  0  0  0
  -28.8209  -21.6188   20.5061 C   0  0  0  0  0  0
  -28.0121  -24.5902   20.5015 C   0  0  0  0  0  0
  -28.9016  -23.2512   19.9457 C   0  0  2  0  0  0
  -30.7829  -20.9891   19.2512 N   0  0  0  0  0  0
  -29.7792  -20.4551   19.9901 N   0  0  0  0  0  0
  -29.6100  -16.1203   20.4821 N   0  0  0  0  0  0
  -31.4688  -12.8249   19.1552 H   0  0  0  0  0  0
  -30.4801  -11.6771   20.0196 H   0  0  0  0  0  0
  -29.8386  -11.7196   17.5905 H   0  0  0  0  0  0
  -29.5831  -13.4445   17.6613 H   0  0  0  0  0  0
  -27.9631  -11.2629   19.0043 H   0  0  0  0  0  0
  -27.3792  -12.4089   17.8305 H   0  0  0  0  0  0
  -27.5856  -14.2357   19.3992 H   0  0  0  0  0  0
  -28.7783  -12.3025   21.4462 H   0  0  0  0  0  0
  -28.3649  -13.9724   21.7503 H   0  0  0  0  0  0
  -25.2737   -9.5689   22.4754 H   0  0  0  0  0  0
  -23.9979   -7.4637   22.7474 H   0  0  0  0  0  0
  -21.0817   -8.8728   19.8966 H   0  0  0  0  0  0
  -22.3630  -10.9651   19.6169 H   0  0  0  0  0  0
  -21.2002   -7.6134   23.9670 H   0  0  0  0  0  0
  -21.1496   -6.0542   25.9059 H   0  0  0  0  0  0
  -22.0600   -2.7586   23.2879 H   0  0  0  0  0  0
  -22.4157  -11.9833   22.4794 H   0  0  0  0  0  0
  -21.1112  -13.1164   22.2729 H   0  0  0  0  0  0
  -24.6378  -15.8369   20.4999 H   0  0  0  0  0  0
  -26.2446  -15.6248   20.0294 H   0  0  0  0  0  0
  -26.7247  -32.5234   23.0917 H   0  0  0  0  0  0
  -24.9902  -33.9585   25.0120 H   0  0  0  0  0  0
  -22.7534  -31.2824   21.3684 H   0  0  0  0  0  0
  -23.3732  -35.9659   23.3296 H   0  0  0  0  0  0
  -24.3574  -36.9008   22.2067 H   0  0  0  0  0  0
  -23.7322  -37.6483   23.6752 H   0  0  0  0  0  0
  -26.1700  -31.4618   20.6265 H   0  0  0  0  0  0
  -26.8689  -30.7489   22.0444 H   0  0  0  0  0  0
  -28.1306  -28.7534   21.2601 H   0  0  0  0  0  0
  -25.9342  -25.8352   18.9756 H   0  0  0  0  0  0
  -23.9883  -27.2999   18.9516 H   0  0  0  0  0  0
  -23.8081  -30.5609   19.3931 H   0  0  0  0  0  0
  -22.7960  -29.2242   19.8371 H   0  0  0  0  0  0
  -25.1311  -36.1816   25.0743 H   0  0  0  0  0  0
  -20.9941  -28.3337   24.1346 H   0  0  0  0  0  0
  -20.5700  -26.2280   23.3592 H   0  0  0  0  0  0
  -21.6660  -26.7417   22.1188 H   0  0  0  0  0  0
  -19.6979  -25.6252   21.1247 H   0  0  0  0  0  0
  -19.6805  -27.3130   20.6683 H   0  0  0  0  0  0
  -17.4212  -26.6595   21.3993 H   0  0  0  0  0  0
  -18.0408  -26.0073   22.8995 H   0  0  0  0  0  0
  -19.7977  -30.7252   24.2197 H   0  0  0  0  0  0
  -17.5053  -31.6264   24.5143 H   0  0  0  0  0  0
  -15.5365  -30.2935   23.7770 H   0  0  0  0  0  0
  -15.8650  -28.0838   22.7039 H   0  0  0  0  0  0
  -24.5866  -30.7144   25.7630 H   0  0  0  0  0  0
  -24.8891  -32.2926   26.4753 H   0  0  0  0  0  0
  -25.7927  -30.8897   27.0169 H   0  0  0  0  0  0
  -26.3076  -29.6550   24.1426 H   0  0  0  0  0  0
  -27.4069  -29.7315   25.4985 H   0  0  0  0  0  0
  -27.8968  -30.4101   23.9677 H   0  0  0  0  0  0
  -27.2613  -33.3699   26.1963 H   0  0  0  0  0  0
  -28.3864  -32.6912   25.0330 H   0  0  0  0  0  0
  -28.0681  -31.8579   26.5469 H   0  0  0  0  0  0
  -28.2481  -38.0132   24.7494 H   0  0  0  0  0  0
  -28.1164  -36.2628   24.6229 H   0  0  0  0  0  0
  -27.2281  -37.1377   25.8829 H   0  0  0  0  0  0
  -20.9461  -29.8778   21.6786 H   0  0  0  0  0  0
  -26.0173  -38.2751   24.1429 H   0  0  0  0  0  0
  -31.5809  -17.7935   19.0410 H   0  0  0  0  0  0
  -33.1872  -20.8063   15.8682 H   0  0  0  0  0  0
  -31.7131  -21.5626   16.4736 H   0  0  0  0  0  0
  -31.7272  -19.8409   16.0991 H   0  0  0  0  0  0
  -29.3553  -22.6129   17.8752 H   0  0  0  0  0  0
  -28.8593  -24.2819   18.0228 H   0  0  0  0  0  0
  -27.6628  -22.9987   18.1618 H   0  0  0  0  0  0
  -33.4376  -19.5024   17.9535 H   0  0  0  0  0  0
  -33.3018  -21.1903   18.3659 H   0  0  0  0  0  0
  -28.5051  -17.8506   21.1578 H   0  0  0  0  0  0
  -30.0613  -17.7049   21.8576 H   0  0  0  0  0  0
  -27.8032  -21.2633   20.3377 H   0  0  0  0  0  0
  -28.9379  -21.6433   21.5894 H   0  0  0  0  0  0
  -28.0260  -24.5287   21.5909 H   0  0  0  0  0  0
  -26.9713  -24.3753   20.2599 H   0  0  0  0  0  0
  -29.9419  -23.5348   20.1292 H   0  0  0  0  0  0
  -28.6650  -15.7732   20.4188 H   0  0  0  0  0  0
  1 25  1  0  0  0
  1 30  2  0  0  0
  1 83  1  0  0  0
  2  3  1  0  0  0
  2 25  1  0  0  0
  2 84  1  0  0  0
  2 85  1  0  0  0
  3  4  1  0  0  0
  3 86  1  0  0  0
  3 87  1  0  0  0
  4  5  1  0  0  0
  4 88  1  0  0  0
  4 89  1  0  0  0
  5  6  1  0  0  0
  5 26  1  0  0  0
  5 90  1  0  0  0
  6 25  1  0  0  0
  6 91  1  0  0  0
  6 92  1  0  0  0
  7  8  2  0  0  0
  7 26  1  0  0  0
  7 29  1  0  0  0
  8  9  1  0  0  0
  8 22  1  0  0  0
  9 10  1  0  0  0
  9 27  2  0  0  0
 10 11  2  0  0  0
 10 15  1  0  0  0
 11 12  1  0  0  0
 11 93  1  0  0  0
 12 13  2  0  0  0
 12 94  1  0  0  0
 13 14  1  0  0  0
 13 31  1  0  0  0
 14 15  2  0  0  0
 14 95  1  0  0  0
 15 96  1  0  0  0
 16 17  2  0  0  0
 16 21  1  0  0  0
 16 31  1  0  0  0
 17 18  1  0  0  0
 17 97  1  0  0  0
 18 19  2  0  0  0
 18 98  1  0  0  0
 19 20  1  0  0  0
 19 24  1  0  0  0
 20 21  2  0  0  0
 20 99  1  0  0  0
 21 23  1  0  0  0
 22 28  1  0  0  0
 22 32  2  0  0  0
 26 27  1  0  0  0
 28100  1  0  0  0
 28101  1  0  0  0
 29102  1  0  0  0
 29103  1  0  0  0
 33 34  1  0  0  0
 33 66  1  0  0  0
 33 70  2  0  0  0
 34 36  1  0  0  0
 34 59  1  0  0  0
 34104  1  0  0  0
 35 44  2  0  0  0
 35 45  1  0  0  0
 35 68  1  0  0  0
 36 56  1  0  0  0
 36105  1  0  0  0
 37 39  1  0  0  0
 37 47  1  0  0  0
 37 66  1  0  0  0
 37106  1  0  0  0
 38 43  2  0  0  0
 38 46  1  0  0  0
 38 47  1  0  0  0
 39 64  1  0  0  0
 39 67  2  0  0  0
 40 52  1  0  0  0
 40 53  2  0  0  0
 40 58  1  0  0  0
 41107  1  0  0  0
 41108  1  0  0  0
 41109  1  0  0  0
 41 48  1  0  0  0
 42 43  1  0  0  0
 42 66  1  0  0  0
 42110  1  0  0  0
 42111  1  0  0  0
 43 44  1  0  0  0
 44112  1  0  0  0
 45 46  2  0  0  0
 45113  1  0  0  0
 46114  1  0  0  0
 47115  1  0  0  0
 47116  1  0  0  0
 48 56  1  0  0  0
 48 65  1  0  0  0
 48117  1  0  0  0
 49 50  1  0  0  0
 49 53  1  0  0  0
 49 64  1  0  0  0
 49118  1  0  0  0
 50 51  1  0  0  0
 50119  1  0  0  0
 50120  1  0  0  0
 51 52  1  0  0  0
 51121  1  0  0  0
 51122  1  0  0  0
 52123  1  0  0  0
 52124  1  0  0  0
 53 54  1  0  0  0
 54 55  2  0  0  0
 54125  1  0  0  0
 55 57  1  0  0  0
 55126  1  0  0  0
 56 69  2  0  0  0
 57 58  2  0  0  0
 57127  1  0  0  0
 58128  1  0  0  0
 59 60  1  0  0  0
 59 61  1  0  0  0
 59 62  1  0  0  0
 60129  1  0  0  0
 60130  1  0  0  0
 60131  1  0  0  0
 61132  1  0  0  0
 61133  1  0  0  0
 61134  1  0  0  0
 62135  1  0  0  0
 62136  1  0  0  0
 62137  1  0  0  0
 63 65  1  0  0  0
 63138  1  0  0  0
 63139  1  0  0  0
 63140  1  0  0  0
 64141  1  0  0  0
 65142  1  0  0  0
 68 79  1  0  0  0
 71 72  1  0  0  0
 71 73  2  0  0  0
 71143  1  0  0  0
 72 76  1  0  0  0
 72 81  2  0  0  0
 73 77  1  0  0  0
 73 82  1  0  0  0
 74 76  1  0  0  0
 74144  1  0  0  0
 74145  1  0  0  0
 74146  1  0  0  0
 75147  1  0  0  0
 75148  1  0  0  0
 75149  1  0  0  0
 75 80  1  0  0  0
 76150  1  0  0  0
 76151  1  0  0  0
 77 83  1  0  0  0
 77152  1  0  0  0
 77153  1  0  0  0
 78 80  1  0  0  0
 78 82  1  0  0  0
 78154  1  0  0  0
 78155  1  0  0  0
 79 80  1  0  0  0
 79156  1  0  0  0
 79157  1  0  0  0
 80158  1  0  0  0
 81 82  1  0  0  0
 83159  1  0  0  0
M  ISO  4   1 100  68 101  79 101  83 100
M  END
> <chiral flag>
0

> <version>
0

> <s_m_source_file>
/data/baiqing/PycharmProjects/Reinvent-master-3.2/result/LINK_invent/BTK/process_docking_weight1_custom_sum_contain_oxygen_bond_distance_aromatic_linkinvent_7_9_3/rearranged_h_0048.sdf

> <i_m_source_file_index>
10

> <r_mmod_Potential_Energy-OPLS-2005>
551.731628417969

> <r_mmod_Stretch_Energy-OPLS-2005>
311.716979980469

> <r_mmod_Bend_Energy-OPLS-2005>
341.838073730469

> <r_mmod_Torsional_Energy-OPLS-2005>
226.625061035156

> <r_mmod_Improper_Torsional_Energy-OPLS-2005>
6.00038766860962

> <r_mmod_Van_der_Waal_Energy-OPLS-2005>
103.486259460449

> <r_mmod_Electrostatic_Energy-OPLS-2005>
-441.108612060547

> <r_mmod_Solvation_Energy-OPLS-2005>
-224.475067138672

> <b_mmod_Minimization_Converged-OPLS-2005>
0

> <r_mmod_RMS_Derivative-OPLS-2005>
4.05914258956909

$$$$
10
                    3D
 Structure written by MMmdl.
173181  0  0  1  0            999 V2000
  -30.6751  -14.4867   20.5084 C   0  0  0  0  0  0
  -30.4305  -12.2879   19.4414 C   0  0  0  0  0  0
  -29.5045  -12.4702   18.2173 C   0  0  0  0  0  0
  -28.0215  -12.3389   18.6210 C   0  0  0  0  0  0
  -27.6616  -13.1923   19.8662 C   0  0  2  0  0  0
  -28.7034  -12.9915   20.9924 C   0  0  0  0  0  0
  -25.2616  -13.8147   20.5641 C   0  0  0  0  0  0
  -24.1850  -13.0461   20.9172 C   0  0  0  0  0  0
  -24.6366  -11.6899   20.8715 C   0  0  0  0  0  0
  -23.9033  -10.4288   21.0385 C   0  0  0  0  0  0
  -24.3585   -9.4204   21.9161 C   0  0  0  0  0  0
  -23.6268   -8.2241   22.0743 C   0  0  0  0  0  0
  -22.4258   -8.0263   21.3530 C   0  0  0  0  0  0
  -21.9878   -9.0231   20.4628 C   0  0  0  0  0  0
  -22.7202  -10.2113   20.3039 C   0  0  0  0  0  0
  -21.6854   -6.0720   22.5279 C   0  0  0  0  0  0
  -21.4006   -6.5625   23.8206 C   0  0  0  0  0  0
  -21.3669   -5.6783   24.9170 C   0  0  0  0  0  0
  -21.6058   -4.3049   24.7236 C   0  0  0  0  0  0
  -21.8821   -3.8137   23.4361 C   0  0  0  0  0  0
  -21.9187   -4.6948   22.3412 C   0  0  0  0  0  0
  -22.7876  -13.5246   21.1841 C   0  0  0  0  0  0
  -22.1672   -4.2124   21.1001 F   0  0  0  0  0  0
  -21.5627   -3.4550   25.7762 F   0  0  0  0  0  0
  -30.0359  -13.2850   20.4486 N   0  0  0  0  0  0
  -26.3015  -12.9271   20.3293 N   0  0  0  0  0  0
  -25.9284  -11.6444   20.5733 N   0  0  0  0  0  0
  -22.0522  -12.8224   22.0398 N   0  0  0  0  0  0
  -25.4411  -15.1877   20.4016 N   0  0  0  0  0  0
  -31.8515  -14.6176   20.1592 O   0  0  0  0  0  0
  -21.6625   -6.8860   21.4235 O   0  0  0  0  0  0
  -22.3542  -14.5540   20.6686 O   0  0  0  0  0  0
  -24.6131  -31.8681   23.2097 C   0  0  0  0  0  0
  -25.9032  -32.4818   23.8391 C   0  0  1  0  0  0
  -27.2459  -27.4440   20.0828 C   0  0  0  0  0  0
  -25.5886  -33.8620   24.2322 N   0  0  0  0  0  0
  -23.4007  -30.4902   21.5498 C   0  0  2  0  0  0
  -24.8494  -28.9543   20.1119 C   0  0  0  0  0  0
  -22.7405  -29.4659   22.5002 C   0  0  0  0  0  0
  -18.0269  -28.1374   22.8495 C   0  0  0  0  0  0
  -24.1483  -36.7314   23.2637 C   0  0  0  0  0  0
  -25.9291  -30.8316   21.3641 C   0  0  0  0  0  0
  -26.0060  -29.4661   20.7118 C   0  0  0  0  0  0
  -27.2003  -28.7118   20.7062 C   0  0  0  0  0  0
  -26.0658  -26.9379   19.4903 C   0  0  0  0  0  0
  -24.8731  -27.6876   19.5019 C   0  0  0  0  0  0
  -23.6083  -29.8174   20.1651 C   0  0  0  0  0  0
  -25.4104  -36.3114   24.0339 C   0  0  1  0  0  0
  -20.5859  -28.3657   23.1323 C   0  0  2  0  0  0
  -20.6763  -26.9394   22.5419 C   0  0  0  0  0  0
  -19.5743  -26.6376   21.5214 C   0  0  0  0  0  0
  -18.1920  -26.7919   22.1625 C   0  0  0  0  0  0
  -19.1520  -28.8832   23.2903 C   0  0  0  0  0  0
  -18.9450  -30.1445   23.8910 C   0  0  0  0  0  0
  -17.6457  -30.6581   24.0565 C   0  0  0  0  0  0
  -25.9033  -34.9476   23.5133 C   0  0  0  0  0  0
  -16.5343  -29.9086   23.6324 C   0  0  0  0  0  0
  -16.7263  -28.6496   23.0350 C   0  0  0  0  0  0
  -26.4463  -31.6589   25.0717 C   0  0  0  0  0  0
  -25.3727  -31.3696   26.1466 C   0  0  0  0  0  0
  -27.0288  -30.3032   24.6087 C   0  0  0  0  0  0
  -27.6038  -32.4313   25.7476 C   0  0  0  0  0  0
  -27.5585  -37.1812   24.8468 C   0  0  0  0  0  0
  -21.4133  -29.3024   22.3731 N   0  0  0  0  0  0
  -26.4296  -37.3795   23.9412 N   0  0  0  0  0  0
  -24.6654  -31.0780   22.0992 N   0  0  0  0  0  0
  -23.4180  -28.8211   23.3043 O   0  0  0  0  0  0
  -28.4201  -26.7193   20.1360 O   0  0  0  0  0  0
  -26.5603  -34.8925   22.4699 O   0  0  0  0  0  0
  -23.5328  -32.1436   23.7496 O   0  0  0  0  0  0
  -30.7954  -21.0162   17.4824 C   0  0  0  0  0  0
  -31.2746  -20.0468   18.3869 C   0  0  0  0  0  0
  -29.8384  -22.1920   19.2349 C   0  0  0  0  0  0
  -30.3133  -21.2008   20.1482 C   0  0  0  0  0  0
  -32.1665  -18.9149   17.9180 C   0  0  0  0  0  0
  -29.6752  -16.4151   19.2903 C   0  0  0  0  0  0
  -28.4105  -18.1411   21.9066 C   0  0  0  0  0  0
  -29.0051  -23.4194   19.6239 C   0  0  0  0  0  0
  -30.0962  -21.2756   21.6613 C   0  0  0  0  0  0
  -29.7374  -24.7676   19.3901 C   0  0  0  0  0  0
  -31.0316  -20.3562   22.4975 C   0  0  0  0  0  0
  -30.4797  -18.9689   22.9138 C   0  0  0  0  0  0
  -30.5173  -16.7863   21.7084 C   0  0  0  0  0  0
  -28.8257  -25.9569   18.9966 C   0  0  0  0  0  0
  -29.8548  -15.7956   20.6996 C   0  0  2  0  0  0
  -30.0622  -22.0734   17.9002 N   0  0  0  0  0  0
  -30.9948  -20.1093   19.7090 N   0  0  0  0  0  0
  -29.8967  -18.1526   21.8054 N   0  3  1  0  0  0
  -31.4754  -12.3865   19.1392 H   0  0  0  0  0  0
  -30.3321  -11.2817   19.8527 H   0  0  0  0  0  0
  -29.7432  -11.7319   17.4522 H   0  0  0  0  0  0
  -29.6817  -13.4435   17.7612 H   0  0  0  0  0  0
  -27.8287  -11.2847   18.8272 H   0  0  0  0  0  0
  -27.3775  -12.6012   17.7819 H   0  0  0  0  0  0
  -27.6982  -14.2303   19.5439 H   0  0  0  0  0  0
  -28.6771  -11.9611   21.3530 H   0  0  0  0  0  0
  -28.4759  -13.6000   21.8667 H   0  0  0  0  0  0
  -25.2753   -9.5661   22.4694 H   0  0  0  0  0  0
  -23.9961   -7.4627   22.7461 H   0  0  0  0  0  0
  -21.0813   -8.8745   19.8948 H   0  0  0  0  0  0
  -22.3662  -10.9623   19.6130 H   0  0  0  0  0  0
  -21.2004   -7.6132   23.9709 H   0  0  0  0  0  0
  -21.1487   -6.0519   25.9070 H   0  0  0  0  0  0
  -22.0591   -2.7598   23.2878 H   0  0  0  0  0  0
  -22.4152  -11.9894   22.4782 H   0  0  0  0  0  0
  -21.1119  -13.1198   22.2596 H   0  0  0  0  0  0
  -24.6743  -15.8452   20.4951 H   0  0  0  0  0  0
  -26.2820  -15.6118   20.0315 H   0  0  0  0  0  0
  -26.7101  -32.5533   23.1153 H   0  0  0  0  0  0
  -25.0034  -33.9777   25.0464 H   0  0  0  0  0  0
  -22.6881  -31.3056   21.4100 H   0  0  0  0  0  0
  -23.3743  -35.9653   23.3321 H   0  0  0  0  0  0
  -24.3571  -36.8907   22.2049 H   0  0  0  0  0  0
  -23.7242  -37.6526   23.6638 H   0  0  0  0  0  0
  -26.0429  -31.5969   20.5950 H   0  0  0  0  0  0
  -26.8166  -30.8850   21.9834 H   0  0  0  0  0  0
  -28.0917  -29.1005   21.1784 H   0  0  0  0  0  0
  -26.0397  -25.9555   19.0423 H   0  0  0  0  0  0
  -23.9801  -27.2808   19.0476 H   0  0  0  0  0  0
  -23.7081  -30.5891   19.4007 H   0  0  0  0  0  0
  -22.7335  -29.2316   19.8767 H   0  0  0  0  0  0
  -25.1283  -36.1981   25.0834 H   0  0  0  0  0  0
  -20.9951  -28.3223   24.1446 H   0  0  0  0  0  0
  -20.5660  -26.2268   23.3608 H   0  0  0  0  0  0
  -21.6640  -26.7434   22.1225 H   0  0  0  0  0  0
  -19.6903  -25.6289   21.1239 H   0  0  0  0  0  0
  -19.6678  -27.3187   20.6745 H   0  0  0  0  0  0
  -17.4191  -26.6674   21.4025 H   0  0  0  0  0  0
  -18.0312  -26.0056   22.9014 H   0  0  0  0  0  0
  -19.7928  -30.7255   24.2284 H   0  0  0  0  0  0
  -17.5010  -31.6264   24.5166 H   0  0  0  0  0  0
  -15.5348  -30.2995   23.7636 H   0  0  0  0  0  0
  -15.8661  -28.0819   22.7066 H   0  0  0  0  0  0
  -24.5901  -30.7043   25.7805 H   0  0  0  0  0  0
  -24.8912  -32.2847   26.4927 H   0  0  0  0  0  0
  -25.8083  -30.8860   27.0215 H   0  0  0  0  0  0
  -26.2830  -29.6807   24.1138 H   0  0  0  0  0  0
  -27.4049  -29.7268   25.4545 H   0  0  0  0  0  0
  -27.8667  -30.4357   23.9242 H   0  0  0  0  0  0
  -27.2660  -33.3607   26.2084 H   0  0  0  0  0  0
  -28.3833  -32.6890   25.0288 H   0  0  0  0  0  0
  -28.0723  -31.8416   26.5368 H   0  0  0  0  0  0
  -28.2615  -38.0097   24.7513 H   0  0  0  0  0  0
  -28.1069  -36.2633   24.6300 H   0  0  0  0  0  0
  -27.2304  -37.1471   25.8871 H   0  0  0  0  0  0
  -20.9297  -29.8737   21.6948 H   0  0  0  0  0  0
  -26.0191  -38.2879   24.1396 H   0  0  0  0  0  0
  -31.0103  -20.9490   16.4256 H   0  0  0  0  0  0
  -33.0256  -19.3120   17.3771 H   0  0  0  0  0  0
  -31.6202  -18.2520   17.2487 H   0  0  0  0  0  0
  -32.5475  -18.3284   18.7544 H   0  0  0  0  0  0
  -28.9007  -17.1775   19.2458 H   0  0  0  0  0  0
  -29.3949  -15.6615   18.5531 H   0  0  0  0  0  0
  -30.5988  -16.8693   18.9409 H   0  0  0  0  0  0
  -28.0072  -19.1511   21.9551 H   0  0  0  0  0  0
  -28.0786  -17.6151   22.8020 H   0  0  0  0  0  0
  -27.9193  -17.6717   21.0590 H   0  0  0  0  0  0
  -28.6496  -23.3563   20.6519 H   0  0  0  0  0  0
  -28.1058  -23.3847   19.0068 H   0  0  0  0  0  0
  -29.0471  -21.1135   21.9001 H   0  0  0  0  0  0
  -30.3013  -22.3059   21.9550 H   0  0  0  0  0  0
  -30.4253  -24.6343   18.5544 H   0  0  0  0  0  0
  -30.3698  -25.0152   20.2436 H   0  0  0  0  0  0
  -31.2511  -20.8791   23.4290 H   0  0  0  0  0  0
  -32.0117  -20.2556   22.0286 H   0  0  0  0  0  0
  -29.7471  -19.1010   23.7127 H   0  0  0  0  0  0
  -31.2981  -18.4241   23.3888 H   0  0  0  0  0  0
  -31.5730  -16.9188   21.4628 H   0  0  0  0  0  0
  -30.4943  -16.3186   22.6938 H   0  0  0  0  0  0
  -28.0120  -25.6106   18.3633 H   0  0  0  0  0  0
  -29.4017  -26.6427   18.3729 H   0  0  0  0  0  0
  -28.8684  -15.5560   21.0856 H   0  0  0  0  0  0
  -30.1392  -18.6442   20.9498 H   0  0  0  0  0  0
  1 25  1  0  0  0
  1 30  2  0  0  0
  1 85  1  0  0  0
  2  3  1  0  0  0
  2 25  1  0  0  0
  2 89  1  0  0  0
  2 90  1  0  0  0
  3  4  1  0  0  0
  3 91  1  0  0  0
  3 92  1  0  0  0
  4  5  1  0  0  0
  4 93  1  0  0  0
  4 94  1  0  0  0
  5  6  1  0  0  0
  5 26  1  0  0  0
  5 95  1  0  0  0
  6 25  1  0  0  0
  6 96  1  0  0  0
  6 97  1  0  0  0
  7  8  2  0  0  0
  7 26  1  0  0  0
  7 29  1  0  0  0
  8  9  1  0  0  0
  8 22  1  0  0  0
  9 10  1  0  0  0
  9 27  2  0  0  0
 10 11  2  0  0  0
 10 15  1  0  0  0
 11 12  1  0  0  0
 11 98  1  0  0  0
 12 13  2  0  0  0
 12 99  1  0  0  0
 13 14  1  0  0  0
 13 31  1  0  0  0
 14 15  2  0  0  0
 14100  1  0  0  0
 15101  1  0  0  0
 16 17  2  0  0  0
 16 21  1  0  0  0
 16 31  1  0  0  0
 17 18  1  0  0  0
 17102  1  0  0  0
 18 19  2  0  0  0
 18103  1  0  0  0
 19 20  1  0  0  0
 19 24  1  0  0  0
 20 21  2  0  0  0
 20104  1  0  0  0
 21 23  1  0  0  0
 22 28  1  0  0  0
 22 32  2  0  0  0
 26 27  1  0  0  0
 28105  1  0  0  0
 28106  1  0  0  0
 29107  1  0  0  0
 29108  1  0  0  0
 33 34  1  0  0  0
 33 66  1  0  0  0
 33 70  2  0  0  0
 34 36  1  0  0  0
 34 59  1  0  0  0
 34109  1  0  0  0
 35 44  2  0  0  0
 35 45  1  0  0  0
 35 68  1  0  0  0
 36 56  1  0  0  0
 36110  1  0  0  0
 37 39  1  0  0  0
 37 47  1  0  0  0
 37 66  1  0  0  0
 37111  1  0  0  0
 38 43  2  0  0  0
 38 46  1  0  0  0
 38 47  1  0  0  0
 39 64  1  0  0  0
 39 67  2  0  0  0
 40 52  1  0  0  0
 40 53  2  0  0  0
 40 58  1  0  0  0
 41112  1  0  0  0
 41113  1  0  0  0
 41114  1  0  0  0
 41 48  1  0  0  0
 42 43  1  0  0  0
 42 66  1  0  0  0
 42115  1  0  0  0
 42116  1  0  0  0
 43 44  1  0  0  0
 44117  1  0  0  0
 45 46  2  0  0  0
 45118  1  0  0  0
 46119  1  0  0  0
 47120  1  0  0  0
 47121  1  0  0  0
 48 56  1  0  0  0
 48 65  1  0  0  0
 48122  1  0  0  0
 49 50  1  0  0  0
 49 53  1  0  0  0
 49 64  1  0  0  0
 49123  1  0  0  0
 50 51  1  0  0  0
 50124  1  0  0  0
 50125  1  0  0  0
 51 52  1  0  0  0
 51126  1  0  0  0
 51127  1  0  0  0
 52128  1  0  0  0
 52129  1  0  0  0
 53 54  1  0  0  0
 54 55  2  0  0  0
 54130  1  0  0  0
 55 57  1  0  0  0
 55131  1  0  0  0
 56 69  2  0  0  0
 57 58  2  0  0  0
 57132  1  0  0  0
 58133  1  0  0  0
 59 60  1  0  0  0
 59 61  1  0  0  0
 59 62  1  0  0  0
 60134  1  0  0  0
 60135  1  0  0  0
 60136  1  0  0  0
 61137  1  0  0  0
 61138  1  0  0  0
 61139  1  0  0  0
 62140  1  0  0  0
 62141  1  0  0  0
 62142  1  0  0  0
 63 65  1  0  0  0
 63143  1  0  0  0
 63144  1  0  0  0
 63145  1  0  0  0
 64146  1  0  0  0
 65147  1  0  0  0
 68 84  1  0  0  0
 71 72  2  0  0  0
 71 86  1  0  0  0
 71148  1  0  0  0
 72 75  1  0  0  0
 72 87  1  0  0  0
 73 74  1  0  0  0
 73 78  1  0  0  0
 73 86  2  0  0  0
 74 79  1  0  0  0
 74 87  2  0  0  0
 75149  1  0  0  0
 75150  1  0  0  0
 75151  1  0  0  0
 76152  1  0  0  0
 76153  1  0  0  0
 76154  1  0  0  0
 76 85  1  0  0  0
 77155  1  0  0  0
 77156  1  0  0  0
 77157  1  0  0  0
 77 88  1  0  0  0
 78 80  1  0  0  0
 78158  1  0  0  0
 78159  1  0  0  0
 79 81  1  0  0  0
 79160  1  0  0  0
 79161  1  0  0  0
 80 84  1  0  0  0
 80162  1  0  0  0
 80163  1  0  0  0
 81 82  1  0  0  0
 81164  1  0  0  0
 81165  1  0  0  0
 82 88  1  0  0  0
 82166  1  0  0  0
 82167  1  0  0  0
 83 85  1  0  0  0
 83 88  1  0  0  0
 83168  1  0  0  0
 83169  1  0  0  0
 84170  1  0  0  0
 84171  1  0  0  0
 85172  1  0  0  0
 88173  1  0  0  0
M  CHG  1  88   1
M  ISO  4   1 100  68 101  84 101  85 100
M  END
> <chiral flag>
0

> <version>
0

> <s_m_source_file>
/data/baiqing/PycharmProjects/Reinvent-master-3.2/result/LINK_invent/BTK/process_docking_weight1_custom_sum_contain_oxygen_bond_distance_aromatic_linkinvent_7_9_3/rearranged_h_0048.sdf

> <i_m_source_file_index>
11

> <r_mmod_Potential_Energy-OPLS-2005>
-80.6382369995117

> <r_mmod_Stretch_Energy-OPLS-2005>
44.9069709777832

> <r_mmod_Bend_Energy-OPLS-2005>
117.515823364258

> <r_mmod_Torsional_Energy-OPLS-2005>
244.232376098633

> <r_mmod_Improper_Torsional_Energy-OPLS-2005>
7.61848640441895

> <r_mmod_Van_der_Waal_Energy-OPLS-2005>
158.67561340332

> <r_mmod_Electrostatic_Energy-OPLS-2005>
-257.328552246094

> <r_mmod_Solvation_Energy-OPLS-2005>
-413.624572753906

> <b_mmod_Minimization_Converged-OPLS-2005>
0

> <r_mmod_RMS_Derivative-OPLS-2005>
2.77444577217102

$$$$
11
                    3D
 Structure written by MMmdl.
151159  0  0  1  0            999 V2000
  -30.4223  -15.2978   20.3638 C   0  0  0  0  0  0
  -30.4358  -12.8318   19.5277 C   0  0  0  0  0  0
  -29.5374  -12.5896   18.2879 C   0  0  0  0  0  0
  -28.0888  -12.2998   18.7160 C   0  0  0  0  0  0
  -27.6087  -13.2766   19.8175 C   0  0  2  0  0  0
  -28.6388  -13.4676   20.9520 C   0  0  0  0  0  0
  -25.2393  -13.8252   20.5746 C   0  0  0  0  0  0
  -24.1746  -13.0445   20.9262 C   0  0  0  0  0  0
  -24.6395  -11.6941   20.8746 C   0  0  0  0  0  0
  -23.9086  -10.4298   21.0394 C   0  0  0  0  0  0
  -24.3630   -9.4219   21.9180 C   0  0  0  0  0  0
  -23.6302   -8.2257   22.0750 C   0  0  0  0  0  0
  -22.4284   -8.0282   21.3545 C   0  0  0  0  0  0
  -21.9924   -9.0260   20.4646 C   0  0  0  0  0  0
  -22.7252  -10.2139   20.3045 C   0  0  0  0  0  0
  -21.6863   -6.0736   22.5281 C   0  0  0  0  0  0
  -21.4021   -6.5640   23.8214 C   0  0  0  0  0  0
  -21.3661   -5.6791   24.9179 C   0  0  0  0  0  0
  -21.6047   -4.3049   24.7228 C   0  0  0  0  0  0
  -21.8819   -3.8146   23.4346 C   0  0  0  0  0  0
  -21.9199   -4.6968   22.3402 C   0  0  0  0  0  0
  -22.7765  -13.5204   21.1898 C   0  0  0  0  0  0
  -22.1666   -4.2153   21.0978 F   0  0  0  0  0  0
  -21.5628   -3.4530   25.7739 F   0  0  0  0  0  0
  -29.8655  -13.9844   20.3230 N   0  0  0  0  0  0
  -26.2803  -12.9521   20.3180 N   0  0  0  0  0  0
  -25.9325  -11.6630   20.5685 N   0  0  0  0  0  0
  -22.0409  -12.8197   22.0448 N   0  0  0  0  0  0
  -25.4039  -15.1986   20.4176 N   0  0  0  0  0  0
  -31.6449  -15.2943   20.1586 O   0  0  0  0  0  0
  -21.6649   -6.8877   21.4240 O   0  0  0  0  0  0
  -22.3451  -14.5507   20.6725 O   0  0  0  0  0  0
  -24.6648  -31.8208   23.1679 C   0  0  0  0  0  0
  -25.9330  -32.4561   23.8147 C   0  0  1  0  0  0
  -27.2149  -26.9028   20.1906 C   0  0  0  0  0  0
  -25.5987  -33.8378   24.2049 N   0  0  0  0  0  0
  -23.4796  -30.4324   21.5174 C   0  0  2  0  0  0
  -24.9320  -28.8127   20.1136 C   0  0  0  0  0  0
  -22.7672  -29.4430   22.4771 C   0  0  0  0  0  0
  -18.0324  -28.1414   22.8461 C   0  0  0  0  0  0
  -24.1506  -36.7206   23.2647 C   0  0  0  0  0  0
  -26.0505  -30.6205   21.4003 C   0  0  0  0  0  0
  -26.1174  -29.2071   20.7470 C   0  0  0  0  0  0
  -27.2538  -28.2752   20.7562 C   0  0  0  0  0  0
  -25.9986  -26.6644   19.5127 C   0  0  0  0  0  0
  -24.8996  -27.5622   19.4755 C   0  0  0  0  0  0
  -23.7203  -29.7452   20.1450 C   0  0  0  0  0  0
  -25.4144  -36.2946   24.0288 C   0  0  1  0  0  0
  -20.5950  -28.3761   23.1176 C   0  0  2  0  0  0
  -20.6803  -26.9439   22.5402 C   0  0  0  0  0  0
  -19.5778  -26.6379   21.5211 C   0  0  0  0  0  0
  -18.1955  -26.7943   22.1618 C   0  0  0  0  0  0
  -19.1586  -28.8909   23.2805 C   0  0  0  0  0  0
  -18.9498  -30.1496   23.8841 C   0  0  0  0  0  0
  -17.6490  -30.6598   24.0556 C   0  0  0  0  0  0
  -25.9110  -34.9329   23.4990 C   0  0  0  0  0  0
  -16.5377  -29.9086   23.6342 C   0  0  0  0  0  0
  -16.7306  -28.6509   23.0352 C   0  0  0  0  0  0
  -26.4569  -31.6512   25.0688 C   0  0  0  0  0  0
  -25.3693  -31.3780   26.1343 C   0  0  0  0  0  0
  -27.0467  -30.2867   24.6454 C   0  0  0  0  0  0
  -27.6051  -32.4327   25.7501 C   0  0  0  0  0  0
  -27.5568  -37.1763   24.8463 C   0  0  0  0  0  0
  -21.4340  -29.3044   22.3520 N   0  0  0  0  0  0
  -26.4289  -37.3679   23.9386 N   0  0  0  0  0  0
  -24.7532  -30.9855   22.0824 N   0  0  0  0  0  0
  -23.4216  -28.8007   23.3021 O   0  0  0  0  0  0
  -28.2198  -25.7921   20.2464 O   0  0  0  0  0  0
  -26.5724  -34.8868   22.4587 O   0  0  0  0  0  0
  -23.5713  -32.1198   23.6756 O   0  0  0  0  0  0
  -30.8806  -21.3694   20.0588 C   0  0  0  0  0  0
  -31.3762  -22.6343   19.9316 C   0  0  0  0  0  0
  -29.1374  -22.8579   20.1911 C   0  0  0  0  0  0
  -27.9636  -24.1433   20.2265 C   0  0  0  0  0  0
  -28.9618  -19.7727   20.3391 C   0  0  0  0  0  0
  -29.9625  -18.2361   20.3307 C   0  0  0  0  0  0
  -32.7702  -23.1380   19.7360 C   0  0  0  0  0  0
  -29.5101  -21.3900   20.2163 N   0  0  0  0  0  0
  -30.3135  -23.4730   20.0389 N   0  3  0  0  0  0
  -29.6575  -16.5795   20.4335 N   0  0  0  0  0  0
  -32.7547  -24.2322   18.9737 F   0  0  0  0  0  0
  -33.3007  -23.4418   20.9198 F   0  0  0  0  0  0
  -33.5196  -22.2074   19.1444 F   0  0  0  0  0  0
  -31.4549  -13.0377   19.1968 H   0  0  0  0  0  0
  -30.5059  -11.9299   20.1375 H   0  0  0  0  0  0
  -29.9264  -11.7640   17.6906 H   0  0  0  0  0  0
  -29.5616  -13.4730   17.6468 H   0  0  0  0  0  0
  -28.0570  -11.2775   19.0952 H   0  0  0  0  0  0
  -27.4206  -12.3275   17.8543 H   0  0  0  0  0  0
  -27.5171  -14.2387   19.3123 H   0  0  0  0  0  0
  -28.8169  -12.5391   21.4969 H   0  0  0  0  0  0
  -28.2690  -14.1908   21.6803 H   0  0  0  0  0  0
  -25.2772   -9.5710   22.4767 H   0  0  0  0  0  0
  -24.0017   -7.4650   22.7466 H   0  0  0  0  0  0
  -21.0857   -8.8772   19.8949 H   0  0  0  0  0  0
  -22.3693  -10.9679   19.6157 H   0  0  0  0  0  0
  -21.2001   -7.6148   23.9721 H   0  0  0  0  0  0
  -21.1487   -6.0518   25.9082 H   0  0  0  0  0  0
  -22.0592   -2.7608   23.2849 H   0  0  0  0  0  0
  -22.4018  -11.9872   22.4863 H   0  0  0  0  0  0
  -21.1012  -13.1209   22.2611 H   0  0  0  0  0  0
  -24.6323  -15.8483   20.5218 H   0  0  0  0  0  0
  -26.2422  -15.6369   20.0590 H   0  0  0  0  0  0
  -26.7404  -32.5090   23.0860 H   0  0  0  0  0  0
  -25.0056  -33.9448   25.0145 H   0  0  0  0  0  0
  -22.7939  -31.2646   21.3438 H   0  0  0  0  0  0
  -23.3756  -35.9551   23.3297 H   0  0  0  0  0  0
  -24.3575  -36.8872   22.2065 H   0  0  0  0  0  0
  -23.7291  -37.6399   23.6721 H   0  0  0  0  0  0
  -26.2324  -31.3607   20.6194 H   0  0  0  0  0  0
  -26.9108  -30.6785   22.0564 H   0  0  0  0  0  0
  -28.1528  -28.5791   21.2742 H   0  0  0  0  0  0
  -25.8646  -25.7114   19.0224 H   0  0  0  0  0  0
  -24.0008  -27.2558   18.9594 H   0  0  0  0  0  0
  -23.8754  -30.5119   19.3851 H   0  0  0  0  0  0
  -22.8303  -29.1995   19.8269 H   0  0  0  0  0  0
  -25.1349  -36.1735   25.0782 H   0  0  0  0  0  0
  -21.0035  -28.3379   24.1302 H   0  0  0  0  0  0
  -20.5676  -26.2380   23.3650 H   0  0  0  0  0  0
  -21.6665  -26.7409   22.1209 H   0  0  0  0  0  0
  -19.6935  -25.6275   21.1273 H   0  0  0  0  0  0
  -19.6720  -27.3164   20.6720 H   0  0  0  0  0  0
  -17.4227  -26.6681   21.4023 H   0  0  0  0  0  0
  -18.0354  -26.0098   22.9030 H   0  0  0  0  0  0
  -19.7970  -30.7327   24.2184 H   0  0  0  0  0  0
  -17.5037  -31.6269   24.5173 H   0  0  0  0  0  0
  -15.5372  -30.2966   23.7701 H   0  0  0  0  0  0
  -15.8705  -28.0810   22.7088 H   0  0  0  0  0  0
  -24.5889  -30.7112   25.7658 H   0  0  0  0  0  0
  -24.8878  -32.2994   26.4629 H   0  0  0  0  0  0
  -25.7927  -30.9041   27.0210 H   0  0  0  0  0  0
  -26.3142  -29.6526   24.1453 H   0  0  0  0  0  0
  -27.3962  -29.7244   25.5124 H   0  0  0  0  0  0
  -27.9095  -30.4013   23.9892 H   0  0  0  0  0  0
  -27.2602  -33.3662   26.1952 H   0  0  0  0  0  0
  -28.3935  -32.6832   25.0395 H   0  0  0  0  0  0
  -28.0639  -31.8546   26.5528 H   0  0  0  0  0  0
  -28.2571  -38.0069   24.7463 H   0  0  0  0  0  0
  -28.1077  -36.2582   24.6347 H   0  0  0  0  0  0
  -27.2271  -37.1471   25.8866 H   0  0  0  0  0  0
  -20.9599  -29.8734   21.6647 H   0  0  0  0  0  0
  -26.0131  -38.2741   24.1365 H   0  0  0  0  0  0
  -31.4474  -20.4529   20.0330 H   0  0  0  0  0  0
  -27.3423  -23.9143   21.0929 H   0  0  0  0  0  0
  -27.3371  -23.9392   19.3592 H   0  0  0  0  0  0
  -28.3603  -19.7542   21.2470 H   0  0  0  0  0  0
  -28.2366  -19.6701   19.5316 H   0  0  0  0  0  0
  -30.6893  -18.3863   21.1294 H   0  0  0  0  0  0
  -30.5554  -18.3030   19.4182 H   0  0  0  0  0  0
  -30.3999  -24.4805   19.9814 H   0  0  0  0  0  0
  -28.6730  -16.3896   20.5589 H   0  0  0  0  0  0
  1 25  1  0  0  0
  1 30  2  0  0  0
  1 80  1  0  0  0
  2  3  1  0  0  0
  2 25  1  0  0  0
  2 84  1  0  0  0
  2 85  1  0  0  0
  3  4  1  0  0  0
  3 86  1  0  0  0
  3 87  1  0  0  0
  4  5  1  0  0  0
  4 88  1  0  0  0
  4 89  1  0  0  0
  5  6  1  0  0  0
  5 26  1  0  0  0
  5 90  1  0  0  0
  6 25  1  0  0  0
  6 91  1  0  0  0
  6 92  1  0  0  0
  7  8  2  0  0  0
  7 26  1  0  0  0
  7 29  1  0  0  0
  8  9  1  0  0  0
  8 22  1  0  0  0
  9 10  1  0  0  0
  9 27  2  0  0  0
 10 11  2  0  0  0
 10 15  1  0  0  0
 11 12  1  0  0  0
 11 93  1  0  0  0
 12 13  2  0  0  0
 12 94  1  0  0  0
 13 14  1  0  0  0
 13 31  1  0  0  0
 14 15  2  0  0  0
 14 95  1  0  0  0
 15 96  1  0  0  0
 16 17  2  0  0  0
 16 21  1  0  0  0
 16 31  1  0  0  0
 17 18  1  0  0  0
 17 97  1  0  0  0
 18 19  2  0  0  0
 18 98  1  0  0  0
 19 20  1  0  0  0
 19 24  1  0  0  0
 20 21  2  0  0  0
 20 99  1  0  0  0
 21 23  1  0  0  0
 22 28  1  0  0  0
 22 32  2  0  0  0
 26 27  1  0  0  0
 28100  1  0  0  0
 28101  1  0  0  0
 29102  1  0  0  0
 29103  1  0  0  0
 33 34  1  0  0  0
 33 66  1  0  0  0
 33 70  2  0  0  0
 34 36  1  0  0  0
 34 59  1  0  0  0
 34104  1  0  0  0
 35 44  2  0  0  0
 35 45  1  0  0  0
 35 68  1  0  0  0
 36 56  1  0  0  0
 36105  1  0  0  0
 37 39  1  0  0  0
 37 47  1  0  0  0
 37 66  1  0  0  0
 37106  1  0  0  0
 38 43  2  0  0  0
 38 46  1  0  0  0
 38 47  1  0  0  0
 39 64  1  0  0  0
 39 67  2  0  0  0
 40 52  1  0  0  0
 40 53  2  0  0  0
 40 58  1  0  0  0
 41107  1  0  0  0
 41108  1  0  0  0
 41109  1  0  0  0
 41 48  1  0  0  0
 42 43  1  0  0  0
 42 66  1  0  0  0
 42110  1  0  0  0
 42111  1  0  0  0
 43 44  1  0  0  0
 44112  1  0  0  0
 45 46  2  0  0  0
 45113  1  0  0  0
 46114  1  0  0  0
 47115  1  0  0  0
 47116  1  0  0  0
 48 56  1  0  0  0
 48 65  1  0  0  0
 48117  1  0  0  0
 49 50  1  0  0  0
 49 53  1  0  0  0
 49 64  1  0  0  0
 49118  1  0  0  0
 50 51  1  0  0  0
 50119  1  0  0  0
 50120  1  0  0  0
 51 52  1  0  0  0
 51121  1  0  0  0
 51122  1  0  0  0
 52123  1  0  0  0
 52124  1  0  0  0
 53 54  1  0  0  0
 54 55  2  0  0  0
 54125  1  0  0  0
 55 57  1  0  0  0
 55126  1  0  0  0
 56 69  2  0  0  0
 57 58  2  0  0  0
 57127  1  0  0  0
 58128  1  0  0  0
 59 60  1  0  0  0
 59 61  1  0  0  0
 59 62  1  0  0  0
 60129  1  0  0  0
 60130  1  0  0  0
 60131  1  0  0  0
 61132  1  0  0  0
 61133  1  0  0  0
 61134  1  0  0  0
 62135  1  0  0  0
 62136  1  0  0  0
 62137  1  0  0  0
 63 65  1  0  0  0
 63138  1  0  0  0
 63139  1  0  0  0
 63140  1  0  0  0
 64141  1  0  0  0
 65142  1  0  0  0
 68 74  1  0  0  0
 71 72  2  0  0  0
 71 78  1  0  0  0
 71143  1  0  0  0
 72 77  1  0  0  0
 72 79  1  0  0  0
 73 74  1  0  0  0
 73 78  1  0  0  0
 73 79  2  0  0  0
 74144  1  0  0  0
 74145  1  0  0  0
 75 76  1  0  0  0
 75 78  1  0  0  0
 75146  1  0  0  0
 75147  1  0  0  0
 76 80  1  0  0  0
 76148  1  0  0  0
 76149  1  0  0  0
 77 81  1  0  0  0
 77 82  1  0  0  0
 77 83  1  0  0  0
 79150  1  0  0  0
 80151  1  0  0  0
M  CHG  1  79   1
M  ISO  4   1 100  68 101  74 101  80 100
M  END
> <chiral flag>
0

> <version>
0

> <s_m_source_file>
/data/baiqing/PycharmProjects/Reinvent-master-3.2/result/LINK_invent/BTK/process_docking_weight1_custom_sum_contain_oxygen_bond_distance_aromatic_linkinvent_7_9_3/rearranged_h_0048.sdf

> <i_m_source_file_index>
12

> <r_mmod_Potential_Energy-OPLS-2005>
1273.1767578125

> <r_mmod_Stretch_Energy-OPLS-2005>
672.537902832031

> <r_mmod_Bend_Energy-OPLS-2005>
512.24365234375

> <r_mmod_Torsional_Energy-OPLS-2005>
217.902130126953

> <r_mmod_Improper_Torsional_Energy-OPLS-2005>
3.97435116767883

> <r_mmod_Van_der_Waal_Energy-OPLS-2005>
106.710411071777

> <r_mmod_Electrostatic_Energy-OPLS-2005>
-289.185852050781

> <r_mmod_Solvation_Energy-OPLS-2005>
-443.852386474609

> <b_mmod_Minimization_Converged-OPLS-2005>
0

> <r_mmod_RMS_Derivative-OPLS-2005>
1.59254598617554

$$$$
12
                    3D
 Structure written by MMmdl.
153161  0  0  1  0            999 V2000
  -30.3294  -15.5270   20.3527 C   0  0  0  0  0  0
  -30.4445  -13.0002   19.5323 C   0  0  0  0  0  0
  -29.5504  -12.5864   18.3290 C   0  0  0  0  0  0
  -28.1394  -12.1901   18.8020 C   0  0  0  0  0  0
  -27.5995  -13.2205   19.8085 C   0  0  2  0  0  0
  -28.6305  -13.5423   20.9306 C   0  0  0  0  0  0
  -25.2274  -13.8001   20.5655 C   0  0  0  0  0  0
  -24.1662  -13.0281   20.9319 C   0  0  0  0  0  0
  -24.6317  -11.6790   20.8843 C   0  0  0  0  0  0
  -23.9026  -10.4206   21.0461 C   0  0  0  0  0  0
  -24.3584   -9.4121   21.9229 C   0  0  0  0  0  0
  -23.6266   -8.2162   22.0769 C   0  0  0  0  0  0
  -22.4248   -8.0221   21.3544 C   0  0  0  0  0  0
  -21.9887   -9.0194   20.4641 C   0  0  0  0  0  0
  -22.7219  -10.2071   20.3077 C   0  0  0  0  0  0
  -21.6825   -6.0714   22.5297 C   0  0  0  0  0  0
  -21.3978   -6.5618   23.8229 C   0  0  0  0  0  0
  -21.3648   -5.6772   24.9186 C   0  0  0  0  0  0
  -21.6060   -4.3043   24.7237 C   0  0  0  0  0  0
  -21.8822   -3.8129   23.4355 C   0  0  0  0  0  0
  -21.9180   -4.6947   22.3412 C   0  0  0  0  0  0
  -22.7683  -13.5060   21.1988 C   0  0  0  0  0  0
  -22.1660   -4.2133   21.0997 F   0  0  0  0  0  0
  -21.5636   -3.4534   25.7753 F   0  0  0  0  0  0
  -29.8102  -14.1667   20.2815 N   0  0  0  0  0  0
  -26.2734  -12.9223   20.3219 N   0  0  0  0  0  0
  -25.9231  -11.6393   20.5798 N   0  0  0  0  0  0
  -22.0347  -12.8072   22.0556 N   0  0  0  0  0  0
  -25.3621  -15.1716   20.3802 N   0  0  0  0  0  0
  -31.5688  -15.4918   20.2112 O   0  0  0  0  0  0
  -21.6606   -6.8831   21.4246 O   0  0  0  0  0  0
  -22.3388  -14.5386   20.6834 O   0  0  0  0  0  0
  -24.6690  -31.8174   23.1617 C   0  0  0  0  0  0
  -25.9341  -32.4557   23.8108 C   0  0  1  0  0  0
  -27.2315  -26.8651   20.1957 C   0  0  0  0  0  0
  -25.5979  -33.8365   24.2021 N   0  0  0  0  0  0
  -23.4865  -30.4238   21.5160 C   0  0  2  0  0  0
  -24.9377  -28.7881   20.1241 C   0  0  0  0  0  0
  -22.7706  -29.4410   22.4813 C   0  0  0  0  0  0
  -18.0325  -28.1435   22.8437 C   0  0  0  0  0  0
  -24.1489  -36.7204   23.2652 C   0  0  0  0  0  0
  -26.0576  -30.6054   21.3959 C   0  0  0  0  0  0
  -26.1280  -29.1834   20.7500 C   0  0  0  0  0  0
  -27.2692  -28.2499   20.7498 C   0  0  0  0  0  0
  -26.0026  -26.6296   19.5339 C   0  0  0  0  0  0
  -24.9036  -27.5318   19.4943 C   0  0  0  0  0  0
  -23.7288  -29.7276   20.1484 C   0  0  0  0  0  0
  -25.4126  -36.2952   24.0303 C   0  0  1  0  0  0
  -20.5946  -28.3764   23.1191 C   0  0  2  0  0  0
  -20.6812  -26.9456   22.5411 C   0  0  0  0  0  0
  -19.5780  -26.6398   21.5220 C   0  0  0  0  0  0
  -18.1962  -26.7965   22.1613 C   0  0  0  0  0  0
  -19.1599  -28.8921   23.2795 C   0  0  0  0  0  0
  -18.9511  -30.1506   23.8825 C   0  0  0  0  0  0
  -17.6505  -30.6613   24.0548 C   0  0  0  0  0  0
  -25.9096  -34.9337   23.4997 C   0  0  0  0  0  0
  -16.5387  -29.9089   23.6362 C   0  0  0  0  0  0
  -16.7312  -28.6531   23.0336 C   0  0  0  0  0  0
  -26.4547  -31.6512   25.0661 C   0  0  0  0  0  0
  -25.3641  -31.3782   26.1304 C   0  0  0  0  0  0
  -27.0449  -30.2880   24.6413 C   0  0  0  0  0  0
  -27.6064  -32.4295   25.7447 C   0  0  0  0  0  0
  -27.5561  -37.1760   24.8467 C   0  0  0  0  0  0
  -21.4380  -29.3026   22.3544 N   0  0  0  0  0  0
  -26.4259  -37.3702   23.9417 N   0  0  0  0  0  0
  -24.7610  -30.9759   22.0790 N   0  0  0  0  0  0
  -23.4229  -28.8004   23.3099 O   0  0  0  0  0  0
  -28.2671  -25.7683   20.1399 O   0  0  0  0  0  0
  -26.5738  -34.8903   22.4609 O   0  0  0  0  0  0
  -23.5755  -32.1179   23.6681 O   0  0  0  0  0  0
  -29.8669  -21.5039   19.6918 C   0  0  0  0  0  0
  -28.2526  -21.1974   21.2815 C   0  0  0  0  0  0
  -29.9606  -19.7928   19.4425 C   0  0  0  0  0  0
  -28.3176  -19.5313   21.0144 C   0  0  0  0  0  0
  -28.5281  -22.3769   20.1661 C   0  0  2  0  0  0
  -29.6368  -18.6004   20.5668 C   0  0  1  0  0  0
  -28.0926  -16.6668   20.4770 C   0  0  0  0  0  0
  -28.2562  -24.1624   20.6413 C   0  0  0  0  0  0
  -29.5343  -16.8609   20.3922 N   0  0  0  0  0  0
  -31.4347  -13.2730   19.1646 H   0  0  0  0  0  0
  -30.6153  -12.1512   20.1985 H   0  0  0  0  0  0
  -30.0094  -11.7570   17.7923 H   0  0  0  0  0  0
  -29.4827  -13.4177   17.6256 H   0  0  0  0  0  0
  -28.2131  -11.2206   19.2994 H   0  0  0  0  0  0
  -27.4605  -12.0523   17.9598 H   0  0  0  0  0  0
  -27.4499  -14.0607   19.1426 H   0  0  0  0  0  0
  -28.8986  -12.6397   21.4861 H   0  0  0  0  0  0
  -28.2173  -14.2266   21.6734 H   0  0  0  0  0  0
  -25.2712   -9.5596   22.4818 H   0  0  0  0  0  0
  -23.9972   -7.4536   22.7471 H   0  0  0  0  0  0
  -21.0831   -8.8706   19.8930 H   0  0  0  0  0  0
  -22.3692  -10.9615   19.6190 H   0  0  0  0  0  0
  -21.1954   -7.6125   23.9721 H   0  0  0  0  0  0
  -21.1477   -6.0508   25.9092 H   0  0  0  0  0  0
  -22.0619   -2.7599   23.2870 H   0  0  0  0  0  0
  -22.3912  -11.9661   22.4856 H   0  0  0  0  0  0
  -21.0998  -13.1112   22.2853 H   0  0  0  0  0  0
  -24.5714  -15.8005   20.4728 H   0  0  0  0  0  0
  -26.1680  -15.6136   19.9628 H   0  0  0  0  0  0
  -26.7424  -32.5100   23.0842 H   0  0  0  0  0  0
  -25.0046  -33.9364   25.0118 H   0  0  0  0  0  0
  -22.8065  -31.2598   21.3389 H   0  0  0  0  0  0
  -23.3752  -35.9527   23.3266 H   0  0  0  0  0  0
  -24.3565  -36.8895   22.2077 H   0  0  0  0  0  0
  -23.7238  -37.6383   23.6728 H   0  0  0  0  0  0
  -26.2342  -31.3375   20.6069 H   0  0  0  0  0  0
  -26.9186  -30.6732   22.0476 H   0  0  0  0  0  0
  -28.1774  -28.5617   21.2451 H   0  0  0  0  0  0
  -25.8716  -25.6716   19.0485 H   0  0  0  0  0  0
  -24.0011  -27.2207   18.9870 H   0  0  0  0  0  0
  -23.8921  -30.4912   19.3836 H   0  0  0  0  0  0
  -22.8370  -29.1846   19.8319 H   0  0  0  0  0  0
  -25.1319  -36.1753   25.0793 H   0  0  0  0  0  0
  -21.0002  -28.3376   24.1324 H   0  0  0  0  0  0
  -20.5705  -26.2382   23.3647 H   0  0  0  0  0  0
  -21.6680  -26.7448   22.1216 H   0  0  0  0  0  0
  -19.6944  -25.6304   21.1267 H   0  0  0  0  0  0
  -19.6727  -27.3197   20.6742 H   0  0  0  0  0  0
  -17.4251  -26.6711   21.4002 H   0  0  0  0  0  0
  -18.0327  -26.0136   22.9037 H   0  0  0  0  0  0
  -19.7999  -30.7342   24.2145 H   0  0  0  0  0  0
  -17.5066  -31.6265   24.5197 H   0  0  0  0  0  0
  -15.5394  -30.2953   23.7724 H   0  0  0  0  0  0
  -15.8727  -28.0832   22.7036 H   0  0  0  0  0  0
  -24.5942  -30.6975   25.7641 H   0  0  0  0  0  0
  -24.8680  -32.2975   26.4470 H   0  0  0  0  0  0
  -25.7866  -30.9185   27.0251 H   0  0  0  0  0  0
  -26.3132  -29.6553   24.1385 H   0  0  0  0  0  0
  -27.3962  -29.7251   25.5064 H   0  0  0  0  0  0
  -27.9063  -30.4055   23.9828 H   0  0  0  0  0  0
  -27.2713  -33.3739   26.1745 H   0  0  0  0  0  0
  -28.4004  -32.6615   25.0330 H   0  0  0  0  0  0
  -28.0562  -31.8574   26.5587 H   0  0  0  0  0  0
  -28.2558  -38.0070   24.7534 H   0  0  0  0  0  0
  -28.1088  -36.2611   24.6275 H   0  0  0  0  0  0
  -27.2290  -37.1375   25.8870 H   0  0  0  0  0  0
  -20.9690  -29.8704   21.6641 H   0  0  0  0  0  0
  -26.0119  -38.2762   24.1442 H   0  0  0  0  0  0
  -30.6631  -21.7616   20.3915 H   0  0  0  0  0  0
  -30.1846  -21.9601   18.7542 H   0  0  0  0  0  0
  -28.9030  -21.4053   22.1292 H   0  0  0  0  0  0
  -27.2526  -21.3993   21.6694 H   0  0  0  0  0  0
  -30.9770  -19.6084   19.0930 H   0  0  0  0  0  0
  -29.3395  -19.5878   18.5712 H   0  0  0  0  0  0
  -27.5476  -19.4076   20.2525 H   0  0  0  0  0  0
  -27.9005  -19.0690   21.9069 H   0  0  0  0  0  0
  -27.8010  -22.2297   19.3670 H   0  0  0  0  0  0
  -30.3857  -18.7270   21.3491 H   0  0  0  0  0  0
  -27.5056  -17.3900   19.9189 H   0  0  0  0  0  0
  -27.7411  -16.6145   21.5103 H   0  0  0  0  0  0
  -27.8036  -15.7804   19.9715 H   0  0  0  0  0  0
  -28.9198  -24.2563   21.4990 H   0  0  0  0  0  0
  -27.2684  -24.1173   21.0964 H   0  0  0  0  0  0
  1 25  1  0  0  0
  1 30  2  0  0  0
  1 79  1  0  0  0
  2  3  1  0  0  0
  2 25  1  0  0  0
  2 80  1  0  0  0
  2 81  1  0  0  0
  3  4  1  0  0  0
  3 82  1  0  0  0
  3 83  1  0  0  0
  4  5  1  0  0  0
  4 84  1  0  0  0
  4 85  1  0  0  0
  5  6  1  0  0  0
  5 26  1  0  0  0
  5 86  1  0  0  0
  6 25  1  0  0  0
  6 87  1  0  0  0
  6 88  1  0  0  0
  7  8  2  0  0  0
  7 26  1  0  0  0
  7 29  1  0  0  0
  8  9  1  0  0  0
  8 22  1  0  0  0
  9 10  1  0  0  0
  9 27  2  0  0  0
 10 11  2  0  0  0
 10 15  1  0  0  0
 11 12  1  0  0  0
 11 89  1  0  0  0
 12 13  2  0  0  0
 12 90  1  0  0  0
 13 14  1  0  0  0
 13 31  1  0  0  0
 14 15  2  0  0  0
 14 91  1  0  0  0
 15 92  1  0  0  0
 16 17  2  0  0  0
 16 21  1  0  0  0
 16 31  1  0  0  0
 17 18  1  0  0  0
 17 93  1  0  0  0
 18 19  2  0  0  0
 18 94  1  0  0  0
 19 20  1  0  0  0
 19 24  1  0  0  0
 20 21  2  0  0  0
 20 95  1  0  0  0
 21 23  1  0  0  0
 22 28  1  0  0  0
 22 32  2  0  0  0
 26 27  1  0  0  0
 28 96  1  0  0  0
 28 97  1  0  0  0
 29 98  1  0  0  0
 29 99  1  0  0  0
 33 34  1  0  0  0
 33 66  1  0  0  0
 33 70  2  0  0  0
 34 36  1  0  0  0
 34 59  1  0  0  0
 34100  1  0  0  0
 35 44  2  0  0  0
 35 45  1  0  0  0
 35 68  1  0  0  0
 36 56  1  0  0  0
 36101  1  0  0  0
 37 39  1  0  0  0
 37 47  1  0  0  0
 37 66  1  0  0  0
 37102  1  0  0  0
 38 43  2  0  0  0
 38 46  1  0  0  0
 38 47  1  0  0  0
 39 64  1  0  0  0
 39 67  2  0  0  0
 40 52  1  0  0  0
 40 53  2  0  0  0
 40 58  1  0  0  0
 41103  1  0  0  0
 41104  1  0  0  0
 41105  1  0  0  0
 41 48  1  0  0  0
 42 43  1  0  0  0
 42 66  1  0  0  0
 42106  1  0  0  0
 42107  1  0  0  0
 43 44  1  0  0  0
 44108  1  0  0  0
 45 46  2  0  0  0
 45109  1  0  0  0
 46110  1  0  0  0
 47111  1  0  0  0
 47112  1  0  0  0
 48 56  1  0  0  0
 48 65  1  0  0  0
 48113  1  0  0  0
 49 50  1  0  0  0
 49 53  1  0  0  0
 49 64  1  0  0  0
 49114  1  0  0  0
 50 51  1  0  0  0
 50115  1  0  0  0
 50116  1  0  0  0
 51 52  1  0  0  0
 51117  1  0  0  0
 51118  1  0  0  0
 52119  1  0  0  0
 52120  1  0  0  0
 53 54  1  0  0  0
 54 55  2  0  0  0
 54121  1  0  0  0
 55 57  1  0  0  0
 55122  1  0  0  0
 56 69  2  0  0  0
 57 58  2  0  0  0
 57123  1  0  0  0
 58124  1  0  0  0
 59 60  1  0  0  0
 59 61  1  0  0  0
 59 62  1  0  0  0
 60125  1  0  0  0
 60126  1  0  0  0
 60127  1  0  0  0
 61128  1  0  0  0
 61129  1  0  0  0
 61130  1  0  0  0
 62131  1  0  0  0
 62132  1  0  0  0
 62133  1  0  0  0
 63 65  1  0  0  0
 63134  1  0  0  0
 63135  1  0  0  0
 63136  1  0  0  0
 64137  1  0  0  0
 65138  1  0  0  0
 68 78  1  0  0  0
 71 73  1  0  0  0
 71 75  1  0  0  0
 71139  1  0  0  0
 71140  1  0  0  0
 72 74  1  0  0  0
 72 75  1  0  0  0
 72141  1  0  0  0
 72142  1  0  0  0
 73 76  1  0  0  0
 73143  1  0  0  0
 73144  1  0  0  0
 74 76  1  0  0  0
 74145  1  0  0  0
 74146  1  0  0  0
 75 78  1  0  0  0
 75147  1  0  0  0
 76 79  1  0  0  0
 76148  1  0  0  0
 77 79  1  0  0  0
 77149  1  0  0  0
 77150  1  0  0  0
 77151  1  0  0  0
 78152  1  0  0  0
 78153  1  0  0  0
M  ISO  4   1 100  68 101  78 101  79 100
M  END
> <chiral flag>
0

> <version>
0

> <s_m_source_file>
/data/baiqing/PycharmProjects/Reinvent-master-3.2/result/LINK_invent/BTK/process_docking_weight1_custom_sum_contain_oxygen_bond_distance_aromatic_linkinvent_7_9_3/rearranged_h_0048.sdf

> <i_m_source_file_index>
13

> <r_mmod_Potential_Energy-OPLS-2005>
2099.97119140625

> <r_mmod_Stretch_Energy-OPLS-2005>
760.698425292969

> <r_mmod_Bend_Energy-OPLS-2005>
677.148803710938

> <r_mmod_Torsional_Energy-OPLS-2005>
310.583709716797

> <r_mmod_Improper_Torsional_Energy-OPLS-2005>
4.66689682006836

> <r_mmod_Van_der_Waal_Energy-OPLS-2005>
143.853713989258

> <r_mmod_Electrostatic_Energy-OPLS-2005>
-268.367919921875

> <r_mmod_Solvation_Energy-OPLS-2005>
-200.562866210938

> <b_mmod_Minimization_Converged-OPLS-2005>
0

> <r_mmod_RMS_Derivative-OPLS-2005>
4.53907871246338

$$$$
13
                    3D
 Structure written by MMmdl.
168177  0  0  1  0            999 V2000
  -30.7202  -14.4306   20.5712 C   0  0  0  0  0  0
  -30.4205  -12.2821   19.4212 C   0  0  0  0  0  0
  -29.4967  -12.4997   18.2057 C   0  0  0  0  0  0
  -28.0152  -12.3687   18.6140 C   0  0  0  0  0  0
  -27.6625  -13.2045   19.8741 C   0  0  2  0  0  0
  -28.7025  -12.9795   20.9965 C   0  0  0  0  0  0
  -25.2590  -13.8156   20.5671 C   0  0  0  0  0  0
  -24.1839  -13.0438   20.9190 C   0  0  0  0  0  0
  -24.6384  -11.6903   20.8729 C   0  0  0  0  0  0
  -23.9044  -10.4288   21.0403 C   0  0  0  0  0  0
  -24.3599   -9.4206   21.9180 C   0  0  0  0  0  0
  -23.6276   -8.2237   22.0751 C   0  0  0  0  0  0
  -22.4254   -8.0276   21.3547 C   0  0  0  0  0  0
  -21.9891   -9.0252   20.4649 C   0  0  0  0  0  0
  -22.7217  -10.2132   20.3056 C   0  0  0  0  0  0
  -21.6852   -6.0722   22.5278 C   0  0  0  0  0  0
  -21.4011   -6.5623   23.8211 C   0  0  0  0  0  0
  -21.3659   -5.6775   24.9173 C   0  0  0  0  0  0
  -21.6046   -4.3043   24.7220 C   0  0  0  0  0  0
  -21.8820   -3.8134   23.4340 C   0  0  0  0  0  0
  -21.9196   -4.6950   22.3399 C   0  0  0  0  0  0
  -22.7853  -13.5243   21.1844 C   0  0  0  0  0  0
  -22.1660   -4.2137   21.0971 F   0  0  0  0  0  0
  -21.5636   -3.4522   25.7732 F   0  0  0  0  0  0
  -30.0391  -13.2635   20.4464 N   0  0  0  0  0  0
  -26.3015  -12.9321   20.3334 N   0  0  0  0  0  0
  -25.9307  -11.6485   20.5745 N   0  0  0  0  0  0
  -22.0477  -12.8251   22.0399 N   0  0  0  0  0  0
  -25.4331  -15.1868   20.4055 N   0  0  0  0  0  0
  -31.8621  -14.5956   20.1366 O   0  0  0  0  0  0
  -21.6633   -6.8864   21.4240 O   0  0  0  0  0  0
  -22.3534  -14.5542   20.6679 O   0  0  0  0  0  0
  -24.6124  -31.8702   23.2133 C   0  0  0  0  0  0
  -25.9031  -32.4829   23.8417 C   0  0  1  0  0  0
  -27.2317  -27.4533   20.0730 C   0  0  0  0  0  0
  -25.5902  -33.8631   24.2349 N   0  0  0  0  0  0
  -23.3976  -30.4963   21.5544 C   0  0  2  0  0  0
  -24.8396  -28.9638   20.1196 C   0  0  0  0  0  0
  -22.7390  -29.4673   22.5011 C   0  0  0  0  0  0
  -18.0266  -28.1365   22.8490 C   0  0  0  0  0  0
  -24.1484  -36.7316   23.2638 C   0  0  0  0  0  0
  -25.9267  -30.8377   21.3651 C   0  0  0  0  0  0
  -25.9999  -29.4723   20.7150 C   0  0  0  0  0  0
  -27.1950  -28.7199   20.6969 C   0  0  0  0  0  0
  -26.0411  -26.9477   19.4959 C   0  0  0  0  0  0
  -24.8520  -27.6964   19.5164 C   0  0  0  0  0  0
  -23.6037  -29.8302   20.1687 C   0  0  0  0  0  0
  -25.4101  -36.3116   24.0343 C   0  0  1  0  0  0
  -20.5855  -28.3648   23.1327 C   0  0  2  0  0  0
  -20.6758  -26.9390   22.5414 C   0  0  0  0  0  0
  -19.5739  -26.6380   21.5206 C   0  0  0  0  0  0
  -18.1914  -26.7914   22.1614 C   0  0  0  0  0  0
  -19.1516  -28.8823   23.2905 C   0  0  0  0  0  0
  -18.9443  -30.1427   23.8911 C   0  0  0  0  0  0
  -17.6451  -30.6578   24.0559 C   0  0  0  0  0  0
  -25.9029  -34.9479   23.5138 C   0  0  0  0  0  0
  -16.5343  -29.9079   23.6323 C   0  0  0  0  0  0
  -16.7260  -28.6496   23.0347 C   0  0  0  0  0  0
  -26.4468  -31.6600   25.0733 C   0  0  0  0  0  0
  -25.3757  -31.3717   26.1507 C   0  0  0  0  0  0
  -27.0271  -30.3037   24.6088 C   0  0  0  0  0  0
  -27.6058  -32.4309   25.7477 C   0  0  0  0  0  0
  -27.5582  -37.1807   24.8464 C   0  0  0  0  0  0
  -21.4125  -29.3027   22.3739 N   0  0  0  0  0  0
  -26.4288  -37.3802   23.9418 N   0  0  0  0  0  0
  -24.6640  -31.0826   22.1022 N   0  0  0  0  0  0
  -23.4178  -28.8205   23.3033 O   0  0  0  0  0  0
  -28.4279  -26.7646   20.0458 O   0  0  0  0  0  0
  -26.5585  -34.8927   22.4694 O   0  0  0  0  0  0
  -23.5323  -32.1445   23.7538 O   0  0  0  0  0  0
  -30.1034  -21.2880   19.6575 C   0  0  0  0  0  0
  -29.8825  -22.5279   19.0368 C   0  0  0  0  0  0
  -28.1171  -17.5457   22.0752 C   0  0  0  0  0  0
  -28.5802  -19.5758   22.5646 C   0  0  0  0  0  0
  -30.5814  -21.2594   20.9836 C   0  0  0  0  0  0
  -30.1425  -23.7057   19.7587 C   0  0  0  0  0  0
  -30.7956  -22.4971   21.6383 C   0  0  0  0  0  0
  -29.3821  -17.7964   21.5825 C   0  0  0  0  0  0
  -31.2912  -22.5874   23.0696 C   0  0  0  0  0  0
  -29.1755  -16.9033   18.5078 C   0  0  0  0  0  0
  -30.8704  -19.9109   21.6472 C   0  0  0  0  0  0
  -29.9406  -25.0657   19.1110 C   0  0  0  0  0  0
  -30.4235  -17.2537   19.3340 C   0  0  0  0  0  0
  -28.5009  -25.5952   19.2253 C   0  0  0  0  0  0
  -30.3322  -16.8853   20.8394 C   0  0  2  0  0  0
  -27.6101  -18.6802   22.7051 N   0  0  0  0  0  0
  -30.5755  -23.6874   21.0375 N   0  0  0  0  0  0
  -29.6597  -19.1345   21.9022 N   0  0  0  0  0  0
  -29.9887  -15.4668   21.0118 N   0  0  0  0  0  0
  -31.4674  -12.3697   19.1245 H   0  0  0  0  0  0
  -30.3079  -11.2704   19.8140 H   0  0  0  0  0  0
  -29.7329  -11.7778   17.4225 H   0  0  0  0  0  0
  -29.6765  -13.4860   17.7748 H   0  0  0  0  0  0
  -27.8169  -11.3134   18.8038 H   0  0  0  0  0  0
  -27.3701  -12.6518   17.7815 H   0  0  0  0  0  0
  -27.7064  -14.2525   19.5800 H   0  0  0  0  0  0
  -28.6657  -11.9468   21.3478 H   0  0  0  0  0  0
  -28.4720  -13.5904   21.8709 H   0  0  0  0  0  0
  -25.2748   -9.5690   22.4743 H   0  0  0  0  0  0
  -23.9996   -7.4633   22.7456 H   0  0  0  0  0  0
  -21.0830   -8.8767   19.8951 H   0  0  0  0  0  0
  -22.3673  -10.9667   19.6155 H   0  0  0  0  0  0
  -21.1991   -7.6132   23.9704 H   0  0  0  0  0  0
  -21.1479   -6.0505   25.9075 H   0  0  0  0  0  0
  -22.0598   -2.7596   23.2838 H   0  0  0  0  0  0
  -22.4052  -11.9917   22.4838 H   0  0  0  0  0  0
  -21.1096  -13.1303   22.2573 H   0  0  0  0  0  0
  -24.6685  -15.8443   20.5148 H   0  0  0  0  0  0
  -26.2685  -15.6141   20.0283 H   0  0  0  0  0  0
  -26.7100  -32.5541   23.1183 H   0  0  0  0  0  0
  -25.0079  -33.9800   25.0510 H   0  0  0  0  0  0
  -22.6847  -31.3118   21.4180 H   0  0  0  0  0  0
  -23.3746  -35.9648   23.3303 H   0  0  0  0  0  0
  -24.3580  -36.8920   22.2051 H   0  0  0  0  0  0
  -23.7232  -37.6524   23.6639 H   0  0  0  0  0  0
  -26.0377  -31.6016   20.5944 H   0  0  0  0  0  0
  -26.8162  -30.8897   21.9815 H   0  0  0  0  0  0
  -28.0938  -29.1133   21.1507 H   0  0  0  0  0  0
  -26.0007  -25.9780   19.0230 H   0  0  0  0  0  0
  -23.9553  -27.2919   19.0671 H   0  0  0  0  0  0
  -23.7143  -30.6046   19.4092 H   0  0  0  0  0  0
  -22.7276  -29.2505   19.8725 H   0  0  0  0  0  0
  -25.1269  -36.1981   25.0835 H   0  0  0  0  0  0
  -20.9948  -28.3209   24.1448 H   0  0  0  0  0  0
  -20.5659  -26.2258   23.3596 H   0  0  0  0  0  0
  -21.6629  -26.7431   22.1213 H   0  0  0  0  0  0
  -19.6902  -25.6296   21.1223 H   0  0  0  0  0  0
  -19.6681  -27.3207   20.6747 H   0  0  0  0  0  0
  -17.4186  -26.6667   21.4009 H   0  0  0  0  0  0
  -18.0312  -26.0048   22.9005 H   0  0  0  0  0  0
  -19.7921  -30.7228   24.2300 H   0  0  0  0  0  0
  -17.5013  -31.6260   24.5155 H   0  0  0  0  0  0
  -15.5343  -30.2987   23.7641 H   0  0  0  0  0  0
  -15.8659  -28.0821   22.7056 H   0  0  0  0  0  0
  -24.5895  -30.7092   25.7871 H   0  0  0  0  0  0
  -24.8987  -32.2880   26.4998 H   0  0  0  0  0  0
  -25.8133  -30.8863   27.0239 H   0  0  0  0  0  0
  -26.2787  -29.6818   24.1165 H   0  0  0  0  0  0
  -27.4063  -29.7257   25.4526 H   0  0  0  0  0  0
  -27.8622  -30.4346   23.9203 H   0  0  0  0  0  0
  -27.2692  -33.3612   26.2064 H   0  0  0  0  0  0
  -28.3856  -32.6861   25.0289 H   0  0  0  0  0  0
  -28.0738  -31.8425   26.5381 H   0  0  0  0  0  0
  -28.2602  -38.0104   24.7508 H   0  0  0  0  0  0
  -28.1067  -36.2631   24.6272 H   0  0  0  0  0  0
  -27.2306  -37.1451   25.8871 H   0  0  0  0  0  0
  -20.9277  -29.8761   21.6976 H   0  0  0  0  0  0
  -26.0175  -38.2877   24.1425 H   0  0  0  0  0  0
  -29.9100  -20.3776   19.1122 H   0  0  0  0  0  0
  -29.5247  -22.5694   18.0167 H   0  0  0  0  0  0
  -27.5359  -16.6348   22.0323 H   0  0  0  0  0  0
  -28.5063  -20.5834   22.9523 H   0  0  0  0  0  0
  -30.6186  -22.0565   23.7431 H   0  0  0  0  0  0
  -31.3477  -23.6227   23.4091 H   0  0  0  0  0  0
  -32.2890  -22.1576   23.1607 H   0  0  0  0  0  0
  -29.2778  -17.2643   17.4843 H   0  0  0  0  0  0
  -28.2748  -17.3496   18.9270 H   0  0  0  0  0  0
  -29.0256  -15.8260   18.4529 H   0  0  0  0  0  0
  -31.3960  -20.0291   22.5935 H   0  0  0  0  0  0
  -31.5485  -19.3483   21.0075 H   0  0  0  0  0  0
  -30.2024  -24.9758   18.0557 H   0  0  0  0  0  0
  -30.6469  -25.7855   19.5256 H   0  0  0  0  0  0
  -30.6385  -18.3134   19.2220 H   0  0  0  0  0  0
  -31.2816  -16.7594   18.8787 H   0  0  0  0  0  0
  -27.8437  -24.8164   19.6152 H   0  0  0  0  0  0
  -28.1520  -25.8375   18.2195 H   0  0  0  0  0  0
  -31.3241  -17.0160   21.2785 H   0  0  0  0  0  0
  -29.0701  -15.2482   21.3593 H   0  0  0  0  0  0
  1 25  1  0  0  0
  1 30  2  0  0  0
  1 89  1  0  0  0
  2  3  1  0  0  0
  2 25  1  0  0  0
  2 90  1  0  0  0
  2 91  1  0  0  0
  3  4  1  0  0  0
  3 92  1  0  0  0
  3 93  1  0  0  0
  4  5  1  0  0  0
  4 94  1  0  0  0
  4 95  1  0  0  0
  5  6  1  0  0  0
  5 26  1  0  0  0
  5 96  1  0  0  0
  6 25  1  0  0  0
  6 97  1  0  0  0
  6 98  1  0  0  0
  7  8  2  0  0  0
  7 26  1  0  0  0
  7 29  1  0  0  0
  8  9  1  0  0  0
  8 22  1  0  0  0
  9 10  1  0  0  0
  9 27  2  0  0  0
 10 11  2  0  0  0
 10 15  1  0  0  0
 11 12  1  0  0  0
 11 99  1  0  0  0
 12 13  2  0  0  0
 12100  1  0  0  0
 13 14  1  0  0  0
 13 31  1  0  0  0
 14 15  2  0  0  0
 14101  1  0  0  0
 15102  1  0  0  0
 16 17  2  0  0  0
 16 21  1  0  0  0
 16 31  1  0  0  0
 17 18  1  0  0  0
 17103  1  0  0  0
 18 19  2  0  0  0
 18104  1  0  0  0
 19 20  1  0  0  0
 19 24  1  0  0  0
 20 21  2  0  0  0
 20105  1  0  0  0
 21 23  1  0  0  0
 22 28  1  0  0  0
 22 32  2  0  0  0
 26 27  1  0  0  0
 28106  1  0  0  0
 28107  1  0  0  0
 29108  1  0  0  0
 29109  1  0  0  0
 33 34  1  0  0  0
 33 66  1  0  0  0
 33 70  2  0  0  0
 34 36  1  0  0  0
 34 59  1  0  0  0
 34110  1  0  0  0
 35 44  2  0  0  0
 35 45  1  0  0  0
 35 68  1  0  0  0
 36 56  1  0  0  0
 36111  1  0  0  0
 37 39  1  0  0  0
 37 47  1  0  0  0
 37 66  1  0  0  0
 37112  1  0  0  0
 38 43  2  0  0  0
 38 46  1  0  0  0
 38 47  1  0  0  0
 39 64  1  0  0  0
 39 67  2  0  0  0
 40 52  1  0  0  0
 40 53  2  0  0  0
 40 58  1  0  0  0
 41113  1  0  0  0
 41114  1  0  0  0
 41115  1  0  0  0
 41 48  1  0  0  0
 42 43  1  0  0  0
 42 66  1  0  0  0
 42116  1  0  0  0
 42117  1  0  0  0
 43 44  1  0  0  0
 44118  1  0  0  0
 45 46  2  0  0  0
 45119  1  0  0  0
 46120  1  0  0  0
 47121  1  0  0  0
 47122  1  0  0  0
 48 56  1  0  0  0
 48 65  1  0  0  0
 48123  1  0  0  0
 49 50  1  0  0  0
 49 53  1  0  0  0
 49 64  1  0  0  0
 49124  1  0  0  0
 50 51  1  0  0  0
 50125  1  0  0  0
 50126  1  0  0  0
 51 52  1  0  0  0
 51127  1  0  0  0
 51128  1  0  0  0
 52129  1  0  0  0
 52130  1  0  0  0
 53 54  1  0  0  0
 54 55  2  0  0  0
 54131  1  0  0  0
 55 57  1  0  0  0
 55132  1  0  0  0
 56 69  2  0  0  0
 57 58  2  0  0  0
 57133  1  0  0  0
 58134  1  0  0  0
 59 60  1  0  0  0
 59 61  1  0  0  0
 59 62  1  0  0  0
 60135  1  0  0  0
 60136  1  0  0  0
 60137  1  0  0  0
 61138  1  0  0  0
 61139  1  0  0  0
 61140  1  0  0  0
 62141  1  0  0  0
 62142  1  0  0  0
 62143  1  0  0  0
 63 65  1  0  0  0
 63144  1  0  0  0
 63145  1  0  0  0
 63146  1  0  0  0
 64147  1  0  0  0
 65148  1  0  0  0
 68 84  1  0  0  0
 71 72  2  0  0  0
 71 75  1  0  0  0
 71149  1  0  0  0
 72 76  1  0  0  0
 72150  1  0  0  0
 73 78  2  0  0  0
 73 86  1  0  0  0
 73151  1  0  0  0
 74 86  2  0  0  0
 74 88  1  0  0  0
 74152  1  0  0  0
 75 77  2  0  0  0
 75 81  1  0  0  0
 76 82  1  0  0  0
 76 87  2  0  0  0
 77 79  1  0  0  0
 77 87  1  0  0  0
 78 85  1  0  0  0
 78 88  1  0  0  0
 79153  1  0  0  0
 79154  1  0  0  0
 79155  1  0  0  0
 80 83  1  0  0  0
 80156  1  0  0  0
 80157  1  0  0  0
 80158  1  0  0  0
 81 88  1  0  0  0
 81159  1  0  0  0
 81160  1  0  0  0
 82 84  1  0  0  0
 82161  1  0  0  0
 82162  1  0  0  0
 83163  1  0  0  0
 83164  1  0  0  0
 83 85  1  0  0  0
 84165  1  0  0  0
 84166  1  0  0  0
 85 89  1  0  0  0
 85167  1  0  0  0
 89168  1  0  0  0
M  ISO  4   1 100  68 101  84 101  89 100
M  END
> <chiral flag>
0

> <version>
0

> <s_m_source_file>
/data/baiqing/PycharmProjects/Reinvent-master-3.2/result/LINK_invent/BTK/process_docking_weight1_custom_sum_contain_oxygen_bond_distance_aromatic_linkinvent_7_9_3/rearranged_h_0048.sdf

> <i_m_source_file_index>
14

> <r_mmod_Potential_Energy-OPLS-2005>
-245.551040649414

> <r_mmod_Stretch_Energy-OPLS-2005>
35.6471366882324

> <r_mmod_Bend_Energy-OPLS-2005>
100.573112487793

> <r_mmod_Torsional_Energy-OPLS-2005>
217.855087280273

> <r_mmod_Improper_Torsional_Energy-OPLS-2005>
5.12212991714478

> <r_mmod_Van_der_Waal_Energy-OPLS-2005>
148.561096191406

> <r_mmod_Electrostatic_Energy-OPLS-2005>
-525.78173828125

> <r_mmod_Solvation_Energy-OPLS-2005>
-239.005523681641

> <b_mmod_Minimization_Converged-OPLS-2005>
0

> <r_mmod_RMS_Derivative-OPLS-2005>
1.77814781665802

$$$$
14
                    3D
 Structure written by MMmdl.
163171  0  0  1  0            999 V2000
  -30.6399  -14.5601   20.5309 C   0  0  0  0  0  0
  -30.4515  -12.3516   19.4401 C   0  0  0  0  0  0
  -29.5122  -12.5115   18.2198 C   0  0  0  0  0  0
  -28.0330  -12.3605   18.6312 C   0  0  0  0  0  0
  -27.6670  -13.2052   19.8807 C   0  0  2  0  0  0
  -28.7141  -13.0052   21.0043 C   0  0  0  0  0  0
  -25.2610  -13.8135   20.5716 C   0  0  0  0  0  0
  -24.1856  -13.0408   20.9223 C   0  0  0  0  0  0
  -24.6413  -11.6884   20.8758 C   0  0  0  0  0  0
  -23.9051  -10.4286   21.0432 C   0  0  0  0  0  0
  -24.3608   -9.4182   21.9181 C   0  0  0  0  0  0
  -23.6290   -8.2218   22.0746 C   0  0  0  0  0  0
  -22.4264   -8.0277   21.3547 C   0  0  0  0  0  0
  -21.9901   -9.0250   20.4641 C   0  0  0  0  0  0
  -22.7236  -10.2126   20.3065 C   0  0  0  0  0  0
  -21.6848   -6.0729   22.5276 C   0  0  0  0  0  0
  -21.4017   -6.5631   23.8218 C   0  0  0  0  0  0
  -21.3656   -5.6780   24.9178 C   0  0  0  0  0  0
  -21.6062   -4.3048   24.7225 C   0  0  0  0  0  0
  -21.8825   -3.8140   23.4344 C   0  0  0  0  0  0
  -21.9203   -4.6957   22.3401 C   0  0  0  0  0  0
  -22.7888  -13.5229   21.1876 C   0  0  0  0  0  0
  -22.1683   -4.2144   21.0994 F   0  0  0  0  0  0
  -21.5629   -3.4539   25.7738 F   0  0  0  0  0  0
  -30.0393  -13.3399   20.4536 N   0  0  0  0  0  0
  -26.3062  -12.9310   20.3411 N   0  0  0  0  0  0
  -25.9348  -11.6466   20.5778 N   0  0  0  0  0  0
  -22.0488  -12.8236   22.0404 N   0  0  0  0  0  0
  -25.4286  -15.1842   20.4150 N   0  0  0  0  0  0
  -31.7716  -14.7753   20.0885 O   0  0  0  0  0  0
  -21.6639   -6.8867   21.4234 O   0  0  0  0  0  0
  -22.3573  -14.5513   20.6682 O   0  0  0  0  0  0
  -24.6211  -31.8631   23.2022 C   0  0  0  0  0  0
  -25.9083  -32.4797   23.8330 C   0  0  1  0  0  0
  -27.2393  -27.3903   20.1127 C   0  0  0  0  0  0
  -25.5893  -33.8591   24.2249 N   0  0  0  0  0  0
  -23.4109  -30.4852   21.5435 C   0  0  2  0  0  0
  -24.8593  -28.9390   20.1121 C   0  0  0  0  0  0
  -22.7430  -29.4644   22.4959 C   0  0  0  0  0  0
  -18.0255  -28.1401   22.8444 C   0  0  0  0  0  0
  -24.1497  -36.7319   23.2657 C   0  0  0  0  0  0
  -25.9427  -30.8172   21.3579 C   0  0  0  0  0  0
  -26.0221  -29.4487   20.7041 C   0  0  0  0  0  0
  -27.2196  -28.6897   20.6845 C   0  0  0  0  0  0
  -26.0559  -26.8924   19.5323 C   0  0  0  0  0  0
  -24.8743  -27.6634   19.5176 C   0  0  0  0  0  0
  -23.6223  -29.8141   20.1594 C   0  0  0  0  0  0
  -25.4119  -36.3095   24.0344 C   0  0  1  0  0  0
  -20.5851  -28.3679   23.1290 C   0  0  2  0  0  0
  -20.6736  -26.9394   22.5432 C   0  0  0  0  0  0
  -19.5735  -26.6376   21.5206 C   0  0  0  0  0  0
  -18.1899  -26.7940   22.1583 C   0  0  0  0  0  0
  -19.1509  -28.8854   23.2866 C   0  0  0  0  0  0
  -18.9454  -30.1453   23.8876 C   0  0  0  0  0  0
  -17.6459  -30.6587   24.0565 C   0  0  0  0  0  0
  -25.9048  -34.9476   23.5096 C   0  0  0  0  0  0
  -16.5347  -29.9094   23.6341 C   0  0  0  0  0  0
  -16.7248  -28.6546   23.0304 C   0  0  0  0  0  0
  -26.4470  -31.6612   25.0694 C   0  0  0  0  0  0
  -25.3750  -31.3755   26.1457 C   0  0  0  0  0  0
  -27.0303  -30.3032   24.6150 C   0  0  0  0  0  0
  -27.5993  -32.4378   25.7478 C   0  0  0  0  0  0
  -27.5588  -37.1800   24.8445 C   0  0  0  0  0  0
  -21.4157  -29.3036   22.3696 N   0  0  0  0  0  0
  -26.4280  -37.3800   23.9419 N   0  0  0  0  0  0
  -24.6765  -31.0709   22.0928 N   0  0  0  0  0  0
  -23.4183  -28.8210   23.3049 O   0  0  0  0  0  0
  -28.3987  -26.6346   20.0648 O   0  0  0  0  0  0
  -26.5632  -34.8951   22.4674 O   0  0  0  0  0  0
  -23.5394  -32.1397   23.7406 O   0  0  0  0  0  0
  -30.2496  -17.7896   22.8763 C   0  0  0  0  0  0
  -30.0685  -18.0291   21.5345 C   0  0  0  0  0  0
  -30.6736  -19.9389   22.5462 C   0  0  0  0  0  0
  -31.1871  -21.3146   22.8402 C   0  0  0  0  0  0
  -28.3801  -17.2134   19.8648 C   0  0  0  0  0  0
  -29.2515  -22.8553   20.6474 C   0  0  0  0  0  0
  -28.9624  -21.3964   20.1275 C   0  0  0  0  0  0
  -28.4021  -24.0362   20.0356 C   0  0  0  0  0  0
  -30.1056  -20.2952   20.1642 C   0  0  0  0  0  0
  -28.4450  -25.3972   20.8240 C   0  0  0  0  0  0
  -29.7818  -16.9865   20.4544 C   0  0  2  0  0  0
  -30.2284  -19.4228   21.3815 N   0  0  0  0  0  0
  -30.6180  -18.9661   23.4550 N   0  3  0  0  0  0
  -29.8190  -15.5671   20.9180 N   0  0  0  0  0  0
  -31.4923  -12.4840   19.1318 H   0  0  0  0  0  0
  -30.3933  -11.3440   19.8513 H   0  0  0  0  0  0
  -29.7621  -11.7771   17.4518 H   0  0  0  0  0  0
  -29.6628  -13.4903   17.7607 H   0  0  0  0  0  0
  -27.8564  -11.3058   18.8422 H   0  0  0  0  0  0
  -27.3781  -12.6189   17.7972 H   0  0  0  0  0  0
  -27.6956  -14.2478   19.5684 H   0  0  0  0  0  0
  -28.7127  -11.9717   21.3550 H   0  0  0  0  0  0
  -28.4719  -13.6074   21.8820 H   0  0  0  0  0  0
  -25.2752   -9.5674   22.4738 H   0  0  0  0  0  0
  -24.0029   -7.4612   22.7446 H   0  0  0  0  0  0
  -21.0837   -8.8752   19.8940 H   0  0  0  0  0  0
  -22.3687  -10.9660   19.6182 H   0  0  0  0  0  0
  -21.1996   -7.6130   23.9704 H   0  0  0  0  0  0
  -21.1485   -6.0513   25.9071 H   0  0  0  0  0  0
  -22.0605   -2.7597   23.2836 H   0  0  0  0  0  0
  -22.4101  -11.9959   22.4910 H   0  0  0  0  0  0
  -21.1075  -13.1255   22.2473 H   0  0  0  0  0  0
  -24.6553  -15.8313   20.5228 H   0  0  0  0  0  0
  -26.2742  -15.6247   20.0765 H   0  0  0  0  0  0
  -26.7153  -32.5498   23.1092 H   0  0  0  0  0  0
  -24.9949  -33.9721   25.0321 H   0  0  0  0  0  0
  -22.7021  -31.3053   21.4042 H   0  0  0  0  0  0
  -23.3759  -35.9640   23.3292 H   0  0  0  0  0  0
  -24.3577  -36.8980   22.2068 H   0  0  0  0  0  0
  -23.7249  -37.6521   23.6692 H   0  0  0  0  0  0
  -26.0651  -31.5844   20.5917 H   0  0  0  0  0  0
  -26.8237  -30.8634   21.9858 H   0  0  0  0  0  0
  -28.1231  -29.0965   21.1170 H   0  0  0  0  0  0
  -26.0513  -25.9074   19.0866 H   0  0  0  0  0  0
  -23.9821  -27.2653   19.0528 H   0  0  0  0  0  0
  -23.7290  -30.5906   19.4006 H   0  0  0  0  0  0
  -22.7430  -29.2390   19.8667 H   0  0  0  0  0  0
  -25.1298  -36.1940   25.0835 H   0  0  0  0  0  0
  -20.9907  -28.3271   24.1428 H   0  0  0  0  0  0
  -20.5571  -26.2304   23.3648 H   0  0  0  0  0  0
  -21.6626  -26.7383   22.1287 H   0  0  0  0  0  0
  -19.6891  -25.6288   21.1240 H   0  0  0  0  0  0
  -19.6711  -27.3192   20.6750 H   0  0  0  0  0  0
  -17.4182  -26.6674   21.3973 H   0  0  0  0  0  0
  -18.0276  -26.0086   22.8979 H   0  0  0  0  0  0
  -19.7950  -30.7249   24.2238 H   0  0  0  0  0  0
  -17.5046  -31.6259   24.5179 H   0  0  0  0  0  0
  -15.5361  -30.2993   23.7709 H   0  0  0  0  0  0
  -15.8649  -28.0907   22.6957 H   0  0  0  0  0  0
  -24.5869  -30.7147   25.7836 H   0  0  0  0  0  0
  -24.9009  -32.2930   26.4949 H   0  0  0  0  0  0
  -25.8122  -30.8897   27.0190 H   0  0  0  0  0  0
  -26.2850  -29.6789   24.1192 H   0  0  0  0  0  0
  -27.4004  -29.7301   25.4670 H   0  0  0  0  0  0
  -27.8730  -30.4314   23.9349 H   0  0  0  0  0  0
  -27.2490  -33.3577   26.2188 H   0  0  0  0  0  0
  -28.3714  -32.7142   25.0282 H   0  0  0  0  0  0
  -28.0774  -31.8460   26.5301 H   0  0  0  0  0  0
  -28.2589  -38.0116   24.7515 H   0  0  0  0  0  0
  -28.1086  -36.2643   24.6200 H   0  0  0  0  0  0
  -27.2306  -37.1400   25.8849 H   0  0  0  0  0  0
  -20.9326  -29.8810   21.6950 H   0  0  0  0  0  0
  -26.0168  -38.2870   24.1444 H   0  0  0  0  0  0
  -30.1956  -16.8679   23.4393 H   0  0  0  0  0  0
  -31.5942  -21.7648   21.9373 H   0  0  0  0  0  0
  -31.9870  -21.2424   23.5756 H   0  0  0  0  0  0
  -30.3761  -21.9145   23.2462 H   0  0  0  0  0  0
  -28.2255  -18.2408   19.5410 H   0  0  0  0  0  0
  -27.6145  -16.9941   20.6085 H   0  0  0  0  0  0
  -28.2015  -16.5734   18.9998 H   0  0  0  0  0  0
  -30.3019  -23.0915   20.4774 H   0  0  0  0  0  0
  -29.1097  -22.8619   21.7263 H   0  0  0  0  0  0
  -28.6918  -21.5019   19.0768 H   0  0  0  0  0  0
  -28.0561  -21.0096   20.6030 H   0  0  0  0  0  0
  -27.3607  -23.7240   19.9514 H   0  0  0  0  0  0
  -28.7462  -24.2052   19.0147 H   0  0  0  0  0  0
  -31.0780  -20.7560   19.9879 H   0  0  0  0  0  0
  -29.9702  -19.6258   19.3158 H   0  0  0  0  0  0
  -29.3861  -25.4431   21.3744 H   0  0  0  0  0  0
  -27.6671  -25.3981   21.5906 H   0  0  0  0  0  0
  -30.5186  -17.1165   19.6584 H   0  0  0  0  0  0
  -30.8577  -19.0779   24.4323 H   0  0  0  0  0  0
  -28.9553  -15.2312   21.3175 H   0  0  0  0  0  0
  1 25  1  0  0  0
  1 30  2  0  0  0
  1 84  1  0  0  0
  2  3  1  0  0  0
  2 25  1  0  0  0
  2 85  1  0  0  0
  2 86  1  0  0  0
  3  4  1  0  0  0
  3 87  1  0  0  0
  3 88  1  0  0  0
  4  5  1  0  0  0
  4 89  1  0  0  0
  4 90  1  0  0  0
  5  6  1  0  0  0
  5 26  1  0  0  0
  5 91  1  0  0  0
  6 25  1  0  0  0
  6 92  1  0  0  0
  6 93  1  0  0  0
  7  8  2  0  0  0
  7 26  1  0  0  0
  7 29  1  0  0  0
  8  9  1  0  0  0
  8 22  1  0  0  0
  9 10  1  0  0  0
  9 27  2  0  0  0
 10 11  2  0  0  0
 10 15  1  0  0  0
 11 12  1  0  0  0
 11 94  1  0  0  0
 12 13  2  0  0  0
 12 95  1  0  0  0
 13 14  1  0  0  0
 13 31  1  0  0  0
 14 15  2  0  0  0
 14 96  1  0  0  0
 15 97  1  0  0  0
 16 17  2  0  0  0
 16 21  1  0  0  0
 16 31  1  0  0  0
 17 18  1  0  0  0
 17 98  1  0  0  0
 18 19  2  0  0  0
 18 99  1  0  0  0
 19 20  1  0  0  0
 19 24  1  0  0  0
 20 21  2  0  0  0
 20100  1  0  0  0
 21 23  1  0  0  0
 22 28  1  0  0  0
 22 32  2  0  0  0
 26 27  1  0  0  0
 28101  1  0  0  0
 28102  1  0  0  0
 29103  1  0  0  0
 29104  1  0  0  0
 33 34  1  0  0  0
 33 66  1  0  0  0
 33 70  2  0  0  0
 34 36  1  0  0  0
 34 59  1  0  0  0
 34105  1  0  0  0
 35 44  2  0  0  0
 35 45  1  0  0  0
 35 68  1  0  0  0
 36 56  1  0  0  0
 36106  1  0  0  0
 37 39  1  0  0  0
 37 47  1  0  0  0
 37 66  1  0  0  0
 37107  1  0  0  0
 38 43  2  0  0  0
 38 46  1  0  0  0
 38 47  1  0  0  0
 39 64  1  0  0  0
 39 67  2  0  0  0
 40 52  1  0  0  0
 40 53  2  0  0  0
 40 58  1  0  0  0
 41108  1  0  0  0
 41109  1  0  0  0
 41110  1  0  0  0
 41 48  1  0  0  0
 42 43  1  0  0  0
 42 66  1  0  0  0
 42111  1  0  0  0
 42112  1  0  0  0
 43 44  1  0  0  0
 44113  1  0  0  0
 45 46  2  0  0  0
 45114  1  0  0  0
 46115  1  0  0  0
 47116  1  0  0  0
 47117  1  0  0  0
 48 56  1  0  0  0
 48 65  1  0  0  0
 48118  1  0  0  0
 49 50  1  0  0  0
 49 53  1  0  0  0
 49 64  1  0  0  0
 49119  1  0  0  0
 50 51  1  0  0  0
 50120  1  0  0  0
 50121  1  0  0  0
 51 52  1  0  0  0
 51122  1  0  0  0
 51123  1  0  0  0
 52124  1  0  0  0
 52125  1  0  0  0
 53 54  1  0  0  0
 54 55  2  0  0  0
 54126  1  0  0  0
 55 57  1  0  0  0
 55127  1  0  0  0
 56 69  2  0  0  0
 57 58  2  0  0  0
 57128  1  0  0  0
 58129  1  0  0  0
 59 60  1  0  0  0
 59 61  1  0  0  0
 59 62  1  0  0  0
 60130  1  0  0  0
 60131  1  0  0  0
 60132  1  0  0  0
 61133  1  0  0  0
 61134  1  0  0  0
 61135  1  0  0  0
 62136  1  0  0  0
 62137  1  0  0  0
 62138  1  0  0  0
 63 65  1  0  0  0
 63139  1  0  0  0
 63140  1  0  0  0
 63141  1  0  0  0
 64142  1  0  0  0
 65143  1  0  0  0
 68 80  1  0  0  0
 71 72  2  0  0  0
 71 83  1  0  0  0
 71144  1  0  0  0
 72 81  1  0  0  0
 72 82  1  0  0  0
 73 74  1  0  0  0
 73 82  1  0  0  0
 73 83  2  0  0  0
 74145  1  0  0  0
 74146  1  0  0  0
 74147  1  0  0  0
 75148  1  0  0  0
 75149  1  0  0  0
 75150  1  0  0  0
 75 81  1  0  0  0
 76 77  1  0  0  0
 76 78  1  0  0  0
 76151  1  0  0  0
 76152  1  0  0  0
 77 79  1  0  0  0
 77153  1  0  0  0
 77154  1  0  0  0
 78 80  1  0  0  0
 78155  1  0  0  0
 78156  1  0  0  0
 79 82  1  0  0  0
 79157  1  0  0  0
 79158  1  0  0  0
 80159  1  0  0  0
 80160  1  0  0  0
 81 84  1  0  0  0
 81161  1  0  0  0
 83162  1  0  0  0
 84163  1  0  0  0
M  CHG  1  83   1
M  ISO  4   1 100  68 101  80 101  84 100
M  END
> <chiral flag>
0

> <version>
0

> <s_m_source_file>
/data/baiqing/PycharmProjects/Reinvent-master-3.2/result/LINK_invent/BTK/process_docking_weight1_custom_sum_contain_oxygen_bond_distance_aromatic_linkinvent_7_9_3/rearranged_h_0048.sdf

> <i_m_source_file_index>
15

> <r_mmod_Potential_Energy-OPLS-2005>
-71.3205413818359

> <r_mmod_Stretch_Energy-OPLS-2005>
58.2520980834961

> <r_mmod_Bend_Energy-OPLS-2005>
126.124145507812

> <r_mmod_Torsional_Energy-OPLS-2005>
261.717529296875

> <r_mmod_Improper_Torsional_Energy-OPLS-2005>
7.15595626831055

> <r_mmod_Van_der_Waal_Energy-OPLS-2005>
112.93775177002

> <r_mmod_Electrostatic_Energy-OPLS-2005>
-238.304428100586

> <r_mmod_Solvation_Energy-OPLS-2005>
-422.792572021484

> <b_mmod_Minimization_Converged-OPLS-2005>
0

> <r_mmod_RMS_Derivative-OPLS-2005>
4.06873464584351

$$$$
15
                    3D
 Structure written by MMmdl.
169177  0  0  1  0            999 V2000
  -30.7490  -14.3903   20.6365 C   0  0  0  0  0  0
  -30.4136  -12.2832   19.3962 C   0  0  0  0  0  0
  -29.4798  -12.5088   18.1917 C   0  0  0  0  0  0
  -28.0029  -12.3747   18.6115 C   0  0  0  0  0  0
  -27.6655  -13.2017   19.8811 C   0  0  2  0  0  0
  -28.7088  -12.9385   20.9901 C   0  0  0  0  0  0
  -25.2601  -13.8168   20.5692 C   0  0  0  0  0  0
  -24.1828  -13.0443   20.9184 C   0  0  0  0  0  0
  -24.6369  -11.6911   20.8732 C   0  0  0  0  0  0
  -23.9030  -10.4296   21.0409 C   0  0  0  0  0  0
  -24.3594   -9.4212   21.9183 C   0  0  0  0  0  0
  -23.6279   -8.2242   22.0757 C   0  0  0  0  0  0
  -22.4260   -8.0279   21.3544 C   0  0  0  0  0  0
  -21.9891   -9.0245   20.4637 C   0  0  0  0  0  0
  -22.7209  -10.2133   20.3049 C   0  0  0  0  0  0
  -21.6845   -6.0727   22.5277 C   0  0  0  0  0  0
  -21.4006   -6.5631   23.8213 C   0  0  0  0  0  0
  -21.3658   -5.6789   24.9180 C   0  0  0  0  0  0
  -21.6048   -4.3052   24.7229 C   0  0  0  0  0  0
  -21.8821   -3.8138   23.4349 C   0  0  0  0  0  0
  -21.9193   -4.6956   22.3405 C   0  0  0  0  0  0
  -22.7849  -13.5245   21.1863 C   0  0  0  0  0  0
  -22.1659   -4.2137   21.0983 F   0  0  0  0  0  0
  -21.5637   -3.4539   25.7743 F   0  0  0  0  0  0
  -30.0405  -13.2455   20.4448 N   0  0  0  0  0  0
  -26.3038  -12.9327   20.3402 N   0  0  0  0  0  0
  -25.9296  -11.6489   20.5769 N   0  0  0  0  0  0
  -22.0488  -12.8212   22.0418 N   0  0  0  0  0  0
  -25.4369  -15.1880   20.4094 N   0  0  0  0  0  0
  -31.8037  -14.6116   20.0335 O   0  0  0  0  0  0
  -21.6629   -6.8872   21.4240 O   0  0  0  0  0  0
  -22.3520  -14.5554   20.6741 O   0  0  0  0  0  0
  -24.6103  -31.8698   23.2112 C   0  0  0  0  0  0
  -25.9004  -32.4831   23.8399 C   0  0  1  0  0  0
  -27.2360  -27.4680   20.0944 C   0  0  0  0  0  0
  -25.5865  -33.8631   24.2339 N   0  0  0  0  0  0
  -23.3969  -30.4923   21.5519 C   0  0  2  0  0  0
  -24.8443  -28.9600   20.1168 C   0  0  0  0  0  0
  -22.7393  -29.4664   22.5012 C   0  0  0  0  0  0
  -18.0267  -28.1364   22.8498 C   0  0  0  0  0  0
  -24.1485  -36.7329   23.2638 C   0  0  0  0  0  0
  -25.9208  -30.8475   21.3575 C   0  0  0  0  0  0
  -26.0020  -29.4833   20.7069 C   0  0  0  0  0  0
  -27.2045  -28.7451   20.6903 C   0  0  0  0  0  0
  -26.0656  -26.9481   19.5027 C   0  0  0  0  0  0
  -24.8685  -27.6898   19.5127 C   0  0  0  0  0  0
  -23.6037  -29.8222   20.1671 C   0  0  0  0  0  0
  -25.4107  -36.3125   24.0334 C   0  0  1  0  0  0
  -20.5855  -28.3651   23.1328 C   0  0  2  0  0  0
  -20.6762  -26.9395   22.5419 C   0  0  0  0  0  0
  -19.5748  -26.6381   21.5210 C   0  0  0  0  0  0
  -18.1921  -26.7913   22.1616 C   0  0  0  0  0  0
  -19.1516  -28.8825   23.2907 C   0  0  0  0  0  0
  -18.9444  -30.1427   23.8923 C   0  0  0  0  0  0
  -17.6450  -30.6580   24.0560 C   0  0  0  0  0  0
  -25.9022  -34.9480   23.5139 C   0  0  0  0  0  0
  -16.5343  -29.9082   23.6316 C   0  0  0  0  0  0
  -16.7255  -28.6489   23.0354 C   0  0  0  0  0  0
  -26.4449  -31.6601   25.0710 C   0  0  0  0  0  0
  -25.3729  -31.3676   26.1465 C   0  0  0  0  0  0
  -27.0272  -30.3052   24.6042 C   0  0  0  0  0  0
  -27.6037  -32.4305   25.7468 C   0  0  0  0  0  0
  -27.5585  -37.1822   24.8461 C   0  0  0  0  0  0
  -21.4127  -29.3023   22.3743 N   0  0  0  0  0  0
  -26.4302  -37.3804   23.9397 N   0  0  0  0  0  0
  -24.6607  -31.0833   22.0994 N   0  0  0  0  0  0
  -23.4179  -28.8222   23.3055 O   0  0  0  0  0  0
  -28.4011  -26.7442   20.0732 O   0  0  0  0  0  0
  -26.5599  -34.8936   22.4710 O   0  0  0  0  0  0
  -23.5310  -32.1441   23.7534 O   0  0  0  0  0  0
  -29.0415  -22.3854   22.8453 C   0  0  0  0  0  0
  -29.5161  -23.7009   23.1050 C   0  0  0  0  0  0
  -30.1708  -21.6230   22.7350 C   0  0  0  0  0  0
  -32.6628  -22.1930   22.8485 C   0  0  0  0  0  0
  -32.7583  -17.4683   23.6966 C   0  0  0  0  0  0
  -28.7148  -24.9359   23.4171 C   0  0  0  0  0  0
  -30.3186  -20.1444   22.5368 C   0  0  0  0  0  0
  -30.2601  -15.5069   21.5750 C   0  0  0  0  0  0
  -28.8260  -26.0436   22.3567 C   0  0  0  0  0  0
  -30.3338  -19.3673   23.8676 C   0  0  0  0  0  0
  -31.2733  -15.7815   22.7147 C   0  0  0  0  0  0
  -30.3022  -17.8259   23.7282 C   0  0  0  0  0  0
  -28.4040  -25.6120   20.9415 C   0  0  0  0  0  0
  -30.8395  -23.7532   23.1159 N   0  0  0  0  0  0
  -31.2430  -22.4844   22.8858 N   0  0  0  0  0  0
  -31.4651  -17.2298   23.0092 N   0  3  1  0  0  0
  -31.4562  -12.3740   19.0874 H   0  0  0  0  0  0
  -30.3131  -11.2632   19.7714 H   0  0  0  0  0  0
  -29.7061  -11.7951   17.3990 H   0  0  0  0  0  0
  -29.6577  -13.4990   17.7693 H   0  0  0  0  0  0
  -27.8076  -11.3179   18.7984 H   0  0  0  0  0  0
  -27.3487  -12.6641   17.7888 H   0  0  0  0  0  0
  -27.7255  -14.2547   19.6066 H   0  0  0  0  0  0
  -28.6753  -11.8872   21.2812 H   0  0  0  0  0  0
  -28.4647  -13.4768   21.9020 H   0  0  0  0  0  0
  -25.2751   -9.5685   22.4744 H   0  0  0  0  0  0
  -23.9991   -7.4631   22.7468 H   0  0  0  0  0  0
  -21.0831   -8.8752   19.8935 H   0  0  0  0  0  0
  -22.3676  -10.9662   19.6141 H   0  0  0  0  0  0
  -21.1985   -7.6137   23.9706 H   0  0  0  0  0  0
  -21.1483   -6.0525   25.9084 H   0  0  0  0  0  0
  -22.0602   -2.7596   23.2857 H   0  0  0  0  0  0
  -22.4077  -11.9837   22.4751 H   0  0  0  0  0  0
  -21.1110  -13.1229   22.2649 H   0  0  0  0  0  0
  -24.6829  -15.8570   20.5238 H   0  0  0  0  0  0
  -26.2997  -15.6165   20.0957 H   0  0  0  0  0  0
  -26.7082  -32.5570   23.1178 H   0  0  0  0  0  0
  -24.9984  -33.9796   25.0462 H   0  0  0  0  0  0
  -22.6834  -31.3077   21.4141 H   0  0  0  0  0  0
  -23.3739  -35.9673   23.3321 H   0  0  0  0  0  0
  -24.3577  -36.8925   22.2048 H   0  0  0  0  0  0
  -23.7247  -37.6544   23.6644 H   0  0  0  0  0  0
  -26.0233  -31.6150   20.5893 H   0  0  0  0  0  0
  -26.8107  -30.9043   21.9722 H   0  0  0  0  0  0
  -28.1031  -29.1459   21.1396 H   0  0  0  0  0  0
  -26.0826  -25.9748   19.0323 H   0  0  0  0  0  0
  -23.9783  -27.2823   19.0539 H   0  0  0  0  0  0
  -23.7051  -30.5944   19.4036 H   0  0  0  0  0  0
  -22.7286  -29.2370   19.8782 H   0  0  0  0  0  0
  -25.1290  -36.2002   25.0827 H   0  0  0  0  0  0
  -20.9938  -28.3213   24.1452 H   0  0  0  0  0  0
  -20.5670  -26.2259   23.3599 H   0  0  0  0  0  0
  -21.6635  -26.7451   22.1217 H   0  0  0  0  0  0
  -19.6911  -25.6295   21.1226 H   0  0  0  0  0  0
  -19.6685  -27.3199   20.6745 H   0  0  0  0  0  0
  -17.4195  -26.6659   21.4009 H   0  0  0  0  0  0
  -18.0317  -26.0046   22.9000 H   0  0  0  0  0  0
  -19.7925  -30.7214   24.2327 H   0  0  0  0  0  0
  -17.5016  -31.6272   24.5139 H   0  0  0  0  0  0
  -15.5347  -30.2995   23.7627 H   0  0  0  0  0  0
  -15.8652  -28.0808   22.7076 H   0  0  0  0  0  0
  -24.5902  -30.7028   25.7793 H   0  0  0  0  0  0
  -24.8916  -32.2815   26.4952 H   0  0  0  0  0  0
  -25.8087  -30.8816   27.0202 H   0  0  0  0  0  0
  -26.2800  -29.6819   24.1115 H   0  0  0  0  0  0
  -27.4081  -29.7267   25.4466 H   0  0  0  0  0  0
  -27.8614  -30.4382   23.9153 H   0  0  0  0  0  0
  -27.2671  -33.3593   26.2084 H   0  0  0  0  0  0
  -28.3826  -32.6878   25.0278 H   0  0  0  0  0  0
  -28.0730  -31.8401   26.5349 H   0  0  0  0  0  0
  -28.2618  -38.0110   24.7511 H   0  0  0  0  0  0
  -28.1074  -36.2639   24.6296 H   0  0  0  0  0  0
  -27.2299  -37.1482   25.8868 H   0  0  0  0  0  0
  -20.9280  -29.8736   21.6964 H   0  0  0  0  0  0
  -26.0198  -38.2891   24.1391 H   0  0  0  0  0  0
  -28.0177  -22.0429   22.7897 H   0  0  0  0  0  0
  -32.9145  -21.4814   23.6343 H   0  0  0  0  0  0
  -33.2478  -23.1012   23.0000 H   0  0  0  0  0  0
  -32.9250  -21.7649   21.8814 H   0  0  0  0  0  0
  -33.5892  -17.0555   23.1228 H   0  0  0  0  0  0
  -32.7706  -17.0036   24.6830 H   0  0  0  0  0  0
  -32.9662  -18.5303   23.8182 H   0  0  0  0  0  0
  -29.0294  -25.3374   24.3823 H   0  0  0  0  0  0
  -27.6641  -24.6696   23.5404 H   0  0  0  0  0  0
  -31.2276  -19.9391   21.9726 H   0  0  0  0  0  0
  -29.4956  -19.7871   21.9164 H   0  0  0  0  0  0
  -30.1730  -16.3881   20.9386 H   0  0  0  0  0  0
  -29.2615  -15.3644   21.9747 H   0  0  0  0  0  0
  -29.8505  -26.4144   22.3264 H   0  0  0  0  0  0
  -28.2110  -26.8821   22.6841 H   0  0  0  0  0  0
  -29.4413  -19.6551   24.4245 H   0  0  0  0  0  0
  -31.1656  -19.6941   24.4911 H   0  0  0  0  0  0
  -32.2439  -15.3590   22.4480 H   0  0  0  0  0  0
  -30.9749  -15.2476   23.6179 H   0  0  0  0  0  0
  -29.3774  -17.5452   23.2239 H   0  0  0  0  0  0
  -30.2445  -17.3816   24.7240 H   0  0  0  0  0  0
  -27.4309  -25.1186   20.9675 H   0  0  0  0  0  0
  -29.1092  -24.8783   20.5498 H   0  0  0  0  0  0
  -31.5447  -17.6852   22.1122 H   0  0  0  0  0  0
  1 25  1  0  0  0
  1 30  2  0  0  0
  1 78  1  0  0  0
  2  3  1  0  0  0
  2 25  1  0  0  0
  2 87  1  0  0  0
  2 88  1  0  0  0
  3  4  1  0  0  0
  3 89  1  0  0  0
  3 90  1  0  0  0
  4  5  1  0  0  0
  4 91  1  0  0  0
  4 92  1  0  0  0
  5  6  1  0  0  0
  5 26  1  0  0  0
  5 93  1  0  0  0
  6 25  1  0  0  0
  6 94  1  0  0  0
  6 95  1  0  0  0
  7  8  2  0  0  0
  7 26  1  0  0  0
  7 29  1  0  0  0
  8  9  1  0  0  0
  8 22  1  0  0  0
  9 10  1  0  0  0
  9 27  2  0  0  0
 10 11  2  0  0  0
 10 15  1  0  0  0
 11 12  1  0  0  0
 11 96  1  0  0  0
 12 13  2  0  0  0
 12 97  1  0  0  0
 13 14  1  0  0  0
 13 31  1  0  0  0
 14 15  2  0  0  0
 14 98  1  0  0  0
 15 99  1  0  0  0
 16 17  2  0  0  0
 16 21  1  0  0  0
 16 31  1  0  0  0
 17 18  1  0  0  0
 17100  1  0  0  0
 18 19  2  0  0  0
 18101  1  0  0  0
 19 20  1  0  0  0
 19 24  1  0  0  0
 20 21  2  0  0  0
 20102  1  0  0  0
 21 23  1  0  0  0
 22 28  1  0  0  0
 22 32  2  0  0  0
 26 27  1  0  0  0
 28103  1  0  0  0
 28104  1  0  0  0
 29105  1  0  0  0
 29106  1  0  0  0
 33 34  1  0  0  0
 33 66  1  0  0  0
 33 70  2  0  0  0
 34 36  1  0  0  0
 34 59  1  0  0  0
 34107  1  0  0  0
 35 44  2  0  0  0
 35 45  1  0  0  0
 35 68  1  0  0  0
 36 56  1  0  0  0
 36108  1  0  0  0
 37 39  1  0  0  0
 37 47  1  0  0  0
 37 66  1  0  0  0
 37109  1  0  0  0
 38 43  2  0  0  0
 38 46  1  0  0  0
 38 47  1  0  0  0
 39 64  1  0  0  0
 39 67  2  0  0  0
 40 52  1  0  0  0
 40 53  2  0  0  0
 40 58  1  0  0  0
 41110  1  0  0  0
 41111  1  0  0  0
 41112  1  0  0  0
 41 48  1  0  0  0
 42 43  1  0  0  0
 42 66  1  0  0  0
 42113  1  0  0  0
 42114  1  0  0  0
 43 44  1  0  0  0
 44115  1  0  0  0
 45 46  2  0  0  0
 45116  1  0  0  0
 46117  1  0  0  0
 47118  1  0  0  0
 47119  1  0  0  0
 48 56  1  0  0  0
 48 65  1  0  0  0
 48120  1  0  0  0
 49 50  1  0  0  0
 49 53  1  0  0  0
 49 64  1  0  0  0
 49121  1  0  0  0
 50 51  1  0  0  0
 50122  1  0  0  0
 50123  1  0  0  0
 51 52  1  0  0  0
 51124  1  0  0  0
 51125  1  0  0  0
 52126  1  0  0  0
 52127  1  0  0  0
 53 54  1  0  0  0
 54 55  2  0  0  0
 54128  1  0  0  0
 55 57  1  0  0  0
 55129  1  0  0  0
 56 69  2  0  0  0
 57 58  2  0  0  0
 57130  1  0  0  0
 58131  1  0  0  0
 59 60  1  0  0  0
 59 61  1  0  0  0
 59 62  1  0  0  0
 60132  1  0  0  0
 60133  1  0  0  0
 60134  1  0  0  0
 61135  1  0  0  0
 61136  1  0  0  0
 61137  1  0  0  0
 62138  1  0  0  0
 62139  1  0  0  0
 62140  1  0  0  0
 63 65  1  0  0  0
 63141  1  0  0  0
 63142  1  0  0  0
 63143  1  0  0  0
 64144  1  0  0  0
 65145  1  0  0  0
 68 83  1  0  0  0
 71 72  1  0  0  0
 71 73  2  0  0  0
 71146  1  0  0  0
 72 76  1  0  0  0
 72 84  2  0  0  0
 73 77  1  0  0  0
 73 85  1  0  0  0
 74 85  1  0  0  0
 74147  1  0  0  0
 74148  1  0  0  0
 74149  1  0  0  0
 75150  1  0  0  0
 75151  1  0  0  0
 75152  1  0  0  0
 75 86  1  0  0  0
 76 79  1  0  0  0
 76153  1  0  0  0
 76154  1  0  0  0
 77 80  1  0  0  0
 77155  1  0  0  0
 77156  1  0  0  0
 78 81  1  0  0  0
 78157  1  0  0  0
 78158  1  0  0  0
 79 83  1  0  0  0
 79159  1  0  0  0
 79160  1  0  0  0
 80 82  1  0  0  0
 80161  1  0  0  0
 80162  1  0  0  0
 81 86  1  0  0  0
 81163  1  0  0  0
 81164  1  0  0  0
 82 86  1  0  0  0
 82165  1  0  0  0
 82166  1  0  0  0
 83167  1  0  0  0
 83168  1  0  0  0
 84 85  1  0  0  0
 86169  1  0  0  0
M  CHG  1  86   1
M  ISO  4   1 100  68 101  78 100  83 101
M  END
> <chiral flag>
0

> <version>
0

> <s_m_source_file>
/data/baiqing/PycharmProjects/Reinvent-master-3.2/result/LINK_invent/BTK/process_docking_weight1_custom_sum_contain_oxygen_bond_distance_aromatic_linkinvent_7_9_3/rearranged_h_0048.sdf

> <i_m_source_file_index>
16

> <r_mmod_Potential_Energy-OPLS-2005>
-273.064758300781

> <r_mmod_Stretch_Energy-OPLS-2005>
32.2337455749512

> <r_mmod_Bend_Energy-OPLS-2005>
97.1745300292969

> <r_mmod_Torsional_Energy-OPLS-2005>
201.325439453125

> <r_mmod_Improper_Torsional_Energy-OPLS-2005>
1.93708527088165

> <r_mmod_Van_der_Waal_Energy-OPLS-2005>
126.011947631836

> <r_mmod_Electrostatic_Energy-OPLS-2005>
-277.396881103516

> <r_mmod_Solvation_Energy-OPLS-2005>
-461.716461181641

> <b_mmod_Minimization_Converged-OPLS-2005>
0

> <r_mmod_RMS_Derivative-OPLS-2005>
1.93864178657532

$$$$
16
                    3D
 Structure written by MMmdl.
161169  0  0  1  0            999 V2000
  -30.6602  -14.7435   20.5161 C   0  0  0  0  0  0
  -30.4248  -12.4631   19.4977 C   0  0  0  0  0  0
  -29.5128  -12.5264   18.2526 C   0  0  0  0  0  0
  -28.0359  -12.3481   18.6495 C   0  0  0  0  0  0
  -27.6376  -13.2483   19.8488 C   0  0  2  0  0  0
  -28.6791  -13.2000   20.9895 C   0  0  0  0  0  0
  -25.2357  -13.8164   20.5587 C   0  0  0  0  0  0
  -24.1733  -13.0391   20.9232 C   0  0  0  0  0  0
  -24.6405  -11.6893   20.8787 C   0  0  0  0  0  0
  -23.9118  -10.4276   21.0443 C   0  0  0  0  0  0
  -24.3672   -9.4187   21.9218 C   0  0  0  0  0  0
  -23.6331   -8.2232   22.0772 C   0  0  0  0  0  0
  -22.4313   -8.0285   21.3566 C   0  0  0  0  0  0
  -21.9957   -9.0249   20.4658 C   0  0  0  0  0  0
  -22.7289  -10.2121   20.3064 C   0  0  0  0  0  0
  -21.6833   -6.0742   22.5293 C   0  0  0  0  0  0
  -21.3999   -6.5638   23.8225 C   0  0  0  0  0  0
  -21.3668   -5.6794   24.9185 C   0  0  0  0  0  0
  -21.6062   -4.3058   24.7232 C   0  0  0  0  0  0
  -21.8814   -3.8145   23.4348 C   0  0  0  0  0  0
  -21.9195   -4.6974   22.3414 C   0  0  0  0  0  0
  -22.7733  -13.5143   21.1897 C   0  0  0  0  0  0
  -22.1661   -4.2159   21.0992 F   0  0  0  0  0  0
  -21.5659   -3.4545   25.7759 F   0  0  0  0  0  0
  -29.9969  -13.5319   20.4351 N   0  0  0  0  0  0
  -26.2899  -12.9460   20.3264 N   0  0  0  0  0  0
  -25.9349  -11.6585   20.5788 N   0  0  0  0  0  0
  -22.0400  -12.8145   22.0467 N   0  0  0  0  0  0
  -25.3749  -15.1862   20.3767 N   0  0  0  0  0  0
  -31.7883  -14.8183   20.0243 O   0  0  0  0  0  0
  -21.6651   -6.8890   21.4259 O   0  0  0  0  0  0
  -22.3397  -14.5449   20.6746 O   0  0  0  0  0  0
  -24.6270  -31.8597   23.1978 C   0  0  0  0  0  0
  -25.9110  -32.4783   23.8311 C   0  0  1  0  0  0
  -27.2260  -27.2928   20.1340 C   0  0  0  0  0  0
  -25.5944  -33.8585   24.2265 N   0  0  0  0  0  0
  -23.4213  -30.4819   21.5418 C   0  0  2  0  0  0
  -24.8715  -28.9331   20.1048 C   0  0  0  0  0  0
  -22.7491  -29.4615   22.4906 C   0  0  0  0  0  0
  -18.0294  -28.1402   22.8464 C   0  0  0  0  0  0
  -24.1510  -36.7267   23.2630 C   0  0  0  0  0  0
  -25.9617  -30.7825   21.3743 C   0  0  0  0  0  0
  -26.0375  -29.4072   20.7186 C   0  0  0  0  0  0
  -27.2166  -28.5981   20.7251 C   0  0  0  0  0  0
  -26.0380  -26.8828   19.4857 C   0  0  0  0  0  0
  -24.8760  -27.6783   19.4759 C   0  0  0  0  0  0
  -23.6369  -29.8138   20.1573 C   0  0  0  0  0  0
  -25.4148  -36.3082   24.0324 C   0  0  1  0  0  0
  -20.5894  -28.3713   23.1274 C   0  0  2  0  0  0
  -20.6806  -26.9438   22.5407 C   0  0  0  0  0  0
  -19.5787  -26.6390   21.5204 C   0  0  0  0  0  0
  -18.1962  -26.7945   22.1606 C   0  0  0  0  0  0
  -19.1549  -28.8864   23.2865 C   0  0  0  0  0  0
  -18.9472  -30.1465   23.8885 C   0  0  0  0  0  0
  -17.6479  -30.6606   24.0562 C   0  0  0  0  0  0
  -25.9080  -34.9463   23.5095 C   0  0  0  0  0  0
  -16.5368  -29.9103   23.6329 C   0  0  0  0  0  0
  -16.7283  -28.6532   23.0324 C   0  0  0  0  0  0
  -26.4473  -31.6573   25.0697 C   0  0  0  0  0  0
  -25.3680  -31.3760   26.1399 C   0  0  0  0  0  0
  -27.0268  -30.2982   24.6115 C   0  0  0  0  0  0
  -27.6039  -32.4275   25.7492 C   0  0  0  0  0  0
  -27.5612  -37.1807   24.8476 C   0  0  0  0  0  0
  -21.4191  -29.3058   22.3660 N   0  0  0  0  0  0
  -26.4318  -37.3786   23.9412 N   0  0  0  0  0  0
  -24.6874  -31.0582   22.0949 N   0  0  0  0  0  0
  -23.4200  -28.8168   23.3009 O   0  0  0  0  0  0
  -28.3337  -26.4231   20.2052 O   0  0  0  0  0  0
  -26.5644  -34.8936   22.4649 O   0  0  0  0  0  0
  -23.5431  -32.1388   23.7320 O   0  0  0  0  0  0
  -28.1697  -20.5301   21.6291 C   0  0  0  0  0  0
  -27.9772  -21.8561   21.5944 C   0  0  0  0  0  0
  -29.6750  -21.3660   20.2742 C   0  0  0  0  0  0
  -27.0327  -22.6852   22.4553 C   0  0  0  0  0  0
  -29.6712  -17.3184   18.9670 C   0  0  0  0  0  0
  -27.9628  -17.3312   20.7724 C   0  0  0  0  0  0
  -30.1294  -16.0904   21.2290 C   0  0  0  0  0  0
  -29.1973  -23.9222   20.6213 C   0  0  0  0  0  0
  -30.0028  -18.8523   20.9947 C   0  0  0  0  0  0
  -28.1116  -24.9523   20.0513 C   0  0  0  0  0  0
  -29.4697  -17.3995   20.4933 C   0  0  0  0  0  0
  -29.2370  -20.1722   20.8113 N   0  0  0  0  0  0
  -28.9024  -22.4235   20.7185 N   0  0  0  0  0  0
  -30.6747  -21.4884   19.5603 O   0  0  0  0  0  0
  -31.4682  -12.5625   19.1971 H   0  0  0  0  0  0
  -30.3567  -11.4873   19.9843 H   0  0  0  0  0  0
  -29.7964  -11.7507   17.5412 H   0  0  0  0  0  0
  -29.6452  -13.4818   17.7412 H   0  0  0  0  0  0
  -27.8871  -11.2975   18.9016 H   0  0  0  0  0  0
  -27.3864  -12.5530   17.7979 H   0  0  0  0  0  0
  -27.6282  -14.2672   19.4616 H   0  0  0  0  0  0
  -28.6978  -12.2140   21.4548 H   0  0  0  0  0  0
  -28.3942  -13.8995   21.7735 H   0  0  0  0  0  0
  -25.2811   -9.5643   22.4803 H   0  0  0  0  0  0
  -24.0066   -7.4589   22.7451 H   0  0  0  0  0  0
  -21.0920   -8.8756   19.8933 H   0  0  0  0  0  0
  -22.3778  -10.9676   19.6179 H   0  0  0  0  0  0
  -21.1956   -7.6136   23.9747 H   0  0  0  0  0  0
  -21.1518   -6.0511   25.9107 H   0  0  0  0  0  0
  -22.0596   -2.7619   23.2846 H   0  0  0  0  0  0
  -22.4020  -11.9817   22.4881 H   0  0  0  0  0  0
  -21.1006  -13.1142   22.2694 H   0  0  0  0  0  0
  -24.5916  -15.8239   20.4644 H   0  0  0  0  0  0
  -26.2067  -15.6388   20.0227 H   0  0  0  0  0  0
  -26.7175  -32.5465   23.1068 H   0  0  0  0  0  0
  -25.0122  -33.9728   25.0414 H   0  0  0  0  0  0
  -22.7156  -31.3022   21.3972 H   0  0  0  0  0  0
  -23.3825  -35.9560   23.3286 H   0  0  0  0  0  0
  -24.3609  -36.8890   22.2049 H   0  0  0  0  0  0
  -23.7213  -37.6447   23.6649 H   0  0  0  0  0  0
  -26.0936  -31.5435   20.6033 H   0  0  0  0  0  0
  -26.8422  -30.8363   22.0045 H   0  0  0  0  0  0
  -28.1043  -28.9562   21.2285 H   0  0  0  0  0  0
  -25.9817  -25.9253   18.9909 H   0  0  0  0  0  0
  -23.9864  -27.3097   18.9866 H   0  0  0  0  0  0
  -23.7506  -30.5906   19.4007 H   0  0  0  0  0  0
  -22.7588  -29.2401   19.8517 H   0  0  0  0  0  0
  -25.1323  -36.1926   25.0827 H   0  0  0  0  0  0
  -20.9976  -28.3314   24.1388 H   0  0  0  0  0  0
  -20.5731  -26.2331   23.3620 H   0  0  0  0  0  0
  -21.6684  -26.7496   22.1190 H   0  0  0  0  0  0
  -19.6989  -25.6281   21.1271 H   0  0  0  0  0  0
  -19.6755  -27.3175   20.6716 H   0  0  0  0  0  0
  -17.4233  -26.6657   21.4002 H   0  0  0  0  0  0
  -18.0388  -26.0090   22.9011 H   0  0  0  0  0  0
  -19.7945  -30.7281   24.2268 H   0  0  0  0  0  0
  -17.5032  -31.6284   24.5161 H   0  0  0  0  0  0
  -15.5370  -30.3008   23.7660 H   0  0  0  0  0  0
  -15.8683  -28.0869   22.7014 H   0  0  0  0  0  0
  -24.5831  -30.7159   25.7704 H   0  0  0  0  0  0
  -24.8924  -32.2963   26.4804 H   0  0  0  0  0  0
  -25.7969  -30.8919   27.0187 H   0  0  0  0  0  0
  -26.2814  -29.6823   24.1095 H   0  0  0  0  0  0
  -27.3889  -29.7156   25.4594 H   0  0  0  0  0  0
  -27.8735  -30.4279   23.9374 H   0  0  0  0  0  0
  -27.2633  -33.3554   26.2099 H   0  0  0  0  0  0
  -28.3863  -32.6844   25.0337 H   0  0  0  0  0  0
  -28.0681  -31.8362   26.5396 H   0  0  0  0  0  0
  -28.2609  -38.0116   24.7543 H   0  0  0  0  0  0
  -28.1112  -36.2651   24.6270 H   0  0  0  0  0  0
  -27.2327  -37.1415   25.8872 H   0  0  0  0  0  0
  -20.9373  -29.8746   21.6833 H   0  0  0  0  0  0
  -26.0204  -38.2868   24.1437 H   0  0  0  0  0  0
  -27.6914  -19.7880   22.2515 H   0  0  0  0  0  0
  -27.0895  -22.3477   23.4918 H   0  0  0  0  0  0
  -26.0003  -22.5669   22.1239 H   0  0  0  0  0  0
  -27.2674  -23.7463   22.4657 H   0  0  0  0  0  0
  -29.2083  -16.4258   18.5436 H   0  0  0  0  0  0
  -30.7294  -17.2871   18.7058 H   0  0  0  0  0  0
  -29.2370  -18.1814   18.4602 H   0  0  0  0  0  0
  -27.6023  -16.3413   20.5189 H   0  0  0  0  0  0
  -27.3928  -18.0599   20.1928 H   0  0  0  0  0  0
  -27.7358  -17.4841   21.8284 H   0  0  0  0  0  0
  -29.5069  -15.8043   22.0756 H   0  0  0  0  0  0
  -31.0262  -16.4757   21.7143 H   0  0  0  0  0  0
  -29.4736  -24.2507   21.6223 H   0  0  0  0  0  0
  -30.1041  -24.0504   20.0300 H   0  0  0  0  0  0
  -31.0018  -19.0009   20.5772 H   0  0  0  0  0  0
  -30.1737  -18.7773   22.0699 H   0  0  0  0  0  0
  -27.1573  -24.7063   20.5091 H   0  0  0  0  0  0
  -27.9924  -24.7430   18.9877 H   0  0  0  0  0  0
  1 25  1  0  0  0
  1 30  2  0  0  0
  1 77  1  0  0  0
  2  3  1  0  0  0
  2 25  1  0  0  0
  2 85  1  0  0  0
  2 86  1  0  0  0
  3  4  1  0  0  0
  3 87  1  0  0  0
  3 88  1  0  0  0
  4  5  1  0  0  0
  4 89  1  0  0  0
  4 90  1  0  0  0
  5  6  1  0  0  0
  5 26  1  0  0  0
  5 91  1  0  0  0
  6 25  1  0  0  0
  6 92  1  0  0  0
  6 93  1  0  0  0
  7  8  2  0  0  0
  7 26  1  0  0  0
  7 29  1  0  0  0
  8  9  1  0  0  0
  8 22  1  0  0  0
  9 10  1  0  0  0
  9 27  2  0  0  0
 10 11  2  0  0  0
 10 15  1  0  0  0
 11 12  1  0  0  0
 11 94  1  0  0  0
 12 13  2  0  0  0
 12 95  1  0  0  0
 13 14  1  0  0  0
 13 31  1  0  0  0
 14 15  2  0  0  0
 14 96  1  0  0  0
 15 97  1  0  0  0
 16 17  2  0  0  0
 16 21  1  0  0  0
 16 31  1  0  0  0
 17 18  1  0  0  0
 17 98  1  0  0  0
 18 19  2  0  0  0
 18 99  1  0  0  0
 19 20  1  0  0  0
 19 24  1  0  0  0
 20 21  2  0  0  0
 20100  1  0  0  0
 21 23  1  0  0  0
 22 28  1  0  0  0
 22 32  2  0  0  0
 26 27  1  0  0  0
 28101  1  0  0  0
 28102  1  0  0  0
 29103  1  0  0  0
 29104  1  0  0  0
 33 34  1  0  0  0
 33 66  1  0  0  0
 33 70  2  0  0  0
 34 36  1  0  0  0
 34 59  1  0  0  0
 34105  1  0  0  0
 35 44  2  0  0  0
 35 45  1  0  0  0
 35 68  1  0  0  0
 36 56  1  0  0  0
 36106  1  0  0  0
 37 39  1  0  0  0
 37 47  1  0  0  0
 37 66  1  0  0  0
 37107  1  0  0  0
 38 43  2  0  0  0
 38 46  1  0  0  0
 38 47  1  0  0  0
 39 64  1  0  0  0
 39 67  2  0  0  0
 40 52  1  0  0  0
 40 53  2  0  0  0
 40 58  1  0  0  0
 41108  1  0  0  0
 41109  1  0  0  0
 41110  1  0  0  0
 41 48  1  0  0  0
 42 43  1  0  0  0
 42 66  1  0  0  0
 42111  1  0  0  0
 42112  1  0  0  0
 43 44  1  0  0  0
 44113  1  0  0  0
 45 46  2  0  0  0
 45114  1  0  0  0
 46115  1  0  0  0
 47116  1  0  0  0
 47117  1  0  0  0
 48 56  1  0  0  0
 48 65  1  0  0  0
 48118  1  0  0  0
 49 50  1  0  0  0
 49 53  1  0  0  0
 49 64  1  0  0  0
 49119  1  0  0  0
 50 51  1  0  0  0
 50120  1  0  0  0
 50121  1  0  0  0
 51 52  1  0  0  0
 51122  1  0  0  0
 51123  1  0  0  0
 52124  1  0  0  0
 52125  1  0  0  0
 53 54  1  0  0  0
 54 55  2  0  0  0
 54126  1  0  0  0
 55 57  1  0  0  0
 55127  1  0  0  0
 56 69  2  0  0  0
 57 58  2  0  0  0
 57128  1  0  0  0
 58129  1  0  0  0
 59 60  1  0  0  0
 59 61  1  0  0  0
 59 62  1  0  0  0
 60130  1  0  0  0
 60131  1  0  0  0
 60132  1  0  0  0
 61133  1  0  0  0
 61134  1  0  0  0
 61135  1  0  0  0
 62136  1  0  0  0
 62137  1  0  0  0
 62138  1  0  0  0
 63 65  1  0  0  0
 63139  1  0  0  0
 63140  1  0  0  0
 63141  1  0  0  0
 64142  1  0  0  0
 65143  1  0  0  0
 68 80  1  0  0  0
 71 72  2  0  0  0
 71 82  1  0  0  0
 71144  1  0  0  0
 72 74  1  0  0  0
 72 83  1  0  0  0
 73 82  1  0  0  0
 73 83  1  0  0  0
 73 84  2  0  0  0
 74145  1  0  0  0
 74146  1  0  0  0
 74147  1  0  0  0
 75148  1  0  0  0
 75149  1  0  0  0
 75150  1  0  0  0
 75 81  1  0  0  0
 76 81  1  0  0  0
 76151  1  0  0  0
 76152  1  0  0  0
 76153  1  0  0  0
 77 81  1  0  0  0
 77154  1  0  0  0
 77155  1  0  0  0
 78 80  1  0  0  0
 78 83  1  0  0  0
 78156  1  0  0  0
 78157  1  0  0  0
 79 81  1  0  0  0
 79 82  1  0  0  0
 79158  1  0  0  0
 79159  1  0  0  0
 80160  1  0  0  0
 80161  1  0  0  0
M  ISO  4   1 100  68 101  77 100  80 101
M  END
> <chiral flag>
0

> <version>
0

> <s_m_source_file>
/data/baiqing/PycharmProjects/Reinvent-master-3.2/result/LINK_invent/BTK/process_docking_weight1_custom_sum_contain_oxygen_bond_distance_aromatic_linkinvent_7_9_3/rearranged_h_0048.sdf

> <i_m_source_file_index>
17

> <r_mmod_Potential_Energy-OPLS-2005>
313.504455566406

> <r_mmod_Stretch_Energy-OPLS-2005>
123.595062255859

> <r_mmod_Bend_Energy-OPLS-2005>
272.680999755859

> <r_mmod_Torsional_Energy-OPLS-2005>
264.369232177734

> <r_mmod_Improper_Torsional_Energy-OPLS-2005>
4.63614940643311

> <r_mmod_Van_der_Waal_Energy-OPLS-2005>
118.286293029785

> <r_mmod_Electrostatic_Energy-OPLS-2005>
-339.974426269531

> <r_mmod_Solvation_Energy-OPLS-2005>
-206.747055053711

> <b_mmod_Minimization_Converged-OPLS-2005>
0

> <r_mmod_RMS_Derivative-OPLS-2005>
4.33188915252686

$$$$
17
                    3D
 Structure written by MMmdl.
147154  0  0  1  0            999 V2000
  -30.1893  -15.8817   20.3158 C   0  0  0  0  0  0
  -30.4153  -13.2534   19.5661 C   0  0  0  0  0  0
  -29.5661  -12.7342   18.3598 C   0  0  0  0  0  0
  -28.1543  -12.3227   18.7986 C   0  0  0  0  0  0
  -27.5930  -13.3359   19.8168 C   0  0  2  0  0  0
  -28.5939  -13.7335   20.9320 C   0  0  0  0  0  0
  -25.2276  -13.8301   20.5814 C   0  0  0  0  0  0
  -24.1695  -13.0417   20.9283 C   0  0  0  0  0  0
  -24.6445  -11.6947   20.8745 C   0  0  0  0  0  0
  -23.9151  -10.4286   21.0377 C   0  0  0  0  0  0
  -24.3673   -9.4202   21.9170 C   0  0  0  0  0  0
  -23.6324   -8.2250   22.0752 C   0  0  0  0  0  0
  -22.4302   -8.0291   21.3545 C   0  0  0  0  0  0
  -21.9954   -9.0267   20.4641 C   0  0  0  0  0  0
  -22.7309  -10.2131   20.3038 C   0  0  0  0  0  0
  -21.6861   -6.0744   22.5280 C   0  0  0  0  0  0
  -21.4020   -6.5644   23.8214 C   0  0  0  0  0  0
  -21.3661   -5.6795   24.9174 C   0  0  0  0  0  0
  -21.6044   -4.3057   24.7223 C   0  0  0  0  0  0
  -21.8818   -3.8151   23.4343 C   0  0  0  0  0  0
  -21.9195   -4.6970   22.3400 C   0  0  0  0  0  0
  -22.7702  -13.5131   21.1920 C   0  0  0  0  0  0
  -22.1663   -4.2156   21.0978 F   0  0  0  0  0  0
  -21.5627   -3.4539   25.7734 F   0  0  0  0  0  0
  -29.7422  -14.4491   20.2972 N   0  0  0  0  0  0
  -26.2778  -12.9705   20.3264 N   0  0  0  0  0  0
  -25.9409  -11.6743   20.5679 N   0  0  0  0  0  0
  -22.0380  -12.8104   22.0479 N   0  0  0  0  0  0
  -25.3791  -15.2039   20.4285 N   0  0  0  0  0  0
  -31.4106  -15.7812   20.0599 O   0  0  0  0  0  0
  -21.6652   -6.8895   21.4246 O   0  0  0  0  0  0
  -22.3364  -14.5428   20.6762 O   0  0  0  0  0  0
  -24.6992  -31.7797   23.1366 C   0  0  0  0  0  0
  -25.9494  -32.4365   23.7977 C   0  0  1  0  0  0
  -27.2396  -26.5347   20.2277 C   0  0  0  0  0  0
  -25.6003  -33.8200   24.1847 N   0  0  0  0  0  0
  -23.5340  -30.3727   21.4936 C   0  0  2  0  0  0
  -24.9956  -28.6785   20.1179 C   0  0  0  0  0  0
  -22.7839  -29.4203   22.4655 C   0  0  0  0  0  0
  -18.0349  -28.1431   22.8445 C   0  0  0  0  0  0
  -24.1497  -36.7109   23.2658 C   0  0  0  0  0  0
  -26.1206  -30.4558   21.4280 C   0  0  0  0  0  0
  -26.1846  -29.0023   20.7805 C   0  0  0  0  0  0
  -27.2790  -27.9617   20.8020 C   0  0  0  0  0  0
  -26.0194  -26.4654   19.4953 C   0  0  0  0  0  0
  -24.9625  -27.4386   19.4509 C   0  0  0  0  0  0
  -23.7979  -29.6531   20.1358 C   0  0  0  0  0  0
  -25.4154  -36.2835   24.0269 C   0  0  1  0  0  0
  -20.5992  -28.3798   23.1110 C   0  0  2  0  0  0
  -20.6805  -26.9441   22.5408 C   0  0  0  0  0  0
  -19.5785  -26.6365   21.5219 C   0  0  0  0  0  0
  -18.1967  -26.7955   22.1616 C   0  0  0  0  0  0
  -19.1619  -28.8943   23.2753 C   0  0  0  0  0  0
  -18.9522  -30.1522   23.8807 C   0  0  0  0  0  0
  -17.6509  -30.6608   24.0547 C   0  0  0  0  0  0
  -25.9144  -34.9230   23.4909 C   0  0  0  0  0  0
  -16.5398  -29.9087   23.6355 C   0  0  0  0  0  0
  -16.7327  -28.6511   23.0369 C   0  0  0  0  0  0
  -26.4620  -31.6475   25.0673 C   0  0  0  0  0  0
  -25.3641  -31.3843   26.1257 C   0  0  0  0  0  0
  -27.0581  -30.2794   24.6701 C   0  0  0  0  0  0
  -27.6035  -32.4379   25.7500 C   0  0  0  0  0  0
  -27.5559  -37.1711   24.8467 C   0  0  0  0  0  0
  -21.4470  -29.3009   22.3407 N   0  0  0  0  0  0
  -26.4264  -37.3616   23.9407 N   0  0  0  0  0  0
  -24.8098  -30.9072   22.0713 N   0  0  0  0  0  0
  -23.4203  -28.7835   23.3083 O   0  0  0  0  0  0
  -28.1813  -25.2430   20.3527 O   0  0  0  0  0  0
  -26.5811  -34.8843   22.4545 O   0  0  0  0  0  0
  -23.5976  -32.0951   23.6212 O   0  0  0  0  0  0
  -27.9701  -17.3663   20.9780 C   0  0  0  0  0  0
  -30.1586  -17.9855   21.9952 C   0  0  0  0  0  0
  -28.8178  -21.5490   20.5696 C   0  0  0  0  0  0
  -29.2351  -19.6140   20.0185 C   0  0  0  0  0  0
  -28.2041  -23.4253   20.0005 C   0  0  0  0  0  0
  -29.4391  -17.6818   20.6691 C   0  0  0  0  0  0
  -31.3932  -13.5415   19.1802 H   0  0  0  0  0  0
  -30.6317  -12.4391   20.2598 H   0  0  0  0  0  0
  -30.0675  -11.8992   17.8689 H   0  0  0  0  0  0
  -29.4928  -13.5281   17.6152 H   0  0  0  0  0  0
  -28.2171  -11.3378   19.2629 H   0  0  0  0  0  0
  -27.4922  -12.2209   17.9378 H   0  0  0  0  0  0
  -27.4337  -14.2390   19.2257 H   0  0  0  0  0  0
  -28.9035  -12.8657   21.5165 H   0  0  0  0  0  0
  -28.1114  -14.3958   21.6470 H   0  0  0  0  0  0
  -25.2812   -9.5674   22.4756 H   0  0  0  0  0  0
  -24.0018   -7.4644   22.7483 H   0  0  0  0  0  0
  -21.0881   -8.8799   19.8950 H   0  0  0  0  0  0
  -22.3769  -10.9671   19.6148 H   0  0  0  0  0  0
  -21.2017   -7.6153   23.9720 H   0  0  0  0  0  0
  -21.1483   -6.0523   25.9077 H   0  0  0  0  0  0
  -22.0595   -2.7613   23.2840 H   0  0  0  0  0  0
  -22.4034  -11.9786   22.4874 H   0  0  0  0  0  0
  -21.0986  -13.1092   22.2684 H   0  0  0  0  0  0
  -24.6078  -15.8495   20.5571 H   0  0  0  0  0  0
  -26.2323  -15.6574   20.1315 H   0  0  0  0  0  0
  -26.7591  -32.4794   23.0696 H   0  0  0  0  0  0
  -25.0031  -33.9208   24.9921 H   0  0  0  0  0  0
  -22.8690  -31.2142   21.2883 H   0  0  0  0  0  0
  -23.3781  -35.9415   23.3254 H   0  0  0  0  0  0
  -24.3558  -36.8849   22.2085 H   0  0  0  0  0  0
  -23.7237  -37.6255   23.6793 H   0  0  0  0  0  0
  -26.3420  -31.1692   20.6332 H   0  0  0  0  0  0
  -26.9647  -30.5297   22.1009 H   0  0  0  0  0  0
  -28.1646  -28.2186   21.3660 H   0  0  0  0  0  0
  -25.8276  -25.5362   18.9775 H   0  0  0  0  0  0
  -24.0706  -27.1798   18.8968 H   0  0  0  0  0  0
  -23.9848  -30.4059   19.3693 H   0  0  0  0  0  0
  -22.8999  -29.1263   19.8088 H   0  0  0  0  0  0
  -25.1372  -36.1572   25.0758 H   0  0  0  0  0  0
  -21.0069  -28.3439   24.1239 H   0  0  0  0  0  0
  -20.5651  -26.2428   23.3686 H   0  0  0  0  0  0
  -21.6666  -26.7355   22.1238 H   0  0  0  0  0  0
  -19.6938  -25.6251   21.1308 H   0  0  0  0  0  0
  -19.6735  -27.3125   20.6710 H   0  0  0  0  0  0
  -17.4238  -26.6699   21.4018 H   0  0  0  0  0  0
  -18.0348  -26.0119   22.9032 H   0  0  0  0  0  0
  -19.7997  -30.7361   24.2138 H   0  0  0  0  0  0
  -17.5058  -31.6278   24.5168 H   0  0  0  0  0  0
  -15.5394  -30.2960   23.7731 H   0  0  0  0  0  0
  -15.8728  -28.0799   22.7135 H   0  0  0  0  0  0
  -24.5862  -30.7158   25.7550 H   0  0  0  0  0  0
  -24.8794  -32.3079   26.4427 H   0  0  0  0  0  0
  -25.7778  -30.9170   27.0202 H   0  0  0  0  0  0
  -26.3332  -29.6353   24.1716 H   0  0  0  0  0  0
  -27.3961  -29.7312   25.5506 H   0  0  0  0  0  0
  -27.9330  -30.3879   24.0289 H   0  0  0  0  0  0
  -27.2554  -33.3773   26.1806 H   0  0  0  0  0  0
  -28.3982  -32.6792   25.0428 H   0  0  0  0  0  0
  -28.0554  -31.8694   26.5638 H   0  0  0  0  0  0
  -28.2534  -38.0044   24.7514 H   0  0  0  0  0  0
  -28.1096  -36.2563   24.6296 H   0  0  0  0  0  0
  -27.2272  -37.1344   25.8867 H   0  0  0  0  0  0
  -20.9815  -29.8635   21.6421 H   0  0  0  0  0  0
  -26.0075  -38.2655   24.1423 H   0  0  0  0  0  0
  -27.4689  -18.2188   21.4369 H   0  0  0  0  0  0
  -27.8620  -16.5347   21.6700 H   0  0  0  0  0  0
  -27.4327  -17.1278   20.0609 H   0  0  0  0  0  0
  -29.6387  -18.7553   22.5663 H   0  0  0  0  0  0
  -31.1705  -18.3456   21.8076 H   0  0  0  0  0  0
  -30.2363  -17.1063   22.6364 H   0  0  0  0  0  0
  -29.7518  -21.8009   21.0719 H   0  0  0  0  0  0
  -28.1360  -21.3727   21.4015 H   0  0  0  0  0  0
  -30.1609  -19.7483   19.4585 H   0  0  0  0  0  0
  -28.4996  -19.4746   19.2258 H   0  0  0  0  0  0
  -27.1450  -23.2573   19.8051 H   0  0  0  0  0  0
  -28.6334  -23.4704   18.9996 H   0  0  0  0  0  0
  1 25  1  0  0  0
  1 30  2  0  0  0
  1 76  1  0  0  0
  2  3  1  0  0  0
  2 25  1  0  0  0
  2 77  1  0  0  0
  2 78  1  0  0  0
  3  4  1  0  0  0
  3 79  1  0  0  0
  3 80  1  0  0  0
  4  5  1  0  0  0
  4 81  1  0  0  0
  4 82  1  0  0  0
  5  6  1  0  0  0
  5 26  1  0  0  0
  5 83  1  0  0  0
  6 25  1  0  0  0
  6 84  1  0  0  0
  6 85  1  0  0  0
  7  8  2  0  0  0
  7 26  1  0  0  0
  7 29  1  0  0  0
  8  9  1  0  0  0
  8 22  1  0  0  0
  9 10  1  0  0  0
  9 27  2  0  0  0
 10 11  2  0  0  0
 10 15  1  0  0  0
 11 12  1  0  0  0
 11 86  1  0  0  0
 12 13  2  0  0  0
 12 87  1  0  0  0
 13 14  1  0  0  0
 13 31  1  0  0  0
 14 15  2  0  0  0
 14 88  1  0  0  0
 15 89  1  0  0  0
 16 17  2  0  0  0
 16 21  1  0  0  0
 16 31  1  0  0  0
 17 18  1  0  0  0
 17 90  1  0  0  0
 18 19  2  0  0  0
 18 91  1  0  0  0
 19 20  1  0  0  0
 19 24  1  0  0  0
 20 21  2  0  0  0
 20 92  1  0  0  0
 21 23  1  0  0  0
 22 28  1  0  0  0
 22 32  2  0  0  0
 26 27  1  0  0  0
 28 93  1  0  0  0
 28 94  1  0  0  0
 29 95  1  0  0  0
 29 96  1  0  0  0
 33 34  1  0  0  0
 33 66  1  0  0  0
 33 70  2  0  0  0
 34 36  1  0  0  0
 34 59  1  0  0  0
 34 97  1  0  0  0
 35 44  2  0  0  0
 35 45  1  0  0  0
 35 68  1  0  0  0
 36 56  1  0  0  0
 36 98  1  0  0  0
 37 39  1  0  0  0
 37 47  1  0  0  0
 37 66  1  0  0  0
 37 99  1  0  0  0
 38 43  2  0  0  0
 38 46  1  0  0  0
 38 47  1  0  0  0
 39 64  1  0  0  0
 39 67  2  0  0  0
 40 52  1  0  0  0
 40 53  2  0  0  0
 40 58  1  0  0  0
 41100  1  0  0  0
 41101  1  0  0  0
 41102  1  0  0  0
 41 48  1  0  0  0
 42 43  1  0  0  0
 42 66  1  0  0  0
 42103  1  0  0  0
 42104  1  0  0  0
 43 44  1  0  0  0
 44105  1  0  0  0
 45 46  2  0  0  0
 45106  1  0  0  0
 46107  1  0  0  0
 47108  1  0  0  0
 47109  1  0  0  0
 48 56  1  0  0  0
 48 65  1  0  0  0
 48110  1  0  0  0
 49 50  1  0  0  0
 49 53  1  0  0  0
 49 64  1  0  0  0
 49111  1  0  0  0
 50 51  1  0  0  0
 50112  1  0  0  0
 50113  1  0  0  0
 51 52  1  0  0  0
 51114  1  0  0  0
 51115  1  0  0  0
 52116  1  0  0  0
 52117  1  0  0  0
 53 54  1  0  0  0
 54 55  2  0  0  0
 54118  1  0  0  0
 55 57  1  0  0  0
 55119  1  0  0  0
 56 69  2  0  0  0
 57 58  2  0  0  0
 57120  1  0  0  0
 58121  1  0  0  0
 59 60  1  0  0  0
 59 61  1  0  0  0
 59 62  1  0  0  0
 60122  1  0  0  0
 60123  1  0  0  0
 60124  1  0  0  0
 61125  1  0  0  0
 61126  1  0  0  0
 61127  1  0  0  0
 62128  1  0  0  0
 62129  1  0  0  0
 62130  1  0  0  0
 63 65  1  0  0  0
 63131  1  0  0  0
 63132  1  0  0  0
 63133  1  0  0  0
 64134  1  0  0  0
 65135  1  0  0  0
 68 75  1  0  0  0
 71136  1  0  0  0
 71137  1  0  0  0
 71138  1  0  0  0
 71 76  1  0  0  0
 72 76  1  0  0  0
 72139  1  0  0  0
 72140  1  0  0  0
 72141  1  0  0  0
 73 74  1  0  0  0
 73 75  1  0  0  0
 73142  1  0  0  0
 73143  1  0  0  0
 74 76  1  0  0  0
 74144  1  0  0  0
 74145  1  0  0  0
 75146  1  0  0  0
 75147  1  0  0  0
M  ISO  4   1 100  68 101  75 101  76 100
M  END
> <chiral flag>
0

> <version>
0

> <s_m_source_file>
/data/baiqing/PycharmProjects/Reinvent-master-3.2/result/LINK_invent/BTK/process_docking_weight1_custom_sum_contain_oxygen_bond_distance_aromatic_linkinvent_7_9_3/rearranged_h_0048.sdf

> <i_m_source_file_index>
18

> <r_mmod_Potential_Energy-OPLS-2005>
3733.28369140625

> <r_mmod_Stretch_Energy-OPLS-2005>
1764.31896972656

> <r_mmod_Bend_Energy-OPLS-2005>
840.589172363281

> <r_mmod_Torsional_Energy-OPLS-2005>
208.097305297852

> <r_mmod_Improper_Torsional_Energy-OPLS-2005>
1.71055269241333

> <r_mmod_Van_der_Waal_Energy-OPLS-2005>
111.315200805664

> <r_mmod_Electrostatic_Energy-OPLS-2005>
-297.558471679688

> <r_mmod_Solvation_Energy-OPLS-2005>
-186.266830444336

> <b_mmod_Minimization_Converged-OPLS-2005>
0

> <r_mmod_RMS_Derivative-OPLS-2005>
0.0959039181470871

$$$$
18
                    3D
 Structure written by MMmdl.
168176  0  0  1  0            999 V2000
  -30.6865  -14.5145   20.5061 C   0  0  0  0  0  0
  -30.4199  -12.3252   19.3977 C   0  0  0  0  0  0
  -29.4736  -12.5187   18.1933 C   0  0  0  0  0  0
  -27.9928  -12.3835   18.6142 C   0  0  0  0  0  0
  -27.6505  -13.2144   19.8744 C   0  0  2  0  0  0
  -28.7110  -12.9643   20.9655 C   0  0  0  0  0  0
  -25.2424  -13.8135   20.5655 C   0  0  0  0  0  0
  -24.1706  -13.0433   20.9168 C   0  0  0  0  0  0
  -24.6312  -11.6923   20.8711 C   0  0  0  0  0  0
  -23.8993  -10.4292   21.0351 C   0  0  0  0  0  0
  -24.3595   -9.4252   21.9158 C   0  0  0  0  0  0
  -23.6307   -8.2269   22.0759 C   0  0  0  0  0  0
  -22.4297   -8.0254   21.3543 C   0  0  0  0  0  0
  -21.9883   -9.0198   20.4635 C   0  0  0  0  0  0
  -22.7155  -10.2104   20.3022 C   0  0  0  0  0  0
  -21.6876   -6.0659   22.5270 C   0  0  0  0  0  0
  -21.4010   -6.5593   23.8179 C   0  0  0  0  0  0
  -21.3674   -5.6767   24.9165 C   0  0  0  0  0  0
  -21.6055   -4.3023   24.7244 C   0  0  0  0  0  0
  -21.8822   -3.8099   23.4380 C   0  0  0  0  0  0
  -21.9207   -4.6882   22.3411 C   0  0  0  0  0  0
  -22.7746  -13.5219   21.1883 C   0  0  0  0  0  0
  -22.1655   -4.2054   21.0987 F   0  0  0  0  0  0
  -21.5719   -3.4525   25.7768 F   0  0  0  0  0  0
  -30.0209  -13.3225   20.4031 N   0  0  0  0  0  0
  -26.2954  -12.9383   20.3481 N   0  0  0  0  0  0
  -25.9259  -11.6549   20.5878 N   0  0  0  0  0  0
  -22.0441  -12.8142   22.0435 N   0  0  0  0  0  0
  -25.4021  -15.1839   20.3914 N   0  0  0  0  0  0
  -31.8708  -14.6129   20.1684 O   0  0  0  0  0  0
  -21.6723   -6.8795   21.4220 O   0  0  0  0  0  0
  -22.3368  -14.5526   20.6748 O   0  0  0  0  0  0
  -24.6145  -31.8699   23.2062 C   0  0  0  0  0  0
  -25.9034  -32.4859   23.8368 C   0  0  1  0  0  0
  -27.2447  -27.4282   20.1314 C   0  0  0  0  0  0
  -25.5922  -33.8663   24.2371 N   0  0  0  0  0  0
  -23.4022  -30.4929   21.5495 C   0  0  2  0  0  0
  -24.8501  -28.9469   20.1227 C   0  0  0  0  0  0
  -22.7412  -29.4697   22.4992 C   0  0  0  0  0  0
  -18.0289  -28.1438   22.8501 C   0  0  0  0  0  0
  -24.1498  -36.7301   23.2635 C   0  0  0  0  0  0
  -25.9207  -30.8491   21.3370 C   0  0  0  0  0  0
  -26.0095  -29.4679   20.7168 C   0  0  0  0  0  0
  -27.2038  -28.7133   20.7186 C   0  0  0  0  0  0
  -26.0706  -26.9207   19.5286 C   0  0  0  0  0  0
  -24.8745  -27.6701   19.5351 C   0  0  0  0  0  0
  -23.6131  -29.8183   20.1664 C   0  0  0  0  0  0
  -25.4113  -36.3136   24.0352 C   0  0  1  0  0  0
  -20.5872  -28.3726   23.1362 C   0  0  2  0  0  0
  -20.6829  -26.9473   22.5438 C   0  0  0  0  0  0
  -19.5807  -26.6449   21.5246 C   0  0  0  0  0  0
  -18.1972  -26.8006   22.1604 C   0  0  0  0  0  0
  -19.1536  -28.8895   23.2946 C   0  0  0  0  0  0
  -18.9430  -30.1501   23.8951 C   0  0  0  0  0  0
  -17.6428  -30.6634   24.0593 C   0  0  0  0  0  0
  -25.9046  -34.9513   23.5154 C   0  0  0  0  0  0
  -16.5335  -29.9132   23.6311 C   0  0  0  0  0  0
  -16.7276  -28.6567   23.0309 C   0  0  0  0  0  0
  -26.4499  -31.6582   25.0629 C   0  0  0  0  0  0
  -25.3805  -31.3543   26.1374 C   0  0  0  0  0  0
  -27.0307  -30.3094   24.5799 C   0  0  0  0  0  0
  -27.6125  -32.4210   25.7391 C   0  0  0  0  0  0
  -27.5593  -37.1794   24.8473 C   0  0  0  0  0  0
  -21.4134  -29.3085   22.3727 N   0  0  0  0  0  0
  -26.4317  -37.3819   23.9437 N   0  0  0  0  0  0
  -24.6674  -31.0812   22.0978 N   0  0  0  0  0  0
  -23.4186  -28.8243   23.3036 O   0  0  0  0  0  0
  -28.4288  -26.7161   20.1278 O   0  0  0  0  0  0
  -26.5571  -34.8949   22.4687 O   0  0  0  0  0  0
  -23.5324  -32.1415   23.7482 O   0  0  0  0  0  0
  -32.5748  -24.6562   19.8662 C   0  0  0  0  0  0
  -30.4930  -24.1283   19.6494 C   0  0  0  0  0  0
  -31.2428  -23.0130   19.2912 C   0  0  0  0  0  0
  -28.0687  -17.1247   21.4163 C   0  0  0  0  0  0
  -33.7813  -22.6441   19.0651 C   0  0  0  0  0  0
  -28.9966  -24.3566   19.5527 C   0  0  0  0  0  0
  -30.8018  -21.6699   18.7358 C   0  0  0  0  0  0
  -30.9472  -17.9287   19.8490 C   0  0  0  0  0  0
  -29.2546  -16.1676   21.7033 C   0  0  0  0  0  0
  -30.1415  -16.6578   19.4144 C   0  0  0  0  0  0
  -30.6532  -19.1856   18.9818 C   0  0  0  0  0  0
  -28.3818  -25.3469   20.5736 C   0  0  0  0  0  0
  -31.3581  -25.1657   20.0084 N   0  0  0  0  0  0
  -32.5876  -23.3975   19.4052 N   0  0  0  0  0  0
  -29.9140  -15.6415   20.4834 N   0  0  0  0  0  0
  -31.1382  -20.4765   19.5568 N   0  3  0  0  0  0
  -31.4573  -12.4382   19.0804 H   0  0  0  0  0  0
  -30.3488  -11.3132   19.7978 H   0  0  0  0  0  0
  -29.7027  -11.8158   17.3948 H   0  0  0  0  0  0
  -29.6333  -13.5082   17.7647 H   0  0  0  0  0  0
  -27.7788  -11.3301   18.7935 H   0  0  0  0  0  0
  -27.3339  -12.6790   17.7970 H   0  0  0  0  0  0
  -27.6936  -14.2617   19.5763 H   0  0  0  0  0  0
  -28.7117  -11.9060   21.2304 H   0  0  0  0  0  0
  -28.4720  -13.4655   21.8946 H   0  0  0  0  0  0
  -25.2749   -9.5750   22.4716 H   0  0  0  0  0  0
  -24.0033   -7.4673   22.7483 H   0  0  0  0  0  0
  -21.0840   -8.8656   19.8954 H   0  0  0  0  0  0
  -22.3583  -10.9624   19.6112 H   0  0  0  0  0  0
  -21.1974   -7.6106   23.9629 H   0  0  0  0  0  0
  -21.1529   -6.0536   25.9054 H   0  0  0  0  0  0
  -22.0605   -2.7565   23.2926 H   0  0  0  0  0  0
  -22.4139  -11.9810   22.4757 H   0  0  0  0  0  0
  -21.1000  -13.0958   22.2648 H   0  0  0  0  0  0
  -24.6222  -15.8298   20.4300 H   0  0  0  0  0  0
  -26.2725  -15.6352   20.1441 H   0  0  0  0  0  0
  -26.7126  -32.5612   23.1158 H   0  0  0  0  0  0
  -25.0169  -33.9845   25.0587 H   0  0  0  0  0  0
  -22.6925  -31.3099   21.4095 H   0  0  0  0  0  0
  -23.3809  -35.9579   23.3264 H   0  0  0  0  0  0
  -24.3609  -36.8920   22.2054 H   0  0  0  0  0  0
  -23.7173  -37.6477   23.6640 H   0  0  0  0  0  0
  -25.9711  -31.5856   20.5338 H   0  0  0  0  0  0
  -26.8365  -30.9683   21.9061 H   0  0  0  0  0  0
  -28.0945  -29.1060   21.1899 H   0  0  0  0  0  0
  -26.0740  -25.9440   19.0642 H   0  0  0  0  0  0
  -23.9782  -27.2570   19.0947 H   0  0  0  0  0  0
  -23.7339  -30.5951   19.4102 H   0  0  0  0  0  0
  -22.7340  -29.2465   19.8628 H   0  0  0  0  0  0
  -25.1275  -36.2011   25.0835 H   0  0  0  0  0  0
  -20.9999  -28.3329   24.1467 H   0  0  0  0  0  0
  -20.5840  -26.2323   23.3602 H   0  0  0  0  0  0
  -21.6701  -26.7602   22.1171 H   0  0  0  0  0  0
  -19.6990  -25.6370   21.1264 H   0  0  0  0  0  0
  -19.6786  -27.3291   20.6799 H   0  0  0  0  0  0
  -17.4261  -26.6799   21.3969 H   0  0  0  0  0  0
  -18.0312  -26.0156   22.8984 H   0  0  0  0  0  0
  -19.7898  -30.7337   24.2357 H   0  0  0  0  0  0
  -17.4959  -31.6304   24.5209 H   0  0  0  0  0  0
  -15.5346  -30.3019   23.7631 H   0  0  0  0  0  0
  -15.8685  -28.0916   22.6926 H   0  0  0  0  0  0
  -24.6058  -30.6824   25.7637 H   0  0  0  0  0  0
  -24.8880  -32.2610   26.4883 H   0  0  0  0  0  0
  -25.8187  -30.8653   27.0080 H   0  0  0  0  0  0
  -26.2723  -29.6819   24.1079 H   0  0  0  0  0  0
  -27.4483  -29.7329   25.4062 H   0  0  0  0  0  0
  -27.8361  -30.4568   23.8600 H   0  0  0  0  0  0
  -27.2884  -33.3537   26.2028 H   0  0  0  0  0  0
  -28.3930  -32.6697   25.0187 H   0  0  0  0  0  0
  -28.0815  -31.8248   26.5242 H   0  0  0  0  0  0
  -28.2593  -38.0119   24.7601 H   0  0  0  0  0  0
  -28.1125  -36.2657   24.6226 H   0  0  0  0  0  0
  -27.2322  -37.1334   25.8880 H   0  0  0  0  0  0
  -20.9285  -29.8748   21.6903 H   0  0  0  0  0  0
  -26.0205  -38.2881   24.1496 H   0  0  0  0  0  0
  -33.4728  -25.2301   20.0578 H   0  0  0  0  0  0
  -27.3766  -17.1812   22.2609 H   0  0  0  0  0  0
  -27.4925  -16.8169   20.5454 H   0  0  0  0  0  0
  -28.4087  -18.1441   21.2201 H   0  0  0  0  0  0
  -34.6019  -23.3242   18.8289 H   0  0  0  0  0  0
  -33.5952  -22.0254   18.1875 H   0  0  0  0  0  0
  -34.0803  -22.0206   19.9056 H   0  0  0  0  0  0
  -28.4927  -23.3981   19.6982 H   0  0  0  0  0  0
  -28.7267  -24.6752   18.5471 H   0  0  0  0  0  0
  -31.2457  -21.5360   17.7495 H   0  0  0  0  0  0
  -29.7224  -21.6842   18.5799 H   0  0  0  0  0  0
  -32.0155  -17.7039   19.8246 H   0  0  0  0  0  0
  -30.7242  -18.1845   20.8823 H   0  0  0  0  0  0
  -28.8911  -15.3830   22.3552 H   0  0  0  0  0  0
  -30.0053  -16.6655   22.3166 H   0  0  0  0  0  0
  -30.6548  -16.1925   18.5637 H   0  0  0  0  0  0
  -29.1763  -16.9455   18.9908 H   0  0  0  0  0  0
  -29.5734  -19.2752   18.8424 H   0  0  0  0  0  0
  -31.0917  -19.0512   17.9929 H   0  0  0  0  0  0
  -28.9077  -25.2702   21.5243 H   0  0  0  0  0  0
  -27.3615  -25.0327   20.8053 H   0  0  0  0  0  0
  -30.7445  -20.6087   20.4719 H   0  0  0  0  0  0
  -32.1368  -20.4340   19.6554 H   0  0  0  0  0  0
  1 25  1  0  0  0
  1 30  2  0  0  0
  1 85  1  0  0  0
  2  3  1  0  0  0
  2 25  1  0  0  0
  2 87  1  0  0  0
  2 88  1  0  0  0
  3  4  1  0  0  0
  3 89  1  0  0  0
  3 90  1  0  0  0
  4  5  1  0  0  0
  4 91  1  0  0  0
  4 92  1  0  0  0
  5  6  1  0  0  0
  5 26  1  0  0  0
  5 93  1  0  0  0
  6 25  1  0  0  0
  6 94  1  0  0  0
  6 95  1  0  0  0
  7  8  2  0  0  0
  7 26  1  0  0  0
  7 29  1  0  0  0
  8  9  1  0  0  0
  8 22  1  0  0  0
  9 10  1  0  0  0
  9 27  2  0  0  0
 10 11  2  0  0  0
 10 15  1  0  0  0
 11 12  1  0  0  0
 11 96  1  0  0  0
 12 13  2  0  0  0
 12 97  1  0  0  0
 13 14  1  0  0  0
 13 31  1  0  0  0
 14 15  2  0  0  0
 14 98  1  0  0  0
 15 99  1  0  0  0
 16 17  2  0  0  0
 16 21  1  0  0  0
 16 31  1  0  0  0
 17 18  1  0  0  0
 17100  1  0  0  0
 18 19  2  0  0  0
 18101  1  0  0  0
 19 20  1  0  0  0
 19 24  1  0  0  0
 20 21  2  0  0  0
 20102  1  0  0  0
 21 23  1  0  0  0
 22 28  1  0  0  0
 22 32  2  0  0  0
 26 27  1  0  0  0
 28103  1  0  0  0
 28104  1  0  0  0
 29105  1  0  0  0
 29106  1  0  0  0
 33 34  1  0  0  0
 33 66  1  0  0  0
 33 70  2  0  0  0
 34 36  1  0  0  0
 34 59  1  0  0  0
 34107  1  0  0  0
 35 44  2  0  0  0
 35 45  1  0  0  0
 35 68  1  0  0  0
 36 56  1  0  0  0
 36108  1  0  0  0
 37 39  1  0  0  0
 37 47  1  0  0  0
 37 66  1  0  0  0
 37109  1  0  0  0
 38 43  2  0  0  0
 38 46  1  0  0  0
 38 47  1  0  0  0
 39 64  1  0  0  0
 39 67  2  0  0  0
 40 52  1  0  0  0
 40 53  2  0  0  0
 40 58  1  0  0  0
 41110  1  0  0  0
 41111  1  0  0  0
 41112  1  0  0  0
 41 48  1  0  0  0
 42 43  1  0  0  0
 42 66  1  0  0  0
 42113  1  0  0  0
 42114  1  0  0  0
 43 44  1  0  0  0
 44115  1  0  0  0
 45 46  2  0  0  0
 45116  1  0  0  0
 46117  1  0  0  0
 47118  1  0  0  0
 47119  1  0  0  0
 48 56  1  0  0  0
 48 65  1  0  0  0
 48120  1  0  0  0
 49 50  1  0  0  0
 49 53  1  0  0  0
 49 64  1  0  0  0
 49121  1  0  0  0
 50 51  1  0  0  0
 50122  1  0  0  0
 50123  1  0  0  0
 51 52  1  0  0  0
 51124  1  0  0  0
 51125  1  0  0  0
 52126  1  0  0  0
 52127  1  0  0  0
 53 54  1  0  0  0
 54 55  2  0  0  0
 54128  1  0  0  0
 55 57  1  0  0  0
 55129  1  0  0  0
 56 69  2  0  0  0
 57 58  2  0  0  0
 57130  1  0  0  0
 58131  1  0  0  0
 59 60  1  0  0  0
 59 61  1  0  0  0
 59 62  1  0  0  0
 60132  1  0  0  0
 60133  1  0  0  0
 60134  1  0  0  0
 61135  1  0  0  0
 61136  1  0  0  0
 61137  1  0  0  0
 62138  1  0  0  0
 62139  1  0  0  0
 62140  1  0  0  0
 63 65  1  0  0  0
 63141  1  0  0  0
 63142  1  0  0  0
 63143  1  0  0  0
 64144  1  0  0  0
 65145  1  0  0  0
 68 82  1  0  0  0
 71 83  2  0  0  0
 71 84  1  0  0  0
 71146  1  0  0  0
 72 73  2  0  0  0
 72 76  1  0  0  0
 72 83  1  0  0  0
 73 77  1  0  0  0
 73 84  1  0  0  0
 74 79  1  0  0  0
 74147  1  0  0  0
 74148  1  0  0  0
 74149  1  0  0  0
 75 84  1  0  0  0
 75150  1  0  0  0
 75151  1  0  0  0
 75152  1  0  0  0
 76 82  1  0  0  0
 76153  1  0  0  0
 76154  1  0  0  0
 77 86  1  0  0  0
 77155  1  0  0  0
 77156  1  0  0  0
 78 80  1  0  0  0
 78 81  1  0  0  0
 78157  1  0  0  0
 78158  1  0  0  0
 79 85  1  0  0  0
 79159  1  0  0  0
 79160  1  0  0  0
 80 85  1  0  0  0
 80161  1  0  0  0
 80162  1  0  0  0
 81 86  1  0  0  0
 81163  1  0  0  0
 81164  1  0  0  0
 82165  1  0  0  0
 82166  1  0  0  0
 86167  1  0  0  0
 86168  1  0  0  0
M  CHG  1  86   1
M  ISO  4   1 100  68 101  82 101  85 100
M  END
> <chiral flag>
0

> <version>
0

> <s_m_source_file>
/data/baiqing/PycharmProjects/Reinvent-master-3.2/result/LINK_invent/BTK/process_docking_weight1_custom_sum_contain_oxygen_bond_distance_aromatic_linkinvent_7_9_3/rearranged_h_0048.sdf

> <i_m_source_file_index>
19

> <r_mmod_Potential_Energy-OPLS-2005>
12.3437004089355

> <r_mmod_Stretch_Energy-OPLS-2005>
47.0455207824707

> <r_mmod_Bend_Energy-OPLS-2005>
118.28547668457

> <r_mmod_Torsional_Energy-OPLS-2005>
322.993377685547

> <r_mmod_Improper_Torsional_Energy-OPLS-2005>
18.3845062255859

> <r_mmod_Van_der_Waal_Energy-OPLS-2005>
129.353469848633

> <r_mmod_Electrostatic_Energy-OPLS-2005>
-156.154998779297

> <r_mmod_Solvation_Energy-OPLS-2005>
-486.710632324219

> <b_mmod_Minimization_Converged-OPLS-2005>
0

> <r_mmod_RMS_Derivative-OPLS-2005>
6.40832471847534

$$$$
19
                    3D
 Structure written by MMmdl.
158166  0  0  1  0            999 V2000
  -30.5778  -14.7082   20.4612 C   0  0  0  0  0  0
  -30.4431  -12.4246   19.4694 C   0  0  0  0  0  0
  -29.5164  -12.5162   18.2339 C   0  0  0  0  0  0
  -28.0343  -12.3497   18.6315 C   0  0  0  0  0  0
  -27.6453  -13.2220   19.8543 C   0  0  2  0  0  0
  -28.6891  -13.1046   20.9848 C   0  0  0  0  0  0
  -25.2528  -13.8165   20.5699 C   0  0  0  0  0  0
  -24.1804  -13.0429   20.9197 C   0  0  0  0  0  0
  -24.6381  -11.6898   20.8736 C   0  0  0  0  0  0
  -23.9051  -10.4287   21.0416 C   0  0  0  0  0  0
  -24.3607   -9.4203   21.9186 C   0  0  0  0  0  0
  -23.6290   -8.2235   22.0750 C   0  0  0  0  0  0
  -22.4269   -8.0266   21.3539 C   0  0  0  0  0  0
  -21.9908   -9.0240   20.4639 C   0  0  0  0  0  0
  -22.7227  -10.2128   20.3056 C   0  0  0  0  0  0
  -21.6848   -6.0730   22.5282 C   0  0  0  0  0  0
  -21.4007   -6.5645   23.8213 C   0  0  0  0  0  0
  -21.3665   -5.6798   24.9183 C   0  0  0  0  0  0
  -21.6044   -4.3058   24.7233 C   0  0  0  0  0  0
  -21.8820   -3.8141   23.4355 C   0  0  0  0  0  0
  -21.9200   -4.6957   22.3411 C   0  0  0  0  0  0
  -22.7830  -13.5206   21.1892 C   0  0  0  0  0  0
  -22.1666   -4.2147   21.0983 F   0  0  0  0  0  0
  -21.5640   -3.4541   25.7745 F   0  0  0  0  0  0
  -30.0025  -13.4585   20.4306 N   0  0  0  0  0  0
  -26.2947  -12.9355   20.3275 N   0  0  0  0  0  0
  -25.9304  -11.6505   20.5707 N   0  0  0  0  0  0
  -22.0494  -12.8166   22.0439 N   0  0  0  0  0  0
  -25.4249  -15.1896   20.4144 N   0  0  0  0  0  0
  -31.7706  -14.8397   20.1695 O   0  0  0  0  0  0
  -21.6633   -6.8861   21.4231 O   0  0  0  0  0  0
  -22.3510  -14.5527   20.6771 O   0  0  0  0  0  0
  -24.6312  -31.8586   23.1999 C   0  0  0  0  0  0
  -25.9143  -32.4768   23.8356 C   0  0  1  0  0  0
  -27.2161  -27.2711   20.1155 C   0  0  0  0  0  0
  -25.5954  -33.8577   24.2288 N   0  0  0  0  0  0
  -23.4271  -30.4826   21.5458 C   0  0  2  0  0  0
  -24.8714  -28.9359   20.1115 C   0  0  0  0  0  0
  -22.7513  -29.4616   22.4926 C   0  0  0  0  0  0
  -18.0300  -28.1387   22.8485 C   0  0  0  0  0  0
  -24.1497  -36.7287   23.2636 C   0  0  0  0  0  0
  -25.9749  -30.7719   21.3803 C   0  0  0  0  0  0
  -26.0460  -29.3973   20.7191 C   0  0  0  0  0  0
  -27.2219  -28.5791   20.7091 C   0  0  0  0  0  0
  -26.0112  -26.8823   19.4796 C   0  0  0  0  0  0
  -24.8592  -27.6863   19.4815 C   0  0  0  0  0  0
  -23.6436  -29.8225   20.1606 C   0  0  0  0  0  0
  -25.4127  -36.3082   24.0324 C   0  0  1  0  0  0
  -20.5907  -28.3705   23.1268 C   0  0  2  0  0  0
  -20.6795  -26.9422   22.5411 C   0  0  0  0  0  0
  -19.5770  -26.6384   21.5219 C   0  0  0  0  0  0
  -18.1946  -26.7932   22.1622 C   0  0  0  0  0  0
  -19.1552  -28.8864   23.2872 C   0  0  0  0  0  0
  -18.9468  -30.1466   23.8888 C   0  0  0  0  0  0
  -17.6463  -30.6584   24.0562 C   0  0  0  0  0  0
  -25.9060  -34.9448   23.5102 C   0  0  0  0  0  0
  -16.5357  -29.9076   23.6329 C   0  0  0  0  0  0
  -16.7285  -28.6496   23.0351 C   0  0  0  0  0  0
  -26.4520  -31.6573   25.0729 C   0  0  0  0  0  0
  -25.3745  -31.3694   26.1447 C   0  0  0  0  0  0
  -27.0366  -30.2988   24.6191 C   0  0  0  0  0  0
  -27.6065  -32.4315   25.7516 C   0  0  0  0  0  0
  -27.5591  -37.1805   24.8466 C   0  0  0  0  0  0
  -21.4222  -29.3052   22.3660 N   0  0  0  0  0  0
  -26.4305  -37.3772   23.9402 N   0  0  0  0  0  0
  -24.6971  -31.0560   22.0974 N   0  0  0  0  0  0
  -23.4222  -28.8156   23.3018 O   0  0  0  0  0  0
  -28.3097  -26.3716   20.1651 O   0  0  0  0  0  0
  -26.5618  -34.8907   22.4664 O   0  0  0  0  0  0
  -23.5463  -32.1418   23.7288 O   0  0  0  0  0  0
  -30.4071  -24.0458   19.7086 C   0  0  0  0  0  0
  -31.3138  -22.9822   19.6474 C   0  0  0  0  0  0
  -29.1098  -23.7785   20.1532 C   0  0  0  0  0  0
  -29.7465  -21.4852   20.4384 C   0  0  0  0  0  0
  -31.1090  -18.8761   18.2304 C   0  0  0  0  0  0
  -27.9969  -24.9029   20.0795 C   0  0  0  0  0  0
  -29.5320  -20.0372   21.0666 C   0  0  0  0  0  0
  -29.6692  -16.0230   20.5721 C   0  0  0  0  0  0
  -29.6687  -18.8782   18.7798 C   0  0  0  0  0  0
  -30.2813  -17.4935   20.8432 C   0  0  0  0  0  0
  -30.9812  -21.7274   20.0104 N   0  0  0  0  0  0
  -28.8031  -22.4725   20.5165 N   0  0  0  0  0  0
  -29.5518  -18.7251   20.2586 N   0  3  1  0  0  0
  -31.4844  -12.5619   19.1706 H   0  0  0  0  0  0
  -30.3867  -11.4339   19.9236 H   0  0  0  0  0  0
  -29.7909  -11.7637   17.4941 H   0  0  0  0  0  0
  -29.6541  -13.4839   17.7493 H   0  0  0  0  0  0
  -27.8644  -11.2959   18.8564 H   0  0  0  0  0  0
  -27.3912  -12.5861   17.7829 H   0  0  0  0  0  0
  -27.6474  -14.2519   19.5011 H   0  0  0  0  0  0
  -28.7083  -12.0877   21.3789 H   0  0  0  0  0  0
  -28.4258  -13.7407   21.8303 H   0  0  0  0  0  0
  -25.2761   -9.5685   22.4745 H   0  0  0  0  0  0
  -24.0019   -7.4615   22.7459 H   0  0  0  0  0  0
  -21.0856   -8.8736   19.8927 H   0  0  0  0  0  0
  -22.3682  -10.9657   19.6157 H   0  0  0  0  0  0
  -21.1973   -7.6150   23.9707 H   0  0  0  0  0  0
  -21.1496   -6.0537   25.9086 H   0  0  0  0  0  0
  -22.0591   -2.7601   23.2856 H   0  0  0  0  0  0
  -22.4138  -11.9823   22.4798 H   0  0  0  0  0  0
  -21.1099  -13.1143   22.2647 H   0  0  0  0  0  0
  -24.6571  -15.8441   20.5191 H   0  0  0  0  0  0
  -26.2744  -15.6244   20.0803 H   0  0  0  0  0  0
  -26.7204  -32.5423   23.1092 H   0  0  0  0  0  0
  -25.0136  -33.9743   25.0455 H   0  0  0  0  0  0
  -22.7216  -31.3039   21.4036 H   0  0  0  0  0  0
  -23.3765  -35.9615   23.3294 H   0  0  0  0  0  0
  -24.3581  -36.8918   22.2050 H   0  0  0  0  0  0
  -23.7239  -37.6480   23.6666 H   0  0  0  0  0  0
  -26.1179  -31.5311   20.6105 H   0  0  0  0  0  0
  -26.8516  -30.8181   22.0147 H   0  0  0  0  0  0
  -28.1206  -28.9277   21.1985 H   0  0  0  0  0  0
  -25.9061  -25.9363   18.9732 H   0  0  0  0  0  0
  -23.9611  -27.3294   18.9962 H   0  0  0  0  0  0
  -23.7689  -30.6031   19.4086 H   0  0  0  0  0  0
  -22.7610  -29.2585   19.8524 H   0  0  0  0  0  0
  -25.1303  -36.1939   25.0815 H   0  0  0  0  0  0
  -21.0007  -28.3283   24.1385 H   0  0  0  0  0  0
  -20.5716  -26.2317   23.3622 H   0  0  0  0  0  0
  -21.6661  -26.7458   22.1197 H   0  0  0  0  0  0
  -19.6939  -25.6296   21.1253 H   0  0  0  0  0  0
  -19.6702  -27.3188   20.6748 H   0  0  0  0  0  0
  -17.4229  -26.6694   21.4007 H   0  0  0  0  0  0
  -18.0323  -26.0073   22.9014 H   0  0  0  0  0  0
  -19.7938  -30.7293   24.2251 H   0  0  0  0  0  0
  -17.5006  -31.6258   24.5175 H   0  0  0  0  0  0
  -15.5353  -30.2969   23.7653 H   0  0  0  0  0  0
  -15.8691  -28.0804   22.7071 H   0  0  0  0  0  0
  -24.5940  -30.7030   25.7755 H   0  0  0  0  0  0
  -24.8925  -32.2856   26.4867 H   0  0  0  0  0  0
  -25.8075  -30.8873   27.0219 H   0  0  0  0  0  0
  -26.2941  -29.6732   24.1222 H   0  0  0  0  0  0
  -27.4065  -29.7242   25.4689 H   0  0  0  0  0  0
  -27.8817  -30.4264   23.9420 H   0  0  0  0  0  0
  -27.2663  -33.3620   26.2073 H   0  0  0  0  0  0
  -28.3892  -32.6868   25.0359 H   0  0  0  0  0  0
  -28.0718  -31.8460   26.5453 H   0  0  0  0  0  0
  -28.2592  -38.0117   24.7518 H   0  0  0  0  0  0
  -28.1108  -36.2643   24.6296 H   0  0  0  0  0  0
  -27.2309  -37.1448   25.8870 H   0  0  0  0  0  0
  -20.9415  -29.8766   21.6852 H   0  0  0  0  0  0
  -26.0189  -38.2849   24.1397 H   0  0  0  0  0  0
  -30.6952  -25.0392   19.3899 H   0  0  0  0  0  0
  -32.3244  -23.1345   19.2995 H   0  0  0  0  0  0
  -31.1068  -19.1141   17.1661 H   0  0  0  0  0  0
  -31.5824  -17.8996   18.3304 H   0  0  0  0  0  0
  -31.7457  -19.6063   18.7250 H   0  0  0  0  0  0
  -27.2345  -24.6663   20.8232 H   0  0  0  0  0  0
  -27.5534  -24.7119   19.1038 H   0  0  0  0  0  0
  -28.5787  -20.0561   21.5940 H   0  0  0  0  0  0
  -30.2788  -19.9472   21.8553 H   0  0  0  0  0  0
  -29.1527  -16.0596   19.6142 H   0  0  0  0  0  0
  -28.8863  -15.8519   21.3084 H   0  0  0  0  0  0
  -29.1287  -18.0567   18.3088 H   0  0  0  0  0  0
  -29.1418  -19.7751   18.4531 H   0  0  0  0  0  0
  -31.3299  -17.5181   20.5496 H   0  0  0  0  0  0
  -30.3095  -17.6128   21.9268 H   0  0  0  0  0  0
  -28.5785  -18.4859   20.3678 H   0  0  0  0  0  0
  1 25  1  0  0  0
  1 30  2  0  0  0
  1 78  1  0  0  0
  2  3  1  0  0  0
  2 25  1  0  0  0
  2 84  1  0  0  0
  2 85  1  0  0  0
  3  4  1  0  0  0
  3 86  1  0  0  0
  3 87  1  0  0  0
  4  5  1  0  0  0
  4 88  1  0  0  0
  4 89  1  0  0  0
  5  6  1  0  0  0
  5 26  1  0  0  0
  5 90  1  0  0  0
  6 25  1  0  0  0
  6 91  1  0  0  0
  6 92  1  0  0  0
  7  8  2  0  0  0
  7 26  1  0  0  0
  7 29  1  0  0  0
  8  9  1  0  0  0
  8 22  1  0  0  0
  9 10  1  0  0  0
  9 27  2  0  0  0
 10 11  2  0  0  0
 10 15  1  0  0  0
 11 12  1  0  0  0
 11 93  1  0  0  0
 12 13  2  0  0  0
 12 94  1  0  0  0
 13 14  1  0  0  0
 13 31  1  0  0  0
 14 15  2  0  0  0
 14 95  1  0  0  0
 15 96  1  0  0  0
 16 17  2  0  0  0
 16 21  1  0  0  0
 16 31  1  0  0  0
 17 18  1  0  0  0
 17 97  1  0  0  0
 18 19  2  0  0  0
 18 98  1  0  0  0
 19 20  1  0  0  0
 19 24  1  0  0  0
 20 21  2  0  0  0
 20 99  1  0  0  0
 21 23  1  0  0  0
 22 28  1  0  0  0
 22 32  2  0  0  0
 26 27  1  0  0  0
 28100  1  0  0  0
 28101  1  0  0  0
 29102  1  0  0  0
 29103  1  0  0  0
 33 34  1  0  0  0
 33 66  1  0  0  0
 33 70  2  0  0  0
 34 36  1  0  0  0
 34 59  1  0  0  0
 34104  1  0  0  0
 35 44  2  0  0  0
 35 45  1  0  0  0
 35 68  1  0  0  0
 36 56  1  0  0  0
 36105  1  0  0  0
 37 39  1  0  0  0
 37 47  1  0  0  0
 37 66  1  0  0  0
 37106  1  0  0  0
 38 43  2  0  0  0
 38 46  1  0  0  0
 38 47  1  0  0  0
 39 64  1  0  0  0
 39 67  2  0  0  0
 40 52  1  0  0  0
 40 53  2  0  0  0
 40 58  1  0  0  0
 41107  1  0  0  0
 41108  1  0  0  0
 41109  1  0  0  0
 41 48  1  0  0  0
 42 43  1  0  0  0
 42 66  1  0  0  0
 42110  1  0  0  0
 42111  1  0  0  0
 43 44  1  0  0  0
 44112  1  0  0  0
 45 46  2  0  0  0
 45113  1  0  0  0
 46114  1  0  0  0
 47115  1  0  0  0
 47116  1  0  0  0
 48 56  1  0  0  0
 48 65  1  0  0  0
 48117  1  0  0  0
 49 50  1  0  0  0
 49 53  1  0  0  0
 49 64  1  0  0  0
 49118  1  0  0  0
 50 51  1  0  0  0
 50119  1  0  0  0
 50120  1  0  0  0
 51 52  1  0  0  0
 51121  1  0  0  0
 51122  1  0  0  0
 52123  1  0  0  0
 52124  1  0  0  0
 53 54  1  0  0  0
 54 55  2  0  0  0
 54125  1  0  0  0
 55 57  1  0  0  0
 55126  1  0  0  0
 56 69  2  0  0  0
 57 58  2  0  0  0
 57127  1  0  0  0
 58128  1  0  0  0
 59 60  1  0  0  0
 59 61  1  0  0  0
 59 62  1  0  0  0
 60129  1  0  0  0
 60130  1  0  0  0
 60131  1  0  0  0
 61132  1  0  0  0
 61133  1  0  0  0
 61134  1  0  0  0
 62135  1  0  0  0
 62136  1  0  0  0
 62137  1  0  0  0
 63 65  1  0  0  0
 63138  1  0  0  0
 63139  1  0  0  0
 63140  1  0  0  0
 64141  1  0  0  0
 65142  1  0  0  0
 68 76  1  0  0  0
 71 72  2  0  0  0
 71 73  1  0  0  0
 71143  1  0  0  0
 72 81  1  0  0  0
 72144  1  0  0  0
 73 76  1  0  0  0
 73 82  2  0  0  0
 74 77  1  0  0  0
 74 81  2  0  0  0
 74 82  1  0  0  0
 75 79  1  0  0  0
 75145  1  0  0  0
 75146  1  0  0  0
 75147  1  0  0  0
 76148  1  0  0  0
 76149  1  0  0  0
 77150  1  0  0  0
 77151  1  0  0  0
 77 83  1  0  0  0
 78 80  1  0  0  0
 78152  1  0  0  0
 78153  1  0  0  0
 79 83  1  0  0  0
 79154  1  0  0  0
 79155  1  0  0  0
 80 83  1  0  0  0
 80156  1  0  0  0
 80157  1  0  0  0
 83158  1  0  0  0
M  CHG  1  83   1
M  ISO  4   1 100  68 101  76 101  78 100
M  END
> <chiral flag>
0

> <version>
0

> <s_m_source_file>
/data/baiqing/PycharmProjects/Reinvent-master-3.2/result/LINK_invent/BTK/process_docking_weight1_custom_sum_contain_oxygen_bond_distance_aromatic_linkinvent_7_9_3/rearranged_h_0048.sdf

> <i_m_source_file_index>
20

> <r_mmod_Potential_Energy-OPLS-2005>
-429.190063476562

> <r_mmod_Stretch_Energy-OPLS-2005>
114.624221801758

> <r_mmod_Bend_Energy-OPLS-2005>
180.01741027832

> <r_mmod_Torsional_Energy-OPLS-2005>
212.084167480469

> <r_mmod_Improper_Torsional_Energy-OPLS-2005>
7.91838645935059

> <r_mmod_Van_der_Waal_Energy-OPLS-2005>
148.024765014648

> <r_mmod_Electrostatic_Energy-OPLS-2005>
-711.094604492188

> <r_mmod_Solvation_Energy-OPLS-2005>
-455.491424560547

> <b_mmod_Minimization_Converged-OPLS-2005>
0

> <r_mmod_RMS_Derivative-OPLS-2005>
1.78508901596069

$$$$
20
                    3D
 Structure written by MMmdl.
151159  0  0  1  0            999 V2000
  -30.5384  -14.9985   20.4138 C   0  0  0  0  0  0
  -30.4392  -12.6223   19.5077 C   0  0  0  0  0  0
  -29.5234  -12.5382   18.2640 C   0  0  0  0  0  0
  -28.0580  -12.3175   18.6825 C   0  0  0  0  0  0
  -27.6260  -13.2566   19.8390 C   0  0  2  0  0  0
  -28.6692  -13.3115   20.9764 C   0  0  0  0  0  0
  -25.2381  -13.8181   20.5651 C   0  0  0  0  0  0
  -24.1735  -13.0397   20.9208 C   0  0  0  0  0  0
  -24.6395  -11.6903   20.8762 C   0  0  0  0  0  0
  -23.9087  -10.4273   21.0412 C   0  0  0  0  0  0
  -24.3632   -9.4189   21.9190 C   0  0  0  0  0  0
  -23.6297   -8.2230   22.0758 C   0  0  0  0  0  0
  -22.4279   -8.0274   21.3546 C   0  0  0  0  0  0
  -21.9921   -9.0249   20.4647 C   0  0  0  0  0  0
  -22.7259  -10.2121   20.3058 C   0  0  0  0  0  0
  -21.6852   -6.0732   22.5280 C   0  0  0  0  0  0
  -21.4013   -6.5637   23.8213 C   0  0  0  0  0  0
  -21.3660   -5.6791   24.9175 C   0  0  0  0  0  0
  -21.6045   -4.3053   24.7226 C   0  0  0  0  0  0
  -21.8819   -3.8145   23.4347 C   0  0  0  0  0  0
  -21.9193   -4.6961   22.3403 C   0  0  0  0  0  0
  -22.7758  -13.5169   21.1872 C   0  0  0  0  0  0
  -22.1662   -4.2147   21.0981 F   0  0  0  0  0  0
  -21.5629   -3.4537   25.7739 F   0  0  0  0  0  0
  -29.9406  -13.7338   20.3734 N   0  0  0  0  0  0
  -26.2866  -12.9467   20.3269 N   0  0  0  0  0  0
  -25.9341  -11.6587   20.5780 N   0  0  0  0  0  0
  -22.0426  -12.8164   22.0447 N   0  0  0  0  0  0
  -25.3896  -15.1889   20.3974 N   0  0  0  0  0  0
  -31.7426  -15.0458   20.1426 O   0  0  0  0  0  0
  -21.6638   -6.8875   21.4242 O   0  0  0  0  0  0
  -22.3432  -14.5474   20.6725 O   0  0  0  0  0  0
  -24.6471  -31.8406   23.1852 C   0  0  0  0  0  0
  -25.9226  -32.4677   23.8255 C   0  0  1  0  0  0
  -27.2172  -27.0953   20.1630 C   0  0  0  0  0  0
  -25.5958  -33.8484   24.2170 N   0  0  0  0  0  0
  -23.4528  -30.4586   21.5318 C   0  0  2  0  0  0
  -24.9030  -28.8763   20.1148 C   0  0  0  0  0  0
  -22.7585  -29.4531   22.4850 C   0  0  0  0  0  0
  -18.0308  -28.1398   22.8476 C   0  0  0  0  0  0
  -24.1492  -36.7247   23.2643 C   0  0  0  0  0  0
  -26.0118  -30.7015   21.3905 C   0  0  0  0  0  0
  -26.0824  -29.3077   20.7350 C   0  0  0  0  0  0
  -27.2407  -28.4356   20.7377 C   0  0  0  0  0  0
  -26.0122  -26.7780   19.4981 C   0  0  0  0  0  0
  -24.8831  -27.6262   19.4794 C   0  0  0  0  0  0
  -23.6822  -29.7843   20.1533 C   0  0  0  0  0  0
  -25.4126  -36.3021   24.0313 C   0  0  1  0  0  0
  -20.5923  -28.3728   23.1227 C   0  0  2  0  0  0
  -20.6791  -26.9427   22.5403 C   0  0  0  0  0  0
  -19.5764  -26.6380   21.5213 C   0  0  0  0  0  0
  -18.1946  -26.7935   22.1625 C   0  0  0  0  0  0
  -19.1566  -28.8881   23.2843 C   0  0  0  0  0  0
  -18.9480  -30.1476   23.8870 C   0  0  0  0  0  0
  -17.6476  -30.6593   24.0558 C   0  0  0  0  0  0
  -25.9079  -34.9397   23.5053 C   0  0  0  0  0  0
  -16.5367  -29.9084   23.6337 C   0  0  0  0  0  0
  -16.7292  -28.6503   23.0358 C   0  0  0  0  0  0
  -26.4533  -31.6560   25.0714 C   0  0  0  0  0  0
  -25.3705  -31.3760   26.1400 C   0  0  0  0  0  0
  -27.0408  -30.2951   24.6327 C   0  0  0  0  0  0
  -27.6052  -32.4336   25.7506 C   0  0  0  0  0  0
  -27.5575  -37.1782   24.8466 C   0  0  0  0  0  0
  -21.4274  -29.3048   22.3596 N   0  0  0  0  0  0
  -26.4287  -37.3738   23.9407 N   0  0  0  0  0  0
  -24.7240  -31.0225   22.0906 N   0  0  0  0  0  0
  -23.4210  -28.8083   23.3019 O   0  0  0  0  0  0
  -28.2687  -26.0941   20.1993 O   0  0  0  0  0  0
  -26.5670  -34.8901   22.4635 O   0  0  0  0  0  0
  -23.5581  -32.1300   23.7047 O   0  0  0  0  0  0
  -27.6778  -21.3787   21.4978 C   0  0  0  0  0  0
  -28.7255  -21.6163   20.5880 C   0  0  0  0  0  0
  -29.2089  -19.1229   20.7210 C   0  0  0  0  0  0
  -28.1503  -19.0640   21.6758 C   0  0  0  0  0  0
  -29.0143  -23.1985   20.1413 C   0  0  0  0  0  0
  -30.1060  -17.7555   20.3391 C   0  0  0  0  0  0
  -27.9942  -24.5498   20.3943 C   0  0  0  0  0  0
  -27.7992  -17.7758   22.4275 C   0  0  0  0  0  0
  -27.4055  -20.1579   22.0210 N   0  0  0  0  0  0
  -29.4757  -20.4459   20.2086 N   0  0  0  0  0  0
  -29.7729  -16.2018   20.5435 N   0  0  0  0  0  0
  -26.8344  -17.9731   23.3303 F   0  0  0  0  0  0
  -27.3689  -16.8513   21.5711 F   0  0  0  0  0  0
  -28.8683  -17.3113   23.0760 F   0  0  0  0  0  0
  -31.4721  -12.7808   19.1940 H   0  0  0  0  0  0
  -30.4384  -11.6782   20.0547 H   0  0  0  0  0  0
  -29.8507  -11.7333   17.6045 H   0  0  0  0  0  0
  -29.6049  -13.4605   17.6868 H   0  0  0  0  0  0
  -27.9614  -11.2782   18.9987 H   0  0  0  0  0  0
  -27.3946  -12.4379   17.8253 H   0  0  0  0  0  0
  -27.5787  -14.2538   19.4004 H   0  0  0  0  0  0
  -28.7674  -12.3434   21.4696 H   0  0  0  0  0  0
  -28.3605  -14.0212   21.7457 H   0  0  0  0  0  0
  -25.2774   -9.5664   22.4770 H   0  0  0  0  0  0
  -24.0001   -7.4620   22.7480 H   0  0  0  0  0  0
  -21.0852   -8.8774   19.8952 H   0  0  0  0  0  0
  -22.3721  -10.9664   19.6170 H   0  0  0  0  0  0
  -21.2005   -7.6145   23.9715 H   0  0  0  0  0  0
  -21.1483   -6.0521   25.9078 H   0  0  0  0  0  0
  -22.0598   -2.7607   23.2849 H   0  0  0  0  0  0
  -22.4060  -11.9835   22.4839 H   0  0  0  0  0  0
  -21.1045  -13.1182   22.2663 H   0  0  0  0  0  0
  -24.6171  -15.8313   20.5293 H   0  0  0  0  0  0
  -26.2489  -15.6534   20.1383 H   0  0  0  0  0  0
  -26.7292  -32.5271   23.0980 H   0  0  0  0  0  0
  -25.0074  -33.9592   25.0297 H   0  0  0  0  0  0
  -22.7575  -31.2856   21.3737 H   0  0  0  0  0  0
  -23.3761  -35.9571   23.3290 H   0  0  0  0  0  0
  -24.3574  -36.8897   22.2061 H   0  0  0  0  0  0
  -23.7240  -37.6433   23.6695 H   0  0  0  0  0  0
  -26.1719  -31.4525   20.6157 H   0  0  0  0  0  0
  -26.8803  -30.7539   22.0354 H   0  0  0  0  0  0
  -28.1404  -28.7644   21.2386 H   0  0  0  0  0  0
  -25.9136  -25.8335   18.9861 H   0  0  0  0  0  0
  -23.9862  -27.2936   18.9750 H   0  0  0  0  0  0
  -23.8239  -30.5568   19.3965 H   0  0  0  0  0  0
  -22.7959  -29.2292   19.8409 H   0  0  0  0  0  0
  -25.1317  -36.1843   25.0805 H   0  0  0  0  0  0
  -21.0015  -28.3321   24.1349 H   0  0  0  0  0  0
  -20.5682  -26.2342   23.3626 H   0  0  0  0  0  0
  -21.6656  -26.7426   22.1203 H   0  0  0  0  0  0
  -19.6924  -25.6284   21.1260 H   0  0  0  0  0  0
  -19.6700  -27.3176   20.6730 H   0  0  0  0  0  0
  -17.4214  -26.6678   21.4030 H   0  0  0  0  0  0
  -18.0347  -26.0083   22.9028 H   0  0  0  0  0  0
  -19.7956  -30.7300   24.2228 H   0  0  0  0  0  0
  -17.5028  -31.6270   24.5164 H   0  0  0  0  0  0
  -15.5366  -30.2976   23.7676 H   0  0  0  0  0  0
  -15.8693  -28.0811   22.7090 H   0  0  0  0  0  0
  -24.5893  -30.7100   25.7717 H   0  0  0  0  0  0
  -24.8884  -32.2945   26.4757 H   0  0  0  0  0  0
  -25.7976  -30.8976   27.0223 H   0  0  0  0  0  0
  -26.3038  -29.6661   24.1319 H   0  0  0  0  0  0
  -27.3989  -29.7265   25.4920 H   0  0  0  0  0  0
  -27.8958  -30.4176   23.9675 H   0  0  0  0  0  0
  -27.2637  -33.3660   26.2016 H   0  0  0  0  0  0
  -28.3900  -32.6862   25.0363 H   0  0  0  0  0  0
  -28.0680  -31.8507   26.5480 H   0  0  0  0  0  0
  -28.2584  -38.0086   24.7511 H   0  0  0  0  0  0
  -28.1080  -36.2614   24.6297 H   0  0  0  0  0  0
  -27.2290  -37.1431   25.8868 H   0  0  0  0  0  0
  -20.9494  -29.8754   21.6761 H   0  0  0  0  0  0
  -26.0150  -38.2804   24.1410 H   0  0  0  0  0  0
  -27.0591  -22.1918   21.8482 H   0  0  0  0  0  0
  -29.2382  -23.1672   19.0755 H   0  0  0  0  0  0
  -29.9644  -23.4450   20.6144 H   0  0  0  0  0  0
  -30.3348  -17.8561   19.2778 H   0  0  0  0  0  0
  -31.0655  -17.9061   20.8348 H   0  0  0  0  0  0
  -27.6970  -24.4893   21.4413 H   0  0  0  0  0  0
  -27.0863  -24.3055   19.8483 H   0  0  0  0  0  0
  -28.7943  -16.0217   20.7123 H   0  0  0  0  0  0
  1 25  1  0  0  0
  1 30  2  0  0  0
  1 81  1  0  0  0
  2  3  1  0  0  0
  2 25  1  0  0  0
  2 85  1  0  0  0
  2 86  1  0  0  0
  3  4  1  0  0  0
  3 87  1  0  0  0
  3 88  1  0  0  0
  4  5  1  0  0  0
  4 89  1  0  0  0
  4 90  1  0  0  0
  5  6  1  0  0  0
  5 26  1  0  0  0
  5 91  1  0  0  0
  6 25  1  0  0  0
  6 92  1  0  0  0
  6 93  1  0  0  0
  7  8  2  0  0  0
  7 26  1  0  0  0
  7 29  1  0  0  0
  8  9  1  0  0  0
  8 22  1  0  0  0
  9 10  1  0  0  0
  9 27  2  0  0  0
 10 11  2  0  0  0
 10 15  1  0  0  0
 11 12  1  0  0  0
 11 94  1  0  0  0
 12 13  2  0  0  0
 12 95  1  0  0  0
 13 14  1  0  0  0
 13 31  1  0  0  0
 14 15  2  0  0  0
 14 96  1  0  0  0
 15 97  1  0  0  0
 16 17  2  0  0  0
 16 21  1  0  0  0
 16 31  1  0  0  0
 17 18  1  0  0  0
 17 98  1  0  0  0
 18 19  2  0  0  0
 18 99  1  0  0  0
 19 20  1  0  0  0
 19 24  1  0  0  0
 20 21  2  0  0  0
 20100  1  0  0  0
 21 23  1  0  0  0
 22 28  1  0  0  0
 22 32  2  0  0  0
 26 27  1  0  0  0
 28101  1  0  0  0
 28102  1  0  0  0
 29103  1  0  0  0
 29104  1  0  0  0
 33 34  1  0  0  0
 33 66  1  0  0  0
 33 70  2  0  0  0
 34 36  1  0  0  0
 34 59  1  0  0  0
 34105  1  0  0  0
 35 44  2  0  0  0
 35 45  1  0  0  0
 35 68  1  0  0  0
 36 56  1  0  0  0
 36106  1  0  0  0
 37 39  1  0  0  0
 37 47  1  0  0  0
 37 66  1  0  0  0
 37107  1  0  0  0
 38 43  2  0  0  0
 38 46  1  0  0  0
 38 47  1  0  0  0
 39 64  1  0  0  0
 39 67  2  0  0  0
 40 52  1  0  0  0
 40 53  2  0  0  0
 40 58  1  0  0  0
 41108  1  0  0  0
 41109  1  0  0  0
 41110  1  0  0  0
 41 48  1  0  0  0
 42 43  1  0  0  0
 42 66  1  0  0  0
 42111  1  0  0  0
 42112  1  0  0  0
 43 44  1  0  0  0
 44113  1  0  0  0
 45 46  2  0  0  0
 45114  1  0  0  0
 46115  1  0  0  0
 47116  1  0  0  0
 47117  1  0  0  0
 48 56  1  0  0  0
 48 65  1  0  0  0
 48118  1  0  0  0
 49 50  1  0  0  0
 49 53  1  0  0  0
 49 64  1  0  0  0
 49119  1  0  0  0
 50 51  1  0  0  0
 50120  1  0  0  0
 50121  1  0  0  0
 51 52  1  0  0  0
 51122  1  0  0  0
 51123  1  0  0  0
 52124  1  0  0  0
 52125  1  0  0  0
 53 54  1  0  0  0
 54 55  2  0  0  0
 54126  1  0  0  0
 55 57  1  0  0  0
 55127  1  0  0  0
 56 69  2  0  0  0
 57 58  2  0  0  0
 57128  1  0  0  0
 58129  1  0  0  0
 59 60  1  0  0  0
 59 61  1  0  0  0
 59 62  1  0  0  0
 60130  1  0  0  0
 60131  1  0  0  0
 60132  1  0  0  0
 61133  1  0  0  0
 61134  1  0  0  0
 61135  1  0  0  0
 62136  1  0  0  0
 62137  1  0  0  0
 62138  1  0  0  0
 63 65  1  0  0  0
 63139  1  0  0  0
 63140  1  0  0  0
 63141  1  0  0  0
 64142  1  0  0  0
 65143  1  0  0  0
 68 77  1  0  0  0
 71 72  2  0  0  0
 71 79  1  0  0  0
 71144  1  0  0  0
 72 75  1  0  0  0
 72 80  1  0  0  0
 73 74  1  0  0  0
 73 76  1  0  0  0
 73 80  2  0  0  0
 74 78  1  0  0  0
 74 79  2  0  0  0
 75 77  1  0  0  0
 75145  1  0  0  0
 75146  1  0  0  0
 76 81  1  0  0  0
 76147  1  0  0  0
 76148  1  0  0  0
 77149  1  0  0  0
 77150  1  0  0  0
 78 82  1  0  0  0
 78 83  1  0  0  0
 78 84  1  0  0  0
 81151  1  0  0  0
M  ISO  4   1 100  68 101  77 101  81 100
M  END
> <chiral flag>
0

> <version>
0

> <s_m_source_file>
/data/baiqing/PycharmProjects/Reinvent-master-3.2/result/LINK_invent/BTK/process_docking_weight1_custom_sum_contain_oxygen_bond_distance_aromatic_linkinvent_7_9_3/rearranged_h_0048.sdf

> <i_m_source_file_index>
21

> <r_mmod_Potential_Energy-OPLS-2005>
667.3857421875

> <r_mmod_Stretch_Energy-OPLS-2005>
317.06005859375

> <r_mmod_Bend_Energy-OPLS-2005>
277.756072998047

> <r_mmod_Torsional_Energy-OPLS-2005>
213.483444213867

> <r_mmod_Improper_Torsional_Energy-OPLS-2005>
4.70509672164917

> <r_mmod_Van_der_Waal_Energy-OPLS-2005>
135.441558837891

> <r_mmod_Electrostatic_Energy-OPLS-2005>
-289.348693847656

> <r_mmod_Solvation_Energy-OPLS-2005>
-218.786254882812

> <b_mmod_Minimization_Converged-OPLS-2005>
0

> <r_mmod_RMS_Derivative-OPLS-2005>
0.128303274512291

$$$$
21
                    3D
 Structure written by MMmdl.
143151  0  0  1  0            999 V2000
  -30.2916  -15.5301   20.3369 C   0  0  0  0  0  0
  -30.4461  -12.9880   19.5551 C   0  0  0  0  0  0
  -29.5601  -12.6366   18.3241 C   0  0  0  0  0  0
  -28.1202  -12.3026   18.7496 C   0  0  0  0  0  0
  -27.6057  -13.2969   19.8151 C   0  0  2  0  0  0
  -28.6232  -13.5627   20.9458 C   0  0  0  0  0  0
  -25.2370  -13.8272   20.5759 C   0  0  0  0  0  0
  -24.1741  -13.0436   20.9255 C   0  0  0  0  0  0
  -24.6423  -11.6940   20.8739 C   0  0  0  0  0  0
  -23.9118  -10.4293   21.0388 C   0  0  0  0  0  0
  -24.3654   -9.4208   21.9174 C   0  0  0  0  0  0
  -23.6313   -8.2251   22.0753 C   0  0  0  0  0  0
  -22.4292   -8.0291   21.3546 C   0  0  0  0  0  0
  -21.9938   -9.0265   20.4645 C   0  0  0  0  0  0
  -22.7282  -10.2135   20.3045 C   0  0  0  0  0  0
  -21.6859   -6.0743   22.5279 C   0  0  0  0  0  0
  -21.4020   -6.5645   23.8213 C   0  0  0  0  0  0
  -21.3660   -5.6796   24.9174 C   0  0  0  0  0  0
  -21.6042   -4.3058   24.7223 C   0  0  0  0  0  0
  -21.8819   -3.8151   23.4345 C   0  0  0  0  0  0
  -21.9195   -4.6969   22.3403 C   0  0  0  0  0  0
  -22.7754  -13.5174   21.1909 C   0  0  0  0  0  0
  -22.1661   -4.2154   21.0979 F   0  0  0  0  0  0
  -21.5627   -3.4540   25.7736 F   0  0  0  0  0  0
  -29.8332  -14.1491   20.3309 N   0  0  0  0  0  0
  -26.2807  -12.9581   20.3184 N   0  0  0  0  0  0
  -25.9365  -11.6664   20.5668 N   0  0  0  0  0  0
  -22.0421  -12.8150   22.0464 N   0  0  0  0  0  0
  -25.3994  -15.2014   20.4239 N   0  0  0  0  0  0
  -31.5169  -15.5301   20.1084 O   0  0  0  0  0  0
  -21.6650   -6.8890   21.4244 O   0  0  0  0  0  0
  -22.3422  -14.5474   20.6753 O   0  0  0  0  0  0
  -24.6791  -31.8056   23.1560 C   0  0  0  0  0  0
  -25.9394  -32.4495   23.8088 C   0  0  1  0  0  0
  -27.2267  -26.7584   20.2079 C   0  0  0  0  0  0
  -25.5993  -33.8318   24.1980 N   0  0  0  0  0  0
  -23.5028  -30.4103   21.5087 C   0  0  2  0  0  0
  -24.9603  -28.7635   20.1167 C   0  0  0  0  0  0
  -22.7747  -29.4346   22.4724 C   0  0  0  0  0  0
  -18.0336  -28.1420   22.8460 C   0  0  0  0  0  0
  -24.1493  -36.7166   23.2652 C   0  0  0  0  0  0
  -26.0813  -30.5574   21.4123 C   0  0  0  0  0  0
  -26.1486  -29.1284   20.7611 C   0  0  0  0  0  0
  -27.2699  -28.1529   20.7751 C   0  0  0  0  0  0
  -26.0058  -26.5906   19.5078 C   0  0  0  0  0  0
  -24.9249  -27.5189   19.4664 C   0  0  0  0  0  0
  -23.7539  -29.7121   20.1420 C   0  0  0  0  0  0
  -25.4140  -36.2911   24.0287 C   0  0  1  0  0  0
  -20.5971  -28.3776   23.1151 C   0  0  2  0  0  0
  -20.6806  -26.9441   22.5401 C   0  0  0  0  0  0
  -19.5779  -26.6373   21.5216 C   0  0  0  0  0  0
  -18.1962  -26.7951   22.1620 C   0  0  0  0  0  0
  -19.1603  -28.8922   23.2788 C   0  0  0  0  0  0
  -18.9508  -30.1507   23.8831 C   0  0  0  0  0  0
  -17.6499  -30.6605   24.0553 C   0  0  0  0  0  0
  -25.9117  -34.9301   23.4965 C   0  0  0  0  0  0
  -16.5389  -29.9088   23.6349 C   0  0  0  0  0  0
  -16.7317  -28.6510   23.0367 C   0  0  0  0  0  0
  -26.4589  -31.6509   25.0688 C   0  0  0  0  0  0
  -25.3668  -31.3813   26.1311 C   0  0  0  0  0  0
  -27.0512  -30.2854   24.6546 C   0  0  0  0  0  0
  -27.6044  -32.4360   25.7503 C   0  0  0  0  0  0
  -27.5563  -37.1738   24.8466 C   0  0  0  0  0  0
  -21.4400  -29.3034   22.3478 N   0  0  0  0  0  0
  -26.4269  -37.3667   23.9411 N   0  0  0  0  0  0
  -24.7773  -30.9558   22.0784 N   0  0  0  0  0  0
  -23.4215  -28.7937   23.3041 O   0  0  0  0  0  0
  -28.1902  -25.5588   20.2817 O   0  0  0  0  0  0
  -26.5750  -34.8869   22.4577 O   0  0  0  0  0  0
  -23.5821  -32.1104   23.6546 O   0  0  0  0  0  0
  -29.2625  -19.9763   21.4427 C   0  0  0  0  0  0
  -28.7448  -21.1629   19.1657 C   0  0  0  0  0  0
  -29.3695  -18.9477   20.3683 C   0  0  0  0  0  0
  -28.6591  -22.1968   20.2347 C   0  0  0  0  0  0
  -29.3423  -17.1053   20.5024 C   0  0  0  0  0  0
  -27.8652  -23.8649   20.1541 C   0  0  0  0  0  0
  -29.0497  -19.7315   19.2235 N   0  0  0  0  0  0
  -28.9422  -21.4062   21.3865 N   0  0  0  0  0  0
  -31.4490  -13.2387   19.2077 H   0  0  0  0  0  0
  -30.5760  -12.1160   20.1983 H   0  0  0  0  0  0
  -29.9918  -11.8032   17.7687 H   0  0  0  0  0  0
  -29.5468  -13.4868   17.6405 H   0  0  0  0  0  0
  -28.1209  -11.2936   19.1634 H   0  0  0  0  0  0
  -27.4564  -12.2808   17.8847 H   0  0  0  0  0  0
  -27.4913  -14.2384   19.2762 H   0  0  0  0  0  0
  -28.8424  -12.6551   21.5105 H   0  0  0  0  0  0
  -28.2089  -14.2754   21.6603 H   0  0  0  0  0  0
  -25.2795   -9.5683   22.4755 H   0  0  0  0  0  0
  -24.0015   -7.4645   22.7480 H   0  0  0  0  0  0
  -21.0866   -8.8792   19.8953 H   0  0  0  0  0  0
  -22.3739  -10.9675   19.6157 H   0  0  0  0  0  0
  -21.2015   -7.6154   23.9719 H   0  0  0  0  0  0
  -21.1480   -6.0525   25.9077 H   0  0  0  0  0  0
  -22.0596   -2.7612   23.2844 H   0  0  0  0  0  0
  -22.4062  -11.9822   22.4852 H   0  0  0  0  0  0
  -21.1032  -13.1151   22.2676 H   0  0  0  0  0  0
  -24.6296  -15.8510   20.5435 H   0  0  0  0  0  0
  -26.2460  -15.6476   20.0963 H   0  0  0  0  0  0
  -26.7474  -32.4985   23.0802 H   0  0  0  0  0  0
  -25.0068  -33.9366   25.0083 H   0  0  0  0  0  0
  -22.8254  -31.2464   21.3232 H   0  0  0  0  0  0
  -23.3770  -35.9479   23.3267 H   0  0  0  0  0  0
  -24.3564  -36.8869   22.2075 H   0  0  0  0  0  0
  -23.7236  -37.6329   23.6753 H   0  0  0  0  0  0
  -26.2787  -31.2863   20.6250 H   0  0  0  0  0  0
  -26.9346  -30.6229   22.0750 H   0  0  0  0  0  0
  -28.1646  -28.4371   21.3107 H   0  0  0  0  0  0
  -25.8451  -25.6475   19.0061 H   0  0  0  0  0  0
  -24.0275  -27.2316   18.9359 H   0  0  0  0  0  0
  -23.9248  -30.4744   19.3810 H   0  0  0  0  0  0
  -22.8599  -29.1758   19.8187 H   0  0  0  0  0  0
  -25.1345  -36.1680   25.0777 H   0  0  0  0  0  0
  -21.0056  -28.3396   24.1277 H   0  0  0  0  0  0
  -20.5672  -26.2399   23.3658 H   0  0  0  0  0  0
  -21.6667  -26.7389   22.1216 H   0  0  0  0  0  0
  -19.6936  -25.6266   21.1288 H   0  0  0  0  0  0
  -19.6721  -27.3148   20.6720 H   0  0  0  0  0  0
  -17.4231  -26.6693   21.4025 H   0  0  0  0  0  0
  -18.0352  -26.0110   22.9033 H   0  0  0  0  0  0
  -19.7984  -30.7342   24.2167 H   0  0  0  0  0  0
  -17.5051  -31.6277   24.5169 H   0  0  0  0  0  0
  -15.5387  -30.2969   23.7713 H   0  0  0  0  0  0
  -15.8718  -28.0807   22.7120 H   0  0  0  0  0  0
  -24.5875  -30.7138   25.7615 H   0  0  0  0  0  0
  -24.8833  -32.3033   26.4553 H   0  0  0  0  0  0
  -25.7858  -30.9099   27.0210 H   0  0  0  0  0  0
  -26.3220  -29.6482   24.1533 H   0  0  0  0  0  0
  -27.3957  -29.7279   25.5267 H   0  0  0  0  0  0
  -27.9193  -30.3992   24.0051 H   0  0  0  0  0  0
  -27.2587  -33.3727   26.1890 H   0  0  0  0  0  0
  -28.3954  -32.6816   25.0404 H   0  0  0  0  0  0
  -28.0604  -31.8618   26.5579 H   0  0  0  0  0  0
  -28.2547  -38.0064   24.7518 H   0  0  0  0  0  0
  -28.1091  -36.2587   24.6286 H   0  0  0  0  0  0
  -27.2282  -37.1367   25.8869 H   0  0  0  0  0  0
  -20.9690  -29.8701   21.6563 H   0  0  0  0  0  0
  -26.0099  -38.2714   24.1430 H   0  0  0  0  0  0
  -29.3642  -19.6175   22.4566 H   0  0  0  0  0  0
  -28.4722  -21.4854   18.1713 H   0  0  0  0  0  0
  -28.4831  -16.8755   19.8738 H   0  0  0  0  0  0
  -28.9512  -16.9857   21.5120 H   0  0  0  0  0  0
  -27.0465  -23.7469   20.8637 H   0  0  0  0  0  0
  -27.3711  -23.8108   19.1845 H   0  0  0  0  0  0
  1 25  1  0  0  0
  1 30  2  0  0  0
  1 75  1  0  0  0
  2  3  1  0  0  0
  2 25  1  0  0  0
  2 79  1  0  0  0
  2 80  1  0  0  0
  3  4  1  0  0  0
  3 81  1  0  0  0
  3 82  1  0  0  0
  4  5  1  0  0  0
  4 83  1  0  0  0
  4 84  1  0  0  0
  5  6  1  0  0  0
  5 26  1  0  0  0
  5 85  1  0  0  0
  6 25  1  0  0  0
  6 86  1  0  0  0
  6 87  1  0  0  0
  7  8  2  0  0  0
  7 26  1  0  0  0
  7 29  1  0  0  0
  8  9  1  0  0  0
  8 22  1  0  0  0
  9 10  1  0  0  0
  9 27  2  0  0  0
 10 11  2  0  0  0
 10 15  1  0  0  0
 11 12  1  0  0  0
 11 88  1  0  0  0
 12 13  2  0  0  0
 12 89  1  0  0  0
 13 14  1  0  0  0
 13 31  1  0  0  0
 14 15  2  0  0  0
 14 90  1  0  0  0
 15 91  1  0  0  0
 16 17  2  0  0  0
 16 21  1  0  0  0
 16 31  1  0  0  0
 17 18  1  0  0  0
 17 92  1  0  0  0
 18 19  2  0  0  0
 18 93  1  0  0  0
 19 20  1  0  0  0
 19 24  1  0  0  0
 20 21  2  0  0  0
 20 94  1  0  0  0
 21 23  1  0  0  0
 22 28  1  0  0  0
 22 32  2  0  0  0
 26 27  1  0  0  0
 28 95  1  0  0  0
 28 96  1  0  0  0
 29 97  1  0  0  0
 29 98  1  0  0  0
 33 34  1  0  0  0
 33 66  1  0  0  0
 33 70  2  0  0  0
 34 36  1  0  0  0
 34 59  1  0  0  0
 34 99  1  0  0  0
 35 44  2  0  0  0
 35 45  1  0  0  0
 35 68  1  0  0  0
 36 56  1  0  0  0
 36100  1  0  0  0
 37 39  1  0  0  0
 37 47  1  0  0  0
 37 66  1  0  0  0
 37101  1  0  0  0
 38 43  2  0  0  0
 38 46  1  0  0  0
 38 47  1  0  0  0
 39 64  1  0  0  0
 39 67  2  0  0  0
 40 52  1  0  0  0
 40 53  2  0  0  0
 40 58  1  0  0  0
 41102  1  0  0  0
 41103  1  0  0  0
 41104  1  0  0  0
 41 48  1  0  0  0
 42 43  1  0  0  0
 42 66  1  0  0  0
 42105  1  0  0  0
 42106  1  0  0  0
 43 44  1  0  0  0
 44107  1  0  0  0
 45 46  2  0  0  0
 45108  1  0  0  0
 46109  1  0  0  0
 47110  1  0  0  0
 47111  1  0  0  0
 48 56  1  0  0  0
 48 65  1  0  0  0
 48112  1  0  0  0
 49 50  1  0  0  0
 49 53  1  0  0  0
 49 64  1  0  0  0
 49113  1  0  0  0
 50 51  1  0  0  0
 50114  1  0  0  0
 50115  1  0  0  0
 51 52  1  0  0  0
 51116  1  0  0  0
 51117  1  0  0  0
 52118  1  0  0  0
 52119  1  0  0  0
 53 54  1  0  0  0
 54 55  2  0  0  0
 54120  1  0  0  0
 55 57  1  0  0  0
 55121  1  0  0  0
 56 69  2  0  0  0
 57 58  2  0  0  0
 57122  1  0  0  0
 58123  1  0  0  0
 59 60  1  0  0  0
 59 61  1  0  0  0
 59 62  1  0  0  0
 60124  1  0  0  0
 60125  1  0  0  0
 60126  1  0  0  0
 61127  1  0  0  0
 61128  1  0  0  0
 61129  1  0  0  0
 62130  1  0  0  0
 62131  1  0  0  0
 62132  1  0  0  0
 63 65  1  0  0  0
 63133  1  0  0  0
 63134  1  0  0  0
 63135  1  0  0  0
 64136  1  0  0  0
 65137  1  0  0  0
 68 76  1  0  0  0
 71 73  2  0  0  0
 71 78  1  0  0  0
 71138  1  0  0  0
 72 74  1  0  0  0
 72 77  2  0  0  0
 72139  1  0  0  0
 73 75  1  0  0  0
 73 77  1  0  0  0
 74 76  1  0  0  0
 74 78  2  0  0  0
 75140  1  0  0  0
 75141  1  0  0  0
 76142  1  0  0  0
 76143  1  0  0  0
M  ISO  4   1 100  68 101  75 100  76 101
M  END
> <chiral flag>
0

> <version>
0

> <s_m_source_file>
/data/baiqing/PycharmProjects/Reinvent-master-3.2/result/LINK_invent/BTK/process_docking_weight1_custom_sum_contain_oxygen_bond_distance_aromatic_linkinvent_7_9_3/rearranged_h_0048.sdf

> <i_m_source_file_index>
22

> <r_mmod_Potential_Energy-OPLS-2005>
2190.23046875

> <r_mmod_Stretch_Energy-OPLS-2005>
883.219482421875

> <r_mmod_Bend_Energy-OPLS-2005>
642.933715820312

> <r_mmod_Torsional_Energy-OPLS-2005>
200.003601074219

> <r_mmod_Improper_Torsional_Energy-OPLS-2005>
8.60060405731201

> <r_mmod_Van_der_Waal_Energy-OPLS-2005>
132.135696411133

> <r_mmod_Electrostatic_Energy-OPLS-2005>
-217.512603759766

> <r_mmod_Solvation_Energy-OPLS-2005>
-229.494674682617

> <b_mmod_Minimization_Converged-OPLS-2005>
0

> <r_mmod_RMS_Derivative-OPLS-2005>
0.354061812162399

$$$$
22
                    3D
 Structure written by MMmdl.
151159  0  0  1  0            999 V2000
  -30.4620  -15.2203   20.3772 C   0  0  0  0  0  0
  -30.4354  -12.7784   19.5208 C   0  0  0  0  0  0
  -29.5305  -12.5681   18.2819 C   0  0  0  0  0  0
  -28.0779  -12.2995   18.7110 C   0  0  0  0  0  0
  -27.6120  -13.2709   19.8240 C   0  0  2  0  0  0
  -28.6474  -13.4335   20.9567 C   0  0  0  0  0  0
  -25.2389  -13.8237   20.5752 C   0  0  0  0  0  0
  -24.1739  -13.0430   20.9262 C   0  0  0  0  0  0
  -24.6386  -11.6925   20.8760 C   0  0  0  0  0  0
  -23.9079  -10.4288   21.0406 C   0  0  0  0  0  0
  -24.3626   -9.4202   21.9184 C   0  0  0  0  0  0
  -23.6304   -8.2236   22.0751 C   0  0  0  0  0  0
  -22.4286   -8.0275   21.3541 C   0  0  0  0  0  0
  -21.9919   -9.0246   20.4642 C   0  0  0  0  0  0
  -22.7248  -10.2127   20.3055 C   0  0  0  0  0  0
  -21.6857   -6.0734   22.5280 C   0  0  0  0  0  0
  -21.4016   -6.5640   23.8210 C   0  0  0  0  0  0
  -21.3660   -5.6796   24.9173 C   0  0  0  0  0  0
  -21.6045   -4.3057   24.7228 C   0  0  0  0  0  0
  -21.8817   -3.8145   23.4349 C   0  0  0  0  0  0
  -21.9195   -4.6962   22.3404 C   0  0  0  0  0  0
  -22.7758  -13.5185   21.1913 C   0  0  0  0  0  0
  -22.1665   -4.2144   21.0984 F   0  0  0  0  0  0
  -21.5627   -3.4543   25.7741 F   0  0  0  0  0  0
  -29.8837  -13.9243   20.3284 N   0  0  0  0  0  0
  -26.2814  -12.9504   20.3226 N   0  0  0  0  0  0
  -25.9322  -11.6612   20.5722 N   0  0  0  0  0  0
  -22.0425  -12.8156   22.0466 N   0  0  0  0  0  0
  -25.4019  -15.1971   20.4186 N   0  0  0  0  0  0
  -31.6843  -15.2152   20.1764 O   0  0  0  0  0  0
  -21.6647   -6.8875   21.4240 O   0  0  0  0  0  0
  -22.3433  -14.5490   20.6760 O   0  0  0  0  0  0
  -24.6614  -31.8263   23.1737 C   0  0  0  0  0  0
  -25.9302  -32.4612   23.8185 C   0  0  1  0  0  0
  -27.2162  -26.9539   20.1742 C   0  0  0  0  0  0
  -25.5983  -33.8422   24.2099 N   0  0  0  0  0  0
  -23.4748  -30.4406   21.5214 C   0  0  2  0  0  0
  -24.9275  -28.8355   20.1111 C   0  0  0  0  0  0
  -22.7661  -29.4456   22.4778 C   0  0  0  0  0  0
  -18.0324  -28.1418   22.8471 C   0  0  0  0  0  0
  -24.1487  -36.7208   23.2646 C   0  0  0  0  0  0
  -26.0437  -30.6414   21.4002 C   0  0  0  0  0  0
  -26.1119  -29.2343   20.7434 C   0  0  0  0  0  0
  -27.2522  -28.3140   20.7526 C   0  0  0  0  0  0
  -26.0031  -26.7076   19.4906 C   0  0  0  0  0  0
  -24.8968  -27.5915   19.4653 C   0  0  0  0  0  0
  -23.7136  -29.7609   20.1462 C   0  0  0  0  0  0
  -25.4126  -36.2978   24.0303 C   0  0  1  0  0  0
  -20.5946  -28.3755   23.1193 C   0  0  2  0  0  0
  -20.6797  -26.9438   22.5403 C   0  0  0  0  0  0
  -19.5768  -26.6388   21.5215 C   0  0  0  0  0  0
  -18.1952  -26.7952   22.1624 C   0  0  0  0  0  0
  -19.1583  -28.8903   23.2823 C   0  0  0  0  0  0
  -18.9495  -30.1493   23.8863 C   0  0  0  0  0  0
  -17.6488  -30.6608   24.0560 C   0  0  0  0  0  0
  -25.9091  -34.9365   23.5018 C   0  0  0  0  0  0
  -16.5378  -29.9099   23.6351 C   0  0  0  0  0  0
  -16.7304  -28.6516   23.0374 C   0  0  0  0  0  0
  -26.4561  -31.6548   25.0700 C   0  0  0  0  0  0
  -25.3699  -31.3795   26.1363 C   0  0  0  0  0  0
  -27.0451  -30.2921   24.6410 C   0  0  0  0  0  0
  -27.6055  -32.4351   25.7508 C   0  0  0  0  0  0
  -27.5564  -37.1761   24.8466 C   0  0  0  0  0  0
  -21.4326  -29.3052   22.3537 N   0  0  0  0  0  0
  -26.4269  -37.3715   23.9409 N   0  0  0  0  0  0
  -24.7479  -30.9955   22.0857 N   0  0  0  0  0  0
  -23.4219  -28.8018   23.2998 O   0  0  0  0  0  0
  -28.2043  -25.8429   20.2553 O   0  0  0  0  0  0
  -26.5687  -34.8898   22.4605 O   0  0  0  0  0  0
  -23.5690  -32.1215   23.6853 O   0  0  0  0  0  0
  -28.5565  -20.4042   21.2575 C   0  0  0  0  0  0
  -29.3889  -19.6695   20.3101 C   0  0  0  0  0  0
  -29.4364  -21.9751   19.2888 C   0  0  0  0  0  0
  -28.6011  -22.7105   20.2403 C   0  0  0  0  0  0
  -31.4003  -23.2510   18.3143 C   0  0  0  0  0  0
  -29.9866  -22.7061   18.0752 C   0  0  0  0  0  0
  -30.1398  -18.0956   20.4356 C   0  0  0  0  0  0
  -27.8238  -24.2660   20.0470 C   0  0  0  0  0  0
  -28.1820  -21.7847   21.2090 N   0  0  0  0  0  0
  -29.8106  -20.5957   19.3470 N   0  0  0  0  0  0
  -29.7187  -16.4940   20.4495 N   0  0  0  0  0  0
  -31.4570  -12.9735   19.1924 H   0  0  0  0  0  0
  -30.4890  -11.8690   20.1214 H   0  0  0  0  0  0
  -29.9025  -11.7432   17.6725 H   0  0  0  0  0  0
  -29.5653  -13.4573   17.6506 H   0  0  0  0  0  0
  -28.0292  -11.2738   19.0788 H   0  0  0  0  0  0
  -27.4082  -12.3496   17.8518 H   0  0  0  0  0  0
  -27.5311  -14.2407   19.3321 H   0  0  0  0  0  0
  -28.8052  -12.4970   21.4937 H   0  0  0  0  0  0
  -28.2950  -14.1589   21.6914 H   0  0  0  0  0  0
  -25.2764   -9.5689   22.4764 H   0  0  0  0  0  0
  -24.0015   -7.4628   22.7467 H   0  0  0  0  0  0
  -21.0853   -8.8762   19.8945 H   0  0  0  0  0  0
  -22.3699  -10.9666   19.6168 H   0  0  0  0  0  0
  -21.2009   -7.6149   23.9710 H   0  0  0  0  0  0
  -21.1485   -6.0530   25.9077 H   0  0  0  0  0  0
  -22.0594   -2.7608   23.2852 H   0  0  0  0  0  0
  -22.4072  -11.9824   22.4842 H   0  0  0  0  0  0
  -21.1033  -13.1140   22.2679 H   0  0  0  0  0  0
  -24.6286  -15.8446   20.5281 H   0  0  0  0  0  0
  -26.2402  -15.6382   20.0644 H   0  0  0  0  0  0
  -26.7367  -32.5161   23.0899 H   0  0  0  0  0  0
  -25.0110  -33.9501   25.0236 H   0  0  0  0  0  0
  -22.7873  -31.2723   21.3536 H   0  0  0  0  0  0
  -23.3764  -35.9524   23.3281 H   0  0  0  0  0  0
  -24.3568  -36.8878   22.2067 H   0  0  0  0  0  0
  -23.7233  -37.6387   23.6708 H   0  0  0  0  0  0
  -26.2209  -31.3844   20.6211 H   0  0  0  0  0  0
  -26.9055  -30.6973   22.0530 H   0  0  0  0  0  0
  -28.1461  -28.6151   21.2799 H   0  0  0  0  0  0
  -25.8632  -25.7621   18.9897 H   0  0  0  0  0  0
  -23.9971  -27.2809   18.9517 H   0  0  0  0  0  0
  -23.8700  -30.5313   19.3901 H   0  0  0  0  0  0
  -22.8237  -29.2155   19.8269 H   0  0  0  0  0  0
  -25.1330  -36.1771   25.0794 H   0  0  0  0  0  0
  -21.0041  -28.3357   24.1312 H   0  0  0  0  0  0
  -20.5678  -26.2372   23.3641 H   0  0  0  0  0  0
  -21.6661  -26.7424   22.1202 H   0  0  0  0  0  0
  -19.6924  -25.6291   21.1271 H   0  0  0  0  0  0
  -19.6708  -27.3173   20.6722 H   0  0  0  0  0  0
  -17.4221  -26.6702   21.4027 H   0  0  0  0  0  0
  -18.0342  -26.0111   22.9035 H   0  0  0  0  0  0
  -19.7970  -30.7318   24.2219 H   0  0  0  0  0  0
  -17.5047  -31.6286   24.5168 H   0  0  0  0  0  0
  -15.5379  -30.2995   23.7697 H   0  0  0  0  0  0
  -15.8703  -28.0824   22.7120 H   0  0  0  0  0  0
  -24.5892  -30.7130   25.7681 H   0  0  0  0  0  0
  -24.8876  -32.2999   26.4665 H   0  0  0  0  0  0
  -25.7947  -30.9054   27.0219 H   0  0  0  0  0  0
  -26.3113  -29.6608   24.1387 H   0  0  0  0  0  0
  -27.3965  -29.7274   25.5054 H   0  0  0  0  0  0
  -27.9067  -30.4115   23.9838 H   0  0  0  0  0  0
  -27.2619  -33.3693   26.1962 H   0  0  0  0  0  0
  -28.3937  -32.6843   25.0390 H   0  0  0  0  0  0
  -28.0635  -31.8555   26.5530 H   0  0  0  0  0  0
  -28.2570  -38.0069   24.7520 H   0  0  0  0  0  0
  -28.1077  -36.2600   24.6291 H   0  0  0  0  0  0
  -27.2286  -37.1408   25.8871 H   0  0  0  0  0  0
  -20.9565  -29.8760   21.6693 H   0  0  0  0  0  0
  -26.0120  -38.2771   24.1433 H   0  0  0  0  0  0
  -28.1925  -19.8761   22.1271 H   0  0  0  0  0  0
  -31.7620  -23.7874   17.4369 H   0  0  0  0  0  0
  -32.1042  -22.4458   18.5261 H   0  0  0  0  0  0
  -31.4176  -23.9438   19.1563 H   0  0  0  0  0  0
  -29.3210  -23.5212   17.7932 H   0  0  0  0  0  0
  -29.9976  -22.0249   17.2231 H   0  0  0  0  0  0
  -30.7132  -18.1927   21.3573 H   0  0  0  0  0  0
  -30.9041  -18.1321   19.6594 H   0  0  0  0  0  0
  -26.9141  -24.1528   20.6366 H   0  0  0  0  0  0
  -27.4732  -24.2224   19.0167 H   0  0  0  0  0  0
  -28.7242  -16.3539   20.5466 H   0  0  0  0  0  0
  1 25  1  0  0  0
  1 30  2  0  0  0
  1 81  1  0  0  0
  2  3  1  0  0  0
  2 25  1  0  0  0
  2 82  1  0  0  0
  2 83  1  0  0  0
  3  4  1  0  0  0
  3 84  1  0  0  0
  3 85  1  0  0  0
  4  5  1  0  0  0
  4 86  1  0  0  0
  4 87  1  0  0  0
  5  6  1  0  0  0
  5 26  1  0  0  0
  5 88  1  0  0  0
  6 25  1  0  0  0
  6 89  1  0  0  0
  6 90  1  0  0  0
  7  8  2  0  0  0
  7 26  1  0  0  0
  7 29  1  0  0  0
  8  9  1  0  0  0
  8 22  1  0  0  0
  9 10  1  0  0  0
  9 27  2  0  0  0
 10 11  2  0  0  0
 10 15  1  0  0  0
 11 12  1  0  0  0
 11 91  1  0  0  0
 12 13  2  0  0  0
 12 92  1  0  0  0
 13 14  1  0  0  0
 13 31  1  0  0  0
 14 15  2  0  0  0
 14 93  1  0  0  0
 15 94  1  0  0  0
 16 17  2  0  0  0
 16 21  1  0  0  0
 16 31  1  0  0  0
 17 18  1  0  0  0
 17 95  1  0  0  0
 18 19  2  0  0  0
 18 96  1  0  0  0
 19 20  1  0  0  0
 19 24  1  0  0  0
 20 21  2  0  0  0
 20 97  1  0  0  0
 21 23  1  0  0  0
 22 28  1  0  0  0
 22 32  2  0  0  0
 26 27  1  0  0  0
 28 98  1  0  0  0
 28 99  1  0  0  0
 29100  1  0  0  0
 29101  1  0  0  0
 33 34  1  0  0  0
 33 66  1  0  0  0
 33 70  2  0  0  0
 34 36  1  0  0  0
 34 59  1  0  0  0
 34102  1  0  0  0
 35 44  2  0  0  0
 35 45  1  0  0  0
 35 68  1  0  0  0
 36 56  1  0  0  0
 36103  1  0  0  0
 37 39  1  0  0  0
 37 47  1  0  0  0
 37 66  1  0  0  0
 37104  1  0  0  0
 38 43  2  0  0  0
 38 46  1  0  0  0
 38 47  1  0  0  0
 39 64  1  0  0  0
 39 67  2  0  0  0
 40 52  1  0  0  0
 40 53  2  0  0  0
 40 58  1  0  0  0
 41105  1  0  0  0
 41106  1  0  0  0
 41107  1  0  0  0
 41 48  1  0  0  0
 42 43  1  0  0  0
 42 66  1  0  0  0
 42108  1  0  0  0
 42109  1  0  0  0
 43 44  1  0  0  0
 44110  1  0  0  0
 45 46  2  0  0  0
 45111  1  0  0  0
 46112  1  0  0  0
 47113  1  0  0  0
 47114  1  0  0  0
 48 56  1  0  0  0
 48 65  1  0  0  0
 48115  1  0  0  0
 49 50  1  0  0  0
 49 53  1  0  0  0
 49 64  1  0  0  0
 49116  1  0  0  0
 50 51  1  0  0  0
 50117  1  0  0  0
 50118  1  0  0  0
 51 52  1  0  0  0
 51119  1  0  0  0
 51120  1  0  0  0
 52121  1  0  0  0
 52122  1  0  0  0
 53 54  1  0  0  0
 54 55  2  0  0  0
 54123  1  0  0  0
 55 57  1  0  0  0
 55124  1  0  0  0
 56 69  2  0  0  0
 57 58  2  0  0  0
 57125  1  0  0  0
 58126  1  0  0  0
 59 60  1  0  0  0
 59 61  1  0  0  0
 59 62  1  0  0  0
 60127  1  0  0  0
 60128  1  0  0  0
 60129  1  0  0  0
 61130  1  0  0  0
 61131  1  0  0  0
 61132  1  0  0  0
 62133  1  0  0  0
 62134  1  0  0  0
 62135  1  0  0  0
 63 65  1  0  0  0
 63136  1  0  0  0
 63137  1  0  0  0
 63138  1  0  0  0
 64139  1  0  0  0
 65140  1  0  0  0
 68 78  1  0  0  0
 71 72  2  0  0  0
 71 79  1  0  0  0
 71141  1  0  0  0
 72 77  1  0  0  0
 72 80  1  0  0  0
 73 74  1  0  0  0
 73 76  1  0  0  0
 73 80  2  0  0  0
 74 78  1  0  0  0
 74 79  2  0  0  0
 75 76  1  0  0  0
 75142  1  0  0  0
 75143  1  0  0  0
 75144  1  0  0  0
 76145  1  0  0  0
 76146  1  0  0  0
 77 81  1  0  0  0
 77147  1  0  0  0
 77148  1  0  0  0
 78149  1  0  0  0
 78150  1  0  0  0
 81151  1  0  0  0
M  ISO  4   1 100  68 101  78 101  81 100
M  END
> <chiral flag>
0

> <version>
0

> <s_m_source_file>
/data/baiqing/PycharmProjects/Reinvent-master-3.2/result/LINK_invent/BTK/process_docking_weight1_custom_sum_contain_oxygen_bond_distance_aromatic_linkinvent_7_9_3/rearranged_h_0048.sdf

> <i_m_source_file_index>
23

> <r_mmod_Potential_Energy-OPLS-2005>
1138.61499023438

> <r_mmod_Stretch_Energy-OPLS-2005>
491.307220458984

> <r_mmod_Bend_Energy-OPLS-2005>
431.782318115234

> <r_mmod_Torsional_Energy-OPLS-2005>
213.134979248047

> <r_mmod_Improper_Torsional_Energy-OPLS-2005>
8.40931415557861

> <r_mmod_Van_der_Waal_Energy-OPLS-2005>
131.821426391602

> <r_mmod_Electrostatic_Energy-OPLS-2005>
-322.383331298828

> <r_mmod_Solvation_Energy-OPLS-2005>
-234.72770690918

> <b_mmod_Minimization_Converged-OPLS-2005>
0

> <r_mmod_RMS_Derivative-OPLS-2005>
0.952482223510742

$$$$
23
                    3D
 Structure written by MMmdl.
150158  0  0  1  0            999 V2000
  -30.5315  -15.0205   20.4024 C   0  0  0  0  0  0
  -30.4358  -12.6383   19.5032 C   0  0  0  0  0  0
  -29.5214  -12.5353   18.2607 C   0  0  0  0  0  0
  -28.0581  -12.3094   18.6828 C   0  0  0  0  0  0
  -27.6227  -13.2562   19.8315 C   0  0  2  0  0  0
  -28.6643  -13.3290   20.9675 C   0  0  0  0  0  0
  -25.2432  -13.8226   20.5724 C   0  0  0  0  0  0
  -24.1761  -13.0437   20.9238 C   0  0  0  0  0  0
  -24.6391  -11.6927   20.8758 C   0  0  0  0  0  0
  -23.9080  -10.4292   21.0408 C   0  0  0  0  0  0
  -24.3628   -9.4206   21.9186 C   0  0  0  0  0  0
  -23.6300   -8.2243   22.0754 C   0  0  0  0  0  0
  -22.4282   -8.0281   21.3545 C   0  0  0  0  0  0
  -21.9920   -9.0254   20.4646 C   0  0  0  0  0  0
  -22.7252  -10.2132   20.3056 C   0  0  0  0  0  0
  -21.6855   -6.0736   22.5279 C   0  0  0  0  0  0
  -21.4016   -6.5640   23.8212 C   0  0  0  0  0  0
  -21.3660   -5.6793   24.9174 C   0  0  0  0  0  0
  -21.6044   -4.3055   24.7225 C   0  0  0  0  0  0
  -21.8819   -3.8147   23.4346 C   0  0  0  0  0  0
  -21.9194   -4.6963   22.3402 C   0  0  0  0  0  0
  -22.7781  -13.5201   21.1892 C   0  0  0  0  0  0
  -22.1662   -4.2149   21.0980 F   0  0  0  0  0  0
  -21.5628   -3.4539   25.7738 F   0  0  0  0  0  0
  -29.9281  -13.7574   20.3553 N   0  0  0  0  0  0
  -26.2856  -12.9472   20.3234 N   0  0  0  0  0  0
  -25.9324  -11.6594   20.5736 N   0  0  0  0  0  0
  -22.0436  -12.8183   22.0446 N   0  0  0  0  0  0
  -25.4080  -15.1956   20.4153 N   0  0  0  0  0  0
  -31.7447  -15.0462   20.1672 O   0  0  0  0  0  0
  -21.6643   -6.8879   21.4241 O   0  0  0  0  0  0
  -22.3460  -14.5504   20.6735 O   0  0  0  0  0  0
  -24.6489  -31.8387   23.1831 C   0  0  0  0  0  0
  -25.9235  -32.4666   23.8242 C   0  0  1  0  0  0
  -27.2154  -27.0788   20.1550 C   0  0  0  0  0  0
  -25.5963  -33.8475   24.2157 N   0  0  0  0  0  0
  -23.4549  -30.4568   21.5301 C   0  0  2  0  0  0
  -24.9038  -28.8738   20.1098 C   0  0  0  0  0  0
  -22.7594  -29.4521   22.4836 C   0  0  0  0  0  0
  -18.0310  -28.1400   22.8476 C   0  0  0  0  0  0
  -24.1493  -36.7240   23.2644 C   0  0  0  0  0  0
  -26.0151  -30.6947   21.3891 C   0  0  0  0  0  0
  -26.0844  -29.3008   20.7297 C   0  0  0  0  0  0
  -27.2389  -28.4213   20.7315 C   0  0  0  0  0  0
  -26.0017  -26.7644   19.5036 C   0  0  0  0  0  0
  -24.8787  -27.6209   19.4804 C   0  0  0  0  0  0
  -23.6840  -29.7837   20.1508 C   0  0  0  0  0  0
  -25.4128  -36.3014   24.0311 C   0  0  1  0  0  0
  -20.5926  -28.3731   23.1223 C   0  0  2  0  0  0
  -20.6793  -26.9429   22.5403 C   0  0  0  0  0  0
  -19.5766  -26.6382   21.5213 C   0  0  0  0  0  0
  -18.1947  -26.7937   22.1624 C   0  0  0  0  0  0
  -19.1568  -28.8885   23.2840 C   0  0  0  0  0  0
  -18.9483  -30.1479   23.8869 C   0  0  0  0  0  0
  -17.6478  -30.6595   24.0559 C   0  0  0  0  0  0
  -25.9082  -34.9392   23.5045 C   0  0  0  0  0  0
  -16.5369  -29.9086   23.6339 C   0  0  0  0  0  0
  -16.7294  -28.6505   23.0360 C   0  0  0  0  0  0
  -26.4537  -31.6556   25.0708 C   0  0  0  0  0  0
  -25.3705  -31.3760   26.1392 C   0  0  0  0  0  0
  -27.0411  -30.2944   24.6329 C   0  0  0  0  0  0
  -27.6053  -32.4336   25.7501 C   0  0  0  0  0  0
  -27.5574  -37.1778   24.8467 C   0  0  0  0  0  0
  -21.4280  -29.3048   22.3588 N   0  0  0  0  0  0
  -26.4285  -37.3734   23.9408 N   0  0  0  0  0  0
  -24.7267  -31.0194   22.0888 N   0  0  0  0  0  0
  -23.4213  -28.8075   23.3010 O   0  0  0  0  0  0
  -28.2616  -26.0671   20.2414 O   0  0  0  0  0  0
  -26.5674  -34.8901   22.4628 O   0  0  0  0  0  0
  -23.5595  -32.1286   23.7020 O   0  0  0  0  0  0
  -29.9125  -20.5846   20.6100 C   0  0  0  0  0  0
  -27.9048  -20.8156   19.9997 C   0  0  0  0  0  0
  -29.4737  -19.2344   20.3791 C   0  0  0  0  0  0
  -28.2148  -24.3726   18.4194 C   0  0  0  0  0  0
  -30.2822  -17.7657   20.4407 C   0  0  0  0  0  0
  -28.9814  -23.2289   20.6348 C   0  0  0  0  0  0
  -28.0881  -24.5167   19.9440 C   0  0  1  0  0  0
  -28.1462  -19.4681   19.9727 N   0  0  0  0  0  0
  -28.9192  -21.6355   20.3718 N   0  0  0  0  0  0
  -29.7910  -16.2484   20.5020 N   0  0  0  0  0  0
  -31.4672  -12.8008   19.1866 H   0  0  0  0  0  0
  -30.4416  -11.7003   20.0607 H   0  0  0  0  0  0
  -29.8536  -11.7256   17.6096 H   0  0  0  0  0  0
  -29.5965  -13.4521   17.6738 H   0  0  0  0  0  0
  -27.9685  -11.2725   19.0086 H   0  0  0  0  0  0
  -27.3926  -12.4180   17.8256 H   0  0  0  0  0  0
  -27.5716  -14.2486   19.3824 H   0  0  0  0  0  0
  -28.7710  -12.3672   21.4714 H   0  0  0  0  0  0
  -28.3520  -14.0472   21.7275 H   0  0  0  0  0  0
  -25.2770   -9.5683   22.4765 H   0  0  0  0  0  0
  -24.0007   -7.4634   22.7475 H   0  0  0  0  0  0
  -21.0852   -8.8775   19.8950 H   0  0  0  0  0  0
  -22.3709  -10.9672   19.6167 H   0  0  0  0  0  0
  -21.2008   -7.6148   23.9715 H   0  0  0  0  0  0
  -21.1483   -6.0524   25.9077 H   0  0  0  0  0  0
  -22.0597   -2.7609   23.2847 H   0  0  0  0  0  0
  -22.4067  -11.9851   22.4836 H   0  0  0  0  0  0
  -21.1048  -13.1191   22.2650 H   0  0  0  0  0  0
  -24.6376  -15.8455   20.5291 H   0  0  0  0  0  0
  -26.2492  -15.6397   20.0704 H   0  0  0  0  0  0
  -26.7300  -32.5251   23.0964 H   0  0  0  0  0  0
  -25.0088  -33.9582   25.0291 H   0  0  0  0  0  0
  -22.7603  -31.2844   21.3721 H   0  0  0  0  0  0
  -23.3761  -35.9566   23.3293 H   0  0  0  0  0  0
  -24.3573  -36.8887   22.2060 H   0  0  0  0  0  0
  -23.7244  -37.6429   23.6693 H   0  0  0  0  0  0
  -26.1778  -31.4464   20.6154 H   0  0  0  0  0  0
  -26.8826  -30.7453   22.0355 H   0  0  0  0  0  0
  -28.1368  -28.7445   21.2391 H   0  0  0  0  0  0
  -25.8745  -25.8027   19.0324 H   0  0  0  0  0  0
  -23.9758  -27.2854   18.9889 H   0  0  0  0  0  0
  -23.8265  -30.5571   19.3952 H   0  0  0  0  0  0
  -22.7968  -29.2305   19.8379 H   0  0  0  0  0  0
  -25.1319  -36.1831   25.0803 H   0  0  0  0  0  0
  -21.0019  -28.3325   24.1344 H   0  0  0  0  0  0
  -20.5686  -26.2346   23.3628 H   0  0  0  0  0  0
  -21.6657  -26.7428   22.1202 H   0  0  0  0  0  0
  -19.6928  -25.6285   21.1262 H   0  0  0  0  0  0
  -19.6703  -27.3177   20.6731 H   0  0  0  0  0  0
  -17.4216  -26.6681   21.4029 H   0  0  0  0  0  0
  -18.0346  -26.0086   22.9028 H   0  0  0  0  0  0
  -19.7958  -30.7303   24.2227 H   0  0  0  0  0  0
  -17.5030  -31.6272   24.5165 H   0  0  0  0  0  0
  -15.5368  -30.2979   23.7679 H   0  0  0  0  0  0
  -15.8694  -28.0814   22.7093 H   0  0  0  0  0  0
  -24.5903  -30.7088   25.7710 H   0  0  0  0  0  0
  -24.8875  -32.2945   26.4735 H   0  0  0  0  0  0
  -25.7976  -30.8991   27.0223 H   0  0  0  0  0  0
  -26.3042  -29.6656   24.1320 H   0  0  0  0  0  0
  -27.3986  -29.7259   25.4924 H   0  0  0  0  0  0
  -27.8965  -30.4165   23.9682 H   0  0  0  0  0  0
  -27.2635  -33.3663   26.2002 H   0  0  0  0  0  0
  -28.3905  -32.6856   25.0361 H   0  0  0  0  0  0
  -28.0675  -31.8515   26.5483 H   0  0  0  0  0  0
  -28.2581  -38.0084   24.7509 H   0  0  0  0  0  0
  -28.1079  -36.2611   24.6299 H   0  0  0  0  0  0
  -27.2289  -37.1427   25.8870 H   0  0  0  0  0  0
  -20.9501  -29.8753   21.6752 H   0  0  0  0  0  0
  -26.0145  -38.2799   24.1412 H   0  0  0  0  0  0
  -30.8963  -20.8880   20.9446 H   0  0  0  0  0  0
  -26.9310  -21.2161   19.7540 H   0  0  0  0  0  0
  -27.9303  -23.3715   18.0948 H   0  0  0  0  0  0
  -29.2447  -24.5395   18.1039 H   0  0  0  0  0  0
  -27.5934  -25.0810   17.8748 H   0  0  0  0  0  0
  -30.9605  -17.8368   21.2917 H   0  0  0  0  0  0
  -30.9624  -17.7703   19.5883 H   0  0  0  0  0  0
  -28.8476  -23.3348   21.7112 H   0  0  0  0  0  0
  -30.0273  -23.4917   20.4766 H   0  0  0  0  0  0
  -27.0553  -24.2920   20.2102 H   0  0  0  0  0  0
  -28.7963  -16.1388   20.6267 H   0  0  0  0  0  0
  1 25  1  0  0  0
  1 30  2  0  0  0
  1 80  1  0  0  0
  2  3  1  0  0  0
  2 25  1  0  0  0
  2 81  1  0  0  0
  2 82  1  0  0  0
  3  4  1  0  0  0
  3 83  1  0  0  0
  3 84  1  0  0  0
  4  5  1  0  0  0
  4 85  1  0  0  0
  4 86  1  0  0  0
  5  6  1  0  0  0
  5 26  1  0  0  0
  5 87  1  0  0  0
  6 25  1  0  0  0
  6 88  1  0  0  0
  6 89  1  0  0  0
  7  8  2  0  0  0
  7 26  1  0  0  0
  7 29  1  0  0  0
  8  9  1  0  0  0
  8 22  1  0  0  0
  9 10  1  0  0  0
  9 27  2  0  0  0
 10 11  2  0  0  0
 10 15  1  0  0  0
 11 12  1  0  0  0
 11 90  1  0  0  0
 12 13  2  0  0  0
 12 91  1  0  0  0
 13 14  1  0  0  0
 13 31  1  0  0  0
 14 15  2  0  0  0
 14 92  1  0  0  0
 15 93  1  0  0  0
 16 17  2  0  0  0
 16 21  1  0  0  0
 16 31  1  0  0  0
 17 18  1  0  0  0
 17 94  1  0  0  0
 18 19  2  0  0  0
 18 95  1  0  0  0
 19 20  1  0  0  0
 19 24  1  0  0  0
 20 21  2  0  0  0
 20 96  1  0  0  0
 21 23  1  0  0  0
 22 28  1  0  0  0
 22 32  2  0  0  0
 26 27  1  0  0  0
 28 97  1  0  0  0
 28 98  1  0  0  0
 29 99  1  0  0  0
 29100  1  0  0  0
 33 34  1  0  0  0
 33 66  1  0  0  0
 33 70  2  0  0  0
 34 36  1  0  0  0
 34 59  1  0  0  0
 34101  1  0  0  0
 35 44  2  0  0  0
 35 45  1  0  0  0
 35 68  1  0  0  0
 36 56  1  0  0  0
 36102  1  0  0  0
 37 39  1  0  0  0
 37 47  1  0  0  0
 37 66  1  0  0  0
 37103  1  0  0  0
 38 43  2  0  0  0
 38 46  1  0  0  0
 38 47  1  0  0  0
 39 64  1  0  0  0
 39 67  2  0  0  0
 40 52  1  0  0  0
 40 53  2  0  0  0
 40 58  1  0  0  0
 41104  1  0  0  0
 41105  1  0  0  0
 41106  1  0  0  0
 41 48  1  0  0  0
 42 43  1  0  0  0
 42 66  1  0  0  0
 42107  1  0  0  0
 42108  1  0  0  0
 43 44  1  0  0  0
 44109  1  0  0  0
 45 46  2  0  0  0
 45110  1  0  0  0
 46111  1  0  0  0
 47112  1  0  0  0
 47113  1  0  0  0
 48 56  1  0  0  0
 48 65  1  0  0  0
 48114  1  0  0  0
 49 50  1  0  0  0
 49 53  1  0  0  0
 49 64  1  0  0  0
 49115  1  0  0  0
 50 51  1  0  0  0
 50116  1  0  0  0
 50117  1  0  0  0
 51 52  1  0  0  0
 51118  1  0  0  0
 51119  1  0  0  0
 52120  1  0  0  0
 52121  1  0  0  0
 53 54  1  0  0  0
 54 55  2  0  0  0
 54122  1  0  0  0
 55 57  1  0  0  0
 55123  1  0  0  0
 56 69  2  0  0  0
 57 58  2  0  0  0
 57124  1  0  0  0
 58125  1  0  0  0
 59 60  1  0  0  0
 59 61  1  0  0  0
 59 62  1  0  0  0
 60126  1  0  0  0
 60127  1  0  0  0
 60128  1  0  0  0
 61129  1  0  0  0
 61130  1  0  0  0
 61131  1  0  0  0
 62132  1  0  0  0
 62133  1  0  0  0
 62134  1  0  0  0
 63 65  1  0  0  0
 63135  1  0  0  0
 63136  1  0  0  0
 63137  1  0  0  0
 64138  1  0  0  0
 65139  1  0  0  0
 68 77  1  0  0  0
 71 73  2  0  0  0
 71 79  1  0  0  0
 71140  1  0  0  0
 72 78  2  0  0  0
 72 79  1  0  0  0
 72141  1  0  0  0
 73 75  1  0  0  0
 73 78  1  0  0  0
 74142  1  0  0  0
 74143  1  0  0  0
 74144  1  0  0  0
 74 77  1  0  0  0
 75 80  1  0  0  0
 75145  1  0  0  0
 75146  1  0  0  0
 76 77  1  0  0  0
 76 79  1  0  0  0
 76147  1  0  0  0
 76148  1  0  0  0
 77149  1  0  0  0
 80150  1  0  0  0
M  ISO  4   1 100  68 101  77 101  80 100
M  END
> <chiral flag>
0

> <version>
0

> <s_m_source_file>
/data/baiqing/PycharmProjects/Reinvent-master-3.2/result/LINK_invent/BTK/process_docking_weight1_custom_sum_contain_oxygen_bond_distance_aromatic_linkinvent_7_9_3/rearranged_h_0048.sdf

> <i_m_source_file_index>
24

> <r_mmod_Potential_Energy-OPLS-2005>
506.901000976562

> <r_mmod_Stretch_Energy-OPLS-2005>
312.835235595703

> <r_mmod_Bend_Energy-OPLS-2005>
308.907501220703

> <r_mmod_Torsional_Energy-OPLS-2005>
207.099517822266

> <r_mmod_Improper_Torsional_Energy-OPLS-2005>
5.07299995422363

> <r_mmod_Van_der_Waal_Energy-OPLS-2005>
108.756172180176

> <r_mmod_Electrostatic_Energy-OPLS-2005>
-453.392974853516

> <r_mmod_Solvation_Energy-OPLS-2005>
-228.989852905273

> <b_mmod_Minimization_Converged-OPLS-2005>
0

> <r_mmod_RMS_Derivative-OPLS-2005>
0.203686311841011

$$$$
24
                    3D
 Structure written by MMmdl.
155163  0  0  1  0            999 V2000
  -30.5918  -14.8683   20.4957 C   0  0  0  0  0  0
  -30.4401  -12.5479   19.4969 C   0  0  0  0  0  0
  -29.5212  -12.5365   18.2518 C   0  0  0  0  0  0
  -28.0507  -12.3264   18.6576 C   0  0  0  0  0  0
  -27.6371  -13.2350   19.8422 C   0  0  2  0  0  0
  -28.6727  -13.1927   20.9818 C   0  0  0  0  0  0
  -25.2501  -13.8192   20.5684 C   0  0  0  0  0  0
  -24.1787  -13.0438   20.9180 C   0  0  0  0  0  0
  -24.6377  -11.6916   20.8702 C   0  0  0  0  0  0
  -23.9051  -10.4299   21.0387 C   0  0  0  0  0  0
  -24.3605   -9.4220   21.9171 C   0  0  0  0  0  0
  -23.6287   -8.2250   22.0757 C   0  0  0  0  0  0
  -22.4265   -8.0281   21.3551 C   0  0  0  0  0  0
  -21.9891   -9.0250   20.4650 C   0  0  0  0  0  0
  -22.7216  -10.2133   20.3049 C   0  0  0  0  0  0
  -21.6854   -6.0730   22.5283 C   0  0  0  0  0  0
  -21.4019   -6.5638   23.8214 C   0  0  0  0  0  0
  -21.3658   -5.6792   24.9174 C   0  0  0  0  0  0
  -21.6040   -4.3053   24.7229 C   0  0  0  0  0  0
  -21.8818   -3.8145   23.4350 C   0  0  0  0  0  0
  -21.9196   -4.6959   22.3405 C   0  0  0  0  0  0
  -22.7817  -13.5236   21.1860 C   0  0  0  0  0  0
  -22.1668   -4.2144   21.0984 F   0  0  0  0  0  0
  -21.5622   -3.4539   25.7740 F   0  0  0  0  0  0
  -29.9675  -13.6205   20.4205 N   0  0  0  0  0  0
  -26.2906  -12.9395   20.3201 N   0  0  0  0  0  0
  -25.9302  -11.6536   20.5672 N   0  0  0  0  0  0
  -22.0465  -12.8229   22.0417 N   0  0  0  0  0  0
  -25.4221  -15.1921   20.4184 N   0  0  0  0  0  0
  -31.7385  -14.9545   20.0417 O   0  0  0  0  0  0
  -21.6638   -6.8875   21.4245 O   0  0  0  0  0  0
  -22.3501  -14.5549   20.6722 O   0  0  0  0  0  0
  -24.6432  -31.8499   23.1959 C   0  0  0  0  0  0
  -25.9224  -32.4722   23.8318 C   0  0  1  0  0  0
  -27.2054  -27.1725   20.1206 C   0  0  0  0  0  0
  -25.5993  -33.8530   24.2239 N   0  0  0  0  0  0
  -23.4426  -30.4766   21.5428 C   0  0  2  0  0  0
  -24.8863  -28.9209   20.1085 C   0  0  0  0  0  0
  -22.7567  -29.4587   22.4887 C   0  0  0  0  0  0
  -18.0304  -28.1397   22.8484 C   0  0  0  0  0  0
  -24.1492  -36.7253   23.2637 C   0  0  0  0  0  0
  -26.0006  -30.7319   21.3939 C   0  0  0  0  0  0
  -26.0677  -29.3509   20.7259 C   0  0  0  0  0  0
  -27.2290  -28.4923   20.7204 C   0  0  0  0  0  0
  -25.9942  -26.8510   19.4589 C   0  0  0  0  0  0
  -24.8607  -27.6815   19.4627 C   0  0  0  0  0  0
  -23.6658  -29.8223   20.1571 C   0  0  0  0  0  0
  -25.4123  -36.3047   24.0321 C   0  0  1  0  0  0
  -20.5922  -28.3728   23.1239 C   0  0  2  0  0  0
  -20.6797  -26.9437   22.5396 C   0  0  0  0  0  0
  -19.5760  -26.6390   21.5213 C   0  0  0  0  0  0
  -18.1946  -26.7935   22.1633 C   0  0  0  0  0  0
  -19.1566  -28.8881   23.2851 C   0  0  0  0  0  0
  -18.9475  -30.1476   23.8877 C   0  0  0  0  0  0
  -17.6472  -30.6592   24.0565 C   0  0  0  0  0  0
  -25.9079  -34.9422   23.5080 C   0  0  0  0  0  0
  -16.5362  -29.9086   23.6336 C   0  0  0  0  0  0
  -16.7291  -28.6505   23.0357 C   0  0  0  0  0  0
  -26.4547  -31.6575   25.0746 C   0  0  0  0  0  0
  -25.3739  -31.3769   26.1450 C   0  0  0  0  0  0
  -27.0405  -30.2967   24.6317 C   0  0  0  0  0  0
  -27.6093  -32.4328   25.7514 C   0  0  0  0  0  0
  -27.5575  -37.1788   24.8470 C   0  0  0  0  0  0
  -21.4267  -29.3059   22.3625 N   0  0  0  0  0  0
  -26.4290  -37.3758   23.9414 N   0  0  0  0  0  0
  -24.7148  -31.0388   22.0985 N   0  0  0  0  0  0
  -23.4227  -28.8105   23.3001 O   0  0  0  0  0  0
  -28.2411  -26.1734   20.1927 O   0  0  0  0  0  0
  -26.5640  -34.8909   22.4642 O   0  0  0  0  0  0
  -23.5559  -32.1369   23.7194 O   0  0  0  0  0  0
  -29.0258  -20.9201   19.2901 C   0  0  0  0  0  0
  -28.7174  -22.3112   19.0519 C   0  0  0  0  0  0
  -29.2785  -20.4172   20.6001 C   0  0  0  0  0  0
  -28.6371  -23.2996   20.0872 C   0  0  0  0  0  0
  -29.2269  -21.4853   21.5727 C   0  0  0  0  0  0
  -29.4874  -21.1839   23.0357 C   0  0  0  0  0  0
  -29.3640  -16.1001   22.2293 C   0  0  0  0  0  0
  -29.4334  -18.8435   21.0471 C   0  0  0  0  0  0
  -27.8553  -24.7198   19.8532 C   0  0  0  0  0  0
  -29.9761  -17.4956   20.2322 C   0  0  0  0  0  0
  -28.9182  -22.8189   21.3359 N   0  0  0  0  0  0
  -29.8837  -16.0491   20.8560 N   0  0  0  0  0  0
  -31.4757  -12.6927   19.1866 H   0  0  0  0  0  0
  -30.4228  -11.5792   19.9987 H   0  0  0  0  0  0
  -29.8337  -11.7562   17.5565 H   0  0  0  0  0  0
  -29.6207  -13.4820   17.7168 H   0  0  0  0  0  0
  -27.9353  -11.2787   18.9394 H   0  0  0  0  0  0
  -27.3911  -12.4879   17.8043 H   0  0  0  0  0  0
  -27.6232  -14.2528   19.4502 H   0  0  0  0  0  0
  -28.7436  -12.1896   21.4044 H   0  0  0  0  0  0
  -28.3251  -13.8209   21.7948 H   0  0  0  0  0  0
  -25.2757   -9.5703   22.4728 H   0  0  0  0  0  0
  -24.0001   -7.4653   22.7483 H   0  0  0  0  0  0
  -21.0820   -8.8770   19.8961 H   0  0  0  0  0  0
  -22.3675  -10.9666   19.6151 H   0  0  0  0  0  0
  -21.2015   -7.6147   23.9717 H   0  0  0  0  0  0
  -21.1478   -6.0520   25.9076 H   0  0  0  0  0  0
  -22.0593   -2.7606   23.2852 H   0  0  0  0  0  0
  -22.4093  -11.9894   22.4806 H   0  0  0  0  0  0
  -21.1090  -13.1265   22.2647 H   0  0  0  0  0  0
  -24.6588  -15.8482   20.5427 H   0  0  0  0  0  0
  -26.2850  -15.6367   20.1332 H   0  0  0  0  0  0
  -26.7290  -32.5331   23.1050 H   0  0  0  0  0  0
  -25.0175  -33.9651   25.0407 H   0  0  0  0  0  0
  -22.7426  -31.3024   21.3993 H   0  0  0  0  0  0
  -23.3766  -35.9572   23.3289 H   0  0  0  0  0  0
  -24.3581  -36.8885   22.2053 H   0  0  0  0  0  0
  -23.7227  -37.6444   23.6666 H   0  0  0  0  0  0
  -26.1636  -31.4931   20.6295 H   0  0  0  0  0  0
  -26.8691  -30.7702   22.0399 H   0  0  0  0  0  0
  -28.1272  -28.8150   21.2279 H   0  0  0  0  0  0
  -25.8569  -25.9168   18.9385 H   0  0  0  0  0  0
  -23.9601  -27.3492   18.9646 H   0  0  0  0  0  0
  -23.8078  -30.6059   19.4115 H   0  0  0  0  0  0
  -22.7776  -29.2736   19.8389 H   0  0  0  0  0  0
  -25.1303  -36.1889   25.0812 H   0  0  0  0  0  0
  -21.0011  -28.3310   24.1361 H   0  0  0  0  0  0
  -20.5716  -26.2334   23.3609 H   0  0  0  0  0  0
  -21.6657  -26.7459   22.1177 H   0  0  0  0  0  0
  -19.6918  -25.6297   21.1248 H   0  0  0  0  0  0
  -19.6677  -27.3193   20.6734 H   0  0  0  0  0  0
  -17.4209  -26.6680   21.4041 H   0  0  0  0  0  0
  -18.0344  -26.0085   22.9036 H   0  0  0  0  0  0
  -19.7950  -30.7306   24.2232 H   0  0  0  0  0  0
  -17.5020  -31.6270   24.5171 H   0  0  0  0  0  0
  -15.5361  -30.2978   23.7669 H   0  0  0  0  0  0
  -15.8692  -28.0814   22.7083 H   0  0  0  0  0  0
  -24.5876  -30.7173   25.7758 H   0  0  0  0  0  0
  -24.8990  -32.2965   26.4880 H   0  0  0  0  0  0
  -25.8023  -30.8910   27.0226 H   0  0  0  0  0  0
  -26.3023  -29.6688   24.1318 H   0  0  0  0  0  0
  -27.4011  -29.7269   25.4889 H   0  0  0  0  0  0
  -27.8935  -30.4192   23.9641 H   0  0  0  0  0  0
  -27.2710  -33.3657   26.2033 H   0  0  0  0  0  0
  -28.3931  -32.6843   25.0356 H   0  0  0  0  0  0
  -28.0729  -31.8491   26.5477 H   0  0  0  0  0  0
  -28.2599  -38.0080   24.7529 H   0  0  0  0  0  0
  -28.1072  -36.2619   24.6293 H   0  0  0  0  0  0
  -27.2297  -37.1428   25.8873 H   0  0  0  0  0  0
  -20.9473  -29.8784   21.6820 H   0  0  0  0  0  0
  -26.0160  -38.2829   24.1420 H   0  0  0  0  0  0
  -29.0040  -20.2294   18.4590 H   0  0  0  0  0  0
  -28.4521  -22.6038   18.0443 H   0  0  0  0  0  0
  -28.8629  -20.3612   23.3836 H   0  0  0  0  0  0
  -29.2813  -22.0457   23.6711 H   0  0  0  0  0  0
  -30.5329  -20.9107   23.1765 H   0  0  0  0  0  0
  -29.8197  -16.9049   22.8029 H   0  0  0  0  0  0
  -29.5887  -15.2054   22.8114 H   0  0  0  0  0  0
  -28.2830  -16.2461   22.2252 H   0  0  0  0  0  0
  -28.4429  -18.5905   21.4258 H   0  0  0  0  0  0
  -30.0703  -18.8884   21.9276 H   0  0  0  0  0  0
  -26.9011  -24.5364   20.3494 H   0  0  0  0  0  0
  -27.6436  -24.7242   18.7834 H   0  0  0  0  0  0
  -31.0194  -17.6641   19.9622 H   0  0  0  0  0  0
  -29.4434  -17.4442   19.2822 H   0  0  0  0  0  0
  1 25  1  0  0  0
  1 30  2  0  0  0
  1 82  1  0  0  0
  2  3  1  0  0  0
  2 25  1  0  0  0
  2 83  1  0  0  0
  2 84  1  0  0  0
  3  4  1  0  0  0
  3 85  1  0  0  0
  3 86  1  0  0  0
  4  5  1  0  0  0
  4 87  1  0  0  0
  4 88  1  0  0  0
  5  6  1  0  0  0
  5 26  1  0  0  0
  5 89  1  0  0  0
  6 25  1  0  0  0
  6 90  1  0  0  0
  6 91  1  0  0  0
  7  8  2  0  0  0
  7 26  1  0  0  0
  7 29  1  0  0  0
  8  9  1  0  0  0
  8 22  1  0  0  0
  9 10  1  0  0  0
  9 27  2  0  0  0
 10 11  2  0  0  0
 10 15  1  0  0  0
 11 12  1  0  0  0
 11 92  1  0  0  0
 12 13  2  0  0  0
 12 93  1  0  0  0
 13 14  1  0  0  0
 13 31  1  0  0  0
 14 15  2  0  0  0
 14 94  1  0  0  0
 15 95  1  0  0  0
 16 17  2  0  0  0
 16 21  1  0  0  0
 16 31  1  0  0  0
 17 18  1  0  0  0
 17 96  1  0  0  0
 18 19  2  0  0  0
 18 97  1  0  0  0
 19 20  1  0  0  0
 19 24  1  0  0  0
 20 21  2  0  0  0
 20 98  1  0  0  0
 21 23  1  0  0  0
 22 28  1  0  0  0
 22 32  2  0  0  0
 26 27  1  0  0  0
 28 99  1  0  0  0
 28100  1  0  0  0
 29101  1  0  0  0
 29102  1  0  0  0
 33 34  1  0  0  0
 33 66  1  0  0  0
 33 70  2  0  0  0
 34 36  1  0  0  0
 34 59  1  0  0  0
 34103  1  0  0  0
 35 44  2  0  0  0
 35 45  1  0  0  0
 35 68  1  0  0  0
 36 56  1  0  0  0
 36104  1  0  0  0
 37 39  1  0  0  0
 37 47  1  0  0  0
 37 66  1  0  0  0
 37105  1  0  0  0
 38 43  2  0  0  0
 38 46  1  0  0  0
 38 47  1  0  0  0
 39 64  1  0  0  0
 39 67  2  0  0  0
 40 52  1  0  0  0
 40 53  2  0  0  0
 40 58  1  0  0  0
 41106  1  0  0  0
 41107  1  0  0  0
 41108  1  0  0  0
 41 48  1  0  0  0
 42 43  1  0  0  0
 42 66  1  0  0  0
 42109  1  0  0  0
 42110  1  0  0  0
 43 44  1  0  0  0
 44111  1  0  0  0
 45 46  2  0  0  0
 45112  1  0  0  0
 46113  1  0  0  0
 47114  1  0  0  0
 47115  1  0  0  0
 48 56  1  0  0  0
 48 65  1  0  0  0
 48116  1  0  0  0
 49 50  1  0  0  0
 49 53  1  0  0  0
 49 64  1  0  0  0
 49117  1  0  0  0
 50 51  1  0  0  0
 50118  1  0  0  0
 50119  1  0  0  0
 51 52  1  0  0  0
 51120  1  0  0  0
 51121  1  0  0  0
 52122  1  0  0  0
 52123  1  0  0  0
 53 54  1  0  0  0
 54 55  2  0  0  0
 54124  1  0  0  0
 55 57  1  0  0  0
 55125  1  0  0  0
 56 69  2  0  0  0
 57 58  2  0  0  0
 57126  1  0  0  0
 58127  1  0  0  0
 59 60  1  0  0  0
 59 61  1  0  0  0
 59 62  1  0  0  0
 60128  1  0  0  0
 60129  1  0  0  0
 60130  1  0  0  0
 61131  1  0  0  0
 61132  1  0  0  0
 61133  1  0  0  0
 62134  1  0  0  0
 62135  1  0  0  0
 62136  1  0  0  0
 63 65  1  0  0  0
 63137  1  0  0  0
 63138  1  0  0  0
 63139  1  0  0  0
 64140  1  0  0  0
 65141  1  0  0  0
 68 79  1  0  0  0
 71 72  2  0  0  0
 71 73  1  0  0  0
 71142  1  0  0  0
 72 74  1  0  0  0
 72143  1  0  0  0
 73 75  2  0  0  0
 73 78  1  0  0  0
 74 79  1  0  0  0
 74 81  2  0  0  0
 75 76  1  0  0  0
 75 81  1  0  0  0
 76144  1  0  0  0
 76145  1  0  0  0
 76146  1  0  0  0
 77 82  1  0  0  0
 77147  1  0  0  0
 77148  1  0  0  0
 77149  1  0  0  0
 78 80  1  0  0  0
 78150  1  0  0  0
 78151  1  0  0  0
 79152  1  0  0  0
 79153  1  0  0  0
 80 82  1  0  0  0
 80154  1  0  0  0
 80155  1  0  0  0
M  ISO  4   1 100  68 101  79 101  82 100
M  END
> <chiral flag>
0

> <version>
0

> <s_m_source_file>
/data/baiqing/PycharmProjects/Reinvent-master-3.2/result/LINK_invent/BTK/process_docking_weight1_custom_sum_contain_oxygen_bond_distance_aromatic_linkinvent_7_9_3/rearranged_h_0048.sdf

> <i_m_source_file_index>
25

> <r_mmod_Potential_Energy-OPLS-2005>
414.792419433594

> <r_mmod_Stretch_Energy-OPLS-2005>
208.085083007812

> <r_mmod_Bend_Energy-OPLS-2005>
260.087829589844

> <r_mmod_Torsional_Energy-OPLS-2005>
280.937347412109

> <r_mmod_Improper_Torsional_Energy-OPLS-2005>
9.91089630126953

> <r_mmod_Van_der_Waal_Energy-OPLS-2005>
156.183822631836

> <r_mmod_Electrostatic_Energy-OPLS-2005>
-429.719635009766

> <r_mmod_Solvation_Energy-OPLS-2005>
-220.281173706055

> <b_mmod_Minimization_Converged-OPLS-2005>
0

> <r_mmod_RMS_Derivative-OPLS-2005>
1.56805276870728

$$$$
25
                    3D
 Structure written by MMmdl.
148156  0  0  1  0            999 V2000
  -30.4150  -15.4003   20.3463 C   0  0  0  0  0  0
  -30.4389  -12.9149   19.5105 C   0  0  0  0  0  0
  -29.5368  -12.5902   18.2931 C   0  0  0  0  0  0
  -28.0993  -12.2813   18.7420 C   0  0  0  0  0  0
  -27.6047  -13.2836   19.8113 C   0  0  2  0  0  0
  -28.6401  -13.5400   20.9281 C   0  0  0  0  0  0
  -25.2362  -13.8265   20.5734 C   0  0  0  0  0  0
  -24.1737  -13.0452   20.9288 C   0  0  0  0  0  0
  -24.6416  -11.6948   20.8809 C   0  0  0  0  0  0
  -23.9109  -10.4303   21.0433 C   0  0  0  0  0  0
  -24.3652   -9.4209   21.9204 C   0  0  0  0  0  0
  -23.6314   -8.2250   22.0765 C   0  0  0  0  0  0
  -22.4292   -8.0297   21.3551 C   0  0  0  0  0  0
  -21.9942   -9.0279   20.4650 C   0  0  0  0  0  0
  -22.7288  -10.2151   20.3064 C   0  0  0  0  0  0
  -21.6858   -6.0749   22.5288 C   0  0  0  0  0  0
  -21.4015   -6.5646   23.8221 C   0  0  0  0  0  0
  -21.3658   -5.6794   24.9179 C   0  0  0  0  0  0
  -21.6047   -4.3060   24.7224 C   0  0  0  0  0  0
  -21.8816   -3.8157   23.4343 C   0  0  0  0  0  0
  -21.9186   -4.6977   22.3401 C   0  0  0  0  0  0
  -22.7746  -13.5185   21.1919 C   0  0  0  0  0  0
  -22.1657   -4.2164   21.0979 F   0  0  0  0  0  0
  -21.5624   -3.4536   25.7735 F   0  0  0  0  0  0
  -29.8449  -14.0839   20.2700 N   0  0  0  0  0  0
  -26.2806  -12.9558   20.3224 N   0  0  0  0  0  0
  -25.9356  -11.6654   20.5758 N   0  0  0  0  0  0
  -22.0409  -12.8158   22.0470 N   0  0  0  0  0  0
  -25.3943  -15.2000   20.4055 N   0  0  0  0  0  0
  -31.6505  -15.3549   20.2358 O   0  0  0  0  0  0
  -21.6646   -6.8902   21.4249 O   0  0  0  0  0  0
  -22.3412  -14.5478   20.6751 O   0  0  0  0  0  0
  -24.6686  -31.8172   23.1630 C   0  0  0  0  0  0
  -25.9329  -32.4564   23.8124 C   0  0  1  0  0  0
  -27.2331  -26.8533   20.1998 C   0  0  0  0  0  0
  -25.5971  -33.8382   24.2025 N   0  0  0  0  0  0
  -23.4888  -30.4215   21.5153 C   0  0  2  0  0  0
  -24.9477  -28.7914   20.1222 C   0  0  0  0  0  0
  -22.7706  -29.4397   22.4789 C   0  0  0  0  0  0
  -18.0328  -28.1411   22.8455 C   0  0  0  0  0  0
  -24.1503  -36.7201   23.2650 C   0  0  0  0  0  0
  -26.0616  -30.5984   21.4056 C   0  0  0  0  0  0
  -26.1348  -29.1782   20.7569 C   0  0  0  0  0  0
  -27.2707  -28.2352   20.7654 C   0  0  0  0  0  0
  -26.0108  -26.6386   19.5192 C   0  0  0  0  0  0
  -24.9158  -27.5434   19.4815 C   0  0  0  0  0  0
  -23.7354  -29.7255   20.1484 C   0  0  0  0  0  0
  -25.4145  -36.2958   24.0295 C   0  0  1  0  0  0
  -20.5949  -28.3761   23.1184 C   0  0  2  0  0  0
  -20.6810  -26.9445   22.5401 C   0  0  0  0  0  0
  -19.5786  -26.6375   21.5216 C   0  0  0  0  0  0
  -18.1963  -26.7936   22.1617 C   0  0  0  0  0  0
  -19.1589  -28.8907   23.2801 C   0  0  0  0  0  0
  -18.9505  -30.1495   23.8842 C   0  0  0  0  0  0
  -17.6499  -30.6603   24.0546 C   0  0  0  0  0  0
  -25.9107  -34.9341   23.4990 C   0  0  0  0  0  0
  -16.5384  -29.9090   23.6342 C   0  0  0  0  0  0
  -16.7311  -28.6507   23.0363 C   0  0  0  0  0  0
  -26.4552  -31.6531   25.0678 C   0  0  0  0  0  0
  -25.3636  -31.3816   26.1306 C   0  0  0  0  0  0
  -27.0463  -30.2891   24.6458 C   0  0  0  0  0  0
  -27.6040  -32.4346   25.7478 C   0  0  0  0  0  0
  -27.5569  -37.1766   24.8467 C   0  0  0  0  0  0
  -21.4365  -29.3048   22.3540 N   0  0  0  0  0  0
  -26.4287  -37.3696   23.9397 N   0  0  0  0  0  0
  -24.7615  -30.9748   22.0820 N   0  0  0  0  0  0
  -23.4217  -28.8001   23.3088 O   0  0  0  0  0  0
  -28.2311  -25.7132   20.2209 O   0  0  0  0  0  0
  -26.5732  -34.8881   22.4595 O   0  0  0  0  0  0
  -23.5738  -32.1183   23.6671 O   0  0  0  0  0  0
  -29.5512  -22.0876   19.0529 C   0  0  0  0  0  0
  -28.7625  -22.5050   20.1192 C   0  0  0  0  0  0
  -29.4211  -20.0143   20.1776 C   0  0  0  0  0  0
  -30.7543  -20.0501   18.1121 C   0  0  0  0  0  0
  -27.9263  -24.0650   20.4140 C   0  0  0  0  0  0
  -29.9794  -18.3684   20.6742 C   0  0  0  0  0  0
  -29.8982  -20.7068   19.1043 N   0  0  0  0  0  0
  -28.7382  -21.1477   20.7750 N   0  3  0  0  0  0
  -29.6778  -16.7185   20.3494 N   0  0  0  0  0  0
  -31.4439  -13.1480   19.1555 H   0  0  0  0  0  0
  -30.5533  -12.0432   20.1571 H   0  0  0  0  0  0
  -29.9452  -11.7503   17.7296 H   0  0  0  0  0  0
  -29.5286  -13.4450   17.6143 H   0  0  0  0  0  0
  -28.0939  -11.2724   19.1570 H   0  0  0  0  0  0
  -27.4242  -12.2621   17.8861 H   0  0  0  0  0  0
  -27.4916  -14.2239   19.2705 H   0  0  0  0  0  0
  -28.8518  -12.6369   21.5019 H   0  0  0  0  0  0
  -28.2533  -14.2753   21.6365 H   0  0  0  0  0  0
  -25.2806   -9.5668   22.4765 H   0  0  0  0  0  0
  -24.0031   -7.4624   22.7462 H   0  0  0  0  0  0
  -21.0887   -8.8808   19.8931 H   0  0  0  0  0  0
  -22.3783  -10.9693   19.6157 H   0  0  0  0  0  0
  -21.2020   -7.6158   23.9729 H   0  0  0  0  0  0
  -21.1478   -6.0524   25.9082 H   0  0  0  0  0  0
  -22.0596   -2.7617   23.2840 H   0  0  0  0  0  0
  -22.4061  -11.9845   22.4873 H   0  0  0  0  0  0
  -21.1012  -13.1138   22.2659 H   0  0  0  0  0  0
  -24.6091  -15.8380   20.4806 H   0  0  0  0  0  0
  -26.2148  -15.6343   20.0050 H   0  0  0  0  0  0
  -26.7399  -32.5077   23.0835 H   0  0  0  0  0  0
  -25.0040  -33.9458   25.0125 H   0  0  0  0  0  0
  -22.8053  -31.2537   21.3336 H   0  0  0  0  0  0
  -23.3774  -35.9525   23.3294 H   0  0  0  0  0  0
  -24.3572  -36.8862   22.2067 H   0  0  0  0  0  0
  -23.7260  -37.6385   23.6719 H   0  0  0  0  0  0
  -26.2431  -31.3319   20.6182 H   0  0  0  0  0  0
  -26.9208  -30.6654   22.0617 H   0  0  0  0  0  0
  -28.1700  -28.5391   21.2828 H   0  0  0  0  0  0
  -25.8667  -25.6920   19.0197 H   0  0  0  0  0  0
  -24.0152  -27.2390   18.9654 H   0  0  0  0  0  0
  -23.9018  -30.4861   19.3856 H   0  0  0  0  0  0
  -22.8433  -29.1824   19.8298 H   0  0  0  0  0  0
  -25.1356  -36.1747   25.0791 H   0  0  0  0  0  0
  -21.0016  -28.3364   24.1319 H   0  0  0  0  0  0
  -20.5709  -26.2385   23.3647 H   0  0  0  0  0  0
  -21.6669  -26.7440   22.1202 H   0  0  0  0  0  0
  -19.6964  -25.6279   21.1282 H   0  0  0  0  0  0
  -19.6719  -27.3152   20.6721 H   0  0  0  0  0  0
  -17.4239  -26.6670   21.4021 H   0  0  0  0  0  0
  -18.0364  -26.0096   22.9033 H   0  0  0  0  0  0
  -19.7984  -30.7316   24.2193 H   0  0  0  0  0  0
  -17.5057  -31.6281   24.5161 H   0  0  0  0  0  0
  -15.5384  -30.2980   23.7710 H   0  0  0  0  0  0
  -15.8705  -28.0811   22.7122 H   0  0  0  0  0  0
  -24.5838  -30.7155   25.7589 H   0  0  0  0  0  0
  -24.8792  -32.3030   26.4552 H   0  0  0  0  0  0
  -25.7806  -30.9083   27.0200 H   0  0  0  0  0  0
  -26.3149  -29.6541   24.1441 H   0  0  0  0  0  0
  -27.3962  -29.7286   25.5134 H   0  0  0  0  0  0
  -27.9095  -30.4071   23.9903 H   0  0  0  0  0  0
  -27.2626  -33.3714   26.1896 H   0  0  0  0  0  0
  -28.3924  -32.6794   25.0348 H   0  0  0  0  0  0
  -28.0622  -31.8566   26.5515 H   0  0  0  0  0  0
  -28.2585  -38.0063   24.7493 H   0  0  0  0  0  0
  -28.1066  -36.2585   24.6329 H   0  0  0  0  0  0
  -27.2271  -37.1446   25.8866 H   0  0  0  0  0  0
  -20.9664  -29.8712   21.6614 H   0  0  0  0  0  0
  -26.0133  -38.2759   24.1379 H   0  0  0  0  0  0
  -29.8932  -22.6969   18.2272 H   0  0  0  0  0  0
  -30.3259  -19.0851   17.8414 H   0  0  0  0  0  0
  -31.7516  -19.9078   18.5291 H   0  0  0  0  0  0
  -30.8281  -20.6698   17.2167 H   0  0  0  0  0  0
  -27.6361  -24.0142   21.4637 H   0  0  0  0  0  0
  -26.9805  -23.9319   19.8923 H   0  0  0  0  0  0
  -31.0544  -18.4468   20.5138 H   0  0  0  0  0  0
  -29.8854  -18.4283   21.7571 H   0  0  0  0  0  0
  -28.2634  -21.0282   21.6614 H   0  0  0  0  0  0
  -28.6849  -16.5515   20.2781 H   0  0  0  0  0  0
  1 25  1  0  0  0
  1 30  2  0  0  0
  1 79  1  0  0  0
  2  3  1  0  0  0
  2 25  1  0  0  0
  2 80  1  0  0  0
  2 81  1  0  0  0
  3  4  1  0  0  0
  3 82  1  0  0  0
  3 83  1  0  0  0
  4  5  1  0  0  0
  4 84  1  0  0  0
  4 85  1  0  0  0
  5  6  1  0  0  0
  5 26  1  0  0  0
  5 86  1  0  0  0
  6 25  1  0  0  0
  6 87  1  0  0  0
  6 88  1  0  0  0
  7  8  2  0  0  0
  7 26  1  0  0  0
  7 29  1  0  0  0
  8  9  1  0  0  0
  8 22  1  0  0  0
  9 10  1  0  0  0
  9 27  2  0  0  0
 10 11  2  0  0  0
 10 15  1  0  0  0
 11 12  1  0  0  0
 11 89  1  0  0  0
 12 13  2  0  0  0
 12 90  1  0  0  0
 13 14  1  0  0  0
 13 31  1  0  0  0
 14 15  2  0  0  0
 14 91  1  0  0  0
 15 92  1  0  0  0
 16 17  2  0  0  0
 16 21  1  0  0  0
 16 31  1  0  0  0
 17 18  1  0  0  0
 17 93  1  0  0  0
 18 19  2  0  0  0
 18 94  1  0  0  0
 19 20  1  0  0  0
 19 24  1  0  0  0
 20 21  2  0  0  0
 20 95  1  0  0  0
 21 23  1  0  0  0
 22 28  1  0  0  0
 22 32  2  0  0  0
 26 27  1  0  0  0
 28 96  1  0  0  0
 28 97  1  0  0  0
 29 98  1  0  0  0
 29 99  1  0  0  0
 33 34  1  0  0  0
 33 66  1  0  0  0
 33 70  2  0  0  0
 34 36  1  0  0  0
 34 59  1  0  0  0
 34100  1  0  0  0
 35 44  2  0  0  0
 35 45  1  0  0  0
 35 68  1  0  0  0
 36 56  1  0  0  0
 36101  1  0  0  0
 37 39  1  0  0  0
 37 47  1  0  0  0
 37 66  1  0  0  0
 37102  1  0  0  0
 38 43  2  0  0  0
 38 46  1  0  0  0
 38 47  1  0  0  0
 39 64  1  0  0  0
 39 67  2  0  0  0
 40 52  1  0  0  0
 40 53  2  0  0  0
 40 58  1  0  0  0
 41103  1  0  0  0
 41104  1  0  0  0
 41105  1  0  0  0
 41 48  1  0  0  0
 42 43  1  0  0  0
 42 66  1  0  0  0
 42106  1  0  0  0
 42107  1  0  0  0
 43 44  1  0  0  0
 44108  1  0  0  0
 45 46  2  0  0  0
 45109  1  0  0  0
 46110  1  0  0  0
 47111  1  0  0  0
 47112  1  0  0  0
 48 56  1  0  0  0
 48 65  1  0  0  0
 48113  1  0  0  0
 49 50  1  0  0  0
 49 53  1  0  0  0
 49 64  1  0  0  0
 49114  1  0  0  0
 50 51  1  0  0  0
 50115  1  0  0  0
 50116  1  0  0  0
 51 52  1  0  0  0
 51117  1  0  0  0
 51118  1  0  0  0
 52119  1  0  0  0
 52120  1  0  0  0
 53 54  1  0  0  0
 54 55  2  0  0  0
 54121  1  0  0  0
 55 57  1  0  0  0
 55122  1  0  0  0
 56 69  2  0  0  0
 57 58  2  0  0  0
 57123  1  0  0  0
 58124  1  0  0  0
 59 60  1  0  0  0
 59 61  1  0  0  0
 59 62  1  0  0  0
 60125  1  0  0  0
 60126  1  0  0  0
 60127  1  0  0  0
 61128  1  0  0  0
 61129  1  0  0  0
 61130  1  0  0  0
 62131  1  0  0  0
 62132  1  0  0  0
 62133  1  0  0  0
 63 65  1  0  0  0
 63134  1  0  0  0
 63135  1  0  0  0
 63136  1  0  0  0
 64137  1  0  0  0
 65138  1  0  0  0
 68 75  1  0  0  0
 71 72  2  0  0  0
 71 77  1  0  0  0
 71139  1  0  0  0
 72 75  1  0  0  0
 72 78  1  0  0  0
 73 76  1  0  0  0
 73 77  1  0  0  0
 73 78  2  0  0  0
 74 77  1  0  0  0
 74140  1  0  0  0
 74141  1  0  0  0
 74142  1  0  0  0
 75143  1  0  0  0
 75144  1  0  0  0
 76 79  1  0  0  0
 76145  1  0  0  0
 76146  1  0  0  0
 78147  1  0  0  0
 79148  1  0  0  0
M  CHG  1  78   1
M  ISO  4   1 100  68 101  75 101  79 100
M  END
> <chiral flag>
0

> <version>
0

> <s_m_source_file>
/data/baiqing/PycharmProjects/Reinvent-master-3.2/result/LINK_invent/BTK/process_docking_weight1_custom_sum_contain_oxygen_bond_distance_aromatic_linkinvent_7_9_3/rearranged_h_0048.sdf

> <i_m_source_file_index>
26

> <r_mmod_Potential_Energy-OPLS-2005>
1427.912109375

> <r_mmod_Stretch_Energy-OPLS-2005>
711.934265136719

> <r_mmod_Bend_Energy-OPLS-2005>
510.126800537109

> <r_mmod_Torsional_Energy-OPLS-2005>
232.119537353516

> <r_mmod_Improper_Torsional_Energy-OPLS-2005>
7.99838399887085

> <r_mmod_Van_der_Waal_Energy-OPLS-2005>
108.139015197754

> <r_mmod_Electrostatic_Energy-OPLS-2005>
-285.939178466797

> <r_mmod_Solvation_Energy-OPLS-2005>
-453.231323242188

> <b_mmod_Minimization_Converged-OPLS-2005>
0

> <r_mmod_RMS_Derivative-OPLS-2005>
2.2075891494751

$$$$
27
                    3D
 Structure written by MMmdl.
145153  0  0  1  0            999 V2000
  -30.3841  -15.2907   20.3810 C   0  0  0  0  0  0
  -30.4506  -12.8153   19.5403 C   0  0  0  0  0  0
  -29.5470  -12.5930   18.2978 C   0  0  0  0  0  0
  -28.0928  -12.3094   18.7150 C   0  0  0  0  0  0
  -27.6175  -13.2756   19.8274 C   0  0  2  0  0  0
  -28.6472  -13.4319   20.9664 C   0  0  0  0  0  0
  -25.2414  -13.8245   20.5737 C   0  0  0  0  0  0
  -24.1759  -13.0436   20.9239 C   0  0  0  0  0  0
  -24.6412  -11.6932   20.8741 C   0  0  0  0  0  0
  -23.9101  -10.4293   21.0395 C   0  0  0  0  0  0
  -24.3642   -9.4208   21.9177 C   0  0  0  0  0  0
  -23.6307   -8.2248   22.0753 C   0  0  0  0  0  0
  -22.4288   -8.0286   21.3545 C   0  0  0  0  0  0
  -21.9930   -9.0260   20.4645 C   0  0  0  0  0  0
  -22.7268  -10.2134   20.3049 C   0  0  0  0  0  0
  -21.6858   -6.0739   22.5279 C   0  0  0  0  0  0
  -21.4018   -6.5641   23.8212 C   0  0  0  0  0  0
  -21.3661   -5.6793   24.9174 C   0  0  0  0  0  0
  -21.6045   -4.3056   24.7224 C   0  0  0  0  0  0
  -21.8819   -3.8148   23.4344 C   0  0  0  0  0  0
  -21.9194   -4.6966   22.3401 C   0  0  0  0  0  0
  -22.7775  -13.5188   21.1894 C   0  0  0  0  0  0
  -22.1662   -4.2151   21.0979 F   0  0  0  0  0  0
  -21.5629   -3.4538   25.7736 F   0  0  0  0  0  0
  -29.8892  -13.9491   20.3667 N   0  0  0  0  0  0
  -26.2845  -12.9521   20.3206 N   0  0  0  0  0  0
  -25.9352  -11.6624   20.5695 N   0  0  0  0  0  0
  -22.0436  -12.8169   22.0451 N   0  0  0  0  0  0
  -25.4058  -15.1981   20.4201 N   0  0  0  0  0  0
  -31.5859  -15.3276   20.0669 O   0  0  0  0  0  0
  -21.6647   -6.8885   21.4242 O   0  0  0  0  0  0
  -22.3450  -14.5489   20.6738 O   0  0  0  0  0  0
  -24.6636  -31.8214   23.1682 C   0  0  0  0  0  0
  -25.9311  -32.4576   23.8155 C   0  0  1  0  0  0
  -27.2248  -26.9144   20.1872 C   0  0  0  0  0  0
  -25.5973  -33.8392   24.2059 N   0  0  0  0  0  0
  -23.4797  -30.4306   21.5173 C   0  0  2  0  0  0
  -24.9348  -28.8127   20.1111 C   0  0  0  0  0  0
  -22.7671  -29.4425   22.4775 C   0  0  0  0  0  0
  -18.0323  -28.1409   22.8466 C   0  0  0  0  0  0
  -24.1494  -36.7203   23.2648 C   0  0  0  0  0  0
  -26.0486  -30.6232   21.4006 C   0  0  0  0  0  0
  -26.1174  -29.2111   20.7461 C   0  0  0  0  0  0
  -27.2546  -28.2829   20.7590 C   0  0  0  0  0  0
  -26.0144  -26.6707   19.4998 C   0  0  0  0  0  0
  -24.9095  -27.5637   19.4673 C   0  0  0  0  0  0
  -23.7205  -29.7418   20.1448 C   0  0  0  0  0  0
  -25.4136  -36.2961   24.0297 C   0  0  1  0  0  0
  -20.5947  -28.3753   23.1186 C   0  0  2  0  0  0
  -20.6797  -26.9433   22.5404 C   0  0  0  0  0  0
  -19.5773  -26.6375   21.5215 C   0  0  0  0  0  0
  -18.1955  -26.7942   22.1622 C   0  0  0  0  0  0
  -19.1584  -28.8903   23.2812 C   0  0  0  0  0  0
  -18.9494  -30.1492   23.8848 C   0  0  0  0  0  0
  -17.6487  -30.6598   24.0554 C   0  0  0  0  0  0
  -25.9102  -34.9344   23.5003 C   0  0  0  0  0  0
  -16.5377  -29.9084   23.6344 C   0  0  0  0  0  0
  -16.7305  -28.6505   23.0363 C   0  0  0  0  0  0
  -26.4560  -31.6531   25.0692 C   0  0  0  0  0  0
  -25.3682  -31.3786   26.1346 C   0  0  0  0  0  0
  -27.0463  -30.2896   24.6441 C   0  0  0  0  0  0
  -27.6046  -32.4348   25.7498 C   0  0  0  0  0  0
  -27.5570  -37.1758   24.8466 C   0  0  0  0  0  0
  -21.4339  -29.3038   22.3529 N   0  0  0  0  0  0
  -26.4280  -37.3698   23.9406 N   0  0  0  0  0  0
  -24.7520  -30.9861   22.0823 N   0  0  0  0  0  0
  -23.4211  -28.8004   23.3030 O   0  0  0  0  0  0
  -28.2327  -25.8121   20.2874 O   0  0  0  0  0  0
  -26.5718  -34.8883   22.4603 O   0  0  0  0  0  0
  -23.5703  -32.1191   23.6765 O   0  0  0  0  0  0
  -29.3474  -19.7988   21.0287 C   0  0  0  0  0  0
  -28.9820  -20.3895   19.0590 C   0  0  0  0  0  0
  -29.4608  -18.5038   20.3266 C   0  0  0  0  0  0
  -29.5123  -16.7848   20.7646 C   0  0  0  0  0  0
  -28.9759  -22.7130   20.6030 C   0  0  0  0  0  0
  -28.0686  -24.1768   20.0329 C   0  0  0  0  0  0
  -29.1827  -19.0246   19.0365 N   0  0  0  0  0  0
  -29.0335  -21.0545   20.2447 N   0  0  0  0  0  0
  -31.4695  -13.0256   19.2135 H   0  0  0  0  0  0
  -30.5204  -11.9024   20.1341 H   0  0  0  0  0  0
  -29.9309  -11.7734   17.6892 H   0  0  0  0  0  0
  -29.5775  -13.4835   17.6680 H   0  0  0  0  0  0
  -28.0469  -11.2821   19.0782 H   0  0  0  0  0  0
  -27.4289  -12.3596   17.8512 H   0  0  0  0  0  0
  -27.5391  -14.2481   19.3401 H   0  0  0  0  0  0
  -28.8097  -12.4878   21.4886 H   0  0  0  0  0  0
  -28.2799  -14.1372   21.7132 H   0  0  0  0  0  0
  -25.2785   -9.5682   22.4755 H   0  0  0  0  0  0
  -24.0012   -7.4640   22.7475 H   0  0  0  0  0  0
  -21.0860   -8.8783   19.8950 H   0  0  0  0  0  0
  -22.3726  -10.9673   19.6157 H   0  0  0  0  0  0
  -21.2012   -7.6149   23.9716 H   0  0  0  0  0  0
  -21.1484   -6.0523   25.9077 H   0  0  0  0  0  0
  -22.0596   -2.7610   23.2844 H   0  0  0  0  0  0
  -22.4072  -11.9841   22.4842 H   0  0  0  0  0  0
  -21.1047  -13.1173   22.2654 H   0  0  0  0  0  0
  -24.6364  -15.8486   20.5372 H   0  0  0  0  0  0
  -26.2506  -15.6425   20.0847 H   0  0  0  0  0  0
  -26.7381  -32.5110   23.0869 H   0  0  0  0  0  0
  -25.0060  -33.9467   25.0169 H   0  0  0  0  0  0
  -22.7936  -31.2623   21.3438 H   0  0  0  0  0  0
  -23.3768  -35.9521   23.3278 H   0  0  0  0  0  0
  -24.3568  -36.8884   22.2068 H   0  0  0  0  0  0
  -23.7240  -37.6376   23.6728 H   0  0  0  0  0  0
  -26.2298  -31.3631   20.6199 H   0  0  0  0  0  0
  -26.9080  -30.6817   22.0566 H   0  0  0  0  0  0
  -28.1480  -28.5854   21.2869 H   0  0  0  0  0  0
  -25.8891  -25.7158   19.0101 H   0  0  0  0  0  0
  -24.0113  -27.2530   18.9515 H   0  0  0  0  0  0
  -23.8755  -30.5084   19.3848 H   0  0  0  0  0  0
  -22.8303  -29.1953   19.8286 H   0  0  0  0  0  0
  -25.1336  -36.1754   25.0788 H   0  0  0  0  0  0
  -21.0035  -28.3363   24.1310 H   0  0  0  0  0  0
  -20.5674  -26.2373   23.3647 H   0  0  0  0  0  0
  -21.6661  -26.7405   22.1214 H   0  0  0  0  0  0
  -19.6931  -25.6273   21.1278 H   0  0  0  0  0  0
  -19.6713  -27.3157   20.6722 H   0  0  0  0  0  0
  -17.4224  -26.6685   21.4025 H   0  0  0  0  0  0
  -18.0348  -26.0095   22.9030 H   0  0  0  0  0  0
  -19.7969  -30.7321   24.2196 H   0  0  0  0  0  0
  -17.5038  -31.6273   24.5164 H   0  0  0  0  0  0
  -15.5375  -30.2969   23.7695 H   0  0  0  0  0  0
  -15.8706  -28.0805   22.7107 H   0  0  0  0  0  0
  -24.5877  -30.7124   25.7652 H   0  0  0  0  0  0
  -24.8857  -32.2990   26.4645 H   0  0  0  0  0  0
  -25.7908  -30.9034   27.0207 H   0  0  0  0  0  0
  -26.3135  -29.6562   24.1430 H   0  0  0  0  0  0
  -27.3969  -29.7271   25.5105 H   0  0  0  0  0  0
  -27.9084  -30.4072   23.9874 H   0  0  0  0  0  0
  -27.2608  -33.3692   26.1946 H   0  0  0  0  0  0
  -28.3925  -32.6841   25.0378 H   0  0  0  0  0  0
  -28.0640  -31.8564   26.5524 H   0  0  0  0  0  0
  -28.2567  -38.0073   24.7513 H   0  0  0  0  0  0
  -28.1088  -36.2599   24.6295 H   0  0  0  0  0  0
  -27.2286  -37.1401   25.8868 H   0  0  0  0  0  0
  -20.9598  -29.8717   21.6646 H   0  0  0  0  0  0
  -26.0127  -38.2756   24.1414 H   0  0  0  0  0  0
  -29.4540  -19.9269   22.0986 H   0  0  0  0  0  0
  -28.8015  -20.9329   18.1417 H   0  0  0  0  0  0
  -28.4847  -16.4511   20.6277 H   0  0  0  0  0  0
  -29.6137  -16.7909   21.8493 H   0  0  0  0  0  0
  -28.8447  -22.7359   21.6844 H   0  0  0  0  0  0
  -30.0147  -23.0158   20.4738 H   0  0  0  0  0  0
  -27.0311  -23.9735   20.2981 H   0  0  0  0  0  0
  -28.0798  -24.0986   18.9457 H   0  0  0  0  0  0
  1 25  1  0  0  0
  1 30  2  0  0  0
  1 74  1  0  0  0
  2  3  1  0  0  0
  2 25  1  0  0  0
  2 79  1  0  0  0
  2 80  1  0  0  0
  3  4  1  0  0  0
  3 81  1  0  0  0
  3 82  1  0  0  0
  4  5  1  0  0  0
  4 83  1  0  0  0
  4 84  1  0  0  0
  5  6  1  0  0  0
  5 26  1  0  0  0
  5 85  1  0  0  0
  6 25  1  0  0  0
  6 86  1  0  0  0
  6 87  1  0  0  0
  7  8  2  0  0  0
  7 26  1  0  0  0
  7 29  1  0  0  0
  8  9  1  0  0  0
  8 22  1  0  0  0
  9 10  1  0  0  0
  9 27  2  0  0  0
 10 11  2  0  0  0
 10 15  1  0  0  0
 11 12  1  0  0  0
 11 88  1  0  0  0
 12 13  2  0  0  0
 12 89  1  0  0  0
 13 14  1  0  0  0
 13 31  1  0  0  0
 14 15  2  0  0  0
 14 90  1  0  0  0
 15 91  1  0  0  0
 16 17  2  0  0  0
 16 21  1  0  0  0
 16 31  1  0  0  0
 17 18  1  0  0  0
 17 92  1  0  0  0
 18 19  2  0  0  0
 18 93  1  0  0  0
 19 20  1  0  0  0
 19 24  1  0  0  0
 20 21  2  0  0  0
 20 94  1  0  0  0
 21 23  1  0  0  0
 22 28  1  0  0  0
 22 32  2  0  0  0
 26 27  1  0  0  0
 28 95  1  0  0  0
 28 96  1  0  0  0
 29 97  1  0  0  0
 29 98  1  0  0  0
 33 34  1  0  0  0
 33 66  1  0  0  0
 33 70  2  0  0  0
 34 36  1  0  0  0
 34 59  1  0  0  0
 34 99  1  0  0  0
 35 44  2  0  0  0
 35 45  1  0  0  0
 35 68  1  0  0  0
 36 56  1  0  0  0
 36100  1  0  0  0
 37 39  1  0  0  0
 37 47  1  0  0  0
 37 66  1  0  0  0
 37101  1  0  0  0
 38 43  2  0  0  0
 38 46  1  0  0  0
 38 47  1  0  0  0
 39 64  1  0  0  0
 39 67  2  0  0  0
 40 52  1  0  0  0
 40 53  2  0  0  0
 40 58  1  0  0  0
 41102  1  0  0  0
 41103  1  0  0  0
 41104  1  0  0  0
 41 48  1  0  0  0
 42 43  1  0  0  0
 42 66  1  0  0  0
 42105  1  0  0  0
 42106  1  0  0  0
 43 44  1  0  0  0
 44107  1  0  0  0
 45 46  2  0  0  0
 45108  1  0  0  0
 46109  1  0  0  0
 47110  1  0  0  0
 47111  1  0  0  0
 48 56  1  0  0  0
 48 65  1  0  0  0
 48112  1  0  0  0
 49 50  1  0  0  0
 49 53  1  0  0  0
 49 64  1  0  0  0
 49113  1  0  0  0
 50 51  1  0  0  0
 50114  1  0  0  0
 50115  1  0  0  0
 51 52  1  0  0  0
 51116  1  0  0  0
 51117  1  0  0  0
 52118  1  0  0  0
 52119  1  0  0  0
 53 54  1  0  0  0
 54 55  2  0  0  0
 54120  1  0  0  0
 55 57  1  0  0  0
 55121  1  0  0  0
 56 69  2  0  0  0
 57 58  2  0  0  0
 57122  1  0  0  0
 58123  1  0  0  0
 59 60  1  0  0  0
 59 61  1  0  0  0
 59 62  1  0  0  0
 60124  1  0  0  0
 60125  1  0  0  0
 60126  1  0  0  0
 61127  1  0  0  0
 61128  1  0  0  0
 61129  1  0  0  0
 62130  1  0  0  0
 62131  1  0  0  0
 62132  1  0  0  0
 63 65  1  0  0  0
 63133  1  0  0  0
 63134  1  0  0  0
 63135  1  0  0  0
 64136  1  0  0  0
 65137  1  0  0  0
 68 76  1  0  0  0
 71 73  2  0  0  0
 71 78  1  0  0  0
 71138  1  0  0  0
 72 77  2  0  0  0
 72 78  1  0  0  0
 72139  1  0  0  0
 73 74  1  0  0  0
 73 77  1  0  0  0
 74140  1  0  0  0
 74141  1  0  0  0
 75 76  1  0  0  0
 75 78  1  0  0  0
 75142  1  0  0  0
 75143  1  0  0  0
 76144  1  0  0  0
 76145  1  0  0  0
M  ISO  4   1 100  68 101  74 100  76 101
M  END
> <chiral flag>
0

> <version>
0

> <s_m_source_file>
/data/baiqing/PycharmProjects/Reinvent-master-3.2/result/LINK_invent/BTK/process_docking_weight1_custom_sum_contain_oxygen_bond_distance_aromatic_linkinvent_7_9_3/rearranged_h_0048.sdf

> <i_m_source_file_index>
27

> <r_mmod_Potential_Energy-OPLS-2005>
1391.44836425781

> <r_mmod_Stretch_Energy-OPLS-2005>
623.360900878906

> <r_mmod_Bend_Energy-OPLS-2005>
481.614440917969

> <r_mmod_Torsional_Energy-OPLS-2005>
191.734329223633

> <r_mmod_Improper_Torsional_Energy-OPLS-2005>
4.16654253005981

> <r_mmod_Van_der_Waal_Energy-OPLS-2005>
105.215751647949

> <r_mmod_Electrostatic_Energy-OPLS-2005>
-265.359771728516

> <r_mmod_Solvation_Energy-OPLS-2005>
-230.024749755859

> <b_mmod_Minimization_Converged-OPLS-2005>
0

> <r_mmod_RMS_Derivative-OPLS-2005>
0.113266438245773

$$$$
28
                    3D
 Structure written by MMmdl.
168176  0  0  1  0            999 V2000
  -30.5000  -14.7762   20.3976 C   0  0  0  0  0  0
  -30.4299  -12.4467   19.4868 C   0  0  0  0  0  0
  -29.5039  -12.4865   18.2498 C   0  0  0  0  0  0
  -28.0383  -12.2968   18.6778 C   0  0  0  0  0  0
  -27.6404  -13.2076   19.8696 C   0  0  2  0  0  0
  -28.6810  -13.1295   21.0083 C   0  0  0  0  0  0
  -25.2516  -13.8118   20.5719 C   0  0  0  0  0  0
  -24.1834  -13.0397   20.9307 C   0  0  0  0  0  0
  -24.6418  -11.6858   20.8851 C   0  0  0  0  0  0
  -23.9084  -10.4260   21.0475 C   0  0  0  0  0  0
  -24.3627   -9.4148   21.9232 C   0  0  0  0  0  0
  -23.6306   -8.2178   22.0742 C   0  0  0  0  0  0
  -22.4285   -8.0267   21.3521 C   0  0  0  0  0  0
  -21.9939   -9.0260   20.4627 C   0  0  0  0  0  0
  -22.7279  -10.2127   20.3082 C   0  0  0  0  0  0
  -21.6862   -6.0737   22.5274 C   0  0  0  0  0  0
  -21.4018   -6.5639   23.8207 C   0  0  0  0  0  0
  -21.3652   -5.6783   24.9165 C   0  0  0  0  0  0
  -21.6054   -4.3050   24.7204 C   0  0  0  0  0  0
  -21.8830   -3.8151   23.4325 C   0  0  0  0  0  0
  -21.9178   -4.6966   22.3384 C   0  0  0  0  0  0
  -22.7846  -13.5177   21.1946 C   0  0  0  0  0  0
  -22.1668   -4.2156   21.0959 F   0  0  0  0  0  0
  -21.5604   -3.4540   25.7712 F   0  0  0  0  0  0
  -29.9666  -13.5085   20.4125 N   0  0  0  0  0  0
  -26.2892  -12.9270   20.3328 N   0  0  0  0  0  0
  -25.9334  -11.6447   20.5879 N   0  0  0  0  0  0
  -22.0548  -12.8102   22.0461 N   0  0  0  0  0  0
  -25.4337  -15.1838   20.4079 N   0  0  0  0  0  0
  -31.6930  -14.9386   20.0973 O   0  0  0  0  0  0
  -21.6635   -6.8892   21.4237 O   0  0  0  0  0  0
  -22.3502  -14.5503   20.6856 O   0  0  0  0  0  0
  -24.6256  -31.8413   23.1848 C   0  0  0  0  0  0
  -25.8992  -32.4723   23.8255 C   0  0  1  0  0  0
  -27.2437  -27.2727   20.1007 C   0  0  0  0  0  0
  -25.5729  -33.8536   24.2085 N   0  0  0  0  0  0
  -23.4370  -30.4599   21.5390 C   0  0  2  0  0  0
  -24.8839  -28.9036   20.1027 C   0  0  0  0  0  0
  -22.7513  -29.4590   22.5001 C   0  0  0  0  0  0
  -18.0272  -28.1619   22.8222 C   0  0  0  0  0  0
  -24.1540  -36.7322   23.2670 C   0  0  0  0  0  0
  -25.9738  -30.7827   21.3382 C   0  0  0  0  0  0
  -26.0508  -29.3867   20.7044 C   0  0  0  0  0  0
  -27.2320  -28.5769   20.7024 C   0  0  0  0  0  0
  -26.0506  -26.8420   19.4853 C   0  0  0  0  0  0
  -24.8809  -27.6376   19.4890 C   0  0  0  0  0  0
  -23.6375  -29.7648   20.1743 C   0  0  0  0  0  0
  -25.4169  -36.3093   24.0385 C   0  0  1  0  0  0
  -20.5865  -28.3715   23.0968 C   0  0  2  0  0  0
  -20.6697  -26.9331   22.5161 C   0  0  0  0  0  0
  -19.5489  -26.5819   21.5394 C   0  0  0  0  0  0
  -18.1687  -26.8055   22.1678 C   0  0  0  0  0  0
  -19.1560  -28.9034   23.2444 C   0  0  0  0  0  0
  -18.9596  -30.1651   23.8396 C   0  0  0  0  0  0
  -17.6598  -30.6802   24.0281 C   0  0  0  0  0  0
  -25.9031  -34.9446   23.5038 C   0  0  0  0  0  0
  -16.5400  -29.9291   23.6262 C   0  0  0  0  0  0
  -16.7267  -28.6765   23.0148 C   0  0  0  0  0  0
  -26.4354  -31.6702   25.0747 C   0  0  0  0  0  0
  -25.3672  -31.3889   26.1592 C   0  0  0  0  0  0
  -26.9962  -30.3064   24.6146 C   0  0  0  0  0  0
  -27.5816  -32.4583   25.7604 C   0  0  0  0  0  0
  -27.5624  -37.1880   24.8501 C   0  0  0  0  0  0
  -21.4241  -29.2880   22.3315 N   0  0  0  0  0  0
  -26.4325  -37.3814   23.9433 N   0  0  0  0  0  0
  -24.7070  -31.0498   22.0806 N   0  0  0  0  0  0
  -23.4071  -28.8406   23.3342 O   0  0  0  0  0  0
  -28.3806  -26.4371   20.1716 O   0  0  0  0  0  0
  -26.5611  -34.8877   22.4602 O   0  0  0  0  0  0
  -23.5385  -32.1020   23.7230 O   0  0  0  0  0  0
  -28.5117  -21.5273   17.9398 C   0  0  0  0  0  0
  -28.6402  -21.1639   19.3097 C   0  0  0  0  0  0
  -28.4338  -19.7501   19.2943 C   0  0  0  0  0  0
  -24.9758  -20.6855   18.0077 C   0  0  0  0  0  0
  -25.3043  -19.7834   15.7295 C   0  0  0  0  0  0
  -24.1436  -18.4202   17.4304 C   0  0  0  0  0  0
  -28.9838  -22.3236   20.3126 C   0  0  0  0  0  0
  -28.6057  -18.4762   20.2503 C   0  0  0  0  0  0
  -28.0951  -23.6989   20.3080 C   0  0  0  0  0  0
  -26.6940  -18.6677   17.6300 C   0  0  0  0  0  0
  -29.7462  -17.3196   19.9704 C   0  0  0  0  0  0
  -28.5099  -25.0688   19.5572 C   0  0  0  0  0  0
  -25.3170  -19.3825   17.2268 C   0  0  0  0  0  0
  -28.0346  -20.5652   17.2011 N   0  0  0  0  0  0
  -27.7240  -19.6065   18.0878 N   0  0  0  0  0  0
  -29.6144  -15.8570   20.4578 N   0  0  0  0  0  0
  -31.4710  -12.5873   19.1911 H   0  0  0  0  0  0
  -30.3967  -11.4634   19.9598 H   0  0  0  0  0  0
  -29.7942  -11.7205   17.5279 H   0  0  0  0  0  0
  -29.6146  -13.4424   17.7397 H   0  0  0  0  0  0
  -27.9259  -11.2526   18.9704 H   0  0  0  0  0  0
  -27.3684  -12.4554   17.8382 H   0  0  0  0  0  0
  -27.6315  -14.2260   19.4788 H   0  0  0  0  0  0
  -28.7285  -12.1247   21.4383 H   0  0  0  0  0  0
  -28.4179  -13.8044   21.8274 H   0  0  0  0  0  0
  -25.2808   -9.5555   22.4801 H   0  0  0  0  0  0
  -24.0035   -7.4505   22.7409 H   0  0  0  0  0  0
  -21.0908   -8.8801   19.8896 H   0  0  0  0  0  0
  -22.3844  -10.9675   19.6170 H   0  0  0  0  0  0
  -21.2078   -7.6164   23.9704 H   0  0  0  0  0  0
  -21.1461   -6.0526   25.9053 H   0  0  0  0  0  0
  -22.0639   -2.7631   23.2813 H   0  0  0  0  0  0
  -22.4240  -11.9728   22.4745 H   0  0  0  0  0  0
  -21.1148  -13.0992   22.2731 H   0  0  0  0  0  0
  -24.6800  -15.8494   20.5376 H   0  0  0  0  0  0
  -26.2553  -15.5961   19.9932 H   0  0  0  0  0  0
  -26.7011  -32.5311   23.0960 H   0  0  0  0  0  0
  -24.9994  -33.9732   25.0320 H   0  0  0  0  0  0
  -22.7494  -31.2891   21.3614 H   0  0  0  0  0  0
  -23.3772  -35.9680   23.3287 H   0  0  0  0  0  0
  -24.3627  -36.8955   22.2064 H   0  0  0  0  0  0
  -23.7255  -37.6520   23.6631 H   0  0  0  0  0  0
  -26.0501  -31.5460   20.5613 H   0  0  0  0  0  0
  -26.8857  -30.8668   21.9232 H   0  0  0  0  0  0
  -28.1357  -28.9532   21.1760 H   0  0  0  0  0  0
  -26.0097  -25.8582   19.0435 H   0  0  0  0  0  0
  -23.9783  -27.2366   19.0495 H   0  0  0  0  0  0
  -23.6986  -30.5310   19.4058 H   0  0  0  0  0  0
  -22.7599  -29.1680   19.9111 H   0  0  0  0  0  0
  -25.1285  -36.1832   25.0901 H   0  0  0  0  0  0
  -20.9865  -28.3389   24.1158 H   0  0  0  0  0  0
  -20.5762  -26.2284   23.3506 H   0  0  0  0  0  0
  -21.6416  -26.7542   22.0461 H   0  0  0  0  0  0
  -19.6287  -25.5373   21.2376 H   0  0  0  0  0  0
  -19.6446  -27.1896   20.6387 H   0  0  0  0  0  0
  -17.3901  -26.7013   21.4058 H   0  0  0  0  0  0
  -17.9516  -26.0652   22.9421 H   0  0  0  0  0  0
  -19.8242  -30.7232   24.1726 H   0  0  0  0  0  0
  -17.5165  -31.6545   24.4761 H   0  0  0  0  0  0
  -15.5447  -30.3291   23.7818 H   0  0  0  0  0  0
  -15.8665  -28.1107   22.6784 H   0  0  0  0  0  0
  -24.5802  -30.7098   25.8215 H   0  0  0  0  0  0
  -24.8830  -32.3043   26.4928 H   0  0  0  0  0  0
  -25.8125  -30.9388   27.0500 H   0  0  0  0  0  0
  -26.2253  -29.7016   24.1305 H   0  0  0  0  0  0
  -27.3612  -29.7197   25.4622 H   0  0  0  0  0  0
  -27.8247  -30.4211   23.9154 H   0  0  0  0  0  0
  -27.2261  -33.3971   26.1904 H   0  0  0  0  0  0
  -28.3778  -32.7180   25.0592 H   0  0  0  0  0  0
  -28.0219  -31.8875   26.5798 H   0  0  0  0  0  0
  -28.2675  -38.0148   24.7495 H   0  0  0  0  0  0
  -28.1039  -36.2655   24.6285 H   0  0  0  0  0  0
  -27.2380  -37.1522   25.8926 H   0  0  0  0  0  0
  -20.9884  -29.7658   21.5562 H   0  0  0  0  0  0
  -26.0158  -38.2962   24.1216 H   0  0  0  0  0  0
  -28.6863  -22.4834   17.4623 H   0  0  0  0  0  0
  -24.1323  -21.1993   17.5241 H   0  0  0  0  0  0
  -25.7709  -21.4292   18.0062 H   0  0  0  0  0  0
  -24.7063  -20.4833   19.0474 H   0  0  0  0  0  0
  -26.1031  -20.4882   15.5079 H   0  0  0  0  0  0
  -24.3674  -20.2781   15.4539 H   0  0  0  0  0  0
  -25.4259  -18.9207   15.0711 H   0  0  0  0  0  0
  -24.1181  -18.0565   18.4552 H   0  0  0  0  0  0
  -24.2550  -17.5468   16.8012 H   0  0  0  0  0  0
  -23.1845  -18.8925   17.1809 H   0  0  0  0  0  0
  -30.0352  -22.6132   20.2302 H   0  0  0  0  0  0
  -28.8882  -21.9193   21.3198 H   0  0  0  0  0  0
  -27.6394  -17.9691   20.3086 H   0  0  0  0  0  0
  -28.7524  -18.8686   21.2565 H   0  0  0  0  0  0
  -28.0594  -23.9982   21.3519 H   0  0  0  0  0  0
  -27.0505  -23.4625   20.0927 H   0  0  0  0  0  0
  -26.5730  -17.8874   18.3866 H   0  0  0  0  0  0
  -27.0875  -18.1196   16.7805 H   0  0  0  0  0  0
  -30.7119  -17.6863   20.3116 H   0  0  0  0  0  0
  -29.8485  -17.2408   18.8932 H   0  0  0  0  0  0
  -28.0487  -25.0936   18.5715 H   0  0  0  0  0  0
  -29.5736  -24.9719   19.3327 H   0  0  0  0  0  0
  -28.6782  -15.5787   20.7116 H   0  0  0  0  0  0
  1 25  1  0  0  0
  1 30  2  0  0  0
  1 86  1  0  0  0
  2  3  1  0  0  0
  2 25  1  0  0  0
  2 87  1  0  0  0
  2 88  1  0  0  0
  3  4  1  0  0  0
  3 89  1  0  0  0
  3 90  1  0  0  0
  4  5  1  0  0  0
  4 91  1  0  0  0
  4 92  1  0  0  0
  5  6  1  0  0  0
  5 26  1  0  0  0
  5 93  1  0  0  0
  6 25  1  0  0  0
  6 94  1  0  0  0
  6 95  1  0  0  0
  7  8  2  0  0  0
  7 26  1  0  0  0
  7 29  1  0  0  0
  8  9  1  0  0  0
  8 22  1  0  0  0
  9 10  1  0  0  0
  9 27  2  0  0  0
 10 11  2  0  0  0
 10 15  1  0  0  0
 11 12  1  0  0  0
 11 96  1  0  0  0
 12 13  2  0  0  0
 12 97  1  0  0  0
 13 14  1  0  0  0
 13 31  1  0  0  0
 14 15  2  0  0  0
 14 98  1  0  0  0
 15 99  1  0  0  0
 16 17  2  0  0  0
 16 21  1  0  0  0
 16 31  1  0  0  0
 17 18  1  0  0  0
 17100  1  0  0  0
 18 19  2  0  0  0
 18101  1  0  0  0
 19 20  1  0  0  0
 19 24  1  0  0  0
 20 21  2  0  0  0
 20102  1  0  0  0
 21 23  1  0  0  0
 22 28  1  0  0  0
 22 32  2  0  0  0
 26 27  1  0  0  0
 28103  1  0  0  0
 28104  1  0  0  0
 29105  1  0  0  0
 29106  1  0  0  0
 33 34  1  0  0  0
 33 66  1  0  0  0
 33 70  2  0  0  0
 34 36  1  0  0  0
 34 59  1  0  0  0
 34107  1  0  0  0
 35 44  2  0  0  0
 35 45  1  0  0  0
 35 68  1  0  0  0
 36 56  1  0  0  0
 36108  1  0  0  0
 37 39  1  0  0  0
 37 47  1  0  0  0
 37 66  1  0  0  0
 37109  1  0  0  0
 38 43  2  0  0  0
 38 46  1  0  0  0
 38 47  1  0  0  0
 39 64  1  0  0  0
 39 67  2  0  0  0
 40 52  1  0  0  0
 40 53  2  0  0  0
 40 58  1  0  0  0
 41110  1  0  0  0
 41111  1  0  0  0
 41112  1  0  0  0
 41 48  1  0  0  0
 42 43  1  0  0  0
 42 66  1  0  0  0
 42113  1  0  0  0
 42114  1  0  0  0
 43 44  1  0  0  0
 44115  1  0  0  0
 45 46  2  0  0  0
 45116  1  0  0  0
 46117  1  0  0  0
 47118  1  0  0  0
 47119  1  0  0  0
 48 56  1  0  0  0
 48 65  1  0  0  0
 48120  1  0  0  0
 49 50  1  0  0  0
 49 53  1  0  0  0
 49 64  1  0  0  0
 49121  1  0  0  0
 50 51  1  0  0  0
 50122  1  0  0  0
 50123  1  0  0  0
 51 52  1  0  0  0
 51124  1  0  0  0
 51125  1  0  0  0
 52126  1  0  0  0
 52127  1  0  0  0
 53 54  1  0  0  0
 54 55  2  0  0  0
 54128  1  0  0  0
 55 57  1  0  0  0
 55129  1  0  0  0
 56 69  2  0  0  0
 57 58  2  0  0  0
 57130  1  0  0  0
 58131  1  0  0  0
 59 60  1  0  0  0
 59 61  1  0  0  0
 59 62  1  0  0  0
 60132  1  0  0  0
 60133  1  0  0  0
 60134  1  0  0  0
 61135  1  0  0  0
 61136  1  0  0  0
 61137  1  0  0  0
 62138  1  0  0  0
 62139  1  0  0  0
 62140  1  0  0  0
 63 65  1  0  0  0
 63141  1  0  0  0
 63142  1  0  0  0
 63143  1  0  0  0
 64144  1  0  0  0
 65145  1  0  0  0
 68 82  1  0  0  0
 71 72  1  0  0  0
 71 84  2  0  0  0
 71146  1  0  0  0
 72 73  2  0  0  0
 72 77  1  0  0  0
 73 78  1  0  0  0
 73 85  1  0  0  0
 74147  1  0  0  0
 74148  1  0  0  0
 74149  1  0  0  0
 74 83  1  0  0  0
 75 83  1  0  0  0
 75150  1  0  0  0
 75151  1  0  0  0
 75152  1  0  0  0
 76 83  1  0  0  0
 76153  1  0  0  0
 76154  1  0  0  0
 76155  1  0  0  0
 77 79  1  0  0  0
 77156  1  0  0  0
 77157  1  0  0  0
 78 81  1  0  0  0
 78158  1  0  0  0
 78159  1  0  0  0
 79 82  1  0  0  0
 79160  1  0  0  0
 79161  1  0  0  0
 80 83  1  0  0  0
 80 85  1  0  0  0
 80162  1  0  0  0
 80163  1  0  0  0
 81 86  1  0  0  0
 81164  1  0  0  0
 81165  1  0  0  0
 82166  1  0  0  0
 82167  1  0  0  0
 84 85  1  0  0  0
 86168  1  0  0  0
M  ISO  4   1 100  68 101  82 101  86 100
M  END
> <chiral flag>
0

> <version>
0

> <s_m_source_file>
/data/baiqing/PycharmProjects/Reinvent-master-3.2/result/LINK_invent/BTK/process_docking_weight1_custom_sum_contain_oxygen_bond_distance_aromatic_linkinvent_7_9_3/rearranged_h_0048.sdf

> <i_m_source_file_index>
28

> <r_mmod_Potential_Energy-OPLS-2005>
333.592956542969

> <r_mmod_Stretch_Energy-OPLS-2005>
156.167404174805

> <r_mmod_Bend_Energy-OPLS-2005>
236.957901000977

> <r_mmod_Torsional_Energy-OPLS-2005>
285.173492431641

> <r_mmod_Improper_Torsional_Energy-OPLS-2005>
8.0316743850708

> <r_mmod_Van_der_Waal_Energy-OPLS-2005>
113.428024291992

> <r_mmod_Electrostatic_Energy-OPLS-2005>
-343.242523193359

> <r_mmod_Solvation_Energy-OPLS-2005>
-219.499145507812

> <b_mmod_Minimization_Converged-OPLS-2005>
0

> <r_mmod_RMS_Derivative-OPLS-2005>
15.5496788024902

$$$$
29
                    3D
 Structure written by MMmdl.
162169  0  0  1  0            999 V2000
  -30.4573  -15.1450   20.3334 C   0  0  0  0  0  0
  -30.4524  -12.7092   19.5374 C   0  0  0  0  0  0
  -29.5433  -12.5486   18.2905 C   0  0  0  0  0  0
  -28.0706  -12.3225   18.6906 C   0  0  0  0  0  0
  -27.6145  -13.2767   19.8253 C   0  0  2  0  0  0
  -28.6542  -13.3722   20.9594 C   0  0  0  0  0  0
  -25.2292  -13.8235   20.5671 C   0  0  0  0  0  0
  -24.1705  -13.0453   20.9307 C   0  0  0  0  0  0
  -24.6360  -11.6936   20.8815 C   0  0  0  0  0  0
  -23.9084  -10.4287   21.0408 C   0  0  0  0  0  0
  -24.3621   -9.4198   21.9184 C   0  0  0  0  0  0
  -23.6310   -8.2232   22.0715 C   0  0  0  0  0  0
  -22.4267   -8.0284   21.3528 C   0  0  0  0  0  0
  -21.9925   -9.0264   20.4602 C   0  0  0  0  0  0
  -22.7256  -10.2137   20.3039 C   0  0  0  0  0  0
  -21.6858   -6.0743   22.5296 C   0  0  0  0  0  0
  -21.4006   -6.5635   23.8225 C   0  0  0  0  0  0
  -21.3679   -5.6772   24.9193 C   0  0  0  0  0  0
  -21.6073   -4.3044   24.7224 C   0  0  0  0  0  0
  -21.8806   -3.8157   23.4344 C   0  0  0  0  0  0
  -21.9164   -4.6987   22.3397 C   0  0  0  0  0  0
  -22.7707  -13.5178   21.2005 C   0  0  0  0  0  0
  -22.1620   -4.2170   21.0981 F   0  0  0  0  0  0
  -21.5663   -3.4518   25.7737 F   0  0  0  0  0  0
  -29.9198  -13.8368   20.3660 N   0  0  0  0  0  0
  -26.2780  -12.9550   20.3170 N   0  0  0  0  0  0
  -25.9288  -11.6659   20.5706 N   0  0  0  0  0  0
  -22.0375  -12.8152   22.0549 N   0  0  0  0  0  0
  -25.3892  -15.1972   20.3924 N   0  0  0  0  0  0
  -31.6862  -15.1748   20.1832 O   0  0  0  0  0  0
  -21.6637   -6.8905   21.4242 O   0  0  0  0  0  0
  -22.3367  -14.5473   20.6840 O   0  0  0  0  0  0
  -24.6684  -31.8254   23.1687 C   0  0  0  0  0  0
  -25.9392  -32.4585   23.8219 C   0  0  1  0  0  0
  -27.2429  -26.9563   20.1852 C   0  0  0  0  0  0
  -25.6119  -33.8410   24.2162 N   0  0  0  0  0  0
  -23.4874  -30.4287   21.5204 C   0  0  2  0  0  0
  -24.9421  -28.8118   20.1325 C   0  0  0  0  0  0
  -22.7714  -29.4405   22.4797 C   0  0  0  0  0  0
  -18.0320  -28.1408   22.8490 C   0  0  0  0  0  0
  -24.1447  -36.7206   23.2637 C   0  0  0  0  0  0
  -26.0578  -30.6356   21.3973 C   0  0  0  0  0  0
  -26.1291  -29.2273   20.7450 C   0  0  0  0  0  0
  -27.2800  -28.3248   20.7391 C   0  0  0  0  0  0
  -26.0178  -26.6767   19.5393 C   0  0  0  0  0  0
  -24.9062  -27.5506   19.5174 C   0  0  0  0  0  0
  -23.7337  -29.7384   20.1521 C   0  0  0  0  0  0
  -25.4086  -36.2976   24.0310 C   0  0  1  0  0  0
  -20.5945  -28.3751   23.1188 C   0  0  2  0  0  0
  -20.6780  -26.9436   22.5376 C   0  0  0  0  0  0
  -19.5725  -26.6361   21.5230 C   0  0  0  0  0  0
  -18.1910  -26.7951   22.1627 C   0  0  0  0  0  0
  -19.1586  -28.8909   23.2814 C   0  0  0  0  0  0
  -18.9498  -30.1501   23.8833 C   0  0  0  0  0  0
  -17.6486  -30.6592   24.0557 C   0  0  0  0  0  0
  -25.9061  -34.9358   23.5010 C   0  0  0  0  0  0
  -16.5375  -29.9082   23.6354 C   0  0  0  0  0  0
  -16.7306  -28.6498   23.0394 C   0  0  0  0  0  0
  -26.4600  -31.6542   25.0770 C   0  0  0  0  0  0
  -25.3699  -31.3840   26.1416 C   0  0  0  0  0  0
  -27.0557  -30.2930   24.6526 C   0  0  0  0  0  0
  -27.6081  -32.4372   25.7610 C   0  0  0  0  0  0
  -27.5528  -37.1746   24.8478 C   0  0  0  0  0  0
  -21.4382  -29.3048   22.3566 N   0  0  0  0  0  0
  -26.4233  -37.3724   23.9431 N   0  0  0  0  0  0
  -24.7586  -30.9904   22.0827 N   0  0  0  0  0  0
  -23.4239  -28.7925   23.3011 O   0  0  0  0  0  0
  -28.2704  -25.8877   20.2091 O   0  0  0  0  0  0
  -26.5540  -34.8902   22.4524 O   0  0  0  0  0  0
  -23.5739  -32.1254   23.6739 O   0  0  0  0  0  0
  -29.3027  -16.6796   18.5692 C   0  0  0  0  0  0
  -27.5176  -20.8520   21.1039 C   0  0  0  0  0  0
  -28.7878  -22.8021   18.4289 C   0  0  0  0  0  0
  -30.4479  -23.2722   20.3034 C   0  0  0  0  0  0
  -30.7857  -19.9484   19.2029 C   0  0  0  0  0  0
  -29.7494  -18.2595   20.7289 C   0  0  0  0  0  0
  -28.0313  -24.2727   20.3676 C   0  0  0  0  0  0
  -29.5804  -16.6147   20.0917 C   0  0  2  0  0  0
  -28.9392  -21.1337   20.6039 C   0  0  2  0  0  0
  -29.0078  -22.8251   19.9653 C   0  0  0  0  0  0
  -29.5417  -19.7164   19.9725 N   0  3  1  0  0  0
  -31.4780  -12.9001   19.2174 H   0  0  0  0  0  0
  -30.4976  -11.7911   20.1248 H   0  0  0  0  0  0
  -29.8961  -11.7285   17.6645 H   0  0  0  0  0  0
  -29.6151  -13.4491   17.6804 H   0  0  0  0  0  0
  -27.9701  -11.2868   19.0185 H   0  0  0  0  0  0
  -27.4236  -12.4283   17.8206 H   0  0  0  0  0  0
  -27.5465  -14.2649   19.3680 H   0  0  0  0  0  0
  -28.7807  -12.4034   21.4448 H   0  0  0  0  0  0
  -28.3234  -14.0656   21.7340 H   0  0  0  0  0  0
  -25.2717   -9.5715   22.4818 H   0  0  0  0  0  0
  -24.0032   -7.4584   22.7382 H   0  0  0  0  0  0
  -21.0875   -8.8797   19.8862 H   0  0  0  0  0  0
  -22.3699  -10.9720   19.6195 H   0  0  0  0  0  0
  -21.1989   -7.6131   23.9769 H   0  0  0  0  0  0
  -21.1533   -6.0488   25.9103 H   0  0  0  0  0  0
  -22.0572   -2.7625   23.2826 H   0  0  0  0  0  0
  -22.3932  -11.9807   22.5009 H   0  0  0  0  0  0
  -21.0952  -13.1121   22.2665 H   0  0  0  0  0  0
  -24.5976  -15.8266   20.4443 H   0  0  0  0  0  0
  -26.1898  -15.6164   19.9388 H   0  0  0  0  0  0
  -26.7494  -32.5093   23.0959 H   0  0  0  0  0  0
  -25.0687  -33.9519   25.0602 H   0  0  0  0  0  0
  -22.8042  -31.2571   21.3342 H   0  0  0  0  0  0
  -23.3731  -35.9513   23.3270 H   0  0  0  0  0  0
  -24.3516  -36.8869   22.2050 H   0  0  0  0  0  0
  -23.7177  -37.6389   23.6693 H   0  0  0  0  0  0
  -26.2395  -31.3710   20.6123 H   0  0  0  0  0  0
  -26.9182  -30.6913   22.0516 H   0  0  0  0  0  0
  -28.1887  -28.6564   21.2211 H   0  0  0  0  0  0
  -25.8877  -25.7171   19.0587 H   0  0  0  0  0  0
  -23.9996  -27.2094   19.0386 H   0  0  0  0  0  0
  -23.9206  -30.5011   19.3968 H   0  0  0  0  0  0
  -22.8492  -29.1975   19.8129 H   0  0  0  0  0  0
  -25.1243  -36.1782   25.0796 H   0  0  0  0  0  0
  -21.0028  -28.3322   24.1317 H   0  0  0  0  0  0
  -20.5680  -26.2382   23.3609 H   0  0  0  0  0  0
  -21.6626  -26.7402   22.1152 H   0  0  0  0  0  0
  -19.6862  -25.6258   21.1302 H   0  0  0  0  0  0
  -19.6648  -27.3109   20.6708 H   0  0  0  0  0  0
  -17.4196  -26.6783   21.3995 H   0  0  0  0  0  0
  -18.0246  -26.0086   22.8997 H   0  0  0  0  0  0
  -19.7963  -30.7363   24.2152 H   0  0  0  0  0  0
  -17.5019  -31.6263   24.5156 H   0  0  0  0  0  0
  -15.5355  -30.2945   23.7704 H   0  0  0  0  0  0
  -15.8720  -28.0760   22.7175 H   0  0  0  0  0  0
  -24.5858  -30.7220   25.7729 H   0  0  0  0  0  0
  -24.8910  -32.3058   26.4717 H   0  0  0  0  0  0
  -25.7858  -30.9083   27.0303 H   0  0  0  0  0  0
  -26.3287  -29.6575   24.1462 H   0  0  0  0  0  0
  -27.4068  -29.7318   25.5203 H   0  0  0  0  0  0
  -27.9204  -30.4165   24.0008 H   0  0  0  0  0  0
  -27.2652  -33.3733   26.2031 H   0  0  0  0  0  0
  -28.3982  -32.6836   25.0518 H   0  0  0  0  0  0
  -28.0670  -31.8632   26.5669 H   0  0  0  0  0  0
  -28.2529  -38.0060   24.7543 H   0  0  0  0  0  0
  -28.1029  -36.2583   24.6260 H   0  0  0  0  0  0
  -27.2252  -37.1345   25.8889 H   0  0  0  0  0  0
  -20.9652  -29.8877   21.6802 H   0  0  0  0  0  0
  -26.0071  -38.2776   24.1485 H   0  0  0  0  0  0
  -28.3307  -17.1180   18.3473 H   0  0  0  0  0  0
  -29.2828  -15.6846   18.1247 H   0  0  0  0  0  0
  -30.0574  -17.2400   18.0251 H   0  0  0  0  0  0
  -27.0541  -21.7477   21.5102 H   0  0  0  0  0  0
  -27.5411  -20.1241   21.9164 H   0  0  0  0  0  0
  -26.8696  -20.4659   20.3170 H   0  0  0  0  0  0
  -28.9900  -23.7818   17.9994 H   0  0  0  0  0  0
  -27.7435  -22.6169   18.1762 H   0  0  0  0  0  0
  -29.3857  -22.0955   17.8619 H   0  0  0  0  0  0
  -30.6364  -24.3039   20.0072 H   0  0  0  0  0  0
  -31.2217  -22.6617   19.8370 H   0  0  0  0  0  0
  -30.6144  -23.2167   21.3816 H   0  0  0  0  0  0
  -30.8263  -20.9182   18.7326 H   0  0  0  0  0  0
  -30.8786  -19.2118   18.4105 H   0  0  0  0  0  0
  -31.6811  -19.8384   19.8115 H   0  0  0  0  0  0
  -30.7236  -18.3033   21.2304 H   0  0  0  0  0  0
  -29.0477  -18.2784   21.5604 H   0  0  0  0  0  0
  -27.6799  -24.1359   21.3906 H   0  0  0  0  0  0
  -27.1179  -24.1017   19.8001 H   0  0  0  0  0  0
  -28.6216  -16.3076   20.5062 H   0  0  0  0  0  0
  -29.5153  -21.2043   21.5295 H   0  0  0  0  0  0
  -28.8645  -19.5060   19.2600 H   0  0  0  0  0  0
  1 25  1  0  0  0
  1 30  2  0  0  0
  1 78  1  0  0  0
  2  3  1  0  0  0
  2 25  1  0  0  0
  2 82  1  0  0  0
  2 83  1  0  0  0
  3  4  1  0  0  0
  3 84  1  0  0  0
  3 85  1  0  0  0
  4  5  1  0  0  0
  4 86  1  0  0  0
  4 87  1  0  0  0
  5  6  1  0  0  0
  5 26  1  0  0  0
  5 88  1  0  0  0
  6 25  1  0  0  0
  6 89  1  0  0  0
  6 90  1  0  0  0
  7  8  2  0  0  0
  7 26  1  0  0  0
  7 29  1  0  0  0
  8  9  1  0  0  0
  8 22  1  0  0  0
  9 10  1  0  0  0
  9 27  2  0  0  0
 10 11  2  0  0  0
 10 15  1  0  0  0
 11 12  1  0  0  0
 11 91  1  0  0  0
 12 13  2  0  0  0
 12 92  1  0  0  0
 13 14  1  0  0  0
 13 31  1  0  0  0
 14 15  2  0  0  0
 14 93  1  0  0  0
 15 94  1  0  0  0
 16 17  2  0  0  0
 16 21  1  0  0  0
 16 31  1  0  0  0
 17 18  1  0  0  0
 17 95  1  0  0  0
 18 19  2  0  0  0
 18 96  1  0  0  0
 19 20  1  0  0  0
 19 24  1  0  0  0
 20 21  2  0  0  0
 20 97  1  0  0  0
 21 23  1  0  0  0
 22 28  1  0  0  0
 22 32  2  0  0  0
 26 27  1  0  0  0
 28 98  1  0  0  0
 28 99  1  0  0  0
 29100  1  0  0  0
 29101  1  0  0  0
 33 34  1  0  0  0
 33 66  1  0  0  0
 33 70  2  0  0  0
 34 36  1  0  0  0
 34 59  1  0  0  0
 34102  1  0  0  0
 35 44  2  0  0  0
 35 45  1  0  0  0
 35 68  1  0  0  0
 36 56  1  0  0  0
 36103  1  0  0  0
 37 39  1  0  0  0
 37 47  1  0  0  0
 37 66  1  0  0  0
 37104  1  0  0  0
 38 43  2  0  0  0
 38 46  1  0  0  0
 38 47  1  0  0  0
 39 64  1  0  0  0
 39 67  2  0  0  0
 40 52  1  0  0  0
 40 53  2  0  0  0
 40 58  1  0  0  0
 41105  1  0  0  0
 41106  1  0  0  0
 41107  1  0  0  0
 41 48  1  0  0  0
 42 43  1  0  0  0
 42 66  1  0  0  0
 42108  1  0  0  0
 42109  1  0  0  0
 43 44  1  0  0  0
 44110  1  0  0  0
 45 46  2  0  0  0
 45111  1  0  0  0
 46112  1  0  0  0
 47113  1  0  0  0
 47114  1  0  0  0
 48 56  1  0  0  0
 48 65  1  0  0  0
 48115  1  0  0  0
 49 50  1  0  0  0
 49 53  1  0  0  0
 49 64  1  0  0  0
 49116  1  0  0  0
 50 51  1  0  0  0
 50117  1  0  0  0
 50118  1  0  0  0
 51 52  1  0  0  0
 51119  1  0  0  0
 51120  1  0  0  0
 52121  1  0  0  0
 52122  1  0  0  0
 53 54  1  0  0  0
 54 55  2  0  0  0
 54123  1  0  0  0
 55 57  1  0  0  0
 55124  1  0  0  0
 56 69  2  0  0  0
 57 58  2  0  0  0
 57125  1  0  0  0
 58126  1  0  0  0
 59 60  1  0  0  0
 59 61  1  0  0  0
 59 62  1  0  0  0
 60127  1  0  0  0
 60128  1  0  0  0
 60129  1  0  0  0
 61130  1  0  0  0
 61131  1  0  0  0
 61132  1  0  0  0
 62133  1  0  0  0
 62134  1  0  0  0
 62135  1  0  0  0
 63 65  1  0  0  0
 63136  1  0  0  0
 63137  1  0  0  0
 63138  1  0  0  0
 64139  1  0  0  0
 65140  1  0  0  0
 68 77  1  0  0  0
 71141  1  0  0  0
 71142  1  0  0  0
 71143  1  0  0  0
 71 78  1  0  0  0
 72144  1  0  0  0
 72145  1  0  0  0
 72146  1  0  0  0
 72 79  1  0  0  0
 73147  1  0  0  0
 73148  1  0  0  0
 73149  1  0  0  0
 73 80  1  0  0  0
 74 80  1  0  0  0
 74150  1  0  0  0
 74151  1  0  0  0
 74152  1  0  0  0
 75153  1  0  0  0
 75154  1  0  0  0
 75155  1  0  0  0
 75 81  1  0  0  0
 76 78  1  0  0  0
 76 81  1  0  0  0
 76156  1  0  0  0
 76157  1  0  0  0
 77 80  1  0  0  0
 77158  1  0  0  0
 77159  1  0  0  0
 78160  1  0  0  0
 79 80  1  0  0  0
 79 81  1  0  0  0
 79161  1  0  0  0
 81162  1  0  0  0
M  CHG  1  81   1
M  ISO  4   1 100  68 101  77 101  78 100
M  END
> <chiral flag>
0

> <version>
0

> <s_m_source_file>
/data/baiqing/PycharmProjects/Reinvent-master-3.2/result/LINK_invent/BTK/process_docking_weight1_custom_sum_contain_oxygen_bond_distance_aromatic_linkinvent_7_9_3/rearranged_h_0048.sdf

> <i_m_source_file_index>
29

> <r_mmod_Potential_Energy-OPLS-2005>
1141.12170410156

> <r_mmod_Stretch_Energy-OPLS-2005>
569.788330078125

> <r_mmod_Bend_Energy-OPLS-2005>
437.298095703125

> <r_mmod_Torsional_Energy-OPLS-2005>
277.323852539062

> <r_mmod_Improper_Torsional_Energy-OPLS-2005>
9.75241470336914

> <r_mmod_Van_der_Waal_Energy-OPLS-2005>
109.253700256348

> <r_mmod_Electrostatic_Energy-OPLS-2005>
-214.203018188477

> <r_mmod_Solvation_Energy-OPLS-2005>
-422.242706298828

> <b_mmod_Minimization_Converged-OPLS-2005>
0

> <r_mmod_RMS_Derivative-OPLS-2005>
8.66816425323486

$$$$
30
                    3D
 Structure written by MMmdl.
170178  0  0  1  0            999 V2000
  -30.6809  -14.4439   20.5390 C   0  0  0  0  0  0
  -30.4235  -12.2703   19.4377 C   0  0  0  0  0  0
  -29.5078  -12.4875   18.2189 C   0  0  0  0  0  0
  -28.0260  -12.3304   18.6228 C   0  0  0  0  0  0
  -27.6578  -13.1908   19.8633 C   0  0  2  0  0  0
  -28.6913  -12.9797   20.9941 C   0  0  0  0  0  0
  -25.2625  -13.8141   20.5703 C   0  0  0  0  0  0
  -24.1850  -13.0442   20.9221 C   0  0  0  0  0  0
  -24.6364  -11.6913   20.8739 C   0  0  0  0  0  0
  -23.9022  -10.4316   21.0422 C   0  0  0  0  0  0
  -24.3601   -9.4273   21.9203 C   0  0  0  0  0  0
  -23.6317   -8.2303   22.0801 C   0  0  0  0  0  0
  -22.4285   -8.0339   21.3624 C   0  0  0  0  0  0
  -21.9911   -9.0263   20.4683 C   0  0  0  0  0  0
  -22.7209  -10.2155   20.3062 C   0  0  0  0  0  0
  -21.6878   -6.0779   22.5317 C   0  0  0  0  0  0
  -21.4015   -6.5663   23.8264 C   0  0  0  0  0  0
  -21.3671   -5.6819   24.9214 C   0  0  0  0  0  0
  -21.6047   -4.3083   24.7238 C   0  0  0  0  0  0
  -21.8805   -3.8185   23.4341 C   0  0  0  0  0  0
  -21.9205   -4.7013   22.3423 C   0  0  0  0  0  0
  -22.7889  -13.5309   21.1845 C   0  0  0  0  0  0
  -22.1686   -4.2228   21.0988 F   0  0  0  0  0  0
  -21.5628   -3.4539   25.7722 F   0  0  0  0  0  0
  -30.0279  -13.2590   20.4499 N   0  0  0  0  0  0
  -26.2996  -12.9250   20.3289 N   0  0  0  0  0  0
  -25.9251  -11.6434   20.5705 N   0  0  0  0  0  0
  -22.0456  -12.8327   22.0355 N   0  0  0  0  0  0
  -25.4359  -15.1855   20.4206 N   0  0  0  0  0  0
  -31.8270  -14.5871   20.1038 O   0  0  0  0  0  0
  -21.6700   -6.8920   21.4289 O   0  0  0  0  0  0
  -22.3646  -14.5633   20.6714 O   0  0  0  0  0  0
  -24.6105  -31.8712   23.2107 C   0  0  0  0  0  0
  -25.9024  -32.4835   23.8393 C   0  0  1  0  0  0
  -27.2477  -27.4657   20.1011 C   0  0  0  0  0  0
  -25.5940  -33.8647   24.2330 N   0  0  0  0  0  0
  -23.3983  -30.4892   21.5482 C   0  0  2  0  0  0
  -24.8510  -28.9567   20.1171 C   0  0  0  0  0  0
  -22.7386  -29.4681   22.5013 C   0  0  0  0  0  0
  -18.0271  -28.1373   22.8500 C   0  0  0  0  0  0
  -24.1503  -36.7296   23.2619 C   0  0  0  0  0  0
  -25.9211  -30.8434   21.3607 C   0  0  0  0  0  0
  -26.0036  -29.4800   20.7110 C   0  0  0  0  0  0
  -27.2070  -28.7449   20.6937 C   0  0  0  0  0  0
  -26.0740  -26.9472   19.5019 C   0  0  0  0  0  0
  -24.8783  -27.6884   19.5103 C   0  0  0  0  0  0
  -23.6065  -29.8117   20.1662 C   0  0  0  0  0  0
  -25.4124  -36.3107   24.0321 C   0  0  1  0  0  0
  -20.5859  -28.3689   23.1324 C   0  0  2  0  0  0
  -20.6768  -26.9439   22.5405 C   0  0  0  0  0  0
  -19.5744  -26.6394   21.5215 C   0  0  0  0  0  0
  -18.1918  -26.7914   22.1626 C   0  0  0  0  0  0
  -19.1515  -28.8840   23.2900 C   0  0  0  0  0  0
  -18.9451  -30.1440   23.8922 C   0  0  0  0  0  0
  -17.6459  -30.6578   24.0553 C   0  0  0  0  0  0
  -25.9059  -34.9485   23.5114 C   0  0  0  0  0  0
  -16.5354  -29.9074   23.6332 C   0  0  0  0  0  0
  -16.7262  -28.6487   23.0363 C   0  0  0  0  0  0
  -26.4441  -31.6627   25.0723 C   0  0  0  0  0  0
  -25.3672  -31.3780   26.1456 C   0  0  0  0  0  0
  -27.0243  -30.3054   24.6105 C   0  0  0  0  0  0
  -27.6025  -32.4344   25.7488 C   0  0  0  0  0  0
  -27.5587  -37.1788   24.8465 C   0  0  0  0  0  0
  -21.4128  -29.3054   22.3729 N   0  0  0  0  0  0
  -26.4307  -37.3784   23.9404 N   0  0  0  0  0  0
  -24.6591  -31.0850   22.0976 N   0  0  0  0  0  0
  -23.4158  -28.8213   23.3055 O   0  0  0  0  0  0
  -28.4274  -26.7598   20.1317 O   0  0  0  0  0  0
  -26.5584  -34.8922   22.4652 O   0  0  0  0  0  0
  -23.5317  -32.1482   23.7535 O   0  0  0  0  0  0
  -27.4040  -22.6598   17.7970 C   0  0  0  0  0  0
  -27.8569  -23.1997   19.0232 C   0  0  0  0  0  0
  -27.1645  -21.2845   20.1131 C   0  0  0  0  0  0
  -26.7078  -20.7465   18.8773 C   0  0  0  0  0  0
  -27.0811  -20.5432   21.4322 C   0  0  0  0  0  0
  -29.8662  -18.5243   16.7456 C   0  0  0  0  0  0
  -28.5315  -24.5650   19.0649 C   0  0  0  0  0  0
  -26.0955  -19.3554   18.7415 C   0  0  0  0  0  0
  -29.9348  -15.7068   21.0259 C   0  0  0  0  0  0
  -27.1410  -18.2441   18.4553 C   0  0  0  0  0  0
  -30.4608  -17.8566   17.9956 C   0  0  0  0  0  0
  -30.3377  -16.9944   20.2583 C   0  0  0  0  0  0
  -28.3772  -18.2285   19.4087 C   0  0  0  0  0  0
  -28.3119  -25.3549   20.3667 C   0  0  0  0  0  0
  -26.8469  -21.4292   17.7174 N   0  0  0  0  0  0
  -27.7660  -22.4975   20.1785 N   0  0  0  0  0  0
  -29.5217  -17.3288   19.0411 N   0  3  1  0  0  0
  -31.4719  -12.3505   19.1440 H   0  0  0  0  0  0
  -30.3136  -11.2620   19.8383 H   0  0  0  0  0  0
  -29.7651  -11.7819   17.4283 H   0  0  0  0  0  0
  -29.6845  -13.4842   17.8128 H   0  0  0  0  0  0
  -27.8613  -11.2775   18.8495 H   0  0  0  0  0  0
  -27.3765  -12.5675   17.7807 H   0  0  0  0  0  0
  -27.6960  -14.2305   19.5401 H   0  0  0  0  0  0
  -28.6493  -11.9485   21.3465 H   0  0  0  0  0  0
  -28.4579  -13.5920   21.8677 H   0  0  0  0  0  0
  -25.2721   -9.5832   22.4799 H   0  0  0  0  0  0
  -24.0112   -7.4699   22.7472 H   0  0  0  0  0  0
  -21.0892   -8.8706   19.8919 H   0  0  0  0  0  0
  -22.3656  -10.9698   19.6196 H   0  0  0  0  0  0
  -21.1991   -7.6178   23.9781 H   0  0  0  0  0  0
  -21.1519   -6.0545   25.9141 H   0  0  0  0  0  0
  -22.0551   -2.7649   23.2798 H   0  0  0  0  0  0
  -22.4029  -12.0064   22.4909 H   0  0  0  0  0  0
  -21.1069  -13.1448   22.2434 H   0  0  0  0  0  0
  -24.6576  -15.8232   20.5464 H   0  0  0  0  0  0
  -26.2840  -15.6433   20.1159 H   0  0  0  0  0  0
  -26.7085  -32.5504   23.1144 H   0  0  0  0  0  0
  -25.0148  -33.9864   25.0515 H   0  0  0  0  0  0
  -22.6813  -31.2986   21.3997 H   0  0  0  0  0  0
  -23.3785  -35.9604   23.3285 H   0  0  0  0  0  0
  -24.3573  -36.8904   22.2026 H   0  0  0  0  0  0
  -23.7275  -37.6508   23.6636 H   0  0  0  0  0  0
  -26.0303  -31.6041   20.5882 H   0  0  0  0  0  0
  -26.8106  -30.8995   21.9752 H   0  0  0  0  0  0
  -28.0980  -29.1563   21.1492 H   0  0  0  0  0  0
  -26.0703  -25.9771   19.0272 H   0  0  0  0  0  0
  -23.9909  -27.2788   19.0507 H   0  0  0  0  0  0
  -23.6970  -30.5723   19.3909 H   0  0  0  0  0  0
  -22.7378  -29.2125   19.8892 H   0  0  0  0  0  0
  -25.1295  -36.1938   25.0808 H   0  0  0  0  0  0
  -20.9957  -28.3258   24.1451 H   0  0  0  0  0  0
  -20.5713  -26.2318   23.3598 H   0  0  0  0  0  0
  -21.6629  -26.7485   22.1179 H   0  0  0  0  0  0
  -19.6919  -25.6312   21.1243 H   0  0  0  0  0  0
  -19.6669  -27.3182   20.6732 H   0  0  0  0  0  0
  -17.4204  -26.6696   21.3998 H   0  0  0  0  0  0
  -18.0302  -26.0023   22.8999 H   0  0  0  0  0  0
  -19.7925  -30.7223   24.2336 H   0  0  0  0  0  0
  -17.5021  -31.6270   24.5126 H   0  0  0  0  0  0
  -15.5362  -30.2973   23.7667 H   0  0  0  0  0  0
  -15.8658  -28.0788   22.7123 H   0  0  0  0  0  0
  -24.5902  -30.7040   25.7828 H   0  0  0  0  0  0
  -24.8762  -32.2941   26.4765 H   0  0  0  0  0  0
  -25.8001  -30.9086   27.0302 H   0  0  0  0  0  0
  -26.2789  -29.6872   24.1080 H   0  0  0  0  0  0
  -27.3916  -29.7246   25.4583 H   0  0  0  0  0  0
  -27.8670  -30.4358   23.9304 H   0  0  0  0  0  0
  -27.2671  -33.3675   26.2033 H   0  0  0  0  0  0
  -28.3863  -32.6874   25.0333 H   0  0  0  0  0  0
  -28.0647  -31.8471   26.5432 H   0  0  0  0  0  0
  -28.2618  -38.0073   24.7510 H   0  0  0  0  0  0
  -28.1083  -36.2615   24.6299 H   0  0  0  0  0  0
  -27.2283  -37.1414   25.8860 H   0  0  0  0  0  0
  -20.9327  -29.8764   21.6908 H   0  0  0  0  0  0
  -26.0195  -38.2867   24.1371 H   0  0  0  0  0  0
  -27.5098  -23.1970   16.8657 H   0  0  0  0  0  0
  -28.0857  -20.2747   21.7520 H   0  0  0  0  0  0
  -26.4978  -19.6264   21.3830 H   0  0  0  0  0  0
  -26.6326  -21.1711   22.2009 H   0  0  0  0  0  0
  -30.6721  -18.7387   16.0417 H   0  0  0  0  0  0
  -29.3930  -19.4785   16.9830 H   0  0  0  0  0  0
  -29.1548  -17.8853   16.2210 H   0  0  0  0  0  0
  -29.5962  -24.4470   18.8699 H   0  0  0  0  0  0
  -28.1397  -25.1494   18.2354 H   0  0  0  0  0  0
  -25.3778  -19.3881   17.9166 H   0  0  0  0  0  0
  -25.4703  -19.1288   19.6019 H   0  0  0  0  0  0
  -30.2207  -15.8305   22.0702 H   0  0  0  0  0  0
  -28.8528  -15.6080   21.0291 H   0  0  0  0  0  0
  -27.4510  -18.3930   17.4299 H   0  0  0  0  0  0
  -26.6425  -17.2756   18.4544 H   0  0  0  0  0  0
  -31.1364  -18.5753   18.4628 H   0  0  0  0  0  0
  -31.0944  -17.0317   17.6621 H   0  0  0  0  0  0
  -31.3936  -16.9317   19.9966 H   0  0  0  0  0  0
  -30.3279  -17.8457   20.9389 H   0  0  0  0  0  0
  -28.0139  -17.9448   20.4002 H   0  0  0  0  0  0
  -28.7911  -19.2273   19.5192 H   0  0  0  0  0  0
  -29.0717  -25.0639   21.0928 H   0  0  0  0  0  0
  -27.3541  -25.1104   20.8338 H   0  0  0  0  0  0
  -29.1445  -16.4651   18.6794 H   0  0  0  0  0  0
  1 25  1  0  0  0
  1 30  2  0  0  0
  1 79  1  0  0  0
  2  3  1  0  0  0
  2 25  1  0  0  0
  2 88  1  0  0  0
  2 89  1  0  0  0
  3  4  1  0  0  0
  3 90  1  0  0  0
  3 91  1  0  0  0
  4  5  1  0  0  0
  4 92  1  0  0  0
  4 93  1  0  0  0
  5  6  1  0  0  0
  5 26  1  0  0  0
  5 94  1  0  0  0
  6 25  1  0  0  0
  6 95  1  0  0  0
  6 96  1  0  0  0
  7  8  2  0  0  0
  7 26  1  0  0  0
  7 29  1  0  0  0
  8  9  1  0  0  0
  8 22  1  0  0  0
  9 10  1  0  0  0
  9 27  2  0  0  0
 10 11  2  0  0  0
 10 15  1  0  0  0
 11 12  1  0  0  0
 11 97  1  0  0  0
 12 13  2  0  0  0
 12 98  1  0  0  0
 13 14  1  0  0  0
 13 31  1  0  0  0
 14 15  2  0  0  0
 14 99  1  0  0  0
 15100  1  0  0  0
 16 17  2  0  0  0
 16 21  1  0  0  0
 16 31  1  0  0  0
 17 18  1  0  0  0
 17101  1  0  0  0
 18 19  2  0  0  0
 18102  1  0  0  0
 19 20  1  0  0  0
 19 24  1  0  0  0
 20 21  2  0  0  0
 20103  1  0  0  0
 21 23  1  0  0  0
 22 28  1  0  0  0
 22 32  2  0  0  0
 26 27  1  0  0  0
 28104  1  0  0  0
 28105  1  0  0  0
 29106  1  0  0  0
 29107  1  0  0  0
 33 34  1  0  0  0
 33 66  1  0  0  0
 33 70  2  0  0  0
 34 36  1  0  0  0
 34 59  1  0  0  0
 34108  1  0  0  0
 35 44  2  0  0  0
 35 45  1  0  0  0
 35 68  1  0  0  0
 36 56  1  0  0  0
 36109  1  0  0  0
 37 39  1  0  0  0
 37 47  1  0  0  0
 37 66  1  0  0  0
 37110  1  0  0  0
 38 43  2  0  0  0
 38 46  1  0  0  0
 38 47  1  0  0  0
 39 64  1  0  0  0
 39 67  2  0  0  0
 40 52  1  0  0  0
 40 53  2  0  0  0
 40 58  1  0  0  0
 41111  1  0  0  0
 41112  1  0  0  0
 41113  1  0  0  0
 41 48  1  0  0  0
 42 43  1  0  0  0
 42 66  1  0  0  0
 42114  1  0  0  0
 42115  1  0  0  0
 43 44  1  0  0  0
 44116  1  0  0  0
 45 46  2  0  0  0
 45117  1  0  0  0
 46118  1  0  0  0
 47119  1  0  0  0
 47120  1  0  0  0
 48 56  1  0  0  0
 48 65  1  0  0  0
 48121  1  0  0  0
 49 50  1  0  0  0
 49 53  1  0  0  0
 49 64  1  0  0  0
 49122  1  0  0  0
 50 51  1  0  0  0
 50123  1  0  0  0
 50124  1  0  0  0
 51 52  1  0  0  0
 51125  1  0  0  0
 51126  1  0  0  0
 52127  1  0  0  0
 52128  1  0  0  0
 53 54  1  0  0  0
 54 55  2  0  0  0
 54129  1  0  0  0
 55 57  1  0  0  0
 55130  1  0  0  0
 56 69  2  0  0  0
 57 58  2  0  0  0
 57131  1  0  0  0
 58132  1  0  0  0
 59 60  1  0  0  0
 59 61  1  0  0  0
 59 62  1  0  0  0
 60133  1  0  0  0
 60134  1  0  0  0
 60135  1  0  0  0
 61136  1  0  0  0
 61137  1  0  0  0
 61138  1  0  0  0
 62139  1  0  0  0
 62140  1  0  0  0
 62141  1  0  0  0
 63 65  1  0  0  0
 63142  1  0  0  0
 63143  1  0  0  0
 63144  1  0  0  0
 64145  1  0  0  0
 65146  1  0  0  0
 68 84  1  0  0  0
 71 72  2  0  0  0
 71 85  1  0  0  0
 71147  1  0  0  0
 72 77  1  0  0  0
 72 86  1  0  0  0
 73 74  1  0  0  0
 73 75  1  0  0  0
 73 86  2  0  0  0
 74 78  1  0  0  0
 74 85  2  0  0  0
 75148  1  0  0  0
 75149  1  0  0  0
 75150  1  0  0  0
 76 81  1  0  0  0
 76151  1  0  0  0
 76152  1  0  0  0
 76153  1  0  0  0
 77 84  1  0  0  0
 77154  1  0  0  0
 77155  1  0  0  0
 78 80  1  0  0  0
 78156  1  0  0  0
 78157  1  0  0  0
 79 82  1  0  0  0
 79158  1  0  0  0
 79159  1  0  0  0
 80 83  1  0  0  0
 80160  1  0  0  0
 80161  1  0  0  0
 81162  1  0  0  0
 81163  1  0  0  0
 81 87  1  0  0  0
 82 87  1  0  0  0
 82164  1  0  0  0
 82165  1  0  0  0
 83 87  1  0  0  0
 83166  1  0  0  0
 83167  1  0  0  0
 84168  1  0  0  0
 84169  1  0  0  0
 87170  1  0  0  0
M  CHG  1  87   1
M  ISO  4   1 100  68 101  79 100  84 101
M  END
> <chiral flag>
0

> <version>
0

> <s_m_source_file>
/data/baiqing/PycharmProjects/Reinvent-master-3.2/result/LINK_invent/BTK/process_docking_weight1_custom_sum_contain_oxygen_bond_distance_aromatic_linkinvent_7_9_3/rearranged_h_0048.sdf

> <i_m_source_file_index>
30

> <r_mmod_Potential_Energy-OPLS-2005>
-94.2490158081055

> <r_mmod_Stretch_Energy-OPLS-2005>
40.0363655090332

> <r_mmod_Bend_Energy-OPLS-2005>
116.221702575684

> <r_mmod_Torsional_Energy-OPLS-2005>
191.78369140625

> <r_mmod_Improper_Torsional_Energy-OPLS-2005>
4.037926197052

> <r_mmod_Van_der_Waal_Energy-OPLS-2005>
168.588516235352

> <r_mmod_Electrostatic_Energy-OPLS-2005>
-190.465362548828

> <r_mmod_Solvation_Energy-OPLS-2005>
-437.714050292969

> <b_mmod_Minimization_Converged-OPLS-2005>
0

> <r_mmod_RMS_Derivative-OPLS-2005>
6.11914873123169

$$$$
31
                    3D
 Structure written by MMmdl.
156164  0  0  1  0            999 V2000
  -30.6011  -14.6650   20.5178 C   0  0  0  0  0  0
  -30.4369  -12.4034   19.4619 C   0  0  0  0  0  0
  -29.5086  -12.5119   18.2299 C   0  0  0  0  0  0
  -28.0311  -12.3402   18.6397 C   0  0  0  0  0  0
  -27.6510  -13.2149   19.8638 C   0  0  2  0  0  0
  -28.6947  -13.0783   20.9947 C   0  0  0  0  0  0
  -25.2534  -13.8161   20.5651 C   0  0  0  0  0  0
  -24.1821  -13.0434   20.9175 C   0  0  0  0  0  0
  -24.6389  -11.6898   20.8746 C   0  0  0  0  0  0
  -23.9067  -10.4282   21.0416 C   0  0  0  0  0  0
  -24.3612   -9.4195   21.9203 C   0  0  0  0  0  0
  -23.6276   -8.2245   22.0775 C   0  0  0  0  0  0
  -22.4267   -8.0282   21.3560 C   0  0  0  0  0  0
  -21.9905   -9.0259   20.4667 C   0  0  0  0  0  0
  -22.7237  -10.2131   20.3071 C   0  0  0  0  0  0
  -21.6848   -6.0720   22.5268 C   0  0  0  0  0  0
  -21.4015   -6.5629   23.8197 C   0  0  0  0  0  0
  -21.3660   -5.6788   24.9168 C   0  0  0  0  0  0
  -21.6040   -4.3045   24.7225 C   0  0  0  0  0  0
  -21.8823   -3.8136   23.4345 C   0  0  0  0  0  0
  -21.9183   -4.6947   22.3394 C   0  0  0  0  0  0
  -22.7839  -13.5221   21.1830 C   0  0  0  0  0  0
  -22.1654   -4.2128   21.0974 F   0  0  0  0  0  0
  -21.5630   -3.4537   25.7744 F   0  0  0  0  0  0
  -30.0059  -13.4284   20.4360 N   0  0  0  0  0  0
  -26.2967  -12.9339   20.3317 N   0  0  0  0  0  0
  -25.9319  -11.6492   20.5778 N   0  0  0  0  0  0
  -22.0474  -12.8229   22.0389 N   0  0  0  0  0  0
  -25.4210  -15.1881   20.3960 N   0  0  0  0  0  0
  -31.7529  -14.8184   20.0981 O   0  0  0  0  0  0
  -21.6635   -6.8877   21.4243 O   0  0  0  0  0  0
  -22.3531  -14.5529   20.6663 O   0  0  0  0  0  0
  -24.6279  -31.8579   23.1976 C   0  0  0  0  0  0
  -25.9138  -32.4749   23.8319 C   0  0  1  0  0  0
  -27.2069  -27.2876   20.1363 C   0  0  0  0  0  0
  -25.5948  -33.8559   24.2267 N   0  0  0  0  0  0
  -23.4240  -30.4765   21.5434 C   0  0  2  0  0  0
  -24.8697  -28.9235   20.1099 C   0  0  0  0  0  0
  -22.7499  -29.4591   22.4942 C   0  0  0  0  0  0
  -18.0290  -28.1356   22.8485 C   0  0  0  0  0  0
  -24.1498  -36.7287   23.2641 C   0  0  0  0  0  0
  -25.9632  -30.7767   21.3723 C   0  0  0  0  0  0
  -26.0390  -29.4002   20.7180 C   0  0  0  0  0  0
  -27.2184  -28.5933   20.7216 C   0  0  0  0  0  0
  -26.0224  -26.8621   19.5071 C   0  0  0  0  0  0
  -24.8624  -27.6610   19.4924 C   0  0  0  0  0  0
  -23.6399  -29.8091   20.1592 C   0  0  0  0  0  0
  -25.4119  -36.3068   24.0317 C   0  0  1  0  0  0
  -20.5890  -28.3684   23.1267 C   0  0  2  0  0  0
  -20.6785  -26.9395   22.5418 C   0  0  0  0  0  0
  -19.5779  -26.6377   21.5188 C   0  0  0  0  0  0
  -18.1948  -26.7912   22.1576 C   0  0  0  0  0  0
  -19.1546  -28.8837   23.2869 C   0  0  0  0  0  0
  -18.9464  -30.1446   23.8877 C   0  0  0  0  0  0
  -17.6471  -30.6577   24.0552 C   0  0  0  0  0  0
  -25.9063  -34.9443   23.5103 C   0  0  0  0  0  0
  -16.5366  -29.9070   23.6322 C   0  0  0  0  0  0
  -16.7280  -28.6476   23.0353 C   0  0  0  0  0  0
  -26.4517  -31.6569   25.0712 C   0  0  0  0  0  0
  -25.3751  -31.3703   26.1450 C   0  0  0  0  0  0
  -27.0362  -30.2993   24.6160 C   0  0  0  0  0  0
  -27.6082  -32.4315   25.7454 C   0  0  0  0  0  0
  -27.5597  -37.1772   24.8458 C   0  0  0  0  0  0
  -21.4206  -29.3035   22.3672 N   0  0  0  0  0  0
  -26.4304  -37.3760   23.9410 N   0  0  0  0  0  0
  -24.6901  -31.0541   22.0950 N   0  0  0  0  0  0
  -23.4215  -28.8141   23.3052 O   0  0  0  0  0  0
  -28.2717  -26.3796   20.1657 O   0  0  0  0  0  0
  -26.5633  -34.8925   22.4665 O   0  0  0  0  0  0
  -23.5449  -32.1417   23.7296 O   0  0  0  0  0  0
  -27.4113  -21.5937   20.3458 C   0  0  0  0  0  0
  -28.7534  -21.2480   20.3140 C   0  0  0  0  0  0
  -28.2146  -23.7832   20.6154 C   0  0  0  0  0  0
  -26.2299  -20.6700   20.2251 C   0  0  0  0  0  0
  -29.6988  -18.9761   22.2777 C   0  0  0  0  0  0
  -29.4379  -19.8694   19.9737 C   0  0  0  0  0  0
  -28.1210  -25.2608   21.1308 C   0  0  0  0  0  0
  -29.8039  -15.9503   21.0270 C   0  0  0  0  0  0
  -30.1332  -17.3936   20.3894 C   0  0  0  0  0  0
  -27.1415  -22.9788   20.4962 N   0  0  0  0  0  0
  -29.3570  -18.6334   20.8795 N   0  3  1  0  0  0
  -29.6885  -22.7607   20.5082 S   0  0  0  0  0  0
  -31.4806  -12.5214   19.1656 H   0  0  0  0  0  0
  -30.3671  -11.4081   19.9061 H   0  0  0  0  0  0
  -29.7796  -11.7614   17.4858 H   0  0  0  0  0  0
  -29.6444  -13.4821   17.7514 H   0  0  0  0  0  0
  -27.8736  -11.2871   18.8761 H   0  0  0  0  0  0
  -27.3749  -12.5624   17.7971 H   0  0  0  0  0  0
  -27.6666  -14.2472   19.5161 H   0  0  0  0  0  0
  -28.7114  -12.0558   21.3766 H   0  0  0  0  0  0
  -28.4397  -13.7074   21.8486 H   0  0  0  0  0  0
  -25.2764   -9.5648   22.4776 H   0  0  0  0  0  0
  -23.9955   -7.4639   22.7512 H   0  0  0  0  0  0
  -21.0826   -8.8795   19.8981 H   0  0  0  0  0  0
  -22.3717  -10.9670   19.6174 H   0  0  0  0  0  0
  -21.2028   -7.6140   23.9697 H   0  0  0  0  0  0
  -21.1480   -6.0525   25.9068 H   0  0  0  0  0  0
  -22.0608   -2.7596   23.2856 H   0  0  0  0  0  0
  -22.4066  -11.9866   22.4746 H   0  0  0  0  0  0
  -21.1115  -13.1299   22.2635 H   0  0  0  0  0  0
  -24.6386  -15.8293   20.4720 H   0  0  0  0  0  0
  -26.2473  -15.6157   20.0003 H   0  0  0  0  0  0
  -26.7197  -32.5449   23.1053 H   0  0  0  0  0  0
  -25.0089  -33.9672   25.0412 H   0  0  0  0  0  0
  -22.7228  -31.2986   21.3965 H   0  0  0  0  0  0
  -23.3760  -35.9615   23.3285 H   0  0  0  0  0  0
  -24.3603  -36.8957   22.2067 H   0  0  0  0  0  0
  -23.7243  -37.6459   23.6709 H   0  0  0  0  0  0
  -26.0976  -31.5401   20.6047 H   0  0  0  0  0  0
  -26.8402  -30.8302   22.0041 H   0  0  0  0  0  0
  -28.1153  -28.9455   21.2126 H   0  0  0  0  0  0
  -25.9825  -25.8803   19.0545 H   0  0  0  0  0  0
  -23.9632  -27.2895   19.0195 H   0  0  0  0  0  0
  -23.7635  -30.5854   19.4035 H   0  0  0  0  0  0
  -22.7599  -29.2392   19.8540 H   0  0  0  0  0  0
  -25.1286  -36.1911   25.0799 H   0  0  0  0  0  0
  -20.9963  -28.3296   24.1397 H   0  0  0  0  0  0
  -20.5671  -26.2288   23.3638 H   0  0  0  0  0  0
  -21.6656  -26.7461   22.1215 H   0  0  0  0  0  0
  -19.6973  -25.6282   21.1255 H   0  0  0  0  0  0
  -19.6731  -27.3168   20.6703 H   0  0  0  0  0  0
  -17.4227  -26.6676   21.3981 H   0  0  0  0  0  0
  -18.0324  -26.0030   22.8937 H   0  0  0  0  0  0
  -19.7968  -30.7235   24.2263 H   0  0  0  0  0  0
  -17.5044  -31.6261   24.5164 H   0  0  0  0  0  0
  -15.5379  -30.2956   23.7678 H   0  0  0  0  0  0
  -15.8670  -28.0805   22.7064 H   0  0  0  0  0  0
  -24.5999  -30.6960   25.7802 H   0  0  0  0  0  0
  -24.8847  -32.2836   26.4824 H   0  0  0  0  0  0
  -25.8097  -30.8979   27.0264 H   0  0  0  0  0  0
  -26.2911  -29.6680   24.1289 H   0  0  0  0  0  0
  -27.4167  -29.7322   25.4652 H   0  0  0  0  0  0
  -27.8742  -30.4262   23.9296 H   0  0  0  0  0  0
  -27.2746  -33.3711   26.1867 H   0  0  0  0  0  0
  -28.3932  -32.6694   25.0272 H   0  0  0  0  0  0
  -28.0643  -31.8512   26.5480 H   0  0  0  0  0  0
  -28.2558  -38.0124   24.7535 H   0  0  0  0  0  0
  -28.1135  -36.2636   24.6217 H   0  0  0  0  0  0
  -27.2320  -37.1354   25.8865 H   0  0  0  0  0  0
  -20.9404  -29.8743   21.6847 H   0  0  0  0  0  0
  -26.0192  -38.2829   24.1448 H   0  0  0  0  0  0
  -26.0023  -20.4408   19.1833 H   0  0  0  0  0  0
  -25.3337  -21.1137   20.6626 H   0  0  0  0  0  0
  -26.3921  -19.7259   20.7452 H   0  0  0  0  0  0
  -29.0617  -19.7829   22.6463 H   0  0  0  0  0  0
  -30.7381  -19.3031   22.3541 H   0  0  0  0  0  0
  -29.5650  -18.1269   22.9495 H   0  0  0  0  0  0
  -30.4944  -20.0617   19.7966 H   0  0  0  0  0  0
  -29.0551  -19.5544   19.0033 H   0  0  0  0  0  0
  -28.8848  -25.3836   21.8991 H   0  0  0  0  0  0
  -27.1693  -25.3576   21.6606 H   0  0  0  0  0  0
  -28.7433  -15.7721   20.8740 H   0  0  0  0  0  0
  -29.9468  -15.9844   22.1054 H   0  0  0  0  0  0
  -29.9856  -17.3093   19.3132 H   0  0  0  0  0  0
  -31.1990  -17.5939   20.5116 H   0  0  0  0  0  0
  -28.3840  -18.3687   20.8880 H   0  0  0  0  0  0
  1 25  1  0  0  0
  1 30  2  0  0  0
  1 78  1  0  0  0
  2  3  1  0  0  0
  2 25  1  0  0  0
  2 83  1  0  0  0
  2 84  1  0  0  0
  3  4  1  0  0  0
  3 85  1  0  0  0
  3 86  1  0  0  0
  4  5  1  0  0  0
  4 87  1  0  0  0
  4 88  1  0  0  0
  5  6  1  0  0  0
  5 26  1  0  0  0
  5 89  1  0  0  0
  6 25  1  0  0  0
  6 90  1  0  0  0
  6 91  1  0  0  0
  7  8  2  0  0  0
  7 26  1  0  0  0
  7 29  1  0  0  0
  8  9  1  0  0  0
  8 22  1  0  0  0
  9 10  1  0  0  0
  9 27  2  0  0  0
 10 11  2  0  0  0
 10 15  1  0  0  0
 11 12  1  0  0  0
 11 92  1  0  0  0
 12 13  2  0  0  0
 12 93  1  0  0  0
 13 14  1  0  0  0
 13 31  1  0  0  0
 14 15  2  0  0  0
 14 94  1  0  0  0
 15 95  1  0  0  0
 16 17  2  0  0  0
 16 21  1  0  0  0
 16 31  1  0  0  0
 17 18  1  0  0  0
 17 96  1  0  0  0
 18 19  2  0  0  0
 18 97  1  0  0  0
 19 20  1  0  0  0
 19 24  1  0  0  0
 20 21  2  0  0  0
 20 98  1  0  0  0
 21 23  1  0  0  0
 22 28  1  0  0  0
 22 32  2  0  0  0
 26 27  1  0  0  0
 28 99  1  0  0  0
 28100  1  0  0  0
 29101  1  0  0  0
 29102  1  0  0  0
 33 34  1  0  0  0
 33 66  1  0  0  0
 33 70  2  0  0  0
 34 36  1  0  0  0
 34 59  1  0  0  0
 34103  1  0  0  0
 35 44  2  0  0  0
 35 45  1  0  0  0
 35 68  1  0  0  0
 36 56  1  0  0  0
 36104  1  0  0  0
 37 39  1  0  0  0
 37 47  1  0  0  0
 37 66  1  0  0  0
 37105  1  0  0  0
 38 43  2  0  0  0
 38 46  1  0  0  0
 38 47  1  0  0  0
 39 64  1  0  0  0
 39 67  2  0  0  0
 40 52  1  0  0  0
 40 53  2  0  0  0
 40 58  1  0  0  0
 41106  1  0  0  0
 41107  1  0  0  0
 41108  1  0  0  0
 41 48  1  0  0  0
 42 43  1  0  0  0
 42 66  1  0  0  0
 42109  1  0  0  0
 42110  1  0  0  0
 43 44  1  0  0  0
 44111  1  0  0  0
 45 46  2  0  0  0
 45112  1  0  0  0
 46113  1  0  0  0
 47114  1  0  0  0
 47115  1  0  0  0
 48 56  1  0  0  0
 48 65  1  0  0  0
 48116  1  0  0  0
 49 50  1  0  0  0
 49 53  1  0  0  0
 49 64  1  0  0  0
 49117  1  0  0  0
 50 51  1  0  0  0
 50118  1  0  0  0
 50119  1  0  0  0
 51 52  1  0  0  0
 51120  1  0  0  0
 51121  1  0  0  0
 52122  1  0  0  0
 52123  1  0  0  0
 53 54  1  0  0  0
 54 55  2  0  0  0
 54124  1  0  0  0
 55 57  1  0  0  0
 55125  1  0  0  0
 56 69  2  0  0  0
 57 58  2  0  0  0
 57126  1  0  0  0
 58127  1  0  0  0
 59 60  1  0  0  0
 59 61  1  0  0  0
 59 62  1  0  0  0
 60128  1  0  0  0
 60129  1  0  0  0
 60130  1  0  0  0
 61131  1  0  0  0
 61132  1  0  0  0
 61133  1  0  0  0
 62134  1  0  0  0
 62135  1  0  0  0
 62136  1  0  0  0
 63 65  1  0  0  0
 63137  1  0  0  0
 63138  1  0  0  0
 63139  1  0  0  0
 64140  1  0  0  0
 65141  1  0  0  0
 68 77  1  0  0  0
 71 72  2  0  0  0
 71 74  1  0  0  0
 71 80  1  0  0  0
 72 76  1  0  0  0
 72 82  1  0  0  0
 73 77  1  0  0  0
 73 80  2  0  0  0
 73 82  1  0  0  0
 74142  1  0  0  0
 74143  1  0  0  0
 74144  1  0  0  0
 75145  1  0  0  0
 75146  1  0  0  0
 75147  1  0  0  0
 75 81  1  0  0  0
 76 81  1  0  0  0
 76148  1  0  0  0
 76149  1  0  0  0
 77150  1  0  0  0
 77151  1  0  0  0
 78 79  1  0  0  0
 78152  1  0  0  0
 78153  1  0  0  0
 79 81  1  0  0  0
 79154  1  0  0  0
 79155  1  0  0  0
 81156  1  0  0  0
M  CHG  1  81   1
M  ISO  4   1 100  68 101  77 101  78 100
M  END
> <chiral flag>
0

> <version>
0

> <s_m_source_file>
/data/baiqing/PycharmProjects/Reinvent-master-3.2/result/LINK_invent/BTK/process_docking_weight1_custom_sum_contain_oxygen_bond_distance_aromatic_linkinvent_7_9_3/rearranged_h_0048.sdf

> <i_m_source_file_index>
31

> <r_mmod_Potential_Energy-OPLS-2005>
-41.0581436157227

> <r_mmod_Stretch_Energy-OPLS-2005>
97.4314041137695

> <r_mmod_Bend_Energy-OPLS-2005>
155.967681884766

> <r_mmod_Torsional_Energy-OPLS-2005>
207.623229980469

> <r_mmod_Improper_Torsional_Energy-OPLS-2005>
6.00605726242065

> <r_mmod_Van_der_Waal_Energy-OPLS-2005>
108.737922668457

> <r_mmod_Electrostatic_Energy-OPLS-2005>
-230.639297485352

> <r_mmod_Solvation_Energy-OPLS-2005>
-449.036529541016

> <b_mmod_Minimization_Converged-OPLS-2005>
0

> <r_mmod_RMS_Derivative-OPLS-2005>
4.10563278198242

$$$$
32
                    3D
 Structure written by MMmdl.
171179  0  0  1  0            999 V2000
  -30.6980  -14.4347   20.6355 C   0  0  0  0  0  0
  -30.4352  -12.3083   19.3978 C   0  0  0  0  0  0
  -29.4942  -12.5207   18.1939 C   0  0  0  0  0  0
  -28.0136  -12.3839   18.6082 C   0  0  0  0  0  0
  -27.6704  -13.1977   19.8853 C   0  0  2  0  0  0
  -28.7152  -12.9175   20.9892 C   0  0  0  0  0  0
  -25.2637  -13.8144   20.5673 C   0  0  0  0  0  0
  -24.1875  -13.0436   20.9180 C   0  0  0  0  0  0
  -24.6413  -11.6892   20.8744 C   0  0  0  0  0  0
  -23.9074  -10.4287   21.0412 C   0  0  0  0  0  0
  -24.3617   -9.4201   21.9189 C   0  0  0  0  0  0
  -23.6288   -8.2237   22.0757 C   0  0  0  0  0  0
  -22.4271   -8.0286   21.3545 C   0  0  0  0  0  0
  -21.9912   -9.0265   20.4647 C   0  0  0  0  0  0
  -22.7249  -10.2136   20.3059 C   0  0  0  0  0  0
  -21.6848   -6.0742   22.5282 C   0  0  0  0  0  0
  -21.4008   -6.5645   23.8218 C   0  0  0  0  0  0
  -21.3655   -5.6797   24.9180 C   0  0  0  0  0  0
  -21.6037   -4.3057   24.7228 C   0  0  0  0  0  0
  -21.8824   -3.8155   23.4350 C   0  0  0  0  0  0
  -21.9189   -4.6971   22.3404 C   0  0  0  0  0  0
  -22.7890  -13.5245   21.1829 C   0  0  0  0  0  0
  -22.1659   -4.2156   21.0980 F   0  0  0  0  0  0
  -21.5627   -3.4541   25.7742 F   0  0  0  0  0  0
  -30.0404  -13.2576   20.4487 N   0  0  0  0  0  0
  -26.3078  -12.9293   20.3412 N   0  0  0  0  0  0
  -25.9340  -11.6461   20.5774 N   0  0  0  0  0  0
  -22.0510  -12.8247   22.0373 N   0  0  0  0  0  0
  -25.4390  -15.1857   20.4053 N   0  0  0  0  0  0
  -31.7797  -14.6694   20.0867 O   0  0  0  0  0  0
  -21.6631   -6.8888   21.4244 O   0  0  0  0  0  0
  -22.3585  -14.5553   20.6673 O   0  0  0  0  0  0
  -24.6123  -31.8700   23.2097 C   0  0  0  0  0  0
  -25.9011  -32.4839   23.8397 C   0  0  1  0  0  0
  -27.2408  -27.4471   20.1035 C   0  0  0  0  0  0
  -25.5861  -33.8630   24.2323 N   0  0  0  0  0  0
  -23.4021  -30.4891   21.5517 C   0  0  2  0  0  0
  -24.8521  -28.9541   20.1200 C   0  0  0  0  0  0
  -22.7409  -29.4640   22.5004 C   0  0  0  0  0  0
  -18.0262  -28.1357   22.8485 C   0  0  0  0  0  0
  -24.1494  -36.7325   23.2643 C   0  0  0  0  0  0
  -25.9286  -30.8354   21.3645 C   0  0  0  0  0  0
  -26.0094  -29.4674   20.7219 C   0  0  0  0  0  0
  -27.2079  -28.7184   20.7199 C   0  0  0  0  0  0
  -26.0728  -26.9476   19.4937 C   0  0  0  0  0  0
  -24.8765  -27.6898   19.5065 C   0  0  0  0  0  0
  -23.6123  -29.8194   20.1672 C   0  0  0  0  0  0
  -25.4113  -36.3118   24.0340 C   0  0  1  0  0  0
  -20.5850  -28.3642   23.1330 C   0  0  2  0  0  0
  -20.6754  -26.9383   22.5427 C   0  0  0  0  0  0
  -19.5740  -26.6375   21.5211 C   0  0  0  0  0  0
  -18.1905  -26.7900   22.1608 C   0  0  0  0  0  0
  -19.1509  -28.8813   23.2902 C   0  0  0  0  0  0
  -18.9440  -30.1411   23.8925 C   0  0  0  0  0  0
  -17.6447  -30.6565   24.0552 C   0  0  0  0  0  0
  -25.9029  -34.9480   23.5132 C   0  0  0  0  0  0
  -16.5340  -29.9071   23.6320 C   0  0  0  0  0  0
  -16.7253  -28.6479   23.0353 C   0  0  0  0  0  0
  -26.4442  -31.6618   25.0721 C   0  0  0  0  0  0
  -25.3695  -31.3716   26.1463 C   0  0  0  0  0  0
  -27.0289  -30.3076   24.6070 C   0  0  0  0  0  0
  -27.6033  -32.4340   25.7449 C   0  0  0  0  0  0
  -27.5583  -37.1809   24.8456 C   0  0  0  0  0  0
  -21.4140  -29.3019   22.3755 N   0  0  0  0  0  0
  -26.4304  -37.3796   23.9393 N   0  0  0  0  0  0
  -24.6655  -31.0791   22.1010 N   0  0  0  0  0  0
  -23.4181  -28.8184   23.3049 O   0  0  0  0  0  0
  -28.3971  -26.7068   20.0295 O   0  0  0  0  0  0
  -26.5615  -34.8932   22.4711 O   0  0  0  0  0  0
  -23.5323  -32.1460   23.7491 O   0  0  0  0  0  0
  -28.4757  -22.5472   18.2330 C   0  0  0  0  0  0
  -28.1437  -23.6106   19.0836 C   0  0  0  0  0  0
  -29.1526  -21.4347   18.7678 C   0  0  0  0  0  0
  -28.4931  -23.5411   20.4425 C   0  0  0  0  0  0
  -29.4946  -21.4447   20.1398 C   0  0  0  0  0  0
  -29.4933  -20.2693   17.8518 C   0  0  0  0  0  0
  -31.5839  -19.1395   25.3470 C   0  0  0  0  0  0
  -28.0731  -24.6456   21.4133 C   0  0  0  0  0  0
  -30.2423  -20.2785   20.7901 C   0  0  0  0  0  0
  -30.0708  -15.5451   21.5112 C   0  0  0  0  0  0
  -30.5202  -19.0809   24.2421 C   0  0  0  0  0  0
  -29.2852  -19.2409   21.4237 C   0  0  0  0  0  0
  -30.3366  -16.9907   21.0062 C   0  0  0  0  0  0
  -31.0076  -18.2971   23.0072 C   0  0  0  0  0  0
  -28.7733  -26.0146   21.2257 C   0  0  0  0  0  0
  -29.1645  -22.4782   20.9550 N   0  0  0  0  0  0
  -29.9356  -18.0251   22.0087 N   0  3  1  0  0  0
  -31.4755  -12.4307   19.0914 H   0  0  0  0  0  0
  -30.3593  -11.2850   19.7696 H   0  0  0  0  0  0
  -29.7297  -11.8058   17.4042 H   0  0  0  0  0  0
  -29.6643  -13.5110   17.7687 H   0  0  0  0  0  0
  -27.8132  -11.3257   18.7794 H   0  0  0  0  0  0
  -27.3658  -12.6855   17.7844 H   0  0  0  0  0  0
  -27.7324  -14.2538   19.6222 H   0  0  0  0  0  0
  -28.6969  -11.8577   21.2486 H   0  0  0  0  0  0
  -28.4785  -13.4277   21.9217 H   0  0  0  0  0  0
  -25.2761   -9.5665   22.4769 H   0  0  0  0  0  0
  -23.9993   -7.4624   22.7470 H   0  0  0  0  0  0
  -21.0846   -8.8793   19.8949 H   0  0  0  0  0  0
  -22.3724  -10.9681   19.6164 H   0  0  0  0  0  0
  -21.2001   -7.6153   23.9726 H   0  0  0  0  0  0
  -21.1468   -6.0524   25.9082 H   0  0  0  0  0  0
  -22.0606   -2.7616   23.2851 H   0  0  0  0  0  0
  -22.4089  -11.9900   22.4775 H   0  0  0  0  0  0
  -21.1121  -13.1283   22.2543 H   0  0  0  0  0  0
  -24.6732  -15.8442   20.5009 H   0  0  0  0  0  0
  -26.2871  -15.6135   20.0550 H   0  0  0  0  0  0
  -26.7097  -32.5556   23.1175 H   0  0  0  0  0  0
  -24.9976  -33.9811   25.0440 H   0  0  0  0  0  0
  -22.6902  -31.3048   21.4113 H   0  0  0  0  0  0
  -23.3745  -35.9669   23.3321 H   0  0  0  0  0  0
  -24.3590  -36.8935   22.2057 H   0  0  0  0  0  0
  -23.7270  -37.6541   23.6660 H   0  0  0  0  0  0
  -26.0366  -31.5964   20.5910 H   0  0  0  0  0  0
  -26.8196  -30.8974   21.9772 H   0  0  0  0  0  0
  -28.1045  -29.1150   21.1755 H   0  0  0  0  0  0
  -26.0835  -25.9847   19.0064 H   0  0  0  0  0  0
  -23.9902  -27.2853   19.0369 H   0  0  0  0  0  0
  -23.7193  -30.5946   19.4070 H   0  0  0  0  0  0
  -22.7374  -29.2374   19.8732 H   0  0  0  0  0  0
  -25.1294  -36.1998   25.0839 H   0  0  0  0  0  0
  -20.9932  -28.3204   24.1453 H   0  0  0  0  0  0
  -20.5647  -26.2250   23.3607 H   0  0  0  0  0  0
  -21.6628  -26.7428   22.1230 H   0  0  0  0  0  0
  -19.6922  -25.6295   21.1226 H   0  0  0  0  0  0
  -19.6695  -27.3193   20.6741 H   0  0  0  0  0  0
  -17.4196  -26.6651   21.3993 H   0  0  0  0  0  0
  -18.0291  -26.0036   22.8995 H   0  0  0  0  0  0
  -19.7928  -30.7189   24.2343 H   0  0  0  0  0  0
  -17.5014  -31.6258   24.5126 H   0  0  0  0  0  0
  -15.5340  -30.2974   23.7635 H   0  0  0  0  0  0
  -15.8648  -28.0800   22.7077 H   0  0  0  0  0  0
  -24.5885  -30.7046   25.7779 H   0  0  0  0  0  0
  -24.8836  -32.2865   26.4876 H   0  0  0  0  0  0
  -25.8019  -30.8912   27.0249 H   0  0  0  0  0  0
  -26.2850  -29.6806   24.1146 H   0  0  0  0  0  0
  -27.4128  -29.7330   25.4504 H   0  0  0  0  0  0
  -27.8630  -30.4419   23.9182 H   0  0  0  0  0  0
  -27.2685  -33.3650   26.2040 H   0  0  0  0  0  0
  -28.3800  -32.6904   25.0225 H   0  0  0  0  0  0
  -28.0745  -31.8456   26.5339 H   0  0  0  0  0  0
  -28.2618  -38.0089   24.7507 H   0  0  0  0  0  0
  -28.1076  -36.2631   24.6294 H   0  0  0  0  0  0
  -27.2304  -37.1468   25.8860 H   0  0  0  0  0  0
  -20.9294  -29.8779   21.7013 H   0  0  0  0  0  0
  -26.0206  -38.2886   24.1362 H   0  0  0  0  0  0
  -28.2042  -22.5863   17.1876 H   0  0  0  0  0  0
  -27.6176  -24.4661   18.6890 H   0  0  0  0  0  0
  -28.9109  -20.3097   16.9309 H   0  0  0  0  0  0
  -29.2784  -19.3099   18.3243 H   0  0  0  0  0  0
  -30.5493  -20.2959   17.5835 H   0  0  0  0  0  0
  -31.2211  -19.6994   26.2095 H   0  0  0  0  0  0
  -32.4970  -19.6236   24.9981 H   0  0  0  0  0  0
  -31.8485  -18.1386   25.6919 H   0  0  0  0  0  0
  -28.2647  -24.3017   22.4305 H   0  0  0  0  0  0
  -26.9924  -24.7698   21.3505 H   0  0  0  0  0  0
  -30.9122  -20.6897   21.5455 H   0  0  0  0  0  0
  -30.8900  -19.7974   20.0581 H   0  0  0  0  0  0
  -28.9907  -15.4362   21.5792 H   0  0  0  0  0  0
  -30.4639  -15.4047   22.5170 H   0  0  0  0  0  0
  -30.2482  -20.0995   23.9625 H   0  0  0  0  0  0
  -29.6194  -18.6178   24.6467 H   0  0  0  0  0  0
  -28.5495  -18.9277   20.6824 H   0  0  0  0  0  0
  -28.7027  -19.7354   22.2013 H   0  0  0  0  0  0
  -29.7706  -17.1259   20.0828 H   0  0  0  0  0  0
  -31.3820  -17.1372   20.7309 H   0  0  0  0  0  0
  -31.4136  -17.3449   23.3483 H   0  0  0  0  0  0
  -31.8449  -18.8142   22.5357 H   0  0  0  0  0  0
  -29.8535  -25.8652   21.2106 H   0  0  0  0  0  0
  -28.5688  -26.6426   22.0944 H   0  0  0  0  0  0
  -29.1883  -17.5886   22.5292 H   0  0  0  0  0  0
  1 25  1  0  0  0
  1 30  2  0  0  0
  1 80  1  0  0  0
  2  3  1  0  0  0
  2 25  1  0  0  0
  2 88  1  0  0  0
  2 89  1  0  0  0
  3  4  1  0  0  0
  3 90  1  0  0  0
  3 91  1  0  0  0
  4  5  1  0  0  0
  4 92  1  0  0  0
  4 93  1  0  0  0
  5  6  1  0  0  0
  5 26  1  0  0  0
  5 94  1  0  0  0
  6 25  1  0  0  0
  6 95  1  0  0  0
  6 96  1  0  0  0
  7  8  2  0  0  0
  7 26  1  0  0  0
  7 29  1  0  0  0
  8  9  1  0  0  0
  8 22  1  0  0  0
  9 10  1  0  0  0
  9 27  2  0  0  0
 10 11  2  0  0  0
 10 15  1  0  0  0
 11 12  1  0  0  0
 11 97  1  0  0  0
 12 13  2  0  0  0
 12 98  1  0  0  0
 13 14  1  0  0  0
 13 31  1  0  0  0
 14 15  2  0  0  0
 14 99  1  0  0  0
 15100  1  0  0  0
 16 17  2  0  0  0
 16 21  1  0  0  0
 16 31  1  0  0  0
 17 18  1  0  0  0
 17101  1  0  0  0
 18 19  2  0  0  0
 18102  1  0  0  0
 19 20  1  0  0  0
 19 24  1  0  0  0
 20 21  2  0  0  0
 20103  1  0  0  0
 21 23  1  0  0  0
 22 28  1  0  0  0
 22 32  2  0  0  0
 26 27  1  0  0  0
 28104  1  0  0  0
 28105  1  0  0  0
 29106  1  0  0  0
 29107  1  0  0  0
 33 34  1  0  0  0
 33 66  1  0  0  0
 33 70  2  0  0  0
 34 36  1  0  0  0
 34 59  1  0  0  0
 34108  1  0  0  0
 35 44  2  0  0  0
 35 45  1  0  0  0
 35 68  1  0  0  0
 36 56  1  0  0  0
 36109  1  0  0  0
 37 39  1  0  0  0
 37 47  1  0  0  0
 37 66  1  0  0  0
 37110  1  0  0  0
 38 43  2  0  0  0
 38 46  1  0  0  0
 38 47  1  0  0  0
 39 64  1  0  0  0
 39 67  2  0  0  0
 40 52  1  0  0  0
 40 53  2  0  0  0
 40 58  1  0  0  0
 41111  1  0  0  0
 41112  1  0  0  0
 41113  1  0  0  0
 41 48  1  0  0  0
 42 43  1  0  0  0
 42 66  1  0  0  0
 42114  1  0  0  0
 42115  1  0  0  0
 43 44  1  0  0  0
 44116  1  0  0  0
 45 46  2  0  0  0
 45117  1  0  0  0
 46118  1  0  0  0
 47119  1  0  0  0
 47120  1  0  0  0
 48 56  1  0  0  0
 48 65  1  0  0  0
 48121  1  0  0  0
 49 50  1  0  0  0
 49 53  1  0  0  0
 49 64  1  0  0  0
 49122  1  0  0  0
 50 51  1  0  0  0
 50123  1  0  0  0
 50124  1  0  0  0
 51 52  1  0  0  0
 51125  1  0  0  0
 51126  1  0  0  0
 52127  1  0  0  0
 52128  1  0  0  0
 53 54  1  0  0  0
 54 55  2  0  0  0
 54129  1  0  0  0
 55 57  1  0  0  0
 55130  1  0  0  0
 56 69  2  0  0  0
 57 58  2  0  0  0
 57131  1  0  0  0
 58132  1  0  0  0
 59 60  1  0  0  0
 59 61  1  0  0  0
 59 62  1  0  0  0
 60133  1  0  0  0
 60134  1  0  0  0
 60135  1  0  0  0
 61136  1  0  0  0
 61137  1  0  0  0
 61138  1  0  0  0
 62139  1  0  0  0
 62140  1  0  0  0
 62141  1  0  0  0
 63 65  1  0  0  0
 63142  1  0  0  0
 63143  1  0  0  0
 63144  1  0  0  0
 64145  1  0  0  0
 65146  1  0  0  0
 68 85  1  0  0  0
 71 72  2  0  0  0
 71 73  1  0  0  0
 71147  1  0  0  0
 72 74  1  0  0  0
 72148  1  0  0  0
 73 75  2  0  0  0
 73 76  1  0  0  0
 74 78  1  0  0  0
 74 86  2  0  0  0
 75 79  1  0  0  0
 75 86  1  0  0  0
 76149  1  0  0  0
 76150  1  0  0  0
 76151  1  0  0  0
 77 81  1  0  0  0
 77152  1  0  0  0
 77153  1  0  0  0
 77154  1  0  0  0
 78 85  1  0  0  0
 78155  1  0  0  0
 78156  1  0  0  0
 79 82  1  0  0  0
 79157  1  0  0  0
 79158  1  0  0  0
 80 83  1  0  0  0
 80159  1  0  0  0
 80160  1  0  0  0
 81 84  1  0  0  0
 81161  1  0  0  0
 81162  1  0  0  0
 82163  1  0  0  0
 82164  1  0  0  0
 82 87  1  0  0  0
 83 87  1  0  0  0
 83165  1  0  0  0
 83166  1  0  0  0
 84 87  1  0  0  0
 84167  1  0  0  0
 84168  1  0  0  0
 85169  1  0  0  0
 85170  1  0  0  0
 87171  1  0  0  0
M  CHG  1  87   1
M  ISO  4   1 100  68 101  80 100  85 101
M  END
> <chiral flag>
0

> <version>
0

> <s_m_source_file>
/data/baiqing/PycharmProjects/Reinvent-master-3.2/result/LINK_invent/BTK/process_docking_weight1_custom_sum_contain_oxygen_bond_distance_aromatic_linkinvent_7_9_3/rearranged_h_0048.sdf

> <i_m_source_file_index>
32

> <r_mmod_Potential_Energy-OPLS-2005>
-322.348541259766

> <r_mmod_Stretch_Energy-OPLS-2005>
37.8248405456543

> <r_mmod_Bend_Energy-OPLS-2005>
99.7224197387695

> <r_mmod_Torsional_Energy-OPLS-2005>
191.854888916016

> <r_mmod_Improper_Torsional_Energy-OPLS-2005>
2.21283912658691

> <r_mmod_Van_der_Waal_Energy-OPLS-2005>
145.947708129883

> <r_mmod_Electrostatic_Energy-OPLS-2005>
-373.008819580078

> <r_mmod_Solvation_Energy-OPLS-2005>
-435.37744140625

> <b_mmod_Minimization_Converged-OPLS-2005>
0

> <r_mmod_RMS_Derivative-OPLS-2005>
1.88179087638855

$$$$
33
                    3D
 Structure written by MMmdl.
151159  0  0  1  0            999 V2000
  -30.5335  -13.4001   20.6929 C   0  0  0  0  0  0
  -30.0695  -12.0819   18.6021 C   0  0  0  0  0  0
  -29.8850  -13.6838   17.6015 C   0  0  0  0  0  0
  -29.0159  -15.3434   18.5674 C   0  0  0  0  0  0
  -27.7183  -14.5144   20.7227 C   0  0  2  0  0  0
  -28.4411  -12.9225   21.4042 C   0  0  0  0  0  0
  -25.0656  -14.0755   20.8132 C   0  0  0  0  0  0
  -24.1085  -13.1165   20.9284 C   0  0  0  0  0  0
  -24.7324  -11.8586   20.9237 C   0  0  0  0  0  0
  -24.0723  -10.4947   21.0378 C   0  0  0  0  0  0
  -24.4558   -9.4814   21.9567 C   0  0  0  0  0  0
  -23.6796   -8.3034   22.1302 C   0  0  0  0  0  0
  -22.4899   -8.0982   21.3783 C   0  0  0  0  0  0
  -22.1199   -9.0876   20.4424 C   0  0  0  0  0  0
  -22.9033  -10.2491   20.2733 C   0  0  0  0  0  0
  -21.7159   -6.1113   22.5301 C   0  0  0  0  0  0
  -21.4281   -6.5911   23.8230 C   0  0  0  0  0  0
  -21.3811   -5.6996   24.9098 C   0  0  0  0  0  0
  -21.6063   -4.3238   24.7098 C   0  0  0  0  0  0
  -21.8725   -3.8418   23.4145 C   0  0  0  0  0  0
  -21.9194   -4.7303   22.3267 C   0  0  0  0  0  0
  -22.6909  -13.4720   21.0963 C   0  0  0  0  0  0
  -22.1672   -4.2495   21.0830 F   0  0  0  0  0  0
  -21.5513   -3.4653   25.7539 F   0  0  0  0  0  0
  -29.7258  -12.4530   20.3013 N   0  0  0  0  0  0
  -26.3163  -13.5833   20.7585 N   0  0  0  0  0  0
  -26.0342  -12.1513   20.7757 N   0  0  0  0  0  0
  -22.0255  -12.7430   21.9803 N   0  0  0  0  0  0
  -24.9717  -15.4320   20.8503 N   0  0  0  0  0  0
  -31.5862  -13.9665   20.3787 O   0  0  0  0  0  0
  -21.7189   -6.9449   21.4359 O   0  0  0  0  0  0
  -22.2371  -14.5065   20.5906 O   0  0  0  0  0  0
  -24.7383  -31.7295   23.1017 C   0  0  0  0  0  0
  -25.9742  -32.3982   23.7680 C   0  0  1  0  0  0
  -26.8334  -26.1155   20.1010 C   0  0  0  0  0  0
  -25.6129  -33.7862   24.1539 N   0  0  0  0  0  0
  -23.5536  -30.3442   21.4800 C   0  0  2  0  0  0
  -24.9195  -28.5962   20.0694 C   0  0  0  0  0  0
  -22.7884  -29.4001   22.4458 C   0  0  0  0  0  0
  -18.0360  -28.1441   22.8425 C   0  0  0  0  0  0
  -24.1494  -36.6912   23.2659 C   0  0  0  0  0  0
  -26.1467  -30.2148   21.4518 C   0  0  0  0  0  0
  -26.1127  -28.7564   20.7760 C   0  0  0  0  0  0
  -27.0593  -27.5356   20.7733 C   0  0  0  0  0  0
  -25.6833  -26.3205   19.3119 C   0  0  0  0  0  0
  -24.7782  -27.4233   19.3165 C   0  0  0  0  0  0
  -23.7962  -29.6513   20.1084 C   0  0  0  0  0  0
  -25.4155  -36.2579   24.0227 C   0  0  1  0  0  0
  -20.6011  -28.3808   23.1058 C   0  0  2  0  0  0
  -20.6765  -26.9396   22.5471 C   0  0  0  0  0  0
  -19.5781  -26.6318   21.5241 C   0  0  0  0  0  0
  -18.1945  -26.7969   22.1581 C   0  0  0  0  0  0
  -19.1638  -28.8958   23.2716 C   0  0  0  0  0  0
  -18.9529  -30.1523   23.8789 C   0  0  0  0  0  0
  -17.6510  -30.6597   24.0542 C   0  0  0  0  0  0
  -25.9232  -34.9025   23.4763 C   0  0  0  0  0  0
  -16.5399  -29.9074   23.6349 C   0  0  0  0  0  0
  -16.7337  -28.6504   23.0361 C   0  0  0  0  0  0
  -26.4697  -31.6296   25.0591 C   0  0  0  0  0  0
  -25.3548  -31.3801   26.1036 C   0  0  0  0  0  0
  -27.0687  -30.2567   24.6940 C   0  0  0  0  0  0
  -27.6031  -32.4266   25.7477 C   0  0  0  0  0  0
  -27.5598  -37.1505   24.8388 C   0  0  0  0  0  0
  -21.4504  -29.2947   22.3288 N   0  0  0  0  0  0
  -26.4159  -37.3487   23.9535 N   0  0  0  0  0  0
  -24.8529  -30.8192   22.0538 N   0  0  0  0  0  0
  -23.4208  -28.7704   23.2946 O   0  0  0  0  0  0
  -27.4051  -24.5521   20.0948 O   0  0  0  0  0  0
  -26.5967  -34.8769   22.4449 O   0  0  0  0  0  0
  -23.6332  -32.0711   23.5679 O   0  0  0  0  0  0
  -27.0971  -19.9916   21.0327 C   0  0  0  0  0  0
  -27.0249  -20.5897   19.7156 C   0  0  0  0  0  0
  -27.1688  -18.5515   21.3289 C   0  0  0  0  0  0
  -26.9488  -17.5641   19.1744 C   0  0  0  0  0  0
  -26.8739  -22.6969   19.5283 C   0  0  0  0  0  0
  -26.6484  -15.5779   18.5695 C   0  0  0  0  0  0
  -27.7451  -13.5509   18.7182 C   0  0  0  0  0  0
  -27.2494  -17.9010   22.7507 C   0  0  0  0  0  0
  -26.8476  -19.1636   18.8758 N   0  0  0  0  0  0
  -27.2225  -17.5289   20.4297 N   0  0  0  0  0  0
  -29.6800  -13.7672   19.8637 N   0  0  0  0  0  0
  -27.0320  -18.7210   23.7841 F   0  0  0  0  0  0
  -26.3663  -16.9223   22.8915 F   0  0  0  0  0  0
  -28.4449  -17.3357   22.8862 F   0  0  0  0  0  0
  -31.1319  -11.7713   18.6018 H   0  0  0  0  0  0
  -29.5340  -11.1997   18.2294 H   0  0  0  0  0  0
  -29.3957  -13.4169   16.6484 H   0  0  0  0  0  0
  -30.8725  -13.9349   17.2118 H   0  0  0  0  0  0
  -28.6258  -15.8343   17.6565 H   0  0  0  0  0  0
  -29.7802  -16.0797   18.8305 H   0  0  0  0  0  0
  -27.6332  -15.2365   21.4984 H   0  0  0  0  0  0
  -27.9291  -12.0871   21.8296 H   0  0  0  0  0  0
  -28.8999  -13.2766   22.3487 H   0  0  0  0  0  0
  -25.3371   -9.6082   22.5578 H   0  0  0  0  0  0
  -24.0067   -7.5638   22.8424 H   0  0  0  0  0  0
  -21.2435   -8.9334   19.8284 H   0  0  0  0  0  0
  -22.6099  -10.9741   19.5313 H   0  0  0  0  0  0
  -21.2611   -7.6466   23.9803 H   0  0  0  0  0  0
  -21.1708   -6.0735   25.8999 H   0  0  0  0  0  0
  -22.0338   -2.7898   23.2477 H   0  0  0  0  0  0
  -22.4990  -11.9577   22.3967 H   0  0  0  0  0  0
  -21.0409  -12.9028   22.1800 H   0  0  0  0  0  0
  -24.4875  -15.6486   21.6851 H   0  0  0  0  0  0
  -24.3268  -15.5525   20.1043 H   0  0  0  0  0  0
  -26.7908  -32.4238   23.0409 H   0  0  0  0  0  0
  -24.9991  -33.8765   24.9511 H   0  0  0  0  0  0
  -22.9140  -31.2058   21.2803 H   0  0  0  0  0  0
  -23.3923  -35.9055   23.2829 H   0  0  0  0  0  0
  -24.3650  -36.9143   22.2202 H   0  0  0  0  0  0
  -23.7022  -37.5783   23.7145 H   0  0  0  0  0  0
  -26.4879  -30.9046   20.6747 H   0  0  0  0  0  0
  -26.9640  -30.1998   22.1623 H   0  0  0  0  0  0
  -27.9217  -27.6152   21.4216 H   0  0  0  0  0  0
  -25.3762  -25.4656   18.7118 H   0  0  0  0  0  0
  -23.8943  -27.3044   18.7136 H   0  0  0  0  0  0
  -24.0479  -30.4029   19.3560 H   0  0  0  0  0  0
  -22.8653  -29.1927   19.7556 H   0  0  0  0  0  0
  -25.1368  -36.1126   25.0691 H   0  0  0  0  0  0
  -21.0095  -28.3481   24.1186 H   0  0  0  0  0  0
  -20.5479  -26.2447   23.3792 H   0  0  0  0  0  0
  -21.6629  -26.7170   22.1391 H   0  0  0  0  0  0
  -19.6900  -25.6188   21.1359 H   0  0  0  0  0  0
  -19.6786  -27.3048   20.6717 H   0  0  0  0  0  0
  -17.4243  -26.6775   21.3943 H   0  0  0  0  0  0
  -18.0242  -26.0130   22.8977 H   0  0  0  0  0  0
  -19.8000  -30.7364   24.2116 H   0  0  0  0  0  0
  -17.5052  -31.6261   24.5173 H   0  0  0  0  0  0
  -15.5391  -30.2936   23.7729 H   0  0  0  0  0  0
  -15.8743  -28.0782   22.7129 H   0  0  0  0  0  0
  -24.6134  -30.6645   25.7448 H   0  0  0  0  0  0
  -24.8242  -32.2982   26.3564 H   0  0  0  0  0  0
  -25.7591  -30.9746   27.0318 H   0  0  0  0  0  0
  -26.3442  -29.5982   24.2136 H   0  0  0  0  0  0
  -27.4049  -29.7254   25.5854 H   0  0  0  0  0  0
  -27.9457  -30.3553   24.0537 H   0  0  0  0  0  0
  -27.2552  -33.3793   26.1479 H   0  0  0  0  0  0
  -28.4151  -32.6399   25.0513 H   0  0  0  0  0  0
  -28.0308  -31.8714   26.5838 H   0  0  0  0  0  0
  -28.2183  -38.0188   24.7920 H   0  0  0  0  0  0
  -28.1499  -36.2777   24.5541 H   0  0  0  0  0  0
  -27.2461  -37.0284   25.8771 H   0  0  0  0  0  0
  -20.9891  -29.8555   21.6270 H   0  0  0  0  0  0
  -25.9863  -38.2393   24.1889 H   0  0  0  0  0  0
  -27.0793  -20.6300   21.9166 H   0  0  0  0  0  0
  -25.7840  -22.7845   19.5342 H   0  0  0  0  0  0
  -27.1129  -22.7575   18.4509 H   0  0  0  0  0  0
  -26.5994  -15.7150   17.4800 H   0  0  0  0  0  0
  -25.5940  -15.3016   18.5703 H   0  0  0  0  0  0
  -27.6629  -13.2461   17.6762 H   0  0  0  0  0  0
  -27.2660  -12.5806   18.9131 H   0  0  0  0  0  0
  -30.1717  -14.5120   19.4012 H   0  0  0  0  0  0
  1 25  1  0  0  0
  1 30  2  0  0  0
  1 81  1  0  0  0
  2  3  1  0  0  0
  2 25  1  0  0  0
  2 85  1  0  0  0
  2 86  1  0  0  0
  3  4  1  0  0  0
  3 87  1  0  0  0
  3 88  1  0  0  0
  4  5  1  0  0  0
  4 89  1  0  0  0
  4 90  1  0  0  0
  5  6  1  0  0  0
  5 26  1  0  0  0
  5 91  1  0  0  0
  6 25  1  0  0  0
  6 92  1  0  0  0
  6 93  1  0  0  0
  7  8  2  0  0  0
  7 26  1  0  0  0
  7 29  1  0  0  0
  8  9  1  0  0  0
  8 22  1  0  0  0
  9 10  1  0  0  0
  9 27  2  0  0  0
 10 11  2  0  0  0
 10 15  1  0  0  0
 11 12  1  0  0  0
 11 94  1  0  0  0
 12 13  2  0  0  0
 12 95  1  0  0  0
 13 14  1  0  0  0
 13 31  1  0  0  0
 14 15  2  0  0  0
 14 96  1  0  0  0
 15 97  1  0  0  0
 16 17  2  0  0  0
 16 21  1  0  0  0
 16 31  1  0  0  0
 17 18  1  0  0  0
 17 98  1  0  0  0
 18 19  2  0  0  0
 18 99  1  0  0  0
 19 20  1  0  0  0
 19 24  1  0  0  0
 20 21  2  0  0  0
 20100  1  0  0  0
 21 23  1  0  0  0
 22 28  1  0  0  0
 22 32  2  0  0  0
 26 27  1  0  0  0
 28101  1  0  0  0
 28102  1  0  0  0
 29103  1  0  0  0
 29104  1  0  0  0
 33 34  1  0  0  0
 33 66  1  0  0  0
 33 70  2  0  0  0
 34 36  1  0  0  0
 34 59  1  0  0  0
 34105  1  0  0  0
 35 44  2  0  0  0
 35 45  1  0  0  0
 35 68  1  0  0  0
 36 56  1  0  0  0
 36106  1  0  0  0
 37 39  1  0  0  0
 37 47  1  0  0  0
 37 66  1  0  0  0
 37107  1  0  0  0
 38 43  2  0  0  0
 38 46  1  0  0  0
 38 47  1  0  0  0
 39 64  1  0  0  0
 39 67  2  0  0  0
 40 52  1  0  0  0
 40 53  2  0  0  0
 40 58  1  0  0  0
 41108  1  0  0  0
 41109  1  0  0  0
 41110  1  0  0  0
 41 48  1  0  0  0
 42 43  1  0  0  0
 42 66  1  0  0  0
 42111  1  0  0  0
 42112  1  0  0  0
 43 44  1  0  0  0
 44113  1  0  0  0
 45 46  2  0  0  0
 45114  1  0  0  0
 46115  1  0  0  0
 47116  1  0  0  0
 47117  1  0  0  0
 48 56  1  0  0  0
 48 65  1  0  0  0
 48118  1  0  0  0
 49 50  1  0  0  0
 49 53  1  0  0  0
 49 64  1  0  0  0
 49119  1  0  0  0
 50 51  1  0  0  0
 50120  1  0  0  0
 50121  1  0  0  0
 51 52  1  0  0  0
 51122  1  0  0  0
 51123  1  0  0  0
 52124  1  0  0  0
 52125  1  0  0  0
 53 54  1  0  0  0
 54 55  2  0  0  0
 54126  1  0  0  0
 55 57  1  0  0  0
 55127  1  0  0  0
 56 69  2  0  0  0
 57 58  2  0  0  0
 57128  1  0  0  0
 58129  1  0  0  0
 59 60  1  0  0  0
 59 61  1  0  0  0
 59 62  1  0  0  0
 60130  1  0  0  0
 60131  1  0  0  0
 60132  1  0  0  0
 61133  1  0  0  0
 61134  1  0  0  0
 61135  1  0  0  0
 62136  1  0  0  0
 62137  1  0  0  0
 62138  1  0  0  0
 63 65  1  0  0  0
 63139  1  0  0  0
 63140  1  0  0  0
 63141  1  0  0  0
 64142  1  0  0  0
 65143  1  0  0  0
 68 75  1  0  0  0
 71 72  2  0  0  0
 71 73  1  0  0  0
 71144  1  0  0  0
 72 75  1  0  0  0
 72 79  1  0  0  0
 73 78  1  0  0  0
 73 80  2  0  0  0
 74 76  1  0  0  0
 74 79  2  0  0  0
 74 80  1  0  0  0
 75145  1  0  0  0
 75146  1  0  0  0
 76 77  1  0  0  0
 76147  1  0  0  0
 76148  1  0  0  0
 77 81  1  0  0  0
 77149  1  0  0  0
 77150  1  0  0  0
 78 82  1  0  0  0
 78 83  1  0  0  0
 78 84  1  0  0  0
 81151  1  0  0  0
M  ISO  4   1 100  68 101  75 101  81 100
M  END
> <chiral flag>
0

> <version>
0

> <s_m_source_file>
/data/baiqing/PycharmProjects/Reinvent-master-3.2/result/LINK_invent/BTK/process_docking_weight1_custom_sum_contain_oxygen_bond_distance_aromatic_linkinvent_7_9_3/rearranged_h_0048.sdf

> <i_m_source_file_index>
33

> <r_mmod_Potential_Energy-OPLS-2005>
12829.556640625

> <r_mmod_Stretch_Energy-OPLS-2005>
6307.591796875

> <r_mmod_Bend_Energy-OPLS-2005>
1740.34814453125

> <r_mmod_Torsional_Energy-OPLS-2005>
350.763061523438

> <r_mmod_Improper_Torsional_Energy-OPLS-2005>
53.7638664245605

> <r_mmod_Van_der_Waal_Energy-OPLS-2005>
2212.15478515625

> <r_mmod_Electrostatic_Energy-OPLS-2005>
-663.920288085938

> <r_mmod_Solvation_Energy-OPLS-2005>
-249.205215454102

> <b_mmod_Minimization_Converged-OPLS-2005>
0

> <r_mmod_RMS_Derivative-OPLS-2005>
64.2937698364258

$$$$
34
                    3D
 Structure written by MMmdl.
145153  0  0  1  0            999 V2000
  -30.2266  -15.7146   20.3347 C   0  0  0  0  0  0
  -30.4344  -13.1272   19.5635 C   0  0  0  0  0  0
  -29.5674  -12.6836   18.3436 C   0  0  0  0  0  0
  -28.1398  -12.3086   18.7723 C   0  0  0  0  0  0
  -27.5982  -13.3139   19.8104 C   0  0  2  0  0  0
  -28.6045  -13.6474   20.9345 C   0  0  0  0  0  0
  -25.2336  -13.8291   20.5780 C   0  0  0  0  0  0
  -24.1725  -13.0433   20.9266 C   0  0  0  0  0  0
  -24.6431  -11.6946   20.8737 C   0  0  0  0  0  0
  -23.9131  -10.4293   21.0382 C   0  0  0  0  0  0
  -24.3661   -9.4209   21.9171 C   0  0  0  0  0  0
  -23.6318   -8.2252   22.0753 C   0  0  0  0  0  0
  -22.4298   -8.0291   21.3544 C   0  0  0  0  0  0
  -21.9946   -9.0266   20.4642 C   0  0  0  0  0  0
  -22.7293  -10.2134   20.3041 C   0  0  0  0  0  0
  -21.6860   -6.0744   22.5278 C   0  0  0  0  0  0
  -21.4019   -6.5645   23.8213 C   0  0  0  0  0  0
  -21.3661   -5.6795   24.9173 C   0  0  0  0  0  0
  -21.6043   -4.3058   24.7222 C   0  0  0  0  0  0
  -21.8818   -3.8152   23.4343 C   0  0  0  0  0  0
  -21.9194   -4.6971   22.3400 C   0  0  0  0  0  0
  -22.7736  -13.5160   21.1916 C   0  0  0  0  0  0
  -22.1661   -4.2156   21.0978 F   0  0  0  0  0  0
  -21.5628   -3.4541   25.7734 F   0  0  0  0  0  0
  -29.7847  -14.3039   20.3133 N   0  0  0  0  0  0
  -26.2785  -12.9630   20.3183 N   0  0  0  0  0  0
  -25.9379  -11.6696   20.5650 N   0  0  0  0  0  0
  -22.0410  -12.8131   22.0472 N   0  0  0  0  0  0
  -25.3937  -15.2038   20.4276 N   0  0  0  0  0  0
  -31.4525  -15.6811   20.0977 O   0  0  0  0  0  0
  -21.6651   -6.8894   21.4244 O   0  0  0  0  0  0
  -22.3401  -14.5457   20.6759 O   0  0  0  0  0  0
  -24.6901  -31.7929   23.1460 C   0  0  0  0  0  0
  -25.9453  -32.4431   23.8029 C   0  0  1  0  0  0
  -27.2308  -26.6394   20.2216 C   0  0  0  0  0  0
  -25.6009  -33.8257   24.1915 N   0  0  0  0  0  0
  -23.5192  -30.3921   21.5015 C   0  0  2  0  0  0
  -24.9778  -28.7197   20.1212 C   0  0  0  0  0  0
  -22.7795  -29.4280   22.4690 C   0  0  0  0  0  0
  -18.0344  -28.1429   22.8454 C   0  0  0  0  0  0
  -24.1497  -36.7132   23.2654 C   0  0  0  0  0  0
  -26.1029  -30.5055   21.4198 C   0  0  0  0  0  0
  -26.1689  -29.0628   20.7716 C   0  0  0  0  0  0
  -27.2782  -28.0536   20.7860 C   0  0  0  0  0  0
  -26.0043  -26.5223   19.5141 C   0  0  0  0  0  0
  -24.9383  -27.4755   19.4683 C   0  0  0  0  0  0
  -23.7771  -29.6829   20.1401 C   0  0  0  0  0  0
  -25.4150  -36.2871   24.0278 C   0  0  1  0  0  0
  -20.5983  -28.3793   23.1129 C   0  0  2  0  0  0
  -20.6809  -26.9445   22.5406 C   0  0  0  0  0  0
  -19.5785  -26.6373   21.5220 C   0  0  0  0  0  0
  -18.1967  -26.7956   22.1621 C   0  0  0  0  0  0
  -19.1612  -28.8935   23.2771 C   0  0  0  0  0  0
  -18.9516  -30.1518   23.8820 C   0  0  0  0  0  0
  -17.6505  -30.6609   24.0550 C   0  0  0  0  0  0
  -25.9133  -34.9263   23.4936 C   0  0  0  0  0  0
  -16.5393  -29.9089   23.6354 C   0  0  0  0  0  0
  -16.7323  -28.6513   23.0370 C   0  0  0  0  0  0
  -26.4610  -31.6488   25.0675 C   0  0  0  0  0  0
  -25.3662  -31.3823   26.1278 C   0  0  0  0  0  0
  -27.0549  -30.2819   24.6619 C   0  0  0  0  0  0
  -27.6049  -32.4360   25.7497 C   0  0  0  0  0  0
  -27.5558  -37.1729   24.8472 C   0  0  0  0  0  0
  -21.4436  -29.3024   22.3437 N   0  0  0  0  0  0
  -26.4272  -37.3637   23.9402 N   0  0  0  0  0  0
  -24.7949  -30.9313   22.0747 N   0  0  0  0  0  0
  -23.4209  -28.7894   23.3068 O   0  0  0  0  0  0
  -28.1823  -25.3871   20.2832 O   0  0  0  0  0  0
  -26.5774  -34.8854   22.4554 O   0  0  0  0  0  0
  -23.5908  -32.1029   23.6377 O   0  0  0  0  0  0
  -28.3705  -20.4209   20.4941 C   0  0  0  0  0  0
  -30.3170  -20.1040   19.9633 C   0  0  0  0  0  0
  -28.7321  -21.8913   20.2620 C   0  0  0  0  0  0
  -28.8628  -17.2992   22.0532 C   0  0  0  0  0  0
  -27.8965  -23.6233   20.2063 C   0  0  0  0  0  0
  -29.3083  -17.3764   20.5824 C   0  0  1  0  0  0
  -30.0633  -21.4881   19.9031 N   0  0  0  0  0  0
  -29.3524  -19.1923   20.3314 N   0  0  0  0  0  0
  -31.4239  -13.4043   19.1992 H   0  0  0  0  0  0
  -30.6112  -12.2855   20.2356 H   0  0  0  0  0  0
  -30.0373  -11.8470   17.8251 H   0  0  0  0  0  0
  -29.5233  -13.5038   17.6259 H   0  0  0  0  0  0
  -28.1716  -11.3119   19.2139 H   0  0  0  0  0  0
  -27.4785  -12.2439   17.9072 H   0  0  0  0  0  0
  -27.4608  -14.2355   19.2434 H   0  0  0  0  0  0
  -28.8704  -12.7606   21.5121 H   0  0  0  0  0  0
  -28.1414  -14.3338   21.6412 H   0  0  0  0  0  0
  -25.2803   -9.5682   22.4753 H   0  0  0  0  0  0
  -24.0015   -7.4649   22.7483 H   0  0  0  0  0  0
  -21.0874   -8.8793   19.8951 H   0  0  0  0  0  0
  -22.3752  -10.9672   19.6150 H   0  0  0  0  0  0
  -21.2014   -7.6153   23.9718 H   0  0  0  0  0  0
  -21.1482   -6.0525   25.9076 H   0  0  0  0  0  0
  -22.0595   -2.7614   23.2840 H   0  0  0  0  0  0
  -22.4059  -11.9805   22.4857 H   0  0  0  0  0  0
  -21.1018  -13.1120   22.2680 H   0  0  0  0  0  0
  -24.6252  -15.8530   20.5558 H   0  0  0  0  0  0
  -26.2421  -15.6525   20.1085 H   0  0  0  0  0  0
  -26.7539  -32.4888   23.0742 H   0  0  0  0  0  0
  -25.0074  -33.9287   25.0016 H   0  0  0  0  0  0
  -22.8479  -31.2309   21.3059 H   0  0  0  0  0  0
  -23.3771  -35.9451   23.3286 H   0  0  0  0  0  0
  -24.3559  -36.8822   22.2074 H   0  0  0  0  0  0
  -23.7254  -37.6304   23.6750 H   0  0  0  0  0  0
  -26.3115  -31.2260   20.6277 H   0  0  0  0  0  0
  -26.9519  -30.5770   22.0873 H   0  0  0  0  0  0
  -28.1732  -28.3270   21.3265 H   0  0  0  0  0  0
  -25.8240  -25.5853   19.0068 H   0  0  0  0  0  0
  -24.0412  -27.2024   18.9298 H   0  0  0  0  0  0
  -23.9576  -30.4400   19.3760 H   0  0  0  0  0  0
  -22.8805  -29.1526   19.8145 H   0  0  0  0  0  0
  -25.1367  -36.1625   25.0768 H   0  0  0  0  0  0
  -21.0065  -28.3426   24.1257 H   0  0  0  0  0  0
  -20.5667  -26.2419   23.3677 H   0  0  0  0  0  0
  -21.6669  -26.7377   22.1229 H   0  0  0  0  0  0
  -19.6939  -25.6262   21.1303 H   0  0  0  0  0  0
  -19.6732  -27.3138   20.6714 H   0  0  0  0  0  0
  -17.4238  -26.6699   21.4023 H   0  0  0  0  0  0
  -18.0351  -26.0118   22.9035 H   0  0  0  0  0  0
  -19.7990  -30.7356   24.2155 H   0  0  0  0  0  0
  -17.5054  -31.6281   24.5168 H   0  0  0  0  0  0
  -15.5391  -30.2968   23.7723 H   0  0  0  0  0  0
  -15.8725  -28.0805   22.7130 H   0  0  0  0  0  0
  -24.5884  -30.7128   25.7582 H   0  0  0  0  0  0
  -24.8807  -32.3047   26.4472 H   0  0  0  0  0  0
  -25.7830  -30.9145   27.0206 H   0  0  0  0  0  0
  -26.3277  -29.6417   24.1613 H   0  0  0  0  0  0
  -27.3951  -29.7286   25.5383 H   0  0  0  0  0  0
  -27.9269  -30.3928   24.0172 H   0  0  0  0  0  0
  -27.2587  -33.3742   26.1844 H   0  0  0  0  0  0
  -28.3980  -32.6789   25.0412 H   0  0  0  0  0  0
  -28.0585  -31.8642   26.5603 H   0  0  0  0  0  0
  -28.2563  -38.0033   24.7488 H   0  0  0  0  0  0
  -28.1066  -36.2553   24.6344 H   0  0  0  0  0  0
  -27.2266  -37.1417   25.8873 H   0  0  0  0  0  0
  -20.9754  -29.8659   21.6477 H   0  0  0  0  0  0
  -26.0093  -38.2685   24.1399 H   0  0  0  0  0  0
  -27.3730  -20.1269   20.7940 H   0  0  0  0  0  0
  -31.3059  -19.7391   19.7228 H   0  0  0  0  0  0
  -27.8732  -17.7379   22.1829 H   0  0  0  0  0  0
  -29.5533  -17.8517   22.6905 H   0  0  0  0  0  0
  -28.8180  -16.2834   22.4404 H   0  0  0  0  0  0
  -27.1240  -23.5419   20.9707 H   0  0  0  0  0  0
  -27.3183  -23.5804   19.2835 H   0  0  0  0  0  0
  -28.4270  -17.1152   19.9967 H   0  0  0  0  0  0
  1 25  1  0  0  0
  1 30  2  0  0  0
  1 76  1  0  0  0
  2  3  1  0  0  0
  2 25  1  0  0  0
  2 79  1  0  0  0
  2 80  1  0  0  0
  3  4  1  0  0  0
  3 81  1  0  0  0
  3 82  1  0  0  0
  4  5  1  0  0  0
  4 83  1  0  0  0
  4 84  1  0  0  0
  5  6  1  0  0  0
  5 26  1  0  0  0
  5 85  1  0  0  0
  6 25  1  0  0  0
  6 86  1  0  0  0
  6 87  1  0  0  0
  7  8  2  0  0  0
  7 26  1  0  0  0
  7 29  1  0  0  0
  8  9  1  0  0  0
  8 22  1  0  0  0
  9 10  1  0  0  0
  9 27  2  0  0  0
 10 11  2  0  0  0
 10 15  1  0  0  0
 11 12  1  0  0  0
 11 88  1  0  0  0
 12 13  2  0  0  0
 12 89  1  0  0  0
 13 14  1  0  0  0
 13 31  1  0  0  0
 14 15  2  0  0  0
 14 90  1  0  0  0
 15 91  1  0  0  0
 16 17  2  0  0  0
 16 21  1  0  0  0
 16 31  1  0  0  0
 17 18  1  0  0  0
 17 92  1  0  0  0
 18 19  2  0  0  0
 18 93  1  0  0  0
 19 20  1  0  0  0
 19 24  1  0  0  0
 20 21  2  0  0  0
 20 94  1  0  0  0
 21 23  1  0  0  0
 22 28  1  0  0  0
 22 32  2  0  0  0
 26 27  1  0  0  0
 28 95  1  0  0  0
 28 96  1  0  0  0
 29 97  1  0  0  0
 29 98  1  0  0  0
 33 34  1  0  0  0
 33 66  1  0  0  0
 33 70  2  0  0  0
 34 36  1  0  0  0
 34 59  1  0  0  0
 34 99  1  0  0  0
 35 44  2  0  0  0
 35 45  1  0  0  0
 35 68  1  0  0  0
 36 56  1  0  0  0
 36100  1  0  0  0
 37 39  1  0  0  0
 37 47  1  0  0  0
 37 66  1  0  0  0
 37101  1  0  0  0
 38 43  2  0  0  0
 38 46  1  0  0  0
 38 47  1  0  0  0
 39 64  1  0  0  0
 39 67  2  0  0  0
 40 52  1  0  0  0
 40 53  2  0  0  0
 40 58  1  0  0  0
 41102  1  0  0  0
 41103  1  0  0  0
 41104  1  0  0  0
 41 48  1  0  0  0
 42 43  1  0  0  0
 42 66  1  0  0  0
 42105  1  0  0  0
 42106  1  0  0  0
 43 44  1  0  0  0
 44107  1  0  0  0
 45 46  2  0  0  0
 45108  1  0  0  0
 46109  1  0  0  0
 47110  1  0  0  0
 47111  1  0  0  0
 48 56  1  0  0  0
 48 65  1  0  0  0
 48112  1  0  0  0
 49 50  1  0  0  0
 49 53  1  0  0  0
 49 64  1  0  0  0
 49113  1  0  0  0
 50 51  1  0  0  0
 50114  1  0  0  0
 50115  1  0  0  0
 51 52  1  0  0  0
 51116  1  0  0  0
 51117  1  0  0  0
 52118  1  0  0  0
 52119  1  0  0  0
 53 54  1  0  0  0
 54 55  2  0  0  0
 54120  1  0  0  0
 55 57  1  0  0  0
 55121  1  0  0  0
 56 69  2  0  0  0
 57 58  2  0  0  0
 57122  1  0  0  0
 58123  1  0  0  0
 59 60  1  0  0  0
 59 61  1  0  0  0
 59 62  1  0  0  0
 60124  1  0  0  0
 60125  1  0  0  0
 60126  1  0  0  0
 61127  1  0  0  0
 61128  1  0  0  0
 61129  1  0  0  0
 62130  1  0  0  0
 62131  1  0  0  0
 62132  1  0  0  0
 63 65  1  0  0  0
 63133  1  0  0  0
 63134  1  0  0  0
 63135  1  0  0  0
 64136  1  0  0  0
 65137  1  0  0  0
 68 75  1  0  0  0
 71 73  2  0  0  0
 71 78  1  0  0  0
 71138  1  0  0  0
 72 77  2  0  0  0
 72 78  1  0  0  0
 72139  1  0  0  0
 73 75  1  0  0  0
 73 77  1  0  0  0
 74140  1  0  0  0
 74141  1  0  0  0
 74142  1  0  0  0
 74 76  1  0  0  0
 75143  1  0  0  0
 75144  1  0  0  0
 76 78  1  0  0  0
 76145  1  0  0  0
M  ISO  4   1 100  68 101  75 101  76 100
M  END
> <chiral flag>
0

> <version>
0

> <s_m_source_file>
/data/baiqing/PycharmProjects/Reinvent-master-3.2/result/LINK_invent/BTK/process_docking_weight1_custom_sum_contain_oxygen_bond_distance_aromatic_linkinvent_7_9_3/rearranged_h_0048.sdf

> <i_m_source_file_index>
34

> <r_mmod_Potential_Energy-OPLS-2005>
2776.29028320312

> <r_mmod_Stretch_Energy-OPLS-2005>
1210.43530273438

> <r_mmod_Bend_Energy-OPLS-2005>
718.688720703125

> <r_mmod_Torsional_Energy-OPLS-2005>
213.409057617188

> <r_mmod_Improper_Torsional_Energy-OPLS-2005>
1.97652876377106

> <r_mmod_Van_der_Waal_Energy-OPLS-2005>
105.922714233398

> <r_mmod_Electrostatic_Energy-OPLS-2005>
-275.726379394531

> <r_mmod_Solvation_Energy-OPLS-2005>
-228.438674926758

> <b_mmod_Minimization_Converged-OPLS-2005>
0

> <r_mmod_RMS_Derivative-OPLS-2005>
0.40779834985733

$$$$
35
                    3D
 Structure written by MMmdl.
170178  0  0  1  0            999 V2000
  -29.7118  -15.3279   20.7863 C   0  0  0  0  0  0
  -30.3525  -12.9622   19.6937 C   0  0  0  0  0  0
  -29.5353  -12.6659   18.3950 C   0  0  0  0  0  0
  -28.0749  -12.2975   18.7227 C   0  0  0  0  0  0
  -27.5379  -13.2064   19.8487 C   0  0  2  0  0  0
  -28.4442  -13.1909   21.0718 C   0  0  0  0  0  0
  -25.1994  -13.8025   20.5618 C   0  0  0  0  0  0
  -24.1360  -13.0291   20.9189 C   0  0  0  0  0  0
  -24.5967  -11.6780   20.8696 C   0  0  0  0  0  0
  -23.8781  -10.4192   21.0451 C   0  0  0  0  0  0
  -24.3457   -9.4153   21.9200 C   0  0  0  0  0  0
  -23.6199   -8.2160   22.0755 C   0  0  0  0  0  0
  -22.4180   -8.0186   21.3547 C   0  0  0  0  0  0
  -21.9750   -9.0121   20.4642 C   0  0  0  0  0  0
  -22.7007  -10.2026   20.3064 C   0  0  0  0  0  0
  -21.6818   -6.0670   22.5292 C   0  0  0  0  0  0
  -21.3985   -6.5603   23.8215 C   0  0  0  0  0  0
  -21.3659   -5.6772   24.9184 C   0  0  0  0  0  0
  -21.6046   -4.3034   24.7245 C   0  0  0  0  0  0
  -21.8823   -3.8108   23.4375 C   0  0  0  0  0  0
  -21.9182   -4.6907   22.3422 C   0  0  0  0  0  0
  -22.7485  -13.5166   21.1963 C   0  0  0  0  0  0
  -22.1655   -4.2098   21.0997 F   0  0  0  0  0  0
  -21.5648   -3.4526   25.7765 F   0  0  0  0  0  0
  -29.5905  -13.9180   20.6173 N   0  0  0  0  0  0
  -26.2097  -12.9083   20.2805 N   0  0  0  0  0  0
  -25.8768  -11.6279   20.5448 N   0  0  0  0  0  0
  -22.0168  -12.8179   22.0573 N   0  0  0  0  0  0
  -25.3893  -15.1734   20.4370 N   0  0  0  0  0  0
  -30.8544  -15.6470   20.3547 O   0  0  0  0  0  0
  -21.6589   -6.8773   21.4239 O   0  0  0  0  0  0
  -22.3237  -14.5507   20.6842 O   0  0  0  0  0  0
  -24.6498  -31.9312   23.2585 C   0  0  0  0  0  0
  -25.9440  -32.5057   23.8818 C   0  0  1  0  0  0
  -26.6082  -27.3225   20.1040 C   0  0  0  0  0  0
  -25.6334  -33.8858   24.2683 N   0  0  0  0  0  0
  -23.4551  -30.5994   21.6093 C   0  0  2  0  0  0
  -24.9072  -29.3812   19.8234 C   0  0  0  0  0  0
  -23.0221  -29.4784   22.6023 C   0  0  0  0  0  0
  -18.3978  -27.6320   22.6314 C   0  0  0  0  0  0
  -24.1525  -36.7358   23.2586 C   0  0  0  0  0  0
  -26.0012  -30.8314   21.4910 C   0  0  0  0  0  0
  -25.9772  -29.5503   20.6979 C   0  0  0  0  0  0
  -26.9342  -28.5202   20.8014 C   0  0  0  0  0  0
  -26.0849  -27.4719   18.8455 C   0  0  0  0  0  0
  -25.0396  -28.4229   18.7887 C   0  0  0  0  0  0
  -23.6916  -30.2492   20.0986 C   0  0  0  0  0  0
  -25.4137  -36.3226   24.0327 C   0  0  1  0  0  0
  -21.2492  -27.9887   23.4855 C   0  0  2  0  0  0
  -22.1005  -26.4302   22.4900 C   0  0  0  0  0  0
  -20.5455  -25.3483   21.1587 C   0  0  0  0  0  0
  -18.6390  -26.1966   21.5172 C   0  0  0  0  0  0
  -19.5053  -28.3725   23.4290 C   0  0  0  0  0  0
  -19.1427  -29.6610   23.9906 C   0  0  0  0  0  0
  -17.8499  -30.2369   23.9802 C   0  0  0  0  0  0
  -25.9135  -34.9590   23.5209 C   0  0  0  0  0  0
  -16.8021  -29.5020   23.4099 C   0  0  0  0  0  0
  -17.0856  -28.2549   22.7656 C   0  0  0  0  0  0
  -26.4600  -31.6688   25.1146 C   0  0  0  0  0  0
  -25.3724  -31.3830   26.1741 C   0  0  0  0  0  0
  -27.0389  -30.3029   24.6756 C   0  0  0  0  0  0
  -27.6140  -32.4349   25.7967 C   0  0  0  0  0  0
  -27.5612  -37.1867   24.8446 C   0  0  0  0  0  0
  -21.7568  -29.2691   22.8960 N   0  0  0  0  0  0
  -26.4318  -37.3895   23.9406 N   0  0  0  0  0  0
  -24.7115  -31.1697   22.1423 N   0  0  0  0  0  0
  -23.8487  -28.8352   23.2336 O   0  0  0  0  0  0
  -25.5985  -26.5513   20.6859 O   0  0  0  0  0  0
  -26.5491  -34.8930   22.4660 O   0  0  0  0  0  0
  -23.5639  -32.2045   23.7931 O   0  0  0  0  0  0
  -21.1045  -24.7481   24.0244 C   0  0  0  0  0  0
  -20.1280  -25.7716   23.3644 C   0  0  0  0  0  0
  -24.7264  -21.0188   24.3175 C   0  0  0  0  0  0
  -28.5502  -16.0826   22.8481 C   0  0  0  0  0  0
  -25.4060  -20.5639   20.6196 C   0  0  0  0  0  0
  -20.5898  -27.5571   21.2774 C   0  0  0  0  0  0
  -22.2149  -27.3607   20.2128 C   0  0  0  0  0  0
  -22.5070  -21.9816   22.9811 C   0  0  0  0  0  0
  -27.5303  -17.6596   21.1708 C   0  0  0  0  0  0
  -26.3098  -18.7414   22.2254 C   0  0  0  0  0  0
  -23.9136  -26.5271   20.3502 C   0  0  0  0  0  0
  -24.2892  -21.2494   22.8717 C   0  0  2  0  0  0
  -19.4013  -24.4761   23.3757 N   0  0  0  0  0  0
  -20.1055  -23.3091   23.1688 N   0  0  0  0  0  0
  -21.4801  -23.4359   23.3011 N   0  0  0  0  0  0
  -28.5850  -16.2453   21.3936 N   0  0  0  0  0  0
  -25.0717  -19.9693   21.9309 N   0  3  1  0  0  0
  -31.3247  -13.3776   19.4249 H   0  0  0  0  0  0
  -30.5748  -12.0356   20.2242 H   0  0  0  0  0  0
  -30.0117  -11.8773   17.8084 H   0  0  0  0  0  0
  -29.5409  -13.5613   17.7727 H   0  0  0  0  0  0
  -28.0491  -11.2587   19.0528 H   0  0  0  0  0  0
  -27.4472  -12.3600   17.8338 H   0  0  0  0  0  0
  -27.5007  -14.2077   19.4191 H   0  0  0  0  0  0
  -28.6730  -12.1804   21.4115 H   0  0  0  0  0  0
  -27.9604  -13.6871   21.9128 H   0  0  0  0  0  0
  -25.2599   -9.5691   22.4753 H   0  0  0  0  0  0
  -23.9952   -7.4545   22.7449 H   0  0  0  0  0  0
  -21.0694   -8.8576   19.8935 H   0  0  0  0  0  0
  -22.3438  -10.9555   19.6173 H   0  0  0  0  0  0
  -21.1959   -7.6108   23.9705 H   0  0  0  0  0  0
  -21.1490   -6.0504   25.9090 H   0  0  0  0  0  0
  -22.0607   -2.7566   23.2890 H   0  0  0  0  0  0
  -22.3773  -11.9798   22.4887 H   0  0  0  0  0  0
  -21.0821  -13.1255   22.2874 H   0  0  0  0  0  0
  -24.6564  -15.8466   20.6252 H   0  0  0  0  0  0
  -26.2747  -15.6006   20.2024 H   0  0  0  0  0  0
  -26.7576  -32.5591   23.1589 H   0  0  0  0  0  0
  -25.0689  -34.0091   25.0958 H   0  0  0  0  0  0
  -22.6722  -31.3607   21.6241 H   0  0  0  0  0  0
  -23.3810  -35.9667   23.3236 H   0  0  0  0  0  0
  -24.3647  -36.8961   22.2006 H   0  0  0  0  0  0
  -23.7228  -37.6555   23.6573 H   0  0  0  0  0  0
  -26.2753  -31.6470   20.8211 H   0  0  0  0  0  0
  -26.8329  -30.7201   22.1723 H   0  0  0  0  0  0
  -27.6798  -28.5433   21.5853 H   0  0  0  0  0  0
  -26.0537  -26.6404   18.1532 H   0  0  0  0  0  0
  -24.3012  -28.3523   18.0016 H   0  0  0  0  0  0
  -23.9710  -31.1966   19.6384 H   0  0  0  0  0  0
  -22.7849  -30.0741   19.5385 H   0  0  0  0  0  0
  -25.1272  -36.2122   25.0809 H   0  0  0  0  0  0
  -21.5564  -27.9525   24.5327 H   0  0  0  0  0  0
  -22.8019  -25.7652   22.9873 H   0  0  0  0  0  0
  -23.0113  -26.8898   22.2925 H   0  0  0  0  0  0
  -20.6028  -24.2693   21.1130 H   0  0  0  0  0  0
  -20.7023  -25.4004   20.0885 H   0  0  0  0  0  0
  -18.2034  -26.4739   20.5531 H   0  0  0  0  0  0
  -17.9009  -25.4419   21.7919 H   0  0  0  0  0  0
  -19.9178  -30.2285   24.4880 H   0  0  0  0  0  0
  -17.6709  -31.2005   24.4356 H   0  0  0  0  0  0
  -15.7988  -29.9010   23.4080 H   0  0  0  0  0  0
  -16.2589  -27.7633   22.2750 H   0  0  0  0  0  0
  -24.5939  -30.7164   25.8011 H   0  0  0  0  0  0
  -24.8863  -32.2983   26.5125 H   0  0  0  0  0  0
  -25.7953  -30.9017   27.0562 H   0  0  0  0  0  0
  -26.3029  -29.6833   24.1624 H   0  0  0  0  0  0
  -27.3723  -29.7254   25.5387 H   0  0  0  0  0  0
  -27.9121  -30.4160   24.0328 H   0  0  0  0  0  0
  -27.2763  -33.3635   26.2570 H   0  0  0  0  0  0
  -28.3997  -32.6907   25.0862 H   0  0  0  0  0  0
  -28.0749  -31.8442   26.5881 H   0  0  0  0  0  0
  -28.2572  -38.0223   24.7595 H   0  0  0  0  0  0
  -28.1175  -36.2760   24.6160 H   0  0  0  0  0  0
  -27.2327  -37.1365   25.8842 H   0  0  0  0  0  0
  -21.0638  -29.8807   22.4906 H   0  0  0  0  0  0
  -26.0209  -38.2968   24.1440 H   0  0  0  0  0  0
  -21.8970  -25.0515   24.7000 H   0  0  0  0  0  0
  -24.3867  -21.8236   24.9667 H   0  0  0  0  0  0
  -25.8116  -20.9715   24.4006 H   0  0  0  0  0  0
  -24.3181  -20.0777   24.6897 H   0  0  0  0  0  0
  -28.9582  -16.9676   23.3372 H   0  0  0  0  0  0
  -29.1235  -15.2268   23.2131 H   0  0  0  0  0  0
  -27.5251  -15.9481   23.1906 H   0  0  0  0  0  0
  -25.5522  -19.7891   19.8672 H   0  0  0  0  0  0
  -26.3292  -21.1416   20.6920 H   0  0  0  0  0  0
  -24.6165  -21.2281   20.2613 H   0  0  0  0  0  0
  -20.2931  -28.6072   21.2864 H   0  0  0  0  0  0
  -19.9770  -27.5274   20.3697 H   0  0  0  0  0  0
  -22.3015  -28.2403   19.6276 H   0  0  0  0  0  0
  -21.8605  -26.8006   19.3510 H   0  0  0  0  0  0
  -22.0286  -21.2423   23.6229 H   0  0  0  0  0  0
  -22.1436  -21.7035   21.9927 H   0  0  0  0  0  0
  -28.2240  -18.3900   20.7503 H   0  0  0  0  0  0
  -26.9425  -17.3704   20.3032 H   0  0  0  0  0  0
  -26.9560  -19.2206   22.9600 H   0  0  0  0  0  0
  -25.7500  -18.0125   22.8083 H   0  0  0  0  0  0
  -24.1058  -27.4784   20.7928 H   0  0  0  0  0  0
  -23.9868  -26.2766   19.2959 H   0  0  0  0  0  0
  -24.8645  -22.1220   22.5574 H   0  0  0  0  0  0
  -24.2758  -19.3839   21.7212 H   0  0  0  0  0  0
  1 25  1  0  0  0
  1 30  2  0  0  0
  1 86  1  0  0  0
  2  3  1  0  0  0
  2 25  1  0  0  0
  2 88  1  0  0  0
  2 89  1  0  0  0
  3  4  1  0  0  0
  3 90  1  0  0  0
  3 91  1  0  0  0
  4  5  1  0  0  0
  4 92  1  0  0  0
  4 93  1  0  0  0
  5  6  1  0  0  0
  5 26  1  0  0  0
  5 94  1  0  0  0
  6 25  1  0  0  0
  6 95  1  0  0  0
  6 96  1  0  0  0
  7  8  2  0  0  0
  7 26  1  0  0  0
  7 29  1  0  0  0
  8  9  1  0  0  0
  8 22  1  0  0  0
  9 10  1  0  0  0
  9 27  2  0  0  0
 10 11  2  0  0  0
 10 15  1  0  0  0
 11 12  1  0  0  0
 11 97  1  0  0  0
 12 13  2  0  0  0
 12 98  1  0  0  0
 13 14  1  0  0  0
 13 31  1  0  0  0
 14 15  2  0  0  0
 14 99  1  0  0  0
 15100  1  0  0  0
 16 17  2  0  0  0
 16 21  1  0  0  0
 16 31  1  0  0  0
 17 18  1  0  0  0
 17101  1  0  0  0
 18 19  2  0  0  0
 18102  1  0  0  0
 19 20  1  0  0  0
 19 24  1  0  0  0
 20 21  2  0  0  0
 20103  1  0  0  0
 21 23  1  0  0  0
 22 28  1  0  0  0
 22 32  2  0  0  0
 26 27  1  0  0  0
 28104  1  0  0  0
 28105  1  0  0  0
 29106  1  0  0  0
 29107  1  0  0  0
 33 34  1  0  0  0
 33 66  1  0  0  0
 33 70  2  0  0  0
 34 36  1  0  0  0
 34 59  1  0  0  0
 34108  1  0  0  0
 35 44  2  0  0  0
 35 45  1  0  0  0
 35 68  1  0  0  0
 36 56  1  0  0  0
 36109  1  0  0  0
 37 39  1  0  0  0
 37 47  1  0  0  0
 37 66  1  0  0  0
 37110  1  0  0  0
 38 43  2  0  0  0
 38 46  1  0  0  0
 38 47  1  0  0  0
 39 64  1  0  0  0
 39 67  2  0  0  0
 40 52  1  0  0  0
 40 53  2  0  0  0
 40 58  1  0  0  0
 41111  1  0  0  0
 41112  1  0  0  0
 41113  1  0  0  0
 41 48  1  0  0  0
 42 43  1  0  0  0
 42 66  1  0  0  0
 42114  1  0  0  0
 42115  1  0  0  0
 43 44  1  0  0  0
 44116  1  0  0  0
 45 46  2  0  0  0
 45117  1  0  0  0
 46118  1  0  0  0
 47119  1  0  0  0
 47120  1  0  0  0
 48 56  1  0  0  0
 48 65  1  0  0  0
 48121  1  0  0  0
 49 50  1  0  0  0
 49 53  1  0  0  0
 49 64  1  0  0  0
 49122  1  0  0  0
 50 51  1  0  0  0
 50123  1  0  0  0
 50124  1  0  0  0
 51 52  1  0  0  0
 51125  1  0  0  0
 51126  1  0  0  0
 52127  1  0  0  0
 52128  1  0  0  0
 53 54  1  0  0  0
 54 55  2  0  0  0
 54129  1  0  0  0
 55 57  1  0  0  0
 55130  1  0  0  0
 56 69  2  0  0  0
 57 58  2  0  0  0
 57131  1  0  0  0
 58132  1  0  0  0
 59 60  1  0  0  0
 59 61  1  0  0  0
 59 62  1  0  0  0
 60133  1  0  0  0
 60134  1  0  0  0
 60135  1  0  0  0
 61136  1  0  0  0
 61137  1  0  0  0
 61138  1  0  0  0
 62139  1  0  0  0
 62140  1  0  0  0
 62141  1  0  0  0
 63 65  1  0  0  0
 63142  1  0  0  0
 63143  1  0  0  0
 63144  1  0  0  0
 64145  1  0  0  0
 65146  1  0  0  0
 68 81  1  0  0  0
 71 72  2  0  0  0
 71 85  1  0  0  0
 71147  1  0  0  0
 72 76  1  0  0  0
 72 83  1  0  0  0
 73148  1  0  0  0
 73149  1  0  0  0
 73150  1  0  0  0
 73 82  1  0  0  0
 74 86  1  0  0  0
 74151  1  0  0  0
 74152  1  0  0  0
 74153  1  0  0  0
 75154  1  0  0  0
 75155  1  0  0  0
 75156  1  0  0  0
 75 87  1  0  0  0
 76 77  1  0  0  0
 76157  1  0  0  0
 76158  1  0  0  0
 77 81  1  0  0  0
 77159  1  0  0  0
 77160  1  0  0  0
 78 82  1  0  0  0
 78 85  1  0  0  0
 78161  1  0  0  0
 78162  1  0  0  0
 79 80  1  0  0  0
 79 86  1  0  0  0
 79163  1  0  0  0
 79164  1  0  0  0
 80 87  1  0  0  0
 80165  1  0  0  0
 80166  1  0  0  0
 81167  1  0  0  0
 81168  1  0  0  0
 82 87  1  0  0  0
 82169  1  0  0  0
 83 84  2  0  0  0
 84 85  1  0  0  0
 87170  1  0  0  0
M  CHG  1  87   1
M  ISO  4   1 100  68 101  81 101  86 100
M  END
> <chiral flag>
0

> <version>
0

> <s_m_source_file>
/data/baiqing/PycharmProjects/Reinvent-master-3.2/result/LINK_invent/BTK/process_docking_weight1_custom_sum_contain_oxygen_bond_distance_aromatic_linkinvent_7_9_3/rearranged_h_0048.sdf

> <i_m_source_file_index>
35

> <r_mmod_Potential_Energy-OPLS-2005>
11929.9267578125

> <r_mmod_Stretch_Energy-OPLS-2005>
5525.61181640625

> <r_mmod_Bend_Energy-OPLS-2005>
1625.52966308594

> <r_mmod_Torsional_Energy-OPLS-2005>
728.33935546875

> <r_mmod_Improper_Torsional_Energy-OPLS-2005>
56.8153991699219

> <r_mmod_Van_der_Waal_Energy-OPLS-2005>
2055.00537109375

> <r_mmod_Electrostatic_Energy-OPLS-2005>
-223.093292236328

> <r_mmod_Solvation_Energy-OPLS-2005>
-478.796081542969

> <b_mmod_Minimization_Converged-OPLS-2005>
0

> <r_mmod_RMS_Derivative-OPLS-2005>
6.57225513458252

$$$$
36
                    3D
 Structure written by MMmdl.
154162  0  0  1  0            999 V2000
  -30.6064  -14.7209   20.4655 C   0  0  0  0  0  0
  -30.4310  -12.4352   19.4823 C   0  0  0  0  0  0
  -29.5135  -12.5054   18.2413 C   0  0  0  0  0  0
  -28.0371  -12.3341   18.6485 C   0  0  0  0  0  0
  -27.6442  -13.2282   19.8556 C   0  0  2  0  0  0
  -28.6841  -13.1462   20.9946 C   0  0  0  0  0  0
  -25.2523  -13.8200   20.5694 C   0  0  0  0  0  0
  -24.1803  -13.0454   20.9204 C   0  0  0  0  0  0
  -24.6383  -11.6927   20.8739 C   0  0  0  0  0  0
  -23.9062  -10.4304   21.0400 C   0  0  0  0  0  0
  -24.3622   -9.4227   21.9179 C   0  0  0  0  0  0
  -23.6303   -8.2259   22.0757 C   0  0  0  0  0  0
  -22.4286   -8.0286   21.3548 C   0  0  0  0  0  0
  -21.9908   -9.0257   20.4655 C   0  0  0  0  0  0
  -22.7229  -10.2141   20.3058 C   0  0  0  0  0  0
  -21.6861   -6.0738   22.5279 C   0  0  0  0  0  0
  -21.4016   -6.5640   23.8210 C   0  0  0  0  0  0
  -21.3667   -5.6796   24.9174 C   0  0  0  0  0  0
  -21.6047   -4.3057   24.7226 C   0  0  0  0  0  0
  -21.8817   -3.8149   23.4344 C   0  0  0  0  0  0
  -21.9196   -4.6964   22.3401 C   0  0  0  0  0  0
  -22.7826  -13.5243   21.1853 C   0  0  0  0  0  0
  -22.1664   -4.2148   21.0977 F   0  0  0  0  0  0
  -21.5631   -3.4543   25.7738 F   0  0  0  0  0  0
  -29.9906  -13.4915   20.4216 N   0  0  0  0  0  0
  -26.2940  -12.9396   20.3285 N   0  0  0  0  0  0
  -25.9312  -11.6544   20.5747 N   0  0  0  0  0  0
  -22.0461  -12.8245   22.0409 N   0  0  0  0  0  0
  -25.4225  -15.1922   20.4103 N   0  0  0  0  0  0
  -31.7838  -14.8373   20.1153 O   0  0  0  0  0  0
  -21.6654   -6.8881   21.4243 O   0  0  0  0  0  0
  -22.3510  -14.5545   20.6689 O   0  0  0  0  0  0
  -24.6289  -31.8547   23.1970 C   0  0  0  0  0  0
  -25.9121  -32.4750   23.8314 C   0  0  1  0  0  0
  -27.2257  -27.2711   20.1328 C   0  0  0  0  0  0
  -25.5918  -33.8551   24.2243 N   0  0  0  0  0  0
  -23.4248  -30.4758   21.5390 C   0  0  2  0  0  0
  -24.8715  -28.9167   20.1103 C   0  0  0  0  0  0
  -22.7482  -29.4604   22.4906 C   0  0  0  0  0  0
  -18.0290  -28.1392   22.8485 C   0  0  0  0  0  0
  -24.1487  -36.7282   23.2641 C   0  0  0  0  0  0
  -25.9671  -30.7706   21.3738 C   0  0  0  0  0  0
  -26.0383  -29.3918   20.7196 C   0  0  0  0  0  0
  -27.2129  -28.5793   20.7211 C   0  0  0  0  0  0
  -26.0320  -26.8492   19.5070 C   0  0  0  0  0  0
  -24.8720  -27.6529   19.4959 C   0  0  0  0  0  0
  -23.6418  -29.8030   20.1562 C   0  0  0  0  0  0
  -25.4113  -36.3066   24.0328 C   0  0  1  0  0  0
  -20.5891  -28.3702   23.1269 C   0  0  2  0  0  0
  -20.6779  -26.9420   22.5411 C   0  0  0  0  0  0
  -19.5758  -26.6386   21.5213 C   0  0  0  0  0  0
  -18.1935  -26.7935   22.1623 C   0  0  0  0  0  0
  -19.1543  -28.8863   23.2875 C   0  0  0  0  0  0
  -18.9468  -30.1461   23.8896 C   0  0  0  0  0  0
  -17.6469  -30.6594   24.0565 C   0  0  0  0  0  0
  -25.9054  -34.9436   23.5092 C   0  0  0  0  0  0
  -16.5359  -29.9094   23.6332 C   0  0  0  0  0  0
  -16.7276  -28.6510   23.0353 C   0  0  0  0  0  0
  -26.4498  -31.6576   25.0701 C   0  0  0  0  0  0
  -25.3726  -31.3728   26.1427 C   0  0  0  0  0  0
  -27.0352  -30.2992   24.6187 C   0  0  0  0  0  0
  -27.6045  -32.4322   25.7477 C   0  0  0  0  0  0
  -27.5577  -37.1792   24.8464 C   0  0  0  0  0  0
  -21.4194  -29.3046   22.3651 N   0  0  0  0  0  0
  -26.4286  -37.3765   23.9412 N   0  0  0  0  0  0
  -24.6925  -31.0521   22.0936 N   0  0  0  0  0  0
  -23.4186  -28.8159   23.3016 O   0  0  0  0  0  0
  -28.3625  -26.4404   20.2127 O   0  0  0  0  0  0
  -26.5635  -34.8915   22.4668 O   0  0  0  0  0  0
  -23.5445  -32.1362   23.7279 O   0  0  0  0  0  0
  -29.6862  -21.9365   19.1813 C   0  0  0  0  0  0
  -28.8850  -22.3253   20.2321 C   0  0  0  0  0  0
  -29.2545  -20.0155   20.3002 C   0  0  0  0  0  0
  -30.6665  -19.7928   18.2722 C   0  0  0  0  0  0
  -28.3638  -23.7467   20.6948 C   0  0  0  0  0  0
  -29.1103  -18.4856   20.7235 C   0  0  0  0  0  0
  -30.1488  -17.3006   20.3298 C   0  0  0  0  0  0
  -28.4520  -25.0270   19.7138 C   0  0  0  0  0  0
  -29.8843  -20.5639   19.2391 N   0  0  0  0  0  0
  -28.6520  -21.0988   20.8873 N   0  3  0  0  0  0
  -29.8240  -15.8437   20.6774 N   0  0  0  0  0  0
  -31.4747  -12.5534   19.1866 H   0  0  0  0  0  0
  -30.3658  -11.4547   19.9560 H   0  0  0  0  0  0
  -29.7942  -11.7378   17.5194 H   0  0  0  0  0  0
  -29.6474  -13.4640   17.7377 H   0  0  0  0  0  0
  -27.8877  -11.2843   18.9025 H   0  0  0  0  0  0
  -27.3842  -12.5365   17.7986 H   0  0  0  0  0  0
  -27.6453  -14.2532   19.4841 H   0  0  0  0  0  0
  -28.7103  -12.1448   21.4274 H   0  0  0  0  0  0
  -28.4198  -13.8225   21.8092 H   0  0  0  0  0  0
  -25.2765   -9.5714   22.4750 H   0  0  0  0  0  0
  -24.0019   -7.4659   22.7476 H   0  0  0  0  0  0
  -21.0838   -8.8771   19.8964 H   0  0  0  0  0  0
  -22.3674  -10.9681   19.6174 H   0  0  0  0  0  0
  -21.2007   -7.6147   23.9710 H   0  0  0  0  0  0
  -21.1489   -6.0526   25.9075 H   0  0  0  0  0  0
  -22.0586   -2.7608   23.2843 H   0  0  0  0  0  0
  -22.4083  -11.9920   22.4819 H   0  0  0  0  0  0
  -21.1070  -13.1264   22.2596 H   0  0  0  0  0  0
  -24.6507  -15.8427   20.5106 H   0  0  0  0  0  0
  -26.2618  -15.6279   20.0515 H   0  0  0  0  0  0
  -26.7181  -32.5400   23.1051 H   0  0  0  0  0  0
  -25.0048  -33.9682   25.0376 H   0  0  0  0  0  0
  -22.7216  -31.2979   21.3906 H   0  0  0  0  0  0
  -23.3749  -35.9615   23.3302 H   0  0  0  0  0  0
  -24.3578  -36.8908   22.2056 H   0  0  0  0  0  0
  -23.7238  -37.6482   23.6668 H   0  0  0  0  0  0
  -26.1016  -31.5279   20.6002 H   0  0  0  0  0  0
  -26.8468  -30.8222   22.0039 H   0  0  0  0  0  0
  -28.1058  -28.9374   21.2139 H   0  0  0  0  0  0
  -25.9593  -25.8769   19.0459 H   0  0  0  0  0  0
  -23.9733  -27.2802   19.0234 H   0  0  0  0  0  0
  -23.7640  -30.5749   19.3957 H   0  0  0  0  0  0
  -22.7615  -29.2321   19.8557 H   0  0  0  0  0  0
  -25.1295  -36.1913   25.0819 H   0  0  0  0  0  0
  -20.9987  -28.3290   24.1387 H   0  0  0  0  0  0
  -20.5679  -26.2315   23.3619 H   0  0  0  0  0  0
  -21.6649  -26.7447   22.1207 H   0  0  0  0  0  0
  -19.6923  -25.6294   21.1249 H   0  0  0  0  0  0
  -19.6699  -27.3192   20.6740 H   0  0  0  0  0  0
  -17.4207  -26.6681   21.4023 H   0  0  0  0  0  0
  -18.0339  -26.0076   22.9019 H   0  0  0  0  0  0
  -19.7944  -30.7277   24.2263 H   0  0  0  0  0  0
  -17.5026  -31.6275   24.5171 H   0  0  0  0  0  0
  -15.5360  -30.3004   23.7657 H   0  0  0  0  0  0
  -15.8673  -28.0834   22.7070 H   0  0  0  0  0  0
  -24.5894  -30.7087   25.7755 H   0  0  0  0  0  0
  -24.8930  -32.2903   26.4844 H   0  0  0  0  0  0
  -25.8042  -30.8904   27.0205 H   0  0  0  0  0  0
  -26.2936  -29.6728   24.1215 H   0  0  0  0  0  0
  -27.4041  -29.7263   25.4706 H   0  0  0  0  0  0
  -27.8807  -30.4270   23.9425 H   0  0  0  0  0  0
  -27.2642  -33.3619   26.2048 H   0  0  0  0  0  0
  -28.3857  -32.6887   25.0311 H   0  0  0  0  0  0
  -28.0714  -31.8456   26.5400 H   0  0  0  0  0  0
  -28.2588  -38.0095   24.7513 H   0  0  0  0  0  0
  -28.1078  -36.2624   24.6285 H   0  0  0  0  0  0
  -27.2299  -37.1437   25.8868 H   0  0  0  0  0  0
  -20.9379  -29.8751   21.6840 H   0  0  0  0  0  0
  -26.0166  -38.2838   24.1418 H   0  0  0  0  0  0
  -30.1310  -22.5364   18.3983 H   0  0  0  0  0  0
  -31.0843  -20.4638   17.5207 H   0  0  0  0  0  0
  -30.0183  -19.0698   17.7766 H   0  0  0  0  0  0
  -31.4856  -19.2896   18.7855 H   0  0  0  0  0  0
  -28.9125  -23.9968   21.6026 H   0  0  0  0  0  0
  -27.3265  -23.6365   21.0115 H   0  0  0  0  0  0
  -28.1218  -18.2041   20.3621 H   0  0  0  0  0  0
  -29.0296  -18.5094   21.8103 H   0  0  0  0  0  0
  -31.1280  -17.5389   20.7474 H   0  0  0  0  0  0
  -30.2798  -17.3021   19.2487 H   0  0  0  0  0  0
  -27.8121  -24.8694   18.8475 H   0  0  0  0  0  0
  -29.4572  -24.9912   19.2946 H   0  0  0  0  0  0
  -28.0799  -21.0154   21.7209 H   0  0  0  0  0  0
  -28.8756  -15.6560   20.9685 H   0  0  0  0  0  0
  1 25  1  0  0  0
  1 30  2  0  0  0
  1 81  1  0  0  0
  2  3  1  0  0  0
  2 25  1  0  0  0
  2 82  1  0  0  0
  2 83  1  0  0  0
  3  4  1  0  0  0
  3 84  1  0  0  0
  3 85  1  0  0  0
  4  5  1  0  0  0
  4 86  1  0  0  0
  4 87  1  0  0  0
  5  6  1  0  0  0
  5 26  1  0  0  0
  5 88  1  0  0  0
  6 25  1  0  0  0
  6 89  1  0  0  0
  6 90  1  0  0  0
  7  8  2  0  0  0
  7 26  1  0  0  0
  7 29  1  0  0  0
  8  9  1  0  0  0
  8 22  1  0  0  0
  9 10  1  0  0  0
  9 27  2  0  0  0
 10 11  2  0  0  0
 10 15  1  0  0  0
 11 12  1  0  0  0
 11 91  1  0  0  0
 12 13  2  0  0  0
 12 92  1  0  0  0
 13 14  1  0  0  0
 13 31  1  0  0  0
 14 15  2  0  0  0
 14 93  1  0  0  0
 15 94  1  0  0  0
 16 17  2  0  0  0
 16 21  1  0  0  0
 16 31  1  0  0  0
 17 18  1  0  0  0
 17 95  1  0  0  0
 18 19  2  0  0  0
 18 96  1  0  0  0
 19 20  1  0  0  0
 19 24  1  0  0  0
 20 21  2  0  0  0
 20 97  1  0  0  0
 21 23  1  0  0  0
 22 28  1  0  0  0
 22 32  2  0  0  0
 26 27  1  0  0  0
 28 98  1  0  0  0
 28 99  1  0  0  0
 29100  1  0  0  0
 29101  1  0  0  0
 33 34  1  0  0  0
 33 66  1  0  0  0
 33 70  2  0  0  0
 34 36  1  0  0  0
 34 59  1  0  0  0
 34102  1  0  0  0
 35 44  2  0  0  0
 35 45  1  0  0  0
 35 68  1  0  0  0
 36 56  1  0  0  0
 36103  1  0  0  0
 37 39  1  0  0  0
 37 47  1  0  0  0
 37 66  1  0  0  0
 37104  1  0  0  0
 38 43  2  0  0  0
 38 46  1  0  0  0
 38 47  1  0  0  0
 39 64  1  0  0  0
 39 67  2  0  0  0
 40 52  1  0  0  0
 40 53  2  0  0  0
 40 58  1  0  0  0
 41105  1  0  0  0
 41106  1  0  0  0
 41107  1  0  0  0
 41 48  1  0  0  0
 42 43  1  0  0  0
 42 66  1  0  0  0
 42108  1  0  0  0
 42109  1  0  0  0
 43 44  1  0  0  0
 44110  1  0  0  0
 45 46  2  0  0  0
 45111  1  0  0  0
 46112  1  0  0  0
 47113  1  0  0  0
 47114  1  0  0  0
 48 56  1  0  0  0
 48 65  1  0  0  0
 48115  1  0  0  0
 49 50  1  0  0  0
 49 53  1  0  0  0
 49 64  1  0  0  0
 49116  1  0  0  0
 50 51  1  0  0  0
 50117  1  0  0  0
 50118  1  0  0  0
 51 52  1  0  0  0
 51119  1  0  0  0
 51120  1  0  0  0
 52121  1  0  0  0
 52122  1  0  0  0
 53 54  1  0  0  0
 54 55  2  0  0  0
 54123  1  0  0  0
 55 57  1  0  0  0
 55124  1  0  0  0
 56 69  2  0  0  0
 57 58  2  0  0  0
 57125  1  0  0  0
 58126  1  0  0  0
 59 60  1  0  0  0
 59 61  1  0  0  0
 59 62  1  0  0  0
 60127  1  0  0  0
 60128  1  0  0  0
 60129  1  0  0  0
 61130  1  0  0  0
 61131  1  0  0  0
 61132  1  0  0  0
 62133  1  0  0  0
 62134  1  0  0  0
 62135  1  0  0  0
 63 65  1  0  0  0
 63136  1  0  0  0
 63137  1  0  0  0
 63138  1  0  0  0
 64139  1  0  0  0
 65140  1  0  0  0
 68 78  1  0  0  0
 71 72  2  0  0  0
 71 79  1  0  0  0
 71141  1  0  0  0
 72 75  1  0  0  0
 72 80  1  0  0  0
 73 76  1  0  0  0
 73 79  1  0  0  0
 73 80  2  0  0  0
 74 79  1  0  0  0
 74142  1  0  0  0
 74143  1  0  0  0
 74144  1  0  0  0
 75 78  1  0  0  0
 75145  1  0  0  0
 75146  1  0  0  0
 76 77  1  0  0  0
 76147  1  0  0  0
 76148  1  0  0  0
 77 81  1  0  0  0
 77149  1  0  0  0
 77150  1  0  0  0
 78151  1  0  0  0
 78152  1  0  0  0
 80153  1  0  0  0
 81154  1  0  0  0
M  CHG  1  80   1
M  ISO  4   1 100  68 101  78 101  81 100
M  END
> <chiral flag>
0

> <version>
0

> <s_m_source_file>
/data/baiqing/PycharmProjects/Reinvent-master-3.2/result/LINK_invent/BTK/process_docking_weight1_custom_sum_contain_oxygen_bond_distance_aromatic_linkinvent_7_9_3/rearranged_h_0048.sdf

> <i_m_source_file_index>
36

> <r_mmod_Potential_Energy-OPLS-2005>
61.0490531921387

> <r_mmod_Stretch_Energy-OPLS-2005>
116.998840332031

> <r_mmod_Bend_Energy-OPLS-2005>
174.224044799805

> <r_mmod_Torsional_Energy-OPLS-2005>
201.589279174805

> <r_mmod_Improper_Torsional_Energy-OPLS-2005>
5.94889211654663

> <r_mmod_Van_der_Waal_Energy-OPLS-2005>
114.94637298584

> <r_mmod_Electrostatic_Energy-OPLS-2005>
-187.986114501953

> <r_mmod_Solvation_Energy-OPLS-2005>
-439.058349609375

> <b_mmod_Minimization_Converged-OPLS-2005>
0

> <r_mmod_RMS_Derivative-OPLS-2005>
1.12802851200104

$$$$
37
                    3D
 Structure written by MMmdl.
153161  0  0  1  0            999 V2000
  -30.6556  -14.7258   20.4567 C   0  0  0  0  0  0
  -30.4291  -12.4454   19.4759 C   0  0  0  0  0  0
  -29.5108  -12.5011   18.2372 C   0  0  0  0  0  0
  -28.0382  -12.3271   18.6532 C   0  0  0  0  0  0
  -27.6429  -13.2347   19.8488 C   0  0  2  0  0  0
  -28.6899  -13.1887   20.9846 C   0  0  0  0  0  0
  -25.2520  -13.8208   20.5700 C   0  0  0  0  0  0
  -24.1812  -13.0446   20.9205 C   0  0  0  0  0  0
  -24.6403  -11.6922   20.8739 C   0  0  0  0  0  0
  -23.9075  -10.4296   21.0386 C   0  0  0  0  0  0
  -24.3625   -9.4212   21.9163 C   0  0  0  0  0  0
  -23.6303   -8.2245   22.0736 C   0  0  0  0  0  0
  -22.4286   -8.0269   21.3530 C   0  0  0  0  0  0
  -21.9920   -9.0246   20.4638 C   0  0  0  0  0  0
  -22.7244  -10.2128   20.3038 C   0  0  0  0  0  0
  -21.6861   -6.0733   22.5273 C   0  0  0  0  0  0
  -21.4025   -6.5638   23.8206 C   0  0  0  0  0  0
  -21.3658   -5.6791   24.9168 C   0  0  0  0  0  0
  -21.6039   -4.3051   24.7219 C   0  0  0  0  0  0
  -21.8825   -3.8146   23.4342 C   0  0  0  0  0  0
  -21.9200   -4.6960   22.3398 C   0  0  0  0  0  0
  -22.7830  -13.5220   21.1856 C   0  0  0  0  0  0
  -22.1670   -4.2152   21.0977 F   0  0  0  0  0  0
  -21.5615   -3.4530   25.7729 F   0  0  0  0  0  0
  -29.9936  -13.5201   20.3967 N   0  0  0  0  0  0
  -26.2952  -12.9419   20.3280 N   0  0  0  0  0  0
  -25.9340  -11.6558   20.5759 N   0  0  0  0  0  0
  -22.0493  -12.8214   22.0427 N   0  0  0  0  0  0
  -25.4197  -15.1938   20.4132 N   0  0  0  0  0  0
  -31.8467  -14.7872   20.1467 O   0  0  0  0  0  0
  -21.6646   -6.8870   21.4232 O   0  0  0  0  0  0
  -22.3494  -14.5507   20.6680 O   0  0  0  0  0  0
  -24.6315  -31.8581   23.2011 C   0  0  0  0  0  0
  -25.9136  -32.4776   23.8347 C   0  0  1  0  0  0
  -27.2131  -27.2630   20.1120 C   0  0  0  0  0  0
  -25.5930  -33.8575   24.2265 N   0  0  0  0  0  0
  -23.4268  -30.4845   21.5476 C   0  0  2  0  0  0
  -24.8706  -28.9394   20.1130 C   0  0  0  0  0  0
  -22.7501  -29.4623   22.4929 C   0  0  0  0  0  0
  -18.0292  -28.1398   22.8492 C   0  0  0  0  0  0
  -24.1489  -36.7289   23.2639 C   0  0  0  0  0  0
  -25.9762  -30.7698   21.3832 C   0  0  0  0  0  0
  -26.0479  -29.3953   20.7198 C   0  0  0  0  0  0
  -27.2217  -28.5705   20.7095 C   0  0  0  0  0  0
  -26.0040  -26.8868   19.4742 C   0  0  0  0  0  0
  -24.8529  -27.6910   19.4833 C   0  0  0  0  0  0
  -23.6440  -29.8274   20.1620 C   0  0  0  0  0  0
  -25.4115  -36.3082   24.0329 C   0  0  1  0  0  0
  -20.5897  -28.3710   23.1277 C   0  0  2  0  0  0
  -20.6788  -26.9433   22.5411 C   0  0  0  0  0  0
  -19.5759  -26.6393   21.5222 C   0  0  0  0  0  0
  -18.1938  -26.7940   22.1632 C   0  0  0  0  0  0
  -19.1545  -28.8871   23.2878 C   0  0  0  0  0  0
  -18.9463  -30.1471   23.8897 C   0  0  0  0  0  0
  -17.6462  -30.6601   24.0567 C   0  0  0  0  0  0
  -25.9059  -34.9455   23.5100 C   0  0  0  0  0  0
  -16.5354  -29.9099   23.6334 C   0  0  0  0  0  0
  -16.7278  -28.6516   23.0359 C   0  0  0  0  0  0
  -26.4488  -31.6600   25.0743 C   0  0  0  0  0  0
  -25.3688  -31.3769   26.1448 C   0  0  0  0  0  0
  -27.0332  -30.3009   24.6246 C   0  0  0  0  0  0
  -27.6044  -32.4340   25.7513 C   0  0  0  0  0  0
  -27.5582  -37.1802   24.8464 C   0  0  0  0  0  0
  -21.4212  -29.3055   22.3665 N   0  0  0  0  0  0
  -26.4293  -37.3779   23.9410 N   0  0  0  0  0  0
  -24.6978  -31.0543   22.1003 N   0  0  0  0  0  0
  -23.4202  -28.8155   23.3019 O   0  0  0  0  0  0
  -28.2929  -26.3399   20.1699 O   0  0  0  0  0  0
  -26.5638  -34.8927   22.4677 O   0  0  0  0  0  0
  -23.5461  -32.1410   23.7303 O   0  0  0  0  0  0
  -28.6577  -22.2412   20.3137 C   0  0  0  0  0  0
  -28.9407  -23.6716   20.1772 C   0  0  0  0  0  0
  -29.8610  -21.5387   20.3284 C   0  0  0  0  0  0
  -32.2363  -22.4710   20.1287 C   0  0  0  0  0  0
  -27.9521  -24.8880   19.9488 C   0  0  0  0  0  0
  -30.3983  -20.0459   20.4033 C   0  0  0  0  0  0
  -29.5814  -18.6568   20.5254 C   0  0  0  0  0  0
  -30.5021  -17.3172   20.5079 C   0  0  0  0  0  0
  -30.2527  -23.8281   20.1283 N   0  0  0  0  0  0
  -30.7904  -22.5765   20.2102 N   0  0  0  0  0  0
  -29.9421  -15.8999   20.6423 N   0  0  0  0  0  0
  -31.4713  -12.5556   19.1697 H   0  0  0  0  0  0
  -30.3616  -11.4734   19.9670 H   0  0  0  0  0  0
  -29.7938  -11.7277   17.5214 H   0  0  0  0  0  0
  -29.6393  -13.4554   17.7250 H   0  0  0  0  0  0
  -27.8992  -11.2807   18.9258 H   0  0  0  0  0  0
  -27.3806  -12.5105   17.8034 H   0  0  0  0  0  0
  -27.6332  -14.2524   19.4581 H   0  0  0  0  0  0
  -28.7221  -12.2040   21.4522 H   0  0  0  0  0  0
  -28.4285  -13.8968   21.7731 H   0  0  0  0  0  0
  -25.2771   -9.5696   22.4727 H   0  0  0  0  0  0
  -24.0013   -7.4648   22.7464 H   0  0  0  0  0  0
  -21.0838   -8.8761   19.8960 H   0  0  0  0  0  0
  -22.3685  -10.9656   19.6139 H   0  0  0  0  0  0
  -21.2030   -7.6147   23.9713 H   0  0  0  0  0  0
  -21.1464   -6.0516   25.9071 H   0  0  0  0  0  0
  -22.0607   -2.7606   23.2841 H   0  0  0  0  0  0
  -22.4137  -11.9900   22.4840 H   0  0  0  0  0  0
  -21.1082  -13.1192   22.2582 H   0  0  0  0  0  0
  -24.6501  -15.8452   20.5232 H   0  0  0  0  0  0
  -26.2654  -15.6370   20.0788 H   0  0  0  0  0  0
  -26.7205  -32.5423   23.1089 H   0  0  0  0  0  0
  -25.0039  -33.9708   25.0382 H   0  0  0  0  0  0
  -22.7228  -31.3072   21.4064 H   0  0  0  0  0  0
  -23.3759  -35.9614   23.3298 H   0  0  0  0  0  0
  -24.3576  -36.8912   22.2053 H   0  0  0  0  0  0
  -23.7231  -37.6487   23.6662 H   0  0  0  0  0  0
  -26.1166  -31.5329   20.6164 H   0  0  0  0  0  0
  -26.8531  -30.8157   22.0166 H   0  0  0  0  0  0
  -28.1195  -28.9144   21.2041 H   0  0  0  0  0  0
  -25.8906  -25.9411   18.9697 H   0  0  0  0  0  0
  -23.9495  -27.3346   19.0069 H   0  0  0  0  0  0
  -23.7724  -30.6084   19.4115 H   0  0  0  0  0  0
  -22.7608  -29.2657   19.8530 H   0  0  0  0  0  0
  -25.1295  -36.1936   25.0822 H   0  0  0  0  0  0
  -20.9982  -28.3292   24.1401 H   0  0  0  0  0  0
  -20.5717  -26.2318   23.3613 H   0  0  0  0  0  0
  -21.6654  -26.7484   22.1185 H   0  0  0  0  0  0
  -19.6923  -25.6300   21.1261 H   0  0  0  0  0  0
  -19.6694  -27.3198   20.6747 H   0  0  0  0  0  0
  -17.4209  -26.6690   21.4034 H   0  0  0  0  0  0
  -18.0339  -26.0087   22.9032 H   0  0  0  0  0  0
  -19.7937  -30.7293   24.2265 H   0  0  0  0  0  0
  -17.5017  -31.6282   24.5171 H   0  0  0  0  0  0
  -15.5355  -30.3003   23.7663 H   0  0  0  0  0  0
  -15.8675  -28.0836   22.7076 H   0  0  0  0  0  0
  -24.5852  -30.7140   25.7753 H   0  0  0  0  0  0
  -24.8890  -32.2956   26.4842 H   0  0  0  0  0  0
  -25.7967  -30.8945   27.0244 H   0  0  0  0  0  0
  -26.2928  -29.6769   24.1228 H   0  0  0  0  0  0
  -27.3951  -29.7262   25.4778 H   0  0  0  0  0  0
  -27.8833  -30.4267   23.9537 H   0  0  0  0  0  0
  -27.2651  -33.3638   26.2089 H   0  0  0  0  0  0
  -28.3853  -32.6908   25.0343 H   0  0  0  0  0  0
  -28.0721  -31.8473   26.5430 H   0  0  0  0  0  0
  -28.2600  -38.0099   24.7520 H   0  0  0  0  0  0
  -28.1080  -36.2635   24.6281 H   0  0  0  0  0  0
  -27.2307  -37.1441   25.8868 H   0  0  0  0  0  0
  -20.9395  -29.8766   21.6862 H   0  0  0  0  0  0
  -26.0178  -38.2857   24.1407 H   0  0  0  0  0  0
  -27.6760  -21.7902   20.3580 H   0  0  0  0  0  0
  -32.5194  -22.0866   19.1482 H   0  0  0  0  0  0
  -32.6113  -21.7963   20.8978 H   0  0  0  0  0  0
  -32.7047  -23.4458   20.2719 H   0  0  0  0  0  0
  -27.0525  -24.6709   20.5261 H   0  0  0  0  0  0
  -27.6618  -24.8128   18.9007 H   0  0  0  0  0  0
  -31.0984  -20.0253   21.2388 H   0  0  0  0  0  0
  -31.0350  -19.9174   19.5274 H   0  0  0  0  0  0
  -28.8608  -18.6017   19.7096 H   0  0  0  0  0  0
  -28.9980  -18.6761   21.4456 H   0  0  0  0  0  0
  -31.2549  -17.4241   21.2895 H   0  0  0  0  0  0
  -31.0670  -17.3368   19.5739 H   0  0  0  0  0  0
  -28.9557  -15.8069   20.8304 H   0  0  0  0  0  0
  1 25  1  0  0  0
  1 30  2  0  0  0
  1 81  1  0  0  0
  2  3  1  0  0  0
  2 25  1  0  0  0
  2 82  1  0  0  0
  2 83  1  0  0  0
  3  4  1  0  0  0
  3 84  1  0  0  0
  3 85  1  0  0  0
  4  5  1  0  0  0
  4 86  1  0  0  0
  4 87  1  0  0  0
  5  6  1  0  0  0
  5 26  1  0  0  0
  5 88  1  0  0  0
  6 25  1  0  0  0
  6 89  1  0  0  0
  6 90  1  0  0  0
  7  8  2  0  0  0
  7 26  1  0  0  0
  7 29  1  0  0  0
  8  9  1  0  0  0
  8 22  1  0  0  0
  9 10  1  0  0  0
  9 27  2  0  0  0
 10 11  2  0  0  0
 10 15  1  0  0  0
 11 12  1  0  0  0
 11 91  1  0  0  0
 12 13  2  0  0  0
 12 92  1  0  0  0
 13 14  1  0  0  0
 13 31  1  0  0  0
 14 15  2  0  0  0
 14 93  1  0  0  0
 15 94  1  0  0  0
 16 17  2  0  0  0
 16 21  1  0  0  0
 16 31  1  0  0  0
 17 18  1  0  0  0
 17 95  1  0  0  0
 18 19  2  0  0  0
 18 96  1  0  0  0
 19 20  1  0  0  0
 19 24  1  0  0  0
 20 21  2  0  0  0
 20 97  1  0  0  0
 21 23  1  0  0  0
 22 28  1  0  0  0
 22 32  2  0  0  0
 26 27  1  0  0  0
 28 98  1  0  0  0
 28 99  1  0  0  0
 29100  1  0  0  0
 29101  1  0  0  0
 33 34  1  0  0  0
 33 66  1  0  0  0
 33 70  2  0  0  0
 34 36  1  0  0  0
 34 59  1  0  0  0
 34102  1  0  0  0
 35 44  2  0  0  0
 35 45  1  0  0  0
 35 68  1  0  0  0
 36 56  1  0  0  0
 36103  1  0  0  0
 37 39  1  0  0  0
 37 47  1  0  0  0
 37 66  1  0  0  0
 37104  1  0  0  0
 38 43  2  0  0  0
 38 46  1  0  0  0
 38 47  1  0  0  0
 39 64  1  0  0  0
 39 67  2  0  0  0
 40 52  1  0  0  0
 40 53  2  0  0  0
 40 58  1  0  0  0
 41105  1  0  0  0
 41106  1  0  0  0
 41107  1  0  0  0
 41 48  1  0  0  0
 42 43  1  0  0  0
 42 66  1  0  0  0
 42108  1  0  0  0
 42109  1  0  0  0
 43 44  1  0  0  0
 44110  1  0  0  0
 45 46  2  0  0  0
 45111  1  0  0  0
 46112  1  0  0  0
 47113  1  0  0  0
 47114  1  0  0  0
 48 56  1  0  0  0
 48 65  1  0  0  0
 48115  1  0  0  0
 49 50  1  0  0  0
 49 53  1  0  0  0
 49 64  1  0  0  0
 49116  1  0  0  0
 50 51  1  0  0  0
 50117  1  0  0  0
 50118  1  0  0  0
 51 52  1  0  0  0
 51119  1  0  0  0
 51120  1  0  0  0
 52121  1  0  0  0
 52122  1  0  0  0
 53 54  1  0  0  0
 54 55  2  0  0  0
 54123  1  0  0  0
 55 57  1  0  0  0
 55124  1  0  0  0
 56 69  2  0  0  0
 57 58  2  0  0  0
 57125  1  0  0  0
 58126  1  0  0  0
 59 60  1  0  0  0
 59 61  1  0  0  0
 59 62  1  0  0  0
 60127  1  0  0  0
 60128  1  0  0  0
 60129  1  0  0  0
 61130  1  0  0  0
 61131  1  0  0  0
 61132  1  0  0  0
 62133  1  0  0  0
 62134  1  0  0  0
 62135  1  0  0  0
 63 65  1  0  0  0
 63136  1  0  0  0
 63137  1  0  0  0
 63138  1  0  0  0
 64139  1  0  0  0
 65140  1  0  0  0
 68 75  1  0  0  0
 71 72  1  0  0  0
 71 73  2  0  0  0
 71141  1  0  0  0
 72 75  1  0  0  0
 72 79  2  0  0  0
 73 76  1  0  0  0
 73 80  1  0  0  0
 74 80  1  0  0  0
 74142  1  0  0  0
 74143  1  0  0  0
 74144  1  0  0  0
 75145  1  0  0  0
 75146  1  0  0  0
 76 77  1  0  0  0
 76147  1  0  0  0
 76148  1  0  0  0
 77 78  1  0  0  0
 77149  1  0  0  0
 77150  1  0  0  0
 78 81  1  0  0  0
 78151  1  0  0  0
 78152  1  0  0  0
 79 80  1  0  0  0
 81153  1  0  0  0
M  ISO  4   1 100  68 101  75 101  81 100
M  END
> <chiral flag>
0

> <version>
0

> <s_m_source_file>
/data/baiqing/PycharmProjects/Reinvent-master-3.2/result/LINK_invent/BTK/process_docking_weight1_custom_sum_contain_oxygen_bond_distance_aromatic_linkinvent_7_9_3/rearranged_h_0048.sdf

> <i_m_source_file_index>
37

> <r_mmod_Potential_Energy-OPLS-2005>
125.218231201172

> <r_mmod_Stretch_Energy-OPLS-2005>
118.338272094727

> <r_mmod_Bend_Energy-OPLS-2005>
186.923034667969

> <r_mmod_Torsional_Energy-OPLS-2005>
198.771408081055

> <r_mmod_Improper_Torsional_Energy-OPLS-2005>
5.29455614089966

> <r_mmod_Van_der_Waal_Energy-OPLS-2005>
127.296974182129

> <r_mmod_Electrostatic_Energy-OPLS-2005>
-361.491851806641

> <r_mmod_Solvation_Energy-OPLS-2005>
-234.727325439453

> <b_mmod_Minimization_Converged-OPLS-2005>
0

> <r_mmod_RMS_Derivative-OPLS-2005>
1.51794135570526

$$$$
38
                    3D
 Structure written by MMmdl.
151159  0  0  1  0            999 V2000
  -30.6565  -14.6424   20.5020 C   0  0  0  0  0  0
  -30.4263  -12.3982   19.4556 C   0  0  0  0  0  0
  -29.5015  -12.5002   18.2240 C   0  0  0  0  0  0
  -28.0273  -12.3375   18.6413 C   0  0  0  0  0  0
  -27.6476  -13.2233   19.8578 C   0  0  2  0  0  0
  -28.6928  -13.1153   20.9895 C   0  0  0  0  0  0
  -25.2538  -13.8182   20.5694 C   0  0  0  0  0  0
  -24.1811  -13.0439   20.9195 C   0  0  0  0  0  0
  -24.6390  -11.6912   20.8746 C   0  0  0  0  0  0
  -23.9064  -10.4289   21.0405 C   0  0  0  0  0  0
  -24.3614   -9.4206   21.9186 C   0  0  0  0  0  0
  -23.6288   -8.2241   22.0754 C   0  0  0  0  0  0
  -22.4273   -8.0276   21.3541 C   0  0  0  0  0  0
  -21.9908   -9.0249   20.4647 C   0  0  0  0  0  0
  -22.7235  -10.2131   20.3056 C   0  0  0  0  0  0
  -21.6856   -6.0729   22.5276 C   0  0  0  0  0  0
  -21.4014   -6.5637   23.8205 C   0  0  0  0  0  0
  -21.3661   -5.6792   24.9170 C   0  0  0  0  0  0
  -21.6046   -4.3054   24.7223 C   0  0  0  0  0  0
  -21.8820   -3.8142   23.4346 C   0  0  0  0  0  0
  -21.9193   -4.6957   22.3399 C   0  0  0  0  0  0
  -22.7838  -13.5229   21.1864 C   0  0  0  0  0  0
  -22.1664   -4.2143   21.0979 F   0  0  0  0  0  0
  -21.5631   -3.4537   25.7737 F   0  0  0  0  0  0
  -30.0024  -13.4418   20.4111 N   0  0  0  0  0  0
  -26.2965  -12.9378   20.3316 N   0  0  0  0  0  0
  -25.9321  -11.6527   20.5767 N   0  0  0  0  0  0
  -22.0490  -12.8208   22.0414 N   0  0  0  0  0  0
  -25.4249  -15.1903   20.4109 N   0  0  0  0  0  0
  -31.8363  -14.7478   20.1582 O   0  0  0  0  0  0
  -21.6643   -6.8868   21.4238 O   0  0  0  0  0  0
  -22.3523  -14.5539   20.6720 O   0  0  0  0  0  0
  -24.6259  -31.8603   23.2024 C   0  0  0  0  0  0
  -25.9109  -32.4784   23.8349 C   0  0  1  0  0  0
  -27.2248  -27.3178   20.1028 C   0  0  0  0  0  0
  -25.5933  -33.8586   24.2274 N   0  0  0  0  0  0
  -23.4192  -30.4855   21.5452 C   0  0  2  0  0  0
  -24.8636  -28.9422   20.1093 C   0  0  0  0  0  0
  -22.7476  -29.4632   22.4928 C   0  0  0  0  0  0
  -18.0288  -28.1391   22.8493 C   0  0  0  0  0  0
  -24.1490  -36.7292   23.2639 C   0  0  0  0  0  0
  -25.9610  -30.7906   21.3725 C   0  0  0  0  0  0
  -26.0331  -29.4182   20.7128 C   0  0  0  0  0  0
  -27.2123  -28.6162   20.7040 C   0  0  0  0  0  0
  -26.0181  -26.8847   19.5019 C   0  0  0  0  0  0
  -24.8577  -27.6794   19.4996 C   0  0  0  0  0  0
  -23.6332  -29.8235   20.1588 C   0  0  0  0  0  0
  -25.4116  -36.3083   24.0326 C   0  0  1  0  0  0
  -20.5890  -28.3692   23.1285 C   0  0  2  0  0  0
  -20.6780  -26.9416   22.5411 C   0  0  0  0  0  0
  -19.5756  -26.6386   21.5217 C   0  0  0  0  0  0
  -18.1932  -26.7937   22.1622 C   0  0  0  0  0  0
  -19.1543  -28.8856   23.2887 C   0  0  0  0  0  0
  -18.9468  -30.1461   23.8898 C   0  0  0  0  0  0
  -17.6468  -30.6592   24.0571 C   0  0  0  0  0  0
  -25.9056  -34.9457   23.5095 C   0  0  0  0  0  0
  -16.5358  -29.9093   23.6336 C   0  0  0  0  0  0
  -16.7275  -28.6514   23.0351 C   0  0  0  0  0  0
  -26.4489  -31.6600   25.0723 C   0  0  0  0  0  0
  -25.3720  -31.3742   26.1450 C   0  0  0  0  0  0
  -27.0334  -30.3030   24.6167 C   0  0  0  0  0  0
  -27.6048  -32.4336   25.7497 C   0  0  0  0  0  0
  -27.5580  -37.1797   24.8463 C   0  0  0  0  0  0
  -21.4191  -29.3047   22.3680 N   0  0  0  0  0  0
  -26.4289  -37.3782   23.9416 N   0  0  0  0  0  0
  -24.6881  -31.0617   22.0973 N   0  0  0  0  0  0
  -23.4207  -28.8165   23.3002 O   0  0  0  0  0  0
  -28.3602  -26.4917   20.1722 O   0  0  0  0  0  0
  -26.5627  -34.8926   22.4661 O   0  0  0  0  0  0
  -23.5421  -32.1395   23.7354 O   0  0  0  0  0  0
  -28.2648  -21.6158   20.3771 C   0  0  0  0  0  0
  -30.1983  -23.4991   20.2669 C   0  0  0  0  0  0
  -29.6168  -21.2417   20.6237 C   0  0  0  0  0  0
  -28.8563  -23.8737   19.9923 C   0  0  0  0  0  0
  -30.1276  -19.8244   21.0876 C   0  0  0  0  0  0
  -28.5018  -25.2694   19.3502 C   0  0  0  0  0  0
  -29.5457  -18.4303   20.5810 C   0  0  0  0  0  0
  -30.4342  -17.1666   21.0013 C   0  0  0  0  0  0
  -30.5697  -22.2182   20.5769 N   0  0  0  0  0  0
  -27.8919  -22.9025   20.0581 N   0  0  0  0  0  0
  -29.9198  -15.7600   20.8089 N   0  0  0  0  0  0
  -31.4695  -12.5073   19.1541 H   0  0  0  0  0  0
  -30.3488  -11.4112   19.9143 H   0  0  0  0  0  0
  -29.7664  -11.7406   17.4875 H   0  0  0  0  0  0
  -29.6425  -13.4649   17.7338 H   0  0  0  0  0  0
  -27.8725  -11.2869   18.8894 H   0  0  0  0  0  0
  -27.3683  -12.5502   17.7990 H   0  0  0  0  0  0
  -27.6565  -14.2527   19.4989 H   0  0  0  0  0  0
  -28.7065  -12.1092   21.4113 H   0  0  0  0  0  0
  -28.4424  -13.7850   21.8136 H   0  0  0  0  0  0
  -25.2758   -9.5685   22.4764 H   0  0  0  0  0  0
  -23.9997   -7.4635   22.7476 H   0  0  0  0  0  0
  -21.0839   -8.8764   19.8954 H   0  0  0  0  0  0
  -22.3688  -10.9667   19.6166 H   0  0  0  0  0  0
  -21.2006   -7.6147   23.9704 H   0  0  0  0  0  0
  -21.1486   -6.0526   25.9071 H   0  0  0  0  0  0
  -22.0598   -2.7605   23.2848 H   0  0  0  0  0  0
  -22.4112  -11.9856   22.4771 H   0  0  0  0  0  0
  -21.1117  -13.1235   22.2654 H   0  0  0  0  0  0
  -24.6574  -15.8449   20.5155 H   0  0  0  0  0  0
  -26.2738  -15.6281   20.0758 H   0  0  0  0  0  0
  -26.7178  -32.5442   23.1097 H   0  0  0  0  0  0
  -25.0105  -33.9746   25.0433 H   0  0  0  0  0  0
  -22.7132  -31.3064   21.4036 H   0  0  0  0  0  0
  -23.3758  -35.9617   23.3296 H   0  0  0  0  0  0
  -24.3586  -36.8913   22.2055 H   0  0  0  0  0  0
  -23.7230  -37.6486   23.6666 H   0  0  0  0  0  0
  -26.0920  -31.5551   20.6054 H   0  0  0  0  0  0
  -26.8419  -30.8389   22.0007 H   0  0  0  0  0  0
  -28.1100  -28.9804   21.1844 H   0  0  0  0  0  0
  -25.9076  -25.9073   19.0621 H   0  0  0  0  0  0
  -23.9541  -27.2996   19.0430 H   0  0  0  0  0  0
  -23.7559  -30.6026   19.4050 H   0  0  0  0  0  0
  -22.7517  -29.2568   19.8531 H   0  0  0  0  0  0
  -25.1293  -36.1930   25.0816 H   0  0  0  0  0  0
  -20.9984  -28.3257   24.1405 H   0  0  0  0  0  0
  -20.5693  -26.2299   23.3608 H   0  0  0  0  0  0
  -21.6647  -26.7454   22.1191 H   0  0  0  0  0  0
  -19.6926  -25.6296   21.1249 H   0  0  0  0  0  0
  -19.6697  -27.3201   20.6750 H   0  0  0  0  0  0
  -17.4205  -26.6693   21.4022 H   0  0  0  0  0  0
  -18.0329  -26.0077   22.9013 H   0  0  0  0  0  0
  -19.7942  -30.7286   24.2258 H   0  0  0  0  0  0
  -17.5022  -31.6272   24.5174 H   0  0  0  0  0  0
  -15.5361  -30.3001   23.7661 H   0  0  0  0  0  0
  -15.8670  -28.0843   22.7056 H   0  0  0  0  0  0
  -24.5903  -30.7084   25.7780 H   0  0  0  0  0  0
  -24.8907  -32.2914   26.4857 H   0  0  0  0  0  0
  -25.8043  -30.8935   27.0236 H   0  0  0  0  0  0
  -26.2907  -29.6790   24.1185 H   0  0  0  0  0  0
  -27.4044  -29.7275   25.4657 H   0  0  0  0  0  0
  -27.8770  -30.4335   23.9383 H   0  0  0  0  0  0
  -27.2660  -33.3642   26.2062 H   0  0  0  0  0  0
  -28.3868  -32.6883   25.0333 H   0  0  0  0  0  0
  -28.0709  -31.8470   26.5423 H   0  0  0  0  0  0
  -28.2576  -38.0115   24.7530 H   0  0  0  0  0  0
  -28.1090  -36.2643   24.6252 H   0  0  0  0  0  0
  -27.2306  -37.1394   25.8868 H   0  0  0  0  0  0
  -20.9368  -29.8783   21.6902 H   0  0  0  0  0  0
  -26.0163  -38.2848   24.1438 H   0  0  0  0  0  0
  -27.4736  -20.8828   20.4402 H   0  0  0  0  0  0
  -30.9957  -24.2225   20.1772 H   0  0  0  0  0  0
  -30.0718  -19.8273   22.1763 H   0  0  0  0  0  0
  -31.1958  -19.8078   20.8675 H   0  0  0  0  0  0
  -27.7001  -25.1115   18.6365 H   0  0  0  0  0  0
  -29.3442  -25.4941   18.6954 H   0  0  0  0  0  0
  -29.4644  -18.4537   19.4939 H   0  0  0  0  0  0
  -28.5303  -18.3140   20.9611 H   0  0  0  0  0  0
  -30.6592  -17.2560   22.0649 H   0  0  0  0  0  0
  -31.4001  -17.2594   20.5015 H   0  0  0  0  0  0
  -28.9450  -15.6005   21.0158 H   0  0  0  0  0  0
  1 25  1  0  0  0
  1 30  2  0  0  0
  1 81  1  0  0  0
  2  3  1  0  0  0
  2 25  1  0  0  0
  2 82  1  0  0  0
  2 83  1  0  0  0
  3  4  1  0  0  0
  3 84  1  0  0  0
  3 85  1  0  0  0
  4  5  1  0  0  0
  4 86  1  0  0  0
  4 87  1  0  0  0
  5  6  1  0  0  0
  5 26  1  0  0  0
  5 88  1  0  0  0
  6 25  1  0  0  0
  6 89  1  0  0  0
  6 90  1  0  0  0
  7  8  2  0  0  0
  7 26  1  0  0  0
  7 29  1  0  0  0
  8  9  1  0  0  0
  8 22  1  0  0  0
  9 10  1  0  0  0
  9 27  2  0  0  0
 10 11  2  0  0  0
 10 15  1  0  0  0
 11 12  1  0  0  0
 11 91  1  0  0  0
 12 13  2  0  0  0
 12 92  1  0  0  0
 13 14  1  0  0  0
 13 31  1  0  0  0
 14 15  2  0  0  0
 14 93  1  0  0  0
 15 94  1  0  0  0
 16 17  2  0  0  0
 16 21  1  0  0  0
 16 31  1  0  0  0
 17 18  1  0  0  0
 17 95  1  0  0  0
 18 19  2  0  0  0
 18 96  1  0  0  0
 19 20  1  0  0  0
 19 24  1  0  0  0
 20 21  2  0  0  0
 20 97  1  0  0  0
 21 23  1  0  0  0
 22 28  1  0  0  0
 22 32  2  0  0  0
 26 27  1  0  0  0
 28 98  1  0  0  0
 28 99  1  0  0  0
 29100  1  0  0  0
 29101  1  0  0  0
 33 34  1  0  0  0
 33 66  1  0  0  0
 33 70  2  0  0  0
 34 36  1  0  0  0
 34 59  1  0  0  0
 34102  1  0  0  0
 35 44  2  0  0  0
 35 45  1  0  0  0
 35 68  1  0  0  0
 36 56  1  0  0  0
 36103  1  0  0  0
 37 39  1  0  0  0
 37 47  1  0  0  0
 37 66  1  0  0  0
 37104  1  0  0  0
 38 43  2  0  0  0
 38 46  1  0  0  0
 38 47  1  0  0  0
 39 64  1  0  0  0
 39 67  2  0  0  0
 40 52  1  0  0  0
 40 53  2  0  0  0
 40 58  1  0  0  0
 41105  1  0  0  0
 41106  1  0  0  0
 41107  1  0  0  0
 41 48  1  0  0  0
 42 43  1  0  0  0
 42 66  1  0  0  0
 42108  1  0  0  0
 42109  1  0  0  0
 43 44  1  0  0  0
 44110  1  0  0  0
 45 46  2  0  0  0
 45111  1  0  0  0
 46112  1  0  0  0
 47113  1  0  0  0
 47114  1  0  0  0
 48 56  1  0  0  0
 48 65  1  0  0  0
 48115  1  0  0  0
 49 50  1  0  0  0
 49 53  1  0  0  0
 49 64  1  0  0  0
 49116  1  0  0  0
 50 51  1  0  0  0
 50117  1  0  0  0
 50118  1  0  0  0
 51 52  1  0  0  0
 51119  1  0  0  0
 51120  1  0  0  0
 52121  1  0  0  0
 52122  1  0  0  0
 53 54  1  0  0  0
 54 55  2  0  0  0
 54123  1  0  0  0
 55 57  1  0  0  0
 55124  1  0  0  0
 56 69  2  0  0  0
 57 58  2  0  0  0
 57125  1  0  0  0
 58126  1  0  0  0
 59 60  1  0  0  0
 59 61  1  0  0  0
 59 62  1  0  0  0
 60127  1  0  0  0
 60128  1  0  0  0
 60129  1  0  0  0
 61130  1  0  0  0
 61131  1  0  0  0
 61132  1  0  0  0
 62133  1  0  0  0
 62134  1  0  0  0
 62135  1  0  0  0
 63 65  1  0  0  0
 63136  1  0  0  0
 63137  1  0  0  0
 63138  1  0  0  0
 64139  1  0  0  0
 65140  1  0  0  0
 68 76  1  0  0  0
 71 73  2  0  0  0
 71 80  1  0  0  0
 71141  1  0  0  0
 72 74  1  0  0  0
 72 79  2  0  0  0
 72142  1  0  0  0
 73 75  1  0  0  0
 73 79  1  0  0  0
 74 76  1  0  0  0
 74 80  2  0  0  0
 75 77  1  0  0  0
 75143  1  0  0  0
 75144  1  0  0  0
 76145  1  0  0  0
 76146  1  0  0  0
 77 78  1  0  0  0
 77147  1  0  0  0
 77148  1  0  0  0
 78 81  1  0  0  0
 78149  1  0  0  0
 78150  1  0  0  0
 81151  1  0  0  0
M  ISO  4   1 100  68 101  76 101  81 100
M  END
> <chiral flag>
0

> <version>
0

> <s_m_source_file>
/data/baiqing/PycharmProjects/Reinvent-master-3.2/result/LINK_invent/BTK/process_docking_weight1_custom_sum_contain_oxygen_bond_distance_aromatic_linkinvent_7_9_3/rearranged_h_0048.sdf

> <i_m_source_file_index>
38

> <r_mmod_Potential_Energy-OPLS-2005>
148.533905029297

> <r_mmod_Stretch_Energy-OPLS-2005>
84.6168823242188

> <r_mmod_Bend_Energy-OPLS-2005>
156.855438232422

> <r_mmod_Torsional_Energy-OPLS-2005>
208.280715942383

> <r_mmod_Improper_Torsional_Energy-OPLS-2005>
5.77239274978638

> <r_mmod_Van_der_Waal_Energy-OPLS-2005>
148.69807434082

> <r_mmod_Electrostatic_Energy-OPLS-2005>
-276.701629638672

> <r_mmod_Solvation_Energy-OPLS-2005>
-229.116882324219

> <b_mmod_Minimization_Converged-OPLS-2005>
0

> <r_mmod_RMS_Derivative-OPLS-2005>
0.876395583152771

$$$$
39
                    3D
 Structure written by MMmdl.
146154  0  0  1  0            999 V2000
  -30.2228  -15.7225   20.3148 C   0  0  0  0  0  0
  -30.4347  -13.1305   19.5630 C   0  0  0  0  0  0
  -29.5682  -12.6838   18.3443 C   0  0  0  0  0  0
  -28.1420  -12.3078   18.7766 C   0  0  0  0  0  0
  -27.5980  -13.3166   19.8109 C   0  0  2  0  0  0
  -28.6037  -13.6654   20.9327 C   0  0  0  0  0  0
  -25.2334  -13.8295   20.5783 C   0  0  0  0  0  0
  -24.1726  -13.0435   20.9269 C   0  0  0  0  0  0
  -24.6435  -11.6948   20.8737 C   0  0  0  0  0  0
  -23.9134  -10.4293   21.0379 C   0  0  0  0  0  0
  -24.3663   -9.4208   21.9169 C   0  0  0  0  0  0
  -23.6320   -8.2253   22.0751 C   0  0  0  0  0  0
  -22.4300   -8.0290   21.3544 C   0  0  0  0  0  0
  -21.9947   -9.0264   20.4643 C   0  0  0  0  0  0
  -22.7293  -10.2133   20.3041 C   0  0  0  0  0  0
  -21.6864   -6.0743   22.5279 C   0  0  0  0  0  0
  -21.4021   -6.5643   23.8213 C   0  0  0  0  0  0
  -21.3661   -5.6793   24.9174 C   0  0  0  0  0  0
  -21.6044   -4.3056   24.7223 C   0  0  0  0  0  0
  -21.8818   -3.8151   23.4343 C   0  0  0  0  0  0
  -21.9195   -4.6969   22.3400 C   0  0  0  0  0  0
  -22.7735  -13.5159   21.1916 C   0  0  0  0  0  0
  -22.1662   -4.2154   21.0975 F   0  0  0  0  0  0
  -21.5628   -3.4538   25.7735 F   0  0  0  0  0  0
  -29.7848  -14.3109   20.3055 N   0  0  0  0  0  0
  -26.2789  -12.9642   20.3196 N   0  0  0  0  0  0
  -25.9386  -11.6705   20.5658 N   0  0  0  0  0  0
  -22.0402  -12.8132   22.0468 N   0  0  0  0  0  0
  -25.3935  -15.2040   20.4267 N   0  0  0  0  0  0
  -31.4554  -15.6869   20.1110 O   0  0  0  0  0  0
  -21.6653   -6.8892   21.4243 O   0  0  0  0  0  0
  -22.3404  -14.5459   20.6760 O   0  0  0  0  0  0
  -24.6909  -31.7919   23.1450 C   0  0  0  0  0  0
  -25.9454  -32.4426   23.8026 C   0  0  1  0  0  0
  -27.2326  -26.6323   20.2226 C   0  0  0  0  0  0
  -25.6005  -33.8255   24.1909 N   0  0  0  0  0  0
  -23.5207  -30.3902   21.5009 C   0  0  2  0  0  0
  -24.9803  -28.7165   20.1205 C   0  0  0  0  0  0
  -22.7799  -29.4272   22.4689 C   0  0  0  0  0  0
  -18.0344  -28.1427   22.8454 C   0  0  0  0  0  0
  -24.1494  -36.7133   23.2655 C   0  0  0  0  0  0
  -26.1046  -30.5015   21.4206 C   0  0  0  0  0  0
  -26.1709  -29.0584   20.7726 C   0  0  0  0  0  0
  -27.2788  -28.0469   20.7887 C   0  0  0  0  0  0
  -26.0079  -26.5189   19.5111 C   0  0  0  0  0  0
  -24.9422  -27.4732   19.4651 C   0  0  0  0  0  0
  -23.7794  -29.6803   20.1396 C   0  0  0  0  0  0
  -25.4146  -36.2869   24.0278 C   0  0  1  0  0  0
  -20.5984  -28.3791   23.1128 C   0  0  2  0  0  0
  -20.6807  -26.9443   22.5405 C   0  0  0  0  0  0
  -19.5782  -26.6370   21.5218 C   0  0  0  0  0  0
  -18.1965  -26.7953   22.1619 C   0  0  0  0  0  0
  -19.1613  -28.8935   23.2769 C   0  0  0  0  0  0
  -18.9517  -30.1516   23.8817 C   0  0  0  0  0  0
  -17.6506  -30.6608   24.0550 C   0  0  0  0  0  0
  -25.9132  -34.9262   23.4935 C   0  0  0  0  0  0
  -16.5396  -29.9087   23.6355 C   0  0  0  0  0  0
  -16.7324  -28.6512   23.0371 C   0  0  0  0  0  0
  -26.4608  -31.6489   25.0677 C   0  0  0  0  0  0
  -25.3654  -31.3833   26.1280 C   0  0  0  0  0  0
  -27.0549  -30.2818   24.6627 C   0  0  0  0  0  0
  -27.6049  -32.4362   25.7493 C   0  0  0  0  0  0
  -27.5559  -37.1724   24.8468 C   0  0  0  0  0  0
  -21.4439  -29.3025   22.3438 N   0  0  0  0  0  0
  -26.4266  -37.3639   23.9409 N   0  0  0  0  0  0
  -24.7963  -30.9291   22.0746 N   0  0  0  0  0  0
  -23.4208  -28.7884   23.3068 O   0  0  0  0  0  0
  -28.1806  -25.3755   20.2948 O   0  0  0  0  0  0
  -26.5779  -34.8856   22.4557 O   0  0  0  0  0  0
  -23.5912  -32.1028   23.6355 O   0  0  0  0  0  0
  -28.3030  -20.4051   20.2755 C   0  0  0  0  0  0
  -28.7113  -21.8709   20.2727 C   0  0  0  0  0  0
  -30.4009  -20.1020   20.3776 C   0  0  0  0  0  0
  -31.8097  -19.6155   20.4634 C   0  0  0  0  0  0
  -27.9053  -23.6094   20.1629 C   0  0  0  0  0  0
  -29.2784  -17.3783   20.4508 C   0  0  0  0  0  0
  -29.3229  -19.2522   20.3365 N   0  0  0  0  0  0
  -30.0675  -21.4796   20.3338 N   0  3  0  0  0  0
  -31.4249  -13.4065   19.1993 H   0  0  0  0  0  0
  -30.6085  -12.2917   20.2392 H   0  0  0  0  0  0
  -30.0383  -11.8470   17.8264 H   0  0  0  0  0  0
  -29.5223  -13.5027   17.6251 H   0  0  0  0  0  0
  -28.1775  -11.3132   19.2231 H   0  0  0  0  0  0
  -27.4801  -12.2365   17.9127 H   0  0  0  0  0  0
  -27.4569  -14.2337   19.2372 H   0  0  0  0  0  0
  -28.8674  -12.7877   21.5250 H   0  0  0  0  0  0
  -28.1520  -14.3748   21.6276 H   0  0  0  0  0  0
  -25.2802   -9.5682   22.4755 H   0  0  0  0  0  0
  -24.0018   -7.4648   22.7479 H   0  0  0  0  0  0
  -21.0875   -8.8792   19.8953 H   0  0  0  0  0  0
  -22.3748  -10.9672   19.6153 H   0  0  0  0  0  0
  -21.2017   -7.6151   23.9718 H   0  0  0  0  0  0
  -21.1483   -6.0522   25.9076 H   0  0  0  0  0  0
  -22.0596   -2.7613   23.2843 H   0  0  0  0  0  0
  -22.4047  -11.9809   22.4862 H   0  0  0  0  0  0
  -21.1010  -13.1129   22.2671 H   0  0  0  0  0  0
  -24.6230  -15.8527   20.5465 H   0  0  0  0  0  0
  -26.2397  -15.6500   20.0980 H   0  0  0  0  0  0
  -26.7542  -32.4882   23.0742 H   0  0  0  0  0  0
  -25.0069  -33.9282   25.0007 H   0  0  0  0  0  0
  -22.8505  -31.2295   21.3038 H   0  0  0  0  0  0
  -23.3776  -35.9441   23.3263 H   0  0  0  0  0  0
  -24.3560  -36.8850   22.2080 H   0  0  0  0  0  0
  -23.7237  -37.6290   23.6770 H   0  0  0  0  0  0
  -26.3142  -31.2210   20.6280 H   0  0  0  0  0  0
  -26.9530  -30.5734   22.0885 H   0  0  0  0  0  0
  -28.1724  -28.3181   21.3330 H   0  0  0  0  0  0
  -25.8280  -25.5823   19.0025 H   0  0  0  0  0  0
  -24.0463  -27.2009   18.9241 H   0  0  0  0  0  0
  -23.9611  -30.4372   19.3757 H   0  0  0  0  0  0
  -22.8830  -29.1503   19.8132 H   0  0  0  0  0  0
  -25.1358  -36.1622   25.0768 H   0  0  0  0  0  0
  -21.0066  -28.3424   24.1254 H   0  0  0  0  0  0
  -20.5667  -26.2417   23.3675 H   0  0  0  0  0  0
  -21.6667  -26.7376   22.1226 H   0  0  0  0  0  0
  -19.6938  -25.6259   21.1301 H   0  0  0  0  0  0
  -19.6728  -27.3136   20.6713 H   0  0  0  0  0  0
  -17.4236  -26.6702   21.4021 H   0  0  0  0  0  0
  -18.0348  -26.0112   22.9030 H   0  0  0  0  0  0
  -19.7992  -30.7355   24.2151 H   0  0  0  0  0  0
  -17.5057  -31.6281   24.5166 H   0  0  0  0  0  0
  -15.5393  -30.2965   23.7725 H   0  0  0  0  0  0
  -15.8725  -28.0804   22.7131 H   0  0  0  0  0  0
  -24.5856  -30.7170   25.7572 H   0  0  0  0  0  0
  -24.8830  -32.3066   26.4495 H   0  0  0  0  0  0
  -25.7808  -30.9125   27.0199 H   0  0  0  0  0  0
  -26.3280  -29.6411   24.1625 H   0  0  0  0  0  0
  -27.3955  -29.7292   25.5395 H   0  0  0  0  0  0
  -27.9268  -30.3927   24.0179 H   0  0  0  0  0  0
  -27.2593  -33.3752   26.1830 H   0  0  0  0  0  0
  -28.3977  -32.6781   25.0400 H   0  0  0  0  0  0
  -28.0586  -31.8651   26.5604 H   0  0  0  0  0  0
  -28.2541  -38.0050   24.7508 H   0  0  0  0  0  0
  -28.1088  -36.2571   24.6301 H   0  0  0  0  0  0
  -27.2274  -37.1365   25.8870 H   0  0  0  0  0  0
  -20.9758  -29.8674   21.6488 H   0  0  0  0  0  0
  -26.0085  -38.2683   24.1423 H   0  0  0  0  0  0
  -27.2673  -20.0981   20.2389 H   0  0  0  0  0  0
  -31.8235  -18.6339   20.9363 H   0  0  0  0  0  0
  -32.3918  -20.3181   21.0594 H   0  0  0  0  0  0
  -32.2146  -19.5511   19.4539 H   0  0  0  0  0  0
  -27.0618  -23.5030   20.8446 H   0  0  0  0  0  0
  -27.4314  -23.5683   19.1824 H   0  0  0  0  0  0
  -28.4509  -17.1572   19.7780 H   0  0  0  0  0  0
  -28.8364  -17.2461   21.4377 H   0  0  0  0  0  0
  -30.7922  -22.1874   20.3467 H   0  0  0  0  0  0
  1 25  1  0  0  0
  1 30  2  0  0  0
  1 76  1  0  0  0
  2  3  1  0  0  0
  2 25  1  0  0  0
  2 79  1  0  0  0
  2 80  1  0  0  0
  3  4  1  0  0  0
  3 81  1  0  0  0
  3 82  1  0  0  0
  4  5  1  0  0  0
  4 83  1  0  0  0
  4 84  1  0  0  0
  5  6  1  0  0  0
  5 26  1  0  0  0
  5 85  1  0  0  0
  6 25  1  0  0  0
  6 86  1  0  0  0
  6 87  1  0  0  0
  7  8  2  0  0  0
  7 26  1  0  0  0
  7 29  1  0  0  0
  8  9  1  0  0  0
  8 22  1  0  0  0
  9 10  1  0  0  0
  9 27  2  0  0  0
 10 11  2  0  0  0
 10 15  1  0  0  0
 11 12  1  0  0  0
 11 88  1  0  0  0
 12 13  2  0  0  0
 12 89  1  0  0  0
 13 14  1  0  0  0
 13 31  1  0  0  0
 14 15  2  0  0  0
 14 90  1  0  0  0
 15 91  1  0  0  0
 16 17  2  0  0  0
 16 21  1  0  0  0
 16 31  1  0  0  0
 17 18  1  0  0  0
 17 92  1  0  0  0
 18 19  2  0  0  0
 18 93  1  0  0  0
 19 20  1  0  0  0
 19 24  1  0  0  0
 20 21  2  0  0  0
 20 94  1  0  0  0
 21 23  1  0  0  0
 22 28  1  0  0  0
 22 32  2  0  0  0
 26 27  1  0  0  0
 28 95  1  0  0  0
 28 96  1  0  0  0
 29 97  1  0  0  0
 29 98  1  0  0  0
 33 34  1  0  0  0
 33 66  1  0  0  0
 33 70  2  0  0  0
 34 36  1  0  0  0
 34 59  1  0  0  0
 34 99  1  0  0  0
 35 44  2  0  0  0
 35 45  1  0  0  0
 35 68  1  0  0  0
 36 56  1  0  0  0
 36100  1  0  0  0
 37 39  1  0  0  0
 37 47  1  0  0  0
 37 66  1  0  0  0
 37101  1  0  0  0
 38 43  2  0  0  0
 38 46  1  0  0  0
 38 47  1  0  0  0
 39 64  1  0  0  0
 39 67  2  0  0  0
 40 52  1  0  0  0
 40 53  2  0  0  0
 40 58  1  0  0  0
 41102  1  0  0  0
 41103  1  0  0  0
 41104  1  0  0  0
 41 48  1  0  0  0
 42 43  1  0  0  0
 42 66  1  0  0  0
 42105  1  0  0  0
 42106  1  0  0  0
 43 44  1  0  0  0
 44107  1  0  0  0
 45 46  2  0  0  0
 45108  1  0  0  0
 46109  1  0  0  0
 47110  1  0  0  0
 47111  1  0  0  0
 48 56  1  0  0  0
 48 65  1  0  0  0
 48112  1  0  0  0
 49 50  1  0  0  0
 49 53  1  0  0  0
 49 64  1  0  0  0
 49113  1  0  0  0
 50 51  1  0  0  0
 50114  1  0  0  0
 50115  1  0  0  0
 51 52  1  0  0  0
 51116  1  0  0  0
 51117  1  0  0  0
 52118  1  0  0  0
 52119  1  0  0  0
 53 54  1  0  0  0
 54 55  2  0  0  0
 54120  1  0  0  0
 55 57  1  0  0  0
 55121  1  0  0  0
 56 69  2  0  0  0
 57 58  2  0  0  0
 57122  1  0  0  0
 58123  1  0  0  0
 59 60  1  0  0  0
 59 61  1  0  0  0
 59 62  1  0  0  0
 60124  1  0  0  0
 60125  1  0  0  0
 60126  1  0  0  0
 61127  1  0  0  0
 61128  1  0  0  0
 61129  1  0  0  0
 62130  1  0  0  0
 62131  1  0  0  0
 62132  1  0  0  0
 63 65  1  0  0  0
 63133  1  0  0  0
 63134  1  0  0  0
 63135  1  0  0  0
 64136  1  0  0  0
 65137  1  0  0  0
 68 75  1  0  0  0
 71 72  2  0  0  0
 71 77  1  0  0  0
 71138  1  0  0  0
 72 75  1  0  0  0
 72 78  1  0  0  0
 73 74  1  0  0  0
 73 77  1  0  0  0
 73 78  2  0  0  0
 74139  1  0  0  0
 74140  1  0  0  0
 74141  1  0  0  0
 75142  1  0  0  0
 75143  1  0  0  0
 76 77  1  0  0  0
 76144  1  0  0  0
 76145  1  0  0  0
 78146  1  0  0  0
M  CHG  1  78   1
M  ISO  4   1 100  68 101  75 101  76 100
M  END
> <chiral flag>
0

> <version>
0

> <s_m_source_file>
/data/baiqing/PycharmProjects/Reinvent-master-3.2/result/LINK_invent/BTK/process_docking_weight1_custom_sum_contain_oxygen_bond_distance_aromatic_linkinvent_7_9_3/rearranged_h_0048.sdf

> <i_m_source_file_index>
39

> <r_mmod_Potential_Energy-OPLS-2005>
2619.23486328125

> <r_mmod_Stretch_Energy-OPLS-2005>
1214.49475097656

> <r_mmod_Bend_Energy-OPLS-2005>
699.709106445312

> <r_mmod_Torsional_Energy-OPLS-2005>
192.324737548828

> <r_mmod_Improper_Torsional_Energy-OPLS-2005>
2.48649907112122

> <r_mmod_Van_der_Waal_Energy-OPLS-2005>
104.385246276855

> <r_mmod_Electrostatic_Energy-OPLS-2005>
-220.508071899414

> <r_mmod_Solvation_Energy-OPLS-2005>
-422.027648925781

> <b_mmod_Minimization_Converged-OPLS-2005>
0

> <r_mmod_RMS_Derivative-OPLS-2005>
0.345165282487869

$$$$
40
                    3D
 Structure written by MMmdl.
155163  0  0  1  0            999 V2000
  -30.6799  -14.5288   20.5337 C   0  0  0  0  0  0
  -30.4244  -12.3315   19.4329 C   0  0  0  0  0  0
  -29.4967  -12.4999   18.2109 C   0  0  0  0  0  0
  -28.0188  -12.3556   18.6245 C   0  0  0  0  0  0
  -27.6570  -13.2111   19.8687 C   0  0  2  0  0  0
  -28.7020  -13.0286   20.9931 C   0  0  0  0  0  0
  -25.2573  -13.8170   20.5675 C   0  0  0  0  0  0
  -24.1825  -13.0442   20.9178 C   0  0  0  0  0  0
  -24.6383  -11.6905   20.8730 C   0  0  0  0  0  0
  -23.9049  -10.4286   21.0391 C   0  0  0  0  0  0
  -24.3604   -9.4210   21.9177 C   0  0  0  0  0  0
  -23.6286   -8.2241   22.0754 C   0  0  0  0  0  0
  -22.4269   -8.0273   21.3544 C   0  0  0  0  0  0
  -21.9893   -9.0241   20.4651 C   0  0  0  0  0  0
  -22.7212  -10.2124   20.3052 C   0  0  0  0  0  0
  -21.6863   -6.0727   22.5275 C   0  0  0  0  0  0
  -21.4016   -6.5631   23.8204 C   0  0  0  0  0  0
  -21.3659   -5.6790   24.9169 C   0  0  0  0  0  0
  -21.6050   -4.3050   24.7227 C   0  0  0  0  0  0
  -21.8823   -3.8139   23.4352 C   0  0  0  0  0  0
  -21.9193   -4.6951   22.3405 C   0  0  0  0  0  0
  -22.7847  -13.5231   21.1839 C   0  0  0  0  0  0
  -22.1662   -4.2135   21.0984 F   0  0  0  0  0  0
  -21.5633   -3.4536   25.7743 F   0  0  0  0  0  0
  -30.0251  -13.3379   20.4319 N   0  0  0  0  0  0
  -26.3002  -12.9343   20.3342 N   0  0  0  0  0  0
  -25.9310  -11.6498   20.5754 N   0  0  0  0  0  0
  -22.0502  -12.8215   22.0399 N   0  0  0  0  0  0
  -25.4294  -15.1888   20.4085 N   0  0  0  0  0  0
  -31.8304  -14.6882   20.1185 O   0  0  0  0  0  0
  -21.6654   -6.8859   21.4232 O   0  0  0  0  0  0
  -22.3520  -14.5533   20.6682 O   0  0  0  0  0  0
  -24.6205  -31.8655   23.2077 C   0  0  0  0  0  0
  -25.9083  -32.4802   23.8383 C   0  0  1  0  0  0
  -27.2220  -27.3815   20.1065 C   0  0  0  0  0  0
  -25.5926  -33.8602   24.2314 N   0  0  0  0  0  0
  -23.4101  -30.4922   21.5485 C   0  0  2  0  0  0
  -24.8547  -28.9583   20.1096 C   0  0  0  0  0  0
  -22.7439  -29.4661   22.4951 C   0  0  0  0  0  0
  -18.0286  -28.1375   22.8496 C   0  0  0  0  0  0
  -24.1492  -36.7308   23.2636 C   0  0  0  0  0  0
  -25.9460  -30.8162   21.3695 C   0  0  0  0  0  0
  -26.0203  -29.4496   20.7109 C   0  0  0  0  0  0
  -27.2083  -28.6717   20.7011 C   0  0  0  0  0  0
  -26.0347  -26.9288   19.4831 C   0  0  0  0  0  0
  -24.8604  -27.7008   19.4891 C   0  0  0  0  0  0
  -23.6205  -29.8310   20.1614 C   0  0  0  0  0  0
  -25.4111  -36.3099   24.0334 C   0  0  1  0  0  0
  -20.5882  -28.3679   23.1295 C   0  0  2  0  0  0
  -20.6778  -26.9407   22.5410 C   0  0  0  0  0  0
  -19.5750  -26.6384   21.5214 C   0  0  0  0  0  0
  -18.1931  -26.7923   22.1628 C   0  0  0  0  0  0
  -19.1537  -28.8841   23.2897 C   0  0  0  0  0  0
  -18.9460  -30.1445   23.8910 C   0  0  0  0  0  0
  -17.6460  -30.6581   24.0565 C   0  0  0  0  0  0
  -25.9041  -34.9464   23.5121 C   0  0  0  0  0  0
  -16.5353  -29.9082   23.6322 C   0  0  0  0  0  0
  -16.7274  -28.6498   23.0348 C   0  0  0  0  0  0
  -26.4490  -31.6587   25.0723 C   0  0  0  0  0  0
  -25.3747  -31.3709   26.1465 C   0  0  0  0  0  0
  -27.0316  -30.3016   24.6130 C   0  0  0  0  0  0
  -27.6059  -32.4308   25.7494 C   0  0  0  0  0  0
  -27.5583  -37.1807   24.8460 C   0  0  0  0  0  0
  -21.4160  -29.3048   22.3693 N   0  0  0  0  0  0
  -26.4292  -37.3786   23.9408 N   0  0  0  0  0  0
  -24.6774  -31.0729   22.0994 N   0  0  0  0  0  0
  -23.4195  -28.8196   23.3000 O   0  0  0  0  0  0
  -28.3567  -26.5764   20.1559 O   0  0  0  0  0  0
  -26.5599  -34.8922   22.4678 O   0  0  0  0  0  0
  -23.5386  -32.1430   23.7442 O   0  0  0  0  0  0
  -29.0581  -21.9873   18.5740 C   0  0  0  0  0  0
  -29.4199  -20.4150   19.9033 C   0  0  0  0  0  0
  -29.6637  -19.5694   21.1441 C   0  0  0  0  0  0
  -29.2273  -18.0578   21.0796 C   0  0  0  0  0  0
  -29.3229  -24.2612   20.6424 C   0  0  0  0  0  0
  -29.0199  -22.7510   20.9834 C   0  0  0  0  0  0
  -30.3712  -17.0105   20.8758 C   0  0  0  0  0  0
  -28.1271  -25.1368   20.1562 C   0  0  0  0  0  0
  -29.2606  -20.9231   17.7955 N   0  0  0  0  0  0
  -29.5213  -19.8949   18.6700 N   0  0  0  0  0  0
  -29.1754  -21.7657   19.8951 N   0  0  0  0  0  0
  -29.9405  -15.5901   20.9367 N   0  0  0  0  0  0
  -31.4691  -12.4315   19.1315 H   0  0  0  0  0  0
  -30.3315  -11.3288   19.8515 H   0  0  0  0  0  0
  -29.7440  -11.7654   17.4435 H   0  0  0  0  0  0
  -29.6564  -13.4796   17.7577 H   0  0  0  0  0  0
  -27.8321  -11.3009   18.8326 H   0  0  0  0  0  0
  -27.3701  -12.6186   17.7883 H   0  0  0  0  0  0
  -27.6874  -14.2526   19.5480 H   0  0  0  0  0  0
  -28.6908  -12.0016   21.3615 H   0  0  0  0  0  0
  -28.4662  -13.6541   21.8551 H   0  0  0  0  0  0
  -25.2750   -9.5700   22.4746 H   0  0  0  0  0  0
  -24.0013   -7.4636   22.7465 H   0  0  0  0  0  0
  -21.0833   -8.8734   19.8953 H   0  0  0  0  0  0
  -22.3655  -10.9653   19.6160 H   0  0  0  0  0  0
  -21.2008   -7.6141   23.9697 H   0  0  0  0  0  0
  -21.1485   -6.0527   25.9069 H   0  0  0  0  0  0
  -22.0606   -2.7598   23.2858 H   0  0  0  0  0  0
  -22.4128  -11.9886   22.4805 H   0  0  0  0  0  0
  -21.1116  -13.1217   22.2608 H   0  0  0  0  0  0
  -24.6621  -15.8434   20.5170 H   0  0  0  0  0  0
  -26.2802  -15.6264   20.0770 H   0  0  0  0  0  0
  -26.7150  -32.5495   23.1138 H   0  0  0  0  0  0
  -25.0093  -33.9760   25.0473 H   0  0  0  0  0  0
  -22.7012  -31.3112   21.4097 H   0  0  0  0  0  0
  -23.3747  -35.9649   23.3304 H   0  0  0  0  0  0
  -24.3588  -36.8918   22.2048 H   0  0  0  0  0  0
  -23.7255  -37.6520   23.6645 H   0  0  0  0  0  0
  -26.0698  -31.5835   20.6041 H   0  0  0  0  0  0
  -26.8295  -30.8632   21.9944 H   0  0  0  0  0  0
  -28.1035  -29.0432   21.1798 H   0  0  0  0  0  0
  -25.9864  -25.9697   18.9895 H   0  0  0  0  0  0
  -23.9672  -27.3190   19.0141 H   0  0  0  0  0  0
  -23.7334  -30.6094   19.4058 H   0  0  0  0  0  0
  -22.7421  -29.2571   19.8604 H   0  0  0  0  0  0
  -25.1288  -36.1959   25.0826 H   0  0  0  0  0  0
  -20.9985  -28.3252   24.1411 H   0  0  0  0  0  0
  -20.5688  -26.2287   23.3608 H   0  0  0  0  0  0
  -21.6647  -26.7447   22.1193 H   0  0  0  0  0  0
  -19.6913  -25.6298   21.1236 H   0  0  0  0  0  0
  -19.6683  -27.3204   20.6750 H   0  0  0  0  0  0
  -17.4202  -26.6680   21.4029 H   0  0  0  0  0  0
  -18.0327  -26.0058   22.9014 H   0  0  0  0  0  0
  -19.7933  -30.7262   24.2284 H   0  0  0  0  0  0
  -17.5011  -31.6261   24.5165 H   0  0  0  0  0  0
  -15.5352  -30.2987   23.7631 H   0  0  0  0  0  0
  -15.8677  -28.0817   22.7054 H   0  0  0  0  0  0
  -24.5920  -30.7055   25.7806 H   0  0  0  0  0  0
  -24.8941  -32.2869   26.4906 H   0  0  0  0  0  0
  -25.8096  -30.8883   27.0227 H   0  0  0  0  0  0
  -26.2869  -29.6781   24.1168 H   0  0  0  0  0  0
  -27.4048  -29.7250   25.4605 H   0  0  0  0  0  0
  -27.8726  -30.4309   23.9314 H   0  0  0  0  0  0
  -27.2670  -33.3594   26.2098 H   0  0  0  0  0  0
  -28.3860  -32.6892   25.0321 H   0  0  0  0  0  0
  -28.0738  -31.8416   26.5391 H   0  0  0  0  0  0
  -28.2592  -38.0111   24.7513 H   0  0  0  0  0  0
  -28.1088  -36.2643   24.6275 H   0  0  0  0  0  0
  -27.2304  -37.1443   25.8863 H   0  0  0  0  0  0
  -20.9320  -29.8781   21.6925 H   0  0  0  0  0  0
  -26.0180  -38.2864   24.1408 H   0  0  0  0  0  0
  -28.8310  -22.9586   18.1589 H   0  0  0  0  0  0
  -29.1160  -20.0379   21.9614 H   0  0  0  0  0  0
  -30.7162  -19.6489   21.4186 H   0  0  0  0  0  0
  -28.4423  -17.9255   20.3338 H   0  0  0  0  0  0
  -28.7530  -17.8215   22.0328 H   0  0  0  0  0  0
  -30.1566  -24.3378   19.9438 H   0  0  0  0  0  0
  -29.6835  -24.7233   21.5619 H   0  0  0  0  0  0
  -28.0160  -22.6522   21.3990 H   0  0  0  0  0  0
  -29.6983  -22.4457   21.7805 H   0  0  0  0  0  0
  -31.1353  -17.1600   21.6394 H   0  0  0  0  0  0
  -30.8595  -17.1982   19.9178 H   0  0  0  0  0  0
  -27.2773  -24.9210   20.8075 H   0  0  0  0  0  0
  -27.8473  -24.8156   19.1534 H   0  0  0  0  0  0
  -28.9980  -15.3953   21.2406 H   0  0  0  0  0  0
  1 25  1  0  0  0
  1 30  2  0  0  0
  1 82  1  0  0  0
  2  3  1  0  0  0
  2 25  1  0  0  0
  2 83  1  0  0  0
  2 84  1  0  0  0
  3  4  1  0  0  0
  3 85  1  0  0  0
  3 86  1  0  0  0
  4  5  1  0  0  0
  4 87  1  0  0  0
  4 88  1  0  0  0
  5  6  1  0  0  0
  5 26  1  0  0  0
  5 89  1  0  0  0
  6 25  1  0  0  0
  6 90  1  0  0  0
  6 91  1  0  0  0
  7  8  2  0  0  0
  7 26  1  0  0  0
  7 29  1  0  0  0
  8  9  1  0  0  0
  8 22  1  0  0  0
  9 10  1  0  0  0
  9 27  2  0  0  0
 10 11  2  0  0  0
 10 15  1  0  0  0
 11 12  1  0  0  0
 11 92  1  0  0  0
 12 13  2  0  0  0
 12 93  1  0  0  0
 13 14  1  0  0  0
 13 31  1  0  0  0
 14 15  2  0  0  0
 14 94  1  0  0  0
 15 95  1  0  0  0
 16 17  2  0  0  0
 16 21  1  0  0  0
 16 31  1  0  0  0
 17 18  1  0  0  0
 17 96  1  0  0  0
 18 19  2  0  0  0
 18 97  1  0  0  0
 19 20  1  0  0  0
 19 24  1  0  0  0
 20 21  2  0  0  0
 20 98  1  0  0  0
 21 23  1  0  0  0
 22 28  1  0  0  0
 22 32  2  0  0  0
 26 27  1  0  0  0
 28 99  1  0  0  0
 28100  1  0  0  0
 29101  1  0  0  0
 29102  1  0  0  0
 33 34  1  0  0  0
 33 66  1  0  0  0
 33 70  2  0  0  0
 34 36  1  0  0  0
 34 59  1  0  0  0
 34103  1  0  0  0
 35 44  2  0  0  0
 35 45  1  0  0  0
 35 68  1  0  0  0
 36 56  1  0  0  0
 36104  1  0  0  0
 37 39  1  0  0  0
 37 47  1  0  0  0
 37 66  1  0  0  0
 37105  1  0  0  0
 38 43  2  0  0  0
 38 46  1  0  0  0
 38 47  1  0  0  0
 39 64  1  0  0  0
 39 67  2  0  0  0
 40 52  1  0  0  0
 40 53  2  0  0  0
 40 58  1  0  0  0
 41106  1  0  0  0
 41107  1  0  0  0
 41108  1  0  0  0
 41 48  1  0  0  0
 42 43  1  0  0  0
 42 66  1  0  0  0
 42109  1  0  0  0
 42110  1  0  0  0
 43 44  1  0  0  0
 44111  1  0  0  0
 45 46  2  0  0  0
 45112  1  0  0  0
 46113  1  0  0  0
 47114  1  0  0  0
 47115  1  0  0  0
 48 56  1  0  0  0
 48 65  1  0  0  0
 48116  1  0  0  0
 49 50  1  0  0  0
 49 53  1  0  0  0
 49 64  1  0  0  0
 49117  1  0  0  0
 50 51  1  0  0  0
 50118  1  0  0  0
 50119  1  0  0  0
 51 52  1  0  0  0
 51120  1  0  0  0
 51121  1  0  0  0
 52122  1  0  0  0
 52123  1  0  0  0
 53 54  1  0  0  0
 54 55  2  0  0  0
 54124  1  0  0  0
 55 57  1  0  0  0
 55125  1  0  0  0
 56 69  2  0  0  0
 57 58  2  0  0  0
 57126  1  0  0  0
 58127  1  0  0  0
 59 60  1  0  0  0
 59 61  1  0  0  0
 59 62  1  0  0  0
 60128  1  0  0  0
 60129  1  0  0  0
 60130  1  0  0  0
 61131  1  0  0  0
 61132  1  0  0  0
 61133  1  0  0  0
 62134  1  0  0  0
 62135  1  0  0  0
 62136  1  0  0  0
 63 65  1  0  0  0
 63137  1  0  0  0
 63138  1  0  0  0
 63139  1  0  0  0
 64140  1  0  0  0
 65141  1  0  0  0
 68 78  1  0  0  0
 71 79  2  0  0  0
 71 81  1  0  0  0
 71142  1  0  0  0
 72 73  1  0  0  0
 72 80  2  0  0  0
 72 81  1  0  0  0
 73 74  1  0  0  0
 73143  1  0  0  0
 73144  1  0  0  0
 74 77  1  0  0  0
 74145  1  0  0  0
 74146  1  0  0  0
 75 76  1  0  0  0
 75 78  1  0  0  0
 75147  1  0  0  0
 75148  1  0  0  0
 76 81  1  0  0  0
 76149  1  0  0  0
 76150  1  0  0  0
 77 82  1  0  0  0
 77151  1  0  0  0
 77152  1  0  0  0
 78153  1  0  0  0
 78154  1  0  0  0
 79 80  1  0  0  0
 82155  1  0  0  0
M  ISO  4   1 100  68 101  78 101  82 100
M  END
> <chiral flag>
0

> <version>
0

> <s_m_source_file>
/data/baiqing/PycharmProjects/Reinvent-master-3.2/result/LINK_invent/BTK/process_docking_weight1_custom_sum_contain_oxygen_bond_distance_aromatic_linkinvent_7_9_3/rearranged_h_0048.sdf

> <i_m_source_file_index>
40

> <r_mmod_Potential_Energy-OPLS-2005>
-63.5280418395996

> <r_mmod_Stretch_Energy-OPLS-2005>
50.1389236450195

> <r_mmod_Bend_Energy-OPLS-2005>
115.933738708496

> <r_mmod_Torsional_Energy-OPLS-2005>
229.069473266602

> <r_mmod_Improper_Torsional_Energy-OPLS-2005>
4.49055862426758

> <r_mmod_Van_der_Waal_Energy-OPLS-2005>
127.151962280273

> <r_mmod_Electrostatic_Energy-OPLS-2005>
-365.536163330078

> <r_mmod_Solvation_Energy-OPLS-2005>
-249.178176879883

> <b_mmod_Minimization_Converged-OPLS-2005>
0

> <r_mmod_RMS_Derivative-OPLS-2005>
1.33197128772736

$$$$
41
                    3D
 Structure written by MMmdl.
157165  0  0  1  0            999 V2000
  -30.5254  -14.9903   20.4494 C   0  0  0  0  0  0
  -30.4385  -12.6159   19.5266 C   0  0  0  0  0  0
  -29.5342  -12.5598   18.2728 C   0  0  0  0  0  0
  -28.0614  -12.3397   18.6733 C   0  0  0  0  0  0
  -27.6316  -13.2603   19.8469 C   0  0  2  0  0  0
  -28.6691  -13.2693   20.9904 C   0  0  0  0  0  0
  -25.2438  -13.8251   20.5741 C   0  0  0  0  0  0
  -24.1769  -13.0449   20.9223 C   0  0  0  0  0  0
  -24.6422  -11.6922   20.8766 C   0  0  0  0  0  0
  -23.9122  -10.4283   21.0428 C   0  0  0  0  0  0
  -24.3638   -9.4190   21.9217 C   0  0  0  0  0  0
  -23.6283   -8.2236   22.0771 C   0  0  0  0  0  0
  -22.4259   -8.0283   21.3573 C   0  0  0  0  0  0
  -21.9935   -9.0271   20.4669 C   0  0  0  0  0  0
  -22.7298  -10.2136   20.3083 C   0  0  0  0  0  0
  -21.6823   -6.0732   22.5290 C   0  0  0  0  0  0
  -21.4022   -6.5634   23.8231 C   0  0  0  0  0  0
  -21.3640   -5.6779   24.9185 C   0  0  0  0  0  0
  -21.6050   -4.3047   24.7238 C   0  0  0  0  0  0
  -21.8798   -3.8145   23.4349 C   0  0  0  0  0  0
  -21.9190   -4.6962   22.3413 C   0  0  0  0  0  0
  -22.7798  -13.5189   21.1857 C   0  0  0  0  0  0
  -22.1642   -4.2125   21.0988 F   0  0  0  0  0  0
  -21.5611   -3.4539   25.7759 F   0  0  0  0  0  0
  -29.9435  -13.7156   20.4089 N   0  0  0  0  0  0
  -26.2864  -12.9501   20.3253 N   0  0  0  0  0  0
  -25.9355  -11.6596   20.5750 N   0  0  0  0  0  0
  -22.0398  -12.8237   22.0409 N   0  0  0  0  0  0
  -25.4077  -15.1965   20.4112 N   0  0  0  0  0  0
  -31.7145  -15.0566   20.1125 O   0  0  0  0  0  0
  -21.6604   -6.8881   21.4255 O   0  0  0  0  0  0
  -22.3503  -14.5488   20.6670 O   0  0  0  0  0  0
  -24.6451  -31.8368   23.1844 C   0  0  0  0  0  0
  -25.9213  -32.4662   23.8236 C   0  0  1  0  0  0
  -27.2137  -27.0762   20.1880 C   0  0  0  0  0  0
  -25.5921  -33.8471   24.2111 N   0  0  0  0  0  0
  -23.4552  -30.4527   21.5261 C   0  0  2  0  0  0
  -24.9157  -28.8712   20.1144 C   0  0  0  0  0  0
  -22.7632  -29.4487   22.4813 C   0  0  0  0  0  0
  -18.0375  -28.1372   22.8470 C   0  0  0  0  0  0
  -24.1495  -36.7266   23.2616 C   0  0  0  0  0  0
  -26.0144  -30.6995   21.3874 C   0  0  0  0  0  0
  -26.0906  -29.3023   20.7376 C   0  0  0  0  0  0
  -27.2425  -28.4200   20.7584 C   0  0  0  0  0  0
  -26.0154  -26.7639   19.5143 C   0  0  0  0  0  0
  -24.8934  -27.6153   19.4803 C   0  0  0  0  0  0
  -23.6924  -29.7742   20.1454 C   0  0  0  0  0  0
  -25.4133  -36.2977   24.0255 C   0  0  1  0  0  0
  -20.5962  -28.3724   23.1228 C   0  0  2  0  0  0
  -20.6822  -26.9419   22.5401 C   0  0  0  0  0  0
  -19.5803  -26.6389   21.5189 C   0  0  0  0  0  0
  -18.1989  -26.7942   22.1598 C   0  0  0  0  0  0
  -19.1597  -28.8895   23.2815 C   0  0  0  0  0  0
  -18.9485  -30.1467   23.8884 C   0  0  0  0  0  0
  -17.6456  -30.6561   24.0562 C   0  0  0  0  0  0
  -25.9102  -34.9378   23.5008 C   0  0  0  0  0  0
  -16.5368  -29.9061   23.6278 C   0  0  0  0  0  0
  -16.7340  -28.6443   23.0382 C   0  0  0  0  0  0
  -26.4523  -31.6554   25.0694 C   0  0  0  0  0  0
  -25.3656  -31.3828   26.1322 C   0  0  0  0  0  0
  -27.0319  -30.2905   24.6334 C   0  0  0  0  0  0
  -27.6002  -32.4356   25.7562 C   0  0  0  0  0  0
  -27.5580  -37.1779   24.8446 C   0  0  0  0  0  0
  -21.4326  -29.3027   22.3575 N   0  0  0  0  0  0
  -26.4284  -37.3699   23.9401 N   0  0  0  0  0  0
  -24.7253  -31.0152   22.0886 N   0  0  0  0  0  0
  -23.4243  -28.8030   23.2994 O   0  0  0  0  0  0
  -28.2349  -26.0391   20.2072 O   0  0  0  0  0  0
  -26.5708  -34.8883   22.4574 O   0  0  0  0  0  0
  -23.5576  -32.1256   23.7043 O   0  0  0  0  0  0
  -28.5669  -22.4972   18.9281 C   0  0  0  0  0  0
  -28.5077  -23.0755   20.1832 C   0  0  0  0  0  0
  -29.0023  -20.6874   20.2860 C   0  0  0  0  0  0
  -29.9095  -19.7545   17.1972 C   0  0  0  0  0  0
  -27.5321  -20.6775   16.8820 C   0  0  0  0  0  0
  -27.9206  -24.5615   20.6800 C   0  0  0  0  0  0
  -29.1482  -19.1115   20.8626 C   0  0  0  0  0  0
  -29.9719  -17.7338   20.2453 C   0  0  0  0  0  0
  -28.5880  -20.1612   17.8864 C   0  0  0  0  0  0
  -28.7592  -21.1054   19.0147 N   0  0  0  0  0  0
  -28.8287  -21.9044   20.9707 N   0  3  0  0  0  0
  -29.7650  -16.1893   20.6562 N   0  0  0  0  0  0
  -31.4791  -12.7560   19.2369 H   0  0  0  0  0  0
  -30.4066  -11.6624   20.0508 H   0  0  0  0  0  0
  -29.8606  -11.7612   17.6075 H   0  0  0  0  0  0
  -29.6282  -13.4891   17.7055 H   0  0  0  0  0  0
  -27.9551  -11.2961   18.9619 H   0  0  0  0  0  0
  -27.4046  -12.4887   17.8156 H   0  0  0  0  0  0
  -27.5952  -14.2683   19.4264 H   0  0  0  0  0  0
  -28.7700  -12.2704   21.4192 H   0  0  0  0  0  0
  -28.3590  -13.9248   21.8055 H   0  0  0  0  0  0
  -25.2800   -9.5560   22.4783 H   0  0  0  0  0  0
  -23.9927   -7.4602   22.7521 H   0  0  0  0  0  0
  -21.0840   -8.8845   19.8994 H   0  0  0  0  0  0
  -22.3828  -10.9660   19.6135 H   0  0  0  0  0  0
  -21.2035   -7.6139   23.9720 H   0  0  0  0  0  0
  -21.1470   -6.0524   25.9078 H   0  0  0  0  0  0
  -22.0605   -2.7597   23.2884 H   0  0  0  0  0  0
  -22.4004  -11.9930   22.4869 H   0  0  0  0  0  0
  -21.0993  -13.1297   22.2525 H   0  0  0  0  0  0
  -24.6381  -15.8463   20.5197 H   0  0  0  0  0  0
  -26.2453  -15.6369   20.0548 H   0  0  0  0  0  0
  -26.7303  -32.5295   23.0996 H   0  0  0  0  0  0
  -24.9900  -33.9543   25.0158 H   0  0  0  0  0  0
  -22.7553  -31.2754   21.3658 H   0  0  0  0  0  0
  -23.3711  -35.9639   23.3250 H   0  0  0  0  0  0
  -24.3522  -36.8964   22.2033 H   0  0  0  0  0  0
  -23.7338  -37.6479   23.6714 H   0  0  0  0  0  0
  -26.1713  -31.4442   20.6027 H   0  0  0  0  0  0
  -26.8801  -30.7657   22.0358 H   0  0  0  0  0  0
  -28.1409  -28.7342   21.2747 H   0  0  0  0  0  0
  -25.9241  -25.8014   19.0311 H   0  0  0  0  0  0
  -23.9969  -27.2652   18.9935 H   0  0  0  0  0  0
  -23.8541  -30.5490   19.3934 H   0  0  0  0  0  0
  -22.8094  -29.2155   19.8241 H   0  0  0  0  0  0
  -25.1330  -36.1760   25.0740 H   0  0  0  0  0  0
  -21.0039  -28.3333   24.1354 H   0  0  0  0  0  0
  -20.5709  -26.2313   23.3596 H   0  0  0  0  0  0
  -21.6682  -26.7449   22.1140 H   0  0  0  0  0  0
  -19.6916  -25.6293   21.1222 H   0  0  0  0  0  0
  -19.6747  -27.3215   20.6716 H   0  0  0  0  0  0
  -17.4229  -26.6746   21.4020 H   0  0  0  0  0  0
  -18.0388  -26.0120   22.9027 H   0  0  0  0  0  0
  -19.7955  -30.7307   24.2267 H   0  0  0  0  0  0
  -17.5005  -31.6242   24.5175 H   0  0  0  0  0  0
  -15.5358  -30.2933   23.7571 H   0  0  0  0  0  0
  -15.8779  -28.0689   22.7170 H   0  0  0  0  0  0
  -24.5845  -30.7164   25.7623 H   0  0  0  0  0  0
  -24.8805  -32.3047   26.4541 H   0  0  0  0  0  0
  -25.7780  -30.9117   27.0245 H   0  0  0  0  0  0
  -26.2904  -29.6683   24.1290 H   0  0  0  0  0  0
  -27.3807  -29.7166   25.4925 H   0  0  0  0  0  0
  -27.8896  -30.4067   23.9716 H   0  0  0  0  0  0
  -27.2507  -33.3657   26.2063 H   0  0  0  0  0  0
  -28.3864  -32.6911   25.0462 H   0  0  0  0  0  0
  -28.0598  -31.8552   26.5572 H   0  0  0  0  0  0
  -28.2515  -38.0154   24.7426 H   0  0  0  0  0  0
  -28.1142  -36.2621   24.6312 H   0  0  0  0  0  0
  -27.2252  -37.1504   25.8845 H   0  0  0  0  0  0
  -20.9559  -29.8772   21.6779 H   0  0  0  0  0  0
  -26.0097  -38.2727   24.1445 H   0  0  0  0  0  0
  -28.3602  -22.9672   17.9784 H   0  0  0  0  0  0
  -30.7712  -19.7913   17.8669 H   0  0  0  0  0  0
  -30.1457  -20.3660   16.3221 H   0  0  0  0  0  0
  -29.8201  -18.7220   16.8546 H   0  0  0  0  0  0
  -27.2079  -19.8951   16.1997 H   0  0  0  0  0  0
  -27.9062  -21.5046   16.2769 H   0  0  0  0  0  0
  -26.6365  -21.0483   17.3864 H   0  0  0  0  0  0
  -28.1056  -24.5831   21.7564 H   0  0  0  0  0  0
  -26.8373  -24.4476   20.6111 H   0  0  0  0  0  0
  -28.1114  -18.8041   21.0186 H   0  0  0  0  0  0
  -29.5407  -19.2605   21.8708 H   0  0  0  0  0  0
  -31.0405  -17.9456   20.3094 H   0  0  0  0  0  0
  -29.7830  -17.7197   19.1730 H   0  0  0  0  0  0
  -28.1642  -19.2565   18.3200 H   0  0  0  0  0  0
  -28.8741  -21.9531   21.9799 H   0  0  0  0  0  0
  -28.8462  -15.9890   21.0239 H   0  0  0  0  0  0
  1 25  1  0  0  0
  1 30  2  0  0  0
  1 82  1  0  0  0
  2  3  1  0  0  0
  2 25  1  0  0  0
  2 83  1  0  0  0
  2 84  1  0  0  0
  3  4  1  0  0  0
  3 85  1  0  0  0
  3 86  1  0  0  0
  4  5  1  0  0  0
  4 87  1  0  0  0
  4 88  1  0  0  0
  5  6  1  0  0  0
  5 26  1  0  0  0
  5 89  1  0  0  0
  6 25  1  0  0  0
  6 90  1  0  0  0
  6 91  1  0  0  0
  7  8  2  0  0  0
  7 26  1  0  0  0
  7 29  1  0  0  0
  8  9  1  0  0  0
  8 22  1  0  0  0
  9 10  1  0  0  0
  9 27  2  0  0  0
 10 11  2  0  0  0
 10 15  1  0  0  0
 11 12  1  0  0  0
 11 92  1  0  0  0
 12 13  2  0  0  0
 12 93  1  0  0  0
 13 14  1  0  0  0
 13 31  1  0  0  0
 14 15  2  0  0  0
 14 94  1  0  0  0
 15 95  1  0  0  0
 16 17  2  0  0  0
 16 21  1  0  0  0
 16 31  1  0  0  0
 17 18  1  0  0  0
 17 96  1  0  0  0
 18 19  2  0  0  0
 18 97  1  0  0  0
 19 20  1  0  0  0
 19 24  1  0  0  0
 20 21  2  0  0  0
 20 98  1  0  0  0
 21 23  1  0  0  0
 22 28  1  0  0  0
 22 32  2  0  0  0
 26 27  1  0  0  0
 28 99  1  0  0  0
 28100  1  0  0  0
 29101  1  0  0  0
 29102  1  0  0  0
 33 34  1  0  0  0
 33 66  1  0  0  0
 33 70  2  0  0  0
 34 36  1  0  0  0
 34 59  1  0  0  0
 34103  1  0  0  0
 35 44  2  0  0  0
 35 45  1  0  0  0
 35 68  1  0  0  0
 36 56  1  0  0  0
 36104  1  0  0  0
 37 39  1  0  0  0
 37 47  1  0  0  0
 37 66  1  0  0  0
 37105  1  0  0  0
 38 43  2  0  0  0
 38 46  1  0  0  0
 38 47  1  0  0  0
 39 64  1  0  0  0
 39 67  2  0  0  0
 40 52  1  0  0  0
 40 53  2  0  0  0
 40 58  1  0  0  0
 41106  1  0  0  0
 41107  1  0  0  0
 41108  1  0  0  0
 41 48  1  0  0  0
 42 43  1  0  0  0
 42 66  1  0  0  0
 42109  1  0  0  0
 42110  1  0  0  0
 43 44  1  0  0  0
 44111  1  0  0  0
 45 46  2  0  0  0
 45112  1  0  0  0
 46113  1  0  0  0
 47114  1  0  0  0
 47115  1  0  0  0
 48 56  1  0  0  0
 48 65  1  0  0  0
 48116  1  0  0  0
 49 50  1  0  0  0
 49 53  1  0  0  0
 49 64  1  0  0  0
 49117  1  0  0  0
 50 51  1  0  0  0
 50118  1  0  0  0
 50119  1  0  0  0
 51 52  1  0  0  0
 51120  1  0  0  0
 51121  1  0  0  0
 52122  1  0  0  0
 52123  1  0  0  0
 53 54  1  0  0  0
 54 55  2  0  0  0
 54124  1  0  0  0
 55 57  1  0  0  0
 55125  1  0  0  0
 56 69  2  0  0  0
 57 58  2  0  0  0
 57126  1  0  0  0
 58127  1  0  0  0
 59 60  1  0  0  0
 59 61  1  0  0  0
 59 62  1  0  0  0
 60128  1  0  0  0
 60129  1  0  0  0
 60130  1  0  0  0
 61131  1  0  0  0
 61132  1  0  0  0
 61133  1  0  0  0
 62134  1  0  0  0
 62135  1  0  0  0
 62136  1  0  0  0
 63 65  1  0  0  0
 63137  1  0  0  0
 63138  1  0  0  0
 63139  1  0  0  0
 64140  1  0  0  0
 65141  1  0  0  0
 68 76  1  0  0  0
 71 72  2  0  0  0
 71 80  1  0  0  0
 71142  1  0  0  0
 72 76  1  0  0  0
 72 81  1  0  0  0
 73 77  1  0  0  0
 73 80  1  0  0  0
 73 81  2  0  0  0
 74143  1  0  0  0
 74144  1  0  0  0
 74145  1  0  0  0
 74 79  1  0  0  0
 75 79  1  0  0  0
 75146  1  0  0  0
 75147  1  0  0  0
 75148  1  0  0  0
 76149  1  0  0  0
 76150  1  0  0  0
 77 78  1  0  0  0
 77151  1  0  0  0
 77152  1  0  0  0
 78 82  1  0  0  0
 78153  1  0  0  0
 78154  1  0  0  0
 79 80  1  0  0  0
 79155  1  0  0  0
 81156  1  0  0  0
 82157  1  0  0  0
M  CHG  1  81   1
M  ISO  4   1 100  68 101  76 101  82 100
M  END
> <chiral flag>
0

> <version>
0

> <s_m_source_file>
/data/baiqing/PycharmProjects/Reinvent-master-3.2/result/LINK_invent/BTK/process_docking_weight1_custom_sum_contain_oxygen_bond_distance_aromatic_linkinvent_7_9_3/rearranged_h_0048.sdf

> <i_m_source_file_index>
41

> <r_mmod_Potential_Energy-OPLS-2005>
587.798583984375

> <r_mmod_Stretch_Energy-OPLS-2005>
327.868255615234

> <r_mmod_Bend_Energy-OPLS-2005>
298.097625732422

> <r_mmod_Torsional_Energy-OPLS-2005>
278.285064697266

> <r_mmod_Improper_Torsional_Energy-OPLS-2005>
8.05803298950195

> <r_mmod_Van_der_Waal_Energy-OPLS-2005>
110.505081176758

> <r_mmod_Electrostatic_Energy-OPLS-2005>
-231.530838012695

> <r_mmod_Solvation_Energy-OPLS-2005>
-437.339813232422

> <b_mmod_Minimization_Converged-OPLS-2005>
0

> <r_mmod_RMS_Derivative-OPLS-2005>
9.13221740722656

$$$$
42
                    3D
 Structure written by MMmdl.
154162  0  0  1  0            999 V2000
  -30.6171  -14.7444   20.5208 C   0  0  0  0  0  0
  -30.4366  -12.4730   19.4586 C   0  0  0  0  0  0
  -29.5062  -12.5402   18.2266 C   0  0  0  0  0  0
  -28.0288  -12.3644   18.6353 C   0  0  0  0  0  0
  -27.6467  -13.2271   19.8676 C   0  0  2  0  0  0
  -28.6950  -13.0758   20.9844 C   0  0  0  0  0  0
  -25.2528  -13.8171   20.5743 C   0  0  0  0  0  0
  -24.1816  -13.0439   20.9215 C   0  0  0  0  0  0
  -24.6413  -11.6912   20.8763 C   0  0  0  0  0  0
  -23.9087  -10.4300   21.0422 C   0  0  0  0  0  0
  -24.3638   -9.4210   21.9197 C   0  0  0  0  0  0
  -23.6319   -8.2246   22.0761 C   0  0  0  0  0  0
  -22.4295   -8.0293   21.3545 C   0  0  0  0  0  0
  -21.9934   -9.0265   20.4643 C   0  0  0  0  0  0
  -22.7265  -10.2148   20.3071 C   0  0  0  0  0  0
  -21.6856   -6.0755   22.5282 C   0  0  0  0  0  0
  -21.4010   -6.5656   23.8210 C   0  0  0  0  0  0
  -21.3656   -5.6808   24.9168 C   0  0  0  0  0  0
  -21.6046   -4.3071   24.7213 C   0  0  0  0  0  0
  -21.8813   -3.8169   23.4334 C   0  0  0  0  0  0
  -21.9192   -4.6990   22.3397 C   0  0  0  0  0  0
  -22.7834  -13.5222   21.1862 C   0  0  0  0  0  0
  -22.1668   -4.2179   21.0978 F   0  0  0  0  0  0
  -21.5620   -3.4555   25.7718 F   0  0  0  0  0  0
  -29.9825  -13.5135   20.4189 N   0  0  0  0  0  0
  -26.2962  -12.9394   20.3373 N   0  0  0  0  0  0
  -25.9339  -11.6530   20.5784 N   0  0  0  0  0  0
  -22.0491  -12.8206   22.0412 N   0  0  0  0  0  0
  -25.4203  -15.1910   20.4157 N   0  0  0  0  0  0
  -31.7896  -14.8160   20.1389 O   0  0  0  0  0  0
  -21.6651   -6.8902   21.4243 O   0  0  0  0  0  0
  -22.3524  -14.5523   20.6689 O   0  0  0  0  0  0
  -24.6351  -31.8514   23.1967 C   0  0  0  0  0  0
  -25.9149  -32.4762   23.8323 C   0  0  1  0  0  0
  -27.2168  -27.2559   20.1238 C   0  0  0  0  0  0
  -25.5905  -33.8562   24.2265 N   0  0  0  0  0  0
  -23.4323  -30.4763   21.5389 C   0  0  2  0  0  0
  -24.8717  -28.9213   20.1056 C   0  0  0  0  0  0
  -22.7528  -29.4571   22.4889 C   0  0  0  0  0  0
  -18.0295  -28.1342   22.8503 C   0  0  0  0  0  0
  -24.1476  -36.7290   23.2661 C   0  0  0  0  0  0
  -25.9779  -30.7667   21.3699 C   0  0  0  0  0  0
  -26.0438  -29.3886   20.7135 C   0  0  0  0  0  0
  -27.2149  -28.5666   20.7125 C   0  0  0  0  0  0
  -26.0176  -26.8527   19.4987 C   0  0  0  0  0  0
  -24.8641  -27.6597   19.4913 C   0  0  0  0  0  0
  -23.6476  -29.8132   20.1516 C   0  0  0  0  0  0
  -25.4091  -36.3097   24.0371 C   0  0  1  0  0  0
  -20.5913  -28.3652   23.1261 C   0  0  2  0  0  0
  -20.6759  -26.9352   22.5423 C   0  0  0  0  0  0
  -19.5721  -26.6342   21.5231 C   0  0  0  0  0  0
  -18.1906  -26.7884   22.1640 C   0  0  0  0  0  0
  -19.1560  -28.8813   23.2882 C   0  0  0  0  0  0
  -18.9467  -30.1414   23.8910 C   0  0  0  0  0  0
  -17.6463  -30.6555   24.0553 C   0  0  0  0  0  0
  -25.9017  -34.9462   23.5130 C   0  0  0  0  0  0
  -16.5353  -29.9055   23.6319 C   0  0  0  0  0  0
  -16.7284  -28.6460   23.0367 C   0  0  0  0  0  0
  -26.4477  -31.6584   25.0730 C   0  0  0  0  0  0
  -25.3697  -31.3732   26.1458 C   0  0  0  0  0  0
  -27.0324  -30.3010   24.6200 C   0  0  0  0  0  0
  -27.6043  -32.4318   25.7494 C   0  0  0  0  0  0
  -27.5571  -37.1804   24.8480 C   0  0  0  0  0  0
  -21.4239  -29.3014   22.3642 N   0  0  0  0  0  0
  -26.4265  -37.3800   23.9440 N   0  0  0  0  0  0
  -24.7026  -31.0501   22.0915 N   0  0  0  0  0  0
  -23.4218  -28.8103   23.2986 O   0  0  0  0  0  0
  -28.3421  -26.4019   20.1883 O   0  0  0  0  0  0
  -26.5627  -34.8955   22.4721 O   0  0  0  0  0  0
  -23.5485  -32.1309   23.7239 O   0  0  0  0  0  0
  -29.1413  -20.0614   20.1741 C   0  0  0  0  0  0
  -28.7782  -22.2379   20.3267 C   0  0  0  0  0  0
  -30.7293  -17.3779   18.8675 C   0  0  0  0  0  0
  -29.2161  -15.9728   22.1012 C   0  0  0  0  0  0
  -28.9654  -18.4951   20.3930 C   0  0  0  0  0  0
  -28.3665  -24.9542   19.7461 C   0  0  0  0  0  0
  -30.1677  -17.3780   20.3087 C   0  0  1  0  0  0
  -28.4925  -23.7320   20.7997 C   0  0  0  0  0  0
  -28.6237  -21.0550   21.0051 N   0  0  0  0  0  0
  -29.6070  -20.5840   19.0381 N   0  0  0  0  0  0
  -29.8824  -15.9214   20.7919 N   0  0  0  0  0  0
  -29.4087  -21.9881   19.1460 O   0  0  0  0  0  0
  -27.3450  -23.7369   21.4820 F   0  0  0  0  0  0
  -29.4565  -24.0856   21.6509 F   0  0  0  0  0  0
  -31.4733  -12.6116   19.1471 H   0  0  0  0  0  0
  -30.4013  -11.4801   19.9114 H   0  0  0  0  0  0
  -29.7844  -11.7797   17.4963 H   0  0  0  0  0  0
  -29.6314  -13.5031   17.7284 H   0  0  0  0  0  0
  -27.8692  -11.3084   18.8611 H   0  0  0  0  0  0
  -27.3726  -12.5978   17.7962 H   0  0  0  0  0  0
  -27.6612  -14.2678   19.5438 H   0  0  0  0  0  0
  -28.7555  -12.0308   21.2973 H   0  0  0  0  0  0
  -28.3981  -13.6048   21.8840 H   0  0  0  0  0  0
  -25.2784   -9.5681   22.4764 H   0  0  0  0  0  0
  -24.0021   -7.4636   22.7477 H   0  0  0  0  0  0
  -21.0865   -8.8794   19.8943 H   0  0  0  0  0  0
  -22.3734  -10.9695   19.6179 H   0  0  0  0  0  0
  -21.2008   -7.6163   23.9713 H   0  0  0  0  0  0
  -21.1482   -6.0543   25.9070 H   0  0  0  0  0  0
  -22.0596   -2.7633   23.2821 H   0  0  0  0  0  0
  -22.4142  -11.9885   22.4811 H   0  0  0  0  0  0
  -21.1095  -13.1186   22.2588 H   0  0  0  0  0  0
  -24.6478  -15.8383   20.5242 H   0  0  0  0  0  0
  -26.2657  -15.6374   20.0867 H   0  0  0  0  0  0
  -26.7237  -32.5394   23.1079 H   0  0  0  0  0  0
  -25.0091  -33.9654   25.0435 H   0  0  0  0  0  0
  -22.7317  -31.3005   21.3918 H   0  0  0  0  0  0
  -23.3754  -35.9596   23.3311 H   0  0  0  0  0  0
  -24.3596  -36.8908   22.2076 H   0  0  0  0  0  0
  -23.7167  -37.6491   23.6643 H   0  0  0  0  0  0
  -26.1190  -31.5221   20.5954 H   0  0  0  0  0  0
  -26.8590  -30.8147   22.0003 H   0  0  0  0  0  0
  -28.1128  -28.9147   21.2031 H   0  0  0  0  0  0
  -25.9201  -25.8913   19.0267 H   0  0  0  0  0  0
  -23.9671  -27.2874   19.0159 H   0  0  0  0  0  0
  -23.7808  -30.5921   19.3982 H   0  0  0  0  0  0
  -22.7626  -29.2549   19.8437 H   0  0  0  0  0  0
  -25.1245  -36.1988   25.0863 H   0  0  0  0  0  0
  -21.0032  -28.3221   24.1373 H   0  0  0  0  0  0
  -20.5593  -26.2272   23.3639 H   0  0  0  0  0  0
  -21.6619  -26.7296   22.1243 H   0  0  0  0  0  0
  -19.6842  -25.6263   21.1235 H   0  0  0  0  0  0
  -19.6651  -27.3181   20.6784 H   0  0  0  0  0  0
  -17.4179  -26.6690   21.4037 H   0  0  0  0  0  0
  -18.0246  -26.0011   22.9011 H   0  0  0  0  0  0
  -19.7948  -30.7223   24.2286 H   0  0  0  0  0  0
  -17.5021  -31.6245   24.5127 H   0  0  0  0  0  0
  -15.5351  -30.2954   23.7606 H   0  0  0  0  0  0
  -15.8698  -28.0771   22.7071 H   0  0  0  0  0  0
  -24.5922  -30.6989   25.7837 H   0  0  0  0  0  0
  -24.8801  -32.2883   26.4817 H   0  0  0  0  0  0
  -25.8044  -30.9019   27.0276 H   0  0  0  0  0  0
  -26.2888  -29.6774   24.1225 H   0  0  0  0  0  0
  -27.4030  -29.7271   25.4702 H   0  0  0  0  0  0
  -27.8757  -30.4340   23.9420 H   0  0  0  0  0  0
  -27.2685  -33.3676   26.1963 H   0  0  0  0  0  0
  -28.3895  -32.6763   25.0334 H   0  0  0  0  0  0
  -28.0621  -31.8483   26.5487 H   0  0  0  0  0  0
  -28.2597  -38.0100   24.7557 H   0  0  0  0  0  0
  -28.1054  -36.2643   24.6239 H   0  0  0  0  0  0
  -27.2323  -37.1403   25.8894 H   0  0  0  0  0  0
  -20.9378  -29.8876   21.7004 H   0  0  0  0  0  0
  -26.0177  -38.2892   24.1431 H   0  0  0  0  0  0
  -30.9158  -18.3834   18.4956 H   0  0  0  0  0  0
  -30.0350  -16.9036   18.1737 H   0  0  0  0  0  0
  -31.6864  -16.8629   18.7928 H   0  0  0  0  0  0
  -28.1395  -15.8519   21.9784 H   0  0  0  0  0  0
  -29.3841  -16.9089   22.6336 H   0  0  0  0  0  0
  -29.5764  -15.2062   22.7886 H   0  0  0  0  0  0
  -28.1940  -18.1737   19.6930 H   0  0  0  0  0  0
  -28.4771  -18.4165   21.3613 H   0  0  0  0  0  0
  -27.5819  -24.7169   19.0351 H   0  0  0  0  0  0
  -29.2682  -24.8885   19.1384 H   0  0  0  0  0  0
  -30.9665  -17.7374   20.9595 H   0  0  0  0  0  0
  1 25  1  0  0  0
  1 30  2  0  0  0
  1 81  1  0  0  0
  2  3  1  0  0  0
  2 25  1  0  0  0
  2 85  1  0  0  0
  2 86  1  0  0  0
  3  4  1  0  0  0
  3 87  1  0  0  0
  3 88  1  0  0  0
  4  5  1  0  0  0
  4 89  1  0  0  0
  4 90  1  0  0  0
  5  6  1  0  0  0
  5 26  1  0  0  0
  5 91  1  0  0  0
  6 25  1  0  0  0
  6 92  1  0  0  0
  6 93  1  0  0  0
  7  8  2  0  0  0
  7 26  1  0  0  0
  7 29  1  0  0  0
  8  9  1  0  0  0
  8 22  1  0  0  0
  9 10  1  0  0  0
  9 27  2  0  0  0
 10 11  2  0  0  0
 10 15  1  0  0  0
 11 12  1  0  0  0
 11 94  1  0  0  0
 12 13  2  0  0  0
 12 95  1  0  0  0
 13 14  1  0  0  0
 13 31  1  0  0  0
 14 15  2  0  0  0
 14 96  1  0  0  0
 15 97  1  0  0  0
 16 17  2  0  0  0
 16 21  1  0  0  0
 16 31  1  0  0  0
 17 18  1  0  0  0
 17 98  1  0  0  0
 18 19  2  0  0  0
 18 99  1  0  0  0
 19 20  1  0  0  0
 19 24  1  0  0  0
 20 21  2  0  0  0
 20100  1  0  0  0
 21 23  1  0  0  0
 22 28  1  0  0  0
 22 32  2  0  0  0
 26 27  1  0  0  0
 28101  1  0  0  0
 28102  1  0  0  0
 29103  1  0  0  0
 29104  1  0  0  0
 33 34  1  0  0  0
 33 66  1  0  0  0
 33 70  2  0  0  0
 34 36  1  0  0  0
 34 59  1  0  0  0
 34105  1  0  0  0
 35 44  2  0  0  0
 35 45  1  0  0  0
 35 68  1  0  0  0
 36 56  1  0  0  0
 36106  1  0  0  0
 37 39  1  0  0  0
 37 47  1  0  0  0
 37 66  1  0  0  0
 37107  1  0  0  0
 38 43  2  0  0  0
 38 46  1  0  0  0
 38 47  1  0  0  0
 39 64  1  0  0  0
 39 67  2  0  0  0
 40 52  1  0  0  0
 40 53  2  0  0  0
 40 58  1  0  0  0
 41108  1  0  0  0
 41109  1  0  0  0
 41110  1  0  0  0
 41 48  1  0  0  0
 42 43  1  0  0  0
 42 66  1  0  0  0
 42111  1  0  0  0
 42112  1  0  0  0
 43 44  1  0  0  0
 44113  1  0  0  0
 45 46  2  0  0  0
 45114  1  0  0  0
 46115  1  0  0  0
 47116  1  0  0  0
 47117  1  0  0  0
 48 56  1  0  0  0
 48 65  1  0  0  0
 48118  1  0  0  0
 49 50  1  0  0  0
 49 53  1  0  0  0
 49 64  1  0  0  0
 49119  1  0  0  0
 50 51  1  0  0  0
 50120  1  0  0  0
 50121  1  0  0  0
 51 52  1  0  0  0
 51122  1  0  0  0
 51123  1  0  0  0
 52124  1  0  0  0
 52125  1  0  0  0
 53 54  1  0  0  0
 54 55  2  0  0  0
 54126  1  0  0  0
 55 57  1  0  0  0
 55127  1  0  0  0
 56 69  2  0  0  0
 57 58  2  0  0  0
 57128  1  0  0  0
 58129  1  0  0  0
 59 60  1  0  0  0
 59 61  1  0  0  0
 59 62  1  0  0  0
 60130  1  0  0  0
 60131  1  0  0  0
 60132  1  0  0  0
 61133  1  0  0  0
 61134  1  0  0  0
 61135  1  0  0  0
 62136  1  0  0  0
 62137  1  0  0  0
 62138  1  0  0  0
 63 65  1  0  0  0
 63139  1  0  0  0
 63140  1  0  0  0
 63141  1  0  0  0
 64142  1  0  0  0
 65143  1  0  0  0
 68 76  1  0  0  0
 71 75  1  0  0  0
 71 79  1  0  0  0
 71 80  2  0  0  0
 72 78  1  0  0  0
 72 79  2  0  0  0
 72 82  1  0  0  0
 73144  1  0  0  0
 73145  1  0  0  0
 73146  1  0  0  0
 73 77  1  0  0  0
 74 81  1  0  0  0
 74147  1  0  0  0
 74148  1  0  0  0
 74149  1  0  0  0
 75 77  1  0  0  0
 75150  1  0  0  0
 75151  1  0  0  0
 76 78  1  0  0  0
 76152  1  0  0  0
 76153  1  0  0  0
 77 81  1  0  0  0
 77154  1  0  0  0
 78 83  1  0  0  0
 78 84  1  0  0  0
 80 82  1  0  0  0
M  ISO  4   1 100  68 101  76 101  81 100
M  END
> <chiral flag>
0

> <version>
0

> <s_m_source_file>
/data/baiqing/PycharmProjects/Reinvent-master-3.2/result/LINK_invent/BTK/process_docking_weight1_custom_sum_contain_oxygen_bond_distance_aromatic_linkinvent_7_9_3/rearranged_h_0048.sdf

> <i_m_source_file_index>
42

> <r_mmod_Potential_Energy-OPLS-2005>
440.644256591797

> <r_mmod_Stretch_Energy-OPLS-2005>
149.361633300781

> <r_mmod_Bend_Energy-OPLS-2005>
203.110275268555

> <r_mmod_Torsional_Energy-OPLS-2005>
260.646179199219

> <r_mmod_Improper_Torsional_Energy-OPLS-2005>
9.89476776123047

> <r_mmod_Van_der_Waal_Energy-OPLS-2005>
130.657379150391

> <r_mmod_Electrostatic_Energy-OPLS-2005>
-178.850189208984

> <r_mmod_Solvation_Energy-OPLS-2005>
-211.29296875

> <b_mmod_Minimization_Converged-OPLS-2005>
0

> <r_mmod_RMS_Derivative-OPLS-2005>
3.3853714466095

$$$$
43
                    3D
 Structure written by MMmdl.
172180  0  0  1  0            999 V2000
  -30.6801  -14.4793   20.4342 C   0  0  0  0  0  0
  -30.4215  -12.2643   19.4166 C   0  0  0  0  0  0
  -29.4851  -12.4061   18.1978 C   0  0  0  0  0  0
  -28.0018  -12.3173   18.6171 C   0  0  0  0  0  0
  -27.6550  -13.1835   19.8587 C   0  0  2  0  0  0
  -28.7099  -13.0088   20.9720 C   0  0  0  0  0  0
  -25.2640  -13.8105   20.5694 C   0  0  0  0  0  0
  -24.1845  -13.0419   20.9199 C   0  0  0  0  0  0
  -24.6373  -11.6883   20.8791 C   0  0  0  0  0  0
  -23.9040  -10.4279   21.0429 C   0  0  0  0  0  0
  -24.3607   -9.4191   21.9190 C   0  0  0  0  0  0
  -23.6290   -8.2225   22.0770 C   0  0  0  0  0  0
  -22.4275   -8.0260   21.3555 C   0  0  0  0  0  0
  -21.9894   -9.0236   20.4667 C   0  0  0  0  0  0
  -22.7225  -10.2114   20.3079 C   0  0  0  0  0  0
  -21.6853   -6.0717   22.5280 C   0  0  0  0  0  0
  -21.4006   -6.5638   23.8204 C   0  0  0  0  0  0
  -21.3666   -5.6797   24.9183 C   0  0  0  0  0  0
  -21.6067   -4.3064   24.7230 C   0  0  0  0  0  0
  -21.8815   -3.8146   23.4353 C   0  0  0  0  0  0
  -21.9180   -4.6951   22.3401 C   0  0  0  0  0  0
  -22.7900  -13.5264   21.1813 C   0  0  0  0  0  0
  -22.1659   -4.2147   21.0983 F   0  0  0  0  0  0
  -21.5635   -3.4540   25.7739 F   0  0  0  0  0  0
  -30.0295  -13.2879   20.3969 N   0  0  0  0  0  0
  -26.3009  -12.9205   20.3349 N   0  0  0  0  0  0
  -25.9295  -11.6407   20.5846 N   0  0  0  0  0  0
  -22.0525  -12.8283   22.0382 N   0  0  0  0  0  0
  -25.4437  -15.1807   20.4095 N   0  0  0  0  0  0
  -31.8798  -14.5565   20.1681 O   0  0  0  0  0  0
  -21.6649   -6.8857   21.4238 O   0  0  0  0  0  0
  -22.3609  -14.5557   20.6628 O   0  0  0  0  0  0
  -24.6068  -31.8734   23.2137 C   0  0  0  0  0  0
  -25.8993  -32.4857   23.8415 C   0  0  1  0  0  0
  -27.2326  -27.4889   20.0912 C   0  0  0  0  0  0
  -25.5887  -33.8662   24.2348 N   0  0  0  0  0  0
  -23.3911  -30.4979   21.5493 C   0  0  2  0  0  0
  -24.8389  -28.9700   20.1115 C   0  0  0  0  0  0
  -22.7337  -29.4697   22.4977 C   0  0  0  0  0  0
  -18.0260  -28.1350   22.8502 C   0  0  0  0  0  0
  -24.1478  -36.7335   23.2638 C   0  0  0  0  0  0
  -25.9122  -30.8573   21.3554 C   0  0  0  0  0  0
  -25.9926  -29.4936   20.7093 C   0  0  0  0  0  0
  -27.1916  -28.7545   20.7077 C   0  0  0  0  0  0
  -26.0748  -26.9724   19.4799 C   0  0  0  0  0  0
  -24.8709  -27.7032   19.5002 C   0  0  0  0  0  0
  -23.5966  -29.8289   20.1631 C   0  0  0  0  0  0
  -25.4102  -36.3145   24.0329 C   0  0  1  0  0  0
  -20.5849  -28.3640   23.1319 C   0  0  2  0  0  0
  -20.6751  -26.9379   22.5410 C   0  0  0  0  0  0
  -19.5737  -26.6365   21.5199 C   0  0  0  0  0  0
  -18.1913  -26.7902   22.1613 C   0  0  0  0  0  0
  -19.1502  -28.8806   23.2921 C   0  0  0  0  0  0
  -18.9456  -30.1407   23.8932 C   0  0  0  0  0  0
  -17.6466  -30.6579   24.0550 C   0  0  0  0  0  0
  -25.9014  -34.9505   23.5126 C   0  0  0  0  0  0
  -16.5353  -29.9092   23.6322 C   0  0  0  0  0  0
  -16.7249  -28.6499   23.0369 C   0  0  0  0  0  0
  -26.4456  -31.6643   25.0726 C   0  0  0  0  0  0
  -25.3761  -31.3755   26.1503 C   0  0  0  0  0  0
  -27.0249  -30.3086   24.6062 C   0  0  0  0  0  0
  -27.6024  -32.4366   25.7511 C   0  0  0  0  0  0
  -27.5571  -37.1829   24.8459 C   0  0  0  0  0  0
  -21.4082  -29.3011   22.3709 N   0  0  0  0  0  0
  -26.4298  -37.3812   23.9399 N   0  0  0  0  0  0
  -24.6543  -31.0883   22.0995 N   0  0  0  0  0  0
  -23.4135  -28.8247   23.3000 O   0  0  0  0  0  0
  -28.3761  -26.7372   20.0984 O   0  0  0  0  0  0
  -26.5574  -34.8937   22.4677 O   0  0  0  0  0  0
  -23.5283  -32.1455   23.7587 O   0  0  0  0  0  0
  -28.1345  -19.7943   20.5770 C   0  0  0  0  0  0
  -28.1508  -18.4397   20.3904 C   0  0  0  0  0  0
  -29.4254  -20.2199   20.1538 C   0  0  0  0  0  0
  -29.3048  -21.8499   23.8256 C   0  0  0  0  0  0
  -28.8387  -16.3173   18.3071 C   0  0  0  0  0  0
  -31.2112  -16.9330   18.6433 C   0  0  0  0  0  0
  -31.4170  -20.9872   22.1513 C   0  0  0  0  0  0
  -30.0340  -21.6009   20.1878 C   0  0  0  0  0  0
  -29.9086  -15.8132   20.6196 C   0  0  0  0  0  0
  -29.1599  -24.7659   21.1969 C   0  0  0  0  0  0
  -29.4433  -24.0352   22.5272 C   0  0  0  0  0  0
  -28.6721  -26.2042   21.3859 C   0  0  0  0  0  0
  -29.3789  -22.4945   22.4241 C   0  0  1  0  0  0
  -29.8463  -16.7876   19.3782 C   0  0  0  0  0  0
  -30.1546  -19.2057   19.7207 N   0  0  0  0  0  0
  -29.3742  -18.1047   19.8376 N   0  0  0  0  0  0
  -30.4872  -21.9862   21.5512 N   0  3  1  0  0  0
  -31.4633  -12.3539   19.1007 H   0  0  0  0  0  0
  -30.3291  -11.2701   19.8548 H   0  0  0  0  0  0
  -29.6962  -11.6121   17.4778 H   0  0  0  0  0  0
  -29.6880  -13.3340   17.6735 H   0  0  0  0  0  0
  -27.7967  -11.2673   18.8389 H   0  0  0  0  0  0
  -27.3493  -12.5772   17.7815 H   0  0  0  0  0  0
  -27.6805  -14.2157   19.5325 H   0  0  0  0  0  0
  -28.6903  -11.9877   21.3574 H   0  0  0  0  0  0
  -28.5077  -13.6471   21.8307 H   0  0  0  0  0  0
  -25.2739   -9.5680   22.4782 H   0  0  0  0  0  0
  -24.0004   -7.4627   22.7487 H   0  0  0  0  0  0
  -21.0824   -8.8757   19.8986 H   0  0  0  0  0  0
  -22.3664  -10.9665   19.6217 H   0  0  0  0  0  0
  -21.1995   -7.6147   23.9713 H   0  0  0  0  0  0
  -21.1510   -6.0527   25.9078 H   0  0  0  0  0  0
  -22.0584   -2.7604   23.2851 H   0  0  0  0  0  0
  -22.4121  -11.9935   22.4779 H   0  0  0  0  0  0
  -21.1160  -13.1356   22.2586 H   0  0  0  0  0  0
  -24.6827  -15.8428   20.5201 H   0  0  0  0  0  0
  -26.2978  -15.6037   20.0750 H   0  0  0  0  0  0
  -26.7064  -32.5595   23.1195 H   0  0  0  0  0  0
  -25.0090  -33.9830   25.0531 H   0  0  0  0  0  0
  -22.6802  -31.3163   21.4102 H   0  0  0  0  0  0
  -23.3735  -35.9673   23.3330 H   0  0  0  0  0  0
  -24.3585  -36.8916   22.2051 H   0  0  0  0  0  0
  -23.7234  -37.6547   23.6635 H   0  0  0  0  0  0
  -26.0106  -31.6264   20.5883 H   0  0  0  0  0  0
  -26.8045  -30.9204   21.9652 H   0  0  0  0  0  0
  -28.0808  -29.1512   21.1771 H   0  0  0  0  0  0
  -26.1020  -26.0035   19.0025 H   0  0  0  0  0  0
  -23.9818  -27.2881   19.0475 H   0  0  0  0  0  0
  -23.6968  -30.6025   19.3989 H   0  0  0  0  0  0
  -22.7241  -29.2432   19.8683 H   0  0  0  0  0  0
  -25.1286  -36.2024   25.0824 H   0  0  0  0  0  0
  -20.9970  -28.3204   24.1437 H   0  0  0  0  0  0
  -20.5636  -26.2255   23.3593 H   0  0  0  0  0  0
  -21.6638  -26.7412   22.1222 H   0  0  0  0  0  0
  -19.6896  -25.6284   21.1223 H   0  0  0  0  0  0
  -19.6682  -27.3185   20.6740 H   0  0  0  0  0  0
  -17.4189  -26.6653   21.4009 H   0  0  0  0  0  0
  -18.0313  -26.0031   22.8996 H   0  0  0  0  0  0
  -19.7937  -30.7191   24.2328 H   0  0  0  0  0  0
  -17.5041  -31.6270   24.5136 H   0  0  0  0  0  0
  -15.5365  -30.3009   23.7629 H   0  0  0  0  0  0
  -15.8645  -28.0805   22.7099 H   0  0  0  0  0  0
  -24.5921  -30.7094   25.7899 H   0  0  0  0  0  0
  -24.8962  -32.2906   26.4977 H   0  0  0  0  0  0
  -25.8155  -30.8948   27.0250 H   0  0  0  0  0  0
  -26.2752  -29.6906   24.1098 H   0  0  0  0  0  0
  -27.4003  -29.7285   25.4508 H   0  0  0  0  0  0
  -27.8611  -30.4420   23.9190 H   0  0  0  0  0  0
  -27.2618  -33.3652   26.2118 H   0  0  0  0  0  0
  -28.3839  -32.6961   25.0358 H   0  0  0  0  0  0
  -28.0682  -31.8475   26.5421 H   0  0  0  0  0  0
  -28.2618  -38.0099   24.7496 H   0  0  0  0  0  0
  -28.1036  -36.2638   24.6310 H   0  0  0  0  0  0
  -27.2285  -37.1511   25.8859 H   0  0  0  0  0  0
  -20.9211  -29.8788   21.6986 H   0  0  0  0  0  0
  -26.0190  -38.2884   24.1416 H   0  0  0  0  0  0
  -27.3189  -20.3890   20.9655 H   0  0  0  0  0  0
  -27.3889  -17.6974   20.5796 H   0  0  0  0  0  0
  -28.4682  -22.2602   24.3928 H   0  0  0  0  0  0
  -30.2033  -22.0231   24.4225 H   0  0  0  0  0  0
  -29.1298  -20.7749   23.7538 H   0  0  0  0  0  0
  -29.1120  -15.3540   17.8923 H   0  0  0  0  0  0
  -28.7980  -17.0250   17.4788 H   0  0  0  0  0  0
  -27.8238  -16.2354   18.6900 H   0  0  0  0  0  0
  -31.1753  -17.6900   17.8591 H   0  0  0  0  0  0
  -31.5019  -16.0111   18.1386 H   0  0  0  0  0  0
  -32.0147  -17.2145   19.3259 H   0  0  0  0  0  0
  -32.2568  -20.7919   21.4833 H   0  0  0  0  0  0
  -30.9301  -20.0314   22.3513 H   0  0  0  0  0  0
  -31.8414  -21.3380   23.0905 H   0  0  0  0  0  0
  -29.3293  -22.3292   19.7921 H   0  0  0  0  0  0
  -30.8921  -21.6523   19.5159 H   0  0  0  0  0  0
  -28.8998  -15.6419   20.9906 H   0  0  0  0  0  0
  -30.4157  -16.3333   21.4323 H   0  0  0  0  0  0
  -28.3815  -24.2378   20.6438 H   0  0  0  0  0  0
  -30.0514  -24.7705   20.5650 H   0  0  0  0  0  0
  -30.4079  -24.3473   22.9297 H   0  0  0  0  0  0
  -28.7055  -24.3578   23.2641 H   0  0  0  0  0  0
  -29.4242  -26.8164   21.8817 H   0  0  0  0  0  0
  -27.7866  -26.1962   22.0262 H   0  0  0  0  0  0
  -28.4197  -22.2583   21.9596 H   0  0  0  0  0  0
  -31.0707  -22.7950   21.3990 H   0  0  0  0  0  0
  1 25  1  0  0  0
  1 30  2  0  0  0
  1 79  1  0  0  0
  2  3  1  0  0  0
  2 25  1  0  0  0
  2 88  1  0  0  0
  2 89  1  0  0  0
  3  4  1  0  0  0
  3 90  1  0  0  0
  3 91  1  0  0  0
  4  5  1  0  0  0
  4 92  1  0  0  0
  4 93  1  0  0  0
  5  6  1  0  0  0
  5 26  1  0  0  0
  5 94  1  0  0  0
  6 25  1  0  0  0
  6 95  1  0  0  0
  6 96  1  0  0  0
  7  8  2  0  0  0
  7 26  1  0  0  0
  7 29  1  0  0  0
  8  9  1  0  0  0
  8 22  1  0  0  0
  9 10  1  0  0  0
  9 27  2  0  0  0
 10 11  2  0  0  0
 10 15  1  0  0  0
 11 12  1  0  0  0
 11 97  1  0  0  0
 12 13  2  0  0  0
 12 98  1  0  0  0
 13 14  1  0  0  0
 13 31  1  0  0  0
 14 15  2  0  0  0
 14 99  1  0  0  0
 15100  1  0  0  0
 16 17  2  0  0  0
 16 21  1  0  0  0
 16 31  1  0  0  0
 17 18  1  0  0  0
 17101  1  0  0  0
 18 19  2  0  0  0
 18102  1  0  0  0
 19 20  1  0  0  0
 19 24  1  0  0  0
 20 21  2  0  0  0
 20103  1  0  0  0
 21 23  1  0  0  0
 22 28  1  0  0  0
 22 32  2  0  0  0
 26 27  1  0  0  0
 28104  1  0  0  0
 28105  1  0  0  0
 29106  1  0  0  0
 29107  1  0  0  0
 33 34  1  0  0  0
 33 66  1  0  0  0
 33 70  2  0  0  0
 34 36  1  0  0  0
 34 59  1  0  0  0
 34108  1  0  0  0
 35 44  2  0  0  0
 35 45  1  0  0  0
 35 68  1  0  0  0
 36 56  1  0  0  0
 36109  1  0  0  0
 37 39  1  0  0  0
 37 47  1  0  0  0
 37 66  1  0  0  0
 37110  1  0  0  0
 38 43  2  0  0  0
 38 46  1  0  0  0
 38 47  1  0  0  0
 39 64  1  0  0  0
 39 67  2  0  0  0
 40 52  1  0  0  0
 40 53  2  0  0  0
 40 58  1  0  0  0
 41111  1  0  0  0
 41112  1  0  0  0
 41113  1  0  0  0
 41 48  1  0  0  0
 42 43  1  0  0  0
 42 66  1  0  0  0
 42114  1  0  0  0
 42115  1  0  0  0
 43 44  1  0  0  0
 44116  1  0  0  0
 45 46  2  0  0  0
 45117  1  0  0  0
 46118  1  0  0  0
 47119  1  0  0  0
 47120  1  0  0  0
 48 56  1  0  0  0
 48 65  1  0  0  0
 48121  1  0  0  0
 49 50  1  0  0  0
 49 53  1  0  0  0
 49 64  1  0  0  0
 49122  1  0  0  0
 50 51  1  0  0  0
 50123  1  0  0  0
 50124  1  0  0  0
 51 52  1  0  0  0
 51125  1  0  0  0
 51126  1  0  0  0
 52127  1  0  0  0
 52128  1  0  0  0
 53 54  1  0  0  0
 54 55  2  0  0  0
 54129  1  0  0  0
 55 57  1  0  0  0
 55130  1  0  0  0
 56 69  2  0  0  0
 57 58  2  0  0  0
 57131  1  0  0  0
 58132  1  0  0  0
 59 60  1  0  0  0
 59 61  1  0  0  0
 59 62  1  0  0  0
 60133  1  0  0  0
 60134  1  0  0  0
 60135  1  0  0  0
 61136  1  0  0  0
 61137  1  0  0  0
 61138  1  0  0  0
 62139  1  0  0  0
 62140  1  0  0  0
 62141  1  0  0  0
 63 65  1  0  0  0
 63142  1  0  0  0
 63143  1  0  0  0
 63144  1  0  0  0
 64145  1  0  0  0
 65146  1  0  0  0
 68 82  1  0  0  0
 71 72  2  0  0  0
 71 73  1  0  0  0
 71147  1  0  0  0
 72 86  1  0  0  0
 72148  1  0  0  0
 73 78  1  0  0  0
 73 85  2  0  0  0
 74149  1  0  0  0
 74150  1  0  0  0
 74151  1  0  0  0
 74 83  1  0  0  0
 75152  1  0  0  0
 75153  1  0  0  0
 75154  1  0  0  0
 75 84  1  0  0  0
 76 84  1  0  0  0
 76155  1  0  0  0
 76156  1  0  0  0
 76157  1  0  0  0
 77158  1  0  0  0
 77159  1  0  0  0
 77160  1  0  0  0
 77 87  1  0  0  0
 78 87  1  0  0  0
 78161  1  0  0  0
 78162  1  0  0  0
 79 84  1  0  0  0
 79163  1  0  0  0
 79164  1  0  0  0
 80 81  1  0  0  0
 80 82  1  0  0  0
 80165  1  0  0  0
 80166  1  0  0  0
 81 83  1  0  0  0
 81167  1  0  0  0
 81168  1  0  0  0
 82169  1  0  0  0
 82170  1  0  0  0
 83 87  1  0  0  0
 83171  1  0  0  0
 84 86  1  0  0  0
 85 86  1  0  0  0
 87172  1  0  0  0
M  CHG  1  87   1
M  ISO  4   1 100  68 101  79 100  82 101
M  END
> <chiral flag>
0

> <version>
0

> <s_m_source_file>
/data/baiqing/PycharmProjects/Reinvent-master-3.2/result/LINK_invent/BTK/process_docking_weight1_custom_sum_contain_oxygen_bond_distance_aromatic_linkinvent_7_9_3/rearranged_h_0048.sdf

> <i_m_source_file_index>
43

> <r_mmod_Potential_Energy-OPLS-2005>
-147.249267578125

> <r_mmod_Stretch_Energy-OPLS-2005>
37.3724327087402

> <r_mmod_Bend_Energy-OPLS-2005>
106.772895812988

> <r_mmod_Torsional_Energy-OPLS-2005>
254.261001586914

> <r_mmod_Improper_Torsional_Energy-OPLS-2005>
3.98419666290283

> <r_mmod_Van_der_Waal_Energy-OPLS-2005>
141.465698242188

> <r_mmod_Electrostatic_Energy-OPLS-2005>
-295.199676513672

> <r_mmod_Solvation_Energy-OPLS-2005>
-417.306762695312

> <b_mmod_Minimization_Converged-OPLS-2005>
0

> <r_mmod_RMS_Derivative-OPLS-2005>
4.60479640960693

$$$$
44
                    3D
 Structure written by MMmdl.
148156  0  0  1  0            999 V2000
  -30.4622  -15.2103   20.3762 C   0  0  0  0  0  0
  -30.4364  -12.7689   19.5188 C   0  0  0  0  0  0
  -29.5303  -12.5605   18.2803 C   0  0  0  0  0  0
  -28.0768  -12.2959   18.7126 C   0  0  0  0  0  0
  -27.6126  -13.2698   19.8244 C   0  0  2  0  0  0
  -28.6480  -13.4237   20.9577 C   0  0  0  0  0  0
  -25.2400  -13.8233   20.5749 C   0  0  0  0  0  0
  -24.1751  -13.0435   20.9271 C   0  0  0  0  0  0
  -24.6400  -11.6930   20.8794 C   0  0  0  0  0  0
  -23.9099  -10.4293   21.0432 C   0  0  0  0  0  0
  -24.3647   -9.4202   21.9203 C   0  0  0  0  0  0
  -23.6313   -8.2238   22.0760 C   0  0  0  0  0  0
  -22.4290   -8.0293   21.3551 C   0  0  0  0  0  0
  -21.9941   -9.0270   20.4650 C   0  0  0  0  0  0
  -22.7280  -10.2142   20.3067 C   0  0  0  0  0  0
  -21.6850   -6.0759   22.5294 C   0  0  0  0  0  0
  -21.4010   -6.5663   23.8231 C   0  0  0  0  0  0
  -21.3651   -5.6806   24.9190 C   0  0  0  0  0  0
  -21.6033   -4.3069   24.7231 C   0  0  0  0  0  0
  -21.8815   -3.8169   23.4353 C   0  0  0  0  0  0
  -21.9189   -4.6986   22.3416 C   0  0  0  0  0  0
  -22.7775  -13.5196   21.1915 C   0  0  0  0  0  0
  -22.1664   -4.2179   21.0989 F   0  0  0  0  0  0
  -21.5617   -3.4549   25.7740 F   0  0  0  0  0  0
  -29.8852  -13.9144   20.3295 N   0  0  0  0  0  0
  -26.2821  -12.9499   20.3222 N   0  0  0  0  0  0
  -25.9327  -11.6611   20.5739 N   0  0  0  0  0  0
  -22.0422  -12.8178   22.0461 N   0  0  0  0  0  0
  -25.4046  -15.1961   20.4182 N   0  0  0  0  0  0
  -31.6837  -15.2083   20.1714 O   0  0  0  0  0  0
  -21.6638   -6.8903   21.4254 O   0  0  0  0  0  0
  -22.3463  -14.5505   20.6760 O   0  0  0  0  0  0
  -24.6619  -31.8255   23.1709 C   0  0  0  0  0  0
  -25.9297  -32.4605   23.8173 C   0  0  1  0  0  0
  -27.2109  -26.9478   20.1718 C   0  0  0  0  0  0
  -25.5969  -33.8422   24.2083 N   0  0  0  0  0  0
  -23.4745  -30.4405   21.5216 C   0  0  2  0  0  0
  -24.9248  -28.8345   20.1106 C   0  0  0  0  0  0
  -22.7662  -29.4464   22.4786 C   0  0  0  0  0  0
  -18.0322  -28.1430   22.8486 C   0  0  0  0  0  0
  -24.1486  -36.7195   23.2648 C   0  0  0  0  0  0
  -26.0449  -30.6384   21.3994 C   0  0  0  0  0  0
  -26.1108  -29.2316   20.7416 C   0  0  0  0  0  0
  -27.2495  -28.3093   20.7492 C   0  0  0  0  0  0
  -25.9934  -26.7016   19.4953 C   0  0  0  0  0  0
  -24.8906  -27.5885   19.4695 C   0  0  0  0  0  0
  -23.7113  -29.7608   20.1466 C   0  0  0  0  0  0
  -25.4126  -36.2979   24.0316 C   0  0  1  0  0  0
  -20.5950  -28.3765   23.1202 C   0  0  2  0  0  0
  -20.6810  -26.9450   22.5408 C   0  0  0  0  0  0
  -19.5773  -26.6395   21.5227 C   0  0  0  0  0  0
  -18.1952  -26.7966   22.1636 C   0  0  0  0  0  0
  -19.1584  -28.8912   23.2829 C   0  0  0  0  0  0
  -18.9499  -30.1506   23.8856 C   0  0  0  0  0  0
  -17.6494  -30.6616   24.0573 C   0  0  0  0  0  0
  -25.9096  -34.9364   23.5013 C   0  0  0  0  0  0
  -16.5379  -29.9117   23.6367 C   0  0  0  0  0  0
  -16.7303  -28.6540   23.0378 C   0  0  0  0  0  0
  -26.4545  -31.6544   25.0694 C   0  0  0  0  0  0
  -25.3668  -31.3811   26.1347 C   0  0  0  0  0  0
  -27.0438  -30.2917   24.6420 C   0  0  0  0  0  0
  -27.6041  -32.4362   25.7479 C   0  0  0  0  0  0
  -27.5567  -37.1749   24.8474 C   0  0  0  0  0  0
  -21.4327  -29.3045   22.3537 N   0  0  0  0  0  0
  -26.4267  -37.3719   23.9432 N   0  0  0  0  0  0
  -24.7487  -30.9945   22.0837 N   0  0  0  0  0  0
  -23.4225  -28.8038   23.3017 O   0  0  0  0  0  0
  -28.1989  -25.8351   20.2467 O   0  0  0  0  0  0
  -26.5707  -34.8900   22.4613 O   0  0  0  0  0  0
  -23.5688  -32.1216   23.6807 O   0  0  0  0  0  0
  -28.7462  -20.4575   21.3547 C   0  0  0  0  0  0
  -29.3670  -19.6487   20.3072 C   0  0  0  0  0  0
  -29.2259  -21.8867   19.1614 C   0  0  0  0  0  0
  -28.6048  -22.6989   20.2136 C   0  0  0  0  0  0
  -29.5186  -22.5081   17.8095 C   0  0  0  0  0  0
  -30.1336  -18.0822   20.4093 C   0  0  0  0  0  0
  -27.8133  -24.2541   20.0590 C   0  0  0  0  0  0
  -28.3797  -21.8399   21.2997 N   0  0  0  0  0  0
  -29.5912  -20.5060   19.2236 N   0  0  0  0  0  0
  -29.7162  -16.4814   20.4493 N   0  0  0  0  0  0
  -31.4584  -12.9614   19.1906 H   0  0  0  0  0  0
  -30.4876  -11.8579   20.1167 H   0  0  0  0  0  0
  -29.8981  -11.7306   17.6750 H   0  0  0  0  0  0
  -29.5680  -13.4455   17.6434 H   0  0  0  0  0  0
  -28.0304  -11.2723   19.0864 H   0  0  0  0  0  0
  -27.4046  -12.3384   17.8547 H   0  0  0  0  0  0
  -27.5342  -14.2410   19.3339 H   0  0  0  0  0  0
  -28.8036  -12.4804   21.4843 H   0  0  0  0  0  0
  -28.2982  -14.1434   21.7000 H   0  0  0  0  0  0
  -25.2785   -9.5672   22.4793 H   0  0  0  0  0  0
  -24.0024   -7.4615   22.7470 H   0  0  0  0  0  0
  -21.0877   -8.8792   19.8953 H   0  0  0  0  0  0
  -22.3746  -10.9689   19.6185 H   0  0  0  0  0  0
  -21.2008   -7.6172   23.9747 H   0  0  0  0  0  0
  -21.1466   -6.0536   25.9091 H   0  0  0  0  0  0
  -22.0593   -2.7634   23.2841 H   0  0  0  0  0  0
  -22.4047  -11.9840   22.4851 H   0  0  0  0  0  0
  -21.1034  -13.1192   22.2657 H   0  0  0  0  0  0
  -24.6314  -15.8449   20.5200 H   0  0  0  0  0  0
  -26.2420  -15.6341   20.0585 H   0  0  0  0  0  0
  -26.7363  -32.5143   23.0884 H   0  0  0  0  0  0
  -25.0094  -33.9510   25.0220 H   0  0  0  0  0  0
  -22.7874  -31.2719   21.3527 H   0  0  0  0  0  0
  -23.3773  -35.9498   23.3293 H   0  0  0  0  0  0
  -24.3568  -36.8849   22.2062 H   0  0  0  0  0  0
  -23.7216  -37.6370   23.6708 H   0  0  0  0  0  0
  -26.2254  -31.3819   20.6222 H   0  0  0  0  0  0
  -26.9052  -30.6895   22.0553 H   0  0  0  0  0  0
  -28.1460  -28.6111   21.2720 H   0  0  0  0  0  0
  -25.8463  -25.7543   18.9995 H   0  0  0  0  0  0
  -23.9884  -27.2779   18.9611 H   0  0  0  0  0  0
  -23.8669  -30.5308   19.3898 H   0  0  0  0  0  0
  -22.8208  -29.2162   19.8280 H   0  0  0  0  0  0
  -25.1321  -36.1764   25.0806 H   0  0  0  0  0  0
  -21.0038  -28.3359   24.1321 H   0  0  0  0  0  0
  -20.5717  -26.2375   23.3640 H   0  0  0  0  0  0
  -21.6671  -26.7458   22.1186 H   0  0  0  0  0  0
  -19.6950  -25.6299   21.1278 H   0  0  0  0  0  0
  -19.6717  -27.3197   20.6749 H   0  0  0  0  0  0
  -17.4229  -26.6717   21.4030 H   0  0  0  0  0  0
  -18.0335  -26.0112   22.9032 H   0  0  0  0  0  0
  -19.7972  -30.7343   24.2192 H   0  0  0  0  0  0
  -17.5054  -31.6292   24.5183 H   0  0  0  0  0  0
  -15.5384  -30.3017   23.7719 H   0  0  0  0  0  0
  -15.8698  -28.0854   22.7120 H   0  0  0  0  0  0
  -24.5858  -30.7155   25.7660 H   0  0  0  0  0  0
  -24.8833  -32.3009   26.4642 H   0  0  0  0  0  0
  -25.7881  -30.9062   27.0212 H   0  0  0  0  0  0
  -26.3103  -29.6598   24.1398 H   0  0  0  0  0  0
  -27.3948  -29.7284   25.5077 H   0  0  0  0  0  0
  -27.9060  -30.4124   23.9860 H   0  0  0  0  0  0
  -27.2610  -33.3718   26.1909 H   0  0  0  0  0  0
  -28.3896  -32.6833   25.0326 H   0  0  0  0  0  0
  -28.0647  -31.8577   26.5486 H   0  0  0  0  0  0
  -28.2569  -38.0060   24.7533 H   0  0  0  0  0  0
  -28.1067  -36.2588   24.6274 H   0  0  0  0  0  0
  -27.2287  -37.1360   25.8876 H   0  0  0  0  0  0
  -20.9572  -29.8716   21.6655 H   0  0  0  0  0  0
  -26.0107  -38.2772   24.1461 H   0  0  0  0  0  0
  -28.5637  -19.9882   22.3114 H   0  0  0  0  0  0
  -29.1676  -23.5361   17.7379 H   0  0  0  0  0  0
  -29.0399  -21.9325   17.0158 H   0  0  0  0  0  0
  -30.5930  -22.5149   17.6237 H   0  0  0  0  0  0
  -30.7416  -18.1869   21.3081 H   0  0  0  0  0  0
  -30.8690  -18.1155   19.6049 H   0  0  0  0  0  0
  -26.9306  -24.1385   20.6886 H   0  0  0  0  0  0
  -27.4141  -24.2070   19.0471 H   0  0  0  0  0  0
  -28.7232  -16.3394   20.5550 H   0  0  0  0  0  0
  1 25  1  0  0  0
  1 30  2  0  0  0
  1 80  1  0  0  0
  2  3  1  0  0  0
  2 25  1  0  0  0
  2 81  1  0  0  0
  2 82  1  0  0  0
  3  4  1  0  0  0
  3 83  1  0  0  0
  3 84  1  0  0  0
  4  5  1  0  0  0
  4 85  1  0  0  0
  4 86  1  0  0  0
  5  6  1  0  0  0
  5 26  1  0  0  0
  5 87  1  0  0  0
  6 25  1  0  0  0
  6 88  1  0  0  0
  6 89  1  0  0  0
  7  8  2  0  0  0
  7 26  1  0  0  0
  7 29  1  0  0  0
  8  9  1  0  0  0
  8 22  1  0  0  0
  9 10  1  0  0  0
  9 27  2  0  0  0
 10 11  2  0  0  0
 10 15  1  0  0  0
 11 12  1  0  0  0
 11 90  1  0  0  0
 12 13  2  0  0  0
 12 91  1  0  0  0
 13 14  1  0  0  0
 13 31  1  0  0  0
 14 15  2  0  0  0
 14 92  1  0  0  0
 15 93  1  0  0  0
 16 17  2  0  0  0
 16 21  1  0  0  0
 16 31  1  0  0  0
 17 18  1  0  0  0
 17 94  1  0  0  0
 18 19  2  0  0  0
 18 95  1  0  0  0
 19 20  1  0  0  0
 19 24  1  0  0  0
 20 21  2  0  0  0
 20 96  1  0  0  0
 21 23  1  0  0  0
 22 28  1  0  0  0
 22 32  2  0  0  0
 26 27  1  0  0  0
 28 97  1  0  0  0
 28 98  1  0  0  0
 29 99  1  0  0  0
 29100  1  0  0  0
 33 34  1  0  0  0
 33 66  1  0  0  0
 33 70  2  0  0  0
 34 36  1  0  0  0
 34 59  1  0  0  0
 34101  1  0  0  0
 35 44  2  0  0  0
 35 45  1  0  0  0
 35 68  1  0  0  0
 36 56  1  0  0  0
 36102  1  0  0  0
 37 39  1  0  0  0
 37 47  1  0  0  0
 37 66  1  0  0  0
 37103  1  0  0  0
 38 43  2  0  0  0
 38 46  1  0  0  0
 38 47  1  0  0  0
 39 64  1  0  0  0
 39 67  2  0  0  0
 40 52  1  0  0  0
 40 53  2  0  0  0
 40 58  1  0  0  0
 41104  1  0  0  0
 41105  1  0  0  0
 41106  1  0  0  0
 41 48  1  0  0  0
 42 43  1  0  0  0
 42 66  1  0  0  0
 42107  1  0  0  0
 42108  1  0  0  0
 43 44  1  0  0  0
 44109  1  0  0  0
 45 46  2  0  0  0
 45110  1  0  0  0
 46111  1  0  0  0
 47112  1  0  0  0
 47113  1  0  0  0
 48 56  1  0  0  0
 48 65  1  0  0  0
 48114  1  0  0  0
 49 50  1  0  0  0
 49 53  1  0  0  0
 49 64  1  0  0  0
 49115  1  0  0  0
 50 51  1  0  0  0
 50116  1  0  0  0
 50117  1  0  0  0
 51 52  1  0  0  0
 51118  1  0  0  0
 51119  1  0  0  0
 52120  1  0  0  0
 52121  1  0  0  0
 53 54  1  0  0  0
 54 55  2  0  0  0
 54122  1  0  0  0
 55 57  1  0  0  0
 55123  1  0  0  0
 56 69  2  0  0  0
 57 58  2  0  0  0
 57124  1  0  0  0
 58125  1  0  0  0
 59 60  1  0  0  0
 59 61  1  0  0  0
 59 62  1  0  0  0
 60126  1  0  0  0
 60127  1  0  0  0
 60128  1  0  0  0
 61129  1  0  0  0
 61130  1  0  0  0
 61131  1  0  0  0
 62132  1  0  0  0
 62133  1  0  0  0
 62134  1  0  0  0
 63 65  1  0  0  0
 63135  1  0  0  0
 63136  1  0  0  0
 63137  1  0  0  0
 64138  1  0  0  0
 65139  1  0  0  0
 68 77  1  0  0  0
 71 72  2  0  0  0
 71 78  1  0  0  0
 71140  1  0  0  0
 72 76  1  0  0  0
 72 79  1  0  0  0
 73 74  1  0  0  0
 73 75  1  0  0  0
 73 79  2  0  0  0
 74 77  1  0  0  0
 74 78  2  0  0  0
 75141  1  0  0  0
 75142  1  0  0  0
 75143  1  0  0  0
 76 80  1  0  0  0
 76144  1  0  0  0
 76145  1  0  0  0
 77146  1  0  0  0
 77147  1  0  0  0
 80148  1  0  0  0
M  ISO  4   1 100  68 101  77 101  80 100
M  END
> <chiral flag>
0

> <version>
0

> <s_m_source_file>
/data/baiqing/PycharmProjects/Reinvent-master-3.2/result/LINK_invent/BTK/process_docking_weight1_custom_sum_contain_oxygen_bond_distance_aromatic_linkinvent_7_9_3/rearranged_h_0048.sdf

> <i_m_source_file_index>
44

> <r_mmod_Potential_Energy-OPLS-2005>
1137.91967773438

> <r_mmod_Stretch_Energy-OPLS-2005>
493.155151367188

> <r_mmod_Bend_Energy-OPLS-2005>
430.026977539062

> <r_mmod_Torsional_Energy-OPLS-2005>
220.990219116211

> <r_mmod_Improper_Torsional_Energy-OPLS-2005>
9.08442401885986

> <r_mmod_Van_der_Waal_Energy-OPLS-2005>
134.380767822266

> <r_mmod_Electrostatic_Energy-OPLS-2005>
-328.680053710938

> <r_mmod_Solvation_Energy-OPLS-2005>
-237.4921875

> <b_mmod_Minimization_Converged-OPLS-2005>
0

> <r_mmod_RMS_Derivative-OPLS-2005>
1.81848573684692

$$$$
45
                    3D
 Structure written by MMmdl.
145153  0  0  1  0            999 V2000
  -30.2307  -15.7056   20.3175 C   0  0  0  0  0  0
  -30.4349  -13.1175   19.5633 C   0  0  0  0  0  0
  -29.5669  -12.6798   18.3429 C   0  0  0  0  0  0
  -28.1395  -12.3078   18.7743 C   0  0  0  0  0  0
  -27.5984  -13.3153   19.8115 C   0  0  2  0  0  0
  -28.6050  -13.6572   20.9345 C   0  0  0  0  0  0
  -25.2336  -13.8295   20.5783 C   0  0  0  0  0  0
  -24.1726  -13.0436   20.9268 C   0  0  0  0  0  0
  -24.6434  -11.6949   20.8738 C   0  0  0  0  0  0
  -23.9133  -10.4295   21.0382 C   0  0  0  0  0  0
  -24.3663   -9.4210   21.9171 C   0  0  0  0  0  0
  -23.6320   -8.2253   22.0752 C   0  0  0  0  0  0
  -22.4299   -8.0292   21.3545 C   0  0  0  0  0  0
  -21.9946   -9.0266   20.4643 C   0  0  0  0  0  0
  -22.7293  -10.2135   20.3043 C   0  0  0  0  0  0
  -21.6861   -6.0743   22.5279 C   0  0  0  0  0  0
  -21.4020   -6.5644   23.8213 C   0  0  0  0  0  0
  -21.3661   -5.6795   24.9174 C   0  0  0  0  0  0
  -21.6045   -4.3057   24.7223 C   0  0  0  0  0  0
  -21.8818   -3.8151   23.4343 C   0  0  0  0  0  0
  -21.9195   -4.6970   22.3400 C   0  0  0  0  0  0
  -22.7736  -13.5161   21.1916 C   0  0  0  0  0  0
  -22.1662   -4.2155   21.0977 F   0  0  0  0  0  0
  -21.5628   -3.4539   25.7735 F   0  0  0  0  0  0
  -29.7888  -14.2973   20.3085 N   0  0  0  0  0  0
  -26.2789  -12.9639   20.3197 N   0  0  0  0  0  0
  -25.9384  -11.6702   20.5658 N   0  0  0  0  0  0
  -22.0406  -12.8134   22.0469 N   0  0  0  0  0  0
  -25.3939  -15.2041   20.4268 N   0  0  0  0  0  0
  -31.4621  -15.6683   20.1070 O   0  0  0  0  0  0
  -21.6653   -6.8893   21.4245 O   0  0  0  0  0  0
  -22.3404  -14.5460   20.6759 O   0  0  0  0  0  0
  -24.6899  -31.7928   23.1463 C   0  0  0  0  0  0
  -25.9450  -32.4432   23.8034 C   0  0  1  0  0  0
  -27.2319  -26.6431   20.2211 C   0  0  0  0  0  0
  -25.6003  -33.8260   24.1916 N   0  0  0  0  0  0
  -23.5193  -30.3919   21.5016 C   0  0  2  0  0  0
  -24.9785  -28.7207   20.1200 C   0  0  0  0  0  0
  -22.7796  -29.4278   22.4691 C   0  0  0  0  0  0
  -18.0344  -28.1425   22.8453 C   0  0  0  0  0  0
  -24.1494  -36.7135   23.2655 C   0  0  0  0  0  0
  -26.1028  -30.5063   21.4203 C   0  0  0  0  0  0
  -26.1688  -29.0644   20.7716 C   0  0  0  0  0  0
  -27.2777  -28.0558   20.7875 C   0  0  0  0  0  0
  -26.0077  -26.5251   19.5100 C   0  0  0  0  0  0
  -24.9407  -27.4773   19.4648 C   0  0  0  0  0  0
  -23.7773  -29.6831   20.1398 C   0  0  0  0  0  0
  -25.4147  -36.2873   24.0278 C   0  0  1  0  0  0
  -20.5983  -28.3789   23.1129 C   0  0  2  0  0  0
  -20.6806  -26.9441   22.5404 C   0  0  0  0  0  0
  -19.5782  -26.6369   21.5217 C   0  0  0  0  0  0
  -18.1965  -26.7952   22.1619 C   0  0  0  0  0  0
  -19.1612  -28.8932   23.2770 C   0  0  0  0  0  0
  -18.9516  -30.1514   23.8818 C   0  0  0  0  0  0
  -17.6505  -30.6606   24.0549 C   0  0  0  0  0  0
  -25.9132  -34.9266   23.4938 C   0  0  0  0  0  0
  -16.5394  -29.9087   23.6353 C   0  0  0  0  0  0
  -16.7323  -28.6509   23.0370 C   0  0  0  0  0  0
  -26.4608  -31.6492   25.0682 C   0  0  0  0  0  0
  -25.3657  -31.3828   26.1285 C   0  0  0  0  0  0
  -27.0550  -30.2823   24.6627 C   0  0  0  0  0  0
  -27.6046  -32.4368   25.7502 C   0  0  0  0  0  0
  -27.5560  -37.1725   24.8468 C   0  0  0  0  0  0
  -21.4438  -29.3023   22.3440 N   0  0  0  0  0  0
  -26.4267  -37.3642   23.9408 N   0  0  0  0  0  0
  -24.7948  -30.9314   22.0751 N   0  0  0  0  0  0
  -23.4209  -28.7888   23.3066 O   0  0  0  0  0  0
  -28.1806  -25.3907   20.2963 O   0  0  0  0  0  0
  -26.5779  -34.8856   22.4560 O   0  0  0  0  0  0
  -23.5904  -32.1031   23.6376 O   0  0  0  0  0  0
  -28.3787  -20.4237   20.2078 C   0  0  0  0  0  0
  -28.7550  -21.8927   20.2818 C   0  0  0  0  0  0
  -30.1262  -21.4248   20.4986 C   0  0  0  0  0  0
  -31.2927  -22.3477   20.6986 C   0  0  0  0  0  0
  -27.9079  -23.6320   20.1492 C   0  0  0  0  0  0
  -29.2936  -17.3609   20.4717 C   0  0  0  0  0  0
  -30.4191  -20.0431   20.5480 N   0  0  0  0  0  0
  -29.3437  -19.1906   20.3353 N   0  0  0  0  0  0
  -31.4268  -13.3895   19.2017 H   0  0  0  0  0  0
  -30.6035  -12.2755   20.2369 H   0  0  0  0  0  0
  -30.0337  -11.8431   17.8217 H   0  0  0  0  0  0
  -29.5239  -13.5018   17.6268 H   0  0  0  0  0  0
  -28.1717  -11.3116   19.2175 H   0  0  0  0  0  0
  -27.4774  -12.2418   17.9102 H   0  0  0  0  0  0
  -27.4596  -14.2345   19.2407 H   0  0  0  0  0  0
  -28.8648  -12.7770   21.5247 H   0  0  0  0  0  0
  -28.1568  -14.3673   21.6307 H   0  0  0  0  0  0
  -25.2803   -9.5682   22.4754 H   0  0  0  0  0  0
  -24.0019   -7.4647   22.7480 H   0  0  0  0  0  0
  -21.0875   -8.8794   19.8951 H   0  0  0  0  0  0
  -22.3751  -10.9674   19.6153 H   0  0  0  0  0  0
  -21.2015   -7.6153   23.9718 H   0  0  0  0  0  0
  -21.1484   -6.0524   25.9077 H   0  0  0  0  0  0
  -22.0595   -2.7613   23.2842 H   0  0  0  0  0  0
  -22.4053  -11.9811   22.4862 H   0  0  0  0  0  0
  -21.1014  -13.1128   22.2674 H   0  0  0  0  0  0
  -24.6242  -15.8534   20.5485 H   0  0  0  0  0  0
  -26.2414  -15.6507   20.1022 H   0  0  0  0  0  0
  -26.7538  -32.4889   23.0749 H   0  0  0  0  0  0
  -25.0059  -33.9288   25.0008 H   0  0  0  0  0  0
  -22.8483  -31.2308   21.3059 H   0  0  0  0  0  0
  -23.3776  -35.9444   23.3264 H   0  0  0  0  0  0
  -24.3559  -36.8853   22.2079 H   0  0  0  0  0  0
  -23.7237  -37.6291   23.6770 H   0  0  0  0  0  0
  -26.3120  -31.2270   20.6287 H   0  0  0  0  0  0
  -26.9512  -30.5768   22.0884 H   0  0  0  0  0  0
  -28.1711  -28.3275   21.3319 H   0  0  0  0  0  0
  -25.8296  -25.5878   19.0023 H   0  0  0  0  0  0
  -24.0447  -27.2041   18.9246 H   0  0  0  0  0  0
  -23.9578  -30.4404   19.3761 H   0  0  0  0  0  0
  -22.8811  -29.1524   19.8139 H   0  0  0  0  0  0
  -25.1359  -36.1626   25.0767 H   0  0  0  0  0  0
  -21.0064  -28.3419   24.1256 H   0  0  0  0  0  0
  -20.5665  -26.2414   23.3673 H   0  0  0  0  0  0
  -21.6666  -26.7374   22.1225 H   0  0  0  0  0  0
  -19.6937  -25.6259   21.1299 H   0  0  0  0  0  0
  -19.6727  -27.3135   20.6713 H   0  0  0  0  0  0
  -17.4236  -26.6697   21.4021 H   0  0  0  0  0  0
  -18.0350  -26.0112   22.9031 H   0  0  0  0  0  0
  -19.7991  -30.7351   24.2152 H   0  0  0  0  0  0
  -17.5055  -31.6278   24.5166 H   0  0  0  0  0  0
  -15.5391  -30.2963   23.7723 H   0  0  0  0  0  0
  -15.8724  -28.0801   22.7131 H   0  0  0  0  0  0
  -24.5867  -30.7154   25.7581 H   0  0  0  0  0  0
  -24.8820  -32.3056   26.4497 H   0  0  0  0  0  0
  -25.7818  -30.9129   27.0205 H   0  0  0  0  0  0
  -26.3280  -29.6419   24.1623 H   0  0  0  0  0  0
  -27.3956  -29.7294   25.5391 H   0  0  0  0  0  0
  -27.9268  -30.3934   24.0177 H   0  0  0  0  0  0
  -27.2581  -33.3749   26.1848 H   0  0  0  0  0  0
  -28.3972  -32.6800   25.0413 H   0  0  0  0  0  0
  -28.0587  -31.8653   26.5607 H   0  0  0  0  0  0
  -28.2544  -38.0050   24.7511 H   0  0  0  0  0  0
  -28.1088  -36.2571   24.6300 H   0  0  0  0  0  0
  -27.2274  -37.1365   25.8869 H   0  0  0  0  0  0
  -20.9757  -29.8670   21.6488 H   0  0  0  0  0  0
  -26.0088  -38.2685   24.1424 H   0  0  0  0  0  0
  -27.3517  -20.1162   20.0652 H   0  0  0  0  0  0
  -31.0719  -23.3501   20.3316 H   0  0  0  0  0  0
  -32.1781  -21.9947   20.1692 H   0  0  0  0  0  0
  -31.5480  -22.4331   21.7549 H   0  0  0  0  0  0
  -27.0416  -23.5421   20.8045 H   0  0  0  0  0  0
  -27.4508  -23.6147   19.1599 H   0  0  0  0  0  0
  -28.4404  -17.1241   19.8370 H   0  0  0  0  0  0
  -28.8893  -17.2308   21.4750 H   0  0  0  0  0  0
  1 25  1  0  0  0
  1 30  2  0  0  0
  1 76  1  0  0  0
  2  3  1  0  0  0
  2 25  1  0  0  0
  2 79  1  0  0  0
  2 80  1  0  0  0
  3  4  1  0  0  0
  3 81  1  0  0  0
  3 82  1  0  0  0
  4  5  1  0  0  0
  4 83  1  0  0  0
  4 84  1  0  0  0
  5  6  1  0  0  0
  5 26  1  0  0  0
  5 85  1  0  0  0
  6 25  1  0  0  0
  6 86  1  0  0  0
  6 87  1  0  0  0
  7  8  2  0  0  0
  7 26  1  0  0  0
  7 29  1  0  0  0
  8  9  1  0  0  0
  8 22  1  0  0  0
  9 10  1  0  0  0
  9 27  2  0  0  0
 10 11  2  0  0  0
 10 15  1  0  0  0
 11 12  1  0  0  0
 11 88  1  0  0  0
 12 13  2  0  0  0
 12 89  1  0  0  0
 13 14  1  0  0  0
 13 31  1  0  0  0
 14 15  2  0  0  0
 14 90  1  0  0  0
 15 91  1  0  0  0
 16 17  2  0  0  0
 16 21  1  0  0  0
 16 31  1  0  0  0
 17 18  1  0  0  0
 17 92  1  0  0  0
 18 19  2  0  0  0
 18 93  1  0  0  0
 19 20  1  0  0  0
 19 24  1  0  0  0
 20 21  2  0  0  0
 20 94  1  0  0  0
 21 23  1  0  0  0
 22 28  1  0  0  0
 22 32  2  0  0  0
 26 27  1  0  0  0
 28 95  1  0  0  0
 28 96  1  0  0  0
 29 97  1  0  0  0
 29 98  1  0  0  0
 33 34  1  0  0  0
 33 66  1  0  0  0
 33 70  2  0  0  0
 34 36  1  0  0  0
 34 59  1  0  0  0
 34 99  1  0  0  0
 35 44  2  0  0  0
 35 45  1  0  0  0
 35 68  1  0  0  0
 36 56  1  0  0  0
 36100  1  0  0  0
 37 39  1  0  0  0
 37 47  1  0  0  0
 37 66  1  0  0  0
 37101  1  0  0  0
 38 43  2  0  0  0
 38 46  1  0  0  0
 38 47  1  0  0  0
 39 64  1  0  0  0
 39 67  2  0  0  0
 40 52  1  0  0  0
 40 53  2  0  0  0
 40 58  1  0  0  0
 41102  1  0  0  0
 41103  1  0  0  0
 41104  1  0  0  0
 41 48  1  0  0  0
 42 43  1  0  0  0
 42 66  1  0  0  0
 42105  1  0  0  0
 42106  1  0  0  0
 43 44  1  0  0  0
 44107  1  0  0  0
 45 46  2  0  0  0
 45108  1  0  0  0
 46109  1  0  0  0
 47110  1  0  0  0
 47111  1  0  0  0
 48 56  1  0  0  0
 48 65  1  0  0  0
 48112  1  0  0  0
 49 50  1  0  0  0
 49 53  1  0  0  0
 49 64  1  0  0  0
 49113  1  0  0  0
 50 51  1  0  0  0
 50114  1  0  0  0
 50115  1  0  0  0
 51 52  1  0  0  0
 51116  1  0  0  0
 51117  1  0  0  0
 52118  1  0  0  0
 52119  1  0  0  0
 53 54  1  0  0  0
 54 55  2  0  0  0
 54120  1  0  0  0
 55 57  1  0  0  0
 55121  1  0  0  0
 56 69  2  0  0  0
 57 58  2  0  0  0
 57122  1  0  0  0
 58123  1  0  0  0
 59 60  1  0  0  0
 59 61  1  0  0  0
 59 62  1  0  0  0
 60124  1  0  0  0
 60125  1  0  0  0
 60126  1  0  0  0
 61127  1  0  0  0
 61128  1  0  0  0
 61129  1  0  0  0
 62130  1  0  0  0
 62131  1  0  0  0
 62132  1  0  0  0
 63 65  1  0  0  0
 63133  1  0  0  0
 63134  1  0  0  0
 63135  1  0  0  0
 64136  1  0  0  0
 65137  1  0  0  0
 68 75  1  0  0  0
 71 72  2  0  0  0
 71 78  1  0  0  0
 71138  1  0  0  0
 72 73  1  0  0  0
 72 75  1  0  0  0
 73 74  1  0  0  0
 73 77  2  0  0  0
 74139  1  0  0  0
 74140  1  0  0  0
 74141  1  0  0  0
 75142  1  0  0  0
 75143  1  0  0  0
 76 78  1  0  0  0
 76144  1  0  0  0
 76145  1  0  0  0
 77 78  1  0  0  0
M  ISO  4   1 100  68 101  75 101  76 100
M  END
> <chiral flag>
0

> <version>
0

> <s_m_source_file>
/data/baiqing/PycharmProjects/Reinvent-master-3.2/result/LINK_invent/BTK/process_docking_weight1_custom_sum_contain_oxygen_bond_distance_aromatic_linkinvent_7_9_3/rearranged_h_0048.sdf

> <i_m_source_file_index>
45

> <r_mmod_Potential_Energy-OPLS-2005>
2701.88671875

> <r_mmod_Stretch_Energy-OPLS-2005>
1194.44445800781

> <r_mmod_Bend_Energy-OPLS-2005>
706.899536132812

> <r_mmod_Torsional_Energy-OPLS-2005>
198.785034179688

> <r_mmod_Improper_Torsional_Energy-OPLS-2005>
2.6542112827301

> <r_mmod_Van_der_Waal_Energy-OPLS-2005>
105.395614624023

> <r_mmod_Electrostatic_Energy-OPLS-2005>
-297.361663818359

> <r_mmod_Solvation_Energy-OPLS-2005>
-230.506484985352

> <b_mmod_Minimization_Converged-OPLS-2005>
0

> <r_mmod_RMS_Derivative-OPLS-2005>
0.166416972875595

$$$$
46
                    3D
 Structure written by MMmdl.
145153  0  0  1  0            999 V2000
  -30.4067  -15.3438   20.3677 C   0  0  0  0  0  0
  -30.4390  -12.8722   19.5107 C   0  0  0  0  0  0
  -29.5353  -12.5858   18.2841 C   0  0  0  0  0  0
  -28.0897  -12.2922   18.7224 C   0  0  0  0  0  0
  -27.6060  -13.2782   19.8136 C   0  0  2  0  0  0
  -28.6411  -13.4900   20.9377 C   0  0  0  0  0  0
  -25.2376  -13.8243   20.5756 C   0  0  0  0  0  0
  -24.1736  -13.0429   20.9271 C   0  0  0  0  0  0
  -24.6398  -11.6928   20.8766 C   0  0  0  0  0  0
  -23.9094  -10.4288   21.0408 C   0  0  0  0  0  0
  -24.3638   -9.4201   21.9186 C   0  0  0  0  0  0
  -23.6305   -8.2240   22.0755 C   0  0  0  0  0  0
  -22.4286   -8.0282   21.3544 C   0  0  0  0  0  0
  -21.9928   -9.0257   20.4645 C   0  0  0  0  0  0
  -22.7265  -10.2131   20.3055 C   0  0  0  0  0  0
  -21.6855   -6.0738   22.5279 C   0  0  0  0  0  0
  -21.4016   -6.5641   23.8212 C   0  0  0  0  0  0
  -21.3659   -5.6793   24.9174 C   0  0  0  0  0  0
  -21.6044   -4.3056   24.7224 C   0  0  0  0  0  0
  -21.8819   -3.8148   23.4345 C   0  0  0  0  0  0
  -21.9193   -4.6965   22.3402 C   0  0  0  0  0  0
  -22.7753  -13.5179   21.1913 C   0  0  0  0  0  0
  -22.1662   -4.2151   21.0979 F   0  0  0  0  0  0
  -21.5628   -3.4539   25.7737 F   0  0  0  0  0  0
  -29.8521  -14.0268   20.2911 N   0  0  0  0  0  0
  -26.2800  -12.9522   20.3203 N   0  0  0  0  0  0
  -25.9334  -11.6625   20.5712 N   0  0  0  0  0  0
  -22.0412  -12.8159   22.0466 N   0  0  0  0  0  0
  -25.3994  -15.1980   20.4190 N   0  0  0  0  0  0
  -31.6411  -15.3289   20.2436 O   0  0  0  0  0  0
  -21.6644   -6.8882   21.4242 O   0  0  0  0  0  0
  -22.3432  -14.5481   20.6752 O   0  0  0  0  0  0
  -24.6680  -31.8190   23.1664 C   0  0  0  0  0  0
  -25.9338  -32.4565   23.8147 C   0  0  1  0  0  0
  -27.2188  -26.8770   20.2000 C   0  0  0  0  0  0
  -25.5985  -33.8381   24.2050 N   0  0  0  0  0  0
  -23.4850  -30.4284   21.5176 C   0  0  2  0  0  0
  -24.9384  -28.8018   20.1216 C   0  0  0  0  0  0
  -22.7689  -29.4421   22.4776 C   0  0  0  0  0  0
  -18.0326  -28.1412   22.8466 C   0  0  0  0  0  0
  -24.1494  -36.7195   23.2649 C   0  0  0  0  0  0
  -26.0575  -30.6102   21.4032 C   0  0  0  0  0  0
  -26.1259  -29.1924   20.7536 C   0  0  0  0  0  0
  -27.2630  -28.2555   20.7598 C   0  0  0  0  0  0
  -25.9986  -26.6490   19.5244 C   0  0  0  0  0  0
  -24.9025  -27.5509   19.4856 C   0  0  0  0  0  0
  -23.7285  -29.7380   20.1476 C   0  0  0  0  0  0
  -25.4138  -36.2953   24.0296 C   0  0  1  0  0  0
  -20.5953  -28.3762   23.1179 C   0  0  2  0  0  0
  -20.6801  -26.9438   22.5402 C   0  0  0  0  0  0
  -19.5774  -26.6378   21.5215 C   0  0  0  0  0  0
  -18.1957  -26.7944   22.1623 C   0  0  0  0  0  0
  -19.1588  -28.8908   23.2807 C   0  0  0  0  0  0
  -18.9497  -30.1496   23.8845 C   0  0  0  0  0  0
  -17.6490  -30.6600   24.0554 C   0  0  0  0  0  0
  -25.9105  -34.9337   23.4997 C   0  0  0  0  0  0
  -16.5380  -29.9085   23.6345 C   0  0  0  0  0  0
  -16.7308  -28.6506   23.0364 C   0  0  0  0  0  0
  -26.4571  -31.6527   25.0695 C   0  0  0  0  0  0
  -25.3683  -31.3791   26.1341 C   0  0  0  0  0  0
  -27.0477  -30.2889   24.6463 C   0  0  0  0  0  0
  -27.6050  -32.4349   25.7505 C   0  0  0  0  0  0
  -27.5565  -37.1760   24.8470 C   0  0  0  0  0  0
  -21.4354  -29.3044   22.3523 N   0  0  0  0  0  0
  -26.4280  -37.3692   23.9403 N   0  0  0  0  0  0
  -24.7588  -30.9807   22.0826 N   0  0  0  0  0  0
  -23.4213  -28.7996   23.3041 O   0  0  0  0  0  0
  -28.2209  -25.7529   20.1917 O   0  0  0  0  0  0
  -26.5721  -34.8882   22.4597 O   0  0  0  0  0  0
  -23.5738  -32.1182   23.6727 O   0  0  0  0  0  0
  -28.9058  -21.2119   20.7503 C   0  0  0  0  0  0
  -28.7460  -22.3193   18.6698 C   0  0  0  0  0  0
  -28.6153  -22.5700   20.0546 C   0  0  0  0  0  0
  -29.2550  -19.8443   20.1028 C   0  0  0  0  0  0
  -27.9790  -24.1430   20.5775 C   0  0  0  0  0  0
  -29.8304  -18.2803   20.7154 C   0  0  0  0  0  0
  -29.0562  -21.1081   18.0923 N   0  0  0  0  0  0
  -29.2962  -19.9470   18.7493 N   0  0  0  0  0  0
  -29.6328  -16.6281   20.3885 N   0  0  0  0  0  0
  -31.4473  -13.1033   19.1646 H   0  0  0  0  0  0
  -30.5400  -11.9847   20.1376 H   0  0  0  0  0  0
  -29.9306  -11.7502   17.7049 H   0  0  0  0  0  0
  -29.5444  -13.4514   17.6199 H   0  0  0  0  0  0
  -28.0649  -11.2749   19.1148 H   0  0  0  0  0  0
  -27.4175  -12.3063   17.8637 H   0  0  0  0  0  0
  -27.5065  -14.2335   19.2968 H   0  0  0  0  0  0
  -28.8371  -12.5669   21.4852 H   0  0  0  0  0  0
  -28.2671  -14.2114   21.6661 H   0  0  0  0  0  0
  -25.2779   -9.5676   22.4767 H   0  0  0  0  0  0
  -24.0008   -7.4631   22.7476 H   0  0  0  0  0  0
  -21.0859   -8.8780   19.8950 H   0  0  0  0  0  0
  -22.3725  -10.9673   19.6167 H   0  0  0  0  0  0
  -21.2009   -7.6149   23.9716 H   0  0  0  0  0  0
  -21.1481   -6.0524   25.9077 H   0  0  0  0  0  0
  -22.0598   -2.7610   23.2845 H   0  0  0  0  0  0
  -22.4048  -11.9831   22.4857 H   0  0  0  0  0  0
  -21.1021  -13.1160   22.2667 H   0  0  0  0  0  0
  -24.6265  -15.8451   20.5315 H   0  0  0  0  0  0
  -26.2353  -15.6405   20.0618 H   0  0  0  0  0  0
  -26.7410  -32.5091   23.0862 H   0  0  0  0  0  0
  -25.0076  -33.9451   25.0163 H   0  0  0  0  0  0
  -22.8011  -31.2612   21.3413 H   0  0  0  0  0  0
  -23.3764  -35.9518   23.3293 H   0  0  0  0  0  0
  -24.3564  -36.8863   22.2067 H   0  0  0  0  0  0
  -23.7247  -37.6375   23.6722 H   0  0  0  0  0  0
  -26.2406  -31.3459   20.6189 H   0  0  0  0  0  0
  -26.9163  -30.6724   22.0595 H   0  0  0  0  0  0
  -28.1680  -28.5620   21.2652 H   0  0  0  0  0  0
  -25.8674  -25.6977   19.0286 H   0  0  0  0  0  0
  -24.0024  -27.2453   18.9699 H   0  0  0  0  0  0
  -23.8918  -30.5030   19.3876 H   0  0  0  0  0  0
  -22.8366  -29.1965   19.8274 H   0  0  0  0  0  0
  -25.1340  -36.1744   25.0787 H   0  0  0  0  0  0
  -21.0039  -28.3371   24.1303 H   0  0  0  0  0  0
  -20.5678  -26.2381   23.3647 H   0  0  0  0  0  0
  -21.6663  -26.7408   22.1210 H   0  0  0  0  0  0
  -19.6932  -25.6275   21.1279 H   0  0  0  0  0  0
  -19.6711  -27.3159   20.6721 H   0  0  0  0  0  0
  -17.4225  -26.6687   21.4028 H   0  0  0  0  0  0
  -18.0351  -26.0099   22.9032 H   0  0  0  0  0  0
  -19.7972  -30.7327   24.2191 H   0  0  0  0  0  0
  -17.5040  -31.6274   24.5167 H   0  0  0  0  0  0
  -15.5378  -30.2970   23.7699 H   0  0  0  0  0  0
  -15.8709  -28.0806   22.7110 H   0  0  0  0  0  0
  -24.5885  -30.7121   25.7648 H   0  0  0  0  0  0
  -24.8850  -32.2996   26.4625 H   0  0  0  0  0  0
  -25.7903  -30.9052   27.0213 H   0  0  0  0  0  0
  -26.3158  -29.6551   24.1446 H   0  0  0  0  0  0
  -27.3968  -29.7271   25.5137 H   0  0  0  0  0  0
  -27.9114  -30.4061   23.9915 H   0  0  0  0  0  0
  -27.2608  -33.3698   26.1941 H   0  0  0  0  0  0
  -28.3936  -32.6835   25.0391 H   0  0  0  0  0  0
  -28.0635  -31.8572   26.5541 H   0  0  0  0  0  0
  -28.2576  -38.0059   24.7493 H   0  0  0  0  0  0
  -28.1066  -36.2583   24.6330 H   0  0  0  0  0  0
  -27.2276  -37.1440   25.8872 H   0  0  0  0  0  0
  -20.9622  -29.8724   21.6634 H   0  0  0  0  0  0
  -26.0124  -38.2752   24.1398 H   0  0  0  0  0  0
  -28.8536  -21.2136   21.8291 H   0  0  0  0  0  0
  -28.5483  -23.1184   17.9706 H   0  0  0  0  0  0
  -28.1265  -24.1235   21.6572 H   0  0  0  0  0  0
  -26.9028  -24.0125   20.4660 H   0  0  0  0  0  0
  -29.5945  -18.3442   21.7775 H   0  0  0  0  0  0
  -30.9133  -18.4024   20.6898 H   0  0  0  0  0  0
  -28.6490  -16.4207   20.3082 H   0  0  0  0  0  0
  1 25  1  0  0  0
  1 30  2  0  0  0
  1 79  1  0  0  0
  2  3  1  0  0  0
  2 25  1  0  0  0
  2 80  1  0  0  0
  2 81  1  0  0  0
  3  4  1  0  0  0
  3 82  1  0  0  0
  3 83  1  0  0  0
  4  5  1  0  0  0
  4 84  1  0  0  0
  4 85  1  0  0  0
  5  6  1  0  0  0
  5 26  1  0  0  0
  5 86  1  0  0  0
  6 25  1  0  0  0
  6 87  1  0  0  0
  6 88  1  0  0  0
  7  8  2  0  0  0
  7 26  1  0  0  0
  7 29  1  0  0  0
  8  9  1  0  0  0
  8 22  1  0  0  0
  9 10  1  0  0  0
  9 27  2  0  0  0
 10 11  2  0  0  0
 10 15  1  0  0  0
 11 12  1  0  0  0
 11 89  1  0  0  0
 12 13  2  0  0  0
 12 90  1  0  0  0
 13 14  1  0  0  0
 13 31  1  0  0  0
 14 15  2  0  0  0
 14 91  1  0  0  0
 15 92  1  0  0  0
 16 17  2  0  0  0
 16 21  1  0  0  0
 16 31  1  0  0  0
 17 18  1  0  0  0
 17 93  1  0  0  0
 18 19  2  0  0  0
 18 94  1  0  0  0
 19 20  1  0  0  0
 19 24  1  0  0  0
 20 21  2  0  0  0
 20 95  1  0  0  0
 21 23  1  0  0  0
 22 28  1  0  0  0
 22 32  2  0  0  0
 26 27  1  0  0  0
 28 96  1  0  0  0
 28 97  1  0  0  0
 29 98  1  0  0  0
 29 99  1  0  0  0
 33 34  1  0  0  0
 33 66  1  0  0  0
 33 70  2  0  0  0
 34 36  1  0  0  0
 34 59  1  0  0  0
 34100  1  0  0  0
 35 44  2  0  0  0
 35 45  1  0  0  0
 35 68  1  0  0  0
 36 56  1  0  0  0
 36101  1  0  0  0
 37 39  1  0  0  0
 37 47  1  0  0  0
 37 66  1  0  0  0
 37102  1  0  0  0
 38 43  2  0  0  0
 38 46  1  0  0  0
 38 47  1  0  0  0
 39 64  1  0  0  0
 39 67  2  0  0  0
 40 52  1  0  0  0
 40 53  2  0  0  0
 40 58  1  0  0  0
 41103  1  0  0  0
 41104  1  0  0  0
 41105  1  0  0  0
 41 48  1  0  0  0
 42 43  1  0  0  0
 42 66  1  0  0  0
 42106  1  0  0  0
 42107  1  0  0  0
 43 44  1  0  0  0
 44108  1  0  0  0
 45 46  2  0  0  0
 45109  1  0  0  0
 46110  1  0  0  0
 47111  1  0  0  0
 47112  1  0  0  0
 48 56  1  0  0  0
 48 65  1  0  0  0
 48113  1  0  0  0
 49 50  1  0  0  0
 49 53  1  0  0  0
 49 64  1  0  0  0
 49114  1  0  0  0
 50 51  1  0  0  0
 50115  1  0  0  0
 50116  1  0  0  0
 51 52  1  0  0  0
 51117  1  0  0  0
 51118  1  0  0  0
 52119  1  0  0  0
 52120  1  0  0  0
 53 54  1  0  0  0
 54 55  2  0  0  0
 54121  1  0  0  0
 55 57  1  0  0  0
 55122  1  0  0  0
 56 69  2  0  0  0
 57 58  2  0  0  0
 57123  1  0  0  0
 58124  1  0  0  0
 59 60  1  0  0  0
 59 61  1  0  0  0
 59 62  1  0  0  0
 60125  1  0  0  0
 60126  1  0  0  0
 60127  1  0  0  0
 61128  1  0  0  0
 61129  1  0  0  0
 61130  1  0  0  0
 62131  1  0  0  0
 62132  1  0  0  0
 62133  1  0  0  0
 63 65  1  0  0  0
 63134  1  0  0  0
 63135  1  0  0  0
 63136  1  0  0  0
 64137  1  0  0  0
 65138  1  0  0  0
 68 75  1  0  0  0
 71 73  2  0  0  0
 71 74  1  0  0  0
 71139  1  0  0  0
 72 73  1  0  0  0
 72 77  2  0  0  0
 72140  1  0  0  0
 73 75  1  0  0  0
 74 76  1  0  0  0
 74 78  2  0  0  0
 75141  1  0  0  0
 75142  1  0  0  0
 76 79  1  0  0  0
 76143  1  0  0  0
 76144  1  0  0  0
 77 78  1  0  0  0
 79145  1  0  0  0
M  ISO  4   1 100  68 101  75 101  79 100
M  END
> <chiral flag>
0

> <version>
0

> <s_m_source_file>
/data/baiqing/PycharmProjects/Reinvent-master-3.2/result/LINK_invent/BTK/process_docking_weight1_custom_sum_contain_oxygen_bond_distance_aromatic_linkinvent_7_9_3/rearranged_h_0048.sdf

> <i_m_source_file_index>
46

> <r_mmod_Potential_Energy-OPLS-2005>
1392.88720703125

> <r_mmod_Stretch_Energy-OPLS-2005>
646.137878417969

> <r_mmod_Bend_Energy-OPLS-2005>
466.627258300781

> <r_mmod_Torsional_Energy-OPLS-2005>
238.2919921875

> <r_mmod_Improper_Torsional_Energy-OPLS-2005>
6.20713901519775

> <r_mmod_Van_der_Waal_Energy-OPLS-2005>
124.897895812988

> <r_mmod_Electrostatic_Energy-OPLS-2005>
-379.562133789062

> <r_mmod_Solvation_Energy-OPLS-2005>
-249.813568115234

> <b_mmod_Minimization_Converged-OPLS-2005>
0

> <r_mmod_RMS_Derivative-OPLS-2005>
0.123808093369007

$$$$
47
                    3D
 Structure written by MMmdl.
155163  0  0  1  0            999 V2000
  -30.5994  -14.8618   20.3125 C   0  0  0  0  0  0
  -30.4357  -12.5089   19.4665 C   0  0  0  0  0  0
  -29.5101  -12.4370   18.2356 C   0  0  0  0  0  0
  -28.0316  -12.2865   18.6607 C   0  0  0  0  0  0
  -27.6169  -13.2125   19.8380 C   0  0  2  0  0  0
  -28.6863  -13.2743   20.9473 C   0  0  0  0  0  0
  -25.2453  -13.8096   20.5816 C   0  0  0  0  0  0
  -24.1724  -13.0380   20.9260 C   0  0  0  0  0  0
  -24.6305  -11.6849   20.8793 C   0  0  0  0  0  0
  -23.8988  -10.4251   21.0446 C   0  0  0  0  0  0
  -24.3570   -9.4157   21.9198 C   0  0  0  0  0  0
  -23.6263   -8.2194   22.0744 C   0  0  0  0  0  0
  -22.4243   -8.0257   21.3530 C   0  0  0  0  0  0
  -21.9860   -9.0234   20.4629 C   0  0  0  0  0  0
  -22.7182  -10.2115   20.3057 C   0  0  0  0  0  0
  -21.6837   -6.0710   22.5273 C   0  0  0  0  0  0
  -21.4028   -6.5621   23.8210 C   0  0  0  0  0  0
  -21.3655   -5.6776   24.9171 C   0  0  0  0  0  0
  -21.6042   -4.3040   24.7226 C   0  0  0  0  0  0
  -21.8819   -3.8128   23.4349 C   0  0  0  0  0  0
  -21.9188   -4.6943   22.3404 C   0  0  0  0  0  0
  -22.7757  -13.5200   21.1886 C   0  0  0  0  0  0
  -22.1641   -4.2139   21.0985 F   0  0  0  0  0  0
  -21.5616   -3.4519   25.7731 F   0  0  0  0  0  0
  -29.9593  -13.6319   20.3031 N   0  0  0  0  0  0
  -26.2837  -12.9238   20.3385 N   0  0  0  0  0  0
  -25.9222  -11.6414   20.5804 N   0  0  0  0  0  0
  -22.0364  -12.8233   22.0440 N   0  0  0  0  0  0
  -25.4206  -15.1831   20.4292 N   0  0  0  0  0  0
  -31.8317  -14.8785   20.2633 O   0  0  0  0  0  0
  -21.6608   -6.8857   21.4239 O   0  0  0  0  0  0
  -22.3490  -14.5529   20.6730 O   0  0  0  0  0  0
  -24.6293  -31.8514   23.1899 C   0  0  0  0  0  0
  -25.9101  -32.4736   23.8263 C   0  0  1  0  0  0
  -27.2363  -27.2491   20.1310 C   0  0  0  0  0  0
  -25.5867  -33.8541   24.2200 N   0  0  0  0  0  0
  -23.4289  -30.4637   21.5364 C   0  0  2  0  0  0
  -24.8807  -28.9006   20.1061 C   0  0  0  0  0  0
  -22.7496  -29.4546   22.4948 C   0  0  0  0  0  0
  -18.0265  -28.1390   22.8494 C   0  0  0  0  0  0
  -24.1470  -36.7276   23.2645 C   0  0  0  0  0  0
  -25.9695  -30.7605   21.3667 C   0  0  0  0  0  0
  -26.0460  -29.3775   20.7178 C   0  0  0  0  0  0
  -27.2191  -28.5576   20.7253 C   0  0  0  0  0  0
  -26.0519  -26.8385   19.4858 C   0  0  0  0  0  0
  -24.8894  -27.6440   19.4744 C   0  0  0  0  0  0
  -23.6422  -29.7778   20.1592 C   0  0  0  0  0  0
  -25.4101  -36.3061   24.0322 C   0  0  1  0  0  0
  -20.5872  -28.3689   23.1284 C   0  0  2  0  0  0
  -20.6749  -26.9408   22.5429 C   0  0  0  0  0  0
  -19.5721  -26.6379   21.5222 C   0  0  0  0  0  0
  -18.1910  -26.7931   22.1642 C   0  0  0  0  0  0
  -19.1524  -28.8858   23.2871 C   0  0  0  0  0  0
  -18.9454  -30.1465   23.8886 C   0  0  0  0  0  0
  -17.6454  -30.6599   24.0556 C   0  0  0  0  0  0
  -25.9054  -34.9436   23.5094 C   0  0  0  0  0  0
  -16.5340  -29.9104   23.6338 C   0  0  0  0  0  0
  -16.7250  -28.6514   23.0371 C   0  0  0  0  0  0
  -26.4476  -31.6572   25.0661 C   0  0  0  0  0  0
  -25.3692  -31.3746   26.1390 C   0  0  0  0  0  0
  -27.0322  -30.2981   24.6152 C   0  0  0  0  0  0
  -27.6020  -32.4317   25.7438 C   0  0  0  0  0  0
  -27.5557  -37.1779   24.8462 C   0  0  0  0  0  0
  -21.4200  -29.3021   22.3686 N   0  0  0  0  0  0
  -26.4264  -37.3777   23.9425 N   0  0  0  0  0  0
  -24.6960  -31.0432   22.0885 N   0  0  0  0  0  0
  -23.4186  -28.8100   23.3069 O   0  0  0  0  0  0
  -28.3503  -26.3836   20.2531 O   0  0  0  0  0  0
  -26.5666  -34.8925   22.4690 O   0  0  0  0  0  0
  -23.5432  -32.1335   23.7193 O   0  0  0  0  0  0
  -30.4383  -19.5928   19.2395 C   0  0  0  0  0  0
  -29.8087  -18.8947   20.3192 C   0  0  0  0  0  0
  -29.7187  -16.9503   17.6911 C   0  0  0  0  0  0
  -30.0882  -17.3989   20.8542 C   0  0  0  0  0  0
  -28.0899  -23.5580   19.9374 C   0  0  0  0  0  0
  -28.9713  -22.4733   20.7744 C   0  0  0  0  0  0
  -29.0678  -16.1906   18.8635 C   0  0  0  0  0  0
  -28.5468  -25.0771   19.5350 C   0  0  0  0  0  0
  -30.1115  -20.8741   19.1866 N   0  0  0  0  0  0
  -29.1073  -19.8515   20.9546 N   0  0  0  0  0  0
  -29.2955  -21.0604   20.2545 N   0  0  0  0  0  0
  -29.8732  -16.0611   20.1010 N   0  0  0  0  0  0
  -31.4736  -12.6401   19.1531 H   0  0  0  0  0  0
  -30.4092  -11.5775   20.0352 H   0  0  0  0  0  0
  -29.7978  -11.5907   17.6097 H   0  0  0  0  0  0
  -29.6467  -13.3178   17.6084 H   0  0  0  0  0  0
  -27.8892  -11.2471   18.9615 H   0  0  0  0  0  0
  -27.3760  -12.4470   17.8033 H   0  0  0  0  0  0
  -27.5153  -14.1995   19.4176 H   0  0  0  0  0  0
  -28.7662  -12.3192   21.4686 H   0  0  0  0  0  0
  -28.4169  -14.0218   21.6963 H   0  0  0  0  0  0
  -25.2709   -9.5624   22.4793 H   0  0  0  0  0  0
  -23.9946   -7.4573   22.7471 H   0  0  0  0  0  0
  -21.0757   -8.8773   19.8962 H   0  0  0  0  0  0
  -22.3634  -10.9674   19.6185 H   0  0  0  0  0  0
  -21.2042   -7.6129   23.9706 H   0  0  0  0  0  0
  -21.1460   -6.0498   25.9065 H   0  0  0  0  0  0
  -22.0606   -2.7588   23.2846 H   0  0  0  0  0  0
  -22.3943  -11.9925   22.4920 H   0  0  0  0  0  0
  -21.0997  -13.1336   22.2658 H   0  0  0  0  0  0
  -24.6676  -15.8499   20.5553 H   0  0  0  0  0  0
  -26.2891  -15.6185   20.1515 H   0  0  0  0  0  0
  -26.7163  -32.5378   23.0990 H   0  0  0  0  0  0
  -24.9887  -33.9660   25.0257 H   0  0  0  0  0  0
  -22.7229  -31.2828   21.3826 H   0  0  0  0  0  0
  -23.3728  -35.9601   23.3312 H   0  0  0  0  0  0
  -24.3551  -36.8910   22.2054 H   0  0  0  0  0  0
  -23.7212  -37.6473   23.6684 H   0  0  0  0  0  0
  -26.0906  -31.5102   20.5835 H   0  0  0  0  0  0
  -26.8548  -30.8301   21.9894 H   0  0  0  0  0  0
  -28.1080  -28.9114   21.2267 H   0  0  0  0  0  0
  -25.9953  -25.8643   19.0209 H   0  0  0  0  0  0
  -23.9945  -27.2744   18.9938 H   0  0  0  0  0  0
  -23.7419  -30.5400   19.3856 H   0  0  0  0  0  0
  -22.7692  -29.1874   19.8768 H   0  0  0  0  0  0
  -25.1278  -36.1908   25.0803 H   0  0  0  0  0  0
  -20.9940  -28.3278   24.1414 H   0  0  0  0  0  0
  -20.5648  -26.2303   23.3633 H   0  0  0  0  0  0
  -21.6613  -26.7438   22.1217 H   0  0  0  0  0  0
  -19.6894  -25.6295   21.1241 H   0  0  0  0  0  0
  -19.6649  -27.3203   20.6761 H   0  0  0  0  0  0
  -17.4166  -26.6657   21.4051 H   0  0  0  0  0  0
  -18.0311  -26.0070   22.9040 H   0  0  0  0  0  0
  -19.7941  -30.7271   24.2254 H   0  0  0  0  0  0
  -17.5025  -31.6282   24.5163 H   0  0  0  0  0  0
  -15.5355  -30.3005   23.7683 H   0  0  0  0  0  0
  -15.8639  -28.0826   22.7125 H   0  0  0  0  0  0
  -24.5863  -30.7093   25.7725 H   0  0  0  0  0  0
  -24.8869  -32.2920   26.4757 H   0  0  0  0  0  0
  -25.7982  -30.8955   27.0199 H   0  0  0  0  0  0
  -26.2914  -29.6732   24.1137 H   0  0  0  0  0  0
  -27.3972  -29.7228   25.4675 H   0  0  0  0  0  0
  -27.8800  -30.4243   23.9410 H   0  0  0  0  0  0
  -27.2630  -33.3640   26.1962 H   0  0  0  0  0  0
  -28.3855  -32.6843   25.0280 H   0  0  0  0  0  0
  -28.0667  -31.8474   26.5392 H   0  0  0  0  0  0
  -28.2583  -38.0075   24.7526 H   0  0  0  0  0  0
  -28.1044  -36.2602   24.6265 H   0  0  0  0  0  0
  -27.2279  -37.1422   25.8869 H   0  0  0  0  0  0
  -20.9420  -29.8707   21.6832 H   0  0  0  0  0  0
  -26.0135  -38.2835   24.1468 H   0  0  0  0  0  0
  -31.1590  -19.1988   18.5359 H   0  0  0  0  0  0
  -29.3150  -17.9588   17.5998 H   0  0  0  0  0  0
  -29.4845  -16.4626   16.7425 H   0  0  0  0  0  0
  -30.8054  -17.0031   17.7676 H   0  0  0  0  0  0
  -31.1389  -17.3808   21.1516 H   0  0  0  0  0  0
  -29.5536  -17.2796   21.7965 H   0  0  0  0  0  0
  -27.0967  -23.6130   20.3831 H   0  0  0  0  0  0
  -27.9153  -23.0603   18.9823 H   0  0  0  0  0  0
  -28.4709  -22.3352   21.7328 H   0  0  0  0  0  0
  -29.9218  -22.9364   21.0290 H   0  0  0  0  0  0
  -28.0720  -16.5793   19.0876 H   0  0  0  0  0  0
  -28.9156  -15.2128   18.4273 H   0  0  0  0  0  0
  -28.1524  -25.2511   18.5326 H   0  0  0  0  0  0
  -29.6234  -25.0263   19.3690 H   0  0  0  0  0  0
  1 25  1  0  0  0
  1 30  2  0  0  0
  1 82  1  0  0  0
  2  3  1  0  0  0
  2 25  1  0  0  0
  2 83  1  0  0  0
  2 84  1  0  0  0
  3  4  1  0  0  0
  3 85  1  0  0  0
  3 86  1  0  0  0
  4  5  1  0  0  0
  4 87  1  0  0  0
  4 88  1  0  0  0
  5  6  1  0  0  0
  5 26  1  0  0  0
  5 89  1  0  0  0
  6 25  1  0  0  0
  6 90  1  0  0  0
  6 91  1  0  0  0
  7  8  2  0  0  0
  7 26  1  0  0  0
  7 29  1  0  0  0
  8  9  1  0  0  0
  8 22  1  0  0  0
  9 10  1  0  0  0
  9 27  2  0  0  0
 10 11  2  0  0  0
 10 15  1  0  0  0
 11 12  1  0  0  0
 11 92  1  0  0  0
 12 13  2  0  0  0
 12 93  1  0  0  0
 13 14  1  0  0  0
 13 31  1  0  0  0
 14 15  2  0  0  0
 14 94  1  0  0  0
 15 95  1  0  0  0
 16 17  2  0  0  0
 16 21  1  0  0  0
 16 31  1  0  0  0
 17 18  1  0  0  0
 17 96  1  0  0  0
 18 19  2  0  0  0
 18 97  1  0  0  0
 19 20  1  0  0  0
 19 24  1  0  0  0
 20 21  2  0  0  0
 20 98  1  0  0  0
 21 23  1  0  0  0
 22 28  1  0  0  0
 22 32  2  0  0  0
 26 27  1  0  0  0
 28 99  1  0  0  0
 28100  1  0  0  0
 29101  1  0  0  0
 29102  1  0  0  0
 33 34  1  0  0  0
 33 66  1  0  0  0
 33 70  2  0  0  0
 34 36  1  0  0  0
 34 59  1  0  0  0
 34103  1  0  0  0
 35 44  2  0  0  0
 35 45  1  0  0  0
 35 68  1  0  0  0
 36 56  1  0  0  0
 36104  1  0  0  0
 37 39  1  0  0  0
 37 47  1  0  0  0
 37 66  1  0  0  0
 37105  1  0  0  0
 38 43  2  0  0  0
 38 46  1  0  0  0
 38 47  1  0  0  0
 39 64  1  0  0  0
 39 67  2  0  0  0
 40 52  1  0  0  0
 40 53  2  0  0  0
 40 58  1  0  0  0
 41106  1  0  0  0
 41107  1  0  0  0
 41108  1  0  0  0
 41 48  1  0  0  0
 42 43  1  0  0  0
 42 66  1  0  0  0
 42109  1  0  0  0
 42110  1  0  0  0
 43 44  1  0  0  0
 44111  1  0  0  0
 45 46  2  0  0  0
 45112  1  0  0  0
 46113  1  0  0  0
 47114  1  0  0  0
 47115  1  0  0  0
 48 56  1  0  0  0
 48 65  1  0  0  0
 48116  1  0  0  0
 49 50  1  0  0  0
 49 53  1  0  0  0
 49 64  1  0  0  0
 49117  1  0  0  0
 50 51  1  0  0  0
 50118  1  0  0  0
 50119  1  0  0  0
 51 52  1  0  0  0
 51120  1  0  0  0
 51121  1  0  0  0
 52122  1  0  0  0
 52123  1  0  0  0
 53 54  1  0  0  0
 54 55  2  0  0  0
 54124  1  0  0  0
 55 57  1  0  0  0
 55125  1  0  0  0
 56 69  2  0  0  0
 57 58  2  0  0  0
 57126  1  0  0  0
 58127  1  0  0  0
 59 60  1  0  0  0
 59 61  1  0  0  0
 59 62  1  0  0  0
 60128  1  0  0  0
 60129  1  0  0  0
 60130  1  0  0  0
 61131  1  0  0  0
 61132  1  0  0  0
 61133  1  0  0  0
 62134  1  0  0  0
 62135  1  0  0  0
 62136  1  0  0  0
 63 65  1  0  0  0
 63137  1  0  0  0
 63138  1  0  0  0
 63139  1  0  0  0
 64140  1  0  0  0
 65141  1  0  0  0
 68 78  1  0  0  0
 71 72  1  0  0  0
 71 79  2  0  0  0
 71142  1  0  0  0
 72 74  1  0  0  0
 72 80  2  0  0  0
 73 77  1  0  0  0
 73143  1  0  0  0
 73144  1  0  0  0
 73145  1  0  0  0
 74 82  1  0  0  0
 74146  1  0  0  0
 74147  1  0  0  0
 75 76  1  0  0  0
 75 78  1  0  0  0
 75148  1  0  0  0
 75149  1  0  0  0
 76 81  1  0  0  0
 76150  1  0  0  0
 76151  1  0  0  0
 77 82  1  0  0  0
 77152  1  0  0  0
 77153  1  0  0  0
 78154  1  0  0  0
 78155  1  0  0  0
 79 81  1  0  0  0
 80 81  1  0  0  0
M  ISO  4   1 100  68 101  78 101  82 100
M  END
> <chiral flag>
0

> <version>
0

> <s_m_source_file>
/data/baiqing/PycharmProjects/Reinvent-master-3.2/result/LINK_invent/BTK/process_docking_weight1_custom_sum_contain_oxygen_bond_distance_aromatic_linkinvent_7_9_3/rearranged_h_0048.sdf

> <i_m_source_file_index>
47

> <r_mmod_Potential_Energy-OPLS-2005>
460.105621337891

> <r_mmod_Stretch_Energy-OPLS-2005>
151.273162841797

> <r_mmod_Bend_Energy-OPLS-2005>
250.717498779297

> <r_mmod_Torsional_Energy-OPLS-2005>
333.076019287109

> <r_mmod_Improper_Torsional_Energy-OPLS-2005>
10.3607320785522

> <r_mmod_Van_der_Waal_Energy-OPLS-2005>
119.895538330078

> <r_mmod_Electrostatic_Energy-OPLS-2005>
-331.283538818359

> <r_mmod_Solvation_Energy-OPLS-2005>
-208.924499511719

> <b_mmod_Minimization_Converged-OPLS-2005>
0

> <r_mmod_RMS_Derivative-OPLS-2005>
3.70567154884338

$$$$
48
                    3D
 Structure written by MMmdl.
179187  0  0  1  0            999 V2000
  -30.7859  -14.6727   20.4608 C   0  0  0  0  0  0
  -30.5211  -12.3947   19.4676 C   0  0  0  0  0  0
  -29.6206  -12.4827   18.2136 C   0  0  0  0  0  0
  -28.1246  -12.4888   18.5899 C   0  0  0  0  0  0
  -27.8576  -13.5076   19.7340 C   0  0  2  0  0  0
  -28.8039  -13.2391   20.9189 C   0  0  0  0  0  0
  -25.0260  -14.3708   19.9189 C   0  0  0  0  0  0
  -23.9620  -13.4962   20.8129 C   0  0  0  0  0  0
  -24.6595  -12.1751   21.4303 C   0  0  0  0  0  0
  -23.9708  -10.7274   21.3823 C   0  0  0  0  0  0
  -24.4141   -9.5851   22.1162 C   0  0  0  0  0  0
  -23.7121   -8.3375   22.1443 C   0  0  0  0  0  0
  -22.5263   -8.1268   21.3987 C   0  0  0  0  0  0
  -22.1321   -9.1801   20.5493 C   0  0  0  0  0  0
  -22.8389  -10.4203   20.5395 C   0  0  0  0  0  0
  -21.7313   -6.1171   22.5170 C   0  0  0  0  0  0
  -21.4328   -6.5905   23.8168 C   0  0  0  0  0  0
  -21.3756   -5.6969   24.9072 C   0  0  0  0  0  0
  -21.5998   -4.3224   24.7104 C   0  0  0  0  0  0
  -21.8711   -3.8388   23.4201 C   0  0  0  0  0  0
  -21.9312   -4.7279   22.3289 C   0  0  0  0  0  0
  -22.5305  -13.7175   21.0315 C   0  0  0  0  0  0
  -22.1707   -4.2385   21.0894 F   0  0  0  0  0  0
  -21.5568   -3.4659   25.7602 F   0  0  0  0  0  0
  -30.1305  -13.4745   20.3980 N   0  0  0  0  0  0
  -26.5221  -13.4716   20.1983 N   0  0  0  0  0  0
  -26.1416  -12.2428   21.1629 N   0  0  0  0  0  0
  -21.8949  -12.9338   21.9038 N   0  0  0  0  0  0
  -25.1032  -15.6522   19.4730 N   0  0  0  0  0  0
  -31.9483  -14.7594   20.0636 O   0  0  0  0  0  0
  -21.7689   -6.9602   21.4180 O   0  0  0  0  0  0
  -22.0067  -14.6798   20.5063 O   0  0  0  0  0  0
  -24.6982  -31.7843   23.1471 C   0  0  0  0  0  0
  -25.9533  -32.4350   23.8019 C   0  0  1  0  0  0
  -26.8486  -26.3649   20.4102 C   0  0  0  0  0  0
  -25.6071  -33.8203   24.1856 N   0  0  0  0  0  0
  -23.5185  -30.3985   21.5072 C   0  0  2  0  0  0
  -24.9152  -28.7039   20.1086 C   0  0  0  0  0  0
  -22.7792  -29.4233   22.4672 C   0  0  0  0  0  0
  -18.0336  -28.1426   22.8446 C   0  0  0  0  0  0
  -24.1500  -36.7126   23.2646 C   0  0  0  0  0  0
  -26.0977  -30.3996   21.4578 C   0  0  0  0  0  0
  -26.0902  -28.9398   20.8280 C   0  0  0  0  0  0
  -27.0661  -27.7951   20.9392 C   0  0  0  0  0  0
  -25.7612  -26.4380   19.5148 C   0  0  0  0  0  0
  -24.8211  -27.4977   19.4010 C   0  0  0  0  0  0
  -23.7699  -29.7263   20.1281 C   0  0  0  0  0  0
  -25.4153  -36.2825   24.0254 C   0  0  1  0  0  0
  -20.5962  -28.3781   23.1134 C   0  0  2  0  0  0
  -20.6795  -26.9442   22.5397 C   0  0  0  0  0  0
  -19.5767  -26.6367   21.5214 C   0  0  0  0  0  0
  -18.1956  -26.7952   22.1615 C   0  0  0  0  0  0
  -19.1602  -28.8934   23.2756 C   0  0  0  0  0  0
  -18.9502  -30.1512   23.8813 C   0  0  0  0  0  0
  -17.6487  -30.6604   24.0555 C   0  0  0  0  0  0
  -25.9160  -34.9225   23.4885 C   0  0  0  0  0  0
  -16.5380  -29.9081   23.6341 C   0  0  0  0  0  0
  -16.7314  -28.6502   23.0363 C   0  0  0  0  0  0
  -26.4634  -31.6488   25.0739 C   0  0  0  0  0  0
  -25.3657  -31.3883   26.1330 C   0  0  0  0  0  0
  -27.0576  -30.2796   24.6793 C   0  0  0  0  0  0
  -27.6043  -32.4407   25.7552 C   0  0  0  0  0  0
  -27.5556  -37.1721   24.8457 C   0  0  0  0  0  0
  -21.4427  -29.3008   22.3450 N   0  0  0  0  0  0
  -26.4257  -37.3606   23.9404 N   0  0  0  0  0  0
  -24.8009  -30.9072   22.0850 N   0  0  0  0  0  0
  -23.4171  -28.7822   23.3068 O   0  0  0  0  0  0
  -27.4550  -24.9013   20.6175 O   0  0  0  0  0  0
  -26.5808  -34.8826   22.4503 O   0  0  0  0  0  0
  -23.5998  -32.1085   23.6335 O   0  0  0  0  0  0
  -28.3223  -20.5912   20.9061 C   0  0  0  0  0  0
  -26.1302  -19.8624   21.2830 C   0  0  0  0  0  0
  -27.0142  -21.2247   20.9917 C   0  0  0  0  0  0
  -28.6202  -19.1470   21.0010 C   0  0  0  0  0  0
  -26.4355  -18.2415   21.3985 C   0  0  0  0  0  0
  -24.9800  -12.3086   19.1295 C   0  0  0  0  0  0
  -21.1069  -15.8024   24.0483 C   0  0  0  0  0  0
  -23.2649  -14.7195   24.8532 C   0  0  0  0  0  0
  -26.9727  -16.4420   23.2150 C   0  0  0  0  0  0
  -24.5976  -18.3903   23.5694 C   0  0  0  0  0  0
  -26.7083  -23.1849   20.8200 C   0  0  0  0  0  0
  -30.0319  -18.5232   21.2158 C   0  0  0  0  0  0
  -25.6914  -14.4934   21.9895 C   0  0  0  0  0  0
  -30.4978  -17.2325   20.3812 C   0  0  0  0  0  0
  -23.3286  -16.4505   22.9279 C   0  0  0  0  0  0
  -22.6268  -15.9849   24.2367 C   0  0  0  0  0  0
  -25.8072  -16.5660   22.1811 C   0  0  1  0  0  0
  -27.7458  -18.1189   21.1572 N   0  0  0  0  0  0
  -30.0841  -15.8184   20.7544 N   0  0  0  0  0  0
  -24.6989  -16.9705   23.1452 N   0  3  1  0  0  0
  -31.5689  -12.4680   19.1730 H   0  0  0  0  0  0
  -30.4419  -11.4190   19.9518 H   0  0  0  0  0  0
  -29.8580  -11.6607   17.5344 H   0  0  0  0  0  0
  -29.8720  -13.3975   17.6727 H   0  0  0  0  0  0
  -27.8332  -11.4819   18.8852 H   0  0  0  0  0  0
  -27.5550  -12.7460   17.6962 H   0  0  0  0  0  0
  -28.0105  -14.5105   19.3391 H   0  0  0  0  0  0
  -28.7317  -12.2221   21.3075 H   0  0  0  0  0  0
  -28.6113  -13.9054   21.7561 H   0  0  0  0  0  0
  -25.2964   -9.6851   22.7342 H   0  0  0  0  0  0
  -24.0952   -7.5395   22.7696 H   0  0  0  0  0  0
  -21.2666   -9.0596   19.9122 H   0  0  0  0  0  0
  -22.4394  -11.1882   19.9013 H   0  0  0  0  0  0
  -21.2462   -7.6416   23.9798 H   0  0  0  0  0  0
  -21.1606   -6.0665   25.9015 H   0  0  0  0  0  0
  -22.0299   -2.7806   23.2671 H   0  0  0  0  0  0
  -22.3364  -12.1193   22.2988 H   0  0  0  0  0  0
  -20.9184  -13.1000   22.0993 H   0  0  0  0  0  0
  -24.2752  -16.1493   19.1681 H   0  0  0  0  0  0
  -25.9323  -15.9817   18.9886 H   0  0  0  0  0  0
  -26.7623  -32.4687   23.0719 H   0  0  0  0  0  0
  -25.0141  -33.9210   24.9962 H   0  0  0  0  0  0
  -22.8554  -31.2477   21.3322 H   0  0  0  0  0  0
  -23.3767  -35.9446   23.3227 H   0  0  0  0  0  0
  -24.3571  -36.8888   22.2077 H   0  0  0  0  0  0
  -23.7263  -37.6276   23.6802 H   0  0  0  0  0  0
  -26.3454  -31.0887   20.6508 H   0  0  0  0  0  0
  -26.9494  -30.4574   22.1225 H   0  0  0  0  0  0
  -27.9239  -27.9438   21.5771 H   0  0  0  0  0  0
  -25.5201  -25.5391   18.9656 H   0  0  0  0  0  0
  -23.9574  -27.3364   18.7690 H   0  0  0  0  0  0
  -24.0134  -30.4975   19.3959 H   0  0  0  0  0  0
  -22.8556  -29.2557   19.7661 H   0  0  0  0  0  0
  -25.1366  -36.1553   25.0744 H   0  0  0  0  0  0
  -21.0025  -28.3400   24.1262 H   0  0  0  0  0  0
  -20.5668  -26.2411   23.3663 H   0  0  0  0  0  0
  -21.6660  -26.7391   22.1211 H   0  0  0  0  0  0
  -19.6928  -25.6252   21.1308 H   0  0  0  0  0  0
  -19.6714  -27.3130   20.6707 H   0  0  0  0  0  0
  -17.4227  -26.6691   21.4019 H   0  0  0  0  0  0
  -18.0333  -26.0116   22.9030 H   0  0  0  0  0  0
  -19.7976  -30.7351   24.2154 H   0  0  0  0  0  0
  -17.5039  -31.6277   24.5180 H   0  0  0  0  0  0
  -15.5379  -30.2962   23.7728 H   0  0  0  0  0  0
  -15.8708  -28.0811   22.7121 H   0  0  0  0  0  0
  -24.5862  -30.7191   25.7669 H   0  0  0  0  0  0
  -24.8832  -32.3130   26.4499 H   0  0  0  0  0  0
  -25.7803  -30.9239   27.0287 H   0  0  0  0  0  0
  -26.3285  -29.6348   24.1875 H   0  0  0  0  0  0
  -27.3995  -29.7319   25.5588 H   0  0  0  0  0  0
  -27.9296  -30.3871   24.0341 H   0  0  0  0  0  0
  -27.2540  -33.3792   26.1854 H   0  0  0  0  0  0
  -28.3981  -32.6840   25.0481 H   0  0  0  0  0  0
  -28.0575  -31.8751   26.5701 H   0  0  0  0  0  0
  -28.2506  -38.0073   24.7511 H   0  0  0  0  0  0
  -28.1119  -36.2598   24.6270 H   0  0  0  0  0  0
  -27.2288  -37.1331   25.8860 H   0  0  0  0  0  0
  -20.9766  -29.8722   21.6562 H   0  0  0  0  0  0
  -26.0064  -38.2641   24.1421 H   0  0  0  0  0  0
  -29.1640  -21.2606   20.7932 H   0  0  0  0  0  0
  -25.1002  -20.1078   21.4539 H   0  0  0  0  0  0
  -25.2975  -11.2621   19.1567 H   0  0  0  0  0  0
  -25.4286  -12.6562   18.1894 H   0  0  0  0  0  0
  -23.9363  -12.2513   18.7939 H   0  0  0  0  0  0
  -20.6299  -15.4561   24.9645 H   0  0  0  0  0  0
  -20.8583  -15.0855   23.2670 H   0  0  0  0  0  0
  -20.6287  -16.7458   23.7808 H   0  0  0  0  0  0
  -22.7725  -14.4396   25.7850 H   0  0  0  0  0  0
  -24.3167  -14.8817   25.0948 H   0  0  0  0  0  0
  -23.2045  -13.8521   24.1954 H   0  0  0  0  0  0
  -27.8938  -16.0992   22.7493 H   0  0  0  0  0  0
  -26.7728  -15.7375   24.0248 H   0  0  0  0  0  0
  -27.2311  -17.3903   23.6920 H   0  0  0  0  0  0
  -24.0033  -18.4749   24.4746 H   0  0  0  0  0  0
  -24.0581  -18.9702   22.8241 H   0  0  0  0  0  0
  -25.5530  -18.8633   23.8023 H   0  0  0  0  0  0
  -26.1922  -23.3493   21.7660 H   0  0  0  0  0  0
  -25.8969  -23.2000   20.0911 H   0  0  0  0  0  0
  -30.1015  -18.2926   22.2799 H   0  0  0  0  0  0
  -30.7665  -19.3165   21.0651 H   0  0  0  0  0  0
  -26.6359  -14.1953   22.4534 H   0  0  0  0  0  0
  -25.0768  -14.2095   22.8466 H   0  0  0  0  0  0
  -31.5878  -17.2535   20.4457 H   0  0  0  0  0  0
  -30.2817  -17.3979   19.3228 H   0  0  0  0  0  0
  -22.7289  -17.1791   22.3835 H   0  0  0  0  0  0
  -23.4181  -15.6315   22.2588 H   0  0  0  0  0  0
  -22.7174  -16.7695   24.9867 H   0  0  0  0  0  0
  -29.1222  -15.6947   21.0366 H   0  0  0  0  0  0
  -24.9961  -16.5006   23.9863 H   0  0  0  0  0  0
  1 25  1  0  0  0
  1 30  2  0  0  0
  1 89  1  0  0  0
  2  3  1  0  0  0
  2 25  1  0  0  0
  2 91  1  0  0  0
  2 92  1  0  0  0
  3  4  1  0  0  0
  3 93  1  0  0  0
  3 94  1  0  0  0
  4  5  1  0  0  0
  4 95  1  0  0  0
  4 96  1  0  0  0
  5  6  1  0  0  0
  5 26  1  0  0  0
  5 97  1  0  0  0
  6 25  1  0  0  0
  6 98  1  0  0  0
  6 99  1  0  0  0
  7  8  2  0  0  0
  7 26  1  0  0  0
  7 29  1  0  0  0
  8  9  1  0  0  0
  8 22  1  0  0  0
  9 10  1  0  0  0
  9 27  2  0  0  0
 10 11  2  0  0  0
 10 15  1  0  0  0
 11 12  1  0  0  0
 11100  1  0  0  0
 12 13  2  0  0  0
 12101  1  0  0  0
 13 14  1  0  0  0
 13 31  1  0  0  0
 14 15  2  0  0  0
 14102  1  0  0  0
 15103  1  0  0  0
 16 17  2  0  0  0
 16 21  1  0  0  0
 16 31  1  0  0  0
 17 18  1  0  0  0
 17104  1  0  0  0
 18 19  2  0  0  0
 18105  1  0  0  0
 19 20  1  0  0  0
 19 24  1  0  0  0
 20 21  2  0  0  0
 20106  1  0  0  0
 21 23  1  0  0  0
 22 28  1  0  0  0
 22 32  2  0  0  0
 26 27  1  0  0  0
 28107  1  0  0  0
 28108  1  0  0  0
 29109  1  0  0  0
 29110  1  0  0  0
 33 34  1  0  0  0
 33 66  1  0  0  0
 33 70  2  0  0  0
 34 36  1  0  0  0
 34 59  1  0  0  0
 34111  1  0  0  0
 35 44  2  0  0  0
 35 45  1  0  0  0
 35 68  1  0  0  0
 36 56  1  0  0  0
 36112  1  0  0  0
 37 39  1  0  0  0
 37 47  1  0  0  0
 37 66  1  0  0  0
 37113  1  0  0  0
 38 43  2  0  0  0
 38 46  1  0  0  0
 38 47  1  0  0  0
 39 64  1  0  0  0
 39 67  2  0  0  0
 40 52  1  0  0  0
 40 53  2  0  0  0
 40 58  1  0  0  0
 41114  1  0  0  0
 41115  1  0  0  0
 41116  1  0  0  0
 41 48  1  0  0  0
 42 43  1  0  0  0
 42 66  1  0  0  0
 42117  1  0  0  0
 42118  1  0  0  0
 43 44  1  0  0  0
 44119  1  0  0  0
 45 46  2  0  0  0
 45120  1  0  0  0
 46121  1  0  0  0
 47122  1  0  0  0
 47123  1  0  0  0
 48 56  1  0  0  0
 48 65  1  0  0  0
 48124  1  0  0  0
 49 50  1  0  0  0
 49 53  1  0  0  0
 49 64  1  0  0  0
 49125  1  0  0  0
 50 51  1  0  0  0
 50126  1  0  0  0
 50127  1  0  0  0
 51 52  1  0  0  0
 51128  1  0  0  0
 51129  1  0  0  0
 52130  1  0  0  0
 52131  1  0  0  0
 53 54  1  0  0  0
 54 55  2  0  0  0
 54132  1  0  0  0
 55 57  1  0  0  0
 55133  1  0  0  0
 56 69  2  0  0  0
 57 58  2  0  0  0
 57134  1  0  0  0
 58135  1  0  0  0
 59 60  1  0  0  0
 59 61  1  0  0  0
 59 62  1  0  0  0
 60136  1  0  0  0
 60137  1  0  0  0
 60138  1  0  0  0
 61139  1  0  0  0
 61140  1  0  0  0
 61141  1  0  0  0
 62142  1  0  0  0
 62143  1  0  0  0
 62144  1  0  0  0
 63 65  1  0  0  0
 63145  1  0  0  0
 63146  1  0  0  0
 63147  1  0  0  0
 64148  1  0  0  0
 65149  1  0  0  0
 68 81  1  0  0  0
 71 73  2  0  0  0
 71 74  1  0  0  0
 71150  1  0  0  0
 72 73  1  0  0  0
 72 75  2  0  0  0
 72151  1  0  0  0
 73 81  1  0  0  0
 74 82  1  0  0  0
 74 88  2  0  0  0
 75 87  1  0  0  0
 75 88  1  0  0  0
 76 83  1  0  0  0
 76152  1  0  0  0
 76153  1  0  0  0
 76154  1  0  0  0
 77155  1  0  0  0
 77156  1  0  0  0
 77157  1  0  0  0
 77 86  1  0  0  0
 78 86  1  0  0  0
 78158  1  0  0  0
 78159  1  0  0  0
 78160  1  0  0  0
 79161  1  0  0  0
 79162  1  0  0  0
 79163  1  0  0  0
 79 87  1  0  0  0
 80164  1  0  0  0
 80165  1  0  0  0
 80166  1  0  0  0
 80 90  1  0  0  0
 81167  1  0  0  0
 81168  1  0  0  0
 82 84  1  0  0  0
 82169  1  0  0  0
 82170  1  0  0  0
 83 87  1  0  0  0
 83171  1  0  0  0
 83172  1  0  0  0
 84 89  1  0  0  0
 84173  1  0  0  0
 84174  1  0  0  0
 85 86  1  0  0  0
 85 90  1  0  0  0
 85175  1  0  0  0
 85176  1  0  0  0
 86177  1  0  0  0
 87 90  1  0  0  0
 89178  1  0  0  0
 90179  1  0  0  0
M  CHG  1  90   1
M  ISO  4   1 100  68 101  81 101  89 100
M  END
> <chiral flag>
0

> <version>
0

> <s_m_source_file>
/data/baiqing/PycharmProjects/Reinvent-master-3.2/result/LINK_invent/BTK/process_docking_weight1_custom_sum_contain_oxygen_bond_distance_aromatic_linkinvent_7_9_3/rearranged_h_0048.sdf

> <i_m_source_file_index>
48

> <r_mmod_Potential_Energy-OPLS-2005>
11538.8251953125

> <r_mmod_Stretch_Energy-OPLS-2005>
7590.1923828125

> <r_mmod_Bend_Energy-OPLS-2005>
930.225463867188

> <r_mmod_Torsional_Energy-OPLS-2005>
359.070434570312

> <r_mmod_Improper_Torsional_Energy-OPLS-2005>
31.6258239746094

> <r_mmod_Van_der_Waal_Energy-OPLS-2005>
2105.71337890625

> <r_mmod_Electrostatic_Energy-OPLS-2005>
-454.060882568359

> <r_mmod_Solvation_Energy-OPLS-2005>
-415.876434326172

> <b_mmod_Minimization_Converged-OPLS-2005>
0

> <r_mmod_RMS_Derivative-OPLS-2005>
12.9720096588135

$$$$
49
                    3D
 Structure written by MMmdl.
166174  0  0  1  0            999 V2000
  -30.5852  -14.7289   20.4648 C   0  0  0  0  0  0
  -30.4328  -12.4353   19.4886 C   0  0  0  0  0  0
  -29.5207  -12.5230   18.2447 C   0  0  0  0  0  0
  -28.0428  -12.3431   18.6378 C   0  0  0  0  0  0
  -27.6512  -13.2223   19.8592 C   0  0  2  0  0  0
  -28.6858  -13.1320   21.0034 C   0  0  0  0  0  0
  -25.2567  -13.8166   20.5648 C   0  0  0  0  0  0
  -24.1819  -13.0430   20.9177 C   0  0  0  0  0  0
  -24.6426  -11.6912   20.8719 C   0  0  0  0  0  0
  -23.9101  -10.4314   21.0407 C   0  0  0  0  0  0
  -24.3662   -9.4233   21.9186 C   0  0  0  0  0  0
  -23.6327   -8.2278   22.0759 C   0  0  0  0  0  0
  -22.4327   -8.0300   21.3540 C   0  0  0  0  0  0
  -21.9959   -9.0285   20.4657 C   0  0  0  0  0  0
  -22.7285  -10.2157   20.3054 C   0  0  0  0  0  0
  -21.6864   -6.0773   22.5301 C   0  0  0  0  0  0
  -21.4011   -6.5649   23.8231 C   0  0  0  0  0  0
  -21.3660   -5.6794   24.9187 C   0  0  0  0  0  0
  -21.6034   -4.3057   24.7241 C   0  0  0  0  0  0
  -21.8816   -3.8174   23.4343 C   0  0  0  0  0  0
  -21.9200   -4.6998   22.3414 C   0  0  0  0  0  0
  -22.7885  -13.5234   21.1885 C   0  0  0  0  0  0
  -22.1666   -4.2171   21.0997 F   0  0  0  0  0  0
  -21.5644   -3.4543   25.7759 F   0  0  0  0  0  0
  -29.9965  -13.4832   20.4433 N   0  0  0  0  0  0
  -26.2986  -12.9356   20.3256 N   0  0  0  0  0  0
  -25.9355  -11.6510   20.5763 N   0  0  0  0  0  0
  -22.0511  -12.8202   22.0392 N   0  0  0  0  0  0
  -25.4217  -15.1888   20.3964 N   0  0  0  0  0  0
  -31.7445  -14.8753   20.0722 O   0  0  0  0  0  0
  -21.6639   -6.8920   21.4269 O   0  0  0  0  0  0
  -22.3570  -14.5564   20.6765 O   0  0  0  0  0  0
  -24.6289  -31.8495   23.1904 C   0  0  0  0  0  0
  -25.9077  -32.4715   23.8305 C   0  0  1  0  0  0
  -27.2273  -27.2577   20.1377 C   0  0  0  0  0  0
  -25.5879  -33.8518   24.2244 N   0  0  0  0  0  0
  -23.4291  -30.4637   21.5321 C   0  0  2  0  0  0
  -24.8847  -28.8991   20.1131 C   0  0  0  0  0  0
  -22.7488  -29.4602   22.4920 C   0  0  0  0  0  0
  -18.0297  -28.1393   22.8473 C   0  0  0  0  0  0
  -24.1473  -36.7257   23.2650 C   0  0  0  0  0  0
  -25.9717  -30.7679   21.3710 C   0  0  0  0  0  0
  -26.0504  -29.3837   20.7228 C   0  0  0  0  0  0
  -27.2241  -28.5675   20.7325 C   0  0  0  0  0  0
  -26.0439  -26.8378   19.4969 C   0  0  0  0  0  0
  -24.8848  -27.6385   19.4955 C   0  0  0  0  0  0
  -23.6568  -29.7755   20.1541 C   0  0  0  0  0  0
  -25.4102  -36.3037   24.0326 C   0  0  1  0  0  0
  -20.5902  -28.3709   23.1242 C   0  0  2  0  0  0
  -20.6771  -26.9413   22.5376 C   0  0  0  0  0  0
  -19.5730  -26.6353   21.5185 C   0  0  0  0  0  0
  -18.1916  -26.7914   22.1649 C   0  0  0  0  0  0
  -19.1564  -28.8859   23.2851 C   0  0  0  0  0  0
  -18.9457  -30.1471   23.8841 C   0  0  0  0  0  0
  -17.6449  -30.6562   24.0549 C   0  0  0  0  0  0
  -25.9025  -34.9423   23.5092 C   0  0  0  0  0  0
  -16.5327  -29.9053   23.6331 C   0  0  0  0  0  0
  -16.7286  -28.6495   23.0330 C   0  0  0  0  0  0
  -26.4477  -31.6586   25.0737 C   0  0  0  0  0  0
  -25.3707  -31.3749   26.1467 C   0  0  0  0  0  0
  -27.0360  -30.3001   24.6281 C   0  0  0  0  0  0
  -27.6019  -32.4382   25.7505 C   0  0  0  0  0  0
  -27.5568  -37.1786   24.8470 C   0  0  0  0  0  0
  -21.4190  -29.3035   22.3634 N   0  0  0  0  0  0
  -26.4279  -37.3746   23.9403 N   0  0  0  0  0  0
  -24.6949  -31.0490   22.0893 N   0  0  0  0  0  0
  -23.4209  -28.8202   23.3055 O   0  0  0  0  0  0
  -28.3335  -26.3880   20.2339 O   0  0  0  0  0  0
  -26.5648  -34.8904   22.4681 O   0  0  0  0  0  0
  -23.5440  -32.1311   23.7191 O   0  0  0  0  0  0
  -29.7098  -20.4537   18.5123 C   0  0  0  0  0  0
  -29.9765  -21.5005   17.6902 C   0  0  0  0  0  0
  -28.9200  -22.3259   19.4981 C   0  0  0  0  0  0
  -26.4734  -20.8112   21.4722 C   0  0  0  0  0  0
  -27.7648  -19.4956   23.1359 C   0  0  0  0  0  0
  -31.1558  -19.0498   21.2059 C   0  0  0  0  0  0
  -28.2440  -23.5701   20.2287 C   0  0  0  0  0  0
  -29.7251  -17.2185   20.0855 C   0  0  0  0  0  0
  -28.4462  -25.0575   19.5562 C   0  0  0  0  0  0
  -27.9050  -20.4191   21.9058 C   0  0  0  0  0  0
  -29.7039  -18.5653   20.9963 C   0  0  1  0  0  0
  -28.6751  -19.8276   20.6731 C   0  0  1  0  0  0
  -29.1030  -20.9258   19.6537 N   0  0  0  0  0  0
  -29.5219  -22.6106   18.3333 N   0  3  0  0  0  0
  -29.7597  -15.8126   20.7051 N   0  0  0  0  0  0
  -31.4760  -12.5500   19.1866 H   0  0  0  0  0  0
  -30.3612  -11.4475   19.9531 H   0  0  0  0  0  0
  -29.8116  -11.7736   17.5057 H   0  0  0  0  0  0
  -29.6550  -13.4958   17.7667 H   0  0  0  0  0  0
  -27.8822  -11.2869   18.8660 H   0  0  0  0  0  0
  -27.3993  -12.5779   17.7837 H   0  0  0  0  0  0
  -27.6526  -14.2562   19.5118 H   0  0  0  0  0  0
  -28.7080  -12.1334   21.4386 H   0  0  0  0  0  0
  -28.4094  -13.7989   21.8198 H   0  0  0  0  0  0
  -25.2814   -9.5697   22.4736 H   0  0  0  0  0  0
  -24.0044   -7.4667   22.7453 H   0  0  0  0  0  0
  -21.0896   -8.8810   19.8962 H   0  0  0  0  0  0
  -22.3748  -10.9701   19.6164 H   0  0  0  0  0  0
  -21.1953   -7.6153   23.9732 H   0  0  0  0  0  0
  -21.1492   -6.0528   25.9079 H   0  0  0  0  0  0
  -22.0589   -2.7633   23.2848 H   0  0  0  0  0  0
  -22.4186  -11.9857   22.4714 H   0  0  0  0  0  0
  -21.1155  -13.1239   22.2651 H   0  0  0  0  0  0
  -24.6480  -15.8395   20.4939 H   0  0  0  0  0  0
  -26.2633  -15.6300   20.0446 H   0  0  0  0  0  0
  -26.7195  -32.5412   23.1098 H   0  0  0  0  0  0
  -24.9928  -33.9660   25.0341 H   0  0  0  0  0  0
  -22.7261  -31.2800   21.3562 H   0  0  0  0  0  0
  -23.3732  -35.9601   23.3308 H   0  0  0  0  0  0
  -24.3556  -36.8883   22.2066 H   0  0  0  0  0  0
  -23.7237  -37.6457   23.6691 H   0  0  0  0  0  0
  -26.1102  -31.5359   20.6022 H   0  0  0  0  0  0
  -26.8418  -30.8198   22.0140 H   0  0  0  0  0  0
  -28.1169  -28.9276   21.2346 H   0  0  0  0  0  0
  -25.9746  -25.8690   19.0272 H   0  0  0  0  0  0
  -23.9846  -27.2549   19.0340 H   0  0  0  0  0  0
  -23.7735  -30.5247   19.3730 H   0  0  0  0  0  0
  -22.7855  -29.1848   19.8634 H   0  0  0  0  0  0
  -25.1297  -36.1866   25.0831 H   0  0  0  0  0  0
  -21.0027  -28.3203   24.1341 H   0  0  0  0  0  0
  -20.5611  -26.2364   23.3612 H   0  0  0  0  0  0
  -21.6675  -26.7333   22.1260 H   0  0  0  0  0  0
  -19.6922  -25.6286   21.1188 H   0  0  0  0  0  0
  -19.6645  -27.3114   20.6715 H   0  0  0  0  0  0
  -17.4198  -26.6577   21.4077 H   0  0  0  0  0  0
  -18.0285  -26.0059   22.9025 H   0  0  0  0  0  0
  -19.7905  -30.7292   24.2199 H   0  0  0  0  0  0
  -17.4981  -31.6214   24.5137 H   0  0  0  0  0  0
  -15.5345  -30.2949   23.7693 H   0  0  0  0  0  0
  -15.8678  -28.0798   22.7104 H   0  0  0  0  0  0
  -24.5878  -30.7077   25.7812 H   0  0  0  0  0  0
  -24.8891  -32.2919   26.4874 H   0  0  0  0  0  0
  -25.8025  -30.8959   27.0246 H   0  0  0  0  0  0
  -26.2987  -29.6719   24.1250 H   0  0  0  0  0  0
  -27.3941  -29.7298   25.4846 H   0  0  0  0  0  0
  -27.8885  -30.4232   23.9596 H   0  0  0  0  0  0
  -27.2586  -33.3688   26.2027 H   0  0  0  0  0  0
  -28.3839  -32.6925   25.0348 H   0  0  0  0  0  0
  -28.0666  -31.8552   26.5463 H   0  0  0  0  0  0
  -28.2595  -38.0070   24.7496 H   0  0  0  0  0  0
  -28.1046  -36.2600   24.6316 H   0  0  0  0  0  0
  -27.2280  -37.1456   25.8873 H   0  0  0  0  0  0
  -20.9396  -29.8694   21.6775 H   0  0  0  0  0  0
  -26.0137  -38.2813   24.1417 H   0  0  0  0  0  0
  -29.9024  -19.4067   18.3489 H   0  0  0  0  0  0
  -30.4402  -21.5336   16.7206 H   0  0  0  0  0  0
  -25.9747  -21.4400   22.2099 H   0  0  0  0  0  0
  -25.8631  -19.9188   21.3383 H   0  0  0  0  0  0
  -26.4555  -21.3396   20.5221 H   0  0  0  0  0  0
  -27.3461  -18.5267   22.8548 H   0  0  0  0  0  0
  -27.1012  -19.9257   23.8859 H   0  0  0  0  0  0
  -28.7148  -19.3238   23.6374 H   0  0  0  0  0  0
  -31.2086  -19.8788   21.9120 H   0  0  0  0  0  0
  -31.6219  -19.3812   20.2778 H   0  0  0  0  0  0
  -31.7775  -18.2535   21.6206 H   0  0  0  0  0  0
  -27.1730  -23.3587   20.2458 H   0  0  0  0  0  0
  -28.5788  -23.5473   21.2646 H   0  0  0  0  0  0
  -30.5459  -17.2808   19.3660 H   0  0  0  0  0  0
  -28.8170  -17.2156   19.4787 H   0  0  0  0  0  0
  -29.5014  -25.0651   19.2992 H   0  0  0  0  0  0
  -27.9612  -25.1267   18.5763 H   0  0  0  0  0  0
  -28.4368  -21.3132   22.2457 H   0  0  0  0  0  0
  -29.4160  -18.1458   21.9548 H   0  0  0  0  0  0
  -27.8938  -19.2983   20.1297 H   0  0  0  0  0  0
  -29.6572  -23.5467   17.9611 H   0  0  0  0  0  0
  -28.8756  -15.5120   21.0839 H   0  0  0  0  0  0
  1 25  1  0  0  0
  1 30  2  0  0  0
  1 85  1  0  0  0
  2  3  1  0  0  0
  2 25  1  0  0  0
  2 86  1  0  0  0
  2 87  1  0  0  0
  3  4  1  0  0  0
  3 88  1  0  0  0
  3 89  1  0  0  0
  4  5  1  0  0  0
  4 90  1  0  0  0
  4 91  1  0  0  0
  5  6  1  0  0  0
  5 26  1  0  0  0
  5 92  1  0  0  0
  6 25  1  0  0  0
  6 93  1  0  0  0
  6 94  1  0  0  0
  7  8  2  0  0  0
  7 26  1  0  0  0
  7 29  1  0  0  0
  8  9  1  0  0  0
  8 22  1  0  0  0
  9 10  1  0  0  0
  9 27  2  0  0  0
 10 11  2  0  0  0
 10 15  1  0  0  0
 11 12  1  0  0  0
 11 95  1  0  0  0
 12 13  2  0  0  0
 12 96  1  0  0  0
 13 14  1  0  0  0
 13 31  1  0  0  0
 14 15  2  0  0  0
 14 97  1  0  0  0
 15 98  1  0  0  0
 16 17  2  0  0  0
 16 21  1  0  0  0
 16 31  1  0  0  0
 17 18  1  0  0  0
 17 99  1  0  0  0
 18 19  2  0  0  0
 18100  1  0  0  0
 19 20  1  0  0  0
 19 24  1  0  0  0
 20 21  2  0  0  0
 20101  1  0  0  0
 21 23  1  0  0  0
 22 28  1  0  0  0
 22 32  2  0  0  0
 26 27  1  0  0  0
 28102  1  0  0  0
 28103  1  0  0  0
 29104  1  0  0  0
 29105  1  0  0  0
 33 34  1  0  0  0
 33 66  1  0  0  0
 33 70  2  0  0  0
 34 36  1  0  0  0
 34 59  1  0  0  0
 34106  1  0  0  0
 35 44  2  0  0  0
 35 45  1  0  0  0
 35 68  1  0  0  0
 36 56  1  0  0  0
 36107  1  0  0  0
 37 39  1  0  0  0
 37 47  1  0  0  0
 37 66  1  0  0  0
 37108  1  0  0  0
 38 43  2  0  0  0
 38 46  1  0  0  0
 38 47  1  0  0  0
 39 64  1  0  0  0
 39 67  2  0  0  0
 40 52  1  0  0  0
 40 53  2  0  0  0
 40 58  1  0  0  0
 41109  1  0  0  0
 41110  1  0  0  0
 41111  1  0  0  0
 41 48  1  0  0  0
 42 43  1  0  0  0
 42 66  1  0  0  0
 42112  1  0  0  0
 42113  1  0  0  0
 43 44  1  0  0  0
 44114  1  0  0  0
 45 46  2  0  0  0
 45115  1  0  0  0
 46116  1  0  0  0
 47117  1  0  0  0
 47118  1  0  0  0
 48 56  1  0  0  0
 48 65  1  0  0  0
 48119  1  0  0  0
 49 50  1  0  0  0
 49 53  1  0  0  0
 49 64  1  0  0  0
 49120  1  0  0  0
 50 51  1  0  0  0
 50121  1  0  0  0
 50122  1  0  0  0
 51 52  1  0  0  0
 51123  1  0  0  0
 51124  1  0  0  0
 52125  1  0  0  0
 52126  1  0  0  0
 53 54  1  0  0  0
 54 55  2  0  0  0
 54127  1  0  0  0
 55 57  1  0  0  0
 55128  1  0  0  0
 56 69  2  0  0  0
 57 58  2  0  0  0
 57129  1  0  0  0
 58130  1  0  0  0
 59 60  1  0  0  0
 59 61  1  0  0  0
 59 62  1  0  0  0
 60131  1  0  0  0
 60132  1  0  0  0
 60133  1  0  0  0
 61134  1  0  0  0
 61135  1  0  0  0
 61136  1  0  0  0
 62137  1  0  0  0
 62138  1  0  0  0
 62139  1  0  0  0
 63 65  1  0  0  0
 63140  1  0  0  0
 63141  1  0  0  0
 63142  1  0  0  0
 64143  1  0  0  0
 65144  1  0  0  0
 68 79  1  0  0  0
 71 72  2  0  0  0
 71 83  1  0  0  0
 71145  1  0  0  0
 72 84  1  0  0  0
 72146  1  0  0  0
 73 77  1  0  0  0
 73 83  1  0  0  0
 73 84  2  0  0  0
 74147  1  0  0  0
 74148  1  0  0  0
 74149  1  0  0  0
 74 80  1  0  0  0
 75 80  1  0  0  0
 75150  1  0  0  0
 75151  1  0  0  0
 75152  1  0  0  0
 76153  1  0  0  0
 76154  1  0  0  0
 76155  1  0  0  0
 76 81  1  0  0  0
 77 79  1  0  0  0
 77156  1  0  0  0
 77157  1  0  0  0
 78 81  1  0  0  0
 78 85  1  0  0  0
 78158  1  0  0  0
 78159  1  0  0  0
 79160  1  0  0  0
 79161  1  0  0  0
 80 82  1  0  0  0
 80162  1  0  0  0
 81 82  1  0  0  0
 81163  1  0  0  0
 82 83  1  0  0  0
 82164  1  0  0  0
 84165  1  0  0  0
 85166  1  0  0  0
M  CHG  1  84   1
M  ISO  4   1 100  68 101  79 101  85 100
M  END
> <chiral flag>
0

> <version>
0

> <s_m_source_file>
/data/baiqing/PycharmProjects/Reinvent-master-3.2/result/LINK_invent/BTK/process_docking_weight1_custom_sum_contain_oxygen_bond_distance_aromatic_linkinvent_7_9_3/rearranged_h_0048.sdf

> <i_m_source_file_index>
49

> <r_mmod_Potential_Energy-OPLS-2005>
262.989959716797

> <r_mmod_Stretch_Energy-OPLS-2005>
158.545486450195

> <r_mmod_Bend_Energy-OPLS-2005>
258.398956298828

> <r_mmod_Torsional_Energy-OPLS-2005>
276.087036132812

> <r_mmod_Improper_Torsional_Energy-OPLS-2005>
7.99635791778564

> <r_mmod_Van_der_Waal_Energy-OPLS-2005>
120.522354125977

> <r_mmod_Electrostatic_Energy-OPLS-2005>
-208.544372558594

> <r_mmod_Solvation_Energy-OPLS-2005>
-432.982757568359

> <b_mmod_Minimization_Converged-OPLS-2005>
0

> <r_mmod_RMS_Derivative-OPLS-2005>
10.3505840301514

$$$$
50
                    3D
 Structure written by MMmdl.
162170  0  0  1  0            999 V2000
  -30.5305  -15.0035   20.3538 C   0  0  0  0  0  0
  -30.4370  -12.6179   19.4862 C   0  0  0  0  0  0
  -29.5192  -12.4922   18.2515 C   0  0  0  0  0  0
  -28.0498  -12.2947   18.6785 C   0  0  0  0  0  0
  -27.6191  -13.2392   19.8338 C   0  0  2  0  0  0
  -28.6711  -13.3264   20.9540 C   0  0  0  0  0  0
  -25.2458  -13.8186   20.5769 C   0  0  0  0  0  0
  -24.1757  -13.0420   20.9244 C   0  0  0  0  0  0
  -24.6360  -11.6899   20.8775 C   0  0  0  0  0  0
  -23.9052  -10.4275   21.0417 C   0  0  0  0  0  0
  -24.3609   -9.4191   21.9192 C   0  0  0  0  0  0
  -23.6286   -8.2228   22.0755 C   0  0  0  0  0  0
  -22.4268   -8.0269   21.3547 C   0  0  0  0  0  0
  -21.9903   -9.0236   20.4643 C   0  0  0  0  0  0
  -22.7227  -10.2120   20.3056 C   0  0  0  0  0  0
  -21.6849   -6.0732   22.5281 C   0  0  0  0  0  0
  -21.4011   -6.5637   23.8212 C   0  0  0  0  0  0
  -21.3658   -5.6794   24.9173 C   0  0  0  0  0  0
  -21.6044   -4.3057   24.7226 C   0  0  0  0  0  0
  -21.8820   -3.8147   23.4346 C   0  0  0  0  0  0
  -21.9189   -4.6963   22.3403 C   0  0  0  0  0  0
  -22.7780  -13.5205   21.1881 C   0  0  0  0  0  0
  -22.1659   -4.2148   21.0982 F   0  0  0  0  0  0
  -21.5629   -3.4541   25.7740 F   0  0  0  0  0  0
  -29.9202  -13.7475   20.3088 N   0  0  0  0  0  0
  -26.2852  -12.9382   20.3306 N   0  0  0  0  0  0
  -25.9297  -11.6523   20.5798 N   0  0  0  0  0  0
  -22.0428  -12.8196   22.0437 N   0  0  0  0  0  0
  -25.4177  -15.1915   20.4239 N   0  0  0  0  0  0
  -31.7661  -15.0049   20.2760 O   0  0  0  0  0  0
  -21.6635   -6.8867   21.4239 O   0  0  0  0  0  0
  -22.3465  -14.5506   20.6714 O   0  0  0  0  0  0
  -24.6461  -31.8422   23.1856 C   0  0  0  0  0  0
  -25.9220  -32.4684   23.8260 C   0  0  1  0  0  0
  -27.2092  -27.1084   20.1607 C   0  0  0  0  0  0
  -25.5963  -33.8498   24.2181 N   0  0  0  0  0  0
  -23.4515  -30.4601   21.5324 C   0  0  2  0  0  0
  -24.9001  -28.8806   20.1117 C   0  0  0  0  0  0
  -22.7580  -29.4535   22.4853 C   0  0  0  0  0  0
  -18.0309  -28.1401   22.8468 C   0  0  0  0  0  0
  -24.1489  -36.7243   23.2642 C   0  0  0  0  0  0
  -26.0094  -30.7061   21.3884 C   0  0  0  0  0  0
  -26.0792  -29.3140   20.7325 C   0  0  0  0  0  0
  -27.2387  -28.4449   20.7368 C   0  0  0  0  0  0
  -26.0078  -26.7838   19.4995 C   0  0  0  0  0  0
  -24.8779  -27.6293   19.4788 C   0  0  0  0  0  0
  -23.6795  -29.7879   20.1526 C   0  0  0  0  0  0
  -25.4124  -36.3022   24.0310 C   0  0  1  0  0  0
  -20.5923  -28.3731   23.1232 C   0  0  2  0  0  0
  -20.6791  -26.9432   22.5407 C   0  0  0  0  0  0
  -19.5763  -26.6383   21.5220 C   0  0  0  0  0  0
  -18.1944  -26.7937   22.1623 C   0  0  0  0  0  0
  -19.1566  -28.8883   23.2842 C   0  0  0  0  0  0
  -18.9480  -30.1477   23.8871 C   0  0  0  0  0  0
  -17.6477  -30.6594   24.0558 C   0  0  0  0  0  0
  -25.9081  -34.9400   23.5054 C   0  0  0  0  0  0
  -16.5368  -29.9085   23.6337 C   0  0  0  0  0  0
  -16.7295  -28.6505   23.0354 C   0  0  0  0  0  0
  -26.4536  -31.6561   25.0709 C   0  0  0  0  0  0
  -25.3715  -31.3759   26.1401 C   0  0  0  0  0  0
  -27.0411  -30.2951   24.6315 C   0  0  0  0  0  0
  -27.6061  -32.4332   25.7500 C   0  0  0  0  0  0
  -27.5570  -37.1776   24.8467 C   0  0  0  0  0  0
  -21.4270  -29.3049   22.3599 N   0  0  0  0  0  0
  -26.4279  -37.3739   23.9413 N   0  0  0  0  0  0
  -24.7224  -31.0251   22.0905 N   0  0  0  0  0  0
  -23.4205  -28.8083   23.3017 O   0  0  0  0  0  0
  -28.2377  -26.0905   20.1738 O   0  0  0  0  0  0
  -26.5667  -34.8899   22.4632 O   0  0  0  0  0  0
  -23.5569  -32.1325   23.7044 O   0  0  0  0  0  0
  -27.3035  -20.7431   19.4201 C   0  0  0  0  0  0
  -28.3069  -19.5280   19.1936 C   0  0  0  0  0  0
  -27.6858  -22.2693   19.1913 C   0  0  0  0  0  0
  -29.4851  -20.4918   21.2268 C   0  0  0  0  0  0
  -29.5698  -22.1029   20.8208 C   0  0  0  0  0  0
  -29.4803  -19.2157   20.1973 C   0  0  1  0  0  0
  -28.2680  -22.9996   20.4396 C   0  0  1  0  0  0
  -28.4450  -16.2589   17.8943 C   0  0  0  0  0  0
  -29.6569  -17.6039   20.7953 C   0  0  0  0  0  0
  -27.9405  -24.6655   20.7490 C   0  0  0  0  0  0
  -29.8122  -16.4823   18.5627 C   0  0  0  0  0  0
  -29.8110  -16.2129   20.0174 N   0  0  0  0  0  0
  -31.4653  -12.7880   19.1646 H   0  0  0  0  0  0
  -30.4492  -11.6904   20.0614 H   0  0  0  0  0  0
  -29.8406  -11.6575   17.6280 H   0  0  0  0  0  0
  -29.6157  -13.3825   17.6309 H   0  0  0  0  0  0
  -27.9458  -11.2583   19.0015 H   0  0  0  0  0  0
  -27.3847  -12.4115   17.8218 H   0  0  0  0  0  0
  -27.5534  -14.2304   19.4000 H   0  0  0  0  0  0
  -28.7861  -12.3731   21.4718 H   0  0  0  0  0  0
  -28.3692  -14.0612   21.7026 H   0  0  0  0  0  0
  -25.2748   -9.5680   22.4774 H   0  0  0  0  0  0
  -23.9998   -7.4621   22.7472 H   0  0  0  0  0  0
  -21.0838   -8.8743   19.8948 H   0  0  0  0  0  0
  -22.3673  -10.9660   19.6170 H   0  0  0  0  0  0
  -21.2003   -7.6145   23.9714 H   0  0  0  0  0  0
  -21.1482   -6.0524   25.9077 H   0  0  0  0  0  0
  -22.0602   -2.7610   23.2847 H   0  0  0  0  0  0
  -22.4044  -11.9860   22.4835 H   0  0  0  0  0  0
  -21.1041  -13.1209   22.2633 H   0  0  0  0  0  0
  -24.6586  -15.8517   20.5519 H   0  0  0  0  0  0
  -26.2834  -15.6318   20.1405 H   0  0  0  0  0  0
  -26.7282  -32.5281   23.0982 H   0  0  0  0  0  0
  -25.0101  -33.9621   25.0322 H   0  0  0  0  0  0
  -22.7560  -31.2872   21.3741 H   0  0  0  0  0  0
  -23.3757  -35.9570   23.3297 H   0  0  0  0  0  0
  -24.3570  -36.8891   22.2059 H   0  0  0  0  0  0
  -23.7244  -37.6433   23.6688 H   0  0  0  0  0  0
  -26.1684  -31.4565   20.6124 H   0  0  0  0  0  0
  -26.8790  -30.7584   22.0319 H   0  0  0  0  0  0
  -28.1385  -28.7712   21.2385 H   0  0  0  0  0  0
  -25.9263  -25.8229   19.0111 H   0  0  0  0  0  0
  -23.9795  -27.2913   18.9809 H   0  0  0  0  0  0
  -23.8194  -30.5622   19.3972 H   0  0  0  0  0  0
  -22.7931  -29.2330   19.8404 H   0  0  0  0  0  0
  -25.1313  -36.1837   25.0801 H   0  0  0  0  0  0
  -21.0019  -28.3308   24.1352 H   0  0  0  0  0  0
  -20.5693  -26.2344   23.3626 H   0  0  0  0  0  0
  -21.6654  -26.7438   22.1197 H   0  0  0  0  0  0
  -19.6930  -25.6294   21.1255 H   0  0  0  0  0  0
  -19.6691  -27.3185   20.6741 H   0  0  0  0  0  0
  -17.4216  -26.6690   21.4020 H   0  0  0  0  0  0
  -18.0324  -26.0098   22.9033 H   0  0  0  0  0  0
  -19.7961  -30.7299   24.2222 H   0  0  0  0  0  0
  -17.5033  -31.6271   24.5167 H   0  0  0  0  0  0
  -15.5366  -30.2976   23.7685 H   0  0  0  0  0  0
  -15.8695  -28.0817   22.7084 H   0  0  0  0  0  0
  -24.5912  -30.7088   25.7721 H   0  0  0  0  0  0
  -24.8890  -32.2946   26.4742 H   0  0  0  0  0  0
  -25.7994  -30.8992   27.0232 H   0  0  0  0  0  0
  -26.3040  -29.6661   24.1310 H   0  0  0  0  0  0
  -27.4009  -29.7260   25.4899 H   0  0  0  0  0  0
  -27.8951  -30.4186   23.9653 H   0  0  0  0  0  0
  -27.2657  -33.3667   26.1994 H   0  0  0  0  0  0
  -28.3914  -32.6844   25.0354 H   0  0  0  0  0  0
  -28.0681  -31.8518   26.5490 H   0  0  0  0  0  0
  -28.2576  -38.0078   24.7508 H   0  0  0  0  0  0
  -28.1076  -36.2610   24.6296 H   0  0  0  0  0  0
  -27.2292  -37.1424   25.8870 H   0  0  0  0  0  0
  -20.9483  -29.8758   21.6772 H   0  0  0  0  0  0
  -26.0139  -38.2805   24.1418 H   0  0  0  0  0  0
  -26.8179  -20.6320   20.3908 H   0  0  0  0  0  0
  -26.4926  -20.5543   18.7143 H   0  0  0  0  0  0
  -28.7148  -19.6012   18.1848 H   0  0  0  0  0  0
  -27.6795  -18.6415   19.1742 H   0  0  0  0  0  0
  -26.7752  -22.7982   18.9058 H   0  0  0  0  0  0
  -28.3575  -22.3690   18.3379 H   0  0  0  0  0  0
  -28.6441  -20.3724   21.9106 H   0  0  0  0  0  0
  -30.3534  -20.3191   21.8640 H   0  0  0  0  0  0
  -30.3151  -22.2192   20.0333 H   0  0  0  0  0  0
  -30.0151  -22.6003   21.6830 H   0  0  0  0  0  0
  -30.3911  -19.3697   19.6168 H   0  0  0  0  0  0
  -27.6019  -22.6330   21.2227 H   0  0  0  0  0  0
  -28.2970  -15.2173   17.6199 H   0  0  0  0  0  0
  -28.3756  -16.8303   16.9680 H   0  0  0  0  0  0
  -27.6124  -16.5568   18.5303 H   0  0  0  0  0  0
  -28.8072  -17.4418   21.4586 H   0  0  0  0  0  0
  -30.5153  -17.6317   21.4683 H   0  0  0  0  0  0
  -28.2707  -24.7877   21.7811 H   0  0  0  0  0  0
  -26.8550  -24.6637   20.8494 H   0  0  0  0  0  0
  -30.1475  -17.4970   18.3625 H   0  0  0  0  0  0
  -30.5478  -15.8696   18.0346 H   0  0  0  0  0  0
  1 25  1  0  0  0
  1 30  2  0  0  0
  1 82  1  0  0  0
  2  3  1  0  0  0
  2 25  1  0  0  0
  2 83  1  0  0  0
  2 84  1  0  0  0
  3  4  1  0  0  0
  3 85  1  0  0  0
  3 86  1  0  0  0
  4  5  1  0  0  0
  4 87  1  0  0  0
  4 88  1  0  0  0
  5  6  1  0  0  0
  5 26  1  0  0  0
  5 89  1  0  0  0
  6 25  1  0  0  0
  6 90  1  0  0  0
  6 91  1  0  0  0
  7  8  2  0  0  0
  7 26  1  0  0  0
  7 29  1  0  0  0
  8  9  1  0  0  0
  8 22  1  0  0  0
  9 10  1  0  0  0
  9 27  2  0  0  0
 10 11  2  0  0  0
 10 15  1  0  0  0
 11 12  1  0  0  0
 11 92  1  0  0  0
 12 13  2  0  0  0
 12 93  1  0  0  0
 13 14  1  0  0  0
 13 31  1  0  0  0
 14 15  2  0  0  0
 14 94  1  0  0  0
 15 95  1  0  0  0
 16 17  2  0  0  0
 16 21  1  0  0  0
 16 31  1  0  0  0
 17 18  1  0  0  0
 17 96  1  0  0  0
 18 19  2  0  0  0
 18 97  1  0  0  0
 19 20  1  0  0  0
 19 24  1  0  0  0
 20 21  2  0  0  0
 20 98  1  0  0  0
 21 23  1  0  0  0
 22 28  1  0  0  0
 22 32  2  0  0  0
 26 27  1  0  0  0
 28 99  1  0  0  0
 28100  1  0  0  0
 29101  1  0  0  0
 29102  1  0  0  0
 33 34  1  0  0  0
 33 66  1  0  0  0
 33 70  2  0  0  0
 34 36  1  0  0  0
 34 59  1  0  0  0
 34103  1  0  0  0
 35 44  2  0  0  0
 35 45  1  0  0  0
 35 68  1  0  0  0
 36 56  1  0  0  0
 36104  1  0  0  0
 37 39  1  0  0  0
 37 47  1  0  0  0
 37 66  1  0  0  0
 37105  1  0  0  0
 38 43  2  0  0  0
 38 46  1  0  0  0
 38 47  1  0  0  0
 39 64  1  0  0  0
 39 67  2  0  0  0
 40 52  1  0  0  0
 40 53  2  0  0  0
 40 58  1  0  0  0
 41106  1  0  0  0
 41107  1  0  0  0
 41108  1  0  0  0
 41 48  1  0  0  0
 42 43  1  0  0  0
 42 66  1  0  0  0
 42109  1  0  0  0
 42110  1  0  0  0
 43 44  1  0  0  0
 44111  1  0  0  0
 45 46  2  0  0  0
 45112  1  0  0  0
 46113  1  0  0  0
 47114  1  0  0  0
 47115  1  0  0  0
 48 56  1  0  0  0
 48 65  1  0  0  0
 48116  1  0  0  0
 49 50  1  0  0  0
 49 53  1  0  0  0
 49 64  1  0  0  0
 49117  1  0  0  0
 50 51  1  0  0  0
 50118  1  0  0  0
 50119  1  0  0  0
 51 52  1  0  0  0
 51120  1  0  0  0
 51121  1  0  0  0
 52122  1  0  0  0
 52123  1  0  0  0
 53 54  1  0  0  0
 54 55  2  0  0  0
 54124  1  0  0  0
 55 57  1  0  0  0
 55125  1  0  0  0
 56 69  2  0  0  0
 57 58  2  0  0  0
 57126  1  0  0  0
 58127  1  0  0  0
 59 60  1  0  0  0
 59 61  1  0  0  0
 59 62  1  0  0  0
 60128  1  0  0  0
 60129  1  0  0  0
 60130  1  0  0  0
 61131  1  0  0  0
 61132  1  0  0  0
 61133  1  0  0  0
 62134  1  0  0  0
 62135  1  0  0  0
 62136  1  0  0  0
 63 65  1  0  0  0
 63137  1  0  0  0
 63138  1  0  0  0
 63139  1  0  0  0
 64140  1  0  0  0
 65141  1  0  0  0
 68 80  1  0  0  0
 71 72  1  0  0  0
 71 73  1  0  0  0
 71142  1  0  0  0
 71143  1  0  0  0
 72 76  1  0  0  0
 72144  1  0  0  0
 72145  1  0  0  0
 73 77  1  0  0  0
 73146  1  0  0  0
 73147  1  0  0  0
 74 75  1  0  0  0
 74 76  1  0  0  0
 74148  1  0  0  0
 74149  1  0  0  0
 75 77  1  0  0  0
 75150  1  0  0  0
 75151  1  0  0  0
 76 79  1  0  0  0
 76152  1  0  0  0
 77 80  1  0  0  0
 77153  1  0  0  0
 78 81  1  0  0  0
 78154  1  0  0  0
 78155  1  0  0  0
 78156  1  0  0  0
 79 82  1  0  0  0
 79157  1  0  0  0
 79158  1  0  0  0
 80159  1  0  0  0
 80160  1  0  0  0
 81 82  1  0  0  0
 81161  1  0  0  0
 81162  1  0  0  0
M  ISO  4   1 100  68 101  80 101  82 100
M  END
> <chiral flag>
0

> <version>
0

> <s_m_source_file>
/data/baiqing/PycharmProjects/Reinvent-master-3.2/result/LINK_invent/BTK/process_docking_weight1_custom_sum_contain_oxygen_bond_distance_aromatic_linkinvent_7_9_3/rearranged_h_0048.sdf

> <i_m_source_file_index>
50

> <r_mmod_Potential_Energy-OPLS-2005>
1002.63043212891

> <r_mmod_Stretch_Energy-OPLS-2005>
301.212066650391

> <r_mmod_Bend_Energy-OPLS-2005>
398.474945068359

> <r_mmod_Torsional_Energy-OPLS-2005>
388.927185058594

> <r_mmod_Improper_Torsional_Energy-OPLS-2005>
16.8751049041748

> <r_mmod_Van_der_Waal_Energy-OPLS-2005>
115.868927001953

> <r_mmod_Electrostatic_Energy-OPLS-2005>
-270.093170166016

> <r_mmod_Solvation_Energy-OPLS-2005>
-182.958557128906

> <b_mmod_Minimization_Converged-OPLS-2005>
0

> <r_mmod_RMS_Derivative-OPLS-2005>
1.2941712141037

$$$$
51
                    3D
 Structure written by MMmdl.
142150  0  0  1  0            999 V2000
  -30.2952  -15.6953   20.3080 C   0  0  0  0  0  0
  -30.4167  -13.1134   19.5620 C   0  0  0  0  0  0
  -29.5571  -12.6710   18.3407 C   0  0  0  0  0  0
  -28.1316  -12.3046   18.7760 C   0  0  0  0  0  0
  -27.5898  -13.3212   19.8049 C   0  0  2  0  0  0
  -28.5923  -13.6906   20.9227 C   0  0  0  0  0  0
  -25.2306  -13.8321   20.5802 C   0  0  0  0  0  0
  -24.1701  -13.0447   20.9266 C   0  0  0  0  0  0
  -24.6418  -11.6962   20.8738 C   0  0  0  0  0  0
  -23.9127  -10.4301   21.0381 C   0  0  0  0  0  0
  -24.3660   -9.4216   21.9169 C   0  0  0  0  0  0
  -23.6320   -8.2257   22.0750 C   0  0  0  0  0  0
  -22.4299   -8.0293   21.3544 C   0  0  0  0  0  0
  -21.9945   -9.0266   20.4641 C   0  0  0  0  0  0
  -22.7289  -10.2137   20.3040 C   0  0  0  0  0  0
  -21.6863   -6.0744   22.5279 C   0  0  0  0  0  0
  -21.4022   -6.5644   23.8213 C   0  0  0  0  0  0
  -21.3663   -5.6795   24.9174 C   0  0  0  0  0  0
  -21.6044   -4.3057   24.7222 C   0  0  0  0  0  0
  -21.8818   -3.8151   23.4343 C   0  0  0  0  0  0
  -21.9196   -4.6970   22.3400 C   0  0  0  0  0  0
  -22.7713  -13.5164   21.1917 C   0  0  0  0  0  0
  -22.1662   -4.2155   21.0978 F   0  0  0  0  0  0
  -21.5627   -3.4540   25.7734 F   0  0  0  0  0  0
  -29.7762  -14.3150   20.2835 N   0  0  0  0  0  0
  -26.2750  -12.9671   20.3198 N   0  0  0  0  0  0
  -25.9366  -11.6727   20.5657 N   0  0  0  0  0  0
  -22.0392  -12.8132   22.0474 N   0  0  0  0  0  0
  -25.3917  -15.2072   20.4335 N   0  0  0  0  0  0
  -31.5287  -15.5727   20.1513 O   0  0  0  0  0  0
  -21.6655   -6.8893   21.4244 O   0  0  0  0  0  0
  -22.3375  -14.5461   20.6761 O   0  0  0  0  0  0
  -24.6886  -31.7938   23.1468 C   0  0  0  0  0  0
  -25.9443  -32.4436   23.8034 C   0  0  1  0  0  0
  -27.2252  -26.6488   20.2226 C   0  0  0  0  0  0
  -25.5999  -33.8264   24.1917 N   0  0  0  0  0  0
  -23.5169  -30.3932   21.5021 C   0  0  2  0  0  0
  -24.9737  -28.7216   20.1203 C   0  0  0  0  0  0
  -22.7787  -29.4283   22.4697 C   0  0  0  0  0  0
  -18.0342  -28.1423   22.8453 C   0  0  0  0  0  0
  -24.1497  -36.7141   23.2655 C   0  0  0  0  0  0
  -26.0996  -30.5093   21.4185 C   0  0  0  0  0  0
  -26.1639  -29.0679   20.7704 C   0  0  0  0  0  0
  -27.2727  -28.0615   20.7853 C   0  0  0  0  0  0
  -26.0012  -26.5237   19.5147 C   0  0  0  0  0  0
  -24.9345  -27.4762   19.4681 C   0  0  0  0  0  0
  -23.7734  -29.6845   20.1400 C   0  0  0  0  0  0
  -25.4150  -36.2878   24.0277 C   0  0  1  0  0  0
  -20.5979  -28.3786   23.1133 C   0  0  2  0  0  0
  -20.6805  -26.9441   22.5404 C   0  0  0  0  0  0
  -19.5782  -26.6369   21.5217 C   0  0  0  0  0  0
  -18.1965  -26.7950   22.1618 C   0  0  0  0  0  0
  -19.1609  -28.8930   23.2772 C   0  0  0  0  0  0
  -18.9513  -30.1512   23.8821 C   0  0  0  0  0  0
  -17.6502  -30.6605   24.0549 C   0  0  0  0  0  0
  -25.9132  -34.9269   23.4939 C   0  0  0  0  0  0
  -16.5392  -29.9085   23.6351 C   0  0  0  0  0  0
  -16.7321  -28.6507   23.0368 C   0  0  0  0  0  0
  -26.4604  -31.6493   25.0680 C   0  0  0  0  0  0
  -25.3655  -31.3825   26.1284 C   0  0  0  0  0  0
  -27.0545  -30.2826   24.6617 C   0  0  0  0  0  0
  -27.6041  -32.4367   25.7502 C   0  0  0  0  0  0
  -27.5561  -37.1732   24.8469 C   0  0  0  0  0  0
  -21.4430  -29.3023   22.3447 N   0  0  0  0  0  0
  -26.4274  -37.3642   23.9402 N   0  0  0  0  0  0
  -24.7925  -30.9332   22.0748 N   0  0  0  0  0  0
  -23.4207  -28.7895   23.3068 O   0  0  0  0  0  0
  -28.1906  -25.4143   20.2919 O   0  0  0  0  0  0
  -26.5780  -34.8857   22.4561 O   0  0  0  0  0  0
  -23.5895  -32.1037   23.6390 O   0  0  0  0  0  0
  -29.9913  -18.8995   20.2849 C   0  0  0  0  0  0
  -27.9725  -19.2363   20.4157 C   0  0  0  0  0  0
  -29.5580  -17.4320   20.3500 C   0  0  0  0  0  0
  -29.0847  -21.9649   20.3329 C   0  0  0  0  0  0
  -28.0333  -23.6309   20.2068 C   0  0  0  0  0  0
  -28.1872  -17.8509   20.4312 N   0  0  0  0  0  0
  -29.0055  -20.1379   20.3218 N   0  0  0  0  0  0
  -31.4154  -13.3589   19.2003 H   0  0  0  0  0  0
  -30.5682  -12.2787   20.2487 H   0  0  0  0  0  0
  -30.0237  -11.8288   17.8283 H   0  0  0  0  0  0
  -29.5174  -13.4876   17.6184 H   0  0  0  0  0  0
  -28.1651  -11.3123   19.2275 H   0  0  0  0  0  0
  -27.4689  -12.2305   17.9128 H   0  0  0  0  0  0
  -27.4424  -14.2320   19.2225 H   0  0  0  0  0  0
  -28.8508  -12.8265   21.5367 H   0  0  0  0  0  0
  -28.1428  -14.4201   21.5980 H   0  0  0  0  0  0
  -25.2800   -9.5693   22.4752 H   0  0  0  0  0  0
  -24.0022   -7.4653   22.7478 H   0  0  0  0  0  0
  -21.0873   -8.8792   19.8949 H   0  0  0  0  0  0
  -22.3743  -10.9675   19.6151 H   0  0  0  0  0  0
  -21.2018   -7.6153   23.9719 H   0  0  0  0  0  0
  -21.1485   -6.0524   25.9077 H   0  0  0  0  0  0
  -22.0593   -2.7613   23.2841 H   0  0  0  0  0  0
  -22.4046  -11.9811   22.4865 H   0  0  0  0  0  0
  -21.0997  -13.1117   22.2680 H   0  0  0  0  0  0
  -24.6293  -15.8592   20.5807 H   0  0  0  0  0  0
  -26.2599  -15.6677   20.1838 H   0  0  0  0  0  0
  -26.7530  -32.4894   23.0749 H   0  0  0  0  0  0
  -25.0048  -33.9293   25.0004 H   0  0  0  0  0  0
  -22.8453  -31.2320   21.3075 H   0  0  0  0  0  0
  -23.3774  -35.9456   23.3274 H   0  0  0  0  0  0
  -24.3559  -36.8849   22.2077 H   0  0  0  0  0  0
  -23.7246  -37.6303   23.6764 H   0  0  0  0  0  0
  -26.3080  -31.2304   20.6270 H   0  0  0  0  0  0
  -26.9486  -30.5793   22.0861 H   0  0  0  0  0  0
  -28.1687  -28.3357   21.3240 H   0  0  0  0  0  0
  -25.8268  -25.5839   19.0102 H   0  0  0  0  0  0
  -24.0375  -27.2016   18.9303 H   0  0  0  0  0  0
  -23.9539  -30.4418   19.3763 H   0  0  0  0  0  0
  -22.8766  -29.1543   19.8145 H   0  0  0  0  0  0
  -25.1365  -36.1635   25.0768 H   0  0  0  0  0  0
  -21.0060  -28.3416   24.1260 H   0  0  0  0  0  0
  -20.5665  -26.2412   23.3671 H   0  0  0  0  0  0
  -21.6667  -26.7376   22.1226 H   0  0  0  0  0  0
  -19.6938  -25.6259   21.1298 H   0  0  0  0  0  0
  -19.6727  -27.3136   20.6713 H   0  0  0  0  0  0
  -17.4235  -26.6693   21.4021 H   0  0  0  0  0  0
  -18.0352  -26.0111   22.9032 H   0  0  0  0  0  0
  -19.7989  -30.7348   24.2157 H   0  0  0  0  0  0
  -17.5052  -31.6277   24.5166 H   0  0  0  0  0  0
  -15.5388  -30.2962   23.7719 H   0  0  0  0  0  0
  -15.8723  -28.0799   22.7128 H   0  0  0  0  0  0
  -24.5867  -30.7149   25.7580 H   0  0  0  0  0  0
  -24.8815  -32.3052   26.4496 H   0  0  0  0  0  0
  -25.7818  -30.9126   27.0203 H   0  0  0  0  0  0
  -26.3272  -29.6422   24.1618 H   0  0  0  0  0  0
  -27.3962  -29.7296   25.5377 H   0  0  0  0  0  0
  -27.9256  -30.3940   24.0159 H   0  0  0  0  0  0
  -27.2573  -33.3744   26.1856 H   0  0  0  0  0  0
  -28.3966  -32.6807   25.0415 H   0  0  0  0  0  0
  -28.0584  -31.8648   26.5603 H   0  0  0  0  0  0
  -28.2556  -38.0046   24.7497 H   0  0  0  0  0  0
  -28.1079  -36.2567   24.6324 H   0  0  0  0  0  0
  -27.2271  -37.1400   25.8870 H   0  0  0  0  0  0
  -20.9747  -29.8669   21.6496 H   0  0  0  0  0  0
  -26.0098  -38.2691   24.1400 H   0  0  0  0  0  0
  -31.0350  -19.1760   20.2110 H   0  0  0  0  0  0
  -26.9617  -19.6134   20.4882 H   0  0  0  0  0  0
  -29.6215  -22.1418   21.2645 H   0  0  0  0  0  0
  -29.8471  -22.1487   19.5764 H   0  0  0  0  0  0
  -27.2444  -23.4635   20.9400 H   0  0  0  0  0  0
  -27.5186  -23.5132   19.2533 H   0  0  0  0  0  0
  1 25  1  0  0  0
  1 30  2  0  0  0
  1 73  1  0  0  0
  2  3  1  0  0  0
  2 25  1  0  0  0
  2 78  1  0  0  0
  2 79  1  0  0  0
  3  4  1  0  0  0
  3 80  1  0  0  0
  3 81  1  0  0  0
  4  5  1  0  0  0
  4 82  1  0  0  0
  4 83  1  0  0  0
  5  6  1  0  0  0
  5 26  1  0  0  0
  5 84  1  0  0  0
  6 25  1  0  0  0
  6 85  1  0  0  0
  6 86  1  0  0  0
  7  8  2  0  0  0
  7 26  1  0  0  0
  7 29  1  0  0  0
  8  9  1  0  0  0
  8 22  1  0  0  0
  9 10  1  0  0  0
  9 27  2  0  0  0
 10 11  2  0  0  0
 10 15  1  0  0  0
 11 12  1  0  0  0
 11 87  1  0  0  0
 12 13  2  0  0  0
 12 88  1  0  0  0
 13 14  1  0  0  0
 13 31  1  0  0  0
 14 15  2  0  0  0
 14 89  1  0  0  0
 15 90  1  0  0  0
 16 17  2  0  0  0
 16 21  1  0  0  0
 16 31  1  0  0  0
 17 18  1  0  0  0
 17 91  1  0  0  0
 18 19  2  0  0  0
 18 92  1  0  0  0
 19 20  1  0  0  0
 19 24  1  0  0  0
 20 21  2  0  0  0
 20 93  1  0  0  0
 21 23  1  0  0  0
 22 28  1  0  0  0
 22 32  2  0  0  0
 26 27  1  0  0  0
 28 94  1  0  0  0
 28 95  1  0  0  0
 29 96  1  0  0  0
 29 97  1  0  0  0
 33 34  1  0  0  0
 33 66  1  0  0  0
 33 70  2  0  0  0
 34 36  1  0  0  0
 34 59  1  0  0  0
 34 98  1  0  0  0
 35 44  2  0  0  0
 35 45  1  0  0  0
 35 68  1  0  0  0
 36 56  1  0  0  0
 36 99  1  0  0  0
 37 39  1  0  0  0
 37 47  1  0  0  0
 37 66  1  0  0  0
 37100  1  0  0  0
 38 43  2  0  0  0
 38 46  1  0  0  0
 38 47  1  0  0  0
 39 64  1  0  0  0
 39 67  2  0  0  0
 40 52  1  0  0  0
 40 53  2  0  0  0
 40 58  1  0  0  0
 41101  1  0  0  0
 41102  1  0  0  0
 41103  1  0  0  0
 41 48  1  0  0  0
 42 43  1  0  0  0
 42 66  1  0  0  0
 42104  1  0  0  0
 42105  1  0  0  0
 43 44  1  0  0  0
 44106  1  0  0  0
 45 46  2  0  0  0
 45107  1  0  0  0
 46108  1  0  0  0
 47109  1  0  0  0
 47110  1  0  0  0
 48 56  1  0  0  0
 48 65  1  0  0  0
 48111  1  0  0  0
 49 50  1  0  0  0
 49 53  1  0  0  0
 49 64  1  0  0  0
 49112  1  0  0  0
 50 51  1  0  0  0
 50113  1  0  0  0
 50114  1  0  0  0
 51 52  1  0  0  0
 51115  1  0  0  0
 51116  1  0  0  0
 52117  1  0  0  0
 52118  1  0  0  0
 53 54  1  0  0  0
 54 55  2  0  0  0
 54119  1  0  0  0
 55 57  1  0  0  0
 55120  1  0  0  0
 56 69  2  0  0  0
 57 58  2  0  0  0
 57121  1  0  0  0
 58122  1  0  0  0
 59 60  1  0  0  0
 59 61  1  0  0  0
 59 62  1  0  0  0
 60123  1  0  0  0
 60124  1  0  0  0
 60125  1  0  0  0
 61126  1  0  0  0
 61127  1  0  0  0
 61128  1  0  0  0
 62129  1  0  0  0
 62130  1  0  0  0
 62131  1  0  0  0
 63 65  1  0  0  0
 63132  1  0  0  0
 63133  1  0  0  0
 63134  1  0  0  0
 64135  1  0  0  0
 65136  1  0  0  0
 68 75  1  0  0  0
 71 73  2  0  0  0
 71 77  1  0  0  0
 71137  1  0  0  0
 72 76  2  0  0  0
 72 77  1  0  0  0
 72138  1  0  0  0
 73 76  1  0  0  0
 74 75  1  0  0  0
 74 77  1  0  0  0
 74139  1  0  0  0
 74140  1  0  0  0
 75141  1  0  0  0
 75142  1  0  0  0
M  ISO  4   1 100  68 101  73 100  75 101
M  END
> <chiral flag>
0

> <version>
0

> <s_m_source_file>
/data/baiqing/PycharmProjects/Reinvent-master-3.2/result/LINK_invent/BTK/process_docking_weight1_custom_sum_contain_oxygen_bond_distance_aromatic_linkinvent_7_9_3/rearranged_h_0048.sdf

> <i_m_source_file_index>
51

> <r_mmod_Potential_Energy-OPLS-2005>
2741.27709960938

> <r_mmod_Stretch_Energy-OPLS-2005>
1207.27233886719

> <r_mmod_Bend_Energy-OPLS-2005>
678.233764648438

> <r_mmod_Torsional_Energy-OPLS-2005>
214.071914672852

> <r_mmod_Improper_Torsional_Energy-OPLS-2005>
2.95497560501099

> <r_mmod_Van_der_Waal_Energy-OPLS-2005>
107.681755065918

> <r_mmod_Electrostatic_Energy-OPLS-2005>
-251.176895141602

> <r_mmod_Solvation_Energy-OPLS-2005>
-208.973190307617

> <b_mmod_Minimization_Converged-OPLS-2005>
0

> <r_mmod_RMS_Derivative-OPLS-2005>
0.0893867239356041

$$$$
52
                    3D
 Structure written by MMmdl.
149157  0  0  1  0            999 V2000
  -30.3847  -15.2886   20.3501 C   0  0  0  0  0  0
  -30.4508  -12.8116   19.5393 C   0  0  0  0  0  0
  -29.5495  -12.5881   18.2950 C   0  0  0  0  0  0
  -28.0927  -12.3086   18.7074 C   0  0  0  0  0  0
  -27.6144  -13.2739   19.8181 C   0  0  2  0  0  0
  -28.6427  -13.4377   20.9547 C   0  0  0  0  0  0
  -25.2416  -13.8236   20.5711 C   0  0  0  0  0  0
  -24.1763  -13.0435   20.9221 C   0  0  0  0  0  0
  -24.6402  -11.6934   20.8718 C   0  0  0  0  0  0
  -23.9087  -10.4302   21.0391 C   0  0  0  0  0  0
  -24.3643   -9.4216   21.9171 C   0  0  0  0  0  0
  -23.6320   -8.2243   22.0746 C   0  0  0  0  0  0
  -22.4296   -8.0276   21.3537 C   0  0  0  0  0  0
  -21.9931   -9.0245   20.4632 C   0  0  0  0  0  0
  -22.7251  -10.2136   20.3047 C   0  0  0  0  0  0
  -21.6861   -6.0737   22.5276 C   0  0  0  0  0  0
  -21.4016   -6.5639   23.8208 C   0  0  0  0  0  0
  -21.3671   -5.6792   24.9173 C   0  0  0  0  0  0
  -21.6051   -4.3052   24.7224 C   0  0  0  0  0  0
  -21.8828   -3.8142   23.4346 C   0  0  0  0  0  0
  -21.9201   -4.6961   22.3401 C   0  0  0  0  0  0
  -22.7785  -13.5179   21.1889 C   0  0  0  0  0  0
  -22.1671   -4.2147   21.0973 F   0  0  0  0  0  0
  -21.5639   -3.4538   25.7738 F   0  0  0  0  0  0
  -29.8849  -13.9496   20.3541 N   0  0  0  0  0  0
  -26.2828  -12.9501   20.3150 N   0  0  0  0  0  0
  -25.9335  -11.6608   20.5659 N   0  0  0  0  0  0
  -22.0454  -12.8150   22.0447 N   0  0  0  0  0  0
  -25.4085  -15.1978   20.4203 N   0  0  0  0  0  0
  -31.6148  -15.3029   20.1682 O   0  0  0  0  0  0
  -21.6654   -6.8882   21.4239 O   0  0  0  0  0  0
  -22.3448  -14.5477   20.6741 O   0  0  0  0  0  0
  -24.6634  -31.8236   23.1694 C   0  0  0  0  0  0
  -25.9317  -32.4591   23.8167 C   0  0  1  0  0  0
  -27.2185  -26.9215   20.1930 C   0  0  0  0  0  0
  -25.5983  -33.8407   24.2084 N   0  0  0  0  0  0
  -23.4786  -30.4331   21.5203 C   0  0  2  0  0  0
  -24.9299  -28.8136   20.1206 C   0  0  0  0  0  0
  -22.7670  -29.4436   22.4804 C   0  0  0  0  0  0
  -18.0326  -28.1409   22.8485 C   0  0  0  0  0  0
  -24.1483  -36.7174   23.2645 C   0  0  0  0  0  0
  -26.0475  -30.6285   21.3999 C   0  0  0  0  0  0
  -26.1161  -29.2157   20.7481 C   0  0  0  0  0  0
  -27.2576  -28.2934   20.7521 C   0  0  0  0  0  0
  -26.0010  -26.6682   19.5243 C   0  0  0  0  0  0
  -24.8979  -27.5599   19.4877 C   0  0  0  0  0  0
  -23.7184  -29.7439   20.1493 C   0  0  0  0  0  0
  -25.4130  -36.2962   24.0305 C   0  0  1  0  0  0
  -20.5951  -28.3747   23.1199 C   0  0  2  0  0  0
  -20.6790  -26.9428   22.5409 C   0  0  0  0  0  0
  -19.5762  -26.6384   21.5221 C   0  0  0  0  0  0
  -18.1948  -26.7949   22.1633 C   0  0  0  0  0  0
  -19.1588  -28.8902   23.2832 C   0  0  0  0  0  0
  -18.9490  -30.1494   23.8863 C   0  0  0  0  0  0
  -17.6482  -30.6598   24.0557 C   0  0  0  0  0  0
  -25.9105  -34.9350   23.5017 C   0  0  0  0  0  0
  -16.5375  -29.9081   23.6349 C   0  0  0  0  0  0
  -16.7308  -28.6497   23.0383 C   0  0  0  0  0  0
  -26.4568  -31.6536   25.0697 C   0  0  0  0  0  0
  -25.3700  -31.3769   26.1357 C   0  0  0  0  0  0
  -27.0461  -30.2910   24.6415 C   0  0  0  0  0  0
  -27.6068  -32.4336   25.7491 C   0  0  0  0  0  0
  -27.5580  -37.1731   24.8462 C   0  0  0  0  0  0
  -21.4341  -29.3028   22.3545 N   0  0  0  0  0  0
  -26.4267  -37.3710   23.9433 N   0  0  0  0  0  0
  -24.7512  -30.9889   22.0837 N   0  0  0  0  0  0
  -23.4215  -28.8025   23.3062 O   0  0  0  0  0  0
  -28.2446  -25.8368   20.1907 O   0  0  0  0  0  0
  -26.5711  -34.8889   22.4614 O   0  0  0  0  0  0
  -23.5705  -32.1201   23.6791 O   0  0  0  0  0  0
  -30.4515  -18.8213   21.7733 C   0  0  0  0  0  0
  -30.5511  -20.1518   22.2410 C   0  0  0  0  0  0
  -29.6825  -18.5007   20.6440 C   0  0  0  0  0  0
  -29.1837  -21.0938   20.5859 C   0  0  0  0  0  0
  -31.3954  -20.4688   23.4592 C   0  0  0  0  0  0
  -29.4529  -16.7981   20.2704 C   0  0  0  0  0  0
  -28.7982  -22.6631   19.8983 C   0  0  0  0  0  0
  -28.0778  -24.2138   20.5042 C   0  0  0  0  0  0
  -29.9472  -21.2218   21.6677 N   0  0  0  0  0  0
  -29.0641  -19.7283   20.0811 N   0  0  0  0  0  0
  -31.4690  -13.0258   19.2133 H   0  0  0  0  0  0
  -30.5195  -11.9015   20.1371 H   0  0  0  0  0  0
  -29.9308  -11.7638   17.6905 H   0  0  0  0  0  0
  -29.5853  -13.4771   17.6633 H   0  0  0  0  0  0
  -28.0416  -11.2805   19.0677 H   0  0  0  0  0  0
  -27.4328  -12.3655   17.8399 H   0  0  0  0  0  0
  -27.5324  -14.2440   19.3272 H   0  0  0  0  0  0
  -28.8037  -12.4963   21.4819 H   0  0  0  0  0  0
  -28.2729  -14.1457   21.6965 H   0  0  0  0  0  0
  -25.2799   -9.5694   22.4731 H   0  0  0  0  0  0
  -24.0044   -7.4632   22.7460 H   0  0  0  0  0  0
  -21.0870   -8.8748   19.8926 H   0  0  0  0  0  0
  -22.3697  -10.9672   19.6151 H   0  0  0  0  0  0
  -21.1992   -7.6146   23.9710 H   0  0  0  0  0  0
  -21.1491   -6.0519   25.9078 H   0  0  0  0  0  0
  -22.0597   -2.7604   23.2837 H   0  0  0  0  0  0
  -22.4121  -11.9842   22.4855 H   0  0  0  0  0  0
  -21.1051  -13.1124   22.2642 H   0  0  0  0  0  0
  -24.6400  -15.8510   20.5335 H   0  0  0  0  0  0
  -26.2545  -15.6394   20.0846 H   0  0  0  0  0  0
  -26.7397  -32.5133   23.0889 H   0  0  0  0  0  0
  -25.0091  -33.9484   25.0209 H   0  0  0  0  0  0
  -22.7921  -31.2642   21.3464 H   0  0  0  0  0  0
  -23.3792  -35.9454   23.3241 H   0  0  0  0  0  0
  -24.3565  -36.8883   22.2071 H   0  0  0  0  0  0
  -23.7174  -37.6317   23.6736 H   0  0  0  0  0  0
  -26.2282  -31.3681   20.6194 H   0  0  0  0  0  0
  -26.9079  -30.6864   22.0545 H   0  0  0  0  0  0
  -28.1632  -28.6067   21.2528 H   0  0  0  0  0  0
  -25.8822  -25.7127   19.0330 H   0  0  0  0  0  0
  -23.9976  -27.2444   18.9782 H   0  0  0  0  0  0
  -23.8770  -30.5082   19.3872 H   0  0  0  0  0  0
  -22.8274  -29.1979   19.8339 H   0  0  0  0  0  0
  -25.1318  -36.1751   25.0789 H   0  0  0  0  0  0
  -21.0042  -28.3343   24.1325 H   0  0  0  0  0  0
  -20.5661  -26.2361   23.3649 H   0  0  0  0  0  0
  -21.6651  -26.7392   22.1218 H   0  0  0  0  0  0
  -19.6902  -25.6285   21.1272 H   0  0  0  0  0  0
  -19.6697  -27.3182   20.6743 H   0  0  0  0  0  0
  -17.4213  -26.6719   21.4035 H   0  0  0  0  0  0
  -18.0325  -26.0101   22.9037 H   0  0  0  0  0  0
  -19.7955  -30.7331   24.2220 H   0  0  0  0  0  0
  -17.5022  -31.6279   24.5152 H   0  0  0  0  0  0
  -15.5372  -30.2965   23.7692 H   0  0  0  0  0  0
  -15.8710  -28.0795   22.7131 H   0  0  0  0  0  0
  -24.5897  -30.7106   25.7653 H   0  0  0  0  0  0
  -24.8875  -32.2963   26.4681 H   0  0  0  0  0  0
  -25.7945  -30.8997   27.0202 H   0  0  0  0  0  0
  -26.3128  -29.6595   24.1387 H   0  0  0  0  0  0
  -27.3969  -29.7259   25.5059 H   0  0  0  0  0  0
  -27.9079  -30.4095   23.9843 H   0  0  0  0  0  0
  -27.2657  -33.3682   26.1948 H   0  0  0  0  0  0
  -28.3943  -32.6823   25.0364 H   0  0  0  0  0  0
  -28.0671  -31.8542   26.5503 H   0  0  0  0  0  0
  -28.2533  -38.0091   24.7604 H   0  0  0  0  0  0
  -28.1148  -36.2629   24.6177 H   0  0  0  0  0  0
  -27.2318  -37.1234   25.8866 H   0  0  0  0  0  0
  -20.9604  -29.8708   21.6662 H   0  0  0  0  0  0
  -26.0111  -38.2749   24.1524 H   0  0  0  0  0  0
  -30.9519  -18.0269   22.3127 H   0  0  0  0  0  0
  -31.5417  -19.5841   24.0776 H   0  0  0  0  0  0
  -30.9252  -21.2335   24.0783 H   0  0  0  0  0  0
  -32.3752  -20.8339   23.1519 H   0  0  0  0  0  0
  -29.1002  -16.8138   19.2403 H   0  0  0  0  0  0
  -28.5600  -16.5524   20.8444 H   0  0  0  0  0  0
  -28.2420  -22.4255   18.9920 H   0  0  0  0  0  0
  -29.7715  -22.9736   19.5196 H   0  0  0  0  0  0
  -28.3322  -24.1912   21.5639 H   0  0  0  0  0  0
  -27.0021  -24.0396   20.5055 H   0  0  0  0  0  0
  1 25  1  0  0  0
  1 30  2  0  0  0
  1 76  1  0  0  0
  2  3  1  0  0  0
  2 25  1  0  0  0
  2 81  1  0  0  0
  2 82  1  0  0  0
  3  4  1  0  0  0
  3 83  1  0  0  0
  3 84  1  0  0  0
  4  5  1  0  0  0
  4 85  1  0  0  0
  4 86  1  0  0  0
  5  6  1  0  0  0
  5 26  1  0  0  0
  5 87  1  0  0  0
  6 25  1  0  0  0
  6 88  1  0  0  0
  6 89  1  0  0  0
  7  8  2  0  0  0
  7 26  1  0  0  0
  7 29  1  0  0  0
  8  9  1  0  0  0
  8 22  1  0  0  0
  9 10  1  0  0  0
  9 27  2  0  0  0
 10 11  2  0  0  0
 10 15  1  0  0  0
 11 12  1  0  0  0
 11 90  1  0  0  0
 12 13  2  0  0  0
 12 91  1  0  0  0
 13 14  1  0  0  0
 13 31  1  0  0  0
 14 15  2  0  0  0
 14 92  1  0  0  0
 15 93  1  0  0  0
 16 17  2  0  0  0
 16 21  1  0  0  0
 16 31  1  0  0  0
 17 18  1  0  0  0
 17 94  1  0  0  0
 18 19  2  0  0  0
 18 95  1  0  0  0
 19 20  1  0  0  0
 19 24  1  0  0  0
 20 21  2  0  0  0
 20 96  1  0  0  0
 21 23  1  0  0  0
 22 28  1  0  0  0
 22 32  2  0  0  0
 26 27  1  0  0  0
 28 97  1  0  0  0
 28 98  1  0  0  0
 29 99  1  0  0  0
 29100  1  0  0  0
 33 34  1  0  0  0
 33 66  1  0  0  0
 33 70  2  0  0  0
 34 36  1  0  0  0
 34 59  1  0  0  0
 34101  1  0  0  0
 35 44  2  0  0  0
 35 45  1  0  0  0
 35 68  1  0  0  0
 36 56  1  0  0  0
 36102  1  0  0  0
 37 39  1  0  0  0
 37 47  1  0  0  0
 37 66  1  0  0  0
 37103  1  0  0  0
 38 43  2  0  0  0
 38 46  1  0  0  0
 38 47  1  0  0  0
 39 64  1  0  0  0
 39 67  2  0  0  0
 40 52  1  0  0  0
 40 53  2  0  0  0
 40 58  1  0  0  0
 41104  1  0  0  0
 41105  1  0  0  0
 41106  1  0  0  0
 41 48  1  0  0  0
 42 43  1  0  0  0
 42 66  1  0  0  0
 42107  1  0  0  0
 42108  1  0  0  0
 43 44  1  0  0  0
 44109  1  0  0  0
 45 46  2  0  0  0
 45110  1  0  0  0
 46111  1  0  0  0
 47112  1  0  0  0
 47113  1  0  0  0
 48 56  1  0  0  0
 48 65  1  0  0  0
 48114  1  0  0  0
 49 50  1  0  0  0
 49 53  1  0  0  0
 49 64  1  0  0  0
 49115  1  0  0  0
 50 51  1  0  0  0
 50116  1  0  0  0
 50117  1  0  0  0
 51 52  1  0  0  0
 51118  1  0  0  0
 51119  1  0  0  0
 52120  1  0  0  0
 52121  1  0  0  0
 53 54  1  0  0  0
 54 55  2  0  0  0
 54122  1  0  0  0
 55 57  1  0  0  0
 55123  1  0  0  0
 56 69  2  0  0  0
 57 58  2  0  0  0
 57124  1  0  0  0
 58125  1  0  0  0
 59 60  1  0  0  0
 59 61  1  0  0  0
 59 62  1  0  0  0
 60126  1  0  0  0
 60127  1  0  0  0
 60128  1  0  0  0
 61129  1  0  0  0
 61130  1  0  0  0
 61131  1  0  0  0
 62132  1  0  0  0
 62133  1  0  0  0
 62134  1  0  0  0
 63 65  1  0  0  0
 63135  1  0  0  0
 63136  1  0  0  0
 63137  1  0  0  0
 64138  1  0  0  0
 65139  1  0  0  0
 68 78  1  0  0  0
 71 72  2  0  0  0
 71 73  1  0  0  0
 71140  1  0  0  0
 72 75  1  0  0  0
 72 79  1  0  0  0
 73 76  1  0  0  0
 73 80  2  0  0  0
 74 77  1  0  0  0
 74 79  2  0  0  0
 74 80  1  0  0  0
 75141  1  0  0  0
 75142  1  0  0  0
 75143  1  0  0  0
 76144  1  0  0  0
 76145  1  0  0  0
 77 78  1  0  0  0
 77146  1  0  0  0
 77147  1  0  0  0
 78148  1  0  0  0
 78149  1  0  0  0
M  ISO  4   1 100  68 101  76 100  78 101
M  END
> <chiral flag>
0

> <version>
0

> <s_m_source_file>
/data/baiqing/PycharmProjects/Reinvent-master-3.2/result/LINK_invent/BTK/process_docking_weight1_custom_sum_contain_oxygen_bond_distance_aromatic_linkinvent_7_9_3/rearranged_h_0048.sdf

> <i_m_source_file_index>
52

> <r_mmod_Potential_Energy-OPLS-2005>
1028.72729492188

> <r_mmod_Stretch_Energy-OPLS-2005>
620.517333984375

> <r_mmod_Bend_Energy-OPLS-2005>
473.211090087891

> <r_mmod_Torsional_Energy-OPLS-2005>
204.687301635742

> <r_mmod_Improper_Torsional_Energy-OPLS-2005>
8.93153953552246

> <r_mmod_Van_der_Waal_Energy-OPLS-2005>
125.502746582031

> <r_mmod_Electrostatic_Energy-OPLS-2005>
-628.101867675781

> <r_mmod_Solvation_Energy-OPLS-2005>
-244.018112182617

> <b_mmod_Minimization_Converged-OPLS-2005>
0

> <r_mmod_RMS_Derivative-OPLS-2005>
1.84014999866486

$$$$
53
                    3D
 Structure written by MMmdl.
151159  0  0  1  0            999 V2000
  -30.5747  -14.8809   20.4297 C   0  0  0  0  0  0
  -30.4428  -12.5410   19.4956 C   0  0  0  0  0  0
  -29.5236  -12.5215   18.2535 C   0  0  0  0  0  0
  -28.0494  -12.3345   18.6601 C   0  0  0  0  0  0
  -27.6368  -13.2487   19.8454 C   0  0  2  0  0  0
  -28.6819  -13.2390   20.9816 C   0  0  0  0  0  0
  -25.2480  -13.8234   20.5691 C   0  0  0  0  0  0
  -24.1790  -13.0457   20.9208 C   0  0  0  0  0  0
  -24.6409  -11.6939   20.8747 C   0  0  0  0  0  0
  -23.9094  -10.4302   21.0404 C   0  0  0  0  0  0
  -24.3639   -9.4217   21.9184 C   0  0  0  0  0  0
  -23.6301   -8.2255   22.0751 C   0  0  0  0  0  0
  -22.4285   -8.0293   21.3538 C   0  0  0  0  0  0
  -21.9930   -9.0276   20.4651 C   0  0  0  0  0  0
  -22.7266  -10.2146   20.3060 C   0  0  0  0  0  0
  -21.6858   -6.0742   22.5271 C   0  0  0  0  0  0
  -21.4021   -6.5638   23.8208 C   0  0  0  0  0  0
  -21.3664   -5.6787   24.9169 C   0  0  0  0  0  0
  -21.6054   -4.3051   24.7219 C   0  0  0  0  0  0
  -21.8819   -3.8144   23.4336 C   0  0  0  0  0  0
  -21.9190   -4.6968   22.3393 C   0  0  0  0  0  0
  -22.7802  -13.5229   21.1855 C   0  0  0  0  0  0
  -22.1653   -4.2150   21.0970 F   0  0  0  0  0  0
  -21.5628   -3.4536   25.7732 F   0  0  0  0  0  0
  -29.9689  -13.6308   20.3905 N   0  0  0  0  0  0
  -26.2921  -12.9473   20.3254 N   0  0  0  0  0  0
  -25.9352  -11.6602   20.5746 N   0  0  0  0  0  0
  -22.0435  -12.8240   22.0414 N   0  0  0  0  0  0
  -25.4131  -15.1958   20.4094 N   0  0  0  0  0  0
  -31.7690  -14.9587   20.1259 O   0  0  0  0  0  0
  -21.6645   -6.8891   21.4238 O   0  0  0  0  0  0
  -22.3481  -14.5522   20.6685 O   0  0  0  0  0  0
  -24.6394  -31.8475   23.1934 C   0  0  0  0  0  0
  -25.9193  -32.4710   23.8305 C   0  0  1  0  0  0
  -27.2084  -27.1669   20.1518 C   0  0  0  0  0  0
  -25.5958  -33.8519   24.2225 N   0  0  0  0  0  0
  -23.4424  -30.4696   21.5363 C   0  0  2  0  0  0
  -24.8928  -28.9075   20.1087 C   0  0  0  0  0  0
  -22.7546  -29.4567   22.4854 C   0  0  0  0  0  0
  -18.0300  -28.1381   22.8487 C   0  0  0  0  0  0
  -24.1486  -36.7262   23.2642 C   0  0  0  0  0  0
  -25.9964  -30.7305   21.3911 C   0  0  0  0  0  0
  -26.0673  -29.3443   20.7348 C   0  0  0  0  0  0
  -27.2297  -28.4883   20.7449 C   0  0  0  0  0  0
  -26.0202  -26.8426   19.4607 C   0  0  0  0  0  0
  -24.8801  -27.6687   19.4558 C   0  0  0  0  0  0
  -23.6680  -29.8037   20.1534 C   0  0  0  0  0  0
  -25.4113  -36.3045   24.0320 C   0  0  1  0  0  0
  -20.5909  -28.3712   23.1237 C   0  0  2  0  0  0
  -20.6778  -26.9416   22.5398 C   0  0  0  0  0  0
  -19.5753  -26.6378   21.5202 C   0  0  0  0  0  0
  -18.1939  -26.7926   22.1622 C   0  0  0  0  0  0
  -19.1555  -28.8862   23.2861 C   0  0  0  0  0  0
  -18.9470  -30.1455   23.8893 C   0  0  0  0  0  0
  -17.6470  -30.6589   24.0551 C   0  0  0  0  0  0
  -25.9059  -34.9415   23.5077 C   0  0  0  0  0  0
  -16.5365  -29.9077   23.6327 C   0  0  0  0  0  0
  -16.7285  -28.6481   23.0379 C   0  0  0  0  0  0
  -26.4539  -31.6569   25.0733 C   0  0  0  0  0  0
  -25.3740  -31.3758   26.1438 C   0  0  0  0  0  0
  -27.0386  -30.2963   24.6290 C   0  0  0  0  0  0
  -27.6057  -32.4344   25.7530 C   0  0  0  0  0  0
  -27.5571  -37.1788   24.8468 C   0  0  0  0  0  0
  -21.4239  -29.3056   22.3615 N   0  0  0  0  0  0
  -26.4283  -37.3749   23.9413 N   0  0  0  0  0  0
  -24.7116  -31.0363   22.0954 N   0  0  0  0  0  0
  -23.4195  -28.8096   23.2982 O   0  0  0  0  0  0
  -28.2338  -26.1634   20.2064 O   0  0  0  0  0  0
  -26.5624  -34.8908   22.4645 O   0  0  0  0  0  0
  -23.5522  -32.1348   23.7170 O   0  0  0  0  0  0
  -28.0643  -22.3041   19.4911 C   0  0  0  0  0  0
  -28.5480  -23.2885   20.4192 C   0  0  0  0  0  0
  -29.6777  -21.3950   21.4249 C   0  0  0  0  0  0
  -29.1230  -20.3971   20.5367 C   0  0  0  0  0  0
  -30.6068  -20.9931   22.5542 C   0  0  0  0  0  0
  -27.8122  -24.7420   20.6433 C   0  0  0  0  0  0
  -30.1169  -17.5641   20.3280 C   0  0  0  0  0  0
  -29.0683  -18.7619   20.8052 C   0  0  0  0  0  0
  -28.3398  -20.9390   19.5398 N   0  0  0  0  0  0
  -29.3946  -22.7644   21.3716 N   0  0  0  0  0  0
  -29.8023  -16.0474   20.5926 N   0  0  0  0  0  0
  -28.9710  -18.5958   22.1242 F   0  0  0  0  0  0
  -27.8962  -18.3703   20.3033 F   0  0  0  0  0  0
  -31.4792  -12.6878   19.1858 H   0  0  0  0  0  0
  -30.4204  -11.5807   20.0138 H   0  0  0  0  0  0
  -29.8274  -11.7257   17.5718 H   0  0  0  0  0  0
  -29.6370  -13.4567   17.7026 H   0  0  0  0  0  0
  -27.9142  -11.2881   18.9359 H   0  0  0  0  0  0
  -27.3986  -12.5090   17.8026 H   0  0  0  0  0  0
  -27.6124  -14.2621   19.4421 H   0  0  0  0  0  0
  -28.7481  -12.2538   21.4452 H   0  0  0  0  0  0
  -28.3980  -13.9336   21.7737 H   0  0  0  0  0  0
  -25.2783   -9.5692   22.4765 H   0  0  0  0  0  0
  -24.0009   -7.4650   22.7485 H   0  0  0  0  0  0
  -21.0845   -8.8809   19.8964 H   0  0  0  0  0  0
  -22.3723  -10.9691   19.6170 H   0  0  0  0  0  0
  -21.2013   -7.6146   23.9716 H   0  0  0  0  0  0
  -21.1486   -6.0510   25.9071 H   0  0  0  0  0  0
  -22.0593   -2.7608   23.2830 H   0  0  0  0  0  0
  -22.4038  -11.9927   22.4861 H   0  0  0  0  0  0
  -21.1044  -13.1287   22.2582 H   0  0  0  0  0  0
  -24.6451  -15.8472   20.5307 H   0  0  0  0  0  0
  -26.2491  -15.6377   20.0512 H   0  0  0  0  0  0
  -26.7248  -32.5327   23.1022 H   0  0  0  0  0  0
  -25.0133  -33.9646   25.0391 H   0  0  0  0  0  0
  -22.7443  -31.2950   21.3834 H   0  0  0  0  0  0
  -23.3753  -35.9589   23.3298 H   0  0  0  0  0  0
  -24.3574  -36.8899   22.2059 H   0  0  0  0  0  0
  -23.7235  -37.6458   23.6672 H   0  0  0  0  0  0
  -26.1473  -31.4853   20.6175 H   0  0  0  0  0  0
  -26.8696  -30.7812   22.0299 H   0  0  0  0  0  0
  -28.1209  -28.8129   21.2632 H   0  0  0  0  0  0
  -25.9474  -25.9103   18.9207 H   0  0  0  0  0  0
  -23.9889  -27.3388   18.9389 H   0  0  0  0  0  0
  -23.8014  -30.5794   19.3984 H   0  0  0  0  0  0
  -22.7860  -29.2407   19.8434 H   0  0  0  0  0  0
  -25.1295  -36.1879   25.0811 H   0  0  0  0  0  0
  -21.0013  -28.3295   24.1351 H   0  0  0  0  0  0
  -20.5655  -26.2323   23.3614 H   0  0  0  0  0  0
  -21.6645  -26.7409   22.1206 H   0  0  0  0  0  0
  -19.6916  -25.6278   21.1251 H   0  0  0  0  0  0
  -19.6699  -27.3161   20.6712 H   0  0  0  0  0  0
  -17.4207  -26.6678   21.4031 H   0  0  0  0  0  0
  -18.0350  -26.0061   22.9012 H   0  0  0  0  0  0
  -19.7948  -30.7264   24.2283 H   0  0  0  0  0  0
  -17.5026  -31.6274   24.5136 H   0  0  0  0  0  0
  -15.5365  -30.2981   23.7650 H   0  0  0  0  0  0
  -15.8687  -28.0779   22.7143 H   0  0  0  0  0  0
  -24.5921  -30.7093   25.7781 H   0  0  0  0  0  0
  -24.8926  -32.2942   26.4813 H   0  0  0  0  0  0
  -25.8045  -30.8982   27.0250 H   0  0  0  0  0  0
  -26.2984  -29.6710   24.1275 H   0  0  0  0  0  0
  -27.3984  -29.7240   25.4855 H   0  0  0  0  0  0
  -27.8911  -30.4211   23.9606 H   0  0  0  0  0  0
  -27.2628  -33.3665   26.2046 H   0  0  0  0  0  0
  -28.3908  -32.6882   25.0390 H   0  0  0  0  0  0
  -28.0677  -31.8513   26.5515 H   0  0  0  0  0  0
  -28.2576  -38.0097   24.7497 H   0  0  0  0  0  0
  -28.1082  -36.2618   24.6302 H   0  0  0  0  0  0
  -27.2291  -37.1441   25.8876 H   0  0  0  0  0  0
  -20.9429  -29.8796   21.6825 H   0  0  0  0  0  0
  -26.0155  -38.2823   24.1418 H   0  0  0  0  0  0
  -27.3389  -22.5978   18.7465 H   0  0  0  0  0  0
  -31.0751  -21.8658   23.0117 H   0  0  0  0  0  0
  -31.4020  -20.3487   22.1773 H   0  0  0  0  0  0
  -30.0691  -20.4596   23.3367 H   0  0  0  0  0  0
  -27.6935  -24.8290   21.7246 H   0  0  0  0  0  0
  -26.7949  -24.5498   20.3073 H   0  0  0  0  0  0
  -31.0945  -17.7748   20.7630 H   0  0  0  0  0  0
  -30.2580  -17.6587   19.2510 H   0  0  0  0  0  0
  -28.8374  -15.8731   20.8246 H   0  0  0  0  0  0
  1 25  1  0  0  0
  1 30  2  0  0  0
  1 81  1  0  0  0
  2  3  1  0  0  0
  2 25  1  0  0  0
  2 84  1  0  0  0
  2 85  1  0  0  0
  3  4  1  0  0  0
  3 86  1  0  0  0
  3 87  1  0  0  0
  4  5  1  0  0  0
  4 88  1  0  0  0
  4 89  1  0  0  0
  5  6  1  0  0  0
  5 26  1  0  0  0
  5 90  1  0  0  0
  6 25  1  0  0  0
  6 91  1  0  0  0
  6 92  1  0  0  0
  7  8  2  0  0  0
  7 26  1  0  0  0
  7 29  1  0  0  0
  8  9  1  0  0  0
  8 22  1  0  0  0
  9 10  1  0  0  0
  9 27  2  0  0  0
 10 11  2  0  0  0
 10 15  1  0  0  0
 11 12  1  0  0  0
 11 93  1  0  0  0
 12 13  2  0  0  0
 12 94  1  0  0  0
 13 14  1  0  0  0
 13 31  1  0  0  0
 14 15  2  0  0  0
 14 95  1  0  0  0
 15 96  1  0  0  0
 16 17  2  0  0  0
 16 21  1  0  0  0
 16 31  1  0  0  0
 17 18  1  0  0  0
 17 97  1  0  0  0
 18 19  2  0  0  0
 18 98  1  0  0  0
 19 20  1  0  0  0
 19 24  1  0  0  0
 20 21  2  0  0  0
 20 99  1  0  0  0
 21 23  1  0  0  0
 22 28  1  0  0  0
 22 32  2  0  0  0
 26 27  1  0  0  0
 28100  1  0  0  0
 28101  1  0  0  0
 29102  1  0  0  0
 29103  1  0  0  0
 33 34  1  0  0  0
 33 66  1  0  0  0
 33 70  2  0  0  0
 34 36  1  0  0  0
 34 59  1  0  0  0
 34104  1  0  0  0
 35 44  2  0  0  0
 35 45  1  0  0  0
 35 68  1  0  0  0
 36 56  1  0  0  0
 36105  1  0  0  0
 37 39  1  0  0  0
 37 47  1  0  0  0
 37 66  1  0  0  0
 37106  1  0  0  0
 38 43  2  0  0  0
 38 46  1  0  0  0
 38 47  1  0  0  0
 39 64  1  0  0  0
 39 67  2  0  0  0
 40 52  1  0  0  0
 40 53  2  0  0  0
 40 58  1  0  0  0
 41107  1  0  0  0
 41108  1  0  0  0
 41109  1  0  0  0
 41 48  1  0  0  0
 42 43  1  0  0  0
 42 66  1  0  0  0
 42110  1  0  0  0
 42111  1  0  0  0
 43 44  1  0  0  0
 44112  1  0  0  0
 45 46  2  0  0  0
 45113  1  0  0  0
 46114  1  0  0  0
 47115  1  0  0  0
 47116  1  0  0  0
 48 56  1  0  0  0
 48 65  1  0  0  0
 48117  1  0  0  0
 49 50  1  0  0  0
 49 53  1  0  0  0
 49 64  1  0  0  0
 49118  1  0  0  0
 50 51  1  0  0  0
 50119  1  0  0  0
 50120  1  0  0  0
 51 52  1  0  0  0
 51121  1  0  0  0
 51122  1  0  0  0
 52123  1  0  0  0
 52124  1  0  0  0
 53 54  1  0  0  0
 54 55  2  0  0  0
 54125  1  0  0  0
 55 57  1  0  0  0
 55126  1  0  0  0
 56 69  2  0  0  0
 57 58  2  0  0  0
 57127  1  0  0  0
 58128  1  0  0  0
 59 60  1  0  0  0
 59 61  1  0  0  0
 59 62  1  0  0  0
 60129  1  0  0  0
 60130  1  0  0  0
 60131  1  0  0  0
 61132  1  0  0  0
 61133  1  0  0  0
 61134  1  0  0  0
 62135  1  0  0  0
 62136  1  0  0  0
 62137  1  0  0  0
 63 65  1  0  0  0
 63138  1  0  0  0
 63139  1  0  0  0
 63140  1  0  0  0
 64141  1  0  0  0
 65142  1  0  0  0
 68 76  1  0  0  0
 71 72  2  0  0  0
 71 79  1  0  0  0
 71143  1  0  0  0
 72 76  1  0  0  0
 72 80  1  0  0  0
 73 74  1  0  0  0
 73 75  1  0  0  0
 73 80  2  0  0  0
 74 78  1  0  0  0
 74 79  2  0  0  0
 75144  1  0  0  0
 75145  1  0  0  0
 75146  1  0  0  0
 76147  1  0  0  0
 76148  1  0  0  0
 77 78  1  0  0  0
 77 81  1  0  0  0
 77149  1  0  0  0
 77150  1  0  0  0
 78 82  1  0  0  0
 78 83  1  0  0  0
 81151  1  0  0  0
M  ISO  4   1 100  68 101  76 101  81 100
M  END
> <chiral flag>
0

> <version>
0

> <s_m_source_file>
/data/baiqing/PycharmProjects/Reinvent-master-3.2/result/LINK_invent/BTK/process_docking_weight1_custom_sum_contain_oxygen_bond_distance_aromatic_linkinvent_7_9_3/rearranged_h_0048.sdf

> <i_m_source_file_index>
53

> <r_mmod_Potential_Energy-OPLS-2005>
456.083709716797

> <r_mmod_Stretch_Energy-OPLS-2005>
212.270889282227

> <r_mmod_Bend_Energy-OPLS-2005>
239.871292114258

> <r_mmod_Torsional_Energy-OPLS-2005>
246.221832275391

> <r_mmod_Improper_Torsional_Energy-OPLS-2005>
10.1014966964722

> <r_mmod_Van_der_Waal_Energy-OPLS-2005>
140.278182983398

> <r_mmod_Electrostatic_Energy-OPLS-2005>
-329.622253417969

> <r_mmod_Solvation_Energy-OPLS-2005>
-223.366882324219

> <b_mmod_Minimization_Converged-OPLS-2005>
0

> <r_mmod_RMS_Derivative-OPLS-2005>
1.95032894611359

$$$$
54
                    3D
 Structure written by MMmdl.
156164  0  0  1  0            999 V2000
  -30.5159  -14.9433   20.4224 C   0  0  0  0  0  0
  -30.4507  -12.5741   19.5110 C   0  0  0  0  0  0
  -29.5338  -12.5325   18.2644 C   0  0  0  0  0  0
  -28.0624  -12.3181   18.6714 C   0  0  0  0  0  0
  -27.6340  -13.2456   19.8374 C   0  0  2  0  0  0
  -28.6723  -13.2621   20.9777 C   0  0  0  0  0  0
  -25.2488  -13.8210   20.5701 C   0  0  0  0  0  0
  -24.1792  -13.0437   20.9204 C   0  0  0  0  0  0
  -24.6405  -11.6922   20.8732 C   0  0  0  0  0  0
  -23.9084  -10.4291   21.0399 C   0  0  0  0  0  0
  -24.3632   -9.4205   21.9176 C   0  0  0  0  0  0
  -23.6298   -8.2246   22.0752 C   0  0  0  0  0  0
  -22.4279   -8.0284   21.3543 C   0  0  0  0  0  0
  -21.9918   -9.0259   20.4645 C   0  0  0  0  0  0
  -22.7256  -10.2133   20.3049 C   0  0  0  0  0  0
  -21.6861   -6.0733   22.5277 C   0  0  0  0  0  0
  -21.4019   -6.5636   23.8209 C   0  0  0  0  0  0
  -21.3664   -5.6788   24.9172 C   0  0  0  0  0  0
  -21.6045   -4.3050   24.7220 C   0  0  0  0  0  0
  -21.8819   -3.8143   23.4341 C   0  0  0  0  0  0
  -21.9194   -4.6960   22.3399 C   0  0  0  0  0  0
  -22.7811  -13.5208   21.1869 C   0  0  0  0  0  0
  -22.1661   -4.2145   21.0975 F   0  0  0  0  0  0
  -21.5633   -3.4536   25.7733 F   0  0  0  0  0  0
  -29.9615  -13.6634   20.4022 N   0  0  0  0  0  0
  -26.2906  -12.9435   20.3217 N   0  0  0  0  0  0
  -25.9337  -11.6568   20.5711 N   0  0  0  0  0  0
  -22.0467  -12.8199   22.0432 N   0  0  0  0  0  0
  -25.4185  -15.1941   20.4168 N   0  0  0  0  0  0
  -31.7153  -15.0211   20.1317 O   0  0  0  0  0  0
  -21.6644   -6.8880   21.4241 O   0  0  0  0  0  0
  -22.3483  -14.5508   20.6711 O   0  0  0  0  0  0
  -24.6441  -31.8441   23.1883 C   0  0  0  0  0  0
  -25.9211  -32.4693   23.8270 C   0  0  1  0  0  0
  -27.2175  -27.1360   20.1491 C   0  0  0  0  0  0
  -25.5958  -33.8499   24.2184 N   0  0  0  0  0  0
  -23.4478  -30.4643   21.5335 C   0  0  2  0  0  0
  -24.8975  -28.8928   20.1087 C   0  0  0  0  0  0
  -22.7569  -29.4550   22.4851 C   0  0  0  0  0  0
  -18.0306  -28.1397   22.8478 C   0  0  0  0  0  0
  -24.1493  -36.7258   23.2642 C   0  0  0  0  0  0
  -26.0044  -30.7176   21.3879 C   0  0  0  0  0  0
  -26.0755  -29.3296   20.7279 C   0  0  0  0  0  0
  -27.2365  -28.4677   20.7307 C   0  0  0  0  0  0
  -26.0130  -26.8045   19.4877 C   0  0  0  0  0  0
  -24.8797  -27.6438   19.4725 C   0  0  0  0  0  0
  -23.6743  -29.7949   20.1524 C   0  0  0  0  0  0
  -25.4124  -36.3031   24.0314 C   0  0  1  0  0  0
  -20.5919  -28.3725   23.1231 C   0  0  2  0  0  0
  -20.6788  -26.9427   22.5401 C   0  0  0  0  0  0
  -19.5763  -26.6382   21.5210 C   0  0  0  0  0  0
  -18.1945  -26.7935   22.1623 C   0  0  0  0  0  0
  -19.1563  -28.8879   23.2847 C   0  0  0  0  0  0
  -18.9479  -30.1473   23.8876 C   0  0  0  0  0  0
  -17.6476  -30.6593   24.0560 C   0  0  0  0  0  0
  -25.9075  -34.9406   23.5057 C   0  0  0  0  0  0
  -16.5366  -29.9086   23.6336 C   0  0  0  0  0  0
  -16.7289  -28.6504   23.0358 C   0  0  0  0  0  0
  -26.4530  -31.6564   25.0715 C   0  0  0  0  0  0
  -25.3709  -31.3758   26.1404 C   0  0  0  0  0  0
  -27.0398  -30.2958   24.6307 C   0  0  0  0  0  0
  -27.6058  -32.4331   25.7503 C   0  0  0  0  0  0
  -27.5576  -37.1784   24.8464 C   0  0  0  0  0  0
  -21.4260  -29.3051   22.3601 N   0  0  0  0  0  0
  -26.4288  -37.3745   23.9406 N   0  0  0  0  0  0
  -24.7186  -31.0298   22.0916 N   0  0  0  0  0  0
  -23.4211  -28.8096   23.3001 O   0  0  0  0  0  0
  -28.2614  -26.1410   20.2309 O   0  0  0  0  0  0
  -26.5662  -34.8908   22.4637 O   0  0  0  0  0  0
  -23.5557  -32.1319   23.7098 O   0  0  0  0  0  0
  -30.7744  -21.2296   20.9013 C   0  0  0  0  0  0
  -30.2645  -23.6311   20.7662 C   0  0  0  0  0  0
  -31.1706  -22.5804   21.0359 C   0  0  0  0  0  0
  -29.4690  -20.8899   20.5043 C   0  0  0  0  0  0
  -28.9461  -23.3559   20.3667 C   0  0  0  0  0  0
  -32.5809  -22.8953   21.4914 C   0  0  0  0  0  0
  -30.8453  -18.0581   19.0221 C   0  0  0  0  0  0
  -29.0565  -19.2886   20.4654 C   0  0  0  0  0  0
  -27.9366  -24.6239   20.0631 C   0  0  0  0  0  0
  -29.6375  -16.3469   20.6349 C   0  0  0  0  0  0
  -30.1054  -17.9583   20.3673 C   0  0  1  0  0  0
  -28.5847  -21.9781   20.2512 N   0  0  0  0  0  0
  -31.4866  -12.7308   19.2072 H   0  0  0  0  0  0
  -30.4362  -11.6169   20.0342 H   0  0  0  0  0  0
  -29.8533  -11.7419   17.5842 H   0  0  0  0  0  0
  -29.6290  -13.4690   17.7133 H   0  0  0  0  0  0
  -27.9528  -11.2756   18.9725 H   0  0  0  0  0  0
  -27.4059  -12.4589   17.8120 H   0  0  0  0  0  0
  -27.5999  -14.2485   19.4137 H   0  0  0  0  0  0
  -28.7456  -12.2837   21.4539 H   0  0  0  0  0  0
  -28.3704  -13.9631   21.7570 H   0  0  0  0  0  0
  -25.2780   -9.5681   22.4746 H   0  0  0  0  0  0
  -24.0007   -7.4637   22.7472 H   0  0  0  0  0  0
  -21.0848   -8.8779   19.8949 H   0  0  0  0  0  0
  -22.3716  -10.9668   19.6154 H   0  0  0  0  0  0
  -21.2012   -7.6144   23.9711 H   0  0  0  0  0  0
  -21.1491   -6.0518   25.9075 H   0  0  0  0  0  0
  -22.0594   -2.7604   23.2841 H   0  0  0  0  0  0
  -22.4095  -11.9874   22.4832 H   0  0  0  0  0  0
  -21.1077  -13.1213   22.2624 H   0  0  0  0  0  0
  -24.6557  -15.8510   20.5406 H   0  0  0  0  0  0
  -26.2753  -15.6368   20.1105 H   0  0  0  0  0  0
  -26.7276  -32.5297   23.0996 H   0  0  0  0  0  0
  -25.0074  -33.9607   25.0312 H   0  0  0  0  0  0
  -22.7509  -31.2908   21.3791 H   0  0  0  0  0  0
  -23.3758  -35.9587   23.3289 H   0  0  0  0  0  0
  -24.3579  -36.8907   22.2059 H   0  0  0  0  0  0
  -23.7246  -37.6450   23.6688 H   0  0  0  0  0  0
  -26.1610  -31.4730   20.6166 H   0  0  0  0  0  0
  -26.8746  -30.7666   22.0308 H   0  0  0  0  0  0
  -28.1330  -28.7962   21.2374 H   0  0  0  0  0  0
  -25.9054  -25.8529   18.9906 H   0  0  0  0  0  0
  -23.9814  -27.3053   18.9741 H   0  0  0  0  0  0
  -23.8106  -30.5702   19.3975 H   0  0  0  0  0  0
  -22.7891  -29.2374   19.8414 H   0  0  0  0  0  0
  -25.1312  -36.1858   25.0807 H   0  0  0  0  0  0
  -21.0012  -28.3316   24.1350 H   0  0  0  0  0  0
  -20.5680  -26.2340   23.3622 H   0  0  0  0  0  0
  -21.6654  -26.7428   22.1203 H   0  0  0  0  0  0
  -19.6924  -25.6285   21.1259 H   0  0  0  0  0  0
  -19.6700  -27.3176   20.6728 H   0  0  0  0  0  0
  -17.4212  -26.6678   21.4028 H   0  0  0  0  0  0
  -18.0346  -26.0081   22.9026 H   0  0  0  0  0  0
  -19.7954  -30.7294   24.2239 H   0  0  0  0  0  0
  -17.5028  -31.6271   24.5165 H   0  0  0  0  0  0
  -15.5366  -30.2982   23.7670 H   0  0  0  0  0  0
  -15.8689  -28.0814   22.7085 H   0  0  0  0  0  0
  -24.5892  -30.7103   25.7721 H   0  0  0  0  0  0
  -24.8892  -32.2942   26.4770 H   0  0  0  0  0  0
  -25.7983  -30.8968   27.0220 H   0  0  0  0  0  0
  -26.3018  -29.6674   24.1304 H   0  0  0  0  0  0
  -27.3996  -29.7265   25.4888 H   0  0  0  0  0  0
  -27.8935  -30.4190   23.9637 H   0  0  0  0  0  0
  -27.2648  -33.3646   26.2031 H   0  0  0  0  0  0
  -28.3897  -32.6865   25.0355 H   0  0  0  0  0  0
  -28.0695  -31.8490   26.5462 H   0  0  0  0  0  0
  -28.2582  -38.0091   24.7509 H   0  0  0  0  0  0
  -28.1083  -36.2618   24.6290 H   0  0  0  0  0  0
  -27.2293  -37.1431   25.8867 H   0  0  0  0  0  0
  -20.9468  -29.8765   21.6781 H   0  0  0  0  0  0
  -26.0153  -38.2814   24.1408 H   0  0  0  0  0  0
  -31.4813  -20.4428   21.1253 H   0  0  0  0  0  0
  -30.5763  -24.6623   20.8690 H   0  0  0  0  0  0
  -33.3099  -22.4635   20.8056 H   0  0  0  0  0  0
  -32.7580  -22.4802   22.4839 H   0  0  0  0  0  0
  -32.7568  -23.9699   21.5392 H   0  0  0  0  0  0
  -31.2269  -19.0655   18.8526 H   0  0  0  0  0  0
  -30.1843  -17.8110   18.1909 H   0  0  0  0  0  0
  -31.7007  -17.3855   18.9797 H   0  0  0  0  0  0
  -28.3369  -19.1894   19.6529 H   0  0  0  0  0  0
  -28.4642  -19.1409   21.3686 H   0  0  0  0  0  0
  -27.0426  -24.4279   20.6559 H   0  0  0  0  0  0
  -27.6360  -24.4870   19.0243 H   0  0  0  0  0  0
  -28.7468  -16.1990   20.0266 H   0  0  0  0  0  0
  -29.2729  -16.2973   21.6610 H   0  0  0  0  0  0
  -30.8501  -18.1446   21.1413 H   0  0  0  0  0  0
  1 25  1  0  0  0
  1 30  2  0  0  0
  1 80  1  0  0  0
  2  3  1  0  0  0
  2 25  1  0  0  0
  2 83  1  0  0  0
  2 84  1  0  0  0
  3  4  1  0  0  0
  3 85  1  0  0  0
  3 86  1  0  0  0
  4  5  1  0  0  0
  4 87  1  0  0  0
  4 88  1  0  0  0
  5  6  1  0  0  0
  5 26  1  0  0  0
  5 89  1  0  0  0
  6 25  1  0  0  0
  6 90  1  0  0  0
  6 91  1  0  0  0
  7  8  2  0  0  0
  7 26  1  0  0  0
  7 29  1  0  0  0
  8  9  1  0  0  0
  8 22  1  0  0  0
  9 10  1  0  0  0
  9 27  2  0  0  0
 10 11  2  0  0  0
 10 15  1  0  0  0
 11 12  1  0  0  0
 11 92  1  0  0  0
 12 13  2  0  0  0
 12 93  1  0  0  0
 13 14  1  0  0  0
 13 31  1  0  0  0
 14 15  2  0  0  0
 14 94  1  0  0  0
 15 95  1  0  0  0
 16 17  2  0  0  0
 16 21  1  0  0  0
 16 31  1  0  0  0
 17 18  1  0  0  0
 17 96  1  0  0  0
 18 19  2  0  0  0
 18 97  1  0  0  0
 19 20  1  0  0  0
 19 24  1  0  0  0
 20 21  2  0  0  0
 20 98  1  0  0  0
 21 23  1  0  0  0
 22 28  1  0  0  0
 22 32  2  0  0  0
 26 27  1  0  0  0
 28 99  1  0  0  0
 28100  1  0  0  0
 29101  1  0  0  0
 29102  1  0  0  0
 33 34  1  0  0  0
 33 66  1  0  0  0
 33 70  2  0  0  0
 34 36  1  0  0  0
 34 59  1  0  0  0
 34103  1  0  0  0
 35 44  2  0  0  0
 35 45  1  0  0  0
 35 68  1  0  0  0
 36 56  1  0  0  0
 36104  1  0  0  0
 37 39  1  0  0  0
 37 47  1  0  0  0
 37 66  1  0  0  0
 37105  1  0  0  0
 38 43  2  0  0  0
 38 46  1  0  0  0
 38 47  1  0  0  0
 39 64  1  0  0  0
 39 67  2  0  0  0
 40 52  1  0  0  0
 40 53  2  0  0  0
 40 58  1  0  0  0
 41106  1  0  0  0
 41107  1  0  0  0
 41108  1  0  0  0
 41 48  1  0  0  0
 42 43  1  0  0  0
 42 66  1  0  0  0
 42109  1  0  0  0
 42110  1  0  0  0
 43 44  1  0  0  0
 44111  1  0  0  0
 45 46  2  0  0  0
 45112  1  0  0  0
 46113  1  0  0  0
 47114  1  0  0  0
 47115  1  0  0  0
 48 56  1  0  0  0
 48 65  1  0  0  0
 48116  1  0  0  0
 49 50  1  0  0  0
 49 53  1  0  0  0
 49 64  1  0  0  0
 49117  1  0  0  0
 50 51  1  0  0  0
 50118  1  0  0  0
 50119  1  0  0  0
 51 52  1  0  0  0
 51120  1  0  0  0
 51121  1  0  0  0
 52122  1  0  0  0
 52123  1  0  0  0
 53 54  1  0  0  0
 54 55  2  0  0  0
 54124  1  0  0  0
 55 57  1  0  0  0
 55125  1  0  0  0
 56 69  2  0  0  0
 57 58  2  0  0  0
 57126  1  0  0  0
 58127  1  0  0  0
 59 60  1  0  0  0
 59 61  1  0  0  0
 59 62  1  0  0  0
 60128  1  0  0  0
 60129  1  0  0  0
 60130  1  0  0  0
 61131  1  0  0  0
 61132  1  0  0  0
 61133  1  0  0  0
 62134  1  0  0  0
 62135  1  0  0  0
 62136  1  0  0  0
 63 65  1  0  0  0
 63137  1  0  0  0
 63138  1  0  0  0
 63139  1  0  0  0
 64140  1  0  0  0
 65141  1  0  0  0
 68 79  1  0  0  0
 71 73  2  0  0  0
 71 74  1  0  0  0
 71142  1  0  0  0
 72 73  1  0  0  0
 72 75  2  0  0  0
 72143  1  0  0  0
 73 76  1  0  0  0
 74 78  1  0  0  0
 74 82  2  0  0  0
 75 79  1  0  0  0
 75 82  1  0  0  0
 76144  1  0  0  0
 76145  1  0  0  0
 76146  1  0  0  0
 77147  1  0  0  0
 77148  1  0  0  0
 77149  1  0  0  0
 77 81  1  0  0  0
 78 81  1  0  0  0
 78150  1  0  0  0
 78151  1  0  0  0
 79152  1  0  0  0
 79153  1  0  0  0
 80 81  1  0  0  0
 80154  1  0  0  0
 80155  1  0  0  0
 81156  1  0  0  0
M  ISO  4   1 100  68 101  79 101  80 100
M  END
> <chiral flag>
0

> <version>
0

> <s_m_source_file>
/data/baiqing/PycharmProjects/Reinvent-master-3.2/result/LINK_invent/BTK/process_docking_weight1_custom_sum_contain_oxygen_bond_distance_aromatic_linkinvent_7_9_3/rearranged_h_0048.sdf

> <i_m_source_file_index>
54

> <r_mmod_Potential_Energy-OPLS-2005>
406.934265136719

> <r_mmod_Stretch_Energy-OPLS-2005>
270.846710205078

> <r_mmod_Bend_Energy-OPLS-2005>
242.533981323242

> <r_mmod_Torsional_Energy-OPLS-2005>
180.323196411133

> <r_mmod_Improper_Torsional_Energy-OPLS-2005>
3.5134859085083

> <r_mmod_Van_der_Waal_Energy-OPLS-2005>
126.417350769043

> <r_mmod_Electrostatic_Energy-OPLS-2005>
-398.702087402344

> <r_mmod_Solvation_Energy-OPLS-2005>
-209.420333862305

> <b_mmod_Minimization_Converged-OPLS-2005>
0

> <r_mmod_RMS_Derivative-OPLS-2005>
0.796458840370178

$$$$
55
                    3D
 Structure written by MMmdl.
169177  0  0  1  0            999 V2000
  -30.7652  -14.3994   20.5257 C   0  0  0  0  0  0
  -30.4270  -12.2570   19.3679 C   0  0  0  0  0  0
  -29.4858  -12.4916   18.1707 C   0  0  0  0  0  0
  -28.0040  -12.3840   18.5996 C   0  0  0  0  0  0
  -27.6706  -13.2102   19.8716 C   0  0  2  0  0  0
  -28.7329  -12.9839   20.9712 C   0  0  0  0  0  0
  -25.2650  -13.8177   20.5720 C   0  0  0  0  0  0
  -24.1877  -13.0474   20.9222 C   0  0  0  0  0  0
  -24.6437  -11.6928   20.8722 C   0  0  0  0  0  0
  -23.9086  -10.4288   21.0389 C   0  0  0  0  0  0
  -24.3621   -9.4200   21.9193 C   0  0  0  0  0  0
  -23.6278   -8.2234   22.0749 C   0  0  0  0  0  0
  -22.4276   -8.0290   21.3573 C   0  0  0  0  0  0
  -21.9919   -9.0244   20.4635 C   0  0  0  0  0  0
  -22.7228  -10.2130   20.3063 C   0  0  0  0  0  0
  -21.6879   -6.0723   22.5277 C   0  0  0  0  0  0
  -21.3989   -6.5625   23.8212 C   0  0  0  0  0  0
  -21.3659   -5.6773   24.9171 C   0  0  0  0  0  0
  -21.6073   -4.3026   24.7227 C   0  0  0  0  0  0
  -21.8824   -3.8135   23.4344 C   0  0  0  0  0  0
  -21.9159   -4.6955   22.3388 C   0  0  0  0  0  0
  -22.7908  -13.5241   21.1892 C   0  0  0  0  0  0
  -22.1659   -4.2135   21.0977 F   0  0  0  0  0  0
  -21.5636   -3.4520   25.7753 F   0  0  0  0  0  0
  -30.0669  -13.2583   20.3843 N   0  0  0  0  0  0
  -26.3117  -12.9352   20.3406 N   0  0  0  0  0  0
  -25.9393  -11.6504   20.5829 N   0  0  0  0  0  0
  -22.0511  -12.8194   22.0375 N   0  0  0  0  0  0
  -25.4353  -15.1899   20.4095 N   0  0  0  0  0  0
  -31.9491  -14.5384   20.2353 O   0  0  0  0  0  0
  -21.6663   -6.8887   21.4258 O   0  0  0  0  0  0
  -22.3566  -14.5496   20.6642 O   0  0  0  0  0  0
  -24.6085  -31.8695   23.2151 C   0  0  0  0  0  0
  -25.9006  -32.4833   23.8434 C   0  0  1  0  0  0
  -27.2312  -27.4807   20.1018 C   0  0  0  0  0  0
  -25.5886  -33.8629   24.2378 N   0  0  0  0  0  0
  -23.3923  -30.4969   21.5550 C   0  0  2  0  0  0
  -24.8350  -28.9695   20.1225 C   0  0  0  0  0  0
  -22.7371  -29.4670   22.5016 C   0  0  0  0  0  0
  -18.0276  -28.1376   22.8500 C   0  0  0  0  0  0
  -24.1478  -36.7323   23.2638 C   0  0  0  0  0  0
  -25.9121  -30.8582   21.3544 C   0  0  0  0  0  0
  -25.9936  -29.4923   20.7112 C   0  0  0  0  0  0
  -27.1945  -28.7573   20.6973 C   0  0  0  0  0  0
  -26.0627  -26.9657   19.4988 C   0  0  0  0  0  0
  -24.8638  -27.7039   19.5107 C   0  0  0  0  0  0
  -23.5943  -29.8300   20.1694 C   0  0  0  0  0  0
  -25.4095  -36.3127   24.0341 C   0  0  1  0  0  0
  -20.5839  -28.3647   23.1338 C   0  0  2  0  0  0
  -20.6752  -26.9390   22.5411 C   0  0  0  0  0  0
  -19.5739  -26.6398   21.5201 C   0  0  0  0  0  0
  -18.1909  -26.7928   22.1606 C   0  0  0  0  0  0
  -19.1502  -28.8834   23.2917 C   0  0  0  0  0  0
  -18.9450  -30.1439   23.8933 C   0  0  0  0  0  0
  -17.6449  -30.6582   24.0584 C   0  0  0  0  0  0
  -25.9002  -34.9480   23.5156 C   0  0  0  0  0  0
  -16.5347  -29.9092   23.6328 C   0  0  0  0  0  0
  -16.7250  -28.6506   23.0343 C   0  0  0  0  0  0
  -26.4494  -31.6584   25.0721 C   0  0  0  0  0  0
  -25.3818  -31.3603   26.1513 C   0  0  0  0  0  0
  -27.0304  -30.3062   24.5961 C   0  0  0  0  0  0
  -27.6088  -32.4294   25.7455 C   0  0  0  0  0  0
  -27.5581  -37.1811   24.8469 C   0  0  0  0  0  0
  -21.4100  -29.3032   22.3754 N   0  0  0  0  0  0
  -26.4295  -37.3815   23.9407 N   0  0  0  0  0  0
  -24.6554  -31.0867   22.1032 N   0  0  0  0  0  0
  -23.4164  -28.8198   23.3045 O   0  0  0  0  0  0
  -28.4228  -26.8095   20.0723 O   0  0  0  0  0  0
  -26.5562  -34.8932   22.4718 O   0  0  0  0  0  0
  -23.5280  -32.1432   23.7614 O   0  0  0  0  0  0
  -31.7159  -24.8738   18.9528 C   0  0  0  0  0  0
  -31.8274  -23.4664   18.9732 C   0  0  0  0  0  0
  -29.8152  -23.3082   20.1030 C   0  0  0  0  0  0
  -29.6696  -24.7229   20.0177 C   0  0  0  0  0  0
  -32.9755  -22.7827   18.2667 C   0  0  0  0  0  0
  -26.7760  -18.9727   22.8513 C   0  0  0  0  0  0
  -28.7710  -22.3897   20.7348 C   0  0  0  0  0  0
  -28.4004  -25.4378   20.4481 C   0  0  0  0  0  0
  -29.1405  -21.9508   22.1662 C   0  0  0  0  0  0
  -29.0715  -17.5555   21.4780 C   0  0  0  0  0  0
  -30.3595  -16.7191   21.3777 C   0  0  0  0  0  0
  -28.1267  -21.0155   22.8745 C   0  0  0  0  0  0
  -29.1905  -18.8252   22.3430 C   0  0  0  0  0  0
  -30.6378  -25.5017   19.4704 N   0  0  0  0  0  0
  -30.8994  -22.6830   19.5765 N   0  0  0  0  0  0
  -29.9751  -15.4427   20.7949 N   0  0  0  0  0  0
  -27.9612  -19.6596   22.2789 N   0  3  1  0  0  0
  -31.4713  -12.3347   19.0574 H   0  0  0  0  0  0
  -30.3031  -11.2465   19.7640 H   0  0  0  0  0  0
  -29.6938  -11.7750   17.3788 H   0  0  0  0  0  0
  -29.6696  -13.4777   17.7412 H   0  0  0  0  0  0
  -27.7714  -11.3303   18.7557 H   0  0  0  0  0  0
  -27.3669  -12.7096   17.7714 H   0  0  0  0  0  0
  -27.7051  -14.2602   19.5746 H   0  0  0  0  0  0
  -28.7032  -11.9529   21.3216 H   0  0  0  0  0  0
  -28.5358  -13.6019   21.8473 H   0  0  0  0  0  0
  -25.2797   -9.5641   22.4728 H   0  0  0  0  0  0
  -23.9986   -7.4630   22.7442 H   0  0  0  0  0  0
  -21.0870   -8.8767   19.8935 H   0  0  0  0  0  0
  -22.3733  -10.9660   19.6120 H   0  0  0  0  0  0
  -21.2008   -7.6149   23.9714 H   0  0  0  0  0  0
  -21.1493   -6.0523   25.9078 H   0  0  0  0  0  0
  -22.0605   -2.7608   23.2867 H   0  0  0  0  0  0
  -22.4093  -11.9871   22.4791 H   0  0  0  0  0  0
  -21.1150  -13.1190   22.2598 H   0  0  0  0  0  0
  -24.6641  -15.8442   20.4962 H   0  0  0  0  0  0
  -26.2839  -15.6212   20.0708 H   0  0  0  0  0  0
  -26.7075  -32.5600   23.1188 H   0  0  0  0  0  0
  -25.0096  -33.9827   25.0561 H   0  0  0  0  0  0
  -22.6792  -31.3114   21.4208 H   0  0  0  0  0  0
  -23.3739  -35.9663   23.3301 H   0  0  0  0  0  0
  -24.3590  -36.8933   22.2061 H   0  0  0  0  0  0
  -23.7229  -37.6522   23.6646 H   0  0  0  0  0  0
  -25.9985  -31.6191   20.5777 H   0  0  0  0  0  0
  -26.8103  -30.9291   21.9548 H   0  0  0  0  0  0
  -28.0904  -29.1645   21.1446 H   0  0  0  0  0  0
  -26.0624  -26.0117   18.9893 H   0  0  0  0  0  0
  -23.9779  -27.2976   19.0392 H   0  0  0  0  0  0
  -23.6994  -30.6043   19.4091 H   0  0  0  0  0  0
  -22.7210  -29.2440   19.8740 H   0  0  0  0  0  0
  -25.1265  -36.1998   25.0838 H   0  0  0  0  0  0
  -20.9939  -28.3206   24.1461 H   0  0  0  0  0  0
  -20.5659  -26.2245   23.3585 H   0  0  0  0  0  0
  -21.6630  -26.7436   22.1206 H   0  0  0  0  0  0
  -19.6893  -25.6317   21.1209 H   0  0  0  0  0  0
  -19.6684  -27.3235   20.6753 H   0  0  0  0  0  0
  -17.4173  -26.6688   21.4007 H   0  0  0  0  0  0
  -18.0304  -26.0054   22.8988 H   0  0  0  0  0  0
  -19.7913  -30.7245   24.2297 H   0  0  0  0  0  0
  -17.5002  -31.6264   24.5176 H   0  0  0  0  0  0
  -15.5334  -30.3003   23.7645 H   0  0  0  0  0  0
  -15.8645  -28.0846   22.7031 H   0  0  0  0  0  0
  -24.5960  -30.6991   25.7831 H   0  0  0  0  0  0
  -24.9081  -32.2743   26.5112 H   0  0  0  0  0  0
  -25.8279  -30.8653   27.0153 H   0  0  0  0  0  0
  -26.2767  -29.6778   24.1199 H   0  0  0  0  0  0
  -27.4340  -29.7329   25.4310 H   0  0  0  0  0  0
  -27.8487  -30.4435   23.8886 H   0  0  0  0  0  0
  -27.2703  -33.3551   26.2115 H   0  0  0  0  0  0
  -28.3842  -32.6912   25.0240 H   0  0  0  0  0  0
  -28.0805  -31.8362   26.5292 H   0  0  0  0  0  0
  -28.2586  -38.0119   24.7527 H   0  0  0  0  0  0
  -28.1083  -36.2649   24.6263 H   0  0  0  0  0  0
  -27.2306  -37.1424   25.8877 H   0  0  0  0  0  0
  -20.9220  -29.8769   21.7001 H   0  0  0  0  0  0
  -26.0167  -38.2882   24.1453 H   0  0  0  0  0  0
  -32.4699  -25.5000   18.4961 H   0  0  0  0  0  0
  -33.3870  -23.4266   17.4881 H   0  0  0  0  0  0
  -32.6359  -21.8610   17.7972 H   0  0  0  0  0  0
  -33.7730  -22.5458   18.9684 H   0  0  0  0  0  0
  -25.8940  -19.6055   22.7662 H   0  0  0  0  0  0
  -26.9260  -18.7467   23.9055 H   0  0  0  0  0  0
  -26.5426  -18.0453   22.3312 H   0  0  0  0  0  0
  -28.6679  -21.5168   20.0862 H   0  0  0  0  0  0
  -27.7968  -22.8732   20.7376 H   0  0  0  0  0  0
  -28.2902  -25.3676   21.5258 H   0  0  0  0  0  0
  -27.5678  -24.9170   19.9907 H   0  0  0  0  0  0
  -29.2236  -22.8501   22.7731 H   0  0  0  0  0  0
  -30.1344  -21.5142   22.1694 H   0  0  0  0  0  0
  -28.2991  -16.9191   21.9098 H   0  0  0  0  0  0
  -28.7709  -17.8227   20.4652 H   0  0  0  0  0  0
  -30.7196  -16.4713   22.3840 H   0  0  0  0  0  0
  -31.1344  -17.2252   20.7843 H   0  0  0  0  0  0
  -27.1529  -21.5113   22.9090 H   0  0  0  0  0  0
  -28.4284  -20.8881   23.9161 H   0  0  0  0  0  0
  -30.0344  -19.3948   21.9750 H   0  0  0  0  0  0
  -29.4052  -18.5688   23.3818 H   0  0  0  0  0  0
  -28.9762  -15.3229   20.6477 H   0  0  0  0  0  0
  -27.7410  -19.7840   21.3045 H   0  0  0  0  0  0
  1 25  1  0  0  0
  1 30  2  0  0  0
  1 86  1  0  0  0
  2  3  1  0  0  0
  2 25  1  0  0  0
  2 88  1  0  0  0
  2 89  1  0  0  0
  3  4  1  0  0  0
  3 90  1  0  0  0
  3 91  1  0  0  0
  4  5  1  0  0  0
  4 92  1  0  0  0
  4 93  1  0  0  0
  5  6  1  0  0  0
  5 26  1  0  0  0
  5 94  1  0  0  0
  6 25  1  0  0  0
  6 95  1  0  0  0
  6 96  1  0  0  0
  7  8  2  0  0  0
  7 26  1  0  0  0
  7 29  1  0  0  0
  8  9  1  0  0  0
  8 22  1  0  0  0
  9 10  1  0  0  0
  9 27  2  0  0  0
 10 11  2  0  0  0
 10 15  1  0  0  0
 11 12  1  0  0  0
 11 97  1  0  0  0
 12 13  2  0  0  0
 12 98  1  0  0  0
 13 14  1  0  0  0
 13 31  1  0  0  0
 14 15  2  0  0  0
 14 99  1  0  0  0
 15100  1  0  0  0
 16 17  2  0  0  0
 16 21  1  0  0  0
 16 31  1  0  0  0
 17 18  1  0  0  0
 17101  1  0  0  0
 18 19  2  0  0  0
 18102  1  0  0  0
 19 20  1  0  0  0
 19 24  1  0  0  0
 20 21  2  0  0  0
 20103  1  0  0  0
 21 23  1  0  0  0
 22 28  1  0  0  0
 22 32  2  0  0  0
 26 27  1  0  0  0
 28104  1  0  0  0
 28105  1  0  0  0
 29106  1  0  0  0
 29107  1  0  0  0
 33 34  1  0  0  0
 33 66  1  0  0  0
 33 70  2  0  0  0
 34 36  1  0  0  0
 34 59  1  0  0  0
 34108  1  0  0  0
 35 44  2  0  0  0
 35 45  1  0  0  0
 35 68  1  0  0  0
 36 56  1  0  0  0
 36109  1  0  0  0
 37 39  1  0  0  0
 37 47  1  0  0  0
 37 66  1  0  0  0
 37110  1  0  0  0
 38 43  2  0  0  0
 38 46  1  0  0  0
 38 47  1  0  0  0
 39 64  1  0  0  0
 39 67  2  0  0  0
 40 52  1  0  0  0
 40 53  2  0  0  0
 40 58  1  0  0  0
 41111  1  0  0  0
 41112  1  0  0  0
 41113  1  0  0  0
 41 48  1  0  0  0
 42 43  1  0  0  0
 42 66  1  0  0  0
 42114  1  0  0  0
 42115  1  0  0  0
 43 44  1  0  0  0
 44116  1  0  0  0
 45 46  2  0  0  0
 45117  1  0  0  0
 46118  1  0  0  0
 47119  1  0  0  0
 47120  1  0  0  0
 48 56  1  0  0  0
 48 65  1  0  0  0
 48121  1  0  0  0
 49 50  1  0  0  0
 49 53  1  0  0  0
 49 64  1  0  0  0
 49122  1  0  0  0
 50 51  1  0  0  0
 50123  1  0  0  0
 50124  1  0  0  0
 51 52  1  0  0  0
 51125  1  0  0  0
 51126  1  0  0  0
 52127  1  0  0  0
 52128  1  0  0  0
 53 54  1  0  0  0
 54 55  2  0  0  0
 54129  1  0  0  0
 55 57  1  0  0  0
 55130  1  0  0  0
 56 69  2  0  0  0
 57 58  2  0  0  0
 57131  1  0  0  0
 58132  1  0  0  0
 59 60  1  0  0  0
 59 61  1  0  0  0
 59 62  1  0  0  0
 60133  1  0  0  0
 60134  1  0  0  0
 60135  1  0  0  0
 61136  1  0  0  0
 61137  1  0  0  0
 61138  1  0  0  0
 62139  1  0  0  0
 62140  1  0  0  0
 62141  1  0  0  0
 63 65  1  0  0  0
 63142  1  0  0  0
 63143  1  0  0  0
 63144  1  0  0  0
 64145  1  0  0  0
 65146  1  0  0  0
 68 78  1  0  0  0
 71 72  2  0  0  0
 71 84  1  0  0  0
 71147  1  0  0  0
 72 75  1  0  0  0
 72 85  1  0  0  0
 73 74  1  0  0  0
 73 77  1  0  0  0
 73 85  2  0  0  0
 74 78  1  0  0  0
 74 84  2  0  0  0
 75148  1  0  0  0
 75149  1  0  0  0
 75150  1  0  0  0
 76151  1  0  0  0
 76152  1  0  0  0
 76153  1  0  0  0
 76 87  1  0  0  0
 77 79  1  0  0  0
 77154  1  0  0  0
 77155  1  0  0  0
 78156  1  0  0  0
 78157  1  0  0  0
 79 82  1  0  0  0
 79158  1  0  0  0
 79159  1  0  0  0
 80 81  1  0  0  0
 80 83  1  0  0  0
 80160  1  0  0  0
 80161  1  0  0  0
 81 86  1  0  0  0
 81162  1  0  0  0
 81163  1  0  0  0
 82 87  1  0  0  0
 82164  1  0  0  0
 82165  1  0  0  0
 83 87  1  0  0  0
 83166  1  0  0  0
 83167  1  0  0  0
 86168  1  0  0  0
 87169  1  0  0  0
M  CHG  1  87   1
M  ISO  4   1 100  68 101  78 101  86 100
M  END
> <chiral flag>
0

> <version>
0

> <s_m_source_file>
/data/baiqing/PycharmProjects/Reinvent-master-3.2/result/LINK_invent/BTK/process_docking_weight1_custom_sum_contain_oxygen_bond_distance_aromatic_linkinvent_7_9_3/rearranged_h_0048.sdf

> <i_m_source_file_index>
55

> <r_mmod_Potential_Energy-OPLS-2005>
-84.5121383666992

> <r_mmod_Stretch_Energy-OPLS-2005>
35.9563941955566

> <r_mmod_Bend_Energy-OPLS-2005>
101.917411804199

> <r_mmod_Torsional_Energy-OPLS-2005>
234.449172973633

> <r_mmod_Improper_Torsional_Energy-OPLS-2005>
5.28036975860596

> <r_mmod_Van_der_Waal_Energy-OPLS-2005>
165.143890380859

> <r_mmod_Electrostatic_Energy-OPLS-2005>
-150.228134155273

> <r_mmod_Solvation_Energy-OPLS-2005>
-494.742218017578

> <b_mmod_Minimization_Converged-OPLS-2005>
0

> <r_mmod_RMS_Derivative-OPLS-2005>
14.2090511322021

$$$$
56
                    3D
 Structure written by MMmdl.
179187  0  0  1  0            999 V2000
  -30.7699  -14.4604   20.5784 C   0  0  0  0  0  0
  -30.3865  -12.2991   19.4395 C   0  0  0  0  0  0
  -29.4868  -12.5339   18.2142 C   0  0  0  0  0  0
  -28.0135  -12.3666   18.6170 C   0  0  0  0  0  0
  -27.6537  -13.2159   19.8666 C   0  0  2  0  0  0
  -28.6958  -13.0502   21.0010 C   0  0  0  0  0  0
  -25.2502  -13.8173   20.5497 C   0  0  0  0  0  0
  -24.1816  -13.0430   20.9123 C   0  0  0  0  0  0
  -24.6419  -11.6910   20.8724 C   0  0  0  0  0  0
  -23.9088  -10.4283   21.0349 C   0  0  0  0  0  0
  -24.3621   -9.4210   21.9146 C   0  0  0  0  0  0
  -23.6289   -8.2251   22.0739 C   0  0  0  0  0  0
  -22.4289   -8.0255   21.3505 C   0  0  0  0  0  0
  -21.9927   -9.0232   20.4600 C   0  0  0  0  0  0
  -22.7253  -10.2120   20.3003 C   0  0  0  0  0  0
  -21.6868   -6.0716   22.5266 C   0  0  0  0  0  0
  -21.4016   -6.5621   23.8194 C   0  0  0  0  0  0
  -21.3676   -5.6777   24.9163 C   0  0  0  0  0  0
  -21.6068   -4.3039   24.7235 C   0  0  0  0  0  0
  -21.8838   -3.8130   23.4362 C   0  0  0  0  0  0
  -21.9195   -4.6936   22.3406 C   0  0  0  0  0  0
  -22.7823  -13.5202   21.1786 C   0  0  0  0  0  0
  -22.1654   -4.2116   21.0975 F   0  0  0  0  0  0
  -21.5644   -3.4528   25.7760 F   0  0  0  0  0  0
  -30.0344  -13.3160   20.4504 N   0  0  0  0  0  0
  -26.2967  -12.9365   20.3296 N   0  0  0  0  0  0
  -25.9348  -11.6511   20.5764 N   0  0  0  0  0  0
  -22.0473  -12.8173   22.0339 N   0  0  0  0  0  0
  -25.4174  -15.1859   20.3664 N   0  0  0  0  0  0
  -31.8506  -14.5915   19.9953 O   0  0  0  0  0  0
  -21.6659   -6.8848   21.4213 O   0  0  0  0  0  0
  -22.3468  -14.5494   20.6622 O   0  0  0  0  0  0
  -24.6195  -31.8648   23.2151 C   0  0  0  0  0  0
  -25.9091  -32.4808   23.8455 C   0  0  1  0  0  0
  -27.2355  -27.4312   20.0873 C   0  0  0  0  0  0
  -25.5941  -33.8611   24.2386 N   0  0  0  0  0  0
  -23.4092  -30.4891   21.5532 C   0  0  2  0  0  0
  -24.8542  -28.9506   20.1238 C   0  0  0  0  0  0
  -22.7442  -29.4644   22.4998 C   0  0  0  0  0  0
  -18.0279  -28.1404   22.8505 C   0  0  0  0  0  0
  -24.1462  -36.7265   23.2656 C   0  0  0  0  0  0
  -25.9404  -30.8260   21.3740 C   0  0  0  0  0  0
  -26.0168  -29.4603   20.7195 C   0  0  0  0  0  0
  -27.2126  -28.7050   20.7034 C   0  0  0  0  0  0
  -26.0636  -26.9383   19.4851 C   0  0  0  0  0  0
  -24.8719  -27.6864   19.5095 C   0  0  0  0  0  0
  -23.6217  -29.8237   20.1681 C   0  0  0  0  0  0
  -25.4098  -36.3098   24.0358 C   0  0  1  0  0  0
  -20.5875  -28.3678   23.1306 C   0  0  2  0  0  0
  -20.6755  -26.9411   22.5408 C   0  0  0  0  0  0
  -19.5716  -26.6389   21.5228 C   0  0  0  0  0  0
  -18.1899  -26.7953   22.1631 C   0  0  0  0  0  0
  -19.1533  -28.8865   23.2882 C   0  0  0  0  0  0
  -18.9464  -30.1480   23.8900 C   0  0  0  0  0  0
  -17.6454  -30.6600   24.0581 C   0  0  0  0  0  0
  -25.9037  -34.9454   23.5148 C   0  0  0  0  0  0
  -16.5343  -29.9104   23.6367 C   0  0  0  0  0  0
  -16.7263  -28.6526   23.0379 C   0  0  0  0  0  0
  -26.4537  -31.6608   25.0790 C   0  0  0  0  0  0
  -25.3813  -31.3628   26.1522 C   0  0  0  0  0  0
  -27.0453  -30.3085   24.6195 C   0  0  0  0  0  0
  -27.6115  -32.4362   25.7528 C   0  0  0  0  0  0
  -27.5567  -37.1784   24.8498 C   0  0  0  0  0  0
  -21.4158  -29.3027   22.3712 N   0  0  0  0  0  0
  -26.4288  -37.3782   23.9440 N   0  0  0  0  0  0
  -24.6736  -31.0761   22.1055 N   0  0  0  0  0  0
  -23.4195  -28.8191   23.3064 O   0  0  0  0  0  0
  -28.3804  -26.6695   20.0373 O   0  0  0  0  0  0
  -26.5556  -34.8906   22.4696 O   0  0  0  0  0  0
  -23.5380  -32.1410   23.7516 O   0  0  0  0  0  0
  -27.6941  -21.9607   20.7694 C   0  0  0  0  0  0
  -29.9455  -22.4732   20.1119 C   0  0  0  0  0  0
  -28.9697  -21.4910   20.3892 C   0  0  0  0  0  0
  -27.4885  -23.3469   20.9655 C   0  0  0  0  0  0
  -28.5600  -24.2469   20.7224 C   0  0  0  0  0  0
  -26.1535  -23.8234   21.5142 C   0  0  0  0  0  0
  -29.6530  -19.6239   18.8328 C   0  0  0  0  0  0
  -32.3182  -18.6578   23.7894 C   0  0  0  0  0  0
  -34.4975  -18.0031   22.6821 C   0  0  0  0  0  0
  -27.8602  -16.9890   22.4614 C   0  0  0  0  0  0
  -28.5231  -25.7356   21.1202 C   0  0  0  0  0  0
  -32.3695  -16.8174   22.0332 C   0  0  0  0  0  0
  -28.3593  -18.9776   20.9640 C   0  0  0  0  0  0
  -31.1955  -15.8912   22.4700 C   0  0  0  0  0  0
  -29.6385  -16.6272   20.6866 C   0  0  0  0  0  0
  -29.3483  -19.9911   20.2966 C   0  0  2  0  0  0
  -33.1308  -17.4996   23.1823 C   0  0  0  0  0  0
  -28.9513  -17.6814   21.6226 C   0  0  2  0  0  0
  -29.7488  -23.8020   20.2597 N   0  0  0  0  0  0
  -30.3042  -15.4702   21.3617 N   0  0  0  0  0  0
  -31.4356  -12.3288   19.1431 H   0  0  0  0  0  0
  -30.2195  -11.2940   19.8379 H   0  0  0  0  0  0
  -29.7462  -11.8436   17.4110 H   0  0  0  0  0  0
  -29.6509  -13.5409   17.8214 H   0  0  0  0  0  0
  -27.8384  -11.3065   18.8139 H   0  0  0  0  0  0
  -27.3682  -12.6300   17.7775 H   0  0  0  0  0  0
  -27.6825  -14.2569   19.5461 H   0  0  0  0  0  0
  -28.6627  -12.0345   21.4024 H   0  0  0  0  0  0
  -28.4576  -13.7179   21.8283 H   0  0  0  0  0  0
  -25.2746   -9.5725   22.4740 H   0  0  0  0  0  0
  -24.0002   -7.4669   22.7487 H   0  0  0  0  0  0
  -21.0872   -8.8754   19.8891 H   0  0  0  0  0  0
  -22.3685  -10.9661   19.6133 H   0  0  0  0  0  0
  -21.1996   -7.6127   23.9702 H   0  0  0  0  0  0
  -21.1472   -6.0491   25.9066 H   0  0  0  0  0  0
  -22.0607   -2.7581   23.2888 H   0  0  0  0  0  0
  -22.4105  -11.9886   22.4794 H   0  0  0  0  0  0
  -21.1074  -13.1155   22.2484 H   0  0  0  0  0  0
  -24.6601  -15.8522   20.4614 H   0  0  0  0  0  0
  -26.2752  -15.6112   20.0403 H   0  0  0  0  0  0
  -26.7150  -32.5509   23.1214 H   0  0  0  0  0  0
  -25.0237  -33.9799   25.0618 H   0  0  0  0  0  0
  -22.7012  -31.3069   21.4130 H   0  0  0  0  0  0
  -23.3767  -35.9562   23.3350 H   0  0  0  0  0  0
  -24.3556  -36.8860   22.2069 H   0  0  0  0  0  0
  -23.7179  -37.6459   23.6658 H   0  0  0  0  0  0
  -26.0653  -31.5965   20.6124 H   0  0  0  0  0  0
  -26.8210  -30.8702   22.0025 H   0  0  0  0  0  0
  -28.1103  -29.0955   21.1586 H   0  0  0  0  0  0
  -26.0730  -25.9728   18.9992 H   0  0  0  0  0  0
  -23.9754  -27.2890   19.0543 H   0  0  0  0  0  0
  -23.7428  -30.6003   19.4114 H   0  0  0  0  0  0
  -22.7435  -29.2503   19.8656 H   0  0  0  0  0  0
  -25.1270  -36.1958   25.0856 H   0  0  0  0  0  0
  -20.9957  -28.3238   24.1428 H   0  0  0  0  0  0
  -20.5710  -26.2282   23.3595 H   0  0  0  0  0  0
  -21.6615  -26.7453   22.1174 H   0  0  0  0  0  0
  -19.6873  -25.6308   21.1248 H   0  0  0  0  0  0
  -19.6668  -27.3205   20.6770 H   0  0  0  0  0  0
  -17.4169  -26.6766   21.4012 H   0  0  0  0  0  0
  -18.0251  -26.0078   22.9008 H   0  0  0  0  0  0
  -19.7933  -30.7306   24.2253 H   0  0  0  0  0  0
  -17.5011  -31.6288   24.5167 H   0  0  0  0  0  0
  -15.5358  -30.2998   23.7703 H   0  0  0  0  0  0
  -15.8662  -28.0843   22.7107 H   0  0  0  0  0  0
  -24.6019  -30.6961   25.7815 H   0  0  0  0  0  0
  -24.8966  -32.2732   26.5058 H   0  0  0  0  0  0
  -25.8182  -30.8730   27.0237 H   0  0  0  0  0  0
  -26.3025  -29.6717   24.1379 H   0  0  0  0  0  0
  -27.4410  -29.7440   25.4659 H   0  0  0  0  0  0
  -27.8759  -30.4485   23.9271 H   0  0  0  0  0  0
  -27.2780  -33.3689   26.2079 H   0  0  0  0  0  0
  -28.3910  -32.6873   25.0329 H   0  0  0  0  0  0
  -28.0801  -31.8511   26.5450 H   0  0  0  0  0  0
  -28.2582  -38.0063   24.7558 H   0  0  0  0  0  0
  -28.1041  -36.2612   24.6320 H   0  0  0  0  0  0
  -27.2269  -37.1428   25.8884 H   0  0  0  0  0  0
  -20.9355  -29.8727   21.6893 H   0  0  0  0  0  0
  -26.0163  -38.2853   24.1487 H   0  0  0  0  0  0
  -26.8853  -21.2730   20.9683 H   0  0  0  0  0  0
  -30.9343  -22.1851   19.7865 H   0  0  0  0  0  0
  -25.3468  -23.1347   21.2646 H   0  0  0  0  0  0
  -25.8775  -24.8011   21.1236 H   0  0  0  0  0  0
  -26.2105  -23.8996   22.6000 H   0  0  0  0  0  0
  -30.5019  -20.1925   18.4490 H   0  0  0  0  0  0
  -28.7994  -19.8197   18.1847 H   0  0  0  0  0  0
  -29.9095  -18.5767   18.7033 H   0  0  0  0  0  0
  -32.8727  -19.1571   24.5827 H   0  0  0  0  0  0
  -31.3852  -18.3093   24.2309 H   0  0  0  0  0  0
  -32.0706  -19.4120   23.0412 H   0  0  0  0  0  0
  -35.0551  -18.5188   23.4670 H   0  0  0  0  0  0
  -34.3851  -18.6965   21.8462 H   0  0  0  0  0  0
  -35.1169  -17.1711   22.3418 H   0  0  0  0  0  0
  -27.4216  -17.6753   23.1840 H   0  0  0  0  0  0
  -28.2454  -16.1341   23.0172 H   0  0  0  0  0  0
  -27.0585  -16.6275   21.8200 H   0  0  0  0  0  0
  -29.4820  -25.9629   21.5882 H   0  0  0  0  0  0
  -27.7918  -25.9091   21.9096 H   0  0  0  0  0  0
  -32.0359  -17.6166   21.3743 H   0  0  0  0  0  0
  -33.0804  -16.2358   21.4454 H   0  0  0  0  0  0
  -27.5387  -18.7409   20.2855 H   0  0  0  0  0  0
  -27.8893  -19.5021   21.7982 H   0  0  0  0  0  0
  -30.6099  -16.3489   23.2625 H   0  0  0  0  0  0
  -31.6174  -15.0057   22.9442 H   0  0  0  0  0  0
  -30.4094  -17.1102   20.0938 H   0  0  0  0  0  0
  -28.9096  -16.2608   19.9618 H   0  0  0  0  0  0
  -30.2799  -19.9125   20.8584 H   0  0  0  0  0  0
  -33.3228  -16.7644   23.9666 H   0  0  0  0  0  0
  -29.6936  -18.0577   22.3227 H   0  0  0  0  0  0
  1 25  1  0  0  0
  1 30  2  0  0  0
  1 90  1  0  0  0
  2  3  1  0  0  0
  2 25  1  0  0  0
  2 91  1  0  0  0
  2 92  1  0  0  0
  3  4  1  0  0  0
  3 93  1  0  0  0
  3 94  1  0  0  0
  4  5  1  0  0  0
  4 95  1  0  0  0
  4 96  1  0  0  0
  5  6  1  0  0  0
  5 26  1  0  0  0
  5 97  1  0  0  0
  6 25  1  0  0  0
  6 98  1  0  0  0
  6 99  1  0  0  0
  7  8  2  0  0  0
  7 26  1  0  0  0
  7 29  1  0  0  0
  8  9  1  0  0  0
  8 22  1  0  0  0
  9 10  1  0  0  0
  9 27  2  0  0  0
 10 11  2  0  0  0
 10 15  1  0  0  0
 11 12  1  0  0  0
 11100  1  0  0  0
 12 13  2  0  0  0
 12101  1  0  0  0
 13 14  1  0  0  0
 13 31  1  0  0  0
 14 15  2  0  0  0
 14102  1  0  0  0
 15103  1  0  0  0
 16 17  2  0  0  0
 16 21  1  0  0  0
 16 31  1  0  0  0
 17 18  1  0  0  0
 17104  1  0  0  0
 18 19  2  0  0  0
 18105  1  0  0  0
 19 20  1  0  0  0
 19 24  1  0  0  0
 20 21  2  0  0  0
 20106  1  0  0  0
 21 23  1  0  0  0
 22 28  1  0  0  0
 22 32  2  0  0  0
 26 27  1  0  0  0
 28107  1  0  0  0
 28108  1  0  0  0
 29109  1  0  0  0
 29110  1  0  0  0
 33 34  1  0  0  0
 33 66  1  0  0  0
 33 70  2  0  0  0
 34 36  1  0  0  0
 34 59  1  0  0  0
 34111  1  0  0  0
 35 44  2  0  0  0
 35 45  1  0  0  0
 35 68  1  0  0  0
 36 56  1  0  0  0
 36112  1  0  0  0
 37 39  1  0  0  0
 37 47  1  0  0  0
 37 66  1  0  0  0
 37113  1  0  0  0
 38 43  2  0  0  0
 38 46  1  0  0  0
 38 47  1  0  0  0
 39 64  1  0  0  0
 39 67  2  0  0  0
 40 52  1  0  0  0
 40 53  2  0  0  0
 40 58  1  0  0  0
 41114  1  0  0  0
 41115  1  0  0  0
 41116  1  0  0  0
 41 48  1  0  0  0
 42 43  1  0  0  0
 42 66  1  0  0  0
 42117  1  0  0  0
 42118  1  0  0  0
 43 44  1  0  0  0
 44119  1  0  0  0
 45 46  2  0  0  0
 45120  1  0  0  0
 46121  1  0  0  0
 47122  1  0  0  0
 47123  1  0  0  0
 48 56  1  0  0  0
 48 65  1  0  0  0
 48124  1  0  0  0
 49 50  1  0  0  0
 49 53  1  0  0  0
 49 64  1  0  0  0
 49125  1  0  0  0
 50 51  1  0  0  0
 50126  1  0  0  0
 50127  1  0  0  0
 51 52  1  0  0  0
 51128  1  0  0  0
 51129  1  0  0  0
 52130  1  0  0  0
 52131  1  0  0  0
 53 54  1  0  0  0
 54 55  2  0  0  0
 54132  1  0  0  0
 55 57  1  0  0  0
 55133  1  0  0  0
 56 69  2  0  0  0
 57 58  2  0  0  0
 57134  1  0  0  0
 58135  1  0  0  0
 59 60  1  0  0  0
 59 61  1  0  0  0
 59 62  1  0  0  0
 60136  1  0  0  0
 60137  1  0  0  0
 60138  1  0  0  0
 61139  1  0  0  0
 61140  1  0  0  0
 61141  1  0  0  0
 62142  1  0  0  0
 62143  1  0  0  0
 62144  1  0  0  0
 63 65  1  0  0  0
 63145  1  0  0  0
 63146  1  0  0  0
 63147  1  0  0  0
 64148  1  0  0  0
 65149  1  0  0  0
 68 81  1  0  0  0
 71 73  2  0  0  0
 71 74  1  0  0  0
 71150  1  0  0  0
 72 73  1  0  0  0
 72 89  2  0  0  0
 72151  1  0  0  0
 73 86  1  0  0  0
 74 75  2  0  0  0
 74 76  1  0  0  0
 75 81  1  0  0  0
 75 89  1  0  0  0
 76152  1  0  0  0
 76153  1  0  0  0
 76154  1  0  0  0
 77155  1  0  0  0
 77156  1  0  0  0
 77157  1  0  0  0
 77 86  1  0  0  0
 78158  1  0  0  0
 78159  1  0  0  0
 78160  1  0  0  0
 78 87  1  0  0  0
 79 87  1  0  0  0
 79161  1  0  0  0
 79162  1  0  0  0
 79163  1  0  0  0
 80164  1  0  0  0
 80165  1  0  0  0
 80166  1  0  0  0
 80 88  1  0  0  0
 81167  1  0  0  0
 81168  1  0  0  0
 82 84  1  0  0  0
 82 87  1  0  0  0
 82169  1  0  0  0
 82170  1  0  0  0
 83 86  1  0  0  0
 83 88  1  0  0  0
 83171  1  0  0  0
 83172  1  0  0  0
 84 90  1  0  0  0
 84173  1  0  0  0
 84174  1  0  0  0
 85 88  1  0  0  0
 85 90  1  0  0  0
 85175  1  0  0  0
 85176  1  0  0  0
 86177  1  0  0  0
 87178  1  0  0  0
 88179  1  0  0  0
M  ISO  4   1 100  68 101  81 101  90 100
M  END
> <chiral flag>
0

> <version>
0

> <s_m_source_file>
/data/baiqing/PycharmProjects/Reinvent-master-3.2/result/LINK_invent/BTK/process_docking_weight1_custom_sum_contain_oxygen_bond_distance_aromatic_linkinvent_7_9_3/rearranged_h_0048.sdf

> <i_m_source_file_index>
56

> <r_mmod_Potential_Energy-OPLS-2005>
119.808525085449

> <r_mmod_Stretch_Energy-OPLS-2005>
50.390266418457

> <r_mmod_Bend_Energy-OPLS-2005>
128.877288818359

> <r_mmod_Torsional_Energy-OPLS-2005>
352.356414794922

> <r_mmod_Improper_Torsional_Energy-OPLS-2005>
6.34133243560791

> <r_mmod_Van_der_Waal_Energy-OPLS-2005>
149.554321289062

> <r_mmod_Electrostatic_Energy-OPLS-2005>
-391.156982421875

> <r_mmod_Solvation_Energy-OPLS-2005>
-191.198669433594

> <b_mmod_Minimization_Converged-OPLS-2005>
0

> <r_mmod_RMS_Derivative-OPLS-2005>
5.20217180252075

$$$$
57
                    3D
 Structure written by MMmdl.
155163  0  0  1  0            999 V2000
  -30.3803  -15.4067   20.3293 C   0  0  0  0  0  0
  -30.4409  -12.9210   19.5342 C   0  0  0  0  0  0
  -29.5454  -12.6221   18.3059 C   0  0  0  0  0  0
  -28.0996  -12.3249   18.7352 C   0  0  0  0  0  0
  -27.6086  -13.2920   19.8402 C   0  0  2  0  0  0
  -28.6470  -13.5277   20.9598 C   0  0  0  0  0  0
  -25.2283  -13.7865   20.6105 C   0  0  0  0  0  0
  -24.1643  -13.0110   20.9368 C   0  0  0  0  0  0
  -24.6399  -11.6666   20.8817 C   0  0  0  0  0  0
  -23.9114  -10.4050   21.0419 C   0  0  0  0  0  0
  -24.3595   -9.3973   21.9231 C   0  0  0  0  0  0
  -23.6226   -8.2056   22.0780 C   0  0  0  0  0  0
  -22.4230   -8.0147   21.3549 C   0  0  0  0  0  0
  -21.9882   -9.0129   20.4649 C   0  0  0  0  0  0
  -22.7246  -10.1960   20.3056 C   0  0  0  0  0  0
  -21.6763   -6.0650   22.5313 C   0  0  0  0  0  0
  -21.3972   -6.5598   23.8214 C   0  0  0  0  0  0
  -21.3683   -5.6777   24.9215 C   0  0  0  0  0  0
  -21.6022   -4.3027   24.7276 C   0  0  0  0  0  0
  -21.8804   -3.8103   23.4388 C   0  0  0  0  0  0
  -21.9140   -4.6903   22.3447 C   0  0  0  0  0  0
  -22.7627  -13.4936   21.1992 C   0  0  0  0  0  0
  -22.1626   -4.2067   21.1018 F   0  0  0  0  0  0
  -21.5633   -3.4536   25.7797 F   0  0  0  0  0  0
  -29.8529  -14.0772   20.3131 N   0  0  0  0  0  0
  -26.2805  -12.9407   20.3388 N   0  0  0  0  0  0
  -25.9364  -11.6433   20.5754 N   0  0  0  0  0  0
  -22.0278  -12.7985   22.0537 N   0  0  0  0  0  0
  -25.3728  -15.1528   20.5144 N   0  0  0  0  0  0
  -31.6037  -15.4052   20.1077 O   0  0  0  0  0  0
  -21.6535   -6.8791   21.4253 O   0  0  0  0  0  0
  -22.3327  -14.5251   20.6812 O   0  0  0  0  0  0
  -24.6660  -31.8175   23.1729 C   0  0  0  0  0  0
  -25.9302  -32.4574   23.8190 C   0  0  1  0  0  0
  -27.1545  -26.8424   20.1604 C   0  0  0  0  0  0
  -25.5949  -33.8418   24.2080 N   0  0  0  0  0  0
  -23.4734  -30.4394   21.5240 C   0  0  2  0  0  0
  -24.9083  -28.8222   20.0940 C   0  0  0  0  0  0
  -22.7648  -29.4436   22.4762 C   0  0  0  0  0  0
  -18.0351  -28.1389   22.8474 C   0  0  0  0  0  0
  -24.1468  -36.7223   23.2652 C   0  0  0  0  0  0
  -26.0446  -30.5794   21.4158 C   0  0  0  0  0  0
  -26.0902  -29.1671   20.7509 C   0  0  0  0  0  0
  -27.2013  -28.1944   20.7727 C   0  0  0  0  0  0
  -25.9469  -26.6653   19.4394 C   0  0  0  0  0  0
  -24.8700  -27.5900   19.4135 C   0  0  0  0  0  0
  -23.6963  -29.7643   20.1452 C   0  0  0  0  0  0
  -25.4110  -36.3011   24.0318 C   0  0  1  0  0  0
  -20.5964  -28.3753   23.1190 C   0  0  2  0  0  0
  -20.6804  -26.9434   22.5430 C   0  0  0  0  0  0
  -19.5812  -26.6367   21.5217 C   0  0  0  0  0  0
  -18.1987  -26.7946   22.1615 C   0  0  0  0  0  0
  -19.1612  -28.8897   23.2818 C   0  0  0  0  0  0
  -18.9493  -30.1468   23.8842 C   0  0  0  0  0  0
  -17.6475  -30.6593   24.0541 C   0  0  0  0  0  0
  -25.9075  -34.9393   23.5015 C   0  0  0  0  0  0
  -16.5387  -29.9080   23.6338 C   0  0  0  0  0  0
  -16.7308  -28.6489   23.0362 C   0  0  0  0  0  0
  -26.4523  -31.6572   25.0767 C   0  0  0  0  0  0
  -25.3628  -31.3854   26.1430 C   0  0  0  0  0  0
  -27.0398  -30.2948   24.6518 C   0  0  0  0  0  0
  -27.6017  -32.4404   25.7575 C   0  0  0  0  0  0
  -27.5568  -37.1782   24.8474 C   0  0  0  0  0  0
  -21.4318  -29.3090   22.3574 N   0  0  0  0  0  0
  -26.4284  -37.3730   23.9406 N   0  0  0  0  0  0
  -24.7512  -30.9730   22.0907 N   0  0  0  0  0  0
  -23.4213  -28.8019   23.3037 O   0  0  0  0  0  0
  -28.1218  -25.6928   20.3126 O   0  0  0  0  0  0
  -26.5723  -34.8882   22.4642 O   0  0  0  0  0  0
  -23.5722  -32.1235   23.6754 O   0  0  0  0  0  0
  -26.8714  -20.8053   21.7303 C   0  0  0  0  0  0
  -27.2032  -22.1450   21.4113 C   0  0  0  0  0  0
  -27.5409  -19.6638   21.2069 C   0  0  0  0  0  0
  -28.2195  -22.4723   20.4975 C   0  0  0  0  0  0
  -28.7697  -19.8154   20.5053 C   0  0  0  0  0  0
  -27.2539  -17.3042   22.3008 C   0  0  0  0  0  0
  -26.5818  -17.7887   19.8233 C   0  0  0  0  0  0
  -29.7493  -18.3708   20.1849 C   0  0  0  0  0  0
  -28.0892  -24.0979   19.7844 C   0  0  0  0  0  0
  -26.7637  -18.3352   21.2588 C   0  0  0  0  0  0
  -28.9963  -21.2463   20.1226 N   0  0  0  0  0  0
  -29.5958  -16.6838   20.3978 N   0  0  0  0  0  0
  -31.4465  -13.1484   19.1872 H   0  0  0  0  0  0
  -30.5513  -12.0401   20.1669 H   0  0  0  0  0  0
  -29.9560  -11.7939   17.7256 H   0  0  0  0  0  0
  -29.5463  -13.4888   17.6431 H   0  0  0  0  0  0
  -28.0688  -11.2977   19.0985 H   0  0  0  0  0  0
  -27.4307  -12.3593   17.8747 H   0  0  0  0  0  0
  -27.4952  -14.2458   19.3226 H   0  0  0  0  0  0
  -28.8687  -12.6242   21.5294 H   0  0  0  0  0  0
  -28.2701  -14.2485   21.6823 H   0  0  0  0  0  0
  -25.2714   -9.5340   22.4873 H   0  0  0  0  0  0
  -23.9826   -7.4376   22.7507 H   0  0  0  0  0  0
  -21.0789   -8.8605   19.8984 H   0  0  0  0  0  0
  -22.3695  -10.9486   19.6166 H   0  0  0  0  0  0
  -21.1975   -7.6097   23.9696 H   0  0  0  0  0  0
  -21.1572   -6.0538   25.9095 H   0  0  0  0  0  0
  -22.0588   -2.7558   23.2937 H   0  0  0  0  0  0
  -22.3808  -11.9599   22.4939 H   0  0  0  0  0  0
  -21.0889  -13.1099   22.2678 H   0  0  0  0  0  0
  -24.6195  -15.7726   20.7965 H   0  0  0  0  0  0
  -26.2632  -15.6119   20.4061 H   0  0  0  0  0  0
  -26.7394  -32.5053   23.0902 H   0  0  0  0  0  0
  -25.0012  -33.9514   25.0191 H   0  0  0  0  0  0
  -22.7927  -31.2837   21.3726 H   0  0  0  0  0  0
  -23.3742  -35.9547   23.3309 H   0  0  0  0  0  0
  -24.3526  -36.8874   22.2068 H   0  0  0  0  0  0
  -23.7212  -37.6408   23.6689 H   0  0  0  0  0  0
  -26.2195  -31.2940   20.6112 H   0  0  0  0  0  0
  -26.9166  -30.6393   22.0566 H   0  0  0  0  0  0
  -28.0817  -28.4067   21.3627 H   0  0  0  0  0  0
  -25.7591  -25.7286   18.9350 H   0  0  0  0  0  0
  -23.9679  -27.3239   18.8708 H   0  0  0  0  0  0
  -23.8505  -30.5398   19.3987 H   0  0  0  0  0  0
  -22.7858  -29.2531   19.8272 H   0  0  0  0  0  0
  -25.1303  -36.1841   25.0821 H   0  0  0  0  0  0
  -21.0037  -28.3381   24.1314 H   0  0  0  0  0  0
  -20.5609  -26.2393   23.3690 H   0  0  0  0  0  0
  -21.6694  -26.7374   22.1312 H   0  0  0  0  0  0
  -19.6985  -25.6267   21.1286 H   0  0  0  0  0  0
  -19.6756  -27.3155   20.6731 H   0  0  0  0  0  0
  -17.4253  -26.6647   21.4009 H   0  0  0  0  0  0
  -18.0388  -26.0096   22.9018 H   0  0  0  0  0  0
  -19.7957  -30.7308   24.2219 H   0  0  0  0  0  0
  -17.5021  -31.6299   24.5133 H   0  0  0  0  0  0
  -15.5352  -30.2948   23.7673 H   0  0  0  0  0  0
  -15.8714  -28.0740   22.7129 H   0  0  0  0  0  0
  -24.5809  -30.7188   25.7748 H   0  0  0  0  0  0
  -24.8796  -32.3068   26.4727 H   0  0  0  0  0  0
  -25.7847  -30.9121   27.0316 H   0  0  0  0  0  0
  -26.3044  -29.6664   24.1477 H   0  0  0  0  0  0
  -27.3851  -29.7297   25.5178 H   0  0  0  0  0  0
  -27.9030  -30.4140   23.9968 H   0  0  0  0  0  0
  -27.2580  -33.3751   26.2026 H   0  0  0  0  0  0
  -28.3892  -32.6904   25.0455 H   0  0  0  0  0  0
  -28.0605  -31.8627   26.5609 H   0  0  0  0  0  0
  -28.2596  -38.0064   24.7486 H   0  0  0  0  0  0
  -28.1044  -36.2592   24.6339 H   0  0  0  0  0  0
  -27.2278  -37.1498   25.8877 H   0  0  0  0  0  0
  -20.9527  -29.8831   21.6756 H   0  0  0  0  0  0
  -26.0132  -38.2804   24.1389 H   0  0  0  0  0  0
  -25.9910  -20.6579   22.3360 H   0  0  0  0  0  0
  -26.5210  -22.9198   21.7463 H   0  0  0  0  0  0
  -28.0271  -17.7298   22.9350 H   0  0  0  0  0  0
  -27.6528  -16.3930   21.8650 H   0  0  0  0  0  0
  -26.4558  -16.9697   22.9640 H   0  0  0  0  0  0
  -27.2553  -16.9761   19.5778 H   0  0  0  0  0  0
  -26.7556  -18.5559   19.0772 H   0  0  0  0  0  0
  -25.5746  -17.4380   19.6102 H   0  0  0  0  0  0
  -30.6604  -18.6222   20.7230 H   0  0  0  0  0  0
  -30.0023  -18.5021   19.1306 H   0  0  0  0  0  0
  -27.1231  -24.0606   19.2749 H   0  0  0  0  0  0
  -28.8168  -24.0290   18.9801 H   0  0  0  0  0  0
  -25.7413  -18.5573   21.5710 H   0  0  0  0  0  0
  -28.6281  -16.4763   20.5852 H   0  0  0  0  0  0
  1 25  1  0  0  0
  1 30  2  0  0  0
  1 82  1  0  0  0
  2  3  1  0  0  0
  2 25  1  0  0  0
  2 83  1  0  0  0
  2 84  1  0  0  0
  3  4  1  0  0  0
  3 85  1  0  0  0
  3 86  1  0  0  0
  4  5  1  0  0  0
  4 87  1  0  0  0
  4 88  1  0  0  0
  5  6  1  0  0  0
  5 26  1  0  0  0
  5 89  1  0  0  0
  6 25  1  0  0  0
  6 90  1  0  0  0
  6 91  1  0  0  0
  7  8  2  0  0  0
  7 26  1  0  0  0
  7 29  1  0  0  0
  8  9  1  0  0  0
  8 22  1  0  0  0
  9 10  1  0  0  0
  9 27  2  0  0  0
 10 11  2  0  0  0
 10 15  1  0  0  0
 11 12  1  0  0  0
 11 92  1  0  0  0
 12 13  2  0  0  0
 12 93  1  0  0  0
 13 14  1  0  0  0
 13 31  1  0  0  0
 14 15  2  0  0  0
 14 94  1  0  0  0
 15 95  1  0  0  0
 16 17  2  0  0  0
 16 21  1  0  0  0
 16 31  1  0  0  0
 17 18  1  0  0  0
 17 96  1  0  0  0
 18 19  2  0  0  0
 18 97  1  0  0  0
 19 20  1  0  0  0
 19 24  1  0  0  0
 20 21  2  0  0  0
 20 98  1  0  0  0
 21 23  1  0  0  0
 22 28  1  0  0  0
 22 32  2  0  0  0
 26 27  1  0  0  0
 28 99  1  0  0  0
 28100  1  0  0  0
 29101  1  0  0  0
 29102  1  0  0  0
 33 34  1  0  0  0
 33 66  1  0  0  0
 33 70  2  0  0  0
 34 36  1  0  0  0
 34 59  1  0  0  0
 34103  1  0  0  0
 35 44  2  0  0  0
 35 45  1  0  0  0
 35 68  1  0  0  0
 36 56  1  0  0  0
 36104  1  0  0  0
 37 39  1  0  0  0
 37 47  1  0  0  0
 37 66  1  0  0  0
 37105  1  0  0  0
 38 43  2  0  0  0
 38 46  1  0  0  0
 38 47  1  0  0  0
 39 64  1  0  0  0
 39 67  2  0  0  0
 40 52  1  0  0  0
 40 53  2  0  0  0
 40 58  1  0  0  0
 41106  1  0  0  0
 41107  1  0  0  0
 41108  1  0  0  0
 41 48  1  0  0  0
 42 43  1  0  0  0
 42 66  1  0  0  0
 42109  1  0  0  0
 42110  1  0  0  0
 43 44  1  0  0  0
 44111  1  0  0  0
 45 46  2  0  0  0
 45112  1  0  0  0
 46113  1  0  0  0
 47114  1  0  0  0
 47115  1  0  0  0
 48 56  1  0  0  0
 48 65  1  0  0  0
 48116  1  0  0  0
 49 50  1  0  0  0
 49 53  1  0  0  0
 49 64  1  0  0  0
 49117  1  0  0  0
 50 51  1  0  0  0
 50118  1  0  0  0
 50119  1  0  0  0
 51 52  1  0  0  0
 51120  1  0  0  0
 51121  1  0  0  0
 52122  1  0  0  0
 52123  1  0  0  0
 53 54  1  0  0  0
 54 55  2  0  0  0
 54124  1  0  0  0
 55 57  1  0  0  0
 55125  1  0  0  0
 56 69  2  0  0  0
 57 58  2  0  0  0
 57126  1  0  0  0
 58127  1  0  0  0
 59 60  1  0  0  0
 59 61  1  0  0  0
 59 62  1  0  0  0
 60128  1  0  0  0
 60129  1  0  0  0
 60130  1  0  0  0
 61131  1  0  0  0
 61132  1  0  0  0
 61133  1  0  0  0
 62134  1  0  0  0
 62135  1  0  0  0
 62136  1  0  0  0
 63 65  1  0  0  0
 63137  1  0  0  0
 63138  1  0  0  0
 63139  1  0  0  0
 64140  1  0  0  0
 65141  1  0  0  0
 68 79  1  0  0  0
 71 72  2  0  0  0
 71 73  1  0  0  0
 71142  1  0  0  0
 72 74  1  0  0  0
 72143  1  0  0  0
 73 75  2  0  0  0
 73 80  1  0  0  0
 74 79  1  0  0  0
 74 81  2  0  0  0
 75 78  1  0  0  0
 75 81  1  0  0  0
 76144  1  0  0  0
 76145  1  0  0  0
 76146  1  0  0  0
 76 80  1  0  0  0
 77 80  1  0  0  0
 77147  1  0  0  0
 77148  1  0  0  0
 77149  1  0  0  0
 78 82  1  0  0  0
 78150  1  0  0  0
 78151  1  0  0  0
 79152  1  0  0  0
 79153  1  0  0  0
 80154  1  0  0  0
 82155  1  0  0  0
M  ISO  4   1 100  68 101  79 101  82 100
M  END
> <chiral flag>
0

> <version>
0

> <s_m_source_file>
/data/baiqing/PycharmProjects/Reinvent-master-3.2/result/LINK_invent/BTK/process_docking_weight1_custom_sum_contain_oxygen_bond_distance_aromatic_linkinvent_7_9_3/rearranged_h_0048.sdf

> <i_m_source_file_index>
57

> <r_mmod_Potential_Energy-OPLS-2005>
1433.83581542969

> <r_mmod_Stretch_Energy-OPLS-2005>
675.559997558594

> <r_mmod_Bend_Energy-OPLS-2005>
504.341674804688

> <r_mmod_Torsional_Energy-OPLS-2005>
274.930023193359

> <r_mmod_Improper_Torsional_Energy-OPLS-2005>
8.38283920288086

> <r_mmod_Van_der_Waal_Energy-OPLS-2005>
137.458023071289

> <r_mmod_Electrostatic_Energy-OPLS-2005>
-558.671691894531

> <r_mmod_Solvation_Energy-OPLS-2005>
-230.334197998047

> <b_mmod_Minimization_Converged-OPLS-2005>
0

> <r_mmod_RMS_Derivative-OPLS-2005>
12.1130695343018

$$$$
58
                    3D
 Structure written by MMmdl.
155163  0  0  1  0            999 V2000
  -30.5207  -14.9924   20.4218 C   0  0  0  0  0  0
  -30.4423  -12.6220   19.4910 C   0  0  0  0  0  0
  -29.5214  -12.5349   18.2521 C   0  0  0  0  0  0
  -28.0558  -12.3133   18.6733 C   0  0  0  0  0  0
  -27.6257  -13.2506   19.8318 C   0  0  2  0  0  0
  -28.6698  -13.2942   20.9660 C   0  0  0  0  0  0
  -25.2451  -13.8213   20.5708 C   0  0  0  0  0  0
  -24.1774  -13.0434   20.9235 C   0  0  0  0  0  0
  -24.6397  -11.6922   20.8756 C   0  0  0  0  0  0
  -23.9081  -10.4290   21.0407 C   0  0  0  0  0  0
  -24.3631   -9.4203   21.9182 C   0  0  0  0  0  0
  -23.6302   -8.2239   22.0750 C   0  0  0  0  0  0
  -22.4282   -8.0284   21.3542 C   0  0  0  0  0  0
  -21.9921   -9.0258   20.4643 C   0  0  0  0  0  0
  -22.7253  -10.2134   20.3052 C   0  0  0  0  0  0
  -21.6857   -6.0739   22.5278 C   0  0  0  0  0  0
  -21.4020   -6.5641   23.8212 C   0  0  0  0  0  0
  -21.3658   -5.6792   24.9173 C   0  0  0  0  0  0
  -21.6043   -4.3055   24.7222 C   0  0  0  0  0  0
  -21.8820   -3.8148   23.4343 C   0  0  0  0  0  0
  -21.9193   -4.6966   22.3401 C   0  0  0  0  0  0
  -22.7792  -13.5203   21.1884 C   0  0  0  0  0  0
  -22.1660   -4.2153   21.0978 F   0  0  0  0  0  0
  -21.5624   -3.4537   25.7732 F   0  0  0  0  0  0
  -29.9344  -13.7257   20.3573 N   0  0  0  0  0  0
  -26.2872  -12.9450   20.3224 N   0  0  0  0  0  0
  -25.9328  -11.6578   20.5728 N   0  0  0  0  0  0
  -22.0444  -12.8197   22.0442 N   0  0  0  0  0  0
  -25.4090  -15.1945   20.4116 N   0  0  0  0  0  0
  -31.7360  -15.0429   20.2011 O   0  0  0  0  0  0
  -21.6644   -6.8885   21.4240 O   0  0  0  0  0  0
  -22.3475  -14.5503   20.6719 O   0  0  0  0  0  0
  -24.6464  -31.8404   23.1842 C   0  0  0  0  0  0
  -25.9220  -32.4677   23.8248 C   0  0  1  0  0  0
  -27.2163  -27.1031   20.1674 C   0  0  0  0  0  0
  -25.5952  -33.8484   24.2166 N   0  0  0  0  0  0
  -23.4516  -30.4577   21.5305 C   0  0  2  0  0  0
  -24.9010  -28.8720   20.1164 C   0  0  0  0  0  0
  -22.7580  -29.4531   22.4848 C   0  0  0  0  0  0
  -18.0306  -28.1396   22.8473 C   0  0  0  0  0  0
  -24.1492  -36.7248   23.2644 C   0  0  0  0  0  0
  -26.0091  -30.7047   21.3868 C   0  0  0  0  0  0
  -26.0802  -29.3106   20.7329 C   0  0  0  0  0  0
  -27.2415  -28.4452   20.7333 C   0  0  0  0  0  0
  -26.0107  -26.7665   19.5189 C   0  0  0  0  0  0
  -24.8800  -27.6143   19.4925 C   0  0  0  0  0  0
  -23.6806  -29.7806   20.1529 C   0  0  0  0  0  0
  -25.4125  -36.3022   24.0313 C   0  0  1  0  0  0
  -20.5920  -28.3725   23.1226 C   0  0  2  0  0  0
  -20.6791  -26.9426   22.5402 C   0  0  0  0  0  0
  -19.5766  -26.6377   21.5211 C   0  0  0  0  0  0
  -18.1946  -26.7932   22.1621 C   0  0  0  0  0  0
  -19.1563  -28.8879   23.2841 C   0  0  0  0  0  0
  -18.9479  -30.1474   23.8869 C   0  0  0  0  0  0
  -17.6476  -30.6592   24.0556 C   0  0  0  0  0  0
  -25.9076  -34.9398   23.5050 C   0  0  0  0  0  0
  -16.5367  -29.9083   23.6336 C   0  0  0  0  0  0
  -16.7291  -28.6501   23.0359 C   0  0  0  0  0  0
  -26.4529  -31.6561   25.0708 C   0  0  0  0  0  0
  -25.3703  -31.3763   26.1398 C   0  0  0  0  0  0
  -27.0405  -30.2953   24.6320 C   0  0  0  0  0  0
  -27.6047  -32.4341   25.7501 C   0  0  0  0  0  0
  -27.5575  -37.1781   24.8464 C   0  0  0  0  0  0
  -21.4270  -29.3046   22.3595 N   0  0  0  0  0  0
  -26.4286  -37.3739   23.9405 N   0  0  0  0  0  0
  -24.7223  -31.0234   22.0888 N   0  0  0  0  0  0
  -23.4209  -28.8089   23.3018 O   0  0  0  0  0  0
  -28.2760  -26.1173   20.1706 O   0  0  0  0  0  0
  -26.5669  -34.8901   22.4635 O   0  0  0  0  0  0
  -23.5574  -32.1291   23.7043 O   0  0  0  0  0  0
  -28.5335  -19.3417   17.8701 C   0  0  0  0  0  0
  -29.2761  -18.8438   19.7755 C   0  0  0  0  0  0
  -28.0954  -19.2123   16.4529 C   0  0  0  0  0  0
  -31.4205  -18.0646   20.9797 C   0  0  0  0  0  0
  -28.7127  -23.1795   19.8987 C   0  0  0  0  0  0
  -28.8539  -21.6099   20.5952 C   0  0  0  0  0  0
  -28.0770  -24.6107   20.5788 C   0  0  0  0  0  0
  -29.9293  -17.7494   20.7928 C   0  0  2  0  0  0
  -29.0127  -18.2964   18.5866 N   0  0  0  0  0  0
  -28.4733  -20.5062   18.4962 N   0  0  0  0  0  0
  -28.9541  -20.2687   19.7463 N   0  0  0  0  0  0
  -29.7235  -16.1746   20.5501 N   0  0  0  0  0  0
  -31.4714  -12.7965   19.1738 H   0  0  0  0  0  0
  -30.4545  -11.6769   20.0362 H   0  0  0  0  0  0
  -29.8483  -11.7316   17.5907 H   0  0  0  0  0  0
  -29.5999  -13.4578   17.6753 H   0  0  0  0  0  0
  -27.9586  -11.2737   18.9879 H   0  0  0  0  0  0
  -27.3914  -12.4355   17.8169 H   0  0  0  0  0  0
  -27.5819  -14.2488   19.3953 H   0  0  0  0  0  0
  -28.7720  -12.3205   21.4473 H   0  0  0  0  0  0
  -28.3632  -13.9944   21.7446 H   0  0  0  0  0  0
  -25.2772   -9.5683   22.4762 H   0  0  0  0  0  0
  -24.0010   -7.4632   22.7474 H   0  0  0  0  0  0
  -21.0846   -8.8781   19.8955 H   0  0  0  0  0  0
  -22.3706  -10.9677   19.6167 H   0  0  0  0  0  0
  -21.2020   -7.6150   23.9719 H   0  0  0  0  0  0
  -21.1477   -6.0520   25.9077 H   0  0  0  0  0  0
  -22.0600   -2.7610   23.2839 H   0  0  0  0  0  0
  -22.4074  -11.9874   22.4848 H   0  0  0  0  0  0
  -21.1056  -13.1215   22.2636 H   0  0  0  0  0  0
  -24.6322  -15.8386   20.5139 H   0  0  0  0  0  0
  -26.2381  -15.6347   20.0346 H   0  0  0  0  0  0
  -26.7287  -32.5276   23.0976 H   0  0  0  0  0  0
  -25.0074  -33.9591   25.0296 H   0  0  0  0  0  0
  -22.7558  -31.2844   21.3716 H   0  0  0  0  0  0
  -23.3760  -35.9574   23.3289 H   0  0  0  0  0  0
  -24.3574  -36.8900   22.2063 H   0  0  0  0  0  0
  -23.7243  -37.6435   23.6697 H   0  0  0  0  0  0
  -26.1677  -31.4559   20.6120 H   0  0  0  0  0  0
  -26.8781  -30.7575   22.0314 H   0  0  0  0  0  0
  -28.1451  -28.7820   21.2212 H   0  0  0  0  0  0
  -25.9291  -25.8031   19.0358 H   0  0  0  0  0  0
  -23.9804  -27.2735   18.9986 H   0  0  0  0  0  0
  -23.8231  -30.5517   19.3950 H   0  0  0  0  0  0
  -22.7943  -29.2252   19.8410 H   0  0  0  0  0  0
  -25.1318  -36.1843   25.0805 H   0  0  0  0  0  0
  -21.0010  -28.3320   24.1348 H   0  0  0  0  0  0
  -20.5679  -26.2343   23.3626 H   0  0  0  0  0  0
  -21.6658  -26.7427   22.1204 H   0  0  0  0  0  0
  -19.6926  -25.6279   21.1263 H   0  0  0  0  0  0
  -19.6702  -27.3170   20.6726 H   0  0  0  0  0  0
  -17.4215  -26.6673   21.4026 H   0  0  0  0  0  0
  -18.0347  -26.0083   22.9026 H   0  0  0  0  0  0
  -19.7957  -30.7295   24.2228 H   0  0  0  0  0  0
  -17.5030  -31.6270   24.5164 H   0  0  0  0  0  0
  -15.5365  -30.2978   23.7673 H   0  0  0  0  0  0
  -15.8692  -28.0809   22.7092 H   0  0  0  0  0  0
  -24.5882  -30.7115   25.7712 H   0  0  0  0  0  0
  -24.8896  -32.2952   26.4761 H   0  0  0  0  0  0
  -25.7975  -30.8969   27.0216 H   0  0  0  0  0  0
  -26.3034  -29.6661   24.1318 H   0  0  0  0  0  0
  -27.3994  -29.7271   25.4913 H   0  0  0  0  0  0
  -27.8950  -30.4176   23.9663 H   0  0  0  0  0  0
  -27.2626  -33.3661   26.2012 H   0  0  0  0  0  0
  -28.3895  -32.6871   25.0359 H   0  0  0  0  0  0
  -28.0678  -31.8515   26.5475 H   0  0  0  0  0  0
  -28.2582  -38.0087   24.7511 H   0  0  0  0  0  0
  -28.1083  -36.2616   24.6293 H   0  0  0  0  0  0
  -27.2292  -37.1430   25.8867 H   0  0  0  0  0  0
  -20.9489  -29.8753   21.6763 H   0  0  0  0  0  0
  -26.0149  -38.2806   24.1409 H   0  0  0  0  0  0
  -27.9701  -18.1641   16.1802 H   0  0  0  0  0  0
  -28.8362  -19.6555   15.7880 H   0  0  0  0  0  0
  -27.1436  -19.7204   16.2992 H   0  0  0  0  0  0
  -31.5605  -19.0967   21.3033 H   0  0  0  0  0  0
  -31.9695  -17.9341   20.0469 H   0  0  0  0  0  0
  -31.8745  -17.4231   21.7348 H   0  0  0  0  0  0
  -28.1507  -23.0583   18.9735 H   0  0  0  0  0  0
  -29.7177  -23.4309   19.5610 H   0  0  0  0  0  0
  -27.9841  -21.4756   21.2386 H   0  0  0  0  0  0
  -29.7030  -21.6165   21.2788 H   0  0  0  0  0  0
  -28.4188  -24.5981   21.6139 H   0  0  0  0  0  0
  -27.0028  -24.4487   20.6668 H   0  0  0  0  0  0
  -29.4495  -17.9386   21.7537 H   0  0  0  0  0  0
  -28.7426  -15.9439   20.5642 H   0  0  0  0  0  0
  1 25  1  0  0  0
  1 30  2  0  0  0
  1 82  1  0  0  0
  2  3  1  0  0  0
  2 25  1  0  0  0
  2 83  1  0  0  0
  2 84  1  0  0  0
  3  4  1  0  0  0
  3 85  1  0  0  0
  3 86  1  0  0  0
  4  5  1  0  0  0
  4 87  1  0  0  0
  4 88  1  0  0  0
  5  6  1  0  0  0
  5 26  1  0  0  0
  5 89  1  0  0  0
  6 25  1  0  0  0
  6 90  1  0  0  0
  6 91  1  0  0  0
  7  8  2  0  0  0
  7 26  1  0  0  0
  7 29  1  0  0  0
  8  9  1  0  0  0
  8 22  1  0  0  0
  9 10  1  0  0  0
  9 27  2  0  0  0
 10 11  2  0  0  0
 10 15  1  0  0  0
 11 12  1  0  0  0
 11 92  1  0  0  0
 12 13  2  0  0  0
 12 93  1  0  0  0
 13 14  1  0  0  0
 13 31  1  0  0  0
 14 15  2  0  0  0
 14 94  1  0  0  0
 15 95  1  0  0  0
 16 17  2  0  0  0
 16 21  1  0  0  0
 16 31  1  0  0  0
 17 18  1  0  0  0
 17 96  1  0  0  0
 18 19  2  0  0  0
 18 97  1  0  0  0
 19 20  1  0  0  0
 19 24  1  0  0  0
 20 21  2  0  0  0
 20 98  1  0  0  0
 21 23  1  0  0  0
 22 28  1  0  0  0
 22 32  2  0  0  0
 26 27  1  0  0  0
 28 99  1  0  0  0
 28100  1  0  0  0
 29101  1  0  0  0
 29102  1  0  0  0
 33 34  1  0  0  0
 33 66  1  0  0  0
 33 70  2  0  0  0
 34 36  1  0  0  0
 34 59  1  0  0  0
 34103  1  0  0  0
 35 44  2  0  0  0
 35 45  1  0  0  0
 35 68  1  0  0  0
 36 56  1  0  0  0
 36104  1  0  0  0
 37 39  1  0  0  0
 37 47  1  0  0  0
 37 66  1  0  0  0
 37105  1  0  0  0
 38 43  2  0  0  0
 38 46  1  0  0  0
 38 47  1  0  0  0
 39 64  1  0  0  0
 39 67  2  0  0  0
 40 52  1  0  0  0
 40 53  2  0  0  0
 40 58  1  0  0  0
 41106  1  0  0  0
 41107  1  0  0  0
 41108  1  0  0  0
 41 48  1  0  0  0
 42 43  1  0  0  0
 42 66  1  0  0  0
 42109  1  0  0  0
 42110  1  0  0  0
 43 44  1  0  0  0
 44111  1  0  0  0
 45 46  2  0  0  0
 45112  1  0  0  0
 46113  1  0  0  0
 47114  1  0  0  0
 47115  1  0  0  0
 48 56  1  0  0  0
 48 65  1  0  0  0
 48116  1  0  0  0
 49 50  1  0  0  0
 49 53  1  0  0  0
 49 64  1  0  0  0
 49117  1  0  0  0
 50 51  1  0  0  0
 50118  1  0  0  0
 50119  1  0  0  0
 51 52  1  0  0  0
 51120  1  0  0  0
 51121  1  0  0  0
 52122  1  0  0  0
 52123  1  0  0  0
 53 54  1  0  0  0
 54 55  2  0  0  0
 54124  1  0  0  0
 55 57  1  0  0  0
 55125  1  0  0  0
 56 69  2  0  0  0
 57 58  2  0  0  0
 57126  1  0  0  0
 58127  1  0  0  0
 59 60  1  0  0  0
 59 61  1  0  0  0
 59 62  1  0  0  0
 60128  1  0  0  0
 60129  1  0  0  0
 60130  1  0  0  0
 61131  1  0  0  0
 61132  1  0  0  0
 61133  1  0  0  0
 62134  1  0  0  0
 62135  1  0  0  0
 62136  1  0  0  0
 63 65  1  0  0  0
 63137  1  0  0  0
 63138  1  0  0  0
 63139  1  0  0  0
 64140  1  0  0  0
 65141  1  0  0  0
 68 77  1  0  0  0
 71 73  1  0  0  0
 71 79  1  0  0  0
 71 80  2  0  0  0
 72 78  1  0  0  0
 72 79  2  0  0  0
 72 81  1  0  0  0
 73142  1  0  0  0
 73143  1  0  0  0
 73144  1  0  0  0
 74145  1  0  0  0
 74146  1  0  0  0
 74147  1  0  0  0
 74 78  1  0  0  0
 75 76  1  0  0  0
 75 77  1  0  0  0
 75148  1  0  0  0
 75149  1  0  0  0
 76 81  1  0  0  0
 76150  1  0  0  0
 76151  1  0  0  0
 77152  1  0  0  0
 77153  1  0  0  0
 78 82  1  0  0  0
 78154  1  0  0  0
 80 81  1  0  0  0
 82155  1  0  0  0
M  ISO  4   1 100  68 101  77 101  82 100
M  END
> <chiral flag>
0

> <version>
0

> <s_m_source_file>
/data/baiqing/PycharmProjects/Reinvent-master-3.2/result/LINK_invent/BTK/process_docking_weight1_custom_sum_contain_oxygen_bond_distance_aromatic_linkinvent_7_9_3/rearranged_h_0048.sdf

> <i_m_source_file_index>
58

> <r_mmod_Potential_Energy-OPLS-2005>
514.616271972656

> <r_mmod_Stretch_Energy-OPLS-2005>
315.867431640625

> <r_mmod_Bend_Energy-OPLS-2005>
337.145629882812

> <r_mmod_Torsional_Energy-OPLS-2005>
226.056243896484

> <r_mmod_Improper_Torsional_Energy-OPLS-2005>
4.16160726547241

> <r_mmod_Van_der_Waal_Energy-OPLS-2005>
105.707412719727

> <r_mmod_Electrostatic_Energy-OPLS-2005>
-468.41064453125

> <r_mmod_Solvation_Energy-OPLS-2005>
-226.408020019531

> <b_mmod_Minimization_Converged-OPLS-2005>
0

> <r_mmod_RMS_Derivative-OPLS-2005>
0.600271224975586

$$$$
59
                    3D
 Structure written by MMmdl.
161168  0  0  1  0            999 V2000
  -30.5622  -14.9168   20.4213 C   0  0  0  0  0  0
  -30.4426  -12.5692   19.4860 C   0  0  0  0  0  0
  -29.5229  -12.5268   18.2447 C   0  0  0  0  0  0
  -28.0513  -12.3265   18.6566 C   0  0  0  0  0  0
  -27.6322  -13.2505   19.8312 C   0  0  2  0  0  0
  -28.6779  -13.2615   20.9670 C   0  0  0  0  0  0
  -25.2470  -13.8230   20.5677 C   0  0  0  0  0  0
  -24.1795  -13.0452   20.9209 C   0  0  0  0  0  0
  -24.6416  -11.6936   20.8741 C   0  0  0  0  0  0
  -23.9105  -10.4294   21.0393 C   0  0  0  0  0  0
  -24.3646   -9.4209   21.9165 C   0  0  0  0  0  0
  -23.6317   -8.2245   22.0746 C   0  0  0  0  0  0
  -22.4298   -8.0282   21.3536 C   0  0  0  0  0  0
  -21.9950   -9.0263   20.4647 C   0  0  0  0  0  0
  -22.7283  -10.2136   20.3037 C   0  0  0  0  0  0
  -21.6867   -6.0738   22.5285 C   0  0  0  0  0  0
  -21.4023   -6.5636   23.8220 C   0  0  0  0  0  0
  -21.3659   -5.6778   24.9177 C   0  0  0  0  0  0
  -21.6047   -4.3047   24.7219 C   0  0  0  0  0  0
  -21.8818   -3.8142   23.4345 C   0  0  0  0  0  0
  -21.9195   -4.6964   22.3406 C   0  0  0  0  0  0
  -22.7802  -13.5212   21.1856 C   0  0  0  0  0  0
  -22.1656   -4.2147   21.0986 F   0  0  0  0  0  0
  -21.5630   -3.4527   25.7732 F   0  0  0  0  0  0
  -29.9562  -13.6663   20.3674 N   0  0  0  0  0  0
  -26.2900  -12.9471   20.3191 N   0  0  0  0  0  0
  -25.9350  -11.6594   20.5706 N   0  0  0  0  0  0
  -22.0443  -12.8209   22.0416 N   0  0  0  0  0  0
  -25.4109  -15.1954   20.4104 N   0  0  0  0  0  0
  -31.7719  -14.9751   20.1784 O   0  0  0  0  0  0
  -21.6654   -6.8883   21.4244 O   0  0  0  0  0  0
  -22.3480  -14.5503   20.6688 O   0  0  0  0  0  0
  -24.6452  -31.8444   23.1879 C   0  0  0  0  0  0
  -25.9227  -32.4686   23.8285 C   0  0  1  0  0  0
  -27.2171  -27.1340   20.1420 C   0  0  0  0  0  0
  -25.5962  -33.8492   24.2195 N   0  0  0  0  0  0
  -23.4487  -30.4631   21.5350 C   0  0  2  0  0  0
  -24.8955  -28.8874   20.1122 C   0  0  0  0  0  0
  -22.7597  -29.4540   22.4874 C   0  0  0  0  0  0
  -18.0324  -28.1410   22.8491 C   0  0  0  0  0  0
  -24.1493  -36.7252   23.2640 C   0  0  0  0  0  0
  -26.0060  -30.7144   21.3875 C   0  0  0  0  0  0
  -26.0749  -29.3262   20.7272 C   0  0  0  0  0  0
  -27.2357  -28.4646   20.7259 C   0  0  0  0  0  0
  -26.0099  -26.7981   19.4881 C   0  0  0  0  0  0
  -24.8741  -27.6361   19.4818 C   0  0  0  0  0  0
  -23.6750  -29.7929   20.1551 C   0  0  0  0  0  0
  -25.4122  -36.3024   24.0319 C   0  0  1  0  0  0
  -20.5938  -28.3732   23.1247 C   0  0  2  0  0  0
  -20.6806  -26.9433   22.5416 C   0  0  0  0  0  0
  -19.5766  -26.6384   21.5240 C   0  0  0  0  0  0
  -18.1951  -26.7951   22.1642 C   0  0  0  0  0  0
  -19.1579  -28.8899   23.2855 C   0  0  0  0  0  0
  -18.9484  -30.1499   23.8860 C   0  0  0  0  0  0
  -17.6471  -30.6595   24.0574 C   0  0  0  0  0  0
  -25.9077  -34.9396   23.5064 C   0  0  0  0  0  0
  -16.5367  -29.9085   23.6339 C   0  0  0  0  0  0
  -16.7304  -28.6516   23.0350 C   0  0  0  0  0  0
  -26.4527  -31.6555   25.0734 C   0  0  0  0  0  0
  -25.3681  -31.3780   26.1410 C   0  0  0  0  0  0
  -27.0410  -30.2945   24.6341 C   0  0  0  0  0  0
  -27.6048  -32.4336   25.7523 C   0  0  0  0  0  0
  -27.5582  -37.1783   24.8465 C   0  0  0  0  0  0
  -21.4290  -29.3042   22.3614 N   0  0  0  0  0  0
  -26.4289  -37.3734   23.9410 N   0  0  0  0  0  0
  -24.7200  -31.0304   22.0909 N   0  0  0  0  0  0
  -23.4245  -28.8094   23.3025 O   0  0  0  0  0  0
  -28.2726  -26.1504   20.2168 O   0  0  0  0  0  0
  -26.5670  -34.8894   22.4647 O   0  0  0  0  0  0
  -23.5565  -32.1336   23.7088 O   0  0  0  0  0  0
  -26.3264  -21.9366   17.8829 C   0  0  0  0  0  0
  -27.8533  -20.7116   16.2933 C   0  0  0  0  0  0
  -29.2181  -18.9491   20.1827 C   0  0  0  0  0  0
  -30.1933  -17.6359   20.6041 C   0  0  0  0  0  0
  -29.5574  -20.5808   20.5053 C   0  0  0  0  0  0
  -29.0029  -23.3137   20.3808 C   0  0  0  0  0  0
  -28.8231  -21.7446   18.4017 C   0  0  0  0  0  0
  -28.0398  -24.6315   19.9326 C   0  0  0  0  0  0
  -27.5888  -21.0654   17.7672 C   0  0  0  0  0  0
  -29.7944  -16.1063   20.5399 N   0  0  0  0  0  0
  -28.7562  -21.8129   19.8882 N   0  3  1  0  0  0
  -31.4751  -12.7266   19.1701 H   0  0  0  0  0  0
  -30.4344  -11.6135   20.0131 H   0  0  0  0  0  0
  -29.8396  -11.7337   17.5656 H   0  0  0  0  0  0
  -29.6199  -13.4613   17.6907 H   0  0  0  0  0  0
  -27.9276  -11.2830   18.9442 H   0  0  0  0  0  0
  -27.3974  -12.4806   17.7970 H   0  0  0  0  0  0
  -27.6000  -14.2572   19.4128 H   0  0  0  0  0  0
  -28.7554  -12.2809   21.4404 H   0  0  0  0  0  0
  -28.3860  -13.9634   21.7487 H   0  0  0  0  0  0
  -25.2787   -9.5680   22.4743 H   0  0  0  0  0  0
  -24.0024   -7.4642   22.7477 H   0  0  0  0  0  0
  -21.0870   -8.8797   19.8968 H   0  0  0  0  0  0
  -22.3747  -10.9671   19.6138 H   0  0  0  0  0  0
  -21.2018   -7.6146   23.9722 H   0  0  0  0  0  0
  -21.1480   -6.0509   25.9079 H   0  0  0  0  0  0
  -22.0601   -2.7603   23.2844 H   0  0  0  0  0  0
  -22.4083  -11.9901   22.4854 H   0  0  0  0  0  0
  -21.1043  -13.1206   22.2583 H   0  0  0  0  0  0
  -24.6375  -15.8417   20.5261 H   0  0  0  0  0  0
  -26.2506  -15.6428   20.0670 H   0  0  0  0  0  0
  -26.7304  -32.5290   23.1021 H   0  0  0  0  0  0
  -25.0072  -33.9603   25.0317 H   0  0  0  0  0  0
  -22.7495  -31.2872   21.3806 H   0  0  0  0  0  0
  -23.3755  -35.9585   23.3285 H   0  0  0  0  0  0
  -24.3572  -36.8905   22.2061 H   0  0  0  0  0  0
  -23.7252  -37.6441   23.6692 H   0  0  0  0  0  0
  -26.1655  -31.4689   20.6168 H   0  0  0  0  0  0
  -26.8753  -30.7627   22.0314 H   0  0  0  0  0  0
  -28.1329  -28.7950   21.2303 H   0  0  0  0  0  0
  -25.9032  -25.8436   18.9953 H   0  0  0  0  0  0
  -23.9700  -27.2926   18.9966 H   0  0  0  0  0  0
  -23.8171  -30.5678   19.4008 H   0  0  0  0  0  0
  -22.7890  -29.2395   19.8414 H   0  0  0  0  0  0
  -25.1304  -36.1846   25.0813 H   0  0  0  0  0  0
  -21.0029  -28.3331   24.1372 H   0  0  0  0  0  0
  -20.5743  -26.2348   23.3644 H   0  0  0  0  0  0
  -21.6666  -26.7464   22.1183 H   0  0  0  0  0  0
  -19.6919  -25.6292   21.1284 H   0  0  0  0  0  0
  -19.6692  -27.3191   20.6773 H   0  0  0  0  0  0
  -17.4233  -26.6741   21.4027 H   0  0  0  0  0  0
  -18.0300  -26.0097   22.9033 H   0  0  0  0  0  0
  -19.7950  -30.7353   24.2185 H   0  0  0  0  0  0
  -17.5009  -31.6250   24.5211 H   0  0  0  0  0  0
  -15.5358  -30.2964   23.7671 H   0  0  0  0  0  0
  -15.8719  -28.0821   22.7046 H   0  0  0  0  0  0
  -24.5838  -30.7157   25.7719 H   0  0  0  0  0  0
  -24.8885  -32.2984   26.4756 H   0  0  0  0  0  0
  -25.7915  -30.8983   27.0241 H   0  0  0  0  0  0
  -26.3052  -29.6644   24.1328 H   0  0  0  0  0  0
  -27.3999  -29.7262   25.4934 H   0  0  0  0  0  0
  -27.8964  -30.4178   23.9693 H   0  0  0  0  0  0
  -27.2622  -33.3641   26.2058 H   0  0  0  0  0  0
  -28.3875  -32.6894   25.0373 H   0  0  0  0  0  0
  -28.0701  -31.8499   26.5472 H   0  0  0  0  0  0
  -28.2578  -38.0097   24.7504 H   0  0  0  0  0  0
  -28.1095  -36.2621   24.6288 H   0  0  0  0  0  0
  -27.2301  -37.1426   25.8867 H   0  0  0  0  0  0
  -20.9524  -29.8731   21.6753 H   0  0  0  0  0  0
  -26.0151  -38.2805   24.1385 H   0  0  0  0  0  0
  -25.4708  -21.4382   17.4277 H   0  0  0  0  0  0
  -26.4535  -22.8937   17.3764 H   0  0  0  0  0  0
  -26.0635  -22.1397   18.9201 H   0  0  0  0  0  0
  -27.0232  -20.1476   15.8661 H   0  0  0  0  0  0
  -28.7487  -20.0981   16.1805 H   0  0  0  0  0  0
  -27.9912  -21.6054   15.6842 H   0  0  0  0  0  0
  -28.2317  -18.7556   20.6039 H   0  0  0  0  0  0
  -29.0818  -18.8601   19.1064 H   0  0  0  0  0  0
  -30.5022  -17.8041   21.6359 H   0  0  0  0  0  0
  -31.1152  -17.7325   20.0284 H   0  0  0  0  0  0
  -30.6062  -20.7443   20.2511 H   0  0  0  0  0  0
  -29.5208  -20.7040   21.5871 H   0  0  0  0  0  0
  -29.0051  -23.2800   21.4704 H   0  0  0  0  0  0
  -30.0265  -23.5618   20.1040 H   0  0  0  0  0  0
  -28.9514  -22.7346   17.9645 H   0  0  0  0  0  0
  -29.7291  -21.2092   18.1102 H   0  0  0  0  0  0
  -27.0504  -24.3959   20.3250 H   0  0  0  0  0  0
  -27.9291  -24.5844   18.8496 H   0  0  0  0  0  0
  -27.3925  -20.1267   18.2859 H   0  0  0  0  0  0
  -28.8088  -15.9248   20.6619 H   0  0  0  0  0  0
  -27.7921  -21.6370   20.1280 H   0  0  0  0  0  0
  1 25  1  0  0  0
  1 30  2  0  0  0
  1 80  1  0  0  0
  2  3  1  0  0  0
  2 25  1  0  0  0
  2 82  1  0  0  0
  2 83  1  0  0  0
  3  4  1  0  0  0
  3 84  1  0  0  0
  3 85  1  0  0  0
  4  5  1  0  0  0
  4 86  1  0  0  0
  4 87  1  0  0  0
  5  6  1  0  0  0
  5 26  1  0  0  0
  5 88  1  0  0  0
  6 25  1  0  0  0
  6 89  1  0  0  0
  6 90  1  0  0  0
  7  8  2  0  0  0
  7 26  1  0  0  0
  7 29  1  0  0  0
  8  9  1  0  0  0
  8 22  1  0  0  0
  9 10  1  0  0  0
  9 27  2  0  0  0
 10 11  2  0  0  0
 10 15  1  0  0  0
 11 12  1  0  0  0
 11 91  1  0  0  0
 12 13  2  0  0  0
 12 92  1  0  0  0
 13 14  1  0  0  0
 13 31  1  0  0  0
 14 15  2  0  0  0
 14 93  1  0  0  0
 15 94  1  0  0  0
 16 17  2  0  0  0
 16 21  1  0  0  0
 16 31  1  0  0  0
 17 18  1  0  0  0
 17 95  1  0  0  0
 18 19  2  0  0  0
 18 96  1  0  0  0
 19 20  1  0  0  0
 19 24  1  0  0  0
 20 21  2  0  0  0
 20 97  1  0  0  0
 21 23  1  0  0  0
 22 28  1  0  0  0
 22 32  2  0  0  0
 26 27  1  0  0  0
 28 98  1  0  0  0
 28 99  1  0  0  0
 29100  1  0  0  0
 29101  1  0  0  0
 33 34  1  0  0  0
 33 66  1  0  0  0
 33 70  2  0  0  0
 34 36  1  0  0  0
 34 59  1  0  0  0
 34102  1  0  0  0
 35 44  2  0  0  0
 35 45  1  0  0  0
 35 68  1  0  0  0
 36 56  1  0  0  0
 36103  1  0  0  0
 37 39  1  0  0  0
 37 47  1  0  0  0
 37 66  1  0  0  0
 37104  1  0  0  0
 38 43  2  0  0  0
 38 46  1  0  0  0
 38 47  1  0  0  0
 39 64  1  0  0  0
 39 67  2  0  0  0
 40 52  1  0  0  0
 40 53  2  0  0  0
 40 58  1  0  0  0
 41105  1  0  0  0
 41106  1  0  0  0
 41107  1  0  0  0
 41 48  1  0  0  0
 42 43  1  0  0  0
 42 66  1  0  0  0
 42108  1  0  0  0
 42109  1  0  0  0
 43 44  1  0  0  0
 44110  1  0  0  0
 45 46  2  0  0  0
 45111  1  0  0  0
 46112  1  0  0  0
 47113  1  0  0  0
 47114  1  0  0  0
 48 56  1  0  0  0
 48 65  1  0  0  0
 48115  1  0  0  0
 49 50  1  0  0  0
 49 53  1  0  0  0
 49 64  1  0  0  0
 49116  1  0  0  0
 50 51  1  0  0  0
 50117  1  0  0  0
 50118  1  0  0  0
 51 52  1  0  0  0
 51119  1  0  0  0
 51120  1  0  0  0
 52121  1  0  0  0
 52122  1  0  0  0
 53 54  1  0  0  0
 54 55  2  0  0  0
 54123  1  0  0  0
 55 57  1  0  0  0
 55124  1  0  0  0
 56 69  2  0  0  0
 57 58  2  0  0  0
 57125  1  0  0  0
 58126  1  0  0  0
 59 60  1  0  0  0
 59 61  1  0  0  0
 59 62  1  0  0  0
 60127  1  0  0  0
 60128  1  0  0  0
 60129  1  0  0  0
 61130  1  0  0  0
 61131  1  0  0  0
 61132  1  0  0  0
 62133  1  0  0  0
 62134  1  0  0  0
 62135  1  0  0  0
 63 65  1  0  0  0
 63136  1  0  0  0
 63137  1  0  0  0
 63138  1  0  0  0
 64139  1  0  0  0
 65140  1  0  0  0
 68 78  1  0  0  0
 71141  1  0  0  0
 71142  1  0  0  0
 71143  1  0  0  0
 71 79  1  0  0  0
 72 79  1  0  0  0
 72144  1  0  0  0
 72145  1  0  0  0
 72146  1  0  0  0
 73 74  1  0  0  0
 73 75  1  0  0  0
 73147  1  0  0  0
 73148  1  0  0  0
 74 80  1  0  0  0
 74149  1  0  0  0
 74150  1  0  0  0
 75151  1  0  0  0
 75152  1  0  0  0
 75 81  1  0  0  0
 76 78  1  0  0  0
 76 81  1  0  0  0
 76153  1  0  0  0
 76154  1  0  0  0
 77 79  1  0  0  0
 77 81  1  0  0  0
 77155  1  0  0  0
 77156  1  0  0  0
 78157  1  0  0  0
 78158  1  0  0  0
 79159  1  0  0  0
 80160  1  0  0  0
 81161  1  0  0  0
M  CHG  1  81   1
M  ISO  4   1 100  68 101  78 101  80 100
M  END
> <chiral flag>
0

> <version>
0

> <s_m_source_file>
/data/baiqing/PycharmProjects/Reinvent-master-3.2/result/LINK_invent/BTK/process_docking_weight1_custom_sum_contain_oxygen_bond_distance_aromatic_linkinvent_7_9_3/rearranged_h_0048.sdf

> <i_m_source_file_index>
59

> <r_mmod_Potential_Energy-OPLS-2005>
411.560333251953

> <r_mmod_Stretch_Energy-OPLS-2005>
272.483764648438

> <r_mmod_Bend_Energy-OPLS-2005>
255.840362548828

> <r_mmod_Torsional_Energy-OPLS-2005>
225.500427246094

> <r_mmod_Improper_Torsional_Energy-OPLS-2005>
4.350257396698

> <r_mmod_Van_der_Waal_Energy-OPLS-2005>
111.059951782227

> <r_mmod_Electrostatic_Energy-OPLS-2005>
-200.547607421875

> <r_mmod_Solvation_Energy-OPLS-2005>
-439.374755859375

> <b_mmod_Minimization_Converged-OPLS-2005>
0

> <r_mmod_RMS_Derivative-OPLS-2005>
2.35347318649292

$$$$
60
                    3D
 Structure written by MMmdl.
154162  0  0  1  0            999 V2000
  -30.5286  -15.0116   20.4883 C   0  0  0  0  0  0
  -30.4238  -12.6348   19.5319 C   0  0  0  0  0  0
  -29.5147  -12.5457   18.2812 C   0  0  0  0  0  0
  -28.0518  -12.3142   18.6917 C   0  0  0  0  0  0
  -27.6165  -13.2562   19.8410 C   0  0  2  0  0  0
  -28.6482  -13.2895   20.9894 C   0  0  0  0  0  0
  -25.2329  -13.8195   20.5699 C   0  0  0  0  0  0
  -24.1657  -13.0423   20.9304 C   0  0  0  0  0  0
  -24.6271  -11.6919   20.8797 C   0  0  0  0  0  0
  -23.8955  -10.4278   21.0414 C   0  0  0  0  0  0
  -24.3511   -9.4197   21.9183 C   0  0  0  0  0  0
  -23.6216   -8.2202   22.0718 C   0  0  0  0  0  0
  -22.4207   -8.0231   21.3499 C   0  0  0  0  0  0
  -21.9839   -9.0207   20.4602 C   0  0  0  0  0  0
  -22.7145  -10.2106   20.3043 C   0  0  0  0  0  0
  -21.6829   -6.0677   22.5270 C   0  0  0  0  0  0
  -21.4012   -6.5596   23.8205 C   0  0  0  0  0  0
  -21.3685   -5.6759   24.9184 C   0  0  0  0  0  0
  -21.6063   -4.3022   24.7242 C   0  0  0  0  0  0
  -21.8806   -3.8097   23.4369 C   0  0  0  0  0  0
  -21.9181   -4.6900   22.3414 C   0  0  0  0  0  0
  -22.7702  -13.5232   21.2000 C   0  0  0  0  0  0
  -22.1660   -4.2073   21.0999 F   0  0  0  0  0  0
  -21.5627   -3.4525   25.7777 F   0  0  0  0  0  0
  -29.9248  -13.7409   20.4176 N   0  0  0  0  0  0
  -26.2735  -12.9450   20.3212 N   0  0  0  0  0  0
  -25.9206  -11.6578   20.5739 N   0  0  0  0  0  0
  -22.0279  -12.8234   22.0537 N   0  0  0  0  0  0
  -25.3986  -15.1880   20.4040 N   0  0  0  0  0  0
  -31.6775  -15.0723   20.0366 O   0  0  0  0  0  0
  -21.6615   -6.8806   21.4209 O   0  0  0  0  0  0
  -22.3443  -14.5562   20.6866 O   0  0  0  0  0  0
  -24.6448  -31.8402   23.1875 C   0  0  0  0  0  0
  -25.9238  -32.4665   23.8206 C   0  0  1  0  0  0
  -27.2174  -27.1067   20.1671 C   0  0  0  0  0  0
  -25.6001  -33.8469   24.2140 N   0  0  0  0  0  0
  -23.4470  -30.4594   21.5327 C   0  0  2  0  0  0
  -24.8995  -28.8825   20.1080 C   0  0  0  0  0  0
  -22.7564  -29.4493   22.4843 C   0  0  0  0  0  0
  -18.0279  -28.1409   22.8570 C   0  0  0  0  0  0
  -24.1494  -36.7265   23.2634 C   0  0  0  0  0  0
  -26.0028  -30.7061   21.3857 C   0  0  0  0  0  0
  -26.0746  -29.3129   20.7342 C   0  0  0  0  0  0
  -27.2331  -28.4456   20.7413 C   0  0  0  0  0  0
  -26.0167  -26.7853   19.4946 C   0  0  0  0  0  0
  -24.8857  -27.6346   19.4658 C   0  0  0  0  0  0
  -23.6829  -29.7981   20.1467 C   0  0  0  0  0  0
  -25.4116  -36.2983   24.0291 C   0  0  1  0  0  0
  -20.5912  -28.3706   23.1330 C   0  0  2  0  0  0
  -20.6725  -26.9394   22.5495 C   0  0  0  0  0  0
  -19.5688  -26.6381   21.5293 C   0  0  0  0  0  0
  -18.1883  -26.7932   22.1721 C   0  0  0  0  0  0
  -19.1558  -28.8869   23.2929 C   0  0  0  0  0  0
  -18.9500  -30.1466   23.8962 C   0  0  0  0  0  0
  -17.6506  -30.6631   24.0609 C   0  0  0  0  0  0
  -25.9076  -34.9383   23.5010 C   0  0  0  0  0  0
  -16.5377  -29.9171   23.6372 C   0  0  0  0  0  0
  -16.7268  -28.6563   23.0438 C   0  0  0  0  0  0
  -26.4543  -31.6535   25.0652 C   0  0  0  0  0  0
  -25.3772  -31.3759   26.1395 C   0  0  0  0  0  0
  -27.0395  -30.2930   24.6206 C   0  0  0  0  0  0
  -27.6037  -32.4301   25.7500 C   0  0  0  0  0  0
  -27.5544  -37.1788   24.8458 C   0  0  0  0  0  0
  -21.4233  -29.3072   22.3708 N   0  0  0  0  0  0
  -26.4250  -37.3717   23.9407 N   0  0  0  0  0  0
  -24.7183  -31.0229   22.0922 N   0  0  0  0  0  0
  -23.4238  -28.8008   23.2939 O   0  0  0  0  0  0
  -28.2788  -26.1186   20.2110 O   0  0  0  0  0  0
  -26.5631  -34.8908   22.4580 O   0  0  0  0  0  0
  -23.5555  -32.1313   23.7078 O   0  0  0  0  0  0
  -27.4687  -21.4272   21.2906 C   0  0  0  0  0  0
  -28.6768  -21.6517   20.6084 C   0  0  0  0  0  0
  -27.7964  -19.0950   21.3619 C   0  0  0  0  0  0
  -29.0711  -19.1381   20.7188 C   0  0  0  0  0  0
  -27.1125  -17.8167   21.7689 C   0  0  0  0  0  0
  -29.7352  -16.2291   22.4007 C   0  0  0  0  0  0
  -29.0383  -23.2291   20.2216 C   0  0  0  0  0  0
  -29.9725  -17.7409   20.3942 C   0  0  0  0  0  0
  -28.0140  -24.5802   20.4261 C   0  0  0  0  0  0
  -27.0451  -20.1925   21.6466 N   0  0  0  0  0  0
  -29.4677  -20.4738   20.3427 N   0  0  0  0  0  0
  -29.8527  -16.2172   20.9311 N   0  0  0  0  0  0
  -31.4557  -12.7940   19.2187 H   0  0  0  0  0  0
  -30.4203  -11.6836   20.0705 H   0  0  0  0  0  0
  -29.8427  -11.7433   17.6182 H   0  0  0  0  0  0
  -29.5861  -13.4737   17.7119 H   0  0  0  0  0  0
  -27.9590  -11.2778   19.0230 H   0  0  0  0  0  0
  -27.3910  -12.4307   17.8322 H   0  0  0  0  0  0
  -27.5818  -14.2582   19.4100 H   0  0  0  0  0  0
  -28.7419  -12.3037   21.4483 H   0  0  0  0  0  0
  -28.3200  -13.9590   21.7788 H   0  0  0  0  0  0
  -25.2605   -9.5711   22.4817 H   0  0  0  0  0  0
  -23.9923   -7.4581   22.7434 H   0  0  0  0  0  0
  -21.0768   -8.8707   19.8913 H   0  0  0  0  0  0
  -22.3546  -10.9643   19.6183 H   0  0  0  0  0  0
  -21.2002   -7.6096   23.9708 H   0  0  0  0  0  0
  -21.1530   -6.0487   25.9095 H   0  0  0  0  0  0
  -22.0553   -2.7540   23.2900 H   0  0  0  0  0  0
  -22.3833  -11.9950   22.5067 H   0  0  0  0  0  0
  -21.0850  -13.1249   22.2578 H   0  0  0  0  0  0
  -24.6375  -15.8447   20.5358 H   0  0  0  0  0  0
  -26.2305  -15.6160   20.0206 H   0  0  0  0  0  0
  -26.7301  -32.5261   23.0902 H   0  0  0  0  0  0
  -25.0157  -33.9553   25.0292 H   0  0  0  0  0  0
  -22.7456  -31.2834   21.3811 H   0  0  0  0  0  0
  -23.3704  -35.9643   23.3256 H   0  0  0  0  0  0
  -24.3576  -36.8944   22.2050 H   0  0  0  0  0  0
  -23.7305  -37.6475   23.6717 H   0  0  0  0  0  0
  -26.1418  -31.4540   20.6035 H   0  0  0  0  0  0
  -26.8785  -30.7709   22.0180 H   0  0  0  0  0  0
  -28.1275  -28.7780   21.2471 H   0  0  0  0  0  0
  -25.9274  -25.8396   18.9814 H   0  0  0  0  0  0
  -23.9960  -27.3083   18.9443 H   0  0  0  0  0  0
  -23.8511  -30.5872   19.4121 H   0  0  0  0  0  0
  -22.7929  -29.2659   19.8091 H   0  0  0  0  0  0
  -25.1301  -36.1740   25.0767 H   0  0  0  0  0  0
  -20.9984  -28.3281   24.1460 H   0  0  0  0  0  0
  -20.5597  -26.2309   23.3729 H   0  0  0  0  0  0
  -21.6592  -26.7378   22.1306 H   0  0  0  0  0  0
  -19.6812  -25.6295   21.1298 H   0  0  0  0  0  0
  -19.6608  -27.3254   20.6878 H   0  0  0  0  0  0
  -17.4132  -26.6744   21.4128 H   0  0  0  0  0  0
  -18.0234  -26.0081   22.9125 H   0  0  0  0  0  0
  -19.7989  -30.7252   24.2363 H   0  0  0  0  0  0
  -17.5102  -31.6314   24.5193 H   0  0  0  0  0  0
  -15.5385  -30.3116   23.7674 H   0  0  0  0  0  0
  -15.8656  -28.0889   22.7175 H   0  0  0  0  0  0
  -24.5950  -30.7061   25.7787 H   0  0  0  0  0  0
  -24.8981  -32.2978   26.4729 H   0  0  0  0  0  0
  -25.8137  -30.9038   27.0217 H   0  0  0  0  0  0
  -26.2996  -29.6667   24.1208 H   0  0  0  0  0  0
  -27.4024  -29.7180   25.4734 H   0  0  0  0  0  0
  -27.8895  -30.4140   23.9483 H   0  0  0  0  0  0
  -27.2568  -33.3607   26.2013 H   0  0  0  0  0  0
  -28.3951  -32.6859   25.0437 H   0  0  0  0  0  0
  -28.0602  -31.8470   26.5513 H   0  0  0  0  0  0
  -28.2537  -38.0102   24.7467 H   0  0  0  0  0  0
  -28.1054  -36.2625   24.6297 H   0  0  0  0  0  0
  -27.2284  -37.1461   25.8869 H   0  0  0  0  0  0
  -20.9367  -29.8971   21.7117 H   0  0  0  0  0  0
  -26.0070  -38.2753   24.1443 H   0  0  0  0  0  0
  -26.8072  -22.2438   21.5496 H   0  0  0  0  0  0
  -27.3360  -17.5860   22.8100 H   0  0  0  0  0  0
  -27.4193  -17.0028   21.1200 H   0  0  0  0  0  0
  -26.0293  -17.9031   21.6850 H   0  0  0  0  0  0
  -30.4774  -15.5903   22.8860 H   0  0  0  0  0  0
  -28.7601  -15.8764   22.7327 H   0  0  0  0  0  0
  -29.8900  -17.2252   22.8163 H   0  0  0  0  0  0
  -29.3071  -23.2017   19.1667 H   0  0  0  0  0  0
  -29.9680  -23.4535   20.7429 H   0  0  0  0  0  0
  -30.9887  -18.0475   20.6407 H   0  0  0  0  0  0
  -29.9769  -17.6388   19.3081 H   0  0  0  0  0  0
  -27.6900  -24.5326   21.4644 H   0  0  0  0  0  0
  -27.1284  -24.3241   19.8534 H   0  0  0  0  0  0
  1 25  1  0  0  0
  1 30  2  0  0  0
  1 82  1  0  0  0
  2  3  1  0  0  0
  2 25  1  0  0  0
  2 83  1  0  0  0
  2 84  1  0  0  0
  3  4  1  0  0  0
  3 85  1  0  0  0
  3 86  1  0  0  0
  4  5  1  0  0  0
  4 87  1  0  0  0
  4 88  1  0  0  0
  5  6  1  0  0  0
  5 26  1  0  0  0
  5 89  1  0  0  0
  6 25  1  0  0  0
  6 90  1  0  0  0
  6 91  1  0  0  0
  7  8  2  0  0  0
  7 26  1  0  0  0
  7 29  1  0  0  0
  8  9  1  0  0  0
  8 22  1  0  0  0
  9 10  1  0  0  0
  9 27  2  0  0  0
 10 11  2  0  0  0
 10 15  1  0  0  0
 11 12  1  0  0  0
 11 92  1  0  0  0
 12 13  2  0  0  0
 12 93  1  0  0  0
 13 14  1  0  0  0
 13 31  1  0  0  0
 14 15  2  0  0  0
 14 94  1  0  0  0
 15 95  1  0  0  0
 16 17  2  0  0  0
 16 21  1  0  0  0
 16 31  1  0  0  0
 17 18  1  0  0  0
 17 96  1  0  0  0
 18 19  2  0  0  0
 18 97  1  0  0  0
 19 20  1  0  0  0
 19 24  1  0  0  0
 20 21  2  0  0  0
 20 98  1  0  0  0
 21 23  1  0  0  0
 22 28  1  0  0  0
 22 32  2  0  0  0
 26 27  1  0  0  0
 28 99  1  0  0  0
 28100  1  0  0  0
 29101  1  0  0  0
 29102  1  0  0  0
 33 34  1  0  0  0
 33 66  1  0  0  0
 33 70  2  0  0  0
 34 36  1  0  0  0
 34 59  1  0  0  0
 34103  1  0  0  0
 35 44  2  0  0  0
 35 45  1  0  0  0
 35 68  1  0  0  0
 36 56  1  0  0  0
 36104  1  0  0  0
 37 39  1  0  0  0
 37 47  1  0  0  0
 37 66  1  0  0  0
 37105  1  0  0  0
 38 43  2  0  0  0
 38 46  1  0  0  0
 38 47  1  0  0  0
 39 64  1  0  0  0
 39 67  2  0  0  0
 40 52  1  0  0  0
 40 53  2  0  0  0
 40 58  1  0  0  0
 41106  1  0  0  0
 41107  1  0  0  0
 41108  1  0  0  0
 41 48  1  0  0  0
 42 43  1  0  0  0
 42 66  1  0  0  0
 42109  1  0  0  0
 42110  1  0  0  0
 43 44  1  0  0  0
 44111  1  0  0  0
 45 46  2  0  0  0
 45112  1  0  0  0
 46113  1  0  0  0
 47114  1  0  0  0
 47115  1  0  0  0
 48 56  1  0  0  0
 48 65  1  0  0  0
 48116  1  0  0  0
 49 50  1  0  0  0
 49 53  1  0  0  0
 49 64  1  0  0  0
 49117  1  0  0  0
 50 51  1  0  0  0
 50118  1  0  0  0
 50119  1  0  0  0
 51 52  1  0  0  0
 51120  1  0  0  0
 51121  1  0  0  0
 52122  1  0  0  0
 52123  1  0  0  0
 53 54  1  0  0  0
 54 55  2  0  0  0
 54124  1  0  0  0
 55 57  1  0  0  0
 55125  1  0  0  0
 56 69  2  0  0  0
 57 58  2  0  0  0
 57126  1  0  0  0
 58127  1  0  0  0
 59 60  1  0  0  0
 59 61  1  0  0  0
 59 62  1  0  0  0
 60128  1  0  0  0
 60129  1  0  0  0
 60130  1  0  0  0
 61131  1  0  0  0
 61132  1  0  0  0
 61133  1  0  0  0
 62134  1  0  0  0
 62135  1  0  0  0
 62136  1  0  0  0
 63 65  1  0  0  0
 63137  1  0  0  0
 63138  1  0  0  0
 63139  1  0  0  0
 64140  1  0  0  0
 65141  1  0  0  0
 68 79  1  0  0  0
 71 72  2  0  0  0
 71 80  1  0  0  0
 71142  1  0  0  0
 72 77  1  0  0  0
 72 81  1  0  0  0
 73 74  1  0  0  0
 73 75  1  0  0  0
 73 80  2  0  0  0
 74 78  1  0  0  0
 74 81  2  0  0  0
 75143  1  0  0  0
 75144  1  0  0  0
 75145  1  0  0  0
 76 82  1  0  0  0
 76146  1  0  0  0
 76147  1  0  0  0
 76148  1  0  0  0
 77 79  1  0  0  0
 77149  1  0  0  0
 77150  1  0  0  0
 78 82  1  0  0  0
 78151  1  0  0  0
 78152  1  0  0  0
 79153  1  0  0  0
 79154  1  0  0  0
M  ISO  4   1 100  68 101  79 101  82 100
M  END
> <chiral flag>
0

> <version>
0

> <s_m_source_file>
/data/baiqing/PycharmProjects/Reinvent-master-3.2/result/LINK_invent/BTK/process_docking_weight1_custom_sum_contain_oxygen_bond_distance_aromatic_linkinvent_7_9_3/rearranged_h_0048.sdf

> <i_m_source_file_index>
60

> <r_mmod_Potential_Energy-OPLS-2005>
765.778991699219

> <r_mmod_Stretch_Energy-OPLS-2005>
337.217559814453

> <r_mmod_Bend_Energy-OPLS-2005>
302.541229248047

> <r_mmod_Torsional_Energy-OPLS-2005>
260.682647705078

> <r_mmod_Improper_Torsional_Energy-OPLS-2005>
5.99136209487915

> <r_mmod_Van_der_Waal_Energy-OPLS-2005>
138.145217895508

> <r_mmod_Electrostatic_Energy-OPLS-2005>
-284.252014160156

> <r_mmod_Solvation_Energy-OPLS-2005>
-218.732849121094

> <b_mmod_Minimization_Converged-OPLS-2005>
0

> <r_mmod_RMS_Derivative-OPLS-2005>
5.73804044723511

$$$$
61
                    3D
 Structure written by MMmdl.
169177  0  0  1  0            999 V2000
  -30.7798  -14.3311   20.7683 C   0  0  0  0  0  0
  -30.4211  -12.3050   19.3911 C   0  0  0  0  0  0
  -29.4824  -12.5373   18.1929 C   0  0  0  0  0  0
  -28.0071  -12.3868   18.6090 C   0  0  0  0  0  0
  -27.6694  -13.1961   19.8878 C   0  0  2  0  0  0
  -28.7056  -12.9109   21.0002 C   0  0  0  0  0  0
  -25.2605  -13.8124   20.5644 C   0  0  0  0  0  0
  -24.1844  -13.0393   20.9161 C   0  0  0  0  0  0
  -24.6395  -11.6879   20.8724 C   0  0  0  0  0  0
  -23.9087  -10.4264   21.0379 C   0  0  0  0  0  0
  -24.3633   -9.4199   21.9169 C   0  0  0  0  0  0
  -23.6285   -8.2256   22.0779 C   0  0  0  0  0  0
  -22.4274   -8.0291   21.3571 C   0  0  0  0  0  0
  -21.9901   -9.0262   20.4668 C   0  0  0  0  0  0
  -22.7250  -10.2115   20.3043 C   0  0  0  0  0  0
  -21.6841   -6.0739   22.5285 C   0  0  0  0  0  0
  -21.3995   -6.5645   23.8216 C   0  0  0  0  0  0
  -21.3649   -5.6800   24.9184 C   0  0  0  0  0  0
  -21.6066   -4.3063   24.7240 C   0  0  0  0  0  0
  -21.8820   -3.8156   23.4358 C   0  0  0  0  0  0
  -21.9167   -4.6981   22.3415 C   0  0  0  0  0  0
  -22.7867  -13.5184   21.1832 C   0  0  0  0  0  0
  -22.1635   -4.2164   21.0991 F   0  0  0  0  0  0
  -21.5666   -3.4537   25.7748 F   0  0  0  0  0  0
  -30.0432  -13.2284   20.4741 N   0  0  0  0  0  0
  -26.3049  -12.9299   20.3392 N   0  0  0  0  0  0
  -25.9313  -11.6466   20.5749 N   0  0  0  0  0  0
  -22.0503  -12.8173   22.0416 N   0  0  0  0  0  0
  -25.4270  -15.1824   20.4014 N   0  0  0  0  0  0
  -31.7543  -14.6664   20.0836 O   0  0  0  0  0  0
  -21.6665   -6.8876   21.4239 O   0  0  0  0  0  0
  -22.3534  -14.5444   20.6611 O   0  0  0  0  0  0
  -24.6144  -31.8690   23.2109 C   0  0  0  0  0  0
  -25.9043  -32.4803   23.8387 C   0  0  1  0  0  0
  -27.2231  -27.4296   20.0773 C   0  0  0  0  0  0
  -25.5929  -33.8603   24.2336 N   0  0  0  0  0  0
  -23.3991  -30.4967   21.5538 C   0  0  2  0  0  0
  -24.8385  -28.9600   20.1213 C   0  0  0  0  0  0
  -22.7376  -29.4681   22.4991 C   0  0  0  0  0  0
  -18.0322  -28.1375   22.8486 C   0  0  0  0  0  0
  -24.1495  -36.7275   23.2646 C   0  0  0  0  0  0
  -25.9333  -30.8252   21.3716 C   0  0  0  0  0  0
  -26.0029  -29.4635   20.7115 C   0  0  0  0  0  0
  -27.1967  -28.7086   20.6834 C   0  0  0  0  0  0
  -26.0229  -26.9352   19.5070 C   0  0  0  0  0  0
  -24.8415  -27.6928   19.5208 C   0  0  0  0  0  0
  -23.6063  -29.8311   20.1684 C   0  0  0  0  0  0
  -25.4114  -36.3085   24.0339 C   0  0  1  0  0  0
  -20.5898  -28.3631   23.1329 C   0  0  2  0  0  0
  -20.6833  -26.9402   22.5358 C   0  0  0  0  0  0
  -19.5791  -26.6445   21.5146 C   0  0  0  0  0  0
  -18.1976  -26.7949   22.1572 C   0  0  0  0  0  0
  -19.1563  -28.8806   23.2949 C   0  0  0  0  0  0
  -18.9495  -30.1412   23.8978 C   0  0  0  0  0  0
  -17.6489  -30.6544   24.0619 C   0  0  0  0  0  0
  -25.9030  -34.9456   23.5113 C   0  0  0  0  0  0
  -16.5378  -29.9062   23.6343 C   0  0  0  0  0  0
  -16.7309  -28.6503   23.0316 C   0  0  0  0  0  0
  -26.4485  -31.6579   25.0713 C   0  0  0  0  0  0
  -25.3777  -31.3657   26.1484 C   0  0  0  0  0  0
  -27.0377  -30.3048   24.6094 C   0  0  0  0  0  0
  -27.6064  -32.4307   25.7478 C   0  0  0  0  0  0
  -27.5578  -37.1794   24.8469 C   0  0  0  0  0  0
  -21.4095  -29.3060   22.3758 N   0  0  0  0  0  0
  -26.4292  -37.3766   23.9410 N   0  0  0  0  0  0
  -24.6680  -31.0780   22.1031 N   0  0  0  0  0  0
  -23.4148  -28.8208   23.3011 O   0  0  0  0  0  0
  -28.4173  -26.7261   20.0790 O   0  0  0  0  0  0
  -26.5564  -34.8895   22.4661 O   0  0  0  0  0  0
  -23.5340  -32.1439   23.7525 O   0  0  0  0  0  0
  -27.4539  -19.7814   21.6471 C   0  0  0  0  0  0
  -26.8519  -20.9604   21.3019 C   0  0  0  0  0  0
  -28.6998  -19.8159   20.9612 C   0  0  0  0  0  0
  -27.3729  -23.8025   23.0264 C   0  0  0  0  0  0
  -27.8884  -22.7847   18.3486 C   0  0  0  0  0  0
  -29.7632  -23.8088   20.9760 C   0  0  0  0  0  0
  -29.8047  -18.7984   20.8990 C   0  0  0  0  0  0
  -30.4622  -15.2057   21.9938 C   0  0  0  0  0  0
  -27.5578  -24.7176   21.8017 C   0  0  0  0  0  0
  -29.5304  -17.5142   21.6936 C   0  0  0  0  0  0
  -28.4722  -25.3992   19.5266 C   0  0  0  0  0  0
  -27.5674  -22.9773   19.8548 C   0  0  2  0  0  0
  -28.3247  -24.1978   20.5426 C   0  0  1  0  0  0
  -28.8615  -20.9453   20.2947 N   0  0  0  0  0  0
  -27.7397  -21.6720   20.5134 N   0  0  0  0  0  0
  -30.7059  -16.6143   21.6391 N   0  3  0  0  0  0
  -31.4638  -12.4154   19.0882 H   0  0  0  0  0  0
  -30.3340  -11.2776   19.7451 H   0  0  0  0  0  0
  -29.7193  -11.8370   17.3907 H   0  0  0  0  0  0
  -29.6479  -13.5374   17.7883 H   0  0  0  0  0  0
  -27.8179  -11.3257   18.7779 H   0  0  0  0  0  0
  -27.3518  -12.6873   17.7901 H   0  0  0  0  0  0
  -27.7360  -14.2537   19.6287 H   0  0  0  0  0  0
  -28.6709  -11.8547   21.2681 H   0  0  0  0  0  0
  -28.4277  -13.4263   21.9158 H   0  0  0  0  0  0
  -25.2780   -9.5715   22.4736 H   0  0  0  0  0  0
  -24.0022   -7.4659   22.7477 H   0  0  0  0  0  0
  -21.0841   -8.8742   19.8963 H   0  0  0  0  0  0
  -22.3678  -10.9657   19.6156 H   0  0  0  0  0  0
  -21.1983   -7.6154   23.9716 H   0  0  0  0  0  0
  -21.1469   -6.0548   25.9077 H   0  0  0  0  0  0
  -22.0597   -2.7624   23.2855 H   0  0  0  0  0  0
  -22.4054  -11.9819   22.4851 H   0  0  0  0  0  0
  -21.1138  -13.1264   22.2552 H   0  0  0  0  0  0
  -24.6484  -15.8258   20.5026 H   0  0  0  0  0  0
  -26.2724  -15.6394   20.0838 H   0  0  0  0  0  0
  -26.7092  -32.5448   23.1110 H   0  0  0  0  0  0
  -25.0171  -33.9773   25.0556 H   0  0  0  0  0  0
  -22.6907  -31.3166   21.4093 H   0  0  0  0  0  0
  -23.3769  -35.9599   23.3316 H   0  0  0  0  0  0
  -24.3583  -36.8883   22.2057 H   0  0  0  0  0  0
  -23.7249  -37.6478   23.6653 H   0  0  0  0  0  0
  -26.0535  -31.5935   20.6083 H   0  0  0  0  0  0
  -26.8213  -30.8644   21.9911 H   0  0  0  0  0  0
  -28.1010  -29.0989   21.1284 H   0  0  0  0  0  0
  -25.9381  -25.9585   19.0556 H   0  0  0  0  0  0
  -23.9390  -27.2895   19.0813 H   0  0  0  0  0  0
  -23.7146  -30.6042   19.4062 H   0  0  0  0  0  0
  -22.7303  -29.2514   19.8754 H   0  0  0  0  0  0
  -25.1302  -36.1937   25.0828 H   0  0  0  0  0  0
  -21.0023  -28.3173   24.1443 H   0  0  0  0  0  0
  -20.5776  -26.2190   23.3470 H   0  0  0  0  0  0
  -21.6702  -26.7508   22.1106 H   0  0  0  0  0  0
  -19.6950  -25.6404   21.1093 H   0  0  0  0  0  0
  -19.6746  -27.3330   20.6730 H   0  0  0  0  0  0
  -17.4246  -26.6754   21.3963 H   0  0  0  0  0  0
  -18.0398  -26.0068   22.8937 H   0  0  0  0  0  0
  -19.7974  -30.7219   24.2396 H   0  0  0  0  0  0
  -17.5018  -31.6196   24.5271 H   0  0  0  0  0  0
  -15.5371  -30.2934   23.7651 H   0  0  0  0  0  0
  -15.8732  -28.0824   22.6960 H   0  0  0  0  0  0
  -24.5942  -30.7009   25.7818 H   0  0  0  0  0  0
  -24.8986  -32.2805   26.4959 H   0  0  0  0  0  0
  -25.8159  -30.8805   27.0217 H   0  0  0  0  0  0
  -26.2955  -29.6746   24.1190 H   0  0  0  0  0  0
  -27.4238  -29.7301   25.4519 H   0  0  0  0  0  0
  -27.8707  -30.4410   23.9211 H   0  0  0  0  0  0
  -27.2692  -33.3598   26.2067 H   0  0  0  0  0  0
  -28.3872  -32.6876   25.0310 H   0  0  0  0  0  0
  -28.0732  -31.8427   26.5393 H   0  0  0  0  0  0
  -28.2586  -38.0098   24.7516 H   0  0  0  0  0  0
  -28.1097  -36.2624   24.6326 H   0  0  0  0  0  0
  -27.2270  -37.1449   25.8865 H   0  0  0  0  0  0
  -20.9179  -29.8833   21.7078 H   0  0  0  0  0  0
  -26.0181  -38.2828   24.1456 H   0  0  0  0  0  0
  -27.0469  -19.0044   22.2789 H   0  0  0  0  0  0
  -25.8746  -21.3407   21.5644 H   0  0  0  0  0  0
  -27.0312  -24.3979   23.8745 H   0  0  0  0  0  0
  -28.2995  -23.3223   23.3413 H   0  0  0  0  0  0
  -26.6152  -23.0391   22.8655 H   0  0  0  0  0  0
  -27.4068  -23.5273   17.7169 H   0  0  0  0  0  0
  -27.5128  -21.8266   17.9861 H   0  0  0  0  0  0
  -28.9604  -22.8168   18.1520 H   0  0  0  0  0  0
  -30.3134  -24.6676   21.3582 H   0  0  0  0  0  0
  -30.3300  -23.4009   20.1375 H   0  0  0  0  0  0
  -29.7858  -23.0457   21.7504 H   0  0  0  0  0  0
  -30.7278  -19.2507   21.2592 H   0  0  0  0  0  0
  -29.9714  -18.5374   19.8522 H   0  0  0  0  0  0
  -29.4744  -15.0936   22.4316 H   0  0  0  0  0  0
  -31.1730  -14.9395   22.7766 H   0  0  0  0  0  0
  -28.0867  -25.5941   22.1802 H   0  0  0  0  0  0
  -26.5749  -25.0763   21.5009 H   0  0  0  0  0  0
  -28.6523  -17.0159   21.2810 H   0  0  0  0  0  0
  -29.3019  -17.7531   22.7351 H   0  0  0  0  0  0
  -27.8078  -25.3303   18.6758 H   0  0  0  0  0  0
  -29.4500  -25.3298   19.0471 H   0  0  0  0  0  0
  -26.5005  -23.1979   19.9032 H   0  0  0  0  0  0
  -31.0725  -16.5631   20.6987 H   0  0  0  0  0  0
  -31.4361  -16.9826   22.2265 H   0  0  0  0  0  0
  1 25  1  0  0  0
  1 30  2  0  0  0
  1 78  1  0  0  0
  2  3  1  0  0  0
  2 25  1  0  0  0
  2 87  1  0  0  0
  2 88  1  0  0  0
  3  4  1  0  0  0
  3 89  1  0  0  0
  3 90  1  0  0  0
  4  5  1  0  0  0
  4 91  1  0  0  0
  4 92  1  0  0  0
  5  6  1  0  0  0
  5 26  1  0  0  0
  5 93  1  0  0  0
  6 25  1  0  0  0
  6 94  1  0  0  0
  6 95  1  0  0  0
  7  8  2  0  0  0
  7 26  1  0  0  0
  7 29  1  0  0  0
  8  9  1  0  0  0
  8 22  1  0  0  0
  9 10  1  0  0  0
  9 27  2  0  0  0
 10 11  2  0  0  0
 10 15  1  0  0  0
 11 12  1  0  0  0
 11 96  1  0  0  0
 12 13  2  0  0  0
 12 97  1  0  0  0
 13 14  1  0  0  0
 13 31  1  0  0  0
 14 15  2  0  0  0
 14 98  1  0  0  0
 15 99  1  0  0  0
 16 17  2  0  0  0
 16 21  1  0  0  0
 16 31  1  0  0  0
 17 18  1  0  0  0
 17100  1  0  0  0
 18 19  2  0  0  0
 18101  1  0  0  0
 19 20  1  0  0  0
 19 24  1  0  0  0
 20 21  2  0  0  0
 20102  1  0  0  0
 21 23  1  0  0  0
 22 28  1  0  0  0
 22 32  2  0  0  0
 26 27  1  0  0  0
 28103  1  0  0  0
 28104  1  0  0  0
 29105  1  0  0  0
 29106  1  0  0  0
 33 34  1  0  0  0
 33 66  1  0  0  0
 33 70  2  0  0  0
 34 36  1  0  0  0
 34 59  1  0  0  0
 34107  1  0  0  0
 35 44  2  0  0  0
 35 45  1  0  0  0
 35 68  1  0  0  0
 36 56  1  0  0  0
 36108  1  0  0  0
 37 39  1  0  0  0
 37 47  1  0  0  0
 37 66  1  0  0  0
 37109  1  0  0  0
 38 43  2  0  0  0
 38 46  1  0  0  0
 38 47  1  0  0  0
 39 64  1  0  0  0
 39 67  2  0  0  0
 40 52  1  0  0  0
 40 53  2  0  0  0
 40 58  1  0  0  0
 41110  1  0  0  0
 41111  1  0  0  0
 41112  1  0  0  0
 41 48  1  0  0  0
 42 43  1  0  0  0
 42 66  1  0  0  0
 42113  1  0  0  0
 42114  1  0  0  0
 43 44  1  0  0  0
 44115  1  0  0  0
 45 46  2  0  0  0
 45116  1  0  0  0
 46117  1  0  0  0
 47118  1  0  0  0
 47119  1  0  0  0
 48 56  1  0  0  0
 48 65  1  0  0  0
 48120  1  0  0  0
 49 50  1  0  0  0
 49 53  1  0  0  0
 49 64  1  0  0  0
 49121  1  0  0  0
 50 51  1  0  0  0
 50122  1  0  0  0
 50123  1  0  0  0
 51 52  1  0  0  0
 51124  1  0  0  0
 51125  1  0  0  0
 52126  1  0  0  0
 52127  1  0  0  0
 53 54  1  0  0  0
 54 55  2  0  0  0
 54128  1  0  0  0
 55 57  1  0  0  0
 55129  1  0  0  0
 56 69  2  0  0  0
 57 58  2  0  0  0
 57130  1  0  0  0
 58131  1  0  0  0
 59 60  1  0  0  0
 59 61  1  0  0  0
 59 62  1  0  0  0
 60132  1  0  0  0
 60133  1  0  0  0
 60134  1  0  0  0
 61135  1  0  0  0
 61136  1  0  0  0
 61137  1  0  0  0
 62138  1  0  0  0
 62139  1  0  0  0
 62140  1  0  0  0
 63 65  1  0  0  0
 63141  1  0  0  0
 63142  1  0  0  0
 63143  1  0  0  0
 64144  1  0  0  0
 65145  1  0  0  0
 68 81  1  0  0  0
 71 72  2  0  0  0
 71 73  1  0  0  0
 71146  1  0  0  0
 72 85  1  0  0  0
 72147  1  0  0  0
 73 77  1  0  0  0
 73 84  2  0  0  0
 74 79  1  0  0  0
 74148  1  0  0  0
 74149  1  0  0  0
 74150  1  0  0  0
 75151  1  0  0  0
 75152  1  0  0  0
 75153  1  0  0  0
 75 82  1  0  0  0
 76154  1  0  0  0
 76155  1  0  0  0
 76156  1  0  0  0
 76 83  1  0  0  0
 77 80  1  0  0  0
 77157  1  0  0  0
 77158  1  0  0  0
 78 86  1  0  0  0
 78159  1  0  0  0
 78160  1  0  0  0
 79 83  1  0  0  0
 79161  1  0  0  0
 79162  1  0  0  0
 80 86  1  0  0  0
 80163  1  0  0  0
 80164  1  0  0  0
 81 83  1  0  0  0
 81165  1  0  0  0
 81166  1  0  0  0
 82 83  1  0  0  0
 82 85  1  0  0  0
 82167  1  0  0  0
 84 85  1  0  0  0
 86168  1  0  0  0
 86169  1  0  0  0
M  CHG  1  86   1
M  ISO  4   1 100  68 101  78 100  81 101
M  END
> <chiral flag>
0

> <version>
0

> <s_m_source_file>
/data/baiqing/PycharmProjects/Reinvent-master-3.2/result/LINK_invent/BTK/process_docking_weight1_custom_sum_contain_oxygen_bond_distance_aromatic_linkinvent_7_9_3/rearranged_h_0048.sdf

> <i_m_source_file_index>
61

> <r_mmod_Potential_Energy-OPLS-2005>
-289.466003417969

> <r_mmod_Stretch_Energy-OPLS-2005>
42.6982765197754

> <r_mmod_Bend_Energy-OPLS-2005>
127.451957702637

> <r_mmod_Torsional_Energy-OPLS-2005>
222.294967651367

> <r_mmod_Improper_Torsional_Energy-OPLS-2005>
1.66582596302032

> <r_mmod_Van_der_Waal_Energy-OPLS-2005>
150.800430297852

> <r_mmod_Electrostatic_Energy-OPLS-2005>
-385.612182617188

> <r_mmod_Solvation_Energy-OPLS-2005>
-459.42236328125

> <b_mmod_Minimization_Converged-OPLS-2005>
0

> <r_mmod_RMS_Derivative-OPLS-2005>
4.85637474060059

$$$$
62
                    3D
 Structure written by MMmdl.
166174  0  0  1  0            999 V2000
  -30.7102  -14.5332   20.5617 C   0  0  0  0  0  0
  -30.4124  -12.3429   19.4401 C   0  0  0  0  0  0
  -29.4946  -12.5045   18.2117 C   0  0  0  0  0  0
  -28.0184  -12.3508   18.6228 C   0  0  0  0  0  0
  -27.6494  -13.2172   19.8580 C   0  0  2  0  0  0
  -28.6885  -13.0575   20.9902 C   0  0  0  0  0  0
  -25.2515  -13.8161   20.5641 C   0  0  0  0  0  0
  -24.1804  -13.0443   20.9183 C   0  0  0  0  0  0
  -24.6369  -11.6905   20.8718 C   0  0  0  0  0  0
  -23.9047  -10.4288   21.0402 C   0  0  0  0  0  0
  -24.3596   -9.4192   21.9164 C   0  0  0  0  0  0
  -23.6267   -8.2233   22.0741 C   0  0  0  0  0  0
  -22.4254   -8.0267   21.3542 C   0  0  0  0  0  0
  -21.9891   -9.0242   20.4645 C   0  0  0  0  0  0
  -22.7232  -10.2109   20.3050 C   0  0  0  0  0  0
  -21.6839   -6.0727   22.5284 C   0  0  0  0  0  0
  -21.4014   -6.5631   23.8214 C   0  0  0  0  0  0
  -21.3664   -5.6790   24.9182 C   0  0  0  0  0  0
  -21.6040   -4.3049   24.7232 C   0  0  0  0  0  0
  -21.8815   -3.8139   23.4355 C   0  0  0  0  0  0
  -21.9187   -4.6955   22.3411 C   0  0  0  0  0  0
  -22.7826  -13.5231   21.1880 C   0  0  0  0  0  0
  -22.1654   -4.2136   21.0996 F   0  0  0  0  0  0
  -21.5617   -3.4544   25.7750 F   0  0  0  0  0  0
  -30.0186  -13.3588   20.4360 N   0  0  0  0  0  0
  -26.2947  -12.9355   20.3260 N   0  0  0  0  0  0
  -25.9295  -11.6508   20.5710 N   0  0  0  0  0  0
  -22.0470  -12.8219   22.0419 N   0  0  0  0  0  0
  -25.4228  -15.1882   20.4018 N   0  0  0  0  0  0
  -31.8025  -14.7062   20.0137 O   0  0  0  0  0  0
  -21.6619   -6.8868   21.4245 O   0  0  0  0  0  0
  -22.3508  -14.5563   20.6754 O   0  0  0  0  0  0
  -24.6216  -31.8614   23.2013 C   0  0  0  0  0  0
  -25.9077  -32.4794   23.8326 C   0  0  1  0  0  0
  -27.2345  -27.3849   20.0938 C   0  0  0  0  0  0
  -25.5895  -33.8578   24.2261 N   0  0  0  0  0  0
  -23.4108  -30.4828   21.5452 C   0  0  2  0  0  0
  -24.8533  -28.9387   20.1076 C   0  0  0  0  0  0
  -22.7453  -29.4604   22.4972 C   0  0  0  0  0  0
  -18.0314  -28.1365   22.8481 C   0  0  0  0  0  0
  -24.1477  -36.7320   23.2639 C   0  0  0  0  0  0
  -25.9405  -30.8088   21.3605 C   0  0  0  0  0  0
  -26.0134  -29.4388   20.7112 C   0  0  0  0  0  0
  -27.2007  -28.6646   20.7072 C   0  0  0  0  0  0
  -26.0505  -26.9065   19.4892 C   0  0  0  0  0  0
  -24.8698  -27.6748   19.4927 C   0  0  0  0  0  0
  -23.6175  -29.8118   20.1595 C   0  0  0  0  0  0
  -25.4096  -36.3104   24.0341 C   0  0  1  0  0  0
  -20.5897  -28.3660   23.1323 C   0  0  2  0  0  0
  -20.6808  -26.9386   22.5415 C   0  0  0  0  0  0
  -19.5792  -26.6392   21.5184 C   0  0  0  0  0  0
  -18.1966  -26.7915   22.1589 C   0  0  0  0  0  0
  -19.1557  -28.8837   23.2892 C   0  0  0  0  0  0
  -18.9466  -30.1449   23.8907 C   0  0  0  0  0  0
  -17.6454  -30.6589   24.0533 C   0  0  0  0  0  0
  -25.9034  -34.9476   23.5109 C   0  0  0  0  0  0
  -16.5351  -29.9059   23.6317 C   0  0  0  0  0  0
  -16.7299  -28.6470   23.0364 C   0  0  0  0  0  0
  -26.4459  -31.6591   25.0690 C   0  0  0  0  0  0
  -25.3717  -31.3712   26.1450 C   0  0  0  0  0  0
  -27.0298  -30.3035   24.6084 C   0  0  0  0  0  0
  -27.6041  -32.4303   25.7457 C   0  0  0  0  0  0
  -27.5583  -37.1805   24.8473 C   0  0  0  0  0  0
  -21.4173  -29.3018   22.3725 N   0  0  0  0  0  0
  -26.4291  -37.3797   23.9416 N   0  0  0  0  0  0
  -24.6776  -31.0685   22.0931 N   0  0  0  0  0  0
  -23.4201  -28.8150   23.3045 O   0  0  0  0  0  0
  -28.4130  -26.6508   20.1312 O   0  0  0  0  0  0
  -26.5627  -34.8953   22.4693 O   0  0  0  0  0  0
  -23.5401  -32.1367   23.7399 O   0  0  0  0  0  0
  -27.9550  -19.4591   20.5904 C   0  0  0  0  0  0
  -29.2654  -19.2108   20.2564 C   0  0  0  0  0  0
  -28.7763  -21.3997   19.8382 C   0  0  0  0  0  0
  -31.3295  -16.9519   24.8088 C   0  0  0  0  0  0
  -26.3907  -21.4420   20.5041 C   0  0  0  0  0  0
  -30.1214  -17.9362   20.3447 C   0  0  0  0  0  0
  -28.9024  -22.8311   19.2937 C   0  0  0  0  0  0
  -30.4263  -16.8284   23.5766 C   0  0  0  0  0  0
  -28.3358  -24.0631   20.0951 C   0  0  0  0  0  0
  -29.3651  -16.6493   20.8461 C   0  0  0  0  0  0
  -30.9267  -15.7163   22.6288 C   0  0  0  0  0  0
  -28.5966  -25.4296   19.3686 C   0  0  0  0  0  0
  -27.6843  -20.7826   20.3213 N   0  0  0  0  0  0
  -29.7265  -20.4364   19.7947 N   0  3  0  0  0  0
  -30.1928  -15.5100   21.3616 N   0  0  0  0  0  0
  -31.4597  -12.4235   19.1422 H   0  0  0  0  0  0
  -30.3058  -11.3414   19.8627 H   0  0  0  0  0  0
  -29.7518  -11.7678   17.4503 H   0  0  0  0  0  0
  -29.6547  -13.4789   17.7500 H   0  0  0  0  0  0
  -27.8471  -11.2968   18.8436 H   0  0  0  0  0  0
  -27.3651  -12.5882   17.7829 H   0  0  0  0  0  0
  -27.6708  -14.2543   19.5241 H   0  0  0  0  0  0
  -28.6680  -12.0381   21.3798 H   0  0  0  0  0  0
  -28.4293  -13.7042   21.8305 H   0  0  0  0  0  0
  -25.2745   -9.5649   22.4722 H   0  0  0  0  0  0
  -23.9975   -7.4627   22.7461 H   0  0  0  0  0  0
  -21.0823   -8.8785   19.8934 H   0  0  0  0  0  0
  -22.3725  -10.9642   19.6141 H   0  0  0  0  0  0
  -21.2015   -7.6137   23.9723 H   0  0  0  0  0  0
  -21.1486   -6.0516   25.9088 H   0  0  0  0  0  0
  -22.0585   -2.7598   23.2868 H   0  0  0  0  0  0
  -22.4093  -11.9901   22.4825 H   0  0  0  0  0  0
  -21.1070  -13.1203   22.2604 H   0  0  0  0  0  0
  -24.6531  -15.8425   20.5018 H   0  0  0  0  0  0
  -26.2779  -15.6202   20.0769 H   0  0  0  0  0  0
  -26.7154  -32.5500   23.1095 H   0  0  0  0  0  0
  -25.0038  -33.9635   25.0408 H   0  0  0  0  0  0
  -22.7042  -31.3028   21.4067 H   0  0  0  0  0  0
  -23.3739  -35.9663   23.3308 H   0  0  0  0  0  0
  -24.3583  -36.8907   22.2052 H   0  0  0  0  0  0
  -23.7215  -37.6522   23.6650 H   0  0  0  0  0  0
  -26.0576  -31.5641   20.5834 H   0  0  0  0  0  0
  -26.8278  -30.8628   21.9795 H   0  0  0  0  0  0
  -28.0983  -29.0375   21.1814 H   0  0  0  0  0  0
  -26.0210  -25.9313   19.0264 H   0  0  0  0  0  0
  -23.9798  -27.2783   19.0213 H   0  0  0  0  0  0
  -23.7226  -30.5851   19.3976 H   0  0  0  0  0  0
  -22.7372  -29.2337   19.8701 H   0  0  0  0  0  0
  -25.1258  -36.1956   25.0837 H   0  0  0  0  0  0
  -20.9974  -28.3236   24.1452 H   0  0  0  0  0  0
  -20.5619  -26.2270   23.3597 H   0  0  0  0  0  0
  -21.6717  -26.7373   22.1294 H   0  0  0  0  0  0
  -19.6951  -25.6322   21.1170 H   0  0  0  0  0  0
  -19.6712  -27.3226   20.6742 H   0  0  0  0  0  0
  -17.4211  -26.6664   21.4010 H   0  0  0  0  0  0
  -18.0387  -26.0059   22.8981 H   0  0  0  0  0  0
  -19.7935  -30.7306   24.2236 H   0  0  0  0  0  0
  -17.4975  -31.6286   24.5082 H   0  0  0  0  0  0
  -15.5336  -30.2940   23.7589 H   0  0  0  0  0  0
  -15.8714  -28.0757   22.7096 H   0  0  0  0  0  0
  -24.5896  -30.7024   25.7818 H   0  0  0  0  0  0
  -24.8899  -32.2868   26.4903 H   0  0  0  0  0  0
  -25.8072  -30.8899   27.0215 H   0  0  0  0  0  0
  -26.2836  -29.6789   24.1144 H   0  0  0  0  0  0
  -27.4063  -29.7274   25.4543 H   0  0  0  0  0  0
  -27.8688  -30.4358   23.9250 H   0  0  0  0  0  0
  -27.2667  -33.3594   26.2072 H   0  0  0  0  0  0
  -28.3855  -32.6829   25.0282 H   0  0  0  0  0  0
  -28.0728  -31.8385   26.5326 H   0  0  0  0  0  0
  -28.2606  -38.0091   24.7526 H   0  0  0  0  0  0
  -28.1044  -36.2616   24.6283 H   0  0  0  0  0  0
  -27.2323  -37.1490   25.8881 H   0  0  0  0  0  0
  -20.9337  -29.8747   21.6940 H   0  0  0  0  0  0
  -26.0179  -38.2888   24.1377 H   0  0  0  0  0  0
  -27.1947  -18.7984   20.9842 H   0  0  0  0  0  0
  -30.9664  -17.7294   25.4821 H   0  0  0  0  0  0
  -32.3498  -17.2128   24.5228 H   0  0  0  0  0  0
  -31.3683  -16.0164   25.3687 H   0  0  0  0  0  0
  -25.6116  -20.6878   20.6084 H   0  0  0  0  0  0
  -26.1570  -22.0631   19.6397 H   0  0  0  0  0  0
  -26.4217  -22.0474   21.4095 H   0  0  0  0  0  0
  -30.9744  -18.1490   20.9888 H   0  0  0  0  0  0
  -30.5481  -17.7374   19.3611 H   0  0  0  0  0  0
  -28.4421  -22.8060   18.3054 H   0  0  0  0  0  0
  -29.9677  -22.9853   19.1238 H   0  0  0  0  0  0
  -30.4085  -17.8018   23.0881 H   0  0  0  0  0  0
  -29.4056  -16.6187   23.8957 H   0  0  0  0  0  0
  -28.7828  -24.0807   21.0890 H   0  0  0  0  0  0
  -27.2634  -23.9702   20.2556 H   0  0  0  0  0  0
  -28.7297  -16.2971   20.0318 H   0  0  0  0  0  0
  -28.6671  -16.9273   21.6349 H   0  0  0  0  0  0
  -30.9136  -14.7733   23.1812 H   0  0  0  0  0  0
  -31.9763  -15.9092   22.3977 H   0  0  0  0  0  0
  -29.6490  -25.4421   19.0862 H   0  0  0  0  0  0
  -28.0697  -25.4695   18.4144 H   0  0  0  0  0  0
  -30.6629  -20.5936   19.4376 H   0  0  0  0  0  0
  1 25  1  0  0  0
  1 30  2  0  0  0
  1 85  1  0  0  0
  2  3  1  0  0  0
  2 25  1  0  0  0
  2 86  1  0  0  0
  2 87  1  0  0  0
  3  4  1  0  0  0
  3 88  1  0  0  0
  3 89  1  0  0  0
  4  5  1  0  0  0
  4 90  1  0  0  0
  4 91  1  0  0  0
  5  6  1  0  0  0
  5 26  1  0  0  0
  5 92  1  0  0  0
  6 25  1  0  0  0
  6 93  1  0  0  0
  6 94  1  0  0  0
  7  8  2  0  0  0
  7 26  1  0  0  0
  7 29  1  0  0  0
  8  9  1  0  0  0
  8 22  1  0  0  0
  9 10  1  0  0  0
  9 27  2  0  0  0
 10 11  2  0  0  0
 10 15  1  0  0  0
 11 12  1  0  0  0
 11 95  1  0  0  0
 12 13  2  0  0  0
 12 96  1  0  0  0
 13 14  1  0  0  0
 13 31  1  0  0  0
 14 15  2  0  0  0
 14 97  1  0  0  0
 15 98  1  0  0  0
 16 17  2  0  0  0
 16 21  1  0  0  0
 16 31  1  0  0  0
 17 18  1  0  0  0
 17 99  1  0  0  0
 18 19  2  0  0  0
 18100  1  0  0  0
 19 20  1  0  0  0
 19 24  1  0  0  0
 20 21  2  0  0  0
 20101  1  0  0  0
 21 23  1  0  0  0
 22 28  1  0  0  0
 22 32  2  0  0  0
 26 27  1  0  0  0
 28102  1  0  0  0
 28103  1  0  0  0
 29104  1  0  0  0
 29105  1  0  0  0
 33 34  1  0  0  0
 33 66  1  0  0  0
 33 70  2  0  0  0
 34 36  1  0  0  0
 34 59  1  0  0  0
 34106  1  0  0  0
 35 44  2  0  0  0
 35 45  1  0  0  0
 35 68  1  0  0  0
 36 56  1  0  0  0
 36107  1  0  0  0
 37 39  1  0  0  0
 37 47  1  0  0  0
 37 66  1  0  0  0
 37108  1  0  0  0
 38 43  2  0  0  0
 38 46  1  0  0  0
 38 47  1  0  0  0
 39 64  1  0  0  0
 39 67  2  0  0  0
 40 52  1  0  0  0
 40 53  2  0  0  0
 40 58  1  0  0  0
 41109  1  0  0  0
 41110  1  0  0  0
 41111  1  0  0  0
 41 48  1  0  0  0
 42 43  1  0  0  0
 42 66  1  0  0  0
 42112  1  0  0  0
 42113  1  0  0  0
 43 44  1  0  0  0
 44114  1  0  0  0
 45 46  2  0  0  0
 45115  1  0  0  0
 46116  1  0  0  0
 47117  1  0  0  0
 47118  1  0  0  0
 48 56  1  0  0  0
 48 65  1  0  0  0
 48119  1  0  0  0
 49 50  1  0  0  0
 49 53  1  0  0  0
 49 64  1  0  0  0
 49120  1  0  0  0
 50 51  1  0  0  0
 50121  1  0  0  0
 50122  1  0  0  0
 51 52  1  0  0  0
 51123  1  0  0  0
 51124  1  0  0  0
 52125  1  0  0  0
 52126  1  0  0  0
 53 54  1  0  0  0
 54 55  2  0  0  0
 54127  1  0  0  0
 55 57  1  0  0  0
 55128  1  0  0  0
 56 69  2  0  0  0
 57 58  2  0  0  0
 57129  1  0  0  0
 58130  1  0  0  0
 59 60  1  0  0  0
 59 61  1  0  0  0
 59 62  1  0  0  0
 60131  1  0  0  0
 60132  1  0  0  0
 60133  1  0  0  0
 61134  1  0  0  0
 61135  1  0  0  0
 61136  1  0  0  0
 62137  1  0  0  0
 62138  1  0  0  0
 62139  1  0  0  0
 63 65  1  0  0  0
 63140  1  0  0  0
 63141  1  0  0  0
 63142  1  0  0  0
 64143  1  0  0  0
 65144  1  0  0  0
 68 82  1  0  0  0
 71 72  2  0  0  0
 71 83  1  0  0  0
 71145  1  0  0  0
 72 76  1  0  0  0
 72 84  1  0  0  0
 73 77  1  0  0  0
 73 83  1  0  0  0
 73 84  2  0  0  0
 74 78  1  0  0  0
 74146  1  0  0  0
 74147  1  0  0  0
 74148  1  0  0  0
 75 83  1  0  0  0
 75149  1  0  0  0
 75150  1  0  0  0
 75151  1  0  0  0
 76 80  1  0  0  0
 76152  1  0  0  0
 76153  1  0  0  0
 77 79  1  0  0  0
 77154  1  0  0  0
 77155  1  0  0  0
 78 81  1  0  0  0
 78156  1  0  0  0
 78157  1  0  0  0
 79 82  1  0  0  0
 79158  1  0  0  0
 79159  1  0  0  0
 80 85  1  0  0  0
 80160  1  0  0  0
 80161  1  0  0  0
 81 85  1  0  0  0
 81162  1  0  0  0
 81163  1  0  0  0
 82164  1  0  0  0
 82165  1  0  0  0
 84166  1  0  0  0
M  CHG  1  84   1
M  ISO  4   1 100  68 101  82 101  85 100
M  END
> <chiral flag>
0

> <version>
0

> <s_m_source_file>
/data/baiqing/PycharmProjects/Reinvent-master-3.2/result/LINK_invent/BTK/process_docking_weight1_custom_sum_contain_oxygen_bond_distance_aromatic_linkinvent_7_9_3/rearranged_h_0048.sdf

> <i_m_source_file_index>
62

> <r_mmod_Potential_Energy-OPLS-2005>
94.5565795898438

> <r_mmod_Stretch_Energy-OPLS-2005>
56.179328918457

> <r_mmod_Bend_Energy-OPLS-2005>
134.331558227539

> <r_mmod_Torsional_Energy-OPLS-2005>
304.367126464844

> <r_mmod_Improper_Torsional_Energy-OPLS-2005>
3.81768608093262

> <r_mmod_Van_der_Waal_Energy-OPLS-2005>
120.085861206055

> <r_mmod_Electrostatic_Energy-OPLS-2005>
-143.234039306641

> <r_mmod_Solvation_Energy-OPLS-2005>
-403.306030273438

> <b_mmod_Minimization_Converged-OPLS-2005>
0

> <r_mmod_RMS_Derivative-OPLS-2005>
3.63069176673889

$$$$
63
                    3D
 Structure written by MMmdl.
154162  0  0  1  0            999 V2000
  -30.5636  -14.7188   20.5016 C   0  0  0  0  0  0
  -30.4440  -12.4463   19.4550 C   0  0  0  0  0  0
  -29.5122  -12.5035   18.2225 C   0  0  0  0  0  0
  -28.0340  -12.3304   18.6291 C   0  0  0  0  0  0
  -27.6446  -13.2099   19.8450 C   0  0  2  0  0  0
  -28.6844  -13.0888   20.9790 C   0  0  0  0  0  0
  -25.2550  -13.8135   20.5630 C   0  0  0  0  0  0
  -24.1820  -13.0414   20.9147 C   0  0  0  0  0  0
  -24.6356  -11.6887   20.8692 C   0  0  0  0  0  0
  -23.9019  -10.4282   21.0367 C   0  0  0  0  0  0
  -24.3595   -9.4219   21.9164 C   0  0  0  0  0  0
  -23.6300   -8.2237   22.0740 C   0  0  0  0  0  0
  -22.4293   -8.0249   21.3516 C   0  0  0  0  0  0
  -21.9908   -9.0222   20.4623 C   0  0  0  0  0  0
  -22.7193  -10.2120   20.3029 C   0  0  0  0  0  0
  -21.6874   -6.0707   22.5263 C   0  0  0  0  0  0
  -21.4009   -6.5624   23.8174 C   0  0  0  0  0  0
  -21.3666   -5.6792   24.9151 C   0  0  0  0  0  0
  -21.6061   -4.3052   24.7232 C   0  0  0  0  0  0
  -21.8820   -3.8125   23.4349 C   0  0  0  0  0  0
  -21.9201   -4.6925   22.3401 C   0  0  0  0  0  0
  -22.7841  -13.5220   21.1802 C   0  0  0  0  0  0
  -22.1664   -4.2114   21.0976 F   0  0  0  0  0  0
  -21.5650   -3.4520   25.7736 F   0  0  0  0  0  0
  -29.9833  -13.4751   20.4126 N   0  0  0  0  0  0
  -26.2919  -12.9295   20.3169 N   0  0  0  0  0  0
  -25.9273  -11.6449   20.5677 N   0  0  0  0  0  0
  -22.0520  -12.8220   22.0380 N   0  0  0  0  0  0
  -25.4300  -15.1878   20.4079 N   0  0  0  0  0  0
  -31.7454  -14.8782   20.1791 O   0  0  0  0  0  0
  -21.6648   -6.8857   21.4221 O   0  0  0  0  0  0
  -22.3536  -14.5512   20.6624 O   0  0  0  0  0  0
  -24.6340  -31.8562   23.1994 C   0  0  0  0  0  0
  -25.9170  -32.4750   23.8332 C   0  0  1  0  0  0
  -27.1998  -27.2400   20.1616 C   0  0  0  0  0  0
  -25.5976  -33.8547   24.2268 N   0  0  0  0  0  0
  -23.4264  -30.4789   21.5425 C   0  0  2  0  0  0
  -24.8698  -28.9138   20.1170 C   0  0  0  0  0  0
  -22.7509  -29.4619   22.4931 C   0  0  0  0  0  0
  -18.0295  -28.1384   22.8446 C   0  0  0  0  0  0
  -24.1488  -36.7273   23.2634 C   0  0  0  0  0  0
  -25.9712  -30.7595   21.3804 C   0  0  0  0  0  0
  -26.0391  -29.3787   20.7311 C   0  0  0  0  0  0
  -27.2081  -28.5524   20.7442 C   0  0  0  0  0  0
  -26.0182  -26.8516   19.4964 C   0  0  0  0  0  0
  -24.8601  -27.6562   19.4891 C   0  0  0  0  0  0
  -23.6454  -29.8095   20.1589 C   0  0  0  0  0  0
  -25.4113  -36.3056   24.0328 C   0  0  1  0  0  0
  -20.5897  -28.3705   23.1253 C   0  0  2  0  0  0
  -20.6780  -26.9433   22.5391 C   0  0  0  0  0  0
  -19.5764  -26.6379   21.5192 C   0  0  0  0  0  0
  -18.1945  -26.7917   22.1601 C   0  0  0  0  0  0
  -19.1549  -28.8864   23.2815 C   0  0  0  0  0  0
  -18.9474  -30.1469   23.8821 C   0  0  0  0  0  0
  -17.6477  -30.6574   24.0550 C   0  0  0  0  0  0
  -25.9073  -34.9443   23.5102 C   0  0  0  0  0  0
  -16.5369  -29.9076   23.6341 C   0  0  0  0  0  0
  -16.7279  -28.6510   23.0327 C   0  0  0  0  0  0
  -26.4525  -31.6573   25.0734 C   0  0  0  0  0  0
  -25.3729  -31.3738   26.1450 C   0  0  0  0  0  0
  -27.0404  -30.2996   24.6249 C   0  0  0  0  0  0
  -27.6092  -32.4299   25.7505 C   0  0  0  0  0  0
  -27.5577  -37.1791   24.8468 C   0  0  0  0  0  0
  -21.4233  -29.3057   22.3659 N   0  0  0  0  0  0
  -26.4274  -37.3773   23.9433 N   0  0  0  0  0  0
  -24.6962  -31.0530   22.0961 N   0  0  0  0  0  0
  -23.4227  -28.8160   23.3021 O   0  0  0  0  0  0
  -28.2784  -26.3308   20.2193 O   0  0  0  0  0  0
  -26.5642  -34.8923   22.4670 O   0  0  0  0  0  0
  -23.5495  -32.1394   23.7304 O   0  0  0  0  0  0
  -28.8046  -21.0619   19.8676 C   0  0  0  0  0  0
  -29.0528  -19.9329   20.6645 C   0  0  0  0  0  0
  -29.2684  -21.8619   21.8603 C   0  0  0  0  0  0
  -29.5523  -22.7471   23.0330 C   0  0  0  0  0  0
  -29.0050  -23.7217   20.1009 C   0  0  0  0  0  0
  -30.0185  -17.2840   20.9605 C   0  0  0  0  0  0
  -28.0200  -24.8949   20.6200 C   0  0  0  0  0  0
  -28.9441  -18.3663   20.4051 C   0  0  0  0  0  0
  -28.9630  -22.2484   20.6051 N   0  0  0  0  0  0
  -29.3062  -20.5062   21.8896 N   0  3  0  0  0  0
  -29.7306  -15.7879   20.7869 N   0  0  0  0  0  0
  -27.7590  -17.9972   20.8902 F   0  0  0  0  0  0
  -28.9027  -18.2017   19.0849 F   0  0  0  0  0  0
  -31.4734  -12.6131   19.1381 H   0  0  0  0  0  0
  -30.4286  -11.4549   19.9119 H   0  0  0  0  0  0
  -29.7970  -11.7341   17.5018 H   0  0  0  0  0  0
  -29.6347  -13.4608   17.7134 H   0  0  0  0  0  0
  -27.8730  -11.2790   18.8674 H   0  0  0  0  0  0
  -27.3846  -12.5471   17.7776 H   0  0  0  0  0  0
  -27.6559  -14.2401   19.4930 H   0  0  0  0  0  0
  -28.7192  -12.0633   21.3543 H   0  0  0  0  0  0
  -28.4116  -13.7112   21.8300 H   0  0  0  0  0  0
  -25.2756   -9.5725   22.4691 H   0  0  0  0  0  0
  -24.0024   -7.4662   22.7503 H   0  0  0  0  0  0
  -21.0811   -8.8722   19.8974 H   0  0  0  0  0  0
  -22.3636  -10.9632   19.6120 H   0  0  0  0  0  0
  -21.1978   -7.6135   23.9667 H   0  0  0  0  0  0
  -21.1497   -6.0517   25.9052 H   0  0  0  0  0  0
  -22.0604   -2.7579   23.2847 H   0  0  0  0  0  0
  -22.4151  -11.9917   22.4821 H   0  0  0  0  0  0
  -21.1108  -13.1202   22.2531 H   0  0  0  0  0  0
  -24.6643  -15.8405   20.5405 H   0  0  0  0  0  0
  -26.2611  -15.6273   20.0341 H   0  0  0  0  0  0
  -26.7234  -32.5383   23.1058 H   0  0  0  0  0  0
  -25.0117  -33.9678   25.0414 H   0  0  0  0  0  0
  -22.7173  -31.2973   21.3964 H   0  0  0  0  0  0
  -23.3753  -35.9599   23.3284 H   0  0  0  0  0  0
  -24.3557  -36.8915   22.2044 H   0  0  0  0  0  0
  -23.7238  -37.6473   23.6663 H   0  0  0  0  0  0
  -26.1118  -31.5062   20.5986 H   0  0  0  0  0  0
  -26.8497  -30.8113   22.0108 H   0  0  0  0  0  0
  -28.0953  -28.8934   21.2571 H   0  0  0  0  0  0
  -25.9708  -25.8962   18.9932 H   0  0  0  0  0  0
  -23.9645  -27.2927   19.0035 H   0  0  0  0  0  0
  -23.7804  -30.5848   19.4024 H   0  0  0  0  0  0
  -22.7572  -29.2531   19.8548 H   0  0  0  0  0  0
  -25.1283  -36.1878   25.0816 H   0  0  0  0  0  0
  -20.9940  -28.3275   24.1391 H   0  0  0  0  0  0
  -20.5664  -26.2345   23.3600 H   0  0  0  0  0  0
  -21.6655  -26.7455   22.1207 H   0  0  0  0  0  0
  -19.6941  -25.6286   21.1237 H   0  0  0  0  0  0
  -19.6695  -27.3170   20.6706 H   0  0  0  0  0  0
  -17.4222  -26.6640   21.3999 H   0  0  0  0  0  0
  -18.0355  -26.0064   22.9010 H   0  0  0  0  0  0
  -19.7964  -30.7296   24.2147 H   0  0  0  0  0  0
  -17.5051  -31.6246   24.5187 H   0  0  0  0  0  0
  -15.5368  -30.2957   23.7728 H   0  0  0  0  0  0
  -15.8679  -28.0831   22.7043 H   0  0  0  0  0  0
  -24.5874  -30.7123   25.7781 H   0  0  0  0  0  0
  -24.8939  -32.2911   26.4886 H   0  0  0  0  0  0
  -25.8017  -30.8890   27.0228 H   0  0  0  0  0  0
  -26.3031  -29.6690   24.1269 H   0  0  0  0  0  0
  -27.4098  -29.7310   25.4797 H   0  0  0  0  0  0
  -27.8886  -30.4304   23.9521 H   0  0  0  0  0  0
  -27.2733  -33.3599   26.2102 H   0  0  0  0  0  0
  -28.3898  -32.6854   25.0325 H   0  0  0  0  0  0
  -28.0764  -31.8391   26.5397 H   0  0  0  0  0  0
  -28.2596  -38.0092   24.7532 H   0  0  0  0  0  0
  -28.1071  -36.2628   24.6253 H   0  0  0  0  0  0
  -27.2301  -37.1393   25.8872 H   0  0  0  0  0  0
  -20.9443  -29.8783   21.6845 H   0  0  0  0  0  0
  -26.0142  -38.2846   24.1418 H   0  0  0  0  0  0
  -28.5359  -21.0969   18.8193 H   0  0  0  0  0  0
  -30.2848  -23.4994   22.7446 H   0  0  0  0  0  0
  -29.9540  -22.1396   23.8433 H   0  0  0  0  0  0
  -28.6257  -23.2219   23.3563 H   0  0  0  0  0  0
  -30.0269  -24.0516   20.2874 H   0  0  0  0  0  0
  -28.9164  -23.6652   19.0152 H   0  0  0  0  0  0
  -30.1166  -17.4387   22.0361 H   0  0  0  0  0  0
  -30.9983  -17.5105   20.5411 H   0  0  0  0  0  0
  -28.0332  -24.8873   21.7101 H   0  0  0  0  0  0
  -27.0057  -24.5862   20.3685 H   0  0  0  0  0  0
  -29.5033  -19.9762   22.7291 H   0  0  0  0  0  0
  -28.7791  -15.5209   20.9821 H   0  0  0  0  0  0
  1 25  1  0  0  0
  1 30  2  0  0  0
  1 81  1  0  0  0
  2  3  1  0  0  0
  2 25  1  0  0  0
  2 84  1  0  0  0
  2 85  1  0  0  0
  3  4  1  0  0  0
  3 86  1  0  0  0
  3 87  1  0  0  0
  4  5  1  0  0  0
  4 88  1  0  0  0
  4 89  1  0  0  0
  5  6  1  0  0  0
  5 26  1  0  0  0
  5 90  1  0  0  0
  6 25  1  0  0  0
  6 91  1  0  0  0
  6 92  1  0  0  0
  7  8  2  0  0  0
  7 26  1  0  0  0
  7 29  1  0  0  0
  8  9  1  0  0  0
  8 22  1  0  0  0
  9 10  1  0  0  0
  9 27  2  0  0  0
 10 11  2  0  0  0
 10 15  1  0  0  0
 11 12  1  0  0  0
 11 93  1  0  0  0
 12 13  2  0  0  0
 12 94  1  0  0  0
 13 14  1  0  0  0
 13 31  1  0  0  0
 14 15  2  0  0  0
 14 95  1  0  0  0
 15 96  1  0  0  0
 16 17  2  0  0  0
 16 21  1  0  0  0
 16 31  1  0  0  0
 17 18  1  0  0  0
 17 97  1  0  0  0
 18 19  2  0  0  0
 18 98  1  0  0  0
 19 20  1  0  0  0
 19 24  1  0  0  0
 20 21  2  0  0  0
 20 99  1  0  0  0
 21 23  1  0  0  0
 22 28  1  0  0  0
 22 32  2  0  0  0
 26 27  1  0  0  0
 28100  1  0  0  0
 28101  1  0  0  0
 29102  1  0  0  0
 29103  1  0  0  0
 33 34  1  0  0  0
 33 66  1  0  0  0
 33 70  2  0  0  0
 34 36  1  0  0  0
 34 59  1  0  0  0
 34104  1  0  0  0
 35 44  2  0  0  0
 35 45  1  0  0  0
 35 68  1  0  0  0
 36 56  1  0  0  0
 36105  1  0  0  0
 37 39  1  0  0  0
 37 47  1  0  0  0
 37 66  1  0  0  0
 37106  1  0  0  0
 38 43  2  0  0  0
 38 46  1  0  0  0
 38 47  1  0  0  0
 39 64  1  0  0  0
 39 67  2  0  0  0
 40 52  1  0  0  0
 40 53  2  0  0  0
 40 58  1  0  0  0
 41107  1  0  0  0
 41108  1  0  0  0
 41109  1  0  0  0
 41 48  1  0  0  0
 42 43  1  0  0  0
 42 66  1  0  0  0
 42110  1  0  0  0
 42111  1  0  0  0
 43 44  1  0  0  0
 44112  1  0  0  0
 45 46  2  0  0  0
 45113  1  0  0  0
 46114  1  0  0  0
 47115  1  0  0  0
 47116  1  0  0  0
 48 56  1  0  0  0
 48 65  1  0  0  0
 48117  1  0  0  0
 49 50  1  0  0  0
 49 53  1  0  0  0
 49 64  1  0  0  0
 49118  1  0  0  0
 50 51  1  0  0  0
 50119  1  0  0  0
 50120  1  0  0  0
 51 52  1  0  0  0
 51121  1  0  0  0
 51122  1  0  0  0
 52123  1  0  0  0
 52124  1  0  0  0
 53 54  1  0  0  0
 54 55  2  0  0  0
 54125  1  0  0  0
 55 57  1  0  0  0
 55126  1  0  0  0
 56 69  2  0  0  0
 57 58  2  0  0  0
 57127  1  0  0  0
 58128  1  0  0  0
 59 60  1  0  0  0
 59 61  1  0  0  0
 59 62  1  0  0  0
 60129  1  0  0  0
 60130  1  0  0  0
 60131  1  0  0  0
 61132  1  0  0  0
 61133  1  0  0  0
 61134  1  0  0  0
 62135  1  0  0  0
 62136  1  0  0  0
 62137  1  0  0  0
 63 65  1  0  0  0
 63138  1  0  0  0
 63139  1  0  0  0
 63140  1  0  0  0
 64141  1  0  0  0
 65142  1  0  0  0
 68 77  1  0  0  0
 71 72  2  0  0  0
 71 79  1  0  0  0
 71143  1  0  0  0
 72 78  1  0  0  0
 72 80  1  0  0  0
 73 74  1  0  0  0
 73 79  1  0  0  0
 73 80  2  0  0  0
 74144  1  0  0  0
 74145  1  0  0  0
 74146  1  0  0  0
 75 77  1  0  0  0
 75 79  1  0  0  0
 75147  1  0  0  0
 75148  1  0  0  0
 76 78  1  0  0  0
 76 81  1  0  0  0
 76149  1  0  0  0
 76150  1  0  0  0
 77151  1  0  0  0
 77152  1  0  0  0
 78 82  1  0  0  0
 78 83  1  0  0  0
 80153  1  0  0  0
 81154  1  0  0  0
M  CHG  1  80   1
M  ISO  4   1 100  68 101  77 101  81 100
M  END
> <chiral flag>
0

> <version>
0

> <s_m_source_file>
/data/baiqing/PycharmProjects/Reinvent-master-3.2/result/LINK_invent/BTK/process_docking_weight1_custom_sum_contain_oxygen_bond_distance_aromatic_linkinvent_7_9_3/rearranged_h_0048.sdf

> <i_m_source_file_index>
63

> <r_mmod_Potential_Energy-OPLS-2005>
-6.58854627609253

> <r_mmod_Stretch_Energy-OPLS-2005>
122.12100982666

> <r_mmod_Bend_Energy-OPLS-2005>
163.863708496094

> <r_mmod_Torsional_Energy-OPLS-2005>
236.932815551758

> <r_mmod_Improper_Torsional_Energy-OPLS-2005>
5.33803749084473

> <r_mmod_Van_der_Waal_Energy-OPLS-2005>
112.625518798828

> <r_mmod_Electrostatic_Energy-OPLS-2005>
-302.614074707031

> <r_mmod_Solvation_Energy-OPLS-2005>
-432.917266845703

> <b_mmod_Minimization_Converged-OPLS-2005>
0

> <r_mmod_RMS_Derivative-OPLS-2005>
4.88462543487549

$$$$
64
                    3D
 Structure written by MMmdl.
169177  0  0  1  0            999 V2000
  -30.5270  -15.1196   20.3385 C   0  0  0  0  0  0
  -30.4395  -12.7067   19.4687 C   0  0  0  0  0  0
  -29.5071  -12.5372   18.2474 C   0  0  0  0  0  0
  -28.0602  -12.2515   18.6967 C   0  0  0  0  0  0
  -27.6046  -13.1892   19.8373 C   0  0  2  0  0  0
  -28.6739  -13.3921   20.9396 C   0  0  0  0  0  0
  -25.2412  -13.7907   20.5999 C   0  0  0  0  0  0
  -24.1678  -13.0231   20.9374 C   0  0  0  0  0  0
  -24.6259  -11.6724   20.8888 C   0  0  0  0  0  0
  -23.8954  -10.4171   21.0484 C   0  0  0  0  0  0
  -24.3545   -9.4105   21.9246 C   0  0  0  0  0  0
  -23.6252   -8.2140   22.0766 C   0  0  0  0  0  0
  -22.4244   -8.0201   21.3545 C   0  0  0  0  0  0
  -21.9847   -9.0165   20.4657 C   0  0  0  0  0  0
  -22.7145  -10.2052   20.3107 C   0  0  0  0  0  0
  -21.6807   -6.0698   22.5293 C   0  0  0  0  0  0
  -21.3941   -6.5609   23.8219 C   0  0  0  0  0  0
  -21.3636   -5.6776   24.9186 C   0  0  0  0  0  0
  -21.6064   -4.3045   24.7258 C   0  0  0  0  0  0
  -21.8835   -3.8129   23.4380 C   0  0  0  0  0  0
  -21.9193   -4.6933   22.3429 C   0  0  0  0  0  0
  -22.7707  -13.5095   21.1921 C   0  0  0  0  0  0
  -22.1671   -4.2125   21.1003 F   0  0  0  0  0  0
  -21.5662   -3.4529   25.7773 F   0  0  0  0  0  0
  -29.9149  -13.8476   20.2809 N   0  0  0  0  0  0
  -26.2784  -12.9050   20.3472 N   0  0  0  0  0  0
  -25.9169  -11.6253   20.5895 N   0  0  0  0  0  0
  -22.0274  -12.8150   22.0434 N   0  0  0  0  0  0
  -25.3970  -15.1642   20.4662 N   0  0  0  0  0  0
  -31.7630  -15.1036   20.3162 O   0  0  0  0  0  0
  -21.6587   -6.8822   21.4254 O   0  0  0  0  0  0
  -22.3479  -14.5411   20.6697 O   0  0  0  0  0  0
  -24.6458  -31.8418   23.1849 C   0  0  0  0  0  0
  -25.9197  -32.4709   23.8277 C   0  0  1  0  0  0
  -27.2401  -27.0966   20.1557 C   0  0  0  0  0  0
  -25.5924  -33.8521   24.2174 N   0  0  0  0  0  0
  -23.4553  -30.4559   21.5312 C   0  0  2  0  0  0
  -24.9152  -28.8772   20.1114 C   0  0  0  0  0  0
  -22.7599  -29.4511   22.4854 C   0  0  0  0  0  0
  -18.0316  -28.1394   22.8494 C   0  0  0  0  0  0
  -24.1488  -36.7261   23.2647 C   0  0  0  0  0  0
  -26.0167  -30.7001   21.3972 C   0  0  0  0  0  0
  -26.0927  -29.3072   20.7370 C   0  0  0  0  0  0
  -27.2513  -28.4334   20.7439 C   0  0  0  0  0  0
  -26.0347  -26.7875   19.4804 C   0  0  0  0  0  0
  -24.9016  -27.6321   19.4682 C   0  0  0  0  0  0
  -23.6891  -29.7792   20.1538 C   0  0  0  0  0  0
  -25.4122  -36.3050   24.0313 C   0  0  1  0  0  0
  -20.5937  -28.3713   23.1244 C   0  0  2  0  0  0
  -20.6790  -26.9411   22.5414 C   0  0  0  0  0  0
  -19.5752  -26.6366   21.5235 C   0  0  0  0  0  0
  -18.1936  -26.7932   22.1637 C   0  0  0  0  0  0
  -19.1577  -28.8877   23.2860 C   0  0  0  0  0  0
  -18.9486  -30.1476   23.8885 C   0  0  0  0  0  0
  -17.6477  -30.6594   24.0555 C   0  0  0  0  0  0
  -25.9069  -34.9427   23.5059 C   0  0  0  0  0  0
  -16.5372  -29.9080   23.6350 C   0  0  0  0  0  0
  -16.7295  -28.6499   23.0377 C   0  0  0  0  0  0
  -26.4501  -31.6615   25.0753 C   0  0  0  0  0  0
  -25.3635  -31.3844   26.1414 C   0  0  0  0  0  0
  -27.0389  -30.3014   24.6380 C   0  0  0  0  0  0
  -27.6029  -32.4399   25.7525 C   0  0  0  0  0  0
  -27.5571  -37.1782   24.8464 C   0  0  0  0  0  0
  -21.4283  -29.3025   22.3614 N   0  0  0  0  0  0
  -26.4285  -37.3752   23.9409 N   0  0  0  0  0  0
  -24.7254  -31.0226   22.0919 N   0  0  0  0  0  0
  -23.4242  -28.8050   23.2991 O   0  0  0  0  0  0
  -28.2807  -26.0770   20.2507 O   0  0  0  0  0  0
  -26.5662  -34.8910   22.4643 O   0  0  0  0  0  0
  -23.5563  -32.1321   23.7030 O   0  0  0  0  0  0
  -28.8599  -21.8561   19.6640 C   0  0  0  0  0  0
  -28.8196  -23.1580   20.2682 C   0  0  0  0  0  0
  -30.0166  -21.5934   21.4887 C   0  0  0  0  0  0
  -30.8627  -21.0564   22.5995 C   0  0  0  0  0  0
  -26.7166  -15.9033   16.9839 C   0  0  0  0  0  0
  -25.8070  -17.8902   18.2483 C   0  0  0  0  0  0
  -27.1790  -18.2230   16.2033 C   0  0  0  0  0  0
  -27.9951  -24.5650   19.9150 C   0  0  0  0  0  0
  -28.3021  -17.4619   18.3107 C   0  0  0  0  0  0
  -30.1391  -19.3768   20.0387 C   0  0  0  0  0  0
  -28.5941  -16.3132   19.3065 C   0  0  0  0  0  0
  -29.8787  -17.8612   20.8081 C   0  0  0  0  0  0
  -27.0093  -17.3430   17.4529 C   0  0  0  0  0  0
  -29.6082  -20.8817   20.4099 N   0  0  0  0  0  0
  -29.5747  -22.8900   21.3959 N   0  3  0  0  0  0
  -29.7954  -16.3815   20.1657 N   0  0  0  0  0  0
  -31.4563  -12.9039   19.1263 H   0  0  0  0  0  0
  -30.4864  -11.7876   20.0558 H   0  0  0  0  0  0
  -29.8629  -11.7347   17.5985 H   0  0  0  0  0  0
  -29.5327  -13.4463   17.6458 H   0  0  0  0  0  0
  -28.0099  -11.2153   19.0323 H   0  0  0  0  0  0
  -27.3805  -12.3307   17.8466 H   0  0  0  0  0  0
  -27.4457  -14.1113   19.3234 H   0  0  0  0  0  0
  -28.8432  -12.4784   21.5114 H   0  0  0  0  0  0
  -28.3359  -14.1473   21.6508 H   0  0  0  0  0  0
  -25.2697   -9.5585   22.4812 H   0  0  0  0  0  0
  -23.9969   -7.4517   22.7445 H   0  0  0  0  0  0
  -21.0794   -8.8694   19.8945 H   0  0  0  0  0  0
  -22.3637  -10.9622   19.6242 H   0  0  0  0  0  0
  -21.1840   -7.6102   23.9712 H   0  0  0  0  0  0
  -21.1442   -6.0491   25.9083 H   0  0  0  0  0  0
  -22.0630   -2.7595   23.2898 H   0  0  0  0  0  0
  -22.3819  -11.9823   22.4917 H   0  0  0  0  0  0
  -21.0852  -13.1184   22.2472 H   0  0  0  0  0  0
  -24.6150  -15.7946   20.6012 H   0  0  0  0  0  0
  -26.2281  -15.6296   20.1341 H   0  0  0  0  0  0
  -26.7252  -32.5317   23.0998 H   0  0  0  0  0  0
  -25.0068  -33.9651   25.0323 H   0  0  0  0  0  0
  -22.7572  -31.2802   21.3693 H   0  0  0  0  0  0
  -23.3772  -35.9572   23.3321 H   0  0  0  0  0  0
  -24.3567  -36.8896   22.2061 H   0  0  0  0  0  0
  -23.7208  -37.6438   23.6690 H   0  0  0  0  0  0
  -26.1773  -31.4501   20.6239 H   0  0  0  0  0  0
  -26.8846  -30.7565   22.0412 H   0  0  0  0  0  0
  -28.1437  -28.7530   21.2662 H   0  0  0  0  0  0
  -25.9241  -25.8406   18.9747 H   0  0  0  0  0  0
  -24.0046  -27.2983   18.9626 H   0  0  0  0  0  0
  -23.8177  -30.5510   19.3943 H   0  0  0  0  0  0
  -22.8071  -29.2141   19.8490 H   0  0  0  0  0  0
  -25.1306  -36.1890   25.0800 H   0  0  0  0  0  0
  -21.0032  -28.3295   24.1363 H   0  0  0  0  0  0
  -20.5708  -26.2308   23.3636 H   0  0  0  0  0  0
  -21.6643  -26.7400   22.1189 H   0  0  0  0  0  0
  -19.6898  -25.6270   21.1284 H   0  0  0  0  0  0
  -19.6701  -27.3165   20.6767 H   0  0  0  0  0  0
  -17.4208  -26.6726   21.4035 H   0  0  0  0  0  0
  -18.0294  -26.0081   22.9035 H   0  0  0  0  0  0
  -19.7962  -30.7299   24.2252 H   0  0  0  0  0  0
  -17.5028  -31.6278   24.5133 H   0  0  0  0  0  0
  -15.5372  -30.2960   23.7686 H   0  0  0  0  0  0
  -15.8702  -28.0796   22.7110 H   0  0  0  0  0  0
  -24.5792  -30.7235   25.7700 H   0  0  0  0  0  0
  -24.8840  -32.3052   26.4750 H   0  0  0  0  0  0
  -25.7839  -30.9037   27.0253 H   0  0  0  0  0  0
  -26.3045  -29.6729   24.1326 H   0  0  0  0  0  0
  -27.3935  -29.7327   25.4985 H   0  0  0  0  0  0
  -27.8974  -30.4286   23.9781 H   0  0  0  0  0  0
  -27.2631  -33.3731   26.2028 H   0  0  0  0  0  0
  -28.3858  -32.6911   25.0359 H   0  0  0  0  0  0
  -28.0673  -31.8574   26.5488 H   0  0  0  0  0  0
  -28.2574  -38.0087   24.7513 H   0  0  0  0  0  0
  -28.1066  -36.2612   24.6295 H   0  0  0  0  0  0
  -27.2289  -37.1441   25.8863 H   0  0  0  0  0  0
  -20.9503  -29.8744   21.6801 H   0  0  0  0  0  0
  -26.0173  -38.2825   24.1405 H   0  0  0  0  0  0
  -28.4044  -21.5631   18.7289 H   0  0  0  0  0  0
  -31.8712  -20.8804   22.2258 H   0  0  0  0  0  0
  -30.4208  -20.1254   22.9558 H   0  0  0  0  0  0
  -30.8896  -21.7838   23.4106 H   0  0  0  0  0  0
  -25.9152  -15.8804   16.2437 H   0  0  0  0  0  0
  -26.3879  -15.2686   17.8034 H   0  0  0  0  0  0
  -27.5914  -15.4364   16.5306 H   0  0  0  0  0  0
  -24.8682  -17.7312   17.7182 H   0  0  0  0  0  0
  -25.8959  -18.9630   18.4245 H   0  0  0  0  0  0
  -25.7103  -17.4224   19.2243 H   0  0  0  0  0  0
  -26.2860  -18.2095   15.5755 H   0  0  0  0  0  0
  -28.0151  -17.8805   15.5915 H   0  0  0  0  0  0
  -27.3706  -19.2630   16.4706 H   0  0  0  0  0  0
  -27.0086  -24.3810   20.3385 H   0  0  0  0  0  0
  -27.8423  -24.5412   18.8358 H   0  0  0  0  0  0
  -29.1713  -17.5618   17.6565 H   0  0  0  0  0  0
  -28.1756  -18.3989   18.8408 H   0  0  0  0  0  0
  -30.0242  -19.3000   18.9632 H   0  0  0  0  0  0
  -31.2219  -19.4876   20.1043 H   0  0  0  0  0  0
  -28.7317  -15.4655   18.6451 H   0  0  0  0  0  0
  -27.7406  -16.1660   19.9605 H   0  0  0  0  0  0
  -28.9347  -17.9705   21.3435 H   0  0  0  0  0  0
  -30.6147  -17.7826   21.6092 H   0  0  0  0  0  0
  -29.7776  -23.5983   22.0911 H   0  0  0  0  0  0
  1 25  1  0  0  0
  1 30  2  0  0  0
  1 86  1  0  0  0
  2  3  1  0  0  0
  2 25  1  0  0  0
  2 87  1  0  0  0
  2 88  1  0  0  0
  3  4  1  0  0  0
  3 89  1  0  0  0
  3 90  1  0  0  0
  4  5  1  0  0  0
  4 91  1  0  0  0
  4 92  1  0  0  0
  5  6  1  0  0  0
  5 26  1  0  0  0
  5 93  1  0  0  0
  6 25  1  0  0  0
  6 94  1  0  0  0
  6 95  1  0  0  0
  7  8  2  0  0  0
  7 26  1  0  0  0
  7 29  1  0  0  0
  8  9  1  0  0  0
  8 22  1  0  0  0
  9 10  1  0  0  0
  9 27  2  0  0  0
 10 11  2  0  0  0
 10 15  1  0  0  0
 11 12  1  0  0  0
 11 96  1  0  0  0
 12 13  2  0  0  0
 12 97  1  0  0  0
 13 14  1  0  0  0
 13 31  1  0  0  0
 14 15  2  0  0  0
 14 98  1  0  0  0
 15 99  1  0  0  0
 16 17  2  0  0  0
 16 21  1  0  0  0
 16 31  1  0  0  0
 17 18  1  0  0  0
 17100  1  0  0  0
 18 19  2  0  0  0
 18101  1  0  0  0
 19 20  1  0  0  0
 19 24  1  0  0  0
 20 21  2  0  0  0
 20102  1  0  0  0
 21 23  1  0  0  0
 22 28  1  0  0  0
 22 32  2  0  0  0
 26 27  1  0  0  0
 28103  1  0  0  0
 28104  1  0  0  0
 29105  1  0  0  0
 29106  1  0  0  0
 33 34  1  0  0  0
 33 66  1  0  0  0
 33 70  2  0  0  0
 34 36  1  0  0  0
 34 59  1  0  0  0
 34107  1  0  0  0
 35 44  2  0  0  0
 35 45  1  0  0  0
 35 68  1  0  0  0
 36 56  1  0  0  0
 36108  1  0  0  0
 37 39  1  0  0  0
 37 47  1  0  0  0
 37 66  1  0  0  0
 37109  1  0  0  0
 38 43  2  0  0  0
 38 46  1  0  0  0
 38 47  1  0  0  0
 39 64  1  0  0  0
 39 67  2  0  0  0
 40 52  1  0  0  0
 40 53  2  0  0  0
 40 58  1  0  0  0
 41110  1  0  0  0
 41111  1  0  0  0
 41112  1  0  0  0
 41 48  1  0  0  0
 42 43  1  0  0  0
 42 66  1  0  0  0
 42113  1  0  0  0
 42114  1  0  0  0
 43 44  1  0  0  0
 44115  1  0  0  0
 45 46  2  0  0  0
 45116  1  0  0  0
 46117  1  0  0  0
 47118  1  0  0  0
 47119  1  0  0  0
 48 56  1  0  0  0
 48 65  1  0  0  0
 48120  1  0  0  0
 49 50  1  0  0  0
 49 53  1  0  0  0
 49 64  1  0  0  0
 49121  1  0  0  0
 50 51  1  0  0  0
 50122  1  0  0  0
 50123  1  0  0  0
 51 52  1  0  0  0
 51124  1  0  0  0
 51125  1  0  0  0
 52126  1  0  0  0
 52127  1  0  0  0
 53 54  1  0  0  0
 54 55  2  0  0  0
 54128  1  0  0  0
 55 57  1  0  0  0
 55129  1  0  0  0
 56 69  2  0  0  0
 57 58  2  0  0  0
 57130  1  0  0  0
 58131  1  0  0  0
 59 60  1  0  0  0
 59 61  1  0  0  0
 59 62  1  0  0  0
 60132  1  0  0  0
 60133  1  0  0  0
 60134  1  0  0  0
 61135  1  0  0  0
 61136  1  0  0  0
 61137  1  0  0  0
 62138  1  0  0  0
 62139  1  0  0  0
 62140  1  0  0  0
 63 65  1  0  0  0
 63141  1  0  0  0
 63142  1  0  0  0
 63143  1  0  0  0
 64144  1  0  0  0
 65145  1  0  0  0
 68 78  1  0  0  0
 71 72  2  0  0  0
 71 84  1  0  0  0
 71146  1  0  0  0
 72 78  1  0  0  0
 72 85  1  0  0  0
 73 74  1  0  0  0
 73 84  1  0  0  0
 73 85  2  0  0  0
 74147  1  0  0  0
 74148  1  0  0  0
 74149  1  0  0  0
 75150  1  0  0  0
 75151  1  0  0  0
 75152  1  0  0  0
 75 83  1  0  0  0
 76 83  1  0  0  0
 76153  1  0  0  0
 76154  1  0  0  0
 76155  1  0  0  0
 77 83  1  0  0  0
 77156  1  0  0  0
 77157  1  0  0  0
 77158  1  0  0  0
 78159  1  0  0  0
 78160  1  0  0  0
 79 81  1  0  0  0
 79 83  1  0  0  0
 79161  1  0  0  0
 79162  1  0  0  0
 80 82  1  0  0  0
 80 84  1  0  0  0
 80163  1  0  0  0
 80164  1  0  0  0
 81 86  1  0  0  0
 81165  1  0  0  0
 81166  1  0  0  0
 82 86  1  0  0  0
 82167  1  0  0  0
 82168  1  0  0  0
 85169  1  0  0  0
M  CHG  1  85   1
M  ISO  4   1 100  68 101  78 101  86 100
M  END
> <chiral flag>
0

> <version>
0

> <s_m_source_file>
/data/baiqing/PycharmProjects/Reinvent-master-3.2/result/LINK_invent/BTK/process_docking_weight1_custom_sum_contain_oxygen_bond_distance_aromatic_linkinvent_7_9_3/rearranged_h_0048.sdf

> <i_m_source_file_index>
64

> <r_mmod_Potential_Energy-OPLS-2005>
865.566040039062

> <r_mmod_Stretch_Energy-OPLS-2005>
337.431427001953

> <r_mmod_Bend_Energy-OPLS-2005>
344.047515869141

> <r_mmod_Torsional_Energy-OPLS-2005>
343.528228759766

> <r_mmod_Improper_Torsional_Energy-OPLS-2005>
7.80348920822144

> <r_mmod_Van_der_Waal_Energy-OPLS-2005>
128.294235229492

> <r_mmod_Electrostatic_Energy-OPLS-2005>
-185.551986694336

> <r_mmod_Solvation_Energy-OPLS-2005>
-405.973327636719

> <b_mmod_Minimization_Converged-OPLS-2005>
0

> <r_mmod_RMS_Derivative-OPLS-2005>
3.39560842514038

$$$$
65
                    3D
 Structure written by MMmdl.
156164  0  0  1  0            999 V2000
  -30.6791  -14.4863   20.5258 C   0  0  0  0  0  0
  -30.4265  -12.2947   19.4365 C   0  0  0  0  0  0
  -29.5028  -12.4956   18.2162 C   0  0  0  0  0  0
  -28.0210  -12.3585   18.6210 C   0  0  0  0  0  0
  -27.6630  -13.2026   19.8740 C   0  0  2  0  0  0
  -28.7041  -12.9905   21.0001 C   0  0  0  0  0  0
  -25.2600  -13.8155   20.5664 C   0  0  0  0  0  0
  -24.1847  -13.0437   20.9164 C   0  0  0  0  0  0
  -24.6401  -11.6903   20.8723 C   0  0  0  0  0  0
  -23.9064  -10.4294   21.0401 C   0  0  0  0  0  0
  -24.3617   -9.4209   21.9176 C   0  0  0  0  0  0
  -23.6303   -8.2242   22.0751 C   0  0  0  0  0  0
  -22.4281   -8.0276   21.3538 C   0  0  0  0  0  0
  -21.9909   -9.0253   20.4640 C   0  0  0  0  0  0
  -22.7241  -10.2138   20.3052 C   0  0  0  0  0  0
  -21.6852   -6.0737   22.5285 C   0  0  0  0  0  0
  -21.4008   -6.5644   23.8216 C   0  0  0  0  0  0
  -21.3653   -5.6797   24.9180 C   0  0  0  0  0  0
  -21.6049   -4.3060   24.7231 C   0  0  0  0  0  0
  -21.8818   -3.8148   23.4348 C   0  0  0  0  0  0
  -21.9189   -4.6965   22.3406 C   0  0  0  0  0  0
  -22.7868  -13.5239   21.1830 C   0  0  0  0  0  0
  -22.1660   -4.2154   21.0983 F   0  0  0  0  0  0
  -21.5634   -3.4541   25.7740 F   0  0  0  0  0  0
  -30.0396  -13.2861   20.4531 N   0  0  0  0  0  0
  -26.3033  -12.9313   20.3345 N   0  0  0  0  0  0
  -25.9321  -11.6475   20.5747 N   0  0  0  0  0  0
  -22.0505  -12.8241   22.0385 N   0  0  0  0  0  0
  -25.4342  -15.1872   20.4079 N   0  0  0  0  0  0
  -31.8156  -14.6712   20.0831 O   0  0  0  0  0  0
  -21.6637   -6.8880   21.4243 O   0  0  0  0  0  0
  -22.3557  -14.5542   20.6669 O   0  0  0  0  0  0
  -24.6165  -31.8666   23.2076 C   0  0  0  0  0  0
  -25.9046  -32.4817   23.8382 C   0  0  1  0  0  0
  -27.2267  -27.4170   20.1120 C   0  0  0  0  0  0
  -25.5894  -33.8618   24.2313 N   0  0  0  0  0  0
  -23.4046  -30.4898   21.5484 C   0  0  2  0  0  0
  -24.8510  -28.9529   20.1126 C   0  0  0  0  0  0
  -22.7422  -29.4655   22.4975 C   0  0  0  0  0  0
  -18.0280  -28.1392   22.8504 C   0  0  0  0  0  0
  -24.1484  -36.7312   23.2636 C   0  0  0  0  0  0
  -25.9348  -30.8282   21.3615 C   0  0  0  0  0  0
  -26.0119  -29.4612   20.7103 C   0  0  0  0  0  0
  -27.2067  -28.7030   20.7028 C   0  0  0  0  0  0
  -26.0551  -26.9291   19.4971 C   0  0  0  0  0  0
  -24.8685  -27.6876   19.4992 C   0  0  0  0  0  0
  -23.6129  -29.8211   20.1622 C   0  0  0  0  0  0
  -25.4108  -36.3106   24.0332 C   0  0  1  0  0  0
  -20.5870  -28.3669   23.1323 C   0  0  2  0  0  0
  -20.6770  -26.9403   22.5423 C   0  0  0  0  0  0
  -19.5747  -26.6390   21.5225 C   0  0  0  0  0  0
  -18.1923  -26.7937   22.1633 C   0  0  0  0  0  0
  -19.1529  -28.8850   23.2909 C   0  0  0  0  0  0
  -18.9453  -30.1457   23.8914 C   0  0  0  0  0  0
  -17.6454  -30.6594   24.0572 C   0  0  0  0  0  0
  -25.9039  -34.9474   23.5124 C   0  0  0  0  0  0
  -16.5347  -29.9099   23.6330 C   0  0  0  0  0  0
  -16.7269  -28.6517   23.0351 C   0  0  0  0  0  0
  -26.4464  -31.6607   25.0724 C   0  0  0  0  0  0
  -25.3723  -31.3746   26.1472 C   0  0  0  0  0  0
  -27.0290  -30.3044   24.6109 C   0  0  0  0  0  0
  -27.6050  -32.4326   25.7482 C   0  0  0  0  0  0
  -27.5582  -37.1806   24.8459 C   0  0  0  0  0  0
  -21.4143  -29.3038   22.3727 N   0  0  0  0  0  0
  -26.4295  -37.3789   23.9404 N   0  0  0  0  0  0
  -24.6703  -31.0761   22.0975 N   0  0  0  0  0  0
  -23.4187  -28.8196   23.3021 O   0  0  0  0  0  0
  -28.3706  -26.6454   20.1228 O   0  0  0  0  0  0
  -26.5595  -34.8925   22.4681 O   0  0  0  0  0  0
  -23.5348  -32.1426   23.7463 O   0  0  0  0  0  0
  -29.4457  -20.5408   20.9344 C   0  0  0  0  0  0
  -30.0827  -19.4314   20.3333 C   0  0  0  0  0  0
  -29.3611  -21.7298   20.1871 C   0  0  0  0  0  0
  -30.4327  -20.6991   18.4518 C   0  0  0  0  0  0
  -30.9341  -20.7814   17.0264 C   0  0  0  0  0  0
  -30.2888  -18.0794   21.0508 C   0  0  0  0  0  0
  -29.9045  -16.8444   20.1877 C   0  0  0  0  0  0
  -28.8198  -24.1795   19.9834 C   0  0  0  0  0  0
  -28.2495  -25.3728   20.7977 C   0  0  0  0  0  0
  -30.5931  -19.5424   19.0897 N   0  0  0  0  0  0
  -29.8476  -21.7894   18.9391 N   0  0  0  0  0  0
  -28.7731  -22.8954   20.7072 N   0  0  0  0  0  0
  -29.8891  -15.5244   20.8636 N   0  0  0  0  0  0
  -31.4727  -12.3841   19.1400 H   0  0  0  0  0  0
  -30.3186  -11.2851   19.8368 H   0  0  0  0  0  0
  -29.7478  -11.7726   17.4371 H   0  0  0  0  0  0
  -29.6746  -13.4820   17.7829 H   0  0  0  0  0  0
  -27.8289  -11.3030   18.8202 H   0  0  0  0  0  0
  -27.3757  -12.6306   17.7846 H   0  0  0  0  0  0
  -27.7043  -14.2478   19.5667 H   0  0  0  0  0  0
  -28.6732  -11.9585   21.3545 H   0  0  0  0  0  0
  -28.4708  -13.6054   21.8697 H   0  0  0  0  0  0
  -25.2765   -9.5695   22.4742 H   0  0  0  0  0  0
  -24.0018   -7.4634   22.7473 H   0  0  0  0  0  0
  -21.0839   -8.8773   19.8948 H   0  0  0  0  0  0
  -22.3696  -10.9674   19.6159 H   0  0  0  0  0  0
  -21.1995   -7.6151   23.9728 H   0  0  0  0  0  0
  -21.1479   -6.0520   25.9086 H   0  0  0  0  0  0
  -22.0599   -2.7611   23.2848 H   0  0  0  0  0  0
  -22.4107  -11.9914   22.4806 H   0  0  0  0  0  0
  -21.1115  -13.1272   22.2564 H   0  0  0  0  0  0
  -24.6701  -15.8455   20.5140 H   0  0  0  0  0  0
  -26.2895  -15.6230   20.0868 H   0  0  0  0  0  0
  -26.7123  -32.5522   23.1150 H   0  0  0  0  0  0
  -25.0066  -33.9781   25.0469 H   0  0  0  0  0  0
  -22.6945  -31.3075   21.4092 H   0  0  0  0  0  0
  -23.3743  -35.9646   23.3301 H   0  0  0  0  0  0
  -24.3590  -36.8922   22.2050 H   0  0  0  0  0  0
  -23.7238  -37.6520   23.6652 H   0  0  0  0  0  0
  -26.0490  -31.5931   20.5916 H   0  0  0  0  0  0
  -26.8218  -30.8833   21.9803 H   0  0  0  0  0  0
  -28.1025  -29.0899   21.1696 H   0  0  0  0  0  0
  -26.0571  -25.9589   19.0198 H   0  0  0  0  0  0
  -23.9790  -27.2953   19.0270 H   0  0  0  0  0  0
  -23.7170  -30.5957   19.4014 H   0  0  0  0  0  0
  -22.7378  -29.2379   19.8702 H   0  0  0  0  0  0
  -25.1285  -36.1961   25.0824 H   0  0  0  0  0  0
  -20.9978  -28.3230   24.1438 H   0  0  0  0  0  0
  -20.5686  -26.2270   23.3607 H   0  0  0  0  0  0
  -21.6637  -26.7457   22.1200 H   0  0  0  0  0  0
  -19.6891  -25.6300   21.1254 H   0  0  0  0  0  0
  -19.6686  -27.3206   20.6758 H   0  0  0  0  0  0
  -17.4195  -26.6700   21.4034 H   0  0  0  0  0  0
  -18.0312  -26.0087   22.9038 H   0  0  0  0  0  0
  -19.7928  -30.7277   24.2278 H   0  0  0  0  0  0
  -17.5010  -31.6274   24.5174 H   0  0  0  0  0  0
  -15.5347  -30.3001   23.7649 H   0  0  0  0  0  0
  -15.8672  -28.0846   22.7039 H   0  0  0  0  0  0
  -24.5839  -30.7164   25.7800 H   0  0  0  0  0  0
  -24.8986  -32.2931   26.4957 H   0  0  0  0  0  0
  -25.8048  -30.8862   27.0212 H   0  0  0  0  0  0
  -26.2839  -29.6822   24.1134 H   0  0  0  0  0  0
  -27.4027  -29.7265   25.4573 H   0  0  0  0  0  0
  -27.8692  -30.4370   23.9287 H   0  0  0  0  0  0
  -27.2674  -33.3615   26.2094 H   0  0  0  0  0  0
  -28.3836  -32.6901   25.0290 H   0  0  0  0  0  0
  -28.0743  -31.8428   26.5364 H   0  0  0  0  0  0
  -28.2593  -38.0111   24.7515 H   0  0  0  0  0  0
  -28.1082  -36.2641   24.6269 H   0  0  0  0  0  0
  -27.2308  -37.1438   25.8865 H   0  0  0  0  0  0
  -20.9288  -29.8768   21.6963 H   0  0  0  0  0  0
  -26.0176  -38.2863   24.1409 H   0  0  0  0  0  0
  -29.0519  -20.4721   21.9395 H   0  0  0  0  0  0
  -31.5907  -19.9457   16.7832 H   0  0  0  0  0  0
  -31.4874  -21.7060   16.8639 H   0  0  0  0  0  0
  -30.0956  -20.7637   16.3304 H   0  0  0  0  0  0
  -29.7003  -18.0769   21.9677 H   0  0  0  0  0  0
  -31.3325  -18.0041   21.3583 H   0  0  0  0  0  0
  -30.5544  -16.8097   19.3112 H   0  0  0  0  0  0
  -28.9006  -17.0019   19.7941 H   0  0  0  0  0  0
  -29.8547  -24.3912   19.7082 H   0  0  0  0  0  0
  -28.2609  -24.0807   19.0526 H   0  0  0  0  0  0
  -28.7974  -25.4595   21.7362 H   0  0  0  0  0  0
  -27.2189  -25.1542   21.0848 H   0  0  0  0  0  0
  -28.4337  -22.8835   21.6628 H   0  0  0  0  0  0
  -29.0095  -15.2601   21.2825 H   0  0  0  0  0  0
  1 25  1  0  0  0
  1 30  2  0  0  0
  1 83  1  0  0  0
  2  3  1  0  0  0
  2 25  1  0  0  0
  2 84  1  0  0  0
  2 85  1  0  0  0
  3  4  1  0  0  0
  3 86  1  0  0  0
  3 87  1  0  0  0
  4  5  1  0  0  0
  4 88  1  0  0  0
  4 89  1  0  0  0
  5  6  1  0  0  0
  5 26  1  0  0  0
  5 90  1  0  0  0
  6 25  1  0  0  0
  6 91  1  0  0  0
  6 92  1  0  0  0
  7  8  2  0  0  0
  7 26  1  0  0  0
  7 29  1  0  0  0
  8  9  1  0  0  0
  8 22  1  0  0  0
  9 10  1  0  0  0
  9 27  2  0  0  0
 10 11  2  0  0  0
 10 15  1  0  0  0
 11 12  1  0  0  0
 11 93  1  0  0  0
 12 13  2  0  0  0
 12 94  1  0  0  0
 13 14  1  0  0  0
 13 31  1  0  0  0
 14 15  2  0  0  0
 14 95  1  0  0  0
 15 96  1  0  0  0
 16 17  2  0  0  0
 16 21  1  0  0  0
 16 31  1  0  0  0
 17 18  1  0  0  0
 17 97  1  0  0  0
 18 19  2  0  0  0
 18 98  1  0  0  0
 19 20  1  0  0  0
 19 24  1  0  0  0
 20 21  2  0  0  0
 20 99  1  0  0  0
 21 23  1  0  0  0
 22 28  1  0  0  0
 22 32  2  0  0  0
 26 27  1  0  0  0
 28100  1  0  0  0
 28101  1  0  0  0
 29102  1  0  0  0
 29103  1  0  0  0
 33 34  1  0  0  0
 33 66  1  0  0  0
 33 70  2  0  0  0
 34 36  1  0  0  0
 34 59  1  0  0  0
 34104  1  0  0  0
 35 44  2  0  0  0
 35 45  1  0  0  0
 35 68  1  0  0  0
 36 56  1  0  0  0
 36105  1  0  0  0
 37 39  1  0  0  0
 37 47  1  0  0  0
 37 66  1  0  0  0
 37106  1  0  0  0
 38 43  2  0  0  0
 38 46  1  0  0  0
 38 47  1  0  0  0
 39 64  1  0  0  0
 39 67  2  0  0  0
 40 52  1  0  0  0
 40 53  2  0  0  0
 40 58  1  0  0  0
 41107  1  0  0  0
 41108  1  0  0  0
 41109  1  0  0  0
 41 48  1  0  0  0
 42 43  1  0  0  0
 42 66  1  0  0  0
 42110  1  0  0  0
 42111  1  0  0  0
 43 44  1  0  0  0
 44112  1  0  0  0
 45 46  2  0  0  0
 45113  1  0  0  0
 46114  1  0  0  0
 47115  1  0  0  0
 47116  1  0  0  0
 48 56  1  0  0  0
 48 65  1  0  0  0
 48117  1  0  0  0
 49 50  1  0  0  0
 49 53  1  0  0  0
 49 64  1  0  0  0
 49118  1  0  0  0
 50 51  1  0  0  0
 50119  1  0  0  0
 50120  1  0  0  0
 51 52  1  0  0  0
 51121  1  0  0  0
 51122  1  0  0  0
 52123  1  0  0  0
 52124  1  0  0  0
 53 54  1  0  0  0
 54 55  2  0  0  0
 54125  1  0  0  0
 55 57  1  0  0  0
 55126  1  0  0  0
 56 69  2  0  0  0
 57 58  2  0  0  0
 57127  1  0  0  0
 58128  1  0  0  0
 59 60  1  0  0  0
 59 61  1  0  0  0
 59 62  1  0  0  0
 60129  1  0  0  0
 60130  1  0  0  0
 60131  1  0  0  0
 61132  1  0  0  0
 61133  1  0  0  0
 61134  1  0  0  0
 62135  1  0  0  0
 62136  1  0  0  0
 62137  1  0  0  0
 63 65  1  0  0  0
 63138  1  0  0  0
 63139  1  0  0  0
 63140  1  0  0  0
 64141  1  0  0  0
 65142  1  0  0  0
 68 79  1  0  0  0
 71 72  2  0  0  0
 71 73  1  0  0  0
 71143  1  0  0  0
 72 76  1  0  0  0
 72 80  1  0  0  0
 73 81  2  0  0  0
 73 82  1  0  0  0
 74 75  1  0  0  0
 74 80  2  0  0  0
 74 81  1  0  0  0
 75144  1  0  0  0
 75145  1  0  0  0
 75146  1  0  0  0
 76 77  1  0  0  0
 76147  1  0  0  0
 76148  1  0  0  0
 77 83  1  0  0  0
 77149  1  0  0  0
 77150  1  0  0  0
 78 79  1  0  0  0
 78 82  1  0  0  0
 78151  1  0  0  0
 78152  1  0  0  0
 79153  1  0  0  0
 79154  1  0  0  0
 82155  1  0  0  0
 83156  1  0  0  0
M  ISO  4   1 100  68 101  79 101  83 100
M  END
> <chiral flag>
0

> <version>
0

> <s_m_source_file>
/data/baiqing/PycharmProjects/Reinvent-master-3.2/result/LINK_invent/BTK/process_docking_weight1_custom_sum_contain_oxygen_bond_distance_aromatic_linkinvent_7_9_3/rearranged_h_0048.sdf

> <i_m_source_file_index>
65

> <r_mmod_Potential_Energy-OPLS-2005>
-581.712097167969

> <r_mmod_Stretch_Energy-OPLS-2005>
39.338264465332

> <r_mmod_Bend_Energy-OPLS-2005>
105.200714111328

> <r_mmod_Torsional_Energy-OPLS-2005>
218.169509887695

> <r_mmod_Improper_Torsional_Energy-OPLS-2005>
8.61593723297119

> <r_mmod_Van_der_Waal_Energy-OPLS-2005>
160.5693359375

> <r_mmod_Electrostatic_Energy-OPLS-2005>
-877.771179199219

> <r_mmod_Solvation_Energy-OPLS-2005>
-251.773468017578

> <b_mmod_Minimization_Converged-OPLS-2005>
0

> <r_mmod_RMS_Derivative-OPLS-2005>
1.93726813793182

$$$$
66
                    3D
 Structure written by MMmdl.
153161  0  0  1  0            999 V2000
  -30.6273  -14.5830   20.5001 C   0  0  0  0  0  0
  -30.4291  -12.3610   19.4256 C   0  0  0  0  0  0
  -29.4898  -12.4993   18.2078 C   0  0  0  0  0  0
  -28.0153  -12.3417   18.6264 C   0  0  0  0  0  0
  -27.6506  -13.2028   19.8634 C   0  0  2  0  0  0
  -28.6979  -13.0267   20.9847 C   0  0  0  0  0  0
  -25.2557  -13.8132   20.5682 C   0  0  0  0  0  0
  -24.1803  -13.0418   20.9193 C   0  0  0  0  0  0
  -24.6350  -11.6896   20.8733 C   0  0  0  0  0  0
  -23.9020  -10.4282   21.0427 C   0  0  0  0  0  0
  -24.3586   -9.4204   21.9195 C   0  0  0  0  0  0
  -23.6276   -8.2234   22.0759 C   0  0  0  0  0  0
  -22.4272   -8.0266   21.3546 C   0  0  0  0  0  0
  -21.9887   -9.0229   20.4654 C   0  0  0  0  0  0
  -22.7195  -10.2117   20.3071 C   0  0  0  0  0  0
  -21.6841   -6.0714   22.5274 C   0  0  0  0  0  0
  -21.4020   -6.5629   23.8214 C   0  0  0  0  0  0
  -21.3663   -5.6790   24.9173 C   0  0  0  0  0  0
  -21.6047   -4.3046   24.7229 C   0  0  0  0  0  0
  -21.8828   -3.8140   23.4352 C   0  0  0  0  0  0
  -21.9202   -4.6947   22.3409 C   0  0  0  0  0  0
  -22.7836  -13.5233   21.1866 C   0  0  0  0  0  0
  -22.1666   -4.2131   21.0981 F   0  0  0  0  0  0
  -21.5625   -3.4542   25.7740 F   0  0  0  0  0  0
  -30.0118  -13.3658   20.4164 N   0  0  0  0  0  0
  -26.2967  -12.9288   20.3328 N   0  0  0  0  0  0
  -25.9277  -11.6460   20.5755 N   0  0  0  0  0  0
  -22.0494  -12.8199   22.0425 N   0  0  0  0  0  0
  -25.4320  -15.1843   20.4056 N   0  0  0  0  0  0
  -31.7968  -14.7568   20.1524 O   0  0  0  0  0  0
  -21.6647   -6.8848   21.4236 O   0  0  0  0  0  0
  -22.3535  -14.5557   20.6749 O   0  0  0  0  0  0
  -24.6204  -31.8598   23.2055 C   0  0  0  0  0  0
  -25.9074  -32.4772   23.8337 C   0  0  1  0  0  0
  -27.2385  -27.3706   20.1322 C   0  0  0  0  0  0
  -25.5882  -33.8568   24.2239 N   0  0  0  0  0  0
  -23.4156  -30.4835   21.5437 C   0  0  2  0  0  0
  -24.8661  -28.9447   20.1170 C   0  0  0  0  0  0
  -22.7442  -29.4631   22.4917 C   0  0  0  0  0  0
  -18.0291  -28.1371   22.8495 C   0  0  0  0  0  0
  -24.1474  -36.7304   23.2642 C   0  0  0  0  0  0
  -25.9494  -30.8140   21.3674 C   0  0  0  0  0  0
  -26.0308  -29.4436   20.7147 C   0  0  0  0  0  0
  -27.2208  -28.6675   20.7121 C   0  0  0  0  0  0
  -26.0511  -26.9040   19.5210 C   0  0  0  0  0  0
  -24.8744  -27.6755   19.5174 C   0  0  0  0  0  0
  -23.6307  -29.8159   20.1591 C   0  0  0  0  0  0
  -25.4106  -36.3068   24.0316 C   0  0  1  0  0  0
  -20.5899  -28.3674   23.1283 C   0  0  2  0  0  0
  -20.6791  -26.9391   22.5435 C   0  0  0  0  0  0
  -19.5767  -26.6370   21.5236 C   0  0  0  0  0  0
  -18.1941  -26.7926   22.1622 C   0  0  0  0  0  0
  -19.1546  -28.8837   23.2891 C   0  0  0  0  0  0
  -18.9466  -30.1449   23.8892 C   0  0  0  0  0  0
  -17.6464  -30.6581   24.0573 C   0  0  0  0  0  0
  -25.9049  -34.9441   23.5080 C   0  0  0  0  0  0
  -16.5360  -29.9088   23.6324 C   0  0  0  0  0  0
  -16.7291  -28.6510   23.0335 C   0  0  0  0  0  0
  -26.4475  -31.6576   25.0688 C   0  0  0  0  0  0
  -25.3708  -31.3725   26.1423 C   0  0  0  0  0  0
  -27.0321  -30.2992   24.6136 C   0  0  0  0  0  0
  -27.6018  -32.4344   25.7448 C   0  0  0  0  0  0
  -27.5572  -37.1806   24.8461 C   0  0  0  0  0  0
  -21.4154  -29.3034   22.3643 N   0  0  0  0  0  0
  -26.4278  -37.3765   23.9414 N   0  0  0  0  0  0
  -24.6807  -31.0651   22.0988 N   0  0  0  0  0  0
  -23.4183  -28.8163   23.2984 O   0  0  0  0  0  0
  -28.3800  -26.5744   20.1729 O   0  0  0  0  0  0
  -26.5599  -34.8895   22.4641 O   0  0  0  0  0  0
  -23.5379  -32.1361   23.7436 O   0  0  0  0  0  0
  -29.6330  -20.3926   20.9475 C   0  0  0  0  0  0
  -28.4250  -21.5026   19.5306 C   0  0  0  0  0  0
  -29.1256  -19.4912   20.0192 C   0  0  0  0  0  0
  -29.2110  -17.9581   19.8490 C   0  0  0  0  0  0
  -29.4966  -24.3377   20.6855 C   0  0  0  0  0  0
  -29.4089  -22.9299   21.4053 C   0  0  0  0  0  0
  -30.0719  -17.0972   20.8463 C   0  0  0  0  0  0
  -28.1816  -25.1524   20.4509 C   0  0  0  0  0  0
  -28.3622  -20.2357   19.1130 N   0  0  0  0  0  0
  -29.1809  -21.6891   20.6227 N   0  0  0  0  0  0
  -29.8029  -15.6238   20.7903 N   0  0  0  0  0  0
  -31.4699  -12.4853   19.1226 H   0  0  0  0  0  0
  -30.3569  -11.3592   19.8528 H   0  0  0  0  0  0
  -29.7412  -11.7524   17.4535 H   0  0  0  0  0  0
  -29.6293  -13.4742   17.7367 H   0  0  0  0  0  0
  -27.8420  -11.2869   18.8418 H   0  0  0  0  0  0
  -27.3568  -12.5869   17.7931 H   0  0  0  0  0  0
  -27.6788  -14.2421   19.5377 H   0  0  0  0  0  0
  -28.6982  -11.9964   21.3482 H   0  0  0  0  0  0
  -28.4537  -13.6429   21.8515 H   0  0  0  0  0  0
  -25.2738   -9.5682   22.4752 H   0  0  0  0  0  0
  -24.0005   -7.4624   22.7470 H   0  0  0  0  0  0
  -21.0829   -8.8737   19.8943 H   0  0  0  0  0  0
  -22.3671  -10.9646   19.6176 H   0  0  0  0  0  0
  -21.2020   -7.6141   23.9698 H   0  0  0  0  0  0
  -21.1469   -6.0526   25.9069 H   0  0  0  0  0  0
  -22.0606   -2.7601   23.2864 H   0  0  0  0  0  0
  -22.4146  -11.9840   22.4748 H   0  0  0  0  0  0
  -21.1132  -13.1199   22.2697 H   0  0  0  0  0  0
  -24.6657  -15.8400   20.5121 H   0  0  0  0  0  0
  -26.2737  -15.6137   20.0427 H   0  0  0  0  0  0
  -26.7137  -32.5468   23.1095 H   0  0  0  0  0  0
  -25.0018  -33.9693   25.0365 H   0  0  0  0  0  0
  -22.7113  -31.3028   21.3979 H   0  0  0  0  0  0
  -23.3684  -35.9677   23.3317 H   0  0  0  0  0  0
  -24.3574  -36.8922   22.2058 H   0  0  0  0  0  0
  -23.7274  -37.6531   23.6652 H   0  0  0  0  0  0
  -26.0694  -31.5769   20.5969 H   0  0  0  0  0  0
  -26.8322  -30.8679   21.9922 H   0  0  0  0  0  0
  -28.1181  -29.0438   21.1865 H   0  0  0  0  0  0
  -26.0070  -25.9382   19.0429 H   0  0  0  0  0  0
  -23.9801  -27.2780   19.0589 H   0  0  0  0  0  0
  -23.7516  -30.5862   19.3991 H   0  0  0  0  0  0
  -22.7515  -29.2438   19.8562 H   0  0  0  0  0  0
  -25.1305  -36.1944   25.0802 H   0  0  0  0  0  0
  -21.0020  -28.3272   24.1391 H   0  0  0  0  0  0
  -20.5733  -26.2265   23.3638 H   0  0  0  0  0  0
  -21.6650  -26.7468   22.1193 H   0  0  0  0  0  0
  -19.6913  -25.6287   21.1244 H   0  0  0  0  0  0
  -19.6680  -27.3179   20.6763 H   0  0  0  0  0  0
  -17.4219  -26.6675   21.4009 H   0  0  0  0  0  0
  -18.0324  -26.0060   22.8998 H   0  0  0  0  0  0
  -19.7954  -30.7260   24.2242 H   0  0  0  0  0  0
  -17.5046  -31.6274   24.5155 H   0  0  0  0  0  0
  -15.5375  -30.2987   23.7667 H   0  0  0  0  0  0
  -15.8692  -28.0864   22.7009 H   0  0  0  0  0  0
  -24.5885  -30.7064   25.7763 H   0  0  0  0  0  0
  -24.8876  -32.2898   26.4788 H   0  0  0  0  0  0
  -25.8028  -30.8956   27.0233 H   0  0  0  0  0  0
  -26.2899  -29.6721   24.1181 H   0  0  0  0  0  0
  -27.4033  -29.7274   25.4647 H   0  0  0  0  0  0
  -27.8732  -30.4262   23.9328 H   0  0  0  0  0  0
  -27.2606  -33.3653   26.1977 H   0  0  0  0  0  0
  -28.3828  -32.6904   25.0284 H   0  0  0  0  0  0
  -28.0657  -31.8517   26.5410 H   0  0  0  0  0  0
  -28.2591  -38.0104   24.7524 H   0  0  0  0  0  0
  -28.1065  -36.2637   24.6275 H   0  0  0  0  0  0
  -27.2293  -37.1492   25.8862 H   0  0  0  0  0  0
  -20.9327  -29.8772   21.6865 H   0  0  0  0  0  0
  -26.0140  -38.2812   24.1435 H   0  0  0  0  0  0
  -30.2509  -20.2168   21.8191 H   0  0  0  0  0  0
  -27.8970  -22.3024   19.0342 H   0  0  0  0  0  0
  -29.5657  -17.7523   18.8376 H   0  0  0  0  0  0
  -28.1948  -17.5628   19.8545 H   0  0  0  0  0  0
  -30.0927  -24.9607   21.3515 H   0  0  0  0  0  0
  -30.0852  -24.2867   19.7702 H   0  0  0  0  0  0
  -28.6631  -22.9611   22.2006 H   0  0  0  0  0  0
  -30.3604  -22.7820   21.9217 H   0  0  0  0  0  0
  -29.8492  -17.4079   21.8685 H   0  0  0  0  0  0
  -31.1303  -17.3131   20.6969 H   0  0  0  0  0  0
  -27.5666  -25.0696   21.3486 H   0  0  0  0  0  0
  -27.6382  -24.6721   19.6386 H   0  0  0  0  0  0
  -28.8533  -15.3441   20.9888 H   0  0  0  0  0  0
  1 25  1  0  0  0
  1 30  2  0  0  0
  1 81  1  0  0  0
  2  3  1  0  0  0
  2 25  1  0  0  0
  2 82  1  0  0  0
  2 83  1  0  0  0
  3  4  1  0  0  0
  3 84  1  0  0  0
  3 85  1  0  0  0
  4  5  1  0  0  0
  4 86  1  0  0  0
  4 87  1  0  0  0
  5  6  1  0  0  0
  5 26  1  0  0  0
  5 88  1  0  0  0
  6 25  1  0  0  0
  6 89  1  0  0  0
  6 90  1  0  0  0
  7  8  2  0  0  0
  7 26  1  0  0  0
  7 29  1  0  0  0
  8  9  1  0  0  0
  8 22  1  0  0  0
  9 10  1  0  0  0
  9 27  2  0  0  0
 10 11  2  0  0  0
 10 15  1  0  0  0
 11 12  1  0  0  0
 11 91  1  0  0  0
 12 13  2  0  0  0
 12 92  1  0  0  0
 13 14  1  0  0  0
 13 31  1  0  0  0
 14 15  2  0  0  0
 14 93  1  0  0  0
 15 94  1  0  0  0
 16 17  2  0  0  0
 16 21  1  0  0  0
 16 31  1  0  0  0
 17 18  1  0  0  0
 17 95  1  0  0  0
 18 19  2  0  0  0
 18 96  1  0  0  0
 19 20  1  0  0  0
 19 24  1  0  0  0
 20 21  2  0  0  0
 20 97  1  0  0  0
 21 23  1  0  0  0
 22 28  1  0  0  0
 22 32  2  0  0  0
 26 27  1  0  0  0
 28 98  1  0  0  0
 28 99  1  0  0  0
 29100  1  0  0  0
 29101  1  0  0  0
 33 34  1  0  0  0
 33 66  1  0  0  0
 33 70  2  0  0  0
 34 36  1  0  0  0
 34 59  1  0  0  0
 34102  1  0  0  0
 35 44  2  0  0  0
 35 45  1  0  0  0
 35 68  1  0  0  0
 36 56  1  0  0  0
 36103  1  0  0  0
 37 39  1  0  0  0
 37 47  1  0  0  0
 37 66  1  0  0  0
 37104  1  0  0  0
 38 43  2  0  0  0
 38 46  1  0  0  0
 38 47  1  0  0  0
 39 64  1  0  0  0
 39 67  2  0  0  0
 40 52  1  0  0  0
 40 53  2  0  0  0
 40 58  1  0  0  0
 41105  1  0  0  0
 41106  1  0  0  0
 41107  1  0  0  0
 41 48  1  0  0  0
 42 43  1  0  0  0
 42 66  1  0  0  0
 42108  1  0  0  0
 42109  1  0  0  0
 43 44  1  0  0  0
 44110  1  0  0  0
 45 46  2  0  0  0
 45111  1  0  0  0
 46112  1  0  0  0
 47113  1  0  0  0
 47114  1  0  0  0
 48 56  1  0  0  0
 48 65  1  0  0  0
 48115  1  0  0  0
 49 50  1  0  0  0
 49 53  1  0  0  0
 49 64  1  0  0  0
 49116  1  0  0  0
 50 51  1  0  0  0
 50117  1  0  0  0
 50118  1  0  0  0
 51 52  1  0  0  0
 51119  1  0  0  0
 51120  1  0  0  0
 52121  1  0  0  0
 52122  1  0  0  0
 53 54  1  0  0  0
 54 55  2  0  0  0
 54123  1  0  0  0
 55 57  1  0  0  0
 55124  1  0  0  0
 56 69  2  0  0  0
 57 58  2  0  0  0
 57125  1  0  0  0
 58126  1  0  0  0
 59 60  1  0  0  0
 59 61  1  0  0  0
 59 62  1  0  0  0
 60127  1  0  0  0
 60128  1  0  0  0
 60129  1  0  0  0
 61130  1  0  0  0
 61131  1  0  0  0
 61132  1  0  0  0
 62133  1  0  0  0
 62134  1  0  0  0
 62135  1  0  0  0
 63 65  1  0  0  0
 63136  1  0  0  0
 63137  1  0  0  0
 63138  1  0  0  0
 64139  1  0  0  0
 65140  1  0  0  0
 68 78  1  0  0  0
 71 73  2  0  0  0
 71 80  1  0  0  0
 71141  1  0  0  0
 72 79  2  0  0  0
 72 80  1  0  0  0
 72142  1  0  0  0
 73 74  1  0  0  0
 73 79  1  0  0  0
 74 77  1  0  0  0
 74143  1  0  0  0
 74144  1  0  0  0
 75 76  1  0  0  0
 75 78  1  0  0  0
 75145  1  0  0  0
 75146  1  0  0  0
 76 80  1  0  0  0
 76147  1  0  0  0
 76148  1  0  0  0
 77 81  1  0  0  0
 77149  1  0  0  0
 77150  1  0  0  0
 78151  1  0  0  0
 78152  1  0  0  0
 81153  1  0  0  0
M  ISO  4   1 100  68 101  78 101  81 100
M  END
> <chiral flag>
0

> <version>
0

> <s_m_source_file>
/data/baiqing/PycharmProjects/Reinvent-master-3.2/result/LINK_invent/BTK/process_docking_weight1_custom_sum_contain_oxygen_bond_distance_aromatic_linkinvent_7_9_3/rearranged_h_0048.sdf

> <i_m_source_file_index>
66

> <r_mmod_Potential_Energy-OPLS-2005>
-28.1470050811768

> <r_mmod_Stretch_Energy-OPLS-2005>
55.7792778015137

> <r_mmod_Bend_Energy-OPLS-2005>
130.426956176758

> <r_mmod_Torsional_Energy-OPLS-2005>
224.046081542969

> <r_mmod_Improper_Torsional_Energy-OPLS-2005>
5.12237644195557

> <r_mmod_Van_der_Waal_Energy-OPLS-2005>
120.239929199219

> <r_mmod_Electrostatic_Energy-OPLS-2005>
-363.947479248047

> <r_mmod_Solvation_Energy-OPLS-2005>
-232.146301269531

> <b_mmod_Minimization_Converged-OPLS-2005>
0

> <r_mmod_RMS_Derivative-OPLS-2005>
4.67773389816284

$$$$
67
                    3D
 Structure written by MMmdl.
160168  0  0  1  0            999 V2000
  -30.7641  -14.4903   20.5776 C   0  0  0  0  0  0
  -30.4303  -12.3308   19.4353 C   0  0  0  0  0  0
  -29.5086  -12.4999   18.2131 C   0  0  0  0  0  0
  -28.0299  -12.3640   18.6238 C   0  0  0  0  0  0
  -27.6660  -13.2196   19.8678 C   0  0  2  0  0  0
  -28.7122  -13.0599   20.9953 C   0  0  0  0  0  0
  -25.2624  -13.8163   20.5774 C   0  0  0  0  0  0
  -24.1868  -13.0453   20.9253 C   0  0  0  0  0  0
  -24.6420  -11.6931   20.8763 C   0  0  0  0  0  0
  -23.9076  -10.4295   21.0368 C   0  0  0  0  0  0
  -24.3576   -9.4209   21.9165 C   0  0  0  0  0  0
  -23.6233   -8.2257   22.0751 C   0  0  0  0  0  0
  -22.4234   -8.0277   21.3533 C   0  0  0  0  0  0
  -21.9871   -9.0272   20.4657 C   0  0  0  0  0  0
  -22.7232  -10.2139   20.3039 C   0  0  0  0  0  0
  -21.6852   -6.0742   22.5286 C   0  0  0  0  0  0
  -21.4014   -6.5624   23.8231 C   0  0  0  0  0  0
  -21.3640   -5.6764   24.9193 C   0  0  0  0  0  0
  -21.6011   -4.3029   24.7215 C   0  0  0  0  0  0
  -21.8809   -3.8137   23.4337 C   0  0  0  0  0  0
  -21.9195   -4.6976   22.3422 C   0  0  0  0  0  0
  -22.7851  -13.5278   21.1844 C   0  0  0  0  0  0
  -22.1664   -4.2187   21.0996 F   0  0  0  0  0  0
  -21.5603   -3.4485   25.7694 F   0  0  0  0  0  0
  -30.0428  -13.3439   20.4329 N   0  0  0  0  0  0
  -26.3076  -12.9370   20.3393 N   0  0  0  0  0  0
  -25.9356  -11.6517   20.5771 N   0  0  0  0  0  0
  -22.0398  -12.8341   22.0371 N   0  0  0  0  0  0
  -25.4322  -15.1880   20.4204 N   0  0  0  0  0  0
  -31.8997  -14.6153   20.1182 O   0  0  0  0  0  0
  -21.6598   -6.8870   21.4236 O   0  0  0  0  0  0
  -22.3603  -14.5615   20.6703 O   0  0  0  0  0  0
  -24.6135  -31.8732   23.2199 C   0  0  0  0  0  0
  -25.9024  -32.4888   23.8488 C   0  0  1  0  0  0
  -27.2223  -27.4399   20.0721 C   0  0  0  0  0  0
  -25.5894  -33.8686   24.2423 N   0  0  0  0  0  0
  -23.4004  -30.5036   21.5591 C   0  0  2  0  0  0
  -24.8445  -28.9896   20.1095 C   0  0  0  0  0  0
  -22.7427  -29.4686   22.5007 C   0  0  0  0  0  0
  -18.0275  -28.1390   22.8504 C   0  0  0  0  0  0
  -24.1467  -36.7338   23.2627 C   0  0  0  0  0  0
  -25.9300  -30.8407   21.3722 C   0  0  0  0  0  0
  -26.0061  -29.4748   20.7216 C   0  0  0  0  0  0
  -27.1931  -28.7013   20.7176 C   0  0  0  0  0  0
  -26.0412  -27.0031   19.4157 C   0  0  0  0  0  0
  -24.8571  -27.7533   19.4544 C   0  0  0  0  0  0
  -23.6077  -29.8560   20.1678 C   0  0  0  0  0  0
  -25.4081  -36.3160   24.0356 C   0  0  1  0  0  0
  -20.5870  -28.3671   23.1330 C   0  0  2  0  0  0
  -20.6769  -26.9415   22.5422 C   0  0  0  0  0  0
  -19.5741  -26.6399   21.5222 C   0  0  0  0  0  0
  -18.1919  -26.7933   22.1642 C   0  0  0  0  0  0
  -19.1528  -28.8850   23.2916 C   0  0  0  0  0  0
  -18.9441  -30.1446   23.8939 C   0  0  0  0  0  0
  -17.6443  -30.6592   24.0573 C   0  0  0  0  0  0
  -25.8996  -34.9516   23.5177 C   0  0  0  0  0  0
  -16.5338  -29.9097   23.6314 C   0  0  0  0  0  0
  -16.7263  -28.6515   23.0344 C   0  0  0  0  0  0
  -26.4449  -31.6637   25.0784 C   0  0  0  0  0  0
  -25.3737  -31.3755   26.1570 C   0  0  0  0  0  0
  -27.0212  -30.3081   24.6076 C   0  0  0  0  0  0
  -27.6069  -32.4315   25.7529 C   0  0  0  0  0  0
  -27.5583  -37.1832   24.8459 C   0  0  0  0  0  0
  -21.4156  -29.3047   22.3754 N   0  0  0  0  0  0
  -26.4279  -37.3835   23.9425 N   0  0  0  0  0  0
  -24.6665  -31.0858   22.1098 N   0  0  0  0  0  0
  -23.4224  -28.8187   23.2997 O   0  0  0  0  0  0
  -28.3785  -26.6700   20.1114 O   0  0  0  0  0  0
  -26.5536  -34.8946   22.4720 O   0  0  0  0  0  0
  -23.5322  -32.1467   23.7594 O   0  0  0  0  0  0
  -28.7627  -23.0027   20.5388 C   0  0  0  0  0  0
  -29.2310  -24.2716   20.1685 C   0  0  0  0  0  0
  -29.6921  -22.0449   20.9802 C   0  0  0  0  0  0
  -31.3616  -23.5916   20.6248 C   0  0  0  0  0  0
  -32.8469  -23.8864   20.6065 C   0  0  0  0  0  0
  -27.8097  -20.3012   21.1377 C   0  0  0  0  0  0
  -28.2379  -25.3113   19.6494 C   0  0  0  0  0  0
  -29.6985  -18.0466   21.2353 C   0  0  0  0  0  0
  -30.2612  -19.4996   21.1380 C   0  0  0  0  0  0
  -30.7494  -16.9111   21.2085 C   0  0  0  0  0  0
  -29.2704  -20.6545   21.5139 C   0  0  1  0  0  0
  -30.5465  -24.5596   20.2035 N   0  0  0  0  0  0
  -30.9994  -22.3754   21.0316 N   0  0  0  0  0  0
  -30.1453  -15.5601   21.1229 N   0  0  0  0  0  0
  -31.4786  -12.4070   19.1363 H   0  0  0  0  0  0
  -30.3288  -11.3319   19.8634 H   0  0  0  0  0  0
  -29.7539  -11.7439   17.4644 H   0  0  0  0  0  0
  -29.6822  -13.4689   17.7413 H   0  0  0  0  0  0
  -27.8414  -11.3098   18.8337 H   0  0  0  0  0  0
  -27.3916  -12.6315   17.7810 H   0  0  0  0  0  0
  -27.6967  -14.2610   19.5430 H   0  0  0  0  0  0
  -28.7013  -12.0489   21.4015 H   0  0  0  0  0  0
  -28.4682  -13.7198   21.8314 H   0  0  0  0  0  0
  -25.2685   -9.5672   22.4807 H   0  0  0  0  0  0
  -23.9911   -7.4637   22.7469 H   0  0  0  0  0  0
  -21.0811   -8.8805   19.8965 H   0  0  0  0  0  0
  -22.3672  -10.9688   19.6158 H   0  0  0  0  0  0
  -21.2017   -7.6113   23.9772 H   0  0  0  0  0  0
  -21.1471   -6.0466   25.9112 H   0  0  0  0  0  0
  -22.0613   -2.7612   23.2824 H   0  0  0  0  0  0
  -22.3860  -12.0023   22.4913 H   0  0  0  0  0  0
  -21.1006  -13.1486   22.2419 H   0  0  0  0  0  0
  -24.6493  -15.8226   20.5301 H   0  0  0  0  0  0
  -26.2728  -15.6421   20.0843 H   0  0  0  0  0  0
  -26.7103  -32.5627   23.1267 H   0  0  0  0  0  0
  -25.0155  -33.9873   25.0650 H   0  0  0  0  0  0
  -22.6846  -31.3183   21.4325 H   0  0  0  0  0  0
  -23.3748  -35.9648   23.3259 H   0  0  0  0  0  0
  -24.3590  -36.8970   22.2051 H   0  0  0  0  0  0
  -23.7176  -37.6529   23.6626 H   0  0  0  0  0  0
  -26.0207  -31.6039   20.5980 H   0  0  0  0  0  0
  -26.8265  -30.9134   21.9750 H   0  0  0  0  0  0
  -28.0820  -29.0576   21.2186 H   0  0  0  0  0  0
  -25.9877  -26.0880   18.8450 H   0  0  0  0  0  0
  -23.9741  -27.3923   18.9447 H   0  0  0  0  0  0
  -23.7160  -30.6369   19.4137 H   0  0  0  0  0  0
  -22.7290  -29.2808   19.8719 H   0  0  0  0  0  0
  -25.1238  -36.2057   25.0847 H   0  0  0  0  0  0
  -20.9954  -28.3215   24.1455 H   0  0  0  0  0  0
  -20.5693  -26.2266   23.3592 H   0  0  0  0  0  0
  -21.6633  -26.7479   22.1196 H   0  0  0  0  0  0
  -19.6889  -25.6315   21.1238 H   0  0  0  0  0  0
  -19.6656  -27.3213   20.6752 H   0  0  0  0  0  0
  -17.4179  -26.6680   21.4047 H   0  0  0  0  0  0
  -18.0313  -26.0083   22.9050 H   0  0  0  0  0  0
  -19.7909  -30.7254   24.2340 H   0  0  0  0  0  0
  -17.4993  -31.6274   24.5170 H   0  0  0  0  0  0
  -15.5338  -30.3018   23.7610 H   0  0  0  0  0  0
  -15.8660  -28.0847   22.7044 H   0  0  0  0  0  0
  -24.5865  -30.7136   25.7943 H   0  0  0  0  0  0
  -24.8973  -32.2914   26.5074 H   0  0  0  0  0  0
  -25.8119  -30.8903   27.0300 H   0  0  0  0  0  0
  -26.2721  -29.6959   24.1038 H   0  0  0  0  0  0
  -27.3891  -29.7215   25.4499 H   0  0  0  0  0  0
  -27.8604  -30.4419   23.9252 H   0  0  0  0  0  0
  -27.2738  -33.3617   26.2146 H   0  0  0  0  0  0
  -28.3860  -32.6872   25.0334 H   0  0  0  0  0  0
  -28.0734  -31.8396   26.5413 H   0  0  0  0  0  0
  -28.2596  -38.0139   24.7539 H   0  0  0  0  0  0
  -28.1086  -36.2680   24.6222 H   0  0  0  0  0  0
  -27.2319  -37.1423   25.8867 H   0  0  0  0  0  0
  -20.9292  -29.8820   21.7040 H   0  0  0  0  0  0
  -26.0182  -38.2919   24.1449 H   0  0  0  0  0  0
  -27.7023  -22.8026   20.4879 H   0  0  0  0  0  0
  -33.0427  -24.9539   20.5089 H   0  0  0  0  0  0
  -33.3231  -23.3772   19.7683 H   0  0  0  0  0  0
  -33.3251  -23.5423   21.5233 H   0  0  0  0  0  0
  -27.1013  -21.0597   21.4674 H   0  0  0  0  0  0
  -27.4811  -19.3883   21.6298 H   0  0  0  0  0  0
  -27.6866  -20.1816   20.0605 H   0  0  0  0  0  0
  -27.2757  -24.9133   19.9707 H   0  0  0  0  0  0
  -28.2542  -25.2976   18.5585 H   0  0  0  0  0  0
  -28.9971  -17.8931   20.4135 H   0  0  0  0  0  0
  -29.1252  -17.9457   22.1569 H   0  0  0  0  0  0
  -30.6246  -19.6733   20.1235 H   0  0  0  0  0  0
  -31.1406  -19.5862   21.7820 H   0  0  0  0  0  0
  -31.3631  -16.9729   22.1122 H   0  0  0  0  0  0
  -31.4326  -17.0741   20.3708 H   0  0  0  0  0  0
  -29.2857  -20.7471   22.5996 H   0  0  0  0  0  0
  -29.1917  -15.4405   21.4308 H   0  0  0  0  0  0
  1 25  1  0  0  0
  1 30  2  0  0  0
  1 84  1  0  0  0
  2  3  1  0  0  0
  2 25  1  0  0  0
  2 85  1  0  0  0
  2 86  1  0  0  0
  3  4  1  0  0  0
  3 87  1  0  0  0
  3 88  1  0  0  0
  4  5  1  0  0  0
  4 89  1  0  0  0
  4 90  1  0  0  0
  5  6  1  0  0  0
  5 26  1  0  0  0
  5 91  1  0  0  0
  6 25  1  0  0  0
  6 92  1  0  0  0
  6 93  1  0  0  0
  7  8  2  0  0  0
  7 26  1  0  0  0
  7 29  1  0  0  0
  8  9  1  0  0  0
  8 22  1  0  0  0
  9 10  1  0  0  0
  9 27  2  0  0  0
 10 11  2  0  0  0
 10 15  1  0  0  0
 11 12  1  0  0  0
 11 94  1  0  0  0
 12 13  2  0  0  0
 12 95  1  0  0  0
 13 14  1  0  0  0
 13 31  1  0  0  0
 14 15  2  0  0  0
 14 96  1  0  0  0
 15 97  1  0  0  0
 16 17  2  0  0  0
 16 21  1  0  0  0
 16 31  1  0  0  0
 17 18  1  0  0  0
 17 98  1  0  0  0
 18 19  2  0  0  0
 18 99  1  0  0  0
 19 20  1  0  0  0
 19 24  1  0  0  0
 20 21  2  0  0  0
 20100  1  0  0  0
 21 23  1  0  0  0
 22 28  1  0  0  0
 22 32  2  0  0  0
 26 27  1  0  0  0
 28101  1  0  0  0
 28102  1  0  0  0
 29103  1  0  0  0
 29104  1  0  0  0
 33 34  1  0  0  0
 33 66  1  0  0  0
 33 70  2  0  0  0
 34 36  1  0  0  0
 34 59  1  0  0  0
 34105  1  0  0  0
 35 44  2  0  0  0
 35 45  1  0  0  0
 35 68  1  0  0  0
 36 56  1  0  0  0
 36106  1  0  0  0
 37 39  1  0  0  0
 37 47  1  0  0  0
 37 66  1  0  0  0
 37107  1  0  0  0
 38 43  2  0  0  0
 38 46  1  0  0  0
 38 47  1  0  0  0
 39 64  1  0  0  0
 39 67  2  0  0  0
 40 52  1  0  0  0
 40 53  2  0  0  0
 40 58  1  0  0  0
 41108  1  0  0  0
 41109  1  0  0  0
 41110  1  0  0  0
 41 48  1  0  0  0
 42 43  1  0  0  0
 42 66  1  0  0  0
 42111  1  0  0  0
 42112  1  0  0  0
 43 44  1  0  0  0
 44113  1  0  0  0
 45 46  2  0  0  0
 45114  1  0  0  0
 46115  1  0  0  0
 47116  1  0  0  0
 47117  1  0  0  0
 48 56  1  0  0  0
 48 65  1  0  0  0
 48118  1  0  0  0
 49 50  1  0  0  0
 49 53  1  0  0  0
 49 64  1  0  0  0
 49119  1  0  0  0
 50 51  1  0  0  0
 50120  1  0  0  0
 50121  1  0  0  0
 51 52  1  0  0  0
 51122  1  0  0  0
 51123  1  0  0  0
 52124  1  0  0  0
 52125  1  0  0  0
 53 54  1  0  0  0
 54 55  2  0  0  0
 54126  1  0  0  0
 55 57  1  0  0  0
 55127  1  0  0  0
 56 69  2  0  0  0
 57 58  2  0  0  0
 57128  1  0  0  0
 58129  1  0  0  0
 59 60  1  0  0  0
 59 61  1  0  0  0
 59 62  1  0  0  0
 60130  1  0  0  0
 60131  1  0  0  0
 60132  1  0  0  0
 61133  1  0  0  0
 61134  1  0  0  0
 61135  1  0  0  0
 62136  1  0  0  0
 62137  1  0  0  0
 62138  1  0  0  0
 63 65  1  0  0  0
 63139  1  0  0  0
 63140  1  0  0  0
 63141  1  0  0  0
 64142  1  0  0  0
 65143  1  0  0  0
 68 77  1  0  0  0
 71 72  2  0  0  0
 71 73  1  0  0  0
 71144  1  0  0  0
 72 77  1  0  0  0
 72 82  1  0  0  0
 73 81  1  0  0  0
 73 83  2  0  0  0
 74 75  1  0  0  0
 74 82  2  0  0  0
 74 83  1  0  0  0
 75145  1  0  0  0
 75146  1  0  0  0
 75147  1  0  0  0
 76148  1  0  0  0
 76149  1  0  0  0
 76150  1  0  0  0
 76 81  1  0  0  0
 77151  1  0  0  0
 77152  1  0  0  0
 78 79  1  0  0  0
 78 80  1  0  0  0
 78153  1  0  0  0
 78154  1  0  0  0
 79 81  1  0  0  0
 79155  1  0  0  0
 79156  1  0  0  0
 80 84  1  0  0  0
 80157  1  0  0  0
 80158  1  0  0  0
 81159  1  0  0  0
 84160  1  0  0  0
M  ISO  4   1 100  68 101  77 101  84 100
M  END
> <chiral flag>
0

> <version>
0

> <s_m_source_file>
/data/baiqing/PycharmProjects/Reinvent-master-3.2/result/LINK_invent/BTK/process_docking_weight1_custom_sum_contain_oxygen_bond_distance_aromatic_linkinvent_7_9_3/rearranged_h_0048.sdf

> <i_m_source_file_index>
67

> <r_mmod_Potential_Energy-OPLS-2005>
-468.99609375

> <r_mmod_Stretch_Energy-OPLS-2005>
41.7358016967773

> <r_mmod_Bend_Energy-OPLS-2005>
107.398330688477

> <r_mmod_Torsional_Energy-OPLS-2005>
202.981567382812

> <r_mmod_Improper_Torsional_Energy-OPLS-2005>
3.44360303878784

> <r_mmod_Van_der_Waal_Energy-OPLS-2005>
183.383071899414

> <r_mmod_Electrostatic_Energy-OPLS-2005>
-790.408264160156

> <r_mmod_Solvation_Energy-OPLS-2005>
-237.592514038086

> <b_mmod_Minimization_Converged-OPLS-2005>
0

> <r_mmod_RMS_Derivative-OPLS-2005>
5.10062026977539

$$$$
68
                    3D
 Structure written by MMmdl.
169177  0  0  1  0            999 V2000
  -30.6470  -14.6898   20.5474 C   0  0  0  0  0  0
  -30.4316  -12.4372   19.4769 C   0  0  0  0  0  0
  -29.5090  -12.5174   18.2400 C   0  0  0  0  0  0
  -28.0375  -12.3275   18.6505 C   0  0  0  0  0  0
  -27.6471  -13.2201   19.8560 C   0  0  2  0  0  0
  -28.6827  -13.1099   20.9933 C   0  0  0  0  0  0
  -25.2544  -13.8177   20.5700 C   0  0  0  0  0  0
  -24.1816  -13.0436   20.9178 C   0  0  0  0  0  0
  -24.6384  -11.6905   20.8724 C   0  0  0  0  0  0
  -23.9053  -10.4295   21.0400 C   0  0  0  0  0  0
  -24.3602   -9.4220   21.9183 C   0  0  0  0  0  0
  -23.6284   -8.2250   22.0754 C   0  0  0  0  0  0
  -22.4269   -8.0283   21.3538 C   0  0  0  0  0  0
  -21.9898   -9.0259   20.4644 C   0  0  0  0  0  0
  -22.7221  -10.2141   20.3055 C   0  0  0  0  0  0
  -21.6857   -6.0733   22.5274 C   0  0  0  0  0  0
  -21.4023   -6.5634   23.8217 C   0  0  0  0  0  0
  -21.3656   -5.6786   24.9171 C   0  0  0  0  0  0
  -21.6049   -4.3048   24.7222 C   0  0  0  0  0  0
  -21.8823   -3.8139   23.4337 C   0  0  0  0  0  0
  -21.9201   -4.6957   22.3399 C   0  0  0  0  0  0
  -22.7843  -13.5233   21.1863 C   0  0  0  0  0  0
  -22.1669   -4.2146   21.0973 F   0  0  0  0  0  0
  -21.5628   -3.4531   25.7733 F   0  0  0  0  0  0
  -29.9988  -13.4751   20.4432 N   0  0  0  0  0  0
  -26.2954  -12.9352   20.3271 N   0  0  0  0  0  0
  -25.9304  -11.6509   20.5713 N   0  0  0  0  0  0
  -22.0489  -12.8215   22.0415 N   0  0  0  0  0  0
  -25.4304  -15.1886   20.4185 N   0  0  0  0  0  0
  -31.7645  -14.8305   20.0385 O   0  0  0  0  0  0
  -21.6636   -6.8867   21.4238 O   0  0  0  0  0  0
  -22.3541  -14.5553   20.6732 O   0  0  0  0  0  0
  -24.6279  -31.8583   23.2000 C   0  0  0  0  0  0
  -25.9124  -32.4765   23.8344 C   0  0  1  0  0  0
  -27.2353  -27.2843   20.1218 C   0  0  0  0  0  0
  -25.5918  -33.8566   24.2278 N   0  0  0  0  0  0
  -23.4237  -30.4765   21.5461 C   0  0  2  0  0  0
  -24.8720  -28.9248   20.1146 C   0  0  0  0  0  0
  -22.7504  -29.4585   22.4965 C   0  0  0  0  0  0
  -18.0287  -28.1340   22.8511 C   0  0  0  0  0  0
  -24.1479  -36.7274   23.2647 C   0  0  0  0  0  0
  -25.9672  -30.7765   21.3775 C   0  0  0  0  0  0
  -26.0425  -29.4000   20.7200 C   0  0  0  0  0  0
  -27.2217  -28.5917   20.7133 C   0  0  0  0  0  0
  -26.0326  -26.8664   19.5053 C   0  0  0  0  0  0
  -24.8729  -27.6648   19.4995 C   0  0  0  0  0  0
  -23.6380  -29.8040   20.1641 C   0  0  0  0  0  0
  -25.4113  -36.3086   24.0335 C   0  0  1  0  0  0
  -20.5894  -28.3670   23.1278 C   0  0  2  0  0  0
  -20.6784  -26.9391   22.5402 C   0  0  0  0  0  0
  -19.5741  -26.6372   21.5217 C   0  0  0  0  0  0
  -18.1923  -26.7891   22.1632 C   0  0  0  0  0  0
  -19.1539  -28.8819   23.2888 C   0  0  0  0  0  0
  -18.9462  -30.1416   23.8909 C   0  0  0  0  0  0
  -17.6460  -30.6564   24.0541 C   0  0  0  0  0  0
  -25.9050  -34.9448   23.5123 C   0  0  0  0  0  0
  -16.5351  -29.9052   23.6321 C   0  0  0  0  0  0
  -16.7273  -28.6445   23.0394 C   0  0  0  0  0  0
  -26.4498  -31.6588   25.0734 C   0  0  0  0  0  0
  -25.3692  -31.3723   26.1430 C   0  0  0  0  0  0
  -27.0392  -30.3024   24.6224 C   0  0  0  0  0  0
  -27.6051  -32.4343   25.7483 C   0  0  0  0  0  0
  -27.5585  -37.1802   24.8470 C   0  0  0  0  0  0
  -21.4212  -29.3021   22.3682 N   0  0  0  0  0  0
  -26.4303  -37.3783   23.9402 N   0  0  0  0  0  0
  -24.6916  -31.0561   22.0962 N   0  0  0  0  0  0
  -23.4217  -28.8136   23.3062 O   0  0  0  0  0  0
  -28.3757  -26.4528   20.1830 O   0  0  0  0  0  0
  -26.5638  -34.8906   22.4701 O   0  0  0  0  0  0
  -23.5434  -32.1401   23.7313 O   0  0  0  0  0  0
  -29.3142  -21.2035   20.8029 C   0  0  0  0  0  0
  -29.0471  -19.8395   20.4189 C   0  0  0  0  0  0
  -28.5515  -22.2858   20.2278 C   0  0  0  0  0  0
  -27.3852  -20.6701   19.0514 C   0  0  0  0  0  0
  -26.1253  -19.9509   14.1955 C   0  0  0  0  0  0
  -25.1757  -18.3071   15.8530 C   0  0  0  0  0  0
  -29.6891  -15.8608   22.4627 C   0  0  0  0  0  0
  -29.5784  -18.5280   21.1382 C   0  0  0  0  0  0
  -28.5536  -23.7968   20.7287 C   0  0  0  0  0  0
  -26.2583  -20.3374   18.0879 C   0  0  0  0  0  0
  -26.7456  -20.1810   16.6375 C   0  0  0  0  0  0
  -29.8640  -17.1602   20.3113 C   0  0  0  0  0  0
  -28.4294  -25.0310   19.7001 C   0  0  0  0  0  0
  -25.6444  -19.7585   15.6409 C   0  0  0  0  0  0
  -28.0612  -19.6295   19.5320 N   0  0  0  0  0  0
  -27.5833  -21.9580   19.3455 N   0  0  0  0  0  0
  -29.9549  -15.8002   21.0205 N   0  0  0  0  0  0
  -31.4740  -12.5535   19.1774 H   0  0  0  0  0  0
  -30.3730  -11.4500   19.9374 H   0  0  0  0  0  0
  -29.7921  -11.7620   17.5068 H   0  0  0  0  0  0
  -29.6334  -13.4827   17.7471 H   0  0  0  0  0  0
  -27.9048  -11.2772   18.9142 H   0  0  0  0  0  0
  -27.3748  -12.5123   17.8043 H   0  0  0  0  0  0
  -27.6572  -14.2485   19.4947 H   0  0  0  0  0  0
  -28.7099  -12.0965   21.3961 H   0  0  0  0  0  0
  -28.3745  -13.7448   21.8197 H   0  0  0  0  0  0
  -25.2745   -9.5701   22.4757 H   0  0  0  0  0  0
  -24.0005   -7.4640   22.7462 H   0  0  0  0  0  0
  -21.0836   -8.8757   19.8939 H   0  0  0  0  0  0
  -22.3669  -10.9675   19.6157 H   0  0  0  0  0  0
  -21.2019   -7.6144   23.9711 H   0  0  0  0  0  0
  -21.1480   -6.0513   25.9075 H   0  0  0  0  0  0
  -22.0609   -2.7605   23.2837 H   0  0  0  0  0  0
  -22.4102  -11.9850   22.4759 H   0  0  0  0  0  0
  -21.1125  -13.1251   22.2647 H   0  0  0  0  0  0
  -24.6726  -15.8493   20.5445 H   0  0  0  0  0  0
  -26.2977  -15.6279   20.1369 H   0  0  0  0  0  0
  -26.7190  -32.5428   23.1079 H   0  0  0  0  0  0
  -25.0017  -33.9694   25.0391 H   0  0  0  0  0  0
  -22.7176  -31.2971   21.4033 H   0  0  0  0  0  0
  -23.3757  -35.9595   23.3308 H   0  0  0  0  0  0
  -24.3561  -36.8904   22.2065 H   0  0  0  0  0  0
  -23.7204  -37.6462   23.6665 H   0  0  0  0  0  0
  -26.1096  -31.5401   20.6116 H   0  0  0  0  0  0
  -26.8433  -30.8248   22.0127 H   0  0  0  0  0  0
  -28.1166  -28.9564   21.2004 H   0  0  0  0  0  0
  -25.9366  -25.9015   19.0387 H   0  0  0  0  0  0
  -23.9763  -27.2854   19.0289 H   0  0  0  0  0  0
  -23.7443  -30.5760   19.4014 H   0  0  0  0  0  0
  -22.7620  -29.2228   19.8729 H   0  0  0  0  0  0
  -25.1295  -36.1965   25.0834 H   0  0  0  0  0  0
  -20.9993  -28.3256   24.1400 H   0  0  0  0  0  0
  -20.5714  -26.2290   23.3613 H   0  0  0  0  0  0
  -21.6653  -26.7424   22.1188 H   0  0  0  0  0  0
  -19.6901  -25.6299   21.1214 H   0  0  0  0  0  0
  -19.6644  -27.3219   20.6766 H   0  0  0  0  0  0
  -17.4222  -26.6666   21.4008 H   0  0  0  0  0  0
  -18.0266  -25.9993   22.8978 H   0  0  0  0  0  0
  -19.7938  -30.7195   24.2326 H   0  0  0  0  0  0
  -17.5019  -31.6248   24.5125 H   0  0  0  0  0  0
  -15.5349  -30.2953   23.7609 H   0  0  0  0  0  0
  -15.8675  -28.0715   22.7170 H   0  0  0  0  0  0
  -24.5861  -30.7110   25.7695 H   0  0  0  0  0  0
  -24.8875  -32.2891   26.4843 H   0  0  0  0  0  0
  -25.7968  -30.8866   27.0211 H   0  0  0  0  0  0
  -26.3030  -29.6710   24.1248 H   0  0  0  0  0  0
  -27.4105  -29.7336   25.4753 H   0  0  0  0  0  0
  -27.8856  -30.4319   23.9476 H   0  0  0  0  0  0
  -27.2689  -33.3664   26.2029 H   0  0  0  0  0  0
  -28.3848  -32.6887   25.0295 H   0  0  0  0  0  0
  -28.0727  -31.8497   26.5419 H   0  0  0  0  0  0
  -28.2626  -38.0085   24.7556 H   0  0  0  0  0  0
  -28.1070  -36.2632   24.6273 H   0  0  0  0  0  0
  -27.2296  -37.1411   25.8872 H   0  0  0  0  0  0
  -20.9432  -29.8718   21.6841 H   0  0  0  0  0  0
  -26.0188  -38.2868   24.1387 H   0  0  0  0  0  0
  -30.0345  -21.4055   21.5861 H   0  0  0  0  0  0
  -25.3423  -19.6955   13.4809 H   0  0  0  0  0  0
  -26.9907  -19.3229   13.9767 H   0  0  0  0  0  0
  -26.4108  -20.9874   14.0084 H   0  0  0  0  0  0
  -24.4223  -18.0320   15.1133 H   0  0  0  0  0  0
  -24.7252  -18.1614   16.8355 H   0  0  0  0  0  0
  -26.0017  -17.6011   15.7547 H   0  0  0  0  0  0
  -28.6436  -16.1144   22.6404 H   0  0  0  0  0  0
  -30.3162  -16.6061   22.9508 H   0  0  0  0  0  0
  -29.8897  -14.9181   22.9771 H   0  0  0  0  0  0
  -28.8320  -18.3189   21.9029 H   0  0  0  0  0  0
  -30.4808  -18.7966   21.6875 H   0  0  0  0  0  0
  -29.4562  -23.9401   21.3234 H   0  0  0  0  0  0
  -27.7315  -23.8818   21.4381 H   0  0  0  0  0  0
  -25.4974  -21.1156   18.1413 H   0  0  0  0  0  0
  -25.7752  -19.4226   18.4329 H   0  0  0  0  0  0
  -27.5679  -19.4643   16.6020 H   0  0  0  0  0  0
  -27.1662  -21.1388   16.3308 H   0  0  0  0  0  0
  -30.7538  -17.3064   19.6986 H   0  0  0  0  0  0
  -29.0490  -17.0427   19.5973 H   0  0  0  0  0  0
  -27.6339  -24.8098   18.9968 H   0  0  0  0  0  0
  -29.3265  -24.9940   19.0827 H   0  0  0  0  0  0
  -24.7841  -20.4154   15.7852 H   0  0  0  0  0  0
  1 25  1  0  0  0
  1 30  2  0  0  0
  1 87  1  0  0  0
  2  3  1  0  0  0
  2 25  1  0  0  0
  2 88  1  0  0  0
  2 89  1  0  0  0
  3  4  1  0  0  0
  3 90  1  0  0  0
  3 91  1  0  0  0
  4  5  1  0  0  0
  4 92  1  0  0  0
  4 93  1  0  0  0
  5  6  1  0  0  0
  5 26  1  0  0  0
  5 94  1  0  0  0
  6 25  1  0  0  0
  6 95  1  0  0  0
  6 96  1  0  0  0
  7  8  2  0  0  0
  7 26  1  0  0  0
  7 29  1  0  0  0
  8  9  1  0  0  0
  8 22  1  0  0  0
  9 10  1  0  0  0
  9 27  2  0  0  0
 10 11  2  0  0  0
 10 15  1  0  0  0
 11 12  1  0  0  0
 11 97  1  0  0  0
 12 13  2  0  0  0
 12 98  1  0  0  0
 13 14  1  0  0  0
 13 31  1  0  0  0
 14 15  2  0  0  0
 14 99  1  0  0  0
 15100  1  0  0  0
 16 17  2  0  0  0
 16 21  1  0  0  0
 16 31  1  0  0  0
 17 18  1  0  0  0
 17101  1  0  0  0
 18 19  2  0  0  0
 18102  1  0  0  0
 19 20  1  0  0  0
 19 24  1  0  0  0
 20 21  2  0  0  0
 20103  1  0  0  0
 21 23  1  0  0  0
 22 28  1  0  0  0
 22 32  2  0  0  0
 26 27  1  0  0  0
 28104  1  0  0  0
 28105  1  0  0  0
 29106  1  0  0  0
 29107  1  0  0  0
 33 34  1  0  0  0
 33 66  1  0  0  0
 33 70  2  0  0  0
 34 36  1  0  0  0
 34 59  1  0  0  0
 34108  1  0  0  0
 35 44  2  0  0  0
 35 45  1  0  0  0
 35 68  1  0  0  0
 36 56  1  0  0  0
 36109  1  0  0  0
 37 39  1  0  0  0
 37 47  1  0  0  0
 37 66  1  0  0  0
 37110  1  0  0  0
 38 43  2  0  0  0
 38 46  1  0  0  0
 38 47  1  0  0  0
 39 64  1  0  0  0
 39 67  2  0  0  0
 40 52  1  0  0  0
 40 53  2  0  0  0
 40 58  1  0  0  0
 41111  1  0  0  0
 41112  1  0  0  0
 41113  1  0  0  0
 41 48  1  0  0  0
 42 43  1  0  0  0
 42 66  1  0  0  0
 42114  1  0  0  0
 42115  1  0  0  0
 43 44  1  0  0  0
 44116  1  0  0  0
 45 46  2  0  0  0
 45117  1  0  0  0
 46118  1  0  0  0
 47119  1  0  0  0
 47120  1  0  0  0
 48 56  1  0  0  0
 48 65  1  0  0  0
 48121  1  0  0  0
 49 50  1  0  0  0
 49 53  1  0  0  0
 49 64  1  0  0  0
 49122  1  0  0  0
 50 51  1  0  0  0
 50123  1  0  0  0
 50124  1  0  0  0
 51 52  1  0  0  0
 51125  1  0  0  0
 51126  1  0  0  0
 52127  1  0  0  0
 52128  1  0  0  0
 53 54  1  0  0  0
 54 55  2  0  0  0
 54129  1  0  0  0
 55 57  1  0  0  0
 55130  1  0  0  0
 56 69  2  0  0  0
 57 58  2  0  0  0
 57131  1  0  0  0
 58132  1  0  0  0
 59 60  1  0  0  0
 59 61  1  0  0  0
 59 62  1  0  0  0
 60133  1  0  0  0
 60134  1  0  0  0
 60135  1  0  0  0
 61136  1  0  0  0
 61137  1  0  0  0
 61138  1  0  0  0
 62139  1  0  0  0
 62140  1  0  0  0
 62141  1  0  0  0
 63 65  1  0  0  0
 63142  1  0  0  0
 63143  1  0  0  0
 63144  1  0  0  0
 64145  1  0  0  0
 65146  1  0  0  0
 68 83  1  0  0  0
 71 72  2  0  0  0
 71 73  1  0  0  0
 71147  1  0  0  0
 72 78  1  0  0  0
 72 85  1  0  0  0
 73 79  1  0  0  0
 73 86  2  0  0  0
 74 80  1  0  0  0
 74 85  2  0  0  0
 74 86  1  0  0  0
 75148  1  0  0  0
 75149  1  0  0  0
 75150  1  0  0  0
 75 84  1  0  0  0
 76 84  1  0  0  0
 76151  1  0  0  0
 76152  1  0  0  0
 76153  1  0  0  0
 77 87  1  0  0  0
 77154  1  0  0  0
 77155  1  0  0  0
 77156  1  0  0  0
 78 82  1  0  0  0
 78157  1  0  0  0
 78158  1  0  0  0
 79 83  1  0  0  0
 79159  1  0  0  0
 79160  1  0  0  0
 80 81  1  0  0  0
 80161  1  0  0  0
 80162  1  0  0  0
 81 84  1  0  0  0
 81163  1  0  0  0
 81164  1  0  0  0
 82 87  1  0  0  0
 82165  1  0  0  0
 82166  1  0  0  0
 83167  1  0  0  0
 83168  1  0  0  0
 84169  1  0  0  0
M  ISO  4   1 100  68 101  83 101  87 100
M  END
> <chiral flag>
0

> <version>
0

> <s_m_source_file>
/data/baiqing/PycharmProjects/Reinvent-master-3.2/result/LINK_invent/BTK/process_docking_weight1_custom_sum_contain_oxygen_bond_distance_aromatic_linkinvent_7_9_3/rearranged_h_0048.sdf

> <i_m_source_file_index>
68

> <r_mmod_Potential_Energy-OPLS-2005>
-112.860282897949

> <r_mmod_Stretch_Energy-OPLS-2005>
115.047370910645

> <r_mmod_Bend_Energy-OPLS-2005>
177.923187255859

> <r_mmod_Torsional_Energy-OPLS-2005>
266.117858886719

> <r_mmod_Improper_Torsional_Energy-OPLS-2005>
8.6266975402832

> <r_mmod_Van_der_Waal_Energy-OPLS-2005>
148.654495239258

> <r_mmod_Electrostatic_Energy-OPLS-2005>
-679.305725097656

> <r_mmod_Solvation_Energy-OPLS-2005>
-211.601409912109

> <b_mmod_Minimization_Converged-OPLS-2005>
0

> <r_mmod_RMS_Derivative-OPLS-2005>
2.60667824745178

$$$$
69
                    3D
 Structure written by MMmdl.
159167  0  0  1  0            999 V2000
  -30.6513  -14.7227   20.4782 C   0  0  0  0  0  0
  -30.4392  -12.4469   19.4764 C   0  0  0  0  0  0
  -29.5014  -12.4888   18.2485 C   0  0  0  0  0  0
  -28.0330  -12.3235   18.6761 C   0  0  0  0  0  0
  -27.6467  -13.2354   19.8693 C   0  0  2  0  0  0
  -28.6971  -13.1576   20.9999 C   0  0  0  0  0  0
  -25.2492  -13.8202   20.5704 C   0  0  0  0  0  0
  -24.1789  -13.0421   20.9234 C   0  0  0  0  0  0
  -24.6411  -11.6920   20.8800 C   0  0  0  0  0  0
  -23.9107  -10.4289   21.0444 C   0  0  0  0  0  0
  -24.3646   -9.4186   21.9191 C   0  0  0  0  0  0
  -23.6301   -8.2232   22.0745 C   0  0  0  0  0  0
  -22.4296   -8.0290   21.3523 C   0  0  0  0  0  0
  -21.9941   -9.0284   20.4636 C   0  0  0  0  0  0
  -22.7304  -10.2142   20.3069 C   0  0  0  0  0  0
  -21.6829   -6.0729   22.5268 C   0  0  0  0  0  0
  -21.4009   -6.5634   23.8209 C   0  0  0  0  0  0
  -21.3668   -5.6784   24.9165 C   0  0  0  0  0  0
  -21.6061   -4.3053   24.7226 C   0  0  0  0  0  0
  -21.8824   -3.8147   23.4347 C   0  0  0  0  0  0
  -21.9202   -4.6955   22.3395 C   0  0  0  0  0  0
  -22.7815  -13.5204   21.1904 C   0  0  0  0  0  0
  -22.1653   -4.2137   21.0969 F   0  0  0  0  0  0
  -21.5665   -3.4543   25.7738 F   0  0  0  0  0  0
  -30.0040  -13.5061   20.4169 N   0  0  0  0  0  0
  -26.2963  -12.9428   20.3422 N   0  0  0  0  0  0
  -25.9357  -11.6567   20.5868 N   0  0  0  0  0  0
  -22.0520  -12.8115   22.0446 N   0  0  0  0  0  0
  -25.4182  -15.1878   20.4084 N   0  0  0  0  0  0
  -31.8229  -14.8211   20.1066 O   0  0  0  0  0  0
  -21.6637   -6.8890   21.4233 O   0  0  0  0  0  0
  -22.3455  -14.5504   20.6785 O   0  0  0  0  0  0
  -24.6303  -31.8480   23.1945 C   0  0  0  0  0  0
  -25.9115  -32.4675   23.8276 C   0  0  1  0  0  0
  -27.2454  -27.2569   20.1239 C   0  0  0  0  0  0
  -25.5858  -33.8467   24.2171 N   0  0  0  0  0  0
  -23.4314  -30.4695   21.5370 C   0  0  2  0  0  0
  -24.8892  -28.9099   20.1138 C   0  0  0  0  0  0
  -22.7483  -29.4599   22.4879 C   0  0  0  0  0  0
  -18.0220  -28.1450   22.8442 C   0  0  0  0  0  0
  -24.1474  -36.7305   23.2648 C   0  0  0  0  0  0
  -25.9805  -30.7485   21.3954 C   0  0  0  0  0  0
  -26.0543  -29.3772   20.7262 C   0  0  0  0  0  0
  -27.2310  -28.5637   20.7186 C   0  0  0  0  0  0
  -26.0549  -26.8476   19.4849 C   0  0  0  0  0  0
  -24.8935  -27.6537   19.4876 C   0  0  0  0  0  0
  -23.6601  -29.7980   20.1562 C   0  0  0  0  0  0
  -25.4093  -36.3028   24.0297 C   0  0  1  0  0  0
  -20.5856  -28.3785   23.1226 C   0  0  2  0  0  0
  -20.6779  -26.9488   22.5439 C   0  0  0  0  0  0
  -19.5755  -26.6424   21.5254 C   0  0  0  0  0  0
  -18.1900  -26.7961   22.1622 C   0  0  0  0  0  0
  -19.1488  -28.8928   23.2794 C   0  0  0  0  0  0
  -18.9449  -30.1540   23.8814 C   0  0  0  0  0  0
  -17.6462  -30.6636   24.0588 C   0  0  0  0  0  0
  -25.9019  -34.9383   23.5065 C   0  0  0  0  0  0
  -16.5339  -29.9160   23.6357 C   0  0  0  0  0  0
  -16.7225  -28.6631   23.0308 C   0  0  0  0  0  0
  -26.4462  -31.6544   25.0745 C   0  0  0  0  0  0
  -25.3621  -31.3844   26.1461 C   0  0  0  0  0  0
  -27.0412  -30.2871   24.6529 C   0  0  0  0  0  0
  -27.5917  -32.4432   25.7501 C   0  0  0  0  0  0
  -27.5557  -37.1753   24.8404 C   0  0  0  0  0  0
  -21.4191  -29.3082   22.3570 N   0  0  0  0  0  0
  -26.4259  -37.3737   23.9403 N   0  0  0  0  0  0
  -24.6971  -31.0431   22.0940 N   0  0  0  0  0  0
  -23.4159  -28.8146   23.3012 O   0  0  0  0  0  0
  -28.3940  -26.4271   20.2021 O   0  0  0  0  0  0
  -26.5650  -34.8880   22.4668 O   0  0  0  0  0  0
  -23.5434  -32.1320   23.7195 O   0  0  0  0  0  0
  -28.4485  -21.0092   20.4720 C   0  0  0  0  0  0
  -29.0895  -22.3133   20.5411 C   0  0  0  0  0  0
  -29.4120  -19.9959   20.4118 C   0  0  0  0  0  0
  -29.0749  -18.1636   18.6884 C   0  0  0  0  0  0
  -27.8491  -17.9966   20.8054 C   0  0  0  0  0  0
  -31.9922  -20.2799   20.5211 C   0  0  0  0  0  0
  -28.5214  -23.7768   20.8275 C   0  0  0  0  0  0
  -30.3033  -17.3454   20.7550 C   0  0  0  0  0  0
  -28.4966  -24.9875   19.7554 C   0  0  0  0  0  0
  -29.2163  -18.4183   20.2065 C   0  0  0  0  0  0
  -30.4009  -22.0880   20.5541 N   0  0  0  0  0  0
  -30.6066  -20.7315   20.4772 N   0  0  0  0  0  0
  -29.9199  -15.8545   20.7828 N   0  0  0  0  0  0
  -31.4744  -12.5766   19.1511 H   0  0  0  0  0  0
  -30.4049  -11.4734   19.9681 H   0  0  0  0  0  0
  -29.7713  -11.6991   17.5481 H   0  0  0  0  0  0
  -29.6225  -13.4330   17.7196 H   0  0  0  0  0  0
  -27.8974  -11.2785   18.9554 H   0  0  0  0  0  0
  -27.3640  -12.5006   17.8340 H   0  0  0  0  0  0
  -27.6504  -14.2581   19.4888 H   0  0  0  0  0  0
  -28.7194  -12.1529   21.4299 H   0  0  0  0  0  0
  -28.4317  -13.8303   21.8179 H   0  0  0  0  0  0
  -25.2816   -9.5621   22.4736 H   0  0  0  0  0  0
  -24.0026   -7.4596   22.7419 H   0  0  0  0  0  0
  -21.0906   -8.8840   19.8879 H   0  0  0  0  0  0
  -22.3840  -10.9695   19.6155 H   0  0  0  0  0  0
  -21.1973   -7.6132   23.9694 H   0  0  0  0  0  0
  -21.1486   -6.0515   25.9063 H   0  0  0  0  0  0
  -22.0597   -2.7602   23.2851 H   0  0  0  0  0  0
  -22.4263  -11.9805   22.4786 H   0  0  0  0  0  0
  -21.1122  -13.1020   22.2729 H   0  0  0  0  0  0
  -24.6617  -15.8543   20.5234 H   0  0  0  0  0  0
  -26.2751  -15.6097   20.0738 H   0  0  0  0  0  0
  -26.7175  -32.5294   23.0990 H   0  0  0  0  0  0
  -24.9855  -33.9553   25.0211 H   0  0  0  0  0  0
  -22.7314  -31.2899   21.3804 H   0  0  0  0  0  0
  -23.3744  -35.9615   23.3275 H   0  0  0  0  0  0
  -24.3496  -36.9065   22.2075 H   0  0  0  0  0  0
  -23.7304  -37.6500   23.6764 H   0  0  0  0  0  0
  -26.1391  -31.5139   20.6345 H   0  0  0  0  0  0
  -26.8398  -30.7685   22.0571 H   0  0  0  0  0  0
  -28.1291  -28.9283   21.1996 H   0  0  0  0  0  0
  -25.9876  -25.8937   18.9839 H   0  0  0  0  0  0
  -23.9936  -27.2961   19.0050 H   0  0  0  0  0  0
  -23.7910  -30.5689   19.3957 H   0  0  0  0  0  0
  -22.7755  -29.2382   19.8527 H   0  0  0  0  0  0
  -25.1279  -36.1816   25.0787 H   0  0  0  0  0  0
  -20.9839  -28.3484   24.1382 H   0  0  0  0  0  0
  -20.5823  -26.2396   23.3667 H   0  0  0  0  0  0
  -21.6633  -26.7613   22.1179 H   0  0  0  0  0  0
  -19.6965  -25.6329   21.1309 H   0  0  0  0  0  0
  -19.6733  -27.3231   20.6793 H   0  0  0  0  0  0
  -17.4202  -26.6662   21.4006 H   0  0  0  0  0  0
  -18.0284  -26.0067   22.9003 H   0  0  0  0  0  0
  -19.7949  -30.7326   24.2188 H   0  0  0  0  0  0
  -17.5050  -31.6262   24.5281 H   0  0  0  0  0  0
  -15.5360  -30.3079   23.7781 H   0  0  0  0  0  0
  -15.8591  -28.1024   22.7034 H   0  0  0  0  0  0
  -24.5559  -30.7494   25.7812 H   0  0  0  0  0  0
  -24.9107  -32.3145   26.4938 H   0  0  0  0  0  0
  -25.7777  -30.8877   27.0231 H   0  0  0  0  0  0
  -26.3151  -29.6448   24.1563 H   0  0  0  0  0  0
  -27.3969  -29.7314   25.5237 H   0  0  0  0  0  0
  -27.9037  -30.4096   23.9964 H   0  0  0  0  0  0
  -27.2411  -33.3731   26.2001 H   0  0  0  0  0  0
  -28.3727  -32.7086   25.0365 H   0  0  0  0  0  0
  -28.0587  -31.8674   26.5519 H   0  0  0  0  0  0
  -28.2486  -38.0134   24.7483 H   0  0  0  0  0  0
  -28.1153  -36.2640   24.6184 H   0  0  0  0  0  0
  -27.2181  -37.1332   25.8773 H   0  0  0  0  0  0
  -20.9435  -29.8826   21.6736 H   0  0  0  0  0  0
  -26.0107  -38.2769   24.1527 H   0  0  0  0  0  0
  -27.3782  -20.8398   20.4856 H   0  0  0  0  0  0
  -28.2944  -18.7912   18.2580 H   0  0  0  0  0  0
  -28.7941  -17.1326   18.4664 H   0  0  0  0  0  0
  -29.9907  -18.3679   18.1303 H   0  0  0  0  0  0
  -27.0200  -18.5452   20.3596 H   0  0  0  0  0  0
  -27.8031  -18.1405   21.8825 H   0  0  0  0  0  0
  -27.6254  -16.9469   20.6174 H   0  0  0  0  0  0
  -32.2354  -19.7078   19.6302 H   0  0  0  0  0  0
  -32.1655  -19.6740   21.4136 H   0  0  0  0  0  0
  -32.6797  -21.1319   20.5587 H   0  0  0  0  0  0
  -29.0771  -24.1519   21.6878 H   0  0  0  0  0  0
  -27.5018  -23.6720   21.1966 H   0  0  0  0  0  0
  -30.5663  -17.6265   21.7775 H   0  0  0  0  0  0
  -31.2270  -17.4659   20.1827 H   0  0  0  0  0  0
  -27.7745  -24.7667   18.9757 H   0  0  0  0  0  0
  -29.4566  -24.9523   19.2370 H   0  0  0  0  0  0
  -28.9852  -15.6646   21.1134 H   0  0  0  0  0  0
  1 25  1  0  0  0
  1 30  2  0  0  0
  1 83  1  0  0  0
  2  3  1  0  0  0
  2 25  1  0  0  0
  2 84  1  0  0  0
  2 85  1  0  0  0
  3  4  1  0  0  0
  3 86  1  0  0  0
  3 87  1  0  0  0
  4  5  1  0  0  0
  4 88  1  0  0  0
  4 89  1  0  0  0
  5  6  1  0  0  0
  5 26  1  0  0  0
  5 90  1  0  0  0
  6 25  1  0  0  0
  6 91  1  0  0  0
  6 92  1  0  0  0
  7  8  2  0  0  0
  7 26  1  0  0  0
  7 29  1  0  0  0
  8  9  1  0  0  0
  8 22  1  0  0  0
  9 10  1  0  0  0
  9 27  2  0  0  0
 10 11  2  0  0  0
 10 15  1  0  0  0
 11 12  1  0  0  0
 11 93  1  0  0  0
 12 13  2  0  0  0
 12 94  1  0  0  0
 13 14  1  0  0  0
 13 31  1  0  0  0
 14 15  2  0  0  0
 14 95  1  0  0  0
 15 96  1  0  0  0
 16 17  2  0  0  0
 16 21  1  0  0  0
 16 31  1  0  0  0
 17 18  1  0  0  0
 17 97  1  0  0  0
 18 19  2  0  0  0
 18 98  1  0  0  0
 19 20  1  0  0  0
 19 24  1  0  0  0
 20 21  2  0  0  0
 20 99  1  0  0  0
 21 23  1  0  0  0
 22 28  1  0  0  0
 22 32  2  0  0  0
 26 27  1  0  0  0
 28100  1  0  0  0
 28101  1  0  0  0
 29102  1  0  0  0
 29103  1  0  0  0
 33 34  1  0  0  0
 33 66  1  0  0  0
 33 70  2  0  0  0
 34 36  1  0  0  0
 34 59  1  0  0  0
 34104  1  0  0  0
 35 44  2  0  0  0
 35 45  1  0  0  0
 35 68  1  0  0  0
 36 56  1  0  0  0
 36105  1  0  0  0
 37 39  1  0  0  0
 37 47  1  0  0  0
 37 66  1  0  0  0
 37106  1  0  0  0
 38 43  2  0  0  0
 38 46  1  0  0  0
 38 47  1  0  0  0
 39 64  1  0  0  0
 39 67  2  0  0  0
 40 52  1  0  0  0
 40 53  2  0  0  0
 40 58  1  0  0  0
 41107  1  0  0  0
 41108  1  0  0  0
 41109  1  0  0  0
 41 48  1  0  0  0
 42 43  1  0  0  0
 42 66  1  0  0  0
 42110  1  0  0  0
 42111  1  0  0  0
 43 44  1  0  0  0
 44112  1  0  0  0
 45 46  2  0  0  0
 45113  1  0  0  0
 46114  1  0  0  0
 47115  1  0  0  0
 47116  1  0  0  0
 48 56  1  0  0  0
 48 65  1  0  0  0
 48117  1  0  0  0
 49 50  1  0  0  0
 49 53  1  0  0  0
 49 64  1  0  0  0
 49118  1  0  0  0
 50 51  1  0  0  0
 50119  1  0  0  0
 50120  1  0  0  0
 51 52  1  0  0  0
 51121  1  0  0  0
 51122  1  0  0  0
 52123  1  0  0  0
 52124  1  0  0  0
 53 54  1  0  0  0
 54 55  2  0  0  0
 54125  1  0  0  0
 55 57  1  0  0  0
 55126  1  0  0  0
 56 69  2  0  0  0
 57 58  2  0  0  0
 57127  1  0  0  0
 58128  1  0  0  0
 59 60  1  0  0  0
 59 61  1  0  0  0
 59 62  1  0  0  0
 60129  1  0  0  0
 60130  1  0  0  0
 60131  1  0  0  0
 61132  1  0  0  0
 61133  1  0  0  0
 61134  1  0  0  0
 62135  1  0  0  0
 62136  1  0  0  0
 62137  1  0  0  0
 63 65  1  0  0  0
 63138  1  0  0  0
 63139  1  0  0  0
 63140  1  0  0  0
 64141  1  0  0  0
 65142  1  0  0  0
 68 79  1  0  0  0
 71 72  1  0  0  0
 71 73  2  0  0  0
 71143  1  0  0  0
 72 77  1  0  0  0
 72 81  2  0  0  0
 73 80  1  0  0  0
 73 82  1  0  0  0
 74144  1  0  0  0
 74145  1  0  0  0
 74146  1  0  0  0
 74 80  1  0  0  0
 75 80  1  0  0  0
 75147  1  0  0  0
 75148  1  0  0  0
 75149  1  0  0  0
 76 82  1  0  0  0
 76150  1  0  0  0
 76151  1  0  0  0
 76152  1  0  0  0
 77 79  1  0  0  0
 77153  1  0  0  0
 77154  1  0  0  0
 78 80  1  0  0  0
 78 83  1  0  0  0
 78155  1  0  0  0
 78156  1  0  0  0
 79157  1  0  0  0
 79158  1  0  0  0
 81 82  1  0  0  0
 83159  1  0  0  0
M  ISO  4   1 100  68 101  79 101  83 100
M  END
> <chiral flag>
0

> <version>
0

> <s_m_source_file>
/data/baiqing/PycharmProjects/Reinvent-master-3.2/result/LINK_invent/BTK/process_docking_weight1_custom_sum_contain_oxygen_bond_distance_aromatic_linkinvent_7_9_3/rearranged_h_0048.sdf

> <i_m_source_file_index>
69

> <r_mmod_Potential_Energy-OPLS-2005>
78.1283416748047

> <r_mmod_Stretch_Energy-OPLS-2005>
128.042266845703

> <r_mmod_Bend_Energy-OPLS-2005>
198.638626098633

> <r_mmod_Torsional_Energy-OPLS-2005>
212.7490234375

> <r_mmod_Improper_Torsional_Energy-OPLS-2005>
4.90221071243286

> <r_mmod_Van_der_Waal_Energy-OPLS-2005>
112.483993530273

> <r_mmod_Electrostatic_Energy-OPLS-2005>
-435.404144287109

> <r_mmod_Solvation_Energy-OPLS-2005>
-222.16633605957

> <b_mmod_Minimization_Converged-OPLS-2005>
0

> <r_mmod_RMS_Derivative-OPLS-2005>
7.92462587356567

$$$$
70
                    3D
 Structure written by MMmdl.
165173  0  0  1  0            999 V2000
  -30.7080  -14.5596   20.5619 C   0  0  0  0  0  0
  -30.4128  -12.3613   19.4482 C   0  0  0  0  0  0
  -29.4947  -12.5157   18.2197 C   0  0  0  0  0  0
  -28.0175  -12.3651   18.6277 C   0  0  0  0  0  0
  -27.6496  -13.2268   19.8657 C   0  0  2  0  0  0
  -28.6904  -13.0793   20.9986 C   0  0  0  0  0  0
  -25.2522  -13.8210   20.5700 C   0  0  0  0  0  0
  -24.1806  -13.0446   20.9199 C   0  0  0  0  0  0
  -24.6395  -11.6933   20.8731 C   0  0  0  0  0  0
  -23.9056  -10.4307   21.0391 C   0  0  0  0  0  0
  -24.3609   -9.4221   21.9167 C   0  0  0  0  0  0
  -23.6291   -8.2248   22.0748 C   0  0  0  0  0  0
  -22.4270   -8.0281   21.3541 C   0  0  0  0  0  0
  -21.9908   -9.0249   20.4641 C   0  0  0  0  0  0
  -22.7227  -10.2131   20.3043 C   0  0  0  0  0  0
  -21.6851   -6.0735   22.5285 C   0  0  0  0  0  0
  -21.4017   -6.5640   23.8215 C   0  0  0  0  0  0
  -21.3661   -5.6788   24.9177 C   0  0  0  0  0  0
  -21.6044   -4.3050   24.7218 C   0  0  0  0  0  0
  -21.8817   -3.8143   23.4338 C   0  0  0  0  0  0
  -21.9197   -4.6970   22.3398 C   0  0  0  0  0  0
  -22.7821  -13.5223   21.1855 C   0  0  0  0  0  0
  -22.1662   -4.2162   21.0972 F   0  0  0  0  0  0
  -21.5626   -3.4534   25.7728 F   0  0  0  0  0  0
  -30.0165  -13.3830   20.4393 N   0  0  0  0  0  0
  -26.2964  -12.9417   20.3332 N   0  0  0  0  0  0
  -25.9324  -11.6556   20.5739 N   0  0  0  0  0  0
  -22.0457  -12.8198   22.0409 N   0  0  0  0  0  0
  -25.4220  -15.1921   20.4107 N   0  0  0  0  0  0
  -31.8096  -14.7106   20.0266 O   0  0  0  0  0  0
  -21.6648   -6.8872   21.4235 O   0  0  0  0  0  0
  -22.3510  -14.5533   20.6728 O   0  0  0  0  0  0
  -24.6214  -31.8611   23.2065 C   0  0  0  0  0  0
  -25.9077  -32.4795   23.8369 C   0  0  1  0  0  0
  -27.2247  -27.3665   20.1112 C   0  0  0  0  0  0
  -25.5901  -33.8599   24.2305 N   0  0  0  0  0  0
  -23.4138  -30.4831   21.5504 C   0  0  2  0  0  0
  -24.8571  -28.9413   20.1152 C   0  0  0  0  0  0
  -22.7470  -29.4606   22.4997 C   0  0  0  0  0  0
  -18.0282  -28.1368   22.8481 C   0  0  0  0  0  0
  -24.1477  -36.7312   23.2642 C   0  0  0  0  0  0
  -25.9470  -30.8091   21.3655 C   0  0  0  0  0  0
  -26.0244  -29.4370   20.7129 C   0  0  0  0  0  0
  -27.2159  -28.6611   20.7004 C   0  0  0  0  0  0
  -26.0407  -26.9064   19.4971 C   0  0  0  0  0  0
  -24.8642  -27.6783   19.4996 C   0  0  0  0  0  0
  -23.6253  -29.8194   20.1643 C   0  0  0  0  0  0
  -25.4098  -36.3098   24.0338 C   0  0  1  0  0  0
  -20.5887  -28.3651   23.1327 C   0  0  2  0  0  0
  -20.6781  -26.9387   22.5414 C   0  0  0  0  0  0
  -19.5756  -26.6377   21.5213 C   0  0  0  0  0  0
  -18.1932  -26.7920   22.1609 C   0  0  0  0  0  0
  -19.1534  -28.8825   23.2895 C   0  0  0  0  0  0
  -18.9448  -30.1440   23.8882 C   0  0  0  0  0  0
  -17.6449  -30.6566   24.0566 C   0  0  0  0  0  0
  -25.9029  -34.9463   23.5119 C   0  0  0  0  0  0
  -16.5341  -29.9064   23.6339 C   0  0  0  0  0  0
  -16.7274  -28.6496   23.0336 C   0  0  0  0  0  0
  -26.4480  -31.6575   25.0707 C   0  0  0  0  0  0
  -25.3723  -31.3679   26.1437 C   0  0  0  0  0  0
  -27.0320  -30.3017   24.6097 C   0  0  0  0  0  0
  -27.6066  -32.4275   25.7471 C   0  0  0  0  0  0
  -27.5579  -37.1809   24.8478 C   0  0  0  0  0  0
  -21.4189  -29.3019   22.3743 N   0  0  0  0  0  0
  -26.4291  -37.3780   23.9412 N   0  0  0  0  0  0
  -24.6806  -31.0662   22.0992 N   0  0  0  0  0  0
  -23.4218  -28.8152   23.3072 O   0  0  0  0  0  0
  -28.3461  -26.5433   20.1191 O   0  0  0  0  0  0
  -26.5609  -34.8920   22.4692 O   0  0  0  0  0  0
  -23.5403  -32.1396   23.7420 O   0  0  0  0  0  0
  -30.8475  -19.9454   20.0633 C   0  0  0  0  0  0
  -29.2041  -21.3042   20.4541 C   0  0  0  0  0  0
  -28.7017  -20.0035   20.3289 C   0  0  0  0  0  0
  -27.2981  -19.5051   20.4462 C   0  0  0  0  0  0
  -32.6874  -17.2898   23.7542 C   0  0  0  0  0  0
  -28.5303  -22.6208   20.8962 C   0  0  0  0  0  0
  -31.9950  -16.9286   22.4365 C   0  0  0  0  0  0
  -28.7424  -23.9411   20.0543 C   0  0  0  0  0  0
  -29.8345  -17.6609   19.8053 C   0  0  0  0  0  0
  -30.8815  -15.8708   22.6066 C   0  0  0  0  0  0
  -29.2831  -16.6626   20.8892 C   0  0  0  0  0  0
  -28.1711  -25.2355   20.7560 C   0  0  0  0  0  0
  -30.5864  -21.2342   20.2872 N   0  0  0  0  0  0
  -29.7835  -19.1276   20.0887 N   0  0  0  0  0  0
  -30.1900  -15.5549   21.3446 N   0  0  0  0  0  0
  -31.4611  -12.4419   19.1508 H   0  0  0  0  0  0
  -30.3097  -11.3648   19.8806 H   0  0  0  0  0  0
  -29.7517  -11.7755   17.4610 H   0  0  0  0  0  0
  -29.6539  -13.4932   17.7603 H   0  0  0  0  0  0
  -27.8354  -11.3102   18.8359 H   0  0  0  0  0  0
  -27.3708  -12.6211   17.7874 H   0  0  0  0  0  0
  -27.6686  -14.2638   19.5314 H   0  0  0  0  0  0
  -28.6817  -12.0632   21.3939 H   0  0  0  0  0  0
  -28.4367  -13.7278   21.8390 H   0  0  0  0  0  0
  -25.2745   -9.5705   22.4746 H   0  0  0  0  0  0
  -24.0009   -7.4638   22.7465 H   0  0  0  0  0  0
  -21.0840   -8.8742   19.8946 H   0  0  0  0  0  0
  -22.3664  -10.9657   19.6149 H   0  0  0  0  0  0
  -21.2012   -7.6150   23.9721 H   0  0  0  0  0  0
  -21.1488   -6.0521   25.9080 H   0  0  0  0  0  0
  -22.0599   -2.7610   23.2830 H   0  0  0  0  0  0
  -22.4075  -11.9840   22.4756 H   0  0  0  0  0  0
  -21.1069  -13.1214   22.2624 H   0  0  0  0  0  0
  -24.6538  -15.8436   20.5239 H   0  0  0  0  0  0
  -26.2739  -15.6303   20.0864 H   0  0  0  0  0  0
  -26.7148  -32.5479   23.1129 H   0  0  0  0  0  0
  -25.0054  -33.9745   25.0455 H   0  0  0  0  0  0
  -22.7048  -31.3009   21.4136 H   0  0  0  0  0  0
  -23.3727  -35.9661   23.3315 H   0  0  0  0  0  0
  -24.3588  -36.8915   22.2060 H   0  0  0  0  0  0
  -23.7229  -37.6519   23.6649 H   0  0  0  0  0  0
  -26.0590  -31.5711   20.5939 H   0  0  0  0  0  0
  -26.8358  -30.8712   21.9821 H   0  0  0  0  0  0
  -28.1154  -29.0354   21.1707 H   0  0  0  0  0  0
  -26.0223  -25.9340   19.0259 H   0  0  0  0  0  0
  -23.9709  -27.2955   19.0257 H   0  0  0  0  0  0
  -23.7434  -30.5975   19.4102 H   0  0  0  0  0  0
  -22.7448  -29.2508   19.8597 H   0  0  0  0  0  0
  -25.1265  -36.1981   25.0832 H   0  0  0  0  0  0
  -20.9951  -28.3187   24.1464 H   0  0  0  0  0  0
  -20.5729  -26.2238   23.3592 H   0  0  0  0  0  0
  -21.6643  -26.7455   22.1171 H   0  0  0  0  0  0
  -19.6931  -25.6298   21.1219 H   0  0  0  0  0  0
  -19.6689  -27.3205   20.6761 H   0  0  0  0  0  0
  -17.4209  -26.6675   21.3998 H   0  0  0  0  0  0
  -18.0308  -26.0051   22.8989 H   0  0  0  0  0  0
  -19.7931  -30.7271   24.2220 H   0  0  0  0  0  0
  -17.5002  -31.6249   24.5158 H   0  0  0  0  0  0
  -15.5342  -30.2948   23.7671 H   0  0  0  0  0  0
  -15.8689  -28.0829   22.7024 H   0  0  0  0  0  0
  -24.5933  -30.6986   25.7765 H   0  0  0  0  0  0
  -24.8863  -32.2823   26.4841 H   0  0  0  0  0  0
  -25.8057  -30.8882   27.0225 H   0  0  0  0  0  0
  -26.2894  -29.6790   24.1100 H   0  0  0  0  0  0
  -27.4046  -29.7234   25.4566 H   0  0  0  0  0  0
  -27.8722  -30.4336   23.9277 H   0  0  0  0  0  0
  -27.2721  -33.3597   26.2034 H   0  0  0  0  0  0
  -28.3879  -32.6785   25.0283 H   0  0  0  0  0  0
  -28.0713  -31.8381   26.5384 H   0  0  0  0  0  0
  -28.2609  -38.0101   24.7518 H   0  0  0  0  0  0
  -28.1057  -36.2633   24.6298 H   0  0  0  0  0  0
  -27.2309  -37.1446   25.8887 H   0  0  0  0  0  0
  -20.9369  -29.8747   21.6953 H   0  0  0  0  0  0
  -26.0179  -38.2859   24.1415 H   0  0  0  0  0  0
  -31.8462  -19.5790   19.8691 H   0  0  0  0  0  0
  -26.5790  -20.3250   20.4423 H   0  0  0  0  0  0
  -27.1689  -18.9400   21.3695 H   0  0  0  0  0  0
  -27.0491  -18.8436   19.6164 H   0  0  0  0  0  0
  -33.4359  -18.0684   23.5937 H   0  0  0  0  0  0
  -33.2003  -16.4324   24.1912 H   0  0  0  0  0  0
  -31.9683  -17.6612   24.4857 H   0  0  0  0  0  0
  -28.8646  -22.8376   21.9100 H   0  0  0  0  0  0
  -27.4572  -22.4586   20.9993 H   0  0  0  0  0  0
  -32.7471  -16.5817   21.7281 H   0  0  0  0  0  0
  -31.5777  -17.8409   22.0133 H   0  0  0  0  0  0
  -28.2776  -23.8188   19.0773 H   0  0  0  0  0  0
  -29.8099  -24.0806   19.8753 H   0  0  0  0  0  0
  -29.2985  -17.4980   18.8694 H   0  0  0  0  0  0
  -30.8701  -17.4056   19.5752 H   0  0  0  0  0  0
  -30.1538  -16.2048   23.3484 H   0  0  0  0  0  0
  -31.3110  -14.9557   23.0203 H   0  0  0  0  0  0
  -28.3722  -16.2075   20.5048 H   0  0  0  0  0  0
  -28.9480  -17.2365   21.7533 H   0  0  0  0  0  0
  -28.6557  -25.3224   21.7291 H   0  0  0  0  0  0
  -27.1226  -25.0546   20.9948 H   0  0  0  0  0  0
  1 25  1  0  0  0
  1 30  2  0  0  0
  1 85  1  0  0  0
  2  3  1  0  0  0
  2 25  1  0  0  0
  2 86  1  0  0  0
  2 87  1  0  0  0
  3  4  1  0  0  0
  3 88  1  0  0  0
  3 89  1  0  0  0
  4  5  1  0  0  0
  4 90  1  0  0  0
  4 91  1  0  0  0
  5  6  1  0  0  0
  5 26  1  0  0  0
  5 92  1  0  0  0
  6 25  1  0  0  0
  6 93  1  0  0  0
  6 94  1  0  0  0
  7  8  2  0  0  0
  7 26  1  0  0  0
  7 29  1  0  0  0
  8  9  1  0  0  0
  8 22  1  0  0  0
  9 10  1  0  0  0
  9 27  2  0  0  0
 10 11  2  0  0  0
 10 15  1  0  0  0
 11 12  1  0  0  0
 11 95  1  0  0  0
 12 13  2  0  0  0
 12 96  1  0  0  0
 13 14  1  0  0  0
 13 31  1  0  0  0
 14 15  2  0  0  0
 14 97  1  0  0  0
 15 98  1  0  0  0
 16 17  2  0  0  0
 16 21  1  0  0  0
 16 31  1  0  0  0
 17 18  1  0  0  0
 17 99  1  0  0  0
 18 19  2  0  0  0
 18100  1  0  0  0
 19 20  1  0  0  0
 19 24  1  0  0  0
 20 21  2  0  0  0
 20101  1  0  0  0
 21 23  1  0  0  0
 22 28  1  0  0  0
 22 32  2  0  0  0
 26 27  1  0  0  0
 28102  1  0  0  0
 28103  1  0  0  0
 29104  1  0  0  0
 29105  1  0  0  0
 33 34  1  0  0  0
 33 66  1  0  0  0
 33 70  2  0  0  0
 34 36  1  0  0  0
 34 59  1  0  0  0
 34106  1  0  0  0
 35 44  2  0  0  0
 35 45  1  0  0  0
 35 68  1  0  0  0
 36 56  1  0  0  0
 36107  1  0  0  0
 37 39  1  0  0  0
 37 47  1  0  0  0
 37 66  1  0  0  0
 37108  1  0  0  0
 38 43  2  0  0  0
 38 46  1  0  0  0
 38 47  1  0  0  0
 39 64  1  0  0  0
 39 67  2  0  0  0
 40 52  1  0  0  0
 40 53  2  0  0  0
 40 58  1  0  0  0
 41109  1  0  0  0
 41110  1  0  0  0
 41111  1  0  0  0
 41 48  1  0  0  0
 42 43  1  0  0  0
 42 66  1  0  0  0
 42112  1  0  0  0
 42113  1  0  0  0
 43 44  1  0  0  0
 44114  1  0  0  0
 45 46  2  0  0  0
 45115  1  0  0  0
 46116  1  0  0  0
 47117  1  0  0  0
 47118  1  0  0  0
 48 56  1  0  0  0
 48 65  1  0  0  0
 48119  1  0  0  0
 49 50  1  0  0  0
 49 53  1  0  0  0
 49 64  1  0  0  0
 49120  1  0  0  0
 50 51  1  0  0  0
 50121  1  0  0  0
 50122  1  0  0  0
 51 52  1  0  0  0
 51123  1  0  0  0
 51124  1  0  0  0
 52125  1  0  0  0
 52126  1  0  0  0
 53 54  1  0  0  0
 54 55  2  0  0  0
 54127  1  0  0  0
 55 57  1  0  0  0
 55128  1  0  0  0
 56 69  2  0  0  0
 57 58  2  0  0  0
 57129  1  0  0  0
 58130  1  0  0  0
 59 60  1  0  0  0
 59 61  1  0  0  0
 59 62  1  0  0  0
 60131  1  0  0  0
 60132  1  0  0  0
 60133  1  0  0  0
 61134  1  0  0  0
 61135  1  0  0  0
 61136  1  0  0  0
 62137  1  0  0  0
 62138  1  0  0  0
 62139  1  0  0  0
 63 65  1  0  0  0
 63140  1  0  0  0
 63141  1  0  0  0
 63142  1  0  0  0
 64143  1  0  0  0
 65144  1  0  0  0
 68 82  1  0  0  0
 71 83  2  0  0  0
 71 84  1  0  0  0
 71145  1  0  0  0
 72 73  2  0  0  0
 72 76  1  0  0  0
 72 83  1  0  0  0
 73 74  1  0  0  0
 73 84  1  0  0  0
 74146  1  0  0  0
 74147  1  0  0  0
 74148  1  0  0  0
 75 77  1  0  0  0
 75149  1  0  0  0
 75150  1  0  0  0
 75151  1  0  0  0
 76 78  1  0  0  0
 76152  1  0  0  0
 76153  1  0  0  0
 77 80  1  0  0  0
 77154  1  0  0  0
 77155  1  0  0  0
 78 82  1  0  0  0
 78156  1  0  0  0
 78157  1  0  0  0
 79 81  1  0  0  0
 79 84  1  0  0  0
 79158  1  0  0  0
 79159  1  0  0  0
 80 85  1  0  0  0
 80160  1  0  0  0
 80161  1  0  0  0
 81 85  1  0  0  0
 81162  1  0  0  0
 81163  1  0  0  0
 82164  1  0  0  0
 82165  1  0  0  0
M  ISO  4   1 100  68 101  82 101  85 100
M  END
> <chiral flag>
0

> <version>
0

> <s_m_source_file>
/data/baiqing/PycharmProjects/Reinvent-master-3.2/result/LINK_invent/BTK/process_docking_weight1_custom_sum_contain_oxygen_bond_distance_aromatic_linkinvent_7_9_3/rearranged_h_0048.sdf

> <i_m_source_file_index>
70

> <r_mmod_Potential_Energy-OPLS-2005>
153.790023803711

> <r_mmod_Stretch_Energy-OPLS-2005>
63.5215644836426

> <r_mmod_Bend_Energy-OPLS-2005>
132.810165405273

> <r_mmod_Torsional_Energy-OPLS-2005>
328.86669921875

> <r_mmod_Improper_Torsional_Energy-OPLS-2005>
4.06169605255127

> <r_mmod_Van_der_Waal_Energy-OPLS-2005>
109.423919677734

> <r_mmod_Electrostatic_Energy-OPLS-2005>
-306.158264160156

> <r_mmod_Solvation_Energy-OPLS-2005>
-207.239471435547

> <b_mmod_Minimization_Converged-OPLS-2005>
0

> <r_mmod_RMS_Derivative-OPLS-2005>
2.57143139839172

$$$$
71
                    3D
 Structure written by MMmdl.
163171  0  0  1  0            999 V2000
  -30.5435  -14.7651   20.4870 C   0  0  0  0  0  0
  -30.4386  -12.4748   19.4731 C   0  0  0  0  0  0
  -29.5086  -12.5004   18.2392 C   0  0  0  0  0  0
  -28.0369  -12.3111   18.6635 C   0  0  0  0  0  0
  -27.6368  -13.2223   19.8536 C   0  0  2  0  0  0
  -28.6731  -13.1426   20.9943 C   0  0  0  0  0  0
  -25.2439  -13.8185   20.5620 C   0  0  0  0  0  0
  -24.1755  -13.0430   20.9212 C   0  0  0  0  0  0
  -24.6355  -11.6923   20.8774 C   0  0  0  0  0  0
  -23.9051  -10.4287   21.0420 C   0  0  0  0  0  0
  -24.3603   -9.4172   21.9185 C   0  0  0  0  0  0
  -23.6271   -8.2206   22.0735 C   0  0  0  0  0  0
  -22.4251   -8.0261   21.3525 C   0  0  0  0  0  0
  -21.9896   -9.0237   20.4613 C   0  0  0  0  0  0
  -22.7235  -10.2110   20.3029 C   0  0  0  0  0  0
  -21.6820   -6.0732   22.5276 C   0  0  0  0  0  0
  -21.4010   -6.5641   23.8222 C   0  0  0  0  0  0
  -21.3636   -5.6785   24.9176 C   0  0  0  0  0  0
  -21.6048   -4.3050   24.7220 C   0  0  0  0  0  0
  -21.8825   -3.8154   23.4340 C   0  0  0  0  0  0
  -21.9158   -4.6965   22.3390 C   0  0  0  0  0  0
  -22.7781  -13.5167   21.1935 C   0  0  0  0  0  0
  -22.1602   -4.2153   21.0968 F   0  0  0  0  0  0
  -21.5629   -3.4524   25.7721 F   0  0  0  0  0  0
  -29.9686  -13.5170   20.4170 N   0  0  0  0  0  0
  -26.2877  -12.9376   20.3253 N   0  0  0  0  0  0
  -25.9268  -11.6555   20.5792 N   0  0  0  0  0  0
  -22.0458  -12.8082   22.0485 N   0  0  0  0  0  0
  -25.4085  -15.1915   20.3945 N   0  0  0  0  0  0
  -31.7265  -14.9161   20.1614 O   0  0  0  0  0  0
  -21.6612   -6.8863   21.4232 O   0  0  0  0  0  0
  -22.3416  -14.5471   20.6830 O   0  0  0  0  0  0
  -24.6389  -31.8478   23.1973 C   0  0  0  0  0  0
  -25.9209  -32.4712   23.8285 C   0  0  1  0  0  0
  -27.1892  -27.2405   20.1338 C   0  0  0  0  0  0
  -25.6027  -33.8499   24.2244 N   0  0  0  0  0  0
  -23.4235  -30.4781   21.5388 C   0  0  2  0  0  0
  -24.8620  -28.9254   20.0926 C   0  0  0  0  0  0
  -22.7503  -29.4567   22.4890 C   0  0  0  0  0  0
  -18.0278  -28.1460   22.8532 C   0  0  0  0  0  0
  -24.1457  -36.7189   23.2637 C   0  0  0  0  0  0
  -25.9675  -30.7706   21.3581 C   0  0  0  0  0  0
  -26.0348  -29.3872   20.7085 C   0  0  0  0  0  0
  -27.1952  -28.5529   20.7208 C   0  0  0  0  0  0
  -26.0005  -26.8482   19.4838 C   0  0  0  0  0  0
  -24.8522  -27.6681   19.4665 C   0  0  0  0  0  0
  -23.6366  -29.8171   20.1493 C   0  0  0  0  0  0
  -25.4074  -36.2984   24.0356 C   0  0  1  0  0  0
  -20.5899  -28.3703   23.1323 C   0  0  2  0  0  0
  -20.6775  -26.9431   22.5418 C   0  0  0  0  0  0
  -19.5733  -26.6446   21.5260 C   0  0  0  0  0  0
  -18.1905  -26.8011   22.1645 C   0  0  0  0  0  0
  -19.1539  -28.8905   23.2912 C   0  0  0  0  0  0
  -18.9446  -30.1522   23.8906 C   0  0  0  0  0  0
  -17.6440  -30.6652   24.0587 C   0  0  0  0  0  0
  -25.9048  -34.9393   23.5067 C   0  0  0  0  0  0
  -16.5335  -29.9142   23.6390 C   0  0  0  0  0  0
  -16.7263  -28.6577   23.0395 C   0  0  0  0  0  0
  -26.4584  -31.6551   25.0663 C   0  0  0  0  0  0
  -25.3844  -31.3652   26.1386 C   0  0  0  0  0  0
  -27.0431  -30.3023   24.6024 C   0  0  0  0  0  0
  -27.6090  -32.4302   25.7498 C   0  0  0  0  0  0
  -27.5490  -37.1732   24.8476 C   0  0  0  0  0  0
  -21.4211  -29.3032   22.3691 N   0  0  0  0  0  0
  -26.4186  -37.3746   23.9476 N   0  0  0  0  0  0
  -24.6983  -31.0479   22.0924 N   0  0  0  0  0  0
  -23.4238  -28.8080   23.2927 O   0  0  0  0  0  0
  -28.2804  -26.3503   20.2445 O   0  0  0  0  0  0
  -26.5500  -34.8893   22.4562 O   0  0  0  0  0  0
  -23.5556  -32.1189   23.7368 O   0  0  0  0  0  0
  -26.7574  -23.0708   20.3894 C   0  0  0  0  0  0
  -27.9906  -23.6103   20.1239 C   0  0  0  0  0  0
  -28.1832  -21.3202   20.6265 C   0  0  0  0  0  0
  -24.6625  -21.0324   19.7335 C   0  0  0  0  0  0
  -24.8914  -21.5022   22.1975 C   0  0  0  0  0  0
  -25.8053  -19.4165   21.2086 C   0  0  0  0  0  0
  -28.4031  -25.0274   19.5354 C   0  0  0  0  0  0
  -28.9803  -19.9850   21.0471 C   0  0  0  0  0  0
  -28.8281  -18.4466   20.5031 C   0  0  0  0  0  0
  -29.9921  -17.3579   20.8350 C   0  0  0  0  0  0
  -25.6112  -20.9176   20.9554 C   0  0  0  0  0  0
  -26.8649  -21.7062   20.6699 N   0  0  0  0  0  0
  -28.8226  -22.4872   20.2873 N   0  3  0  0  0  0
  -29.7099  -15.8521   20.7417 N   0  0  0  0  0  0
  -31.4715  -12.6434   19.1663 H   0  0  0  0  0  0
  -30.4174  -11.4975   19.9576 H   0  0  0  0  0  0
  -29.7945  -11.7151   17.5382 H   0  0  0  0  0  0
  -29.6227  -13.4440   17.7045 H   0  0  0  0  0  0
  -27.9179  -11.2655   18.9504 H   0  0  0  0  0  0
  -27.3700  -12.4671   17.8149 H   0  0  0  0  0  0
  -27.6358  -14.2427   19.4706 H   0  0  0  0  0  0
  -28.7201  -12.1384   21.4212 H   0  0  0  0  0  0
  -28.3969  -13.8067   21.8132 H   0  0  0  0  0  0
  -25.2743   -9.5627   22.4768 H   0  0  0  0  0  0
  -23.9977   -7.4573   22.7411 H   0  0  0  0  0  0
  -21.0851   -8.8752   19.8881 H   0  0  0  0  0  0
  -22.3725  -10.9642   19.6114 H   0  0  0  0  0  0
  -21.2047   -7.6159   23.9733 H   0  0  0  0  0  0
  -21.1419   -6.0506   25.9076 H   0  0  0  0  0  0
  -22.0629   -2.7618   23.2835 H   0  0  0  0  0  0
  -22.4136  -11.9693   22.4731 H   0  0  0  0  0  0
  -21.1078  -13.1025   22.2799 H   0  0  0  0  0  0
  -24.6367  -15.8371   20.5125 H   0  0  0  0  0  0
  -26.2485  -15.6418   20.0594 H   0  0  0  0  0  0
  -26.7265  -32.5322   23.1012 H   0  0  0  0  0  0
  -25.0539  -33.9663   25.0624 H   0  0  0  0  0  0
  -22.7245  -31.3040   21.4047 H   0  0  0  0  0  0
  -23.3745  -35.9481   23.3276 H   0  0  0  0  0  0
  -24.3579  -36.8812   22.2055 H   0  0  0  0  0  0
  -23.7174  -37.6374   23.6657 H   0  0  0  0  0  0
  -26.0785  -31.5301   20.5805 H   0  0  0  0  0  0
  -26.8604  -30.8391   21.9656 H   0  0  0  0  0  0
  -28.0849  -28.8996   21.2246 H   0  0  0  0  0  0
  -25.9200  -25.8760   19.0248 H   0  0  0  0  0  0
  -23.9547  -27.3160   18.9725 H   0  0  0  0  0  0
  -23.7460  -30.5953   19.3930 H   0  0  0  0  0  0
  -22.7523  -29.2488   19.8510 H   0  0  0  0  0  0
  -25.1284  -36.1737   25.0847 H   0  0  0  0  0  0
  -21.0021  -28.3217   24.1432 H   0  0  0  0  0  0
  -20.5755  -26.2291   23.3591 H   0  0  0  0  0  0
  -21.6623  -26.7510   22.1127 H   0  0  0  0  0  0
  -19.6843  -25.6364   21.1251 H   0  0  0  0  0  0
  -19.6685  -27.3286   20.6812 H   0  0  0  0  0  0
  -17.4199  -26.6889   21.3977 H   0  0  0  0  0  0
  -18.0173  -26.0155   22.9028 H   0  0  0  0  0  0
  -19.7928  -30.7390   24.2217 H   0  0  0  0  0  0
  -17.5003  -31.6332   24.5177 H   0  0  0  0  0  0
  -15.5317  -30.3040   23.7754 H   0  0  0  0  0  0
  -15.8681  -28.0922   22.7075 H   0  0  0  0  0  0
  -24.6183  -30.6791   25.7765 H   0  0  0  0  0  0
  -24.8863  -32.2802   26.4587 H   0  0  0  0  0  0
  -25.8271  -30.9066   27.0247 H   0  0  0  0  0  0
  -26.2970  -29.6769   24.1111 H   0  0  0  0  0  0
  -27.4300  -29.7256   25.4419 H   0  0  0  0  0  0
  -27.8784  -30.4399   23.9160 H   0  0  0  0  0  0
  -27.2696  -33.3716   26.1832 H   0  0  0  0  0  0
  -28.4091  -32.6624   25.0462 H   0  0  0  0  0  0
  -28.0528  -31.8537   26.5619 H   0  0  0  0  0  0
  -28.2464  -38.0059   24.7564 H   0  0  0  0  0  0
  -28.1012  -36.2586   24.6248 H   0  0  0  0  0  0
  -27.2250  -37.1339   25.8886 H   0  0  0  0  0  0
  -20.9354  -29.8781   21.6963 H   0  0  0  0  0  0
  -26.0000  -38.2762   24.1585 H   0  0  0  0  0  0
  -25.7980  -23.5659   20.3532 H   0  0  0  0  0  0
  -23.7615  -20.4278   19.8595 H   0  0  0  0  0  0
  -25.1463  -20.6948   18.8153 H   0  0  0  0  0  0
  -24.3182  -22.0524   19.5569 H   0  0  0  0  0  0
  -23.9460  -20.9853   22.3825 H   0  0  0  0  0  0
  -24.6573  -22.5651   22.0923 H   0  0  0  0  0  0
  -25.4910  -21.3988   23.1029 H   0  0  0  0  0  0
  -24.8609  -18.9378   21.4757 H   0  0  0  0  0  0
  -26.4818  -19.2251   22.0386 H   0  0  0  0  0  0
  -26.1472  -18.9152   20.3040 H   0  0  0  0  0  0
  -27.9515  -25.1138   18.5474 H   0  0  0  0  0  0
  -29.4633  -24.9409   19.3037 H   0  0  0  0  0  0
  -28.8699  -19.9490   22.1295 H   0  0  0  0  0  0
  -30.0243  -20.2608   20.8928 H   0  0  0  0  0  0
  -28.6780  -18.4629   19.4211 H   0  0  0  0  0  0
  -27.9319  -18.0000   20.9210 H   0  0  0  0  0  0
  -30.3140  -17.5285   21.8643 H   0  0  0  0  0  0
  -30.8659  -17.5889   20.2218 H   0  0  0  0  0  0
  -29.8246  -22.5287   20.1429 H   0  0  0  0  0  0
  -28.7651  -15.5902   20.9799 H   0  0  0  0  0  0
  1 25  1  0  0  0
  1 30  2  0  0  0
  1 84  1  0  0  0
  2  3  1  0  0  0
  2 25  1  0  0  0
  2 85  1  0  0  0
  2 86  1  0  0  0
  3  4  1  0  0  0
  3 87  1  0  0  0
  3 88  1  0  0  0
  4  5  1  0  0  0
  4 89  1  0  0  0
  4 90  1  0  0  0
  5  6  1  0  0  0
  5 26  1  0  0  0
  5 91  1  0  0  0
  6 25  1  0  0  0
  6 92  1  0  0  0
  6 93  1  0  0  0
  7  8  2  0  0  0
  7 26  1  0  0  0
  7 29  1  0  0  0
  8  9  1  0  0  0
  8 22  1  0  0  0
  9 10  1  0  0  0
  9 27  2  0  0  0
 10 11  2  0  0  0
 10 15  1  0  0  0
 11 12  1  0  0  0
 11 94  1  0  0  0
 12 13  2  0  0  0
 12 95  1  0  0  0
 13 14  1  0  0  0
 13 31  1  0  0  0
 14 15  2  0  0  0
 14 96  1  0  0  0
 15 97  1  0  0  0
 16 17  2  0  0  0
 16 21  1  0  0  0
 16 31  1  0  0  0
 17 18  1  0  0  0
 17 98  1  0  0  0
 18 19  2  0  0  0
 18 99  1  0  0  0
 19 20  1  0  0  0
 19 24  1  0  0  0
 20 21  2  0  0  0
 20100  1  0  0  0
 21 23  1  0  0  0
 22 28  1  0  0  0
 22 32  2  0  0  0
 26 27  1  0  0  0
 28101  1  0  0  0
 28102  1  0  0  0
 29103  1  0  0  0
 29104  1  0  0  0
 33 34  1  0  0  0
 33 66  1  0  0  0
 33 70  2  0  0  0
 34 36  1  0  0  0
 34 59  1  0  0  0
 34105  1  0  0  0
 35 44  2  0  0  0
 35 45  1  0  0  0
 35 68  1  0  0  0
 36 56  1  0  0  0
 36106  1  0  0  0
 37 39  1  0  0  0
 37 47  1  0  0  0
 37 66  1  0  0  0
 37107  1  0  0  0
 38 43  2  0  0  0
 38 46  1  0  0  0
 38 47  1  0  0  0
 39 64  1  0  0  0
 39 67  2  0  0  0
 40 52  1  0  0  0
 40 53  2  0  0  0
 40 58  1  0  0  0
 41108  1  0  0  0
 41109  1  0  0  0
 41110  1  0  0  0
 41 48  1  0  0  0
 42 43  1  0  0  0
 42 66  1  0  0  0
 42111  1  0  0  0
 42112  1  0  0  0
 43 44  1  0  0  0
 44113  1  0  0  0
 45 46  2  0  0  0
 45114  1  0  0  0
 46115  1  0  0  0
 47116  1  0  0  0
 47117  1  0  0  0
 48 56  1  0  0  0
 48 65  1  0  0  0
 48118  1  0  0  0
 49 50  1  0  0  0
 49 53  1  0  0  0
 49 64  1  0  0  0
 49119  1  0  0  0
 50 51  1  0  0  0
 50120  1  0  0  0
 50121  1  0  0  0
 51 52  1  0  0  0
 51122  1  0  0  0
 51123  1  0  0  0
 52124  1  0  0  0
 52125  1  0  0  0
 53 54  1  0  0  0
 54 55  2  0  0  0
 54126  1  0  0  0
 55 57  1  0  0  0
 55127  1  0  0  0
 56 69  2  0  0  0
 57 58  2  0  0  0
 57128  1  0  0  0
 58129  1  0  0  0
 59 60  1  0  0  0
 59 61  1  0  0  0
 59 62  1  0  0  0
 60130  1  0  0  0
 60131  1  0  0  0
 60132  1  0  0  0
 61133  1  0  0  0
 61134  1  0  0  0
 61135  1  0  0  0
 62136  1  0  0  0
 62137  1  0  0  0
 62138  1  0  0  0
 63 65  1  0  0  0
 63139  1  0  0  0
 63140  1  0  0  0
 63141  1  0  0  0
 64142  1  0  0  0
 65143  1  0  0  0
 68 77  1  0  0  0
 71 72  2  0  0  0
 71 82  1  0  0  0
 71144  1  0  0  0
 72 77  1  0  0  0
 72 83  1  0  0  0
 73 78  1  0  0  0
 73 82  1  0  0  0
 73 83  2  0  0  0
 74145  1  0  0  0
 74146  1  0  0  0
 74147  1  0  0  0
 74 81  1  0  0  0
 75 81  1  0  0  0
 75148  1  0  0  0
 75149  1  0  0  0
 75150  1  0  0  0
 76 81  1  0  0  0
 76151  1  0  0  0
 76152  1  0  0  0
 76153  1  0  0  0
 77154  1  0  0  0
 77155  1  0  0  0
 78 79  1  0  0  0
 78156  1  0  0  0
 78157  1  0  0  0
 79 80  1  0  0  0
 79158  1  0  0  0
 79159  1  0  0  0
 80 84  1  0  0  0
 80160  1  0  0  0
 80161  1  0  0  0
 81 82  1  0  0  0
 83162  1  0  0  0
 84163  1  0  0  0
M  CHG  1  83   1
M  ISO  4   1 100  68 101  77 101  84 100
M  END
> <chiral flag>
0

> <version>
0

> <s_m_source_file>
/data/baiqing/PycharmProjects/Reinvent-master-3.2/result/LINK_invent/BTK/process_docking_weight1_custom_sum_contain_oxygen_bond_distance_aromatic_linkinvent_7_9_3/rearranged_h_0048.sdf

> <i_m_source_file_index>
71

> <r_mmod_Potential_Energy-OPLS-2005>
187.036209106445

> <r_mmod_Stretch_Energy-OPLS-2005>
141.920822143555

> <r_mmod_Bend_Energy-OPLS-2005>
229.590408325195

> <r_mmod_Torsional_Energy-OPLS-2005>
253.705276489258

> <r_mmod_Improper_Torsional_Energy-OPLS-2005>
5.70009469985962

> <r_mmod_Van_der_Waal_Energy-OPLS-2005>
120.514251708984

> <r_mmod_Electrostatic_Energy-OPLS-2005>
-243.679077148438

> <r_mmod_Solvation_Energy-OPLS-2005>
-421.280853271484

> <b_mmod_Minimization_Converged-OPLS-2005>
0

> <r_mmod_RMS_Derivative-OPLS-2005>
7.08705234527588

$$$$
72
                    3D
 Structure written by MMmdl.
169177  0  0  1  0            999 V2000
  -30.7626  -14.3968   20.6544 C   0  0  0  0  0  0
  -30.4170  -12.2981   19.4038 C   0  0  0  0  0  0
  -29.4841  -12.5106   18.1966 C   0  0  0  0  0  0
  -28.0089  -12.3697   18.6158 C   0  0  0  0  0  0
  -27.6632  -13.2056   19.8760 C   0  0  2  0  0  0
  -28.7032  -12.9724   20.9944 C   0  0  0  0  0  0
  -25.2592  -13.8166   20.5683 C   0  0  0  0  0  0
  -24.1840  -13.0442   20.9177 C   0  0  0  0  0  0
  -24.6395  -11.6913   20.8733 C   0  0  0  0  0  0
  -23.9064  -10.4295   21.0404 C   0  0  0  0  0  0
  -24.3610   -9.4214   21.9185 C   0  0  0  0  0  0
  -23.6287   -8.2248   22.0755 C   0  0  0  0  0  0
  -22.4272   -8.0283   21.3544 C   0  0  0  0  0  0
  -21.9908   -9.0259   20.4644 C   0  0  0  0  0  0
  -22.7238  -10.2137   20.3051 C   0  0  0  0  0  0
  -21.6854   -6.0738   22.5278 C   0  0  0  0  0  0
  -21.4014   -6.5643   23.8215 C   0  0  0  0  0  0
  -21.3654   -5.6791   24.9175 C   0  0  0  0  0  0
  -21.6042   -4.3053   24.7222 C   0  0  0  0  0  0
  -21.8818   -3.8148   23.4343 C   0  0  0  0  0  0
  -21.9197   -4.6966   22.3400 C   0  0  0  0  0  0
  -22.7862  -13.5248   21.1836 C   0  0  0  0  0  0
  -22.1663   -4.2153   21.0976 F   0  0  0  0  0  0
  -21.5627   -3.4534   25.7733 F   0  0  0  0  0  0
  -30.0420  -13.2632   20.4488 N   0  0  0  0  0  0
  -26.3031  -12.9334   20.3377 N   0  0  0  0  0  0
  -25.9322  -11.6496   20.5772 N   0  0  0  0  0  0
  -22.0492  -12.8232   22.0377 N   0  0  0  0  0  0
  -25.4334  -15.1879   20.4094 N   0  0  0  0  0  0
  -31.8207  -14.6394   20.0692 O   0  0  0  0  0  0
  -21.6639   -6.8876   21.4240 O   0  0  0  0  0  0
  -22.3557  -14.5565   20.6701 O   0  0  0  0  0  0
  -24.6123  -31.8689   23.2107 C   0  0  0  0  0  0
  -25.9032  -32.4825   23.8389 C   0  0  1  0  0  0
  -27.2460  -27.4551   20.0748 C   0  0  0  0  0  0
  -25.5911  -33.8622   24.2334 N   0  0  0  0  0  0
  -23.3987  -30.4918   21.5509 C   0  0  2  0  0  0
  -24.8440  -28.9553   20.1157 C   0  0  0  0  0  0
  -22.7393  -29.4664   22.5001 C   0  0  0  0  0  0
  -18.0271  -28.1373   22.8498 C   0  0  0  0  0  0
  -24.1486  -36.7298   23.2633 C   0  0  0  0  0  0
  -25.9248  -30.8369   21.3609 C   0  0  0  0  0  0
  -26.0007  -29.4712   20.7104 C   0  0  0  0  0  0
  -27.1974  -28.7235   20.6951 C   0  0  0  0  0  0
  -26.0600  -26.9357   19.5027 C   0  0  0  0  0  0
  -24.8663  -27.6834   19.5169 C   0  0  0  0  0  0
  -23.6051  -29.8205   20.1659 C   0  0  0  0  0  0
  -25.4107  -36.3112   24.0342 C   0  0  1  0  0  0
  -20.5858  -28.3656   23.1329 C   0  0  2  0  0  0
  -20.6759  -26.9396   22.5422 C   0  0  0  0  0  0
  -19.5747  -26.6383   21.5211 C   0  0  0  0  0  0
  -18.1923  -26.7925   22.1615 C   0  0  0  0  0  0
  -19.1518  -28.8829   23.2912 C   0  0  0  0  0  0
  -18.9448  -30.1440   23.8916 C   0  0  0  0  0  0
  -17.6450  -30.6583   24.0566 C   0  0  0  0  0  0
  -25.9042  -34.9480   23.5136 C   0  0  0  0  0  0
  -16.5339  -29.9085   23.6325 C   0  0  0  0  0  0
  -16.7260  -28.6501   23.0346 C   0  0  0  0  0  0
  -26.4474  -31.6600   25.0709 C   0  0  0  0  0  0
  -25.3757  -31.3682   26.1467 C   0  0  0  0  0  0
  -27.0308  -30.3059   24.6051 C   0  0  0  0  0  0
  -27.6059  -32.4314   25.7463 C   0  0  0  0  0  0
  -27.5595  -37.1786   24.8449 C   0  0  0  0  0  0
  -21.4122  -29.3026   22.3735 N   0  0  0  0  0  0
  -26.4279  -37.3809   23.9439 N   0  0  0  0  0  0
  -24.6635  -31.0801   22.0999 N   0  0  0  0  0  0
  -23.4175  -28.8217   23.3044 O   0  0  0  0  0  0
  -28.4546  -26.7892   20.0852 O   0  0  0  0  0  0
  -26.5593  -34.8932   22.4688 O   0  0  0  0  0  0
  -23.5325  -32.1433   23.7522 O   0  0  0  0  0  0
  -28.3863  -23.8712   21.0060 C   0  0  0  0  0  0
  -29.0099  -22.7008   21.3429 C   0  0  0  0  0  0
  -30.0366  -23.5409   19.5386 C   0  0  0  0  0  0
  -29.0444  -24.4262   19.8697 C   0  0  0  0  0  0
  -29.1520  -19.1062   22.2680 C   0  0  0  0  0  0
  -31.9479  -19.5835   18.8741 C   0  0  0  0  0  0
  -28.9710  -18.6495   18.5910 C   0  0  0  0  0  0
  -28.7260  -25.7290   19.1644 C   0  0  0  0  0  0
  -30.9632  -17.6650   21.1320 C   0  0  0  0  0  0
  -30.9909  -21.3811   20.4396 C   0  0  0  0  0  0
  -30.9507  -16.4391   22.0793 C   0  0  0  0  0  0
  -29.6225  -18.4242   20.9682 C   0  0  2  0  0  0
  -30.6680  -20.2719   19.4054 C   0  0  2  0  0  0
  -30.0340  -22.4858   20.4378 N   0  0  0  0  0  0
  -30.2556  -15.2596   21.5483 N   0  0  0  0  0  0
  -29.5344  -19.3469   19.7776 N   0  3  1  0  0  0
  -31.4595  -12.3969   19.0949 H   0  0  0  0  0  0
  -30.3202  -11.2823   19.7889 H   0  0  0  0  0  0
  -29.7169  -11.7902   17.4115 H   0  0  0  0  0  0
  -29.6537  -13.4990   17.7669 H   0  0  0  0  0  0
  -27.8186  -11.3130   18.8099 H   0  0  0  0  0  0
  -27.3544  -12.6471   17.7890 H   0  0  0  0  0  0
  -27.7151  -14.2556   19.5878 H   0  0  0  0  0  0
  -28.6700  -11.9358   21.3322 H   0  0  0  0  0  0
  -28.4528  -13.5673   21.8727 H   0  0  0  0  0  0
  -25.2755   -9.5693   22.4762 H   0  0  0  0  0  0
  -23.9999   -7.4639   22.7475 H   0  0  0  0  0  0
  -21.0842   -8.8775   19.8949 H   0  0  0  0  0  0
  -22.3702  -10.9671   19.6152 H   0  0  0  0  0  0
  -21.2000   -7.6150   23.9720 H   0  0  0  0  0  0
  -21.1474   -6.0519   25.9077 H   0  0  0  0  0  0
  -22.0600   -2.7613   23.2842 H   0  0  0  0  0  0
  -22.4088  -11.9872   22.4737 H   0  0  0  0  0  0
  -21.1112  -13.1257   22.2575 H   0  0  0  0  0  0
  -24.6707  -15.8469   20.5209 H   0  0  0  0  0  0
  -26.2915  -15.6226   20.0948 H   0  0  0  0  0  0
  -26.7099  -32.5544   23.1150 H   0  0  0  0  0  0
  -25.0118  -33.9792   25.0518 H   0  0  0  0  0  0
  -22.6875  -31.3089   21.4124 H   0  0  0  0  0  0
  -23.3779  -35.9594   23.3242 H   0  0  0  0  0  0
  -24.3611  -36.8961   22.2060 H   0  0  0  0  0  0
  -23.7179  -37.6465   23.6676 H   0  0  0  0  0  0
  -26.0343  -31.6030   20.5917 H   0  0  0  0  0  0
  -26.8142  -30.8910   21.9770 H   0  0  0  0  0  0
  -28.0922  -29.1241   21.1510 H   0  0  0  0  0  0
  -26.0265  -25.9535   19.0562 H   0  0  0  0  0  0
  -23.9715  -27.2713   19.0706 H   0  0  0  0  0  0
  -23.7099  -30.5941   19.4045 H   0  0  0  0  0  0
  -22.7290  -29.2390   19.8733 H   0  0  0  0  0  0
  -25.1268  -36.1967   25.0830 H   0  0  0  0  0  0
  -20.9955  -28.3212   24.1447 H   0  0  0  0  0  0
  -20.5661  -26.2260   23.3602 H   0  0  0  0  0  0
  -21.6629  -26.7449   22.1211 H   0  0  0  0  0  0
  -19.6913  -25.6302   21.1224 H   0  0  0  0  0  0
  -19.6697  -27.3203   20.6752 H   0  0  0  0  0  0
  -17.4202  -26.6695   21.4004 H   0  0  0  0  0  0
  -18.0316  -26.0052   22.8993 H   0  0  0  0  0  0
  -19.7927  -30.7250   24.2286 H   0  0  0  0  0  0
  -17.5010  -31.6264   24.5164 H   0  0  0  0  0  0
  -15.5340  -30.2991   23.7649 H   0  0  0  0  0  0
  -15.8661  -28.0828   22.7044 H   0  0  0  0  0  0
  -24.5931  -30.7029   25.7805 H   0  0  0  0  0  0
  -24.8947  -32.2825   26.4953 H   0  0  0  0  0  0
  -25.8129  -30.8828   27.0203 H   0  0  0  0  0  0
  -26.2836  -29.6809   24.1146 H   0  0  0  0  0  0
  -27.4154  -29.7300   25.4477 H   0  0  0  0  0  0
  -27.8637  -30.4402   23.9143 H   0  0  0  0  0  0
  -27.2694  -33.3619   26.2044 H   0  0  0  0  0  0
  -28.3865  -32.6855   25.0281 H   0  0  0  0  0  0
  -28.0729  -31.8428   26.5368 H   0  0  0  0  0  0
  -28.2533  -38.0161   24.7630 H   0  0  0  0  0  0
  -28.1166  -36.2706   24.6097 H   0  0  0  0  0  0
  -27.2343  -37.1212   25.8850 H   0  0  0  0  0  0
  -20.9280  -29.8745   21.6956 H   0  0  0  0  0  0
  -26.0159  -38.2868   24.1517 H   0  0  0  0  0  0
  -27.5505  -24.3062   21.5373 H   0  0  0  0  0  0
  -28.8216  -22.0164   22.1594 H   0  0  0  0  0  0
  -30.7712  -23.5849   18.7437 H   0  0  0  0  0  0
  -28.9454  -18.3658   23.0406 H   0  0  0  0  0  0
  -28.2235  -19.6563   22.1164 H   0  0  0  0  0  0
  -29.8887  -19.7864   22.6883 H   0  0  0  0  0  0
  -32.5526  -20.3027   18.3206 H   0  0  0  0  0  0
  -31.7334  -18.7675   18.1857 H   0  0  0  0  0  0
  -32.5907  -19.2079   19.6672 H   0  0  0  0  0  0
  -27.9916  -18.2255   18.8153 H   0  0  0  0  0  0
  -29.6161  -17.8328   18.2651 H   0  0  0  0  0  0
  -28.8312  -19.3273   17.7489 H   0  0  0  0  0  0
  -27.9704  -25.5690   18.3989 H   0  0  0  0  0  0
  -29.6180  -26.0275   18.6128 H   0  0  0  0  0  0
  -31.3191  -17.3267   20.1599 H   0  0  0  0  0  0
  -31.7104  -18.3618   21.5129 H   0  0  0  0  0  0
  -31.9611  -21.8158   20.1917 H   0  0  0  0  0  0
  -31.1196  -20.9951   21.4467 H   0  0  0  0  0  0
  -30.5193  -16.6979   23.0465 H   0  0  0  0  0  0
  -31.9830  -16.1558   22.2946 H   0  0  0  0  0  0
  -28.8720  -17.6493   20.8013 H   0  0  0  0  0  0
  -30.2985  -20.8189   18.5366 H   0  0  0  0  0  0
  -29.3859  -14.9932   21.9869 H   0  0  0  0  0  0
  -28.7921  -19.9867   20.0244 H   0  0  0  0  0  0
  1 25  1  0  0  0
  1 30  2  0  0  0
  1 85  1  0  0  0
  2  3  1  0  0  0
  2 25  1  0  0  0
  2 87  1  0  0  0
  2 88  1  0  0  0
  3  4  1  0  0  0
  3 89  1  0  0  0
  3 90  1  0  0  0
  4  5  1  0  0  0
  4 91  1  0  0  0
  4 92  1  0  0  0
  5  6  1  0  0  0
  5 26  1  0  0  0
  5 93  1  0  0  0
  6 25  1  0  0  0
  6 94  1  0  0  0
  6 95  1  0  0  0
  7  8  2  0  0  0
  7 26  1  0  0  0
  7 29  1  0  0  0
  8  9  1  0  0  0
  8 22  1  0  0  0
  9 10  1  0  0  0
  9 27  2  0  0  0
 10 11  2  0  0  0
 10 15  1  0  0  0
 11 12  1  0  0  0
 11 96  1  0  0  0
 12 13  2  0  0  0
 12 97  1  0  0  0
 13 14  1  0  0  0
 13 31  1  0  0  0
 14 15  2  0  0  0
 14 98  1  0  0  0
 15 99  1  0  0  0
 16 17  2  0  0  0
 16 21  1  0  0  0
 16 31  1  0  0  0
 17 18  1  0  0  0
 17100  1  0  0  0
 18 19  2  0  0  0
 18101  1  0  0  0
 19 20  1  0  0  0
 19 24  1  0  0  0
 20 21  2  0  0  0
 20102  1  0  0  0
 21 23  1  0  0  0
 22 28  1  0  0  0
 22 32  2  0  0  0
 26 27  1  0  0  0
 28103  1  0  0  0
 28104  1  0  0  0
 29105  1  0  0  0
 29106  1  0  0  0
 33 34  1  0  0  0
 33 66  1  0  0  0
 33 70  2  0  0  0
 34 36  1  0  0  0
 34 59  1  0  0  0
 34107  1  0  0  0
 35 44  2  0  0  0
 35 45  1  0  0  0
 35 68  1  0  0  0
 36 56  1  0  0  0
 36108  1  0  0  0
 37 39  1  0  0  0
 37 47  1  0  0  0
 37 66  1  0  0  0
 37109  1  0  0  0
 38 43  2  0  0  0
 38 46  1  0  0  0
 38 47  1  0  0  0
 39 64  1  0  0  0
 39 67  2  0  0  0
 40 52  1  0  0  0
 40 53  2  0  0  0
 40 58  1  0  0  0
 41110  1  0  0  0
 41111  1  0  0  0
 41112  1  0  0  0
 41 48  1  0  0  0
 42 43  1  0  0  0
 42 66  1  0  0  0
 42113  1  0  0  0
 42114  1  0  0  0
 43 44  1  0  0  0
 44115  1  0  0  0
 45 46  2  0  0  0
 45116  1  0  0  0
 46117  1  0  0  0
 47118  1  0  0  0
 47119  1  0  0  0
 48 56  1  0  0  0
 48 65  1  0  0  0
 48120  1  0  0  0
 49 50  1  0  0  0
 49 53  1  0  0  0
 49 64  1  0  0  0
 49121  1  0  0  0
 50 51  1  0  0  0
 50122  1  0  0  0
 50123  1  0  0  0
 51 52  1  0  0  0
 51124  1  0  0  0
 51125  1  0  0  0
 52126  1  0  0  0
 52127  1  0  0  0
 53 54  1  0  0  0
 54 55  2  0  0  0
 54128  1  0  0  0
 55 57  1  0  0  0
 55129  1  0  0  0
 56 69  2  0  0  0
 57 58  2  0  0  0
 57130  1  0  0  0
 58131  1  0  0  0
 59 60  1  0  0  0
 59 61  1  0  0  0
 59 62  1  0  0  0
 60132  1  0  0  0
 60133  1  0  0  0
 60134  1  0  0  0
 61135  1  0  0  0
 61136  1  0  0  0
 61137  1  0  0  0
 62138  1  0  0  0
 62139  1  0  0  0
 62140  1  0  0  0
 63 65  1  0  0  0
 63141  1  0  0  0
 63142  1  0  0  0
 63143  1  0  0  0
 64144  1  0  0  0
 65145  1  0  0  0
 68 78  1  0  0  0
 71 72  2  0  0  0
 71 74  1  0  0  0
 71146  1  0  0  0
 72 84  1  0  0  0
 72147  1  0  0  0
 73 74  2  0  0  0
 73 84  1  0  0  0
 73148  1  0  0  0
 74 78  1  0  0  0
 75149  1  0  0  0
 75150  1  0  0  0
 75151  1  0  0  0
 75 82  1  0  0  0
 76152  1  0  0  0
 76153  1  0  0  0
 76154  1  0  0  0
 76 83  1  0  0  0
 77155  1  0  0  0
 77156  1  0  0  0
 77157  1  0  0  0
 77 86  1  0  0  0
 78158  1  0  0  0
 78159  1  0  0  0
 79 81  1  0  0  0
 79 82  1  0  0  0
 79160  1  0  0  0
 79161  1  0  0  0
 80 83  1  0  0  0
 80 84  1  0  0  0
 80162  1  0  0  0
 80163  1  0  0  0
 81 85  1  0  0  0
 81164  1  0  0  0
 81165  1  0  0  0
 82 86  1  0  0  0
 82166  1  0  0  0
 83 86  1  0  0  0
 83167  1  0  0  0
 85168  1  0  0  0
 86169  1  0  0  0
M  CHG  1  86   1
M  ISO  4   1 100  68 101  78 101  85 100
M  END
> <chiral flag>
0

> <version>
0

> <s_m_source_file>
/data/baiqing/PycharmProjects/Reinvent-master-3.2/result/LINK_invent/BTK/process_docking_weight1_custom_sum_contain_oxygen_bond_distance_aromatic_linkinvent_7_9_3/rearranged_h_0048.sdf

> <i_m_source_file_index>
72

> <r_mmod_Potential_Energy-OPLS-2005>
-96.5279998779297

> <r_mmod_Stretch_Energy-OPLS-2005>
38.2029724121094

> <r_mmod_Bend_Energy-OPLS-2005>
134.535720825195

> <r_mmod_Torsional_Energy-OPLS-2005>
249.630325317383

> <r_mmod_Improper_Torsional_Energy-OPLS-2005>
1.93884778022766

> <r_mmod_Van_der_Waal_Energy-OPLS-2005>
130.874252319336

> <r_mmod_Electrostatic_Energy-OPLS-2005>
-213.247344970703

> <r_mmod_Solvation_Energy-OPLS-2005>
-447.256561279297

> <b_mmod_Minimization_Converged-OPLS-2005>
0

> <r_mmod_RMS_Derivative-OPLS-2005>
1.1023668050766

$$$$
73
                    3D
 Structure written by MMmdl.
184193  0  0  1  0            999 V2000
  -30.5954  -14.8483   20.4471 C   0  0  0  0  0  0
  -30.4453  -12.5206   19.5003 C   0  0  0  0  0  0
  -29.5202  -12.5131   18.2609 C   0  0  0  0  0  0
  -28.0518  -12.3149   18.6795 C   0  0  0  0  0  0
  -27.6434  -13.2371   19.8572 C   0  0  2  0  0  0
  -28.6881  -13.2260   20.9948 C   0  0  0  0  0  0
  -25.2550  -13.8207   20.5742 C   0  0  0  0  0  0
  -24.1823  -13.0432   20.9213 C   0  0  0  0  0  0
  -24.6420  -11.6928   20.8763 C   0  0  0  0  0  0
  -23.9075  -10.4291   21.0403 C   0  0  0  0  0  0
  -24.3613   -9.4213   21.9187 C   0  0  0  0  0  0
  -23.6297   -8.2242   22.0751 C   0  0  0  0  0  0
  -22.4281   -8.0273   21.3540 C   0  0  0  0  0  0
  -21.9914   -9.0252   20.4641 C   0  0  0  0  0  0
  -22.7241  -10.2140   20.3062 C   0  0  0  0  0  0
  -21.6837   -6.0729   22.5278 C   0  0  0  0  0  0
  -21.4012   -6.5635   23.8213 C   0  0  0  0  0  0
  -21.3672   -5.6791   24.9176 C   0  0  0  0  0  0
  -21.6050   -4.3054   24.7225 C   0  0  0  0  0  0
  -21.8817   -3.8143   23.4342 C   0  0  0  0  0  0
  -21.9196   -4.6962   22.3399 C   0  0  0  0  0  0
  -22.7862  -13.5248   21.1859 C   0  0  0  0  0  0
  -22.1665   -4.2145   21.0979 F   0  0  0  0  0  0
  -21.5632   -3.4541   25.7739 F   0  0  0  0  0  0
  -29.9824  -13.6040   20.4089 N   0  0  0  0  0  0
  -26.2974  -12.9407   20.3369 N   0  0  0  0  0  0
  -25.9360  -11.6546   20.5804 N   0  0  0  0  0  0
  -22.0509  -12.8212   22.0400 N   0  0  0  0  0  0
  -25.4258  -15.1925   20.4207 N   0  0  0  0  0  0
  -31.7770  -14.9338   20.1010 O   0  0  0  0  0  0
  -21.6643   -6.8867   21.4238 O   0  0  0  0  0  0
  -22.3549  -14.5548   20.6715 O   0  0  0  0  0  0
  -24.6444  -31.8465   23.1967 C   0  0  0  0  0  0
  -25.9227  -32.4690   23.8340 C   0  0  1  0  0  0
  -27.2062  -27.1590   20.1428 C   0  0  0  0  0  0
  -25.5977  -33.8505   24.2227 N   0  0  0  0  0  0
  -23.4464  -30.4741   21.5423 C   0  0  2  0  0  0
  -24.8896  -28.9153   20.1121 C   0  0  0  0  0  0
  -22.7592  -29.4564   22.4857 C   0  0  0  0  0  0
  -18.0316  -28.1406   22.8473 C   0  0  0  0  0  0
  -24.1477  -36.7269   23.2644 C   0  0  0  0  0  0
  -26.0036  -30.7262   21.3957 C   0  0  0  0  0  0
  -26.0708  -29.3438   20.7324 C   0  0  0  0  0  0
  -27.2300  -28.4807   20.7368 C   0  0  0  0  0  0
  -26.0003  -26.8488   19.4613 C   0  0  0  0  0  0
  -24.8663  -27.6766   19.4659 C   0  0  0  0  0  0
  -23.6709  -29.8202   20.1562 C   0  0  0  0  0  0
  -25.4105  -36.3032   24.0315 C   0  0  1  0  0  0
  -20.5934  -28.3738   23.1205 C   0  0  2  0  0  0
  -20.6809  -26.9437   22.5388 C   0  0  0  0  0  0
  -19.5772  -26.6387   21.5210 C   0  0  0  0  0  0
  -18.1945  -26.7944   22.1608 C   0  0  0  0  0  0
  -19.1578  -28.8890   23.2830 C   0  0  0  0  0  0
  -18.9502  -30.1474   23.8861 C   0  0  0  0  0  0
  -17.6501  -30.6585   24.0576 C   0  0  0  0  0  0
  -25.9065  -34.9403   23.5075 C   0  0  0  0  0  0
  -16.5388  -29.9101   23.6317 C   0  0  0  0  0  0
  -16.7306  -28.6530   23.0329 C   0  0  0  0  0  0
  -26.4552  -31.6559   25.0766 C   0  0  0  0  0  0
  -25.3746  -31.3776   26.1468 C   0  0  0  0  0  0
  -27.0419  -30.2946   24.6366 C   0  0  0  0  0  0
  -27.6059  -32.4369   25.7526 C   0  0  0  0  0  0
  -27.5569  -37.1775   24.8474 C   0  0  0  0  0  0
  -21.4293  -29.3065   22.3597 N   0  0  0  0  0  0
  -26.4277  -37.3738   23.9428 N   0  0  0  0  0  0
  -24.7180  -31.0368   22.0981 N   0  0  0  0  0  0
  -23.4226  -28.8068   23.2981 O   0  0  0  0  0  0
  -28.2258  -26.1419   20.2439 O   0  0  0  0  0  0
  -26.5639  -34.8896   22.4647 O   0  0  0  0  0  0
  -23.5562  -32.1345   23.7167 O   0  0  0  0  0  0
  -29.6285  -22.8457   20.9356 C   0  0  0  0  0  0
  -30.0007  -21.4547   21.1420 C   0  0  0  0  0  0
  -28.4477  -23.2171   20.2185 C   0  0  0  0  0  0
  -27.7599  -22.0379   19.7345 C   0  0  0  0  0  0
  -29.2591  -20.3512   20.6052 C   0  0  0  0  0  0
  -26.4601  -22.1629   18.9712 C   0  0  0  0  0  0
  -23.8827  -20.6889   16.2868 C   0  0  0  0  0  0
  -23.7453  -22.2159   16.3978 C   0  0  0  0  0  0
  -23.1529  -19.9725   17.4207 C   0  0  0  0  0  0
  -23.5821  -22.7669   17.8368 C   0  0  0  0  0  0
  -23.8331  -20.3106   18.7482 C   0  0  0  0  0  0
  -23.9741  -21.8338   19.0221 C   0  0  0  0  0  0
  -25.5260  -22.0349   24.2634 C   0  0  0  0  0  0
  -25.7183  -19.9626   21.8598 C   0  0  0  0  0  0
  -27.7829  -24.6972   19.9535 C   0  0  0  0  0  0
  -29.4004  -18.7781   21.0555 C   0  0  0  0  0  0
  -24.3767  -21.4872   23.4062 C   0  0  0  0  0  0
  -30.0503  -17.5016   20.2225 C   0  0  0  0  0  0
  -25.1754  -22.3753   21.1237 C   0  0  0  0  0  0
  -24.7341  -21.1370   21.9469 C   0  0  1  0  0  0
  -28.1742  -20.7204   19.8775 N   0  0  0  0  0  0
  -29.8298  -16.0098   20.6558 N   0  0  0  0  0  0
  -25.2833  -22.1286   19.6649 N   0  0  0  0  0  0
  -26.5280  -22.2269   17.7408 O   0  0  0  0  0  0
  -31.4825  -12.6602   19.1894 H   0  0  0  0  0  0
  -30.4157  -11.5608   20.0179 H   0  0  0  0  0  0
  -29.8196  -11.7249   17.5687 H   0  0  0  0  0  0
  -29.6203  -13.4542   17.7175 H   0  0  0  0  0  0
  -27.9318  -11.2707   18.9738 H   0  0  0  0  0  0
  -27.3877  -12.4684   17.8281 H   0  0  0  0  0  0
  -27.6237  -14.2470   19.4485 H   0  0  0  0  0  0
  -28.7512  -12.2436   21.4629 H   0  0  0  0  0  0
  -28.4072  -13.9226   21.7861 H   0  0  0  0  0  0
  -25.2750   -9.5700   22.4777 H   0  0  0  0  0  0
  -24.0005   -7.4633   22.7473 H   0  0  0  0  0  0
  -21.0832   -8.8771   19.8944 H   0  0  0  0  0  0
  -22.3683  -10.9683   19.6184 H   0  0  0  0  0  0
  -21.1999   -7.6144   23.9711 H   0  0  0  0  0  0
  -21.1504   -6.0523   25.9077 H   0  0  0  0  0  0
  -22.0590   -2.7598   23.2847 H   0  0  0  0  0  0
  -22.4114  -11.9866   22.4762 H   0  0  0  0  0  0
  -21.1161  -13.1277   22.2637 H   0  0  0  0  0  0
  -24.6607  -15.8488   20.5284 H   0  0  0  0  0  0
  -26.2759  -15.6274   20.0860 H   0  0  0  0  0  0
  -26.7285  -32.5292   23.1070 H   0  0  0  0  0  0
  -25.0108  -33.9632   25.0355 H   0  0  0  0  0  0
  -22.7477  -31.2995   21.3948 H   0  0  0  0  0  0
  -23.3724  -35.9608   23.3290 H   0  0  0  0  0  0
  -24.3582  -36.8942   22.2065 H   0  0  0  0  0  0
  -23.7234  -37.6470   23.6685 H   0  0  0  0  0  0
  -26.1691  -31.4803   20.6252 H   0  0  0  0  0  0
  -26.8716  -30.7674   22.0427 H   0  0  0  0  0  0
  -28.1277  -28.7950   21.2523 H   0  0  0  0  0  0
  -25.8612  -25.9197   18.9327 H   0  0  0  0  0  0
  -23.9661  -27.3387   18.9706 H   0  0  0  0  0  0
  -23.8309  -30.6067   19.4177 H   0  0  0  0  0  0
  -22.7789  -29.2857   19.8236 H   0  0  0  0  0  0
  -25.1267  -36.1886   25.0803 H   0  0  0  0  0  0
  -21.0012  -28.3354   24.1340 H   0  0  0  0  0  0
  -20.5721  -26.2374   23.3621 H   0  0  0  0  0  0
  -21.6661  -26.7459   22.1173 H   0  0  0  0  0  0
  -19.6940  -25.6297   21.1256 H   0  0  0  0  0  0
  -19.6691  -27.3169   20.6708 H   0  0  0  0  0  0
  -17.4218  -26.6689   21.4004 H   0  0  0  0  0  0
  -18.0333  -26.0084   22.8993 H   0  0  0  0  0  0
  -19.7987  -30.7287   24.2202 H   0  0  0  0  0  0
  -17.5072  -31.6251   24.5215 H   0  0  0  0  0  0
  -15.5391  -30.2999   23.7663 H   0  0  0  0  0  0
  -15.8705  -28.0855   22.7016 H   0  0  0  0  0  0
  -24.5937  -30.7071   25.7874 H   0  0  0  0  0  0
  -24.8885  -32.2949   26.4787 H   0  0  0  0  0  0
  -25.8031  -30.9082   27.0325 H   0  0  0  0  0  0
  -26.3048  -29.6662   24.1341 H   0  0  0  0  0  0
  -27.3994  -29.7259   25.4967 H   0  0  0  0  0  0
  -27.8975  -30.4178   23.9722 H   0  0  0  0  0  0
  -27.2626  -33.3711   26.1973 H   0  0  0  0  0  0
  -28.3899  -32.6882   25.0374 H   0  0  0  0  0  0
  -28.0677  -31.8610   26.5559 H   0  0  0  0  0  0
  -28.2554  -38.0098   24.7526 H   0  0  0  0  0  0
  -28.1077  -36.2620   24.6260 H   0  0  0  0  0  0
  -27.2301  -37.1421   25.8881 H   0  0  0  0  0  0
  -20.9491  -29.8877   21.6870 H   0  0  0  0  0  0
  -26.0143  -38.2796   24.1463 H   0  0  0  0  0  0
  -30.2382  -23.6214   21.3738 H   0  0  0  0  0  0
  -30.8531  -21.2381   21.7741 H   0  0  0  0  0  0
  -24.9388  -20.4170   16.3184 H   0  0  0  0  0  0
  -23.5180  -20.3439   15.3171 H   0  0  0  0  0  0
  -22.8737  -22.5272   15.8207 H   0  0  0  0  0  0
  -24.5980  -22.6825   15.9033 H   0  0  0  0  0  0
  -23.1884  -18.8929   17.2618 H   0  0  0  0  0  0
  -22.0974  -20.2520   17.4461 H   0  0  0  0  0  0
  -22.5191  -22.9866   17.9520 H   0  0  0  0  0  0
  -24.0634  -23.7427   17.9266 H   0  0  0  0  0  0
  -24.8165  -19.8375   18.7493 H   0  0  0  0  0  0
  -23.2897  -19.8312   19.5619 H   0  0  0  0  0  0
  -23.2001  -22.0632   19.7579 H   0  0  0  0  0  0
  -25.1569  -22.2911   25.2562 H   0  0  0  0  0  0
  -25.9692  -22.9378   23.8429 H   0  0  0  0  0  0
  -26.3178  -21.2999   24.4001 H   0  0  0  0  0  0
  -25.3303  -19.0770   22.3622 H   0  0  0  0  0  0
  -26.6761  -20.2115   22.3115 H   0  0  0  0  0  0
  -25.9059  -19.6783   20.8256 H   0  0  0  0  0  0
  -26.8204  -24.6059   20.4558 H   0  0  0  0  0  0
  -27.5971  -24.6871   18.8795 H   0  0  0  0  0  0
  -28.3837  -18.4761   21.3080 H   0  0  0  0  0  0
  -29.9110  -18.7988   22.0192 H   0  0  0  0  0  0
  -23.5591  -22.2088   23.4139 H   0  0  0  0  0  0
  -23.9773  -20.5968   23.8908 H   0  0  0  0  0  0
  -31.1233  -17.6716   20.1248 H   0  0  0  0  0  0
  -29.6638  -17.5550   19.2031 H   0  0  0  0  0  0
  -26.0991  -22.7595   21.5482 H   0  0  0  0  0  0
  -24.4655  -23.1907   21.2741 H   0  0  0  0  0  0
  -23.8029  -20.7733   21.5192 H   0  0  0  0  0  0
  -28.8938  -15.8109   20.9791 H   0  0  0  0  0  0
  1 25  1  0  0  0
  1 30  2  0  0  0
  1 92  1  0  0  0
  2  3  1  0  0  0
  2 25  1  0  0  0
  2 95  1  0  0  0
  2 96  1  0  0  0
  3  4  1  0  0  0
  3 97  1  0  0  0
  3 98  1  0  0  0
  4  5  1  0  0  0
  4 99  1  0  0  0
  4100  1  0  0  0
  5  6  1  0  0  0
  5 26  1  0  0  0
  5101  1  0  0  0
  6 25  1  0  0  0
  6102  1  0  0  0
  6103  1  0  0  0
  7  8  2  0  0  0
  7 26  1  0  0  0
  7 29  1  0  0  0
  8  9  1  0  0  0
  8 22  1  0  0  0
  9 10  1  0  0  0
  9 27  2  0  0  0
 10 11  2  0  0  0
 10 15  1  0  0  0
 11 12  1  0  0  0
 11104  1  0  0  0
 12 13  2  0  0  0
 12105  1  0  0  0
 13 14  1  0  0  0
 13 31  1  0  0  0
 14 15  2  0  0  0
 14106  1  0  0  0
 15107  1  0  0  0
 16 17  2  0  0  0
 16 21  1  0  0  0
 16 31  1  0  0  0
 17 18  1  0  0  0
 17108  1  0  0  0
 18 19  2  0  0  0
 18109  1  0  0  0
 19 20  1  0  0  0
 19 24  1  0  0  0
 20 21  2  0  0  0
 20110  1  0  0  0
 21 23  1  0  0  0
 22 28  1  0  0  0
 22 32  2  0  0  0
 26 27  1  0  0  0
 28111  1  0  0  0
 28112  1  0  0  0
 29113  1  0  0  0
 29114  1  0  0  0
 33 34  1  0  0  0
 33 66  1  0  0  0
 33 70  2  0  0  0
 34 36  1  0  0  0
 34 59  1  0  0  0
 34115  1  0  0  0
 35 44  2  0  0  0
 35 45  1  0  0  0
 35 68  1  0  0  0
 36 56  1  0  0  0
 36116  1  0  0  0
 37 39  1  0  0  0
 37 47  1  0  0  0
 37 66  1  0  0  0
 37117  1  0  0  0
 38 43  2  0  0  0
 38 46  1  0  0  0
 38 47  1  0  0  0
 39 64  1  0  0  0
 39 67  2  0  0  0
 40 52  1  0  0  0
 40 53  2  0  0  0
 40 58  1  0  0  0
 41118  1  0  0  0
 41119  1  0  0  0
 41120  1  0  0  0
 41 48  1  0  0  0
 42 43  1  0  0  0
 42 66  1  0  0  0
 42121  1  0  0  0
 42122  1  0  0  0
 43 44  1  0  0  0
 44123  1  0  0  0
 45 46  2  0  0  0
 45124  1  0  0  0
 46125  1  0  0  0
 47126  1  0  0  0
 47127  1  0  0  0
 48 56  1  0  0  0
 48 65  1  0  0  0
 48128  1  0  0  0
 49 50  1  0  0  0
 49 53  1  0  0  0
 49 64  1  0  0  0
 49129  1  0  0  0
 50 51  1  0  0  0
 50130  1  0  0  0
 50131  1  0  0  0
 51 52  1  0  0  0
 51132  1  0  0  0
 51133  1  0  0  0
 52134  1  0  0  0
 52135  1  0  0  0
 53 54  1  0  0  0
 54 55  2  0  0  0
 54136  1  0  0  0
 55 57  1  0  0  0
 55137  1  0  0  0
 56 69  2  0  0  0
 57 58  2  0  0  0
 57138  1  0  0  0
 58139  1  0  0  0
 59 60  1  0  0  0
 59 61  1  0  0  0
 59 62  1  0  0  0
 60140  1  0  0  0
 60141  1  0  0  0
 60142  1  0  0  0
 61143  1  0  0  0
 61144  1  0  0  0
 61145  1  0  0  0
 62146  1  0  0  0
 62147  1  0  0  0
 62148  1  0  0  0
 63 65  1  0  0  0
 63149  1  0  0  0
 63150  1  0  0  0
 63151  1  0  0  0
 64152  1  0  0  0
 65153  1  0  0  0
 68 85  1  0  0  0
 71 72  2  0  0  0
 71 73  1  0  0  0
 71154  1  0  0  0
 72 75  1  0  0  0
 72155  1  0  0  0
 73 74  2  0  0  0
 73 85  1  0  0  0
 74 76  1  0  0  0
 74 91  1  0  0  0
 75 86  1  0  0  0
 75 91  2  0  0  0
 76 93  1  0  0  0
 76 94  2  0  0  0
 77 78  1  0  0  0
 77 79  1  0  0  0
 77156  1  0  0  0
 77157  1  0  0  0
 78 80  1  0  0  0
 78158  1  0  0  0
 78159  1  0  0  0
 79 81  1  0  0  0
 79160  1  0  0  0
 79161  1  0  0  0
 80 82  1  0  0  0
 80162  1  0  0  0
 80163  1  0  0  0
 81 82  1  0  0  0
 81164  1  0  0  0
 81165  1  0  0  0
 82 93  1  0  0  0
 82166  1  0  0  0
 83 87  1  0  0  0
 83167  1  0  0  0
 83168  1  0  0  0
 83169  1  0  0  0
 84170  1  0  0  0
 84171  1  0  0  0
 84172  1  0  0  0
 84 90  1  0  0  0
 85173  1  0  0  0
 85174  1  0  0  0
 86 88  1  0  0  0
 86175  1  0  0  0
 86176  1  0  0  0
 87 90  1  0  0  0
 87177  1  0  0  0
 87178  1  0  0  0
 88 92  1  0  0  0
 88179  1  0  0  0
 88180  1  0  0  0
 89 90  1  0  0  0
 89 93  1  0  0  0
 89181  1  0  0  0
 89182  1  0  0  0
 90183  1  0  0  0
 92184  1  0  0  0
M  ISO  4   1 100  68 101  85 101  92 100
M  END
> <chiral flag>
0

> <version>
0

> <s_m_source_file>
/data/baiqing/PycharmProjects/Reinvent-master-3.2/result/LINK_invent/BTK/process_docking_weight1_custom_sum_contain_oxygen_bond_distance_aromatic_linkinvent_7_9_3/rearranged_h_0048.sdf

> <i_m_source_file_index>
73

> <r_mmod_Potential_Energy-OPLS-2005>
546.226867675781

> <r_mmod_Stretch_Energy-OPLS-2005>
206.430480957031

> <r_mmod_Bend_Energy-OPLS-2005>
289.978149414062

> <r_mmod_Torsional_Energy-OPLS-2005>
344.234558105469

> <r_mmod_Improper_Torsional_Energy-OPLS-2005>
7.62753009796143

> <r_mmod_Van_der_Waal_Energy-OPLS-2005>
144.485687255859

> <r_mmod_Electrostatic_Energy-OPLS-2005>
-378.6953125

> <r_mmod_Solvation_Energy-OPLS-2005>
-223.685211181641

> <b_mmod_Minimization_Converged-OPLS-2005>
0

> <r_mmod_RMS_Derivative-OPLS-2005>
3.82245492935181

$$$$
74
                    3D
 Structure written by MMmdl.
167175  0  0  1  0            999 V2000
  -30.7273  -14.5513   20.4489 C   0  0  0  0  0  0
  -30.4282  -12.3085   19.4433 C   0  0  0  0  0  0
  -29.4978  -12.4016   18.2153 C   0  0  0  0  0  0
  -28.0271  -12.2631   18.6567 C   0  0  0  0  0  0
  -27.6443  -13.1700   19.8623 C   0  0  2  0  0  0
  -28.7140  -13.0968   20.9774 C   0  0  0  0  0  0
  -25.2613  -13.7977   20.5820 C   0  0  0  0  0  0
  -24.1808  -13.0360   20.9204 C   0  0  0  0  0  0
  -24.6313  -11.6767   20.8815 C   0  0  0  0  0  0
  -23.8964  -10.4228   21.0444 C   0  0  0  0  0  0
  -24.3518   -9.4146   21.9231 C   0  0  0  0  0  0
  -23.6205   -8.2208   22.0791 C   0  0  0  0  0  0
  -22.4219   -8.0219   21.3553 C   0  0  0  0  0  0
  -21.9823   -9.0203   20.4673 C   0  0  0  0  0  0
  -22.7131  -10.2088   20.3090 C   0  0  0  0  0  0
  -21.6846   -6.0655   22.5267 C   0  0  0  0  0  0
  -21.3975   -6.5578   23.8173 C   0  0  0  0  0  0
  -21.3669   -5.6764   24.9164 C   0  0  0  0  0  0
  -21.6074   -4.3029   24.7222 C   0  0  0  0  0  0
  -21.8811   -3.8090   23.4343 C   0  0  0  0  0  0
  -21.9165   -4.6898   22.3381 C   0  0  0  0  0  0
  -22.7853  -13.5229   21.1723 C   0  0  0  0  0  0
  -22.1638   -4.2070   21.0977 F   0  0  0  0  0  0
  -21.5673   -3.4507   25.7754 F   0  0  0  0  0  0
  -30.0239  -13.3816   20.3714 N   0  0  0  0  0  0
  -26.2988  -12.9068   20.3521 N   0  0  0  0  0  0
  -25.9242  -11.6274   20.5896 N   0  0  0  0  0  0
  -22.0334  -12.8431   22.0267 N   0  0  0  0  0  0
  -25.4351  -15.1701   20.4229 N   0  0  0  0  0  0
  -31.9475  -14.5746   20.2935 O   0  0  0  0  0  0
  -21.6609   -6.8798   21.4231 O   0  0  0  0  0  0
  -22.3659  -14.5554   20.6456 O   0  0  0  0  0  0
  -24.6135  -31.8658   23.2141 C   0  0  0  0  0  0
  -25.9022  -32.4848   23.8374 C   0  0  1  0  0  0
  -27.2566  -27.4396   20.0514 C   0  0  0  0  0  0
  -25.5903  -33.8652   24.2325 N   0  0  0  0  0  0
  -23.3964  -30.4863   21.5567 C   0  0  2  0  0  0
  -24.8437  -28.9501   20.1243 C   0  0  0  0  0  0
  -22.7362  -29.4654   22.5059 C   0  0  0  0  0  0
  -18.0224  -28.1340   22.8538 C   0  0  0  0  0  0
  -24.1467  -36.7288   23.2640 C   0  0  0  0  0  0
  -25.9295  -30.8396   21.3545 C   0  0  0  0  0  0
  -26.0134  -29.4757   20.6885 C   0  0  0  0  0  0
  -27.2221  -28.7339   20.6329 C   0  0  0  0  0  0
  -26.0523  -26.9179   19.5262 C   0  0  0  0  0  0
  -24.8600  -27.6673   19.5513 C   0  0  0  0  0  0
  -23.5952  -29.8017   20.1796 C   0  0  0  0  0  0
  -25.4114  -36.3139   24.0345 C   0  0  1  0  0  0
  -20.5853  -28.3626   23.1359 C   0  0  2  0  0  0
  -20.6748  -26.9356   22.5452 C   0  0  0  0  0  0
  -19.5727  -26.6357   21.5245 C   0  0  0  0  0  0
  -18.1881  -26.7888   22.1627 C   0  0  0  0  0  0
  -19.1495  -28.8792   23.2934 C   0  0  0  0  0  0
  -18.9431  -30.1412   23.8897 C   0  0  0  0  0  0
  -17.6442  -30.6584   24.0555 C   0  0  0  0  0  0
  -25.9043  -34.9483   23.5141 C   0  0  0  0  0  0
  -16.5325  -29.9076   23.6355 C   0  0  0  0  0  0
  -16.7209  -28.6490   23.0388 C   0  0  0  0  0  0
  -26.4435  -31.6650   25.0694 C   0  0  0  0  0  0
  -25.3750  -31.3760   26.1501 C   0  0  0  0  0  0
  -27.0273  -30.3109   24.6078 C   0  0  0  0  0  0
  -27.5987  -32.4386   25.7451 C   0  0  0  0  0  0
  -27.5573  -37.1830   24.8469 C   0  0  0  0  0  0
  -21.4086  -29.3023   22.3795 N   0  0  0  0  0  0
  -26.4306  -37.3841   23.9381 N   0  0  0  0  0  0
  -24.6658  -31.0755   22.0993 N   0  0  0  0  0  0
  -23.4138  -28.8164   23.3055 O   0  0  0  0  0  0
  -28.4621  -26.7533   20.0150 O   0  0  0  0  0  0
  -26.5594  -34.8964   22.4667 O   0  0  0  0  0  0
  -23.5360  -32.1316   23.7601 O   0  0  0  0  0  0
  -32.2579  -19.8256   19.6237 C   0  0  0  0  0  0
  -31.3060  -20.8449   19.7086 C   0  0  0  0  0  0
  -31.9711  -18.5498   20.1387 C   0  0  0  0  0  0
  -30.0959  -20.5796   20.3722 C   0  0  0  0  0  0
  -30.6766  -18.2905   20.6712 C   0  0  0  0  0  0
  -33.1041  -17.5368   20.1096 C   0  0  0  0  0  0
  -28.3187  -16.9982   18.9207 C   0  0  0  0  0  0
  -30.6657  -16.3546   17.9469 C   0  0  0  0  0  0
  -29.1349  -21.7429   20.7100 C   0  0  0  0  0  0
  -30.2456  -16.8908   21.2240 C   0  0  0  0  0  0
  -28.9756  -22.8953   19.6497 C   0  0  0  0  0  0
  -28.5374  -24.2726   20.2669 C   0  0  0  0  0  0
  -28.6080  -25.4969   19.3130 C   0  0  0  0  0  0
  -29.5317  -16.0396   18.9484 C   0  0  0  0  0  0
  -29.7939  -19.3257   20.8358 N   0  0  0  0  0  0
  -30.0242  -15.7201   20.3103 N   0  0  0  0  0  0
  -31.4768  -12.3728   19.1402 H   0  0  0  0  0  0
  -30.3175  -11.3313   19.9184 H   0  0  0  0  0  0
  -29.7413  -11.6006   17.5173 H   0  0  0  0  0  0
  -29.6640  -13.3175   17.6525 H   0  0  0  0  0  0
  -27.9086  -11.2186   18.9417 H   0  0  0  0  0  0
  -27.3468  -12.3987   17.8186 H   0  0  0  0  0  0
  -27.6010  -14.1846   19.4972 H   0  0  0  0  0  0
  -28.7183  -12.1111   21.4480 H   0  0  0  0  0  0
  -28.5016  -13.8151   21.7663 H   0  0  0  0  0  0
  -25.2642   -9.5626   22.4819 H   0  0  0  0  0  0
  -23.9875   -7.4612   22.7534 H   0  0  0  0  0  0
  -21.0754   -8.8670   19.9018 H   0  0  0  0  0  0
  -22.3547  -10.9599   19.6196 H   0  0  0  0  0  0
  -21.1946   -7.6085   23.9641 H   0  0  0  0  0  0
  -21.1538   -6.0510   25.9063 H   0  0  0  0  0  0
  -22.0594   -2.7532   23.2875 H   0  0  0  0  0  0
  -22.3786  -12.0128   22.4863 H   0  0  0  0  0  0
  -21.0904  -13.1567   22.2127 H   0  0  0  0  0  0
  -24.6690  -15.8244   20.5273 H   0  0  0  0  0  0
  -26.3080  -15.6070   20.1637 H   0  0  0  0  0  0
  -26.7065  -32.5541   23.1119 H   0  0  0  0  0  0
  -25.0152  -33.9774   25.0559 H   0  0  0  0  0  0
  -22.6934  -31.3087   21.4176 H   0  0  0  0  0  0
  -23.3779  -35.9575   23.3345 H   0  0  0  0  0  0
  -24.3560  -36.8856   22.2044 H   0  0  0  0  0  0
  -23.7182  -37.6495   23.6617 H   0  0  0  0  0  0
  -26.0461  -31.6235   20.6036 H   0  0  0  0  0  0
  -26.8164  -30.8850   21.9762 H   0  0  0  0  0  0
  -28.1376  -29.1596   21.0186 H   0  0  0  0  0  0
  -26.0079  -25.9276   19.0972 H   0  0  0  0  0  0
  -23.9501  -27.2352   19.1520 H   0  0  0  0  0  0
  -23.6685  -30.5597   19.4046 H   0  0  0  0  0  0
  -22.7210  -29.2073   19.9047 H   0  0  0  0  0  0
  -25.1318  -36.2023   25.0866 H   0  0  0  0  0  0
  -20.9936  -28.3162   24.1483 H   0  0  0  0  0  0
  -20.5697  -26.2178   23.3596 H   0  0  0  0  0  0
  -21.6593  -26.7424   22.1202 H   0  0  0  0  0  0
  -19.6879  -25.6279   21.1219 H   0  0  0  0  0  0
  -19.6668  -27.3203   20.6799 H   0  0  0  0  0  0
  -17.4166  -26.6676   21.3987 H   0  0  0  0  0  0
  -18.0241  -25.9989   22.8982 H   0  0  0  0  0  0
  -19.7923  -30.7237   24.2234 H   0  0  0  0  0  0
  -17.5019  -31.6264   24.5128 H   0  0  0  0  0  0
  -15.5340  -30.2986   23.7713 H   0  0  0  0  0  0
  -15.8600  -28.0808   22.7142 H   0  0  0  0  0  0
  -24.5902  -30.7096   25.7903 H   0  0  0  0  0  0
  -24.8959  -32.2924   26.4970 H   0  0  0  0  0  0
  -25.8179  -30.8949   27.0246 H   0  0  0  0  0  0
  -26.2812  -29.6904   24.1138 H   0  0  0  0  0  0
  -27.4039  -29.7328   25.4524 H   0  0  0  0  0  0
  -27.8625  -30.4415   23.9203 H   0  0  0  0  0  0
  -27.2567  -33.3679   26.2021 H   0  0  0  0  0  0
  -28.3807  -32.7015   25.0309 H   0  0  0  0  0  0
  -28.0642  -31.8544   26.5401 H   0  0  0  0  0  0
  -28.2684  -38.0054   24.7559 H   0  0  0  0  0  0
  -28.1003  -36.2623   24.6306 H   0  0  0  0  0  0
  -27.2264  -37.1483   25.8868 H   0  0  0  0  0  0
  -20.9226  -29.8725   21.7050 H   0  0  0  0  0  0
  -26.0204  -38.2918   24.1461 H   0  0  0  0  0  0
  -33.2213  -20.0365   19.1897 H   0  0  0  0  0  0
  -31.5810  -21.8208   19.3243 H   0  0  0  0  0  0
  -33.2278  -17.0789   19.1267 H   0  0  0  0  0  0
  -32.9935  -16.7617   20.8634 H   0  0  0  0  0  0
  -34.0302  -18.0722   20.3355 H   0  0  0  0  0  0
  -27.7899  -16.9196   17.9690 H   0  0  0  0  0  0
  -28.5873  -18.0458   19.0216 H   0  0  0  0  0  0
  -27.6063  -16.7787   19.7183 H   0  0  0  0  0  0
  -30.2789  -16.4157   16.9318 H   0  0  0  0  0  0
  -31.4208  -15.5656   17.9458 H   0  0  0  0  0  0
  -31.1754  -17.2861   18.1608 H   0  0  0  0  0  0
  -29.5126  -22.1687   21.6410 H   0  0  0  0  0  0
  -28.1505  -21.3387   20.9558 H   0  0  0  0  0  0
  -30.9912  -16.6198   21.9674 H   0  0  0  0  0  0
  -29.3221  -17.0024   21.7948 H   0  0  0  0  0  0
  -29.9241  -23.0729   19.1416 H   0  0  0  0  0  0
  -28.2787  -22.5782   18.8663 H   0  0  0  0  0  0
  -27.5254  -24.1829   20.6644 H   0  0  0  0  0  0
  -29.1768  -24.5179   21.1202 H   0  0  0  0  0  0
  -27.9304  -25.3896   18.4699 H   0  0  0  0  0  0
  -29.6000  -25.5267   18.8548 H   0  0  0  0  0  0
  -29.1210  -15.1255   18.5409 H   0  0  0  0  0  0
  1 25  1  0  0  0
  1 30  2  0  0  0
  1 86  1  0  0  0
  2  3  1  0  0  0
  2 25  1  0  0  0
  2 87  1  0  0  0
  2 88  1  0  0  0
  3  4  1  0  0  0
  3 89  1  0  0  0
  3 90  1  0  0  0
  4  5  1  0  0  0
  4 91  1  0  0  0
  4 92  1  0  0  0
  5  6  1  0  0  0
  5 26  1  0  0  0
  5 93  1  0  0  0
  6 25  1  0  0  0
  6 94  1  0  0  0
  6 95  1  0  0  0
  7  8  2  0  0  0
  7 26  1  0  0  0
  7 29  1  0  0  0
  8  9  1  0  0  0
  8 22  1  0  0  0
  9 10  1  0  0  0
  9 27  2  0  0  0
 10 11  2  0  0  0
 10 15  1  0  0  0
 11 12  1  0  0  0
 11 96  1  0  0  0
 12 13  2  0  0  0
 12 97  1  0  0  0
 13 14  1  0  0  0
 13 31  1  0  0  0
 14 15  2  0  0  0
 14 98  1  0  0  0
 15 99  1  0  0  0
 16 17  2  0  0  0
 16 21  1  0  0  0
 16 31  1  0  0  0
 17 18  1  0  0  0
 17100  1  0  0  0
 18 19  2  0  0  0
 18101  1  0  0  0
 19 20  1  0  0  0
 19 24  1  0  0  0
 20 21  2  0  0  0
 20102  1  0  0  0
 21 23  1  0  0  0
 22 28  1  0  0  0
 22 32  2  0  0  0
 26 27  1  0  0  0
 28103  1  0  0  0
 28104  1  0  0  0
 29105  1  0  0  0
 29106  1  0  0  0
 33 34  1  0  0  0
 33 66  1  0  0  0
 33 70  2  0  0  0
 34 36  1  0  0  0
 34 59  1  0  0  0
 34107  1  0  0  0
 35 44  2  0  0  0
 35 45  1  0  0  0
 35 68  1  0  0  0
 36 56  1  0  0  0
 36108  1  0  0  0
 37 39  1  0  0  0
 37 47  1  0  0  0
 37 66  1  0  0  0
 37109  1  0  0  0
 38 43  2  0  0  0
 38 46  1  0  0  0
 38 47  1  0  0  0
 39 64  1  0  0  0
 39 67  2  0  0  0
 40 52  1  0  0  0
 40 53  2  0  0  0
 40 58  1  0  0  0
 41110  1  0  0  0
 41111  1  0  0  0
 41112  1  0  0  0
 41 48  1  0  0  0
 42 43  1  0  0  0
 42 66  1  0  0  0
 42113  1  0  0  0
 42114  1  0  0  0
 43 44  1  0  0  0
 44115  1  0  0  0
 45 46  2  0  0  0
 45116  1  0  0  0
 46117  1  0  0  0
 47118  1  0  0  0
 47119  1  0  0  0
 48 56  1  0  0  0
 48 65  1  0  0  0
 48120  1  0  0  0
 49 50  1  0  0  0
 49 53  1  0  0  0
 49 64  1  0  0  0
 49121  1  0  0  0
 50 51  1  0  0  0
 50122  1  0  0  0
 50123  1  0  0  0
 51 52  1  0  0  0
 51124  1  0  0  0
 51125  1  0  0  0
 52126  1  0  0  0
 52127  1  0  0  0
 53 54  1  0  0  0
 54 55  2  0  0  0
 54128  1  0  0  0
 55 57  1  0  0  0
 55129  1  0  0  0
 56 69  2  0  0  0
 57 58  2  0  0  0
 57130  1  0  0  0
 58131  1  0  0  0
 59 60  1  0  0  0
 59 61  1  0  0  0
 59 62  1  0  0  0
 60132  1  0  0  0
 60133  1  0  0  0
 60134  1  0  0  0
 61135  1  0  0  0
 61136  1  0  0  0
 61137  1  0  0  0
 62138  1  0  0  0
 62139  1  0  0  0
 62140  1  0  0  0
 63 65  1  0  0  0
 63141  1  0  0  0
 63142  1  0  0  0
 63143  1  0  0  0
 64144  1  0  0  0
 65145  1  0  0  0
 68 83  1  0  0  0
 71 72  2  0  0  0
 71 73  1  0  0  0
 71146  1  0  0  0
 72 74  1  0  0  0
 72147  1  0  0  0
 73 75  2  0  0  0
 73 76  1  0  0  0
 74 79  1  0  0  0
 74 85  2  0  0  0
 75 80  1  0  0  0
 75 85  1  0  0  0
 76148  1  0  0  0
 76149  1  0  0  0
 76150  1  0  0  0
 77151  1  0  0  0
 77152  1  0  0  0
 77153  1  0  0  0
 77 84  1  0  0  0
 78 84  1  0  0  0
 78154  1  0  0  0
 78155  1  0  0  0
 78156  1  0  0  0
 79 81  1  0  0  0
 79157  1  0  0  0
 79158  1  0  0  0
 80 86  1  0  0  0
 80159  1  0  0  0
 80160  1  0  0  0
 81 82  1  0  0  0
 81161  1  0  0  0
 81162  1  0  0  0
 82 83  1  0  0  0
 82163  1  0  0  0
 82164  1  0  0  0
 83165  1  0  0  0
 83166  1  0  0  0
 84 86  1  0  0  0
 84167  1  0  0  0
M  ISO  4   1 100  68 101  83 101  86 100
M  END
> <chiral flag>
0

> <version>
0

> <s_m_source_file>
/data/baiqing/PycharmProjects/Reinvent-master-3.2/result/LINK_invent/BTK/process_docking_weight1_custom_sum_contain_oxygen_bond_distance_aromatic_linkinvent_7_9_3/rearranged_h_0048.sdf

> <i_m_source_file_index>
74

> <r_mmod_Potential_Energy-OPLS-2005>
41.79736328125

> <r_mmod_Stretch_Energy-OPLS-2005>
59.9068565368652

> <r_mmod_Bend_Energy-OPLS-2005>
141.101089477539

> <r_mmod_Torsional_Energy-OPLS-2005>
314.512817382812

> <r_mmod_Improper_Torsional_Energy-OPLS-2005>
12.7436084747314

> <r_mmod_Van_der_Waal_Energy-OPLS-2005>
161.500549316406

> <r_mmod_Electrostatic_Energy-OPLS-2005>
-492.667572021484

> <r_mmod_Solvation_Energy-OPLS-2005>
-193.27375793457

> <b_mmod_Minimization_Converged-OPLS-2005>
0

> <r_mmod_RMS_Derivative-OPLS-2005>
10.1003112792969

$$$$
75
                    3D
 Structure written by MMmdl.
163171  0  0  1  0            999 V2000
  -30.3597  -15.3867   20.3558 C   0  0  0  0  0  0
  -30.4576  -12.8852   19.5803 C   0  0  0  0  0  0
  -29.5728  -12.6130   18.3321 C   0  0  0  0  0  0
  -28.1166  -12.3116   18.7310 C   0  0  0  0  0  0
  -27.6117  -13.2928   19.8147 C   0  0  2  0  0  0
  -28.6246  -13.5047   20.9567 C   0  0  0  0  0  0
  -25.2391  -13.8297   20.5706 C   0  0  0  0  0  0
  -24.1752  -13.0460   20.9238 C   0  0  0  0  0  0
  -24.6419  -11.6958   20.8731 C   0  0  0  0  0  0
  -23.9115  -10.4304   21.0398 C   0  0  0  0  0  0
  -24.3648   -9.4212   21.9179 C   0  0  0  0  0  0
  -23.6309   -8.2263   22.0764 C   0  0  0  0  0  0
  -22.4300   -8.0297   21.3554 C   0  0  0  0  0  0
  -21.9954   -9.0277   20.4651 C   0  0  0  0  0  0
  -22.7287  -10.2150   20.3031 C   0  0  0  0  0  0
  -21.6861   -6.0747   22.5270 C   0  0  0  0  0  0
  -21.4022   -6.5623   23.8215 C   0  0  0  0  0  0
  -21.3680   -5.6768   24.9172 C   0  0  0  0  0  0
  -21.6030   -4.3037   24.7210 C   0  0  0  0  0  0
  -21.8835   -3.8148   23.4335 C   0  0  0  0  0  0
  -21.9190   -4.6963   22.3390 C   0  0  0  0  0  0
  -22.7762  -13.5201   21.1858 C   0  0  0  0  0  0
  -22.1651   -4.2146   21.0971 F   0  0  0  0  0  0
  -21.5645   -3.4523   25.7750 F   0  0  0  0  0  0
  -29.8657  -14.0368   20.3661 N   0  0  0  0  0  0
  -26.2807  -12.9589   20.3116 N   0  0  0  0  0  0
  -25.9361  -11.6674   20.5630 N   0  0  0  0  0  0
  -22.0403  -12.8225   22.0440 N   0  0  0  0  0  0
  -25.4068  -15.2030   20.4214 N   0  0  0  0  0  0
  -31.5802  -15.3949   20.1287 O   0  0  0  0  0  0
  -21.6653   -6.8903   21.4245 O   0  0  0  0  0  0
  -22.3450  -14.5496   20.6687 O   0  0  0  0  0  0
  -24.6674  -31.8166   23.1644 C   0  0  0  0  0  0
  -25.9309  -32.4555   23.8179 C   0  0  1  0  0  0
  -27.2526  -26.8705   20.2186 C   0  0  0  0  0  0
  -25.5971  -33.8373   24.2051 N   0  0  0  0  0  0
  -23.4910  -30.4197   21.5120 C   0  0  2  0  0  0
  -24.9574  -28.7928   20.1092 C   0  0  0  0  0  0
  -22.7697  -29.4369   22.4733 C   0  0  0  0  0  0
  -18.0311  -28.1358   22.8436 C   0  0  0  0  0  0
  -24.1486  -36.7183   23.2656 C   0  0  0  0  0  0
  -26.0634  -30.6031   21.4048 C   0  0  0  0  0  0
  -26.1340  -29.1876   20.7553 C   0  0  0  0  0  0
  -27.2657  -28.2481   20.7930 C   0  0  0  0  0  0
  -26.0535  -26.6457   19.5007 C   0  0  0  0  0  0
  -24.9464  -27.5438   19.4598 C   0  0  0  0  0  0
  -23.7392  -29.7244   20.1415 C   0  0  0  0  0  0
  -25.4120  -36.2928   24.0286 C   0  0  1  0  0  0
  -20.5946  -28.3723   23.1133 C   0  0  2  0  0  0
  -20.6807  -26.9386   22.5383 C   0  0  0  0  0  0
  -19.5786  -26.6356   21.5168 C   0  0  0  0  0  0
  -18.1948  -26.7886   22.1567 C   0  0  0  0  0  0
  -19.1578  -28.8849   23.2774 C   0  0  0  0  0  0
  -18.9500  -30.1448   23.8806 C   0  0  0  0  0  0
  -17.6501  -30.6569   24.0506 C   0  0  0  0  0  0
  -25.9096  -34.9318   23.4987 C   0  0  0  0  0  0
  -16.5393  -29.9026   23.6357 C   0  0  0  0  0  0
  -16.7294  -28.6442   23.0378 C   0  0  0  0  0  0
  -26.4523  -31.6536   25.0742 C   0  0  0  0  0  0
  -25.3658  -31.3788   26.1415 C   0  0  0  0  0  0
  -27.0445  -30.2909   24.6543 C   0  0  0  0  0  0
  -27.6042  -32.4397   25.7466 C   0  0  0  0  0  0
  -27.5555  -37.1717   24.8439 C   0  0  0  0  0  0
  -21.4345  -29.3006   22.3464 N   0  0  0  0  0  0
  -26.4240  -37.3698   23.9453 N   0  0  0  0  0  0
  -24.7624  -30.9752   22.0806 N   0  0  0  0  0  0
  -23.4216  -28.7923   23.2994 O   0  0  0  0  0  0
  -28.2462  -25.7544   20.4076 O   0  0  0  0  0  0
  -26.5707  -34.8857   22.4578 O   0  0  0  0  0  0
  -23.5724  -32.1132   23.6682 O   0  0  0  0  0  0
  -27.7157  -19.8112   21.1713 C   0  0  0  0  0  0
  -26.9448  -20.9626   21.4607 C   0  0  0  0  0  0
  -28.9740  -19.9124   20.5776 C   0  0  0  0  0  0
  -28.4140  -22.5154   20.4910 C   0  0  0  0  0  0
  -25.6153  -20.7952   22.1640 C   0  0  0  0  0  0
  -33.9958  -20.5972   22.6367 C   0  0  0  0  0  0
  -33.0844  -18.5089   23.7147 C   0  0  0  0  0  0
  -28.4095  -24.1807   19.8338 C   0  0  0  0  0  0
  -29.4684  -16.9545   20.4392 C   0  0  0  0  0  0
  -31.9578  -19.5300   21.6001 C   0  0  0  0  0  0
  -30.6691  -18.7078   21.7795 C   0  0  0  0  0  0
  -32.7287  -19.7837   22.9221 C   0  0  0  0  0  0
  -27.2868  -22.2387   21.1467 N   0  0  0  0  0  0
  -29.2616  -21.3338   20.2375 N   0  0  0  0  0  0
  -29.8294  -18.5854   20.5772 N   0  0  0  0  0  0
  -31.4693  -13.1171   19.2467 H   0  0  0  0  0  0
  -30.5516  -11.9987   20.2075 H   0  0  0  0  0  0
  -29.9894  -11.7938   17.7436 H   0  0  0  0  0  0
  -29.5957  -13.4926   17.6866 H   0  0  0  0  0  0
  -28.0799  -11.2910   19.1137 H   0  0  0  0  0  0
  -27.4681  -12.3358   17.8529 H   0  0  0  0  0  0
  -27.5155  -14.2528   19.3058 H   0  0  0  0  0  0
  -28.8049  -12.5797   21.5044 H   0  0  0  0  0  0
  -28.2294  -14.2264   21.6754 H   0  0  0  0  0  0
  -25.2791   -9.5680   22.4736 H   0  0  0  0  0  0
  -23.9996   -7.4681   22.7514 H   0  0  0  0  0  0
  -21.0879   -8.8802   19.8991 H   0  0  0  0  0  0
  -22.3740  -10.9681   19.6134 H   0  0  0  0  0  0
  -21.2009   -7.6136   23.9702 H   0  0  0  0  0  0
  -21.1485   -6.0517   25.9072 H   0  0  0  0  0  0
  -22.0591   -2.7607   23.2841 H   0  0  0  0  0  0
  -22.3976  -11.9889   22.4841 H   0  0  0  0  0  0
  -21.1002  -13.1270   22.2574 H   0  0  0  0  0  0
  -24.6531  -15.8659   20.5559 H   0  0  0  0  0  0
  -26.2668  -15.6419   20.1194 H   0  0  0  0  0  0
  -26.7388  -32.5091   23.0925 H   0  0  0  0  0  0
  -25.0193  -33.9499   25.0263 H   0  0  0  0  0  0
  -22.8090  -31.2520   21.3296 H   0  0  0  0  0  0
  -23.3787  -35.9459   23.3175 H   0  0  0  0  0  0
  -24.3597  -36.8996   22.2107 H   0  0  0  0  0  0
  -23.7209  -37.6317   23.6818 H   0  0  0  0  0  0
  -26.2510  -31.3315   20.6134 H   0  0  0  0  0  0
  -26.9190  -30.6708   22.0647 H   0  0  0  0  0  0
  -28.1411  -28.5512   21.3517 H   0  0  0  0  0  0
  -25.9287  -25.6907   19.0118 H   0  0  0  0  0  0
  -24.0550  -27.2338   18.9283 H   0  0  0  0  0  0
  -23.8898  -30.4909   19.3805 H   0  0  0  0  0  0
  -22.8548  -29.1693   19.8260 H   0  0  0  0  0  0
  -25.1300  -36.1699   25.0768 H   0  0  0  0  0  0
  -21.0036  -28.3348   24.1253 H   0  0  0  0  0  0
  -20.5669  -26.2329   23.3631 H   0  0  0  0  0  0
  -21.6671  -26.7325   22.1197 H   0  0  0  0  0  0
  -19.6959  -25.6234   21.1288 H   0  0  0  0  0  0
  -19.6770  -27.3117   20.6635 H   0  0  0  0  0  0
  -17.4244  -26.6642   21.3947 H   0  0  0  0  0  0
  -18.0306  -25.9997   22.8926 H   0  0  0  0  0  0
  -19.7988  -30.7284   24.2161 H   0  0  0  0  0  0
  -17.5046  -31.6274   24.5094 H   0  0  0  0  0  0
  -15.5389  -30.2913   23.7728 H   0  0  0  0  0  0
  -15.8682  -28.0771   22.7110 H   0  0  0  0  0  0
  -24.5844  -30.7098   25.7761 H   0  0  0  0  0  0
  -24.8822  -32.2967   26.4773 H   0  0  0  0  0  0
  -25.7886  -30.9063   27.0297 H   0  0  0  0  0  0
  -26.3126  -29.6581   24.1519 H   0  0  0  0  0  0
  -27.3901  -29.7274   25.5230 H   0  0  0  0  0  0
  -27.9082  -30.4071   23.9996 H   0  0  0  0  0  0
  -27.2674  -33.3870   26.1684 H   0  0  0  0  0  0
  -28.3951  -32.6711   25.0309 H   0  0  0  0  0  0
  -28.0556  -31.8795   26.5673 H   0  0  0  0  0  0
  -28.2441  -38.0128   24.7622 H   0  0  0  0  0  0
  -28.1195  -36.2681   24.6090 H   0  0  0  0  0  0
  -27.2324  -37.1125   25.8845 H   0  0  0  0  0  0
  -20.9600  -29.8739   21.6614 H   0  0  0  0  0  0
  -26.0048  -38.2724   24.1592 H   0  0  0  0  0  0
  -27.3486  -18.8429   21.4771 H   0  0  0  0  0  0
  -25.6356  -19.9275   22.8261 H   0  0  0  0  0  0
  -24.8214  -20.6449   21.4331 H   0  0  0  0  0  0
  -25.3624  -21.6688   22.7632 H   0  0  0  0  0  0
  -34.4716  -20.9305   23.5590 H   0  0  0  0  0  0
  -33.7805  -21.4849   22.0402 H   0  0  0  0  0  0
  -34.7264  -20.0055   22.0855 H   0  0  0  0  0  0
  -33.5957  -18.7619   24.6473 H   0  0  0  0  0  0
  -33.7417  -17.8481   23.1486 H   0  0  0  0  0  0
  -32.1990  -17.9384   23.9961 H   0  0  0  0  0  0
  -27.6844  -24.1355   19.0231 H   0  0  0  0  0  0
  -29.3673  -24.2365   19.3153 H   0  0  0  0  0  0
  -28.8844  -16.9264   19.5176 H   0  0  0  0  0  0
  -28.7277  -16.7782   21.2164 H   0  0  0  0  0  0
  -31.6983  -20.5014   21.1734 H   0  0  0  0  0  0
  -32.6105  -19.0411   20.8739 H   0  0  0  0  0  0
  -30.0897  -19.1464   22.5965 H   0  0  0  0  0  0
  -30.9322  -17.7147   22.1461 H   0  0  0  0  0  0
  -32.0973  -20.3937   23.5722 H   0  0  0  0  0  0
  1 25  1  0  0  0
  1 30  2  0  0  0
  1 79  1  0  0  0
  2  3  1  0  0  0
  2 25  1  0  0  0
  2 86  1  0  0  0
  2 87  1  0  0  0
  3  4  1  0  0  0
  3 88  1  0  0  0
  3 89  1  0  0  0
  4  5  1  0  0  0
  4 90  1  0  0  0
  4 91  1  0  0  0
  5  6  1  0  0  0
  5 26  1  0  0  0
  5 92  1  0  0  0
  6 25  1  0  0  0
  6 93  1  0  0  0
  6 94  1  0  0  0
  7  8  2  0  0  0
  7 26  1  0  0  0
  7 29  1  0  0  0
  8  9  1  0  0  0
  8 22  1  0  0  0
  9 10  1  0  0  0
  9 27  2  0  0  0
 10 11  2  0  0  0
 10 15  1  0  0  0
 11 12  1  0  0  0
 11 95  1  0  0  0
 12 13  2  0  0  0
 12 96  1  0  0  0
 13 14  1  0  0  0
 13 31  1  0  0  0
 14 15  2  0  0  0
 14 97  1  0  0  0
 15 98  1  0  0  0
 16 17  2  0  0  0
 16 21  1  0  0  0
 16 31  1  0  0  0
 17 18  1  0  0  0
 17 99  1  0  0  0
 18 19  2  0  0  0
 18100  1  0  0  0
 19 20  1  0  0  0
 19 24  1  0  0  0
 20 21  2  0  0  0
 20101  1  0  0  0
 21 23  1  0  0  0
 22 28  1  0  0  0
 22 32  2  0  0  0
 26 27  1  0  0  0
 28102  1  0  0  0
 28103  1  0  0  0
 29104  1  0  0  0
 29105  1  0  0  0
 33 34  1  0  0  0
 33 66  1  0  0  0
 33 70  2  0  0  0
 34 36  1  0  0  0
 34 59  1  0  0  0
 34106  1  0  0  0
 35 44  2  0  0  0
 35 45  1  0  0  0
 35 68  1  0  0  0
 36 56  1  0  0  0
 36107  1  0  0  0
 37 39  1  0  0  0
 37 47  1  0  0  0
 37 66  1  0  0  0
 37108  1  0  0  0
 38 43  2  0  0  0
 38 46  1  0  0  0
 38 47  1  0  0  0
 39 64  1  0  0  0
 39 67  2  0  0  0
 40 52  1  0  0  0
 40 53  2  0  0  0
 40 58  1  0  0  0
 41109  1  0  0  0
 41110  1  0  0  0
 41111  1  0  0  0
 41 48  1  0  0  0
 42 43  1  0  0  0
 42 66  1  0  0  0
 42112  1  0  0  0
 42113  1  0  0  0
 43 44  1  0  0  0
 44114  1  0  0  0
 45 46  2  0  0  0
 45115  1  0  0  0
 46116  1  0  0  0
 47117  1  0  0  0
 47118  1  0  0  0
 48 56  1  0  0  0
 48 65  1  0  0  0
 48119  1  0  0  0
 49 50  1  0  0  0
 49 53  1  0  0  0
 49 64  1  0  0  0
 49120  1  0  0  0
 50 51  1  0  0  0
 50121  1  0  0  0
 50122  1  0  0  0
 51 52  1  0  0  0
 51123  1  0  0  0
 51124  1  0  0  0
 52125  1  0  0  0
 52126  1  0  0  0
 53 54  1  0  0  0
 54 55  2  0  0  0
 54127  1  0  0  0
 55 57  1  0  0  0
 55128  1  0  0  0
 56 69  2  0  0  0
 57 58  2  0  0  0
 57129  1  0  0  0
 58130  1  0  0  0
 59 60  1  0  0  0
 59 61  1  0  0  0
 59 62  1  0  0  0
 60131  1  0  0  0
 60132  1  0  0  0
 60133  1  0  0  0
 61134  1  0  0  0
 61135  1  0  0  0
 61136  1  0  0  0
 62137  1  0  0  0
 62138  1  0  0  0
 62139  1  0  0  0
 63 65  1  0  0  0
 63140  1  0  0  0
 63141  1  0  0  0
 63142  1  0  0  0
 64143  1  0  0  0
 65144  1  0  0  0
 68 78  1  0  0  0
 71 72  2  0  0  0
 71 73  1  0  0  0
 71145  1  0  0  0
 72 75  1  0  0  0
 72 83  1  0  0  0
 73 84  2  0  0  0
 73 85  1  0  0  0
 74 78  1  0  0  0
 74 83  2  0  0  0
 74 84  1  0  0  0
 75146  1  0  0  0
 75147  1  0  0  0
 75148  1  0  0  0
 76149  1  0  0  0
 76150  1  0  0  0
 76151  1  0  0  0
 76 82  1  0  0  0
 77 82  1  0  0  0
 77152  1  0  0  0
 77153  1  0  0  0
 77154  1  0  0  0
 78155  1  0  0  0
 78156  1  0  0  0
 79 85  1  0  0  0
 79157  1  0  0  0
 79158  1  0  0  0
 80 81  1  0  0  0
 80 82  1  0  0  0
 80159  1  0  0  0
 80160  1  0  0  0
 81 85  1  0  0  0
 81161  1  0  0  0
 81162  1  0  0  0
 82163  1  0  0  0
M  ISO  4   1 100  68 101  78 101  79 100
M  END
> <chiral flag>
0

> <version>
0

> <s_m_source_file>
/data/baiqing/PycharmProjects/Reinvent-master-3.2/result/LINK_invent/BTK/process_docking_weight1_custom_sum_contain_oxygen_bond_distance_aromatic_linkinvent_7_9_3/rearranged_h_0048.sdf

> <i_m_source_file_index>
75

> <r_mmod_Potential_Energy-OPLS-2005>
1136.84252929688

> <r_mmod_Stretch_Energy-OPLS-2005>
693.334350585938

> <r_mmod_Bend_Energy-OPLS-2005>
522.376098632812

> <r_mmod_Torsional_Energy-OPLS-2005>
212.449310302734

> <r_mmod_Improper_Torsional_Energy-OPLS-2005>
11.5487842559814

> <r_mmod_Van_der_Waal_Energy-OPLS-2005>
126.403671264648

> <r_mmod_Electrostatic_Energy-OPLS-2005>
-772.882507324219

> <r_mmod_Solvation_Energy-OPLS-2005>
-241.953079223633

> <b_mmod_Minimization_Converged-OPLS-2005>
0

> <r_mmod_RMS_Derivative-OPLS-2005>
5.70507669448853

$$$$
76
                    3D
 Structure written by MMmdl.
162170  0  0  1  0            999 V2000
  -30.6747  -14.6142   20.4241 C   0  0  0  0  0  0
  -30.4237  -12.3530   19.4527 C   0  0  0  0  0  0
  -29.4990  -12.4057   18.2187 C   0  0  0  0  0  0
  -28.0137  -12.3297   18.6217 C   0  0  0  0  0  0
  -27.6456  -13.2223   19.8412 C   0  0  2  0  0  0
  -28.6964  -13.1162   20.9657 C   0  0  0  0  0  0
  -25.2564  -13.8205   20.5683 C   0  0  0  0  0  0
  -24.1843  -13.0456   20.9184 C   0  0  0  0  0  0
  -24.6417  -11.6930   20.8720 C   0  0  0  0  0  0
  -23.9088  -10.4297   21.0355 C   0  0  0  0  0  0
  -24.3640   -9.4214   21.9138 C   0  0  0  0  0  0
  -23.6315   -8.2247   22.0726 C   0  0  0  0  0  0
  -22.4297   -8.0270   21.3515 C   0  0  0  0  0  0
  -21.9920   -9.0246   20.4623 C   0  0  0  0  0  0
  -22.7252  -10.2125   20.3020 C   0  0  0  0  0  0
  -21.6867   -6.0725   22.5269 C   0  0  0  0  0  0
  -21.4019   -6.5627   23.8202 C   0  0  0  0  0  0
  -21.3665   -5.6775   24.9164 C   0  0  0  0  0  0
  -21.6055   -4.3040   24.7210 C   0  0  0  0  0  0
  -21.8825   -3.8131   23.4330 C   0  0  0  0  0  0
  -21.9202   -4.6952   22.3391 C   0  0  0  0  0  0
  -22.7857  -13.5232   21.1824 C   0  0  0  0  0  0
  -22.1673   -4.2136   21.0965 F   0  0  0  0  0  0
  -21.5636   -3.4519   25.7726 F   0  0  0  0  0  0
  -29.9980  -13.4281   20.3672 N   0  0  0  0  0  0
  -26.2975  -12.9403   20.3254 N   0  0  0  0  0  0
  -25.9346  -11.6555   20.5757 N   0  0  0  0  0  0
  -22.0509  -12.8222   22.0386 N   0  0  0  0  0  0
  -25.4260  -15.1920   20.4109 N   0  0  0  0  0  0
  -31.8950  -14.6384   20.2359 O   0  0  0  0  0  0
  -21.6658   -6.8865   21.4229 O   0  0  0  0  0  0
  -22.3537  -14.5522   20.6651 O   0  0  0  0  0  0
  -24.6212  -31.8646   23.2036 C   0  0  0  0  0  0
  -25.9100  -32.4792   23.8340 C   0  0  1  0  0  0
  -27.2260  -27.3676   20.0969 C   0  0  0  0  0  0
  -25.5943  -33.8591   24.2277 N   0  0  0  0  0  0
  -23.4103  -30.4893   21.5452 C   0  0  2  0  0  0
  -24.8521  -28.9450   20.1138 C   0  0  0  0  0  0
  -22.7441  -29.4664   22.4942 C   0  0  0  0  0  0
  -18.0293  -28.1402   22.8478 C   0  0  0  0  0  0
  -24.1495  -36.7303   23.2634 C   0  0  0  0  0  0
  -25.9469  -30.8078   21.3666 C   0  0  0  0  0  0
  -26.0179  -29.4384   20.7100 C   0  0  0  0  0  0
  -27.2039  -28.6582   20.6955 C   0  0  0  0  0  0
  -26.0274  -26.8973   19.5108 C   0  0  0  0  0  0
  -24.8546  -27.6761   19.5124 C   0  0  0  0  0  0
  -23.6201  -29.8224   20.1607 C   0  0  0  0  0  0
  -25.4117  -36.3086   24.0323 C   0  0  1  0  0  0
  -20.5884  -28.3704   23.1288 C   0  0  2  0  0  0
  -20.6795  -26.9434   22.5416 C   0  0  0  0  0  0
  -19.5770  -26.6388   21.5225 C   0  0  0  0  0  0
  -18.1944  -26.7940   22.1618 C   0  0  0  0  0  0
  -19.1546  -28.8864   23.2881 C   0  0  0  0  0  0
  -18.9464  -30.1468   23.8895 C   0  0  0  0  0  0
  -17.6471  -30.6596   24.0561 C   0  0  0  0  0  0
  -25.9060  -34.9459   23.5093 C   0  0  0  0  0  0
  -16.5358  -29.9096   23.6338 C   0  0  0  0  0  0
  -16.7286  -28.6521   23.0336 C   0  0  0  0  0  0
  -26.4487  -31.6596   25.0704 C   0  0  0  0  0  0
  -25.3720  -31.3752   26.1434 C   0  0  0  0  0  0
  -27.0347  -30.3019   24.6164 C   0  0  0  0  0  0
  -27.6043  -32.4326   25.7489 C   0  0  0  0  0  0
  -27.5586  -37.1806   24.8457 C   0  0  0  0  0  0
  -21.4162  -29.3052   22.3675 N   0  0  0  0  0  0
  -26.4292  -37.3782   23.9402 N   0  0  0  0  0  0
  -24.6780  -31.0696   22.0960 N   0  0  0  0  0  0
  -23.4188  -28.8228   23.3017 O   0  0  0  0  0  0
  -28.3976  -26.6146   20.1250 O   0  0  0  0  0  0
  -26.5616  -34.8923   22.4652 O   0  0  0  0  0  0
  -23.5390  -32.1429   23.7403 O   0  0  0  0  0  0
  -29.5727  -20.2863   20.2573 C   0  0  0  0  0  0
  -28.6201  -21.3537   20.3775 C   0  0  0  0  0  0
  -29.1510  -19.2746   21.0926 C   0  0  0  0  0  0
  -30.2325  -15.8959   17.5553 C   0  0  0  0  0  0
  -27.1338  -19.1158   22.6485 C   0  0  0  0  0  0
  -28.5385  -22.6739   19.5857 C   0  0  0  0  0  0
  -29.7936  -17.9315   21.4719 C   0  0  0  0  0  0
  -28.4163  -24.0289   20.3754 C   0  0  0  0  0  0
  -30.4018  -16.5672   18.9232 C   0  0  0  0  0  0
  -29.1300  -16.5805   20.9892 C   0  0  0  0  0  0
  -28.5062  -25.3145   19.4719 C   0  0  0  0  0  0
  -27.6528  -21.0000   21.2134 N   0  0  0  0  0  0
  -27.9822  -19.7570   21.6610 N   0  0  0  0  0  0
  -29.9601  -15.7423   20.0751 N   0  0  0  0  0  0
  -31.4669  -12.4530   19.1432 H   0  0  0  0  0  0
  -30.3510  -11.3835   19.9473 H   0  0  0  0  0  0
  -29.7406  -11.5792   17.5485 H   0  0  0  0  0  0
  -29.6741  -13.3056   17.6402 H   0  0  0  0  0  0
  -27.7992  -11.2849   18.8488 H   0  0  0  0  0  0
  -27.3834  -12.5839   17.7676 H   0  0  0  0  0  0
  -27.6535  -14.2514   19.4813 H   0  0  0  0  0  0
  -28.7052  -12.1121   21.3955 H   0  0  0  0  0  0
  -28.4664  -13.7943   21.7862 H   0  0  0  0  0  0
  -25.2789   -9.5713   22.4691 H   0  0  0  0  0  0
  -24.0033   -7.4657   22.7453 H   0  0  0  0  0  0
  -21.0844   -8.8772   19.8936 H   0  0  0  0  0  0
  -22.3703  -10.9660   19.6124 H   0  0  0  0  0  0
  -21.2011   -7.6135   23.9703 H   0  0  0  0  0  0
  -21.1482   -6.0499   25.9068 H   0  0  0  0  0  0
  -22.0603   -2.7592   23.2831 H   0  0  0  0  0  0
  -22.4179  -11.9934   22.4835 H   0  0  0  0  0  0
  -21.1089  -13.1179   22.2507 H   0  0  0  0  0  0
  -24.6532  -15.8405   20.5142 H   0  0  0  0  0  0
  -26.2763  -15.6292   20.0830 H   0  0  0  0  0  0
  -26.7167  -32.5468   23.1093 H   0  0  0  0  0  0
  -25.0101  -33.9730   25.0421 H   0  0  0  0  0  0
  -22.7025  -31.3091   21.4054 H   0  0  0  0  0  0
  -23.3760  -35.9638   23.3289 H   0  0  0  0  0  0
  -24.3589  -36.8932   22.2055 H   0  0  0  0  0  0
  -23.7255  -37.6499   23.6666 H   0  0  0  0  0  0
  -26.0754  -31.5745   20.6006 H   0  0  0  0  0  0
  -26.8278  -30.8507   21.9960 H   0  0  0  0  0  0
  -28.1021  -29.0390   21.1600 H   0  0  0  0  0  0
  -25.9565  -25.9188   19.0621 H   0  0  0  0  0  0
  -23.9540  -27.2840   19.0595 H   0  0  0  0  0  0
  -23.7337  -30.5967   19.4014 H   0  0  0  0  0  0
  -22.7405  -29.2494   19.8633 H   0  0  0  0  0  0
  -25.1302  -36.1926   25.0817 H   0  0  0  0  0  0
  -20.9987  -28.3299   24.1403 H   0  0  0  0  0  0
  -20.5729  -26.2322   23.3619 H   0  0  0  0  0  0
  -21.6663  -26.7492   22.1191 H   0  0  0  0  0  0
  -19.6936  -25.6296   21.1264 H   0  0  0  0  0  0
  -19.6707  -27.3188   20.6746 H   0  0  0  0  0  0
  -17.4225  -26.6697   21.4007 H   0  0  0  0  0  0
  -18.0327  -26.0086   22.9015 H   0  0  0  0  0  0
  -19.7946  -30.7287   24.2242 H   0  0  0  0  0  0
  -17.5030  -31.6268   24.5180 H   0  0  0  0  0  0
  -15.5362  -30.2990   23.7673 H   0  0  0  0  0  0
  -15.8687  -28.0854   22.7015 H   0  0  0  0  0  0
  -24.5856  -30.7154   25.7753 H   0  0  0  0  0  0
  -24.8965  -32.2944   26.4866 H   0  0  0  0  0  0
  -25.8019  -30.8898   27.0205 H   0  0  0  0  0  0
  -26.2936  -29.6753   24.1190 H   0  0  0  0  0  0
  -27.4057  -29.7280   25.4669 H   0  0  0  0  0  0
  -27.8788  -30.4303   23.9384 H   0  0  0  0  0  0
  -27.2642  -33.3615   26.2074 H   0  0  0  0  0  0
  -28.3861  -32.6902   25.0335 H   0  0  0  0  0  0
  -28.0712  -31.8455   26.5407 H   0  0  0  0  0  0
  -28.2586  -38.0118   24.7519 H   0  0  0  0  0  0
  -28.1095  -36.2650   24.6257 H   0  0  0  0  0  0
  -27.2310  -37.1427   25.8859 H   0  0  0  0  0  0
  -20.9347  -29.8740   21.6852 H   0  0  0  0  0  0
  -26.0174  -38.2857   24.1391 H   0  0  0  0  0  0
  -30.4564  -20.2699   19.6335 H   0  0  0  0  0  0
  -30.4410  -16.6041   16.7514 H   0  0  0  0  0  0
  -29.2149  -15.5317   17.4119 H   0  0  0  0  0  0
  -30.9308  -15.0695   17.4309 H   0  0  0  0  0  0
  -27.7085  -18.9192   23.5540 H   0  0  0  0  0  0
  -26.7610  -18.1699   22.2560 H   0  0  0  0  0  0
  -26.2838  -19.7510   22.9029 H   0  0  0  0  0  0
  -27.7046  -22.6068   18.8862 H   0  0  0  0  0  0
  -29.4210  -22.7374   18.9487 H   0  0  0  0  0  0
  -29.8316  -17.8935   22.5616 H   0  0  0  0  0  0
  -30.8454  -17.9575   21.1868 H   0  0  0  0  0  0
  -29.2095  -24.0720   21.1224 H   0  0  0  0  0  0
  -27.4745  -24.0369   20.9240 H   0  0  0  0  0  0
  -29.8425  -17.5031   18.8737 H   0  0  0  0  0  0
  -31.4443  -16.8631   19.0541 H   0  0  0  0  0  0
  -28.1801  -16.7932   20.4977 H   0  0  0  0  0  0
  -28.8667  -15.9945   21.8681 H   0  0  0  0  0  0
  -27.8502  -25.2244   18.6092 H   0  0  0  0  0  0
  -29.4983  -25.3137   19.0213 H   0  0  0  0  0  0
  1 25  1  0  0  0
  1 30  2  0  0  0
  1 84  1  0  0  0
  2  3  1  0  0  0
  2 25  1  0  0  0
  2 85  1  0  0  0
  2 86  1  0  0  0
  3  4  1  0  0  0
  3 87  1  0  0  0
  3 88  1  0  0  0
  4  5  1  0  0  0
  4 89  1  0  0  0
  4 90  1  0  0  0
  5  6  1  0  0  0
  5 26  1  0  0  0
  5 91  1  0  0  0
  6 25  1  0  0  0
  6 92  1  0  0  0
  6 93  1  0  0  0
  7  8  2  0  0  0
  7 26  1  0  0  0
  7 29  1  0  0  0
  8  9  1  0  0  0
  8 22  1  0  0  0
  9 10  1  0  0  0
  9 27  2  0  0  0
 10 11  2  0  0  0
 10 15  1  0  0  0
 11 12  1  0  0  0
 11 94  1  0  0  0
 12 13  2  0  0  0
 12 95  1  0  0  0
 13 14  1  0  0  0
 13 31  1  0  0  0
 14 15  2  0  0  0
 14 96  1  0  0  0
 15 97  1  0  0  0
 16 17  2  0  0  0
 16 21  1  0  0  0
 16 31  1  0  0  0
 17 18  1  0  0  0
 17 98  1  0  0  0
 18 19  2  0  0  0
 18 99  1  0  0  0
 19 20  1  0  0  0
 19 24  1  0  0  0
 20 21  2  0  0  0
 20100  1  0  0  0
 21 23  1  0  0  0
 22 28  1  0  0  0
 22 32  2  0  0  0
 26 27  1  0  0  0
 28101  1  0  0  0
 28102  1  0  0  0
 29103  1  0  0  0
 29104  1  0  0  0
 33 34  1  0  0  0
 33 66  1  0  0  0
 33 70  2  0  0  0
 34 36  1  0  0  0
 34 59  1  0  0  0
 34105  1  0  0  0
 35 44  2  0  0  0
 35 45  1  0  0  0
 35 68  1  0  0  0
 36 56  1  0  0  0
 36106  1  0  0  0
 37 39  1  0  0  0
 37 47  1  0  0  0
 37 66  1  0  0  0
 37107  1  0  0  0
 38 43  2  0  0  0
 38 46  1  0  0  0
 38 47  1  0  0  0
 39 64  1  0  0  0
 39 67  2  0  0  0
 40 52  1  0  0  0
 40 53  2  0  0  0
 40 58  1  0  0  0
 41108  1  0  0  0
 41109  1  0  0  0
 41110  1  0  0  0
 41 48  1  0  0  0
 42 43  1  0  0  0
 42 66  1  0  0  0
 42111  1  0  0  0
 42112  1  0  0  0
 43 44  1  0  0  0
 44113  1  0  0  0
 45 46  2  0  0  0
 45114  1  0  0  0
 46115  1  0  0  0
 47116  1  0  0  0
 47117  1  0  0  0
 48 56  1  0  0  0
 48 65  1  0  0  0
 48118  1  0  0  0
 49 50  1  0  0  0
 49 53  1  0  0  0
 49 64  1  0  0  0
 49119  1  0  0  0
 50 51  1  0  0  0
 50120  1  0  0  0
 50121  1  0  0  0
 51 52  1  0  0  0
 51122  1  0  0  0
 51123  1  0  0  0
 52124  1  0  0  0
 52125  1  0  0  0
 53 54  1  0  0  0
 54 55  2  0  0  0
 54126  1  0  0  0
 55 57  1  0  0  0
 55127  1  0  0  0
 56 69  2  0  0  0
 57 58  2  0  0  0
 57128  1  0  0  0
 58129  1  0  0  0
 59 60  1  0  0  0
 59 61  1  0  0  0
 59 62  1  0  0  0
 60130  1  0  0  0
 60131  1  0  0  0
 60132  1  0  0  0
 61133  1  0  0  0
 61134  1  0  0  0
 61135  1  0  0  0
 62136  1  0  0  0
 62137  1  0  0  0
 62138  1  0  0  0
 63 65  1  0  0  0
 63139  1  0  0  0
 63140  1  0  0  0
 63141  1  0  0  0
 64142  1  0  0  0
 65143  1  0  0  0
 68 81  1  0  0  0
 71 72  1  0  0  0
 71 73  2  0  0  0
 71144  1  0  0  0
 72 76  1  0  0  0
 72 82  2  0  0  0
 73 77  1  0  0  0
 73 83  1  0  0  0
 74 79  1  0  0  0
 74145  1  0  0  0
 74146  1  0  0  0
 74147  1  0  0  0
 75 83  1  0  0  0
 75148  1  0  0  0
 75149  1  0  0  0
 75150  1  0  0  0
 76 78  1  0  0  0
 76151  1  0  0  0
 76152  1  0  0  0
 77 80  1  0  0  0
 77153  1  0  0  0
 77154  1  0  0  0
 78 81  1  0  0  0
 78155  1  0  0  0
 78156  1  0  0  0
 79 84  1  0  0  0
 79157  1  0  0  0
 79158  1  0  0  0
 80 84  1  0  0  0
 80159  1  0  0  0
 80160  1  0  0  0
 81161  1  0  0  0
 81162  1  0  0  0
 82 83  1  0  0  0
M  ISO  4   1 100  68 101  81 101  84 100
M  END
> <chiral flag>
0

> <version>
0

> <s_m_source_file>
/data/baiqing/PycharmProjects/Reinvent-master-3.2/result/LINK_invent/BTK/process_docking_weight1_custom_sum_contain_oxygen_bond_distance_aromatic_linkinvent_7_9_3/rearranged_h_0048.sdf

> <i_m_source_file_index>
76

> <r_mmod_Potential_Energy-OPLS-2005>
148.138916015625

> <r_mmod_Stretch_Energy-OPLS-2005>
58.781177520752

> <r_mmod_Bend_Energy-OPLS-2005>
134.003158569336

> <r_mmod_Torsional_Energy-OPLS-2005>
298.865997314453

> <r_mmod_Improper_Torsional_Energy-OPLS-2005>
23.6985874176025

> <r_mmod_Van_der_Waal_Energy-OPLS-2005>
118.984939575195

> <r_mmod_Electrostatic_Energy-OPLS-2005>
-323.164978027344

> <r_mmod_Solvation_Energy-OPLS-2005>
-207.566513061523

> <b_mmod_Minimization_Converged-OPLS-2005>
0

> <r_mmod_RMS_Derivative-OPLS-2005>
2.51390027999878

$$$$
77
                    3D
 Structure written by MMmdl.
159167  0  0  1  0            999 V2000
  -30.5623  -14.7817   20.4780 C   0  0  0  0  0  0
  -30.4510  -12.4876   19.4657 C   0  0  0  0  0  0
  -29.5157  -12.4792   18.2331 C   0  0  0  0  0  0
  -28.0448  -12.2887   18.6553 C   0  0  0  0  0  0
  -27.6361  -13.2171   19.8284 C   0  0  2  0  0  0
  -28.6761  -13.1632   20.9670 C   0  0  0  0  0  0
  -25.2516  -13.8163   20.5624 C   0  0  0  0  0  0
  -24.1796  -13.0448   20.9196 C   0  0  0  0  0  0
  -24.6362  -11.6915   20.8721 C   0  0  0  0  0  0
  -23.9041  -10.4290   21.0380 C   0  0  0  0  0  0
  -24.3608   -9.4200   21.9161 C   0  0  0  0  0  0
  -23.6298   -8.2226   22.0738 C   0  0  0  0  0  0
  -22.4272   -8.0271   21.3529 C   0  0  0  0  0  0
  -21.9901   -9.0223   20.4611 C   0  0  0  0  0  0
  -22.7214  -10.2108   20.3019 C   0  0  0  0  0  0
  -21.6853   -6.0728   22.5290 C   0  0  0  0  0  0
  -21.3990   -6.5626   23.8220 C   0  0  0  0  0  0
  -21.3664   -5.6770   24.9184 C   0  0  0  0  0  0
  -21.6057   -4.3043   24.7207 C   0  0  0  0  0  0
  -21.8835   -3.8139   23.4332 C   0  0  0  0  0  0
  -21.9196   -4.6962   22.3397 C   0  0  0  0  0  0
  -22.7815  -13.5230   21.1896 C   0  0  0  0  0  0
  -22.1674   -4.2158   21.0972 F   0  0  0  0  0  0
  -21.5647   -3.4523   25.7719 F   0  0  0  0  0  0
  -29.9728  -13.5383   20.3894 N   0  0  0  0  0  0
  -26.2889  -12.9329   20.3128 N   0  0  0  0  0  0
  -25.9272  -11.6497   20.5647 N   0  0  0  0  0  0
  -22.0461  -12.8182   22.0420 N   0  0  0  0  0  0
  -25.4275  -15.1879   20.4034 N   0  0  0  0  0  0
  -31.7582  -14.9217   20.2100 O   0  0  0  0  0  0
  -21.6643   -6.8866   21.4241 O   0  0  0  0  0  0
  -22.3489  -14.5539   20.6766 O   0  0  0  0  0  0
  -24.6318  -31.8568   23.1929 C   0  0  0  0  0  0
  -25.9183  -32.4728   23.8248 C   0  0  1  0  0  0
  -27.2134  -27.2528   20.1514 C   0  0  0  0  0  0
  -25.6017  -33.8541   24.2228 N   0  0  0  0  0  0
  -23.4231  -30.4844   21.5364 C   0  0  2  0  0  0
  -24.8654  -28.9242   20.1094 C   0  0  0  0  0  0
  -22.7461  -29.4666   22.4880 C   0  0  0  0  0  0
  -18.0311  -28.1386   22.8494 C   0  0  0  0  0  0
  -24.1523  -36.7270   23.2657 C   0  0  0  0  0  0
  -25.9657  -30.7746   21.3627 C   0  0  0  0  0  0
  -26.0367  -29.3925   20.7139 C   0  0  0  0  0  0
  -27.2070  -28.5734   20.7201 C   0  0  0  0  0  0
  -26.0104  -26.8450   19.5284 C   0  0  0  0  0  0
  -24.8599  -27.6565   19.5089 C   0  0  0  0  0  0
  -23.6389  -29.8155   20.1529 C   0  0  0  0  0  0
  -25.4135  -36.3040   24.0328 C   0  0  1  0  0  0
  -20.5895  -28.3743   23.1259 C   0  0  2  0  0  0
  -20.6824  -26.9452   22.5429 C   0  0  0  0  0  0
  -19.5794  -26.6400   21.5248 C   0  0  0  0  0  0
  -18.1956  -26.7946   22.1608 C   0  0  0  0  0  0
  -19.1546  -28.8865   23.2876 C   0  0  0  0  0  0
  -18.9493  -30.1479   23.8873 C   0  0  0  0  0  0
  -17.6495  -30.6596   24.0595 C   0  0  0  0  0  0
  -25.9091  -34.9434   23.5053 C   0  0  0  0  0  0
  -16.5385  -29.9103   23.6357 C   0  0  0  0  0  0
  -16.7292  -28.6522   23.0347 C   0  0  0  0  0  0
  -26.4583  -31.6498   25.0596 C   0  0  0  0  0  0
  -25.3840  -31.3611   26.1319 C   0  0  0  0  0  0
  -27.0468  -30.2942   24.6017 C   0  0  0  0  0  0
  -27.6152  -32.4218   25.7367 C   0  0  0  0  0  0
  -27.5544  -37.1763   24.8467 C   0  0  0  0  0  0
  -21.4157  -29.3090   22.3583 N   0  0  0  0  0  0
  -26.4261  -37.3774   23.9420 N   0  0  0  0  0  0
  -24.6937  -31.0552   22.0884 N   0  0  0  0  0  0
  -23.4176  -28.8243   23.2987 O   0  0  0  0  0  0
  -28.3411  -26.4016   20.2397 O   0  0  0  0  0  0
  -26.5652  -34.8936   22.4627 O   0  0  0  0  0  0
  -23.5474  -32.1375   23.7223 O   0  0  0  0  0  0
  -29.5835  -21.2004   20.6460 C   0  0  0  0  0  0
  -27.6263  -21.6204   19.8541 C   0  0  0  0  0  0
  -29.0846  -19.9770   20.1390 C   0  0  0  0  0  0
  -29.0093  -24.8623   23.1993 C   0  0  0  0  0  0
  -30.9193  -24.6687   21.5292 C   0  0  0  0  0  0
  -29.6330  -18.4964   19.8645 C   0  0  0  0  0  0
  -29.8939  -17.3626   20.9922 C   0  0  0  0  0  0
  -28.3822  -24.9405   19.8513 C   0  0  0  0  0  0
  -29.6127  -24.0371   22.0512 C   0  0  0  0  0  0
  -28.5564  -23.7395   20.9419 C   0  0  1  0  0  0
  -27.8180  -20.3102   19.6401 N   0  0  0  0  0  0
  -28.6250  -22.2674   20.4767 N   0  0  0  0  0  0
  -29.7151  -15.8621   20.6837 N   0  0  0  0  0  0
  -31.4807  -12.6651   19.1498 H   0  0  0  0  0  0
  -30.4517  -11.5176   19.9662 H   0  0  0  0  0  0
  -29.8075  -11.6774   17.5522 H   0  0  0  0  0  0
  -29.6233  -13.4078   17.6715 H   0  0  0  0  0  0
  -27.9308  -11.2486   18.9631 H   0  0  0  0  0  0
  -27.3782  -12.4237   17.8018 H   0  0  0  0  0  0
  -27.6241  -14.2283   19.4189 H   0  0  0  0  0  0
  -28.7226  -12.1618   21.3979 H   0  0  0  0  0  0
  -28.3894  -13.8329   21.7811 H   0  0  0  0  0  0
  -25.2758   -9.5698   22.4722 H   0  0  0  0  0  0
  -24.0039   -7.4605   22.7451 H   0  0  0  0  0  0
  -21.0857   -8.8708   19.8892 H   0  0  0  0  0  0
  -22.3684  -10.9631   19.6115 H   0  0  0  0  0  0
  -21.1961   -7.6126   23.9729 H   0  0  0  0  0  0
  -21.1482   -6.0487   25.9083 H   0  0  0  0  0  0
  -22.0615   -2.7605   23.2820 H   0  0  0  0  0  0
  -22.4080  -11.9845   22.4784 H   0  0  0  0  0  0
  -21.1050  -13.1145   22.2581 H   0  0  0  0  0  0
  -24.6694  -15.8528   20.5165 H   0  0  0  0  0  0
  -26.2742  -15.6152   20.0514 H   0  0  0  0  0  0
  -26.7210  -32.5389   23.0941 H   0  0  0  0  0  0
  -25.0226  -33.9710   25.0413 H   0  0  0  0  0  0
  -22.7221  -31.3104   21.3885 H   0  0  0  0  0  0
  -23.3775  -35.9617   23.3311 H   0  0  0  0  0  0
  -24.3633  -36.8904   22.2075 H   0  0  0  0  0  0
  -23.7291  -37.6476   23.6694 H   0  0  0  0  0  0
  -26.0846  -31.5221   20.5756 H   0  0  0  0  0  0
  -26.8539  -30.8379   21.9775 H   0  0  0  0  0  0
  -28.0968  -28.9393   21.2098 H   0  0  0  0  0  0
  -25.9057  -25.8783   19.0663 H   0  0  0  0  0  0
  -23.9553  -27.2880   19.0489 H   0  0  0  0  0  0
  -23.7695  -30.5919   19.3974 H   0  0  0  0  0  0
  -22.7548  -29.2523   19.8450 H   0  0  0  0  0  0
  -25.1308  -36.1860   25.0815 H   0  0  0  0  0  0
  -21.0025  -28.3371   24.1361 H   0  0  0  0  0  0
  -20.5827  -26.2333   23.3641 H   0  0  0  0  0  0
  -21.6685  -26.7552   22.1136 H   0  0  0  0  0  0
  -19.7005  -25.6339   21.1221 H   0  0  0  0  0  0
  -19.6722  -27.3278   20.6839 H   0  0  0  0  0  0
  -17.4260  -26.6771   21.3968 H   0  0  0  0  0  0
  -18.0267  -26.0055   22.8942 H   0  0  0  0  0  0
  -19.7992  -30.7317   24.2156 H   0  0  0  0  0  0
  -17.5083  -31.6273   24.5244 H   0  0  0  0  0  0
  -15.5388  -30.3026   23.7712 H   0  0  0  0  0  0
  -15.8674  -28.0899   22.6993 H   0  0  0  0  0  0
  -24.6083  -30.6870   25.7630 H   0  0  0  0  0  0
  -24.8962  -32.2780   26.4656 H   0  0  0  0  0  0
  -25.8208  -30.8847   27.0114 H   0  0  0  0  0  0
  -26.3011  -29.6553   24.1243 H   0  0  0  0  0  0
  -27.4475  -29.7293   25.4450 H   0  0  0  0  0  0
  -27.8738  -30.4262   23.9029 H   0  0  0  0  0  0
  -27.2800  -33.3588   26.1839 H   0  0  0  0  0  0
  -28.4013  -32.6643   25.0191 H   0  0  0  0  0  0
  -28.0752  -31.8362   26.5330 H   0  0  0  0  0  0
  -28.2551  -38.0060   24.7516 H   0  0  0  0  0  0
  -28.1024  -36.2585   24.6268 H   0  0  0  0  0  0
  -27.2265  -37.1403   25.8871 H   0  0  0  0  0  0
  -20.9294  -29.8735   21.6740 H   0  0  0  0  0  0
  -26.0103  -38.2825   24.1470 H   0  0  0  0  0  0
  -30.5449  -21.3916   21.1093 H   0  0  0  0  0  0
  -26.7070  -22.1190   19.5774 H   0  0  0  0  0  0
  -28.6667  -25.8400   22.8586 H   0  0  0  0  0  0
  -29.7275  -25.0191   24.0041 H   0  0  0  0  0  0
  -28.1521  -24.3444   23.6361 H   0  0  0  0  0  0
  -31.6988  -24.6397   22.2952 H   0  0  0  0  0  0
  -30.7758  -25.7147   21.2487 H   0  0  0  0  0  0
  -31.2979  -24.1455   20.6519 H   0  0  0  0  0  0
  -30.5480  -18.5784   19.2763 H   0  0  0  0  0  0
  -28.9297  -18.0434   19.1656 H   0  0  0  0  0  0
  -29.1735  -17.5609   21.7877 H   0  0  0  0  0  0
  -30.8667  -17.5200   21.4595 H   0  0  0  0  0  0
  -27.5402  -24.6787   19.2200 H   0  0  0  0  0  0
  -29.2316  -24.8745   19.1707 H   0  0  0  0  0  0
  -29.8843  -23.0923   22.5209 H   0  0  0  0  0  0
  -27.5943  -23.7607   21.4623 H   0  0  0  0  0  0
  -28.7550  -15.5660   20.7724 H   0  0  0  0  0  0
  1 25  1  0  0  0
  1 30  2  0  0  0
  1 83  1  0  0  0
  2  3  1  0  0  0
  2 25  1  0  0  0
  2 84  1  0  0  0
  2 85  1  0  0  0
  3  4  1  0  0  0
  3 86  1  0  0  0
  3 87  1  0  0  0
  4  5  1  0  0  0
  4 88  1  0  0  0
  4 89  1  0  0  0
  5  6  1  0  0  0
  5 26  1  0  0  0
  5 90  1  0  0  0
  6 25  1  0  0  0
  6 91  1  0  0  0
  6 92  1  0  0  0
  7  8  2  0  0  0
  7 26  1  0  0  0
  7 29  1  0  0  0
  8  9  1  0  0  0
  8 22  1  0  0  0
  9 10  1  0  0  0
  9 27  2  0  0  0
 10 11  2  0  0  0
 10 15  1  0  0  0
 11 12  1  0  0  0
 11 93  1  0  0  0
 12 13  2  0  0  0
 12 94  1  0  0  0
 13 14  1  0  0  0
 13 31  1  0  0  0
 14 15  2  0  0  0
 14 95  1  0  0  0
 15 96  1  0  0  0
 16 17  2  0  0  0
 16 21  1  0  0  0
 16 31  1  0  0  0
 17 18  1  0  0  0
 17 97  1  0  0  0
 18 19  2  0  0  0
 18 98  1  0  0  0
 19 20  1  0  0  0
 19 24  1  0  0  0
 20 21  2  0  0  0
 20 99  1  0  0  0
 21 23  1  0  0  0
 22 28  1  0  0  0
 22 32  2  0  0  0
 26 27  1  0  0  0
 28100  1  0  0  0
 28101  1  0  0  0
 29102  1  0  0  0
 29103  1  0  0  0
 33 34  1  0  0  0
 33 66  1  0  0  0
 33 70  2  0  0  0
 34 36  1  0  0  0
 34 59  1  0  0  0
 34104  1  0  0  0
 35 44  2  0  0  0
 35 45  1  0  0  0
 35 68  1  0  0  0
 36 56  1  0  0  0
 36105  1  0  0  0
 37 39  1  0  0  0
 37 47  1  0  0  0
 37 66  1  0  0  0
 37106  1  0  0  0
 38 43  2  0  0  0
 38 46  1  0  0  0
 38 47  1  0  0  0
 39 64  1  0  0  0
 39 67  2  0  0  0
 40 52  1  0  0  0
 40 53  2  0  0  0
 40 58  1  0  0  0
 41107  1  0  0  0
 41108  1  0  0  0
 41109  1  0  0  0
 41 48  1  0  0  0
 42 43  1  0  0  0
 42 66  1  0  0  0
 42110  1  0  0  0
 42111  1  0  0  0
 43 44  1  0  0  0
 44112  1  0  0  0
 45 46  2  0  0  0
 45113  1  0  0  0
 46114  1  0  0  0
 47115  1  0  0  0
 47116  1  0  0  0
 48 56  1  0  0  0
 48 65  1  0  0  0
 48117  1  0  0  0
 49 50  1  0  0  0
 49 53  1  0  0  0
 49 64  1  0  0  0
 49118  1  0  0  0
 50 51  1  0  0  0
 50119  1  0  0  0
 50120  1  0  0  0
 51 52  1  0  0  0
 51121  1  0  0  0
 51122  1  0  0  0
 52123  1  0  0  0
 52124  1  0  0  0
 53 54  1  0  0  0
 54 55  2  0  0  0
 54125  1  0  0  0
 55 57  1  0  0  0
 55126  1  0  0  0
 56 69  2  0  0  0
 57 58  2  0  0  0
 57127  1  0  0  0
 58128  1  0  0  0
 59 60  1  0  0  0
 59 61  1  0  0  0
 59 62  1  0  0  0
 60129  1  0  0  0
 60130  1  0  0  0
 60131  1  0  0  0
 61132  1  0  0  0
 61133  1  0  0  0
 61134  1  0  0  0
 62135  1  0  0  0
 62136  1  0  0  0
 62137  1  0  0  0
 63 65  1  0  0  0
 63138  1  0  0  0
 63139  1  0  0  0
 63140  1  0  0  0
 64141  1  0  0  0
 65142  1  0  0  0
 68 78  1  0  0  0
 71 73  2  0  0  0
 71 82  1  0  0  0
 71143  1  0  0  0
 72 81  2  0  0  0
 72 82  1  0  0  0
 72144  1  0  0  0
 73 76  1  0  0  0
 73 81  1  0  0  0
 74145  1  0  0  0
 74146  1  0  0  0
 74147  1  0  0  0
 74 79  1  0  0  0
 75 79  1  0  0  0
 75148  1  0  0  0
 75149  1  0  0  0
 75150  1  0  0  0
 76 77  1  0  0  0
 76151  1  0  0  0
 76152  1  0  0  0
 77 83  1  0  0  0
 77153  1  0  0  0
 77154  1  0  0  0
 78155  1  0  0  0
 78156  1  0  0  0
 78 80  1  0  0  0
 79 80  1  0  0  0
 79157  1  0  0  0
 80 82  1  0  0  0
 80158  1  0  0  0
 83159  1  0  0  0
M  ISO  4   1 100  68 101  78 101  83 100
M  END
> <chiral flag>
0

> <version>
0

> <s_m_source_file>
/data/baiqing/PycharmProjects/Reinvent-master-3.2/result/LINK_invent/BTK/process_docking_weight1_custom_sum_contain_oxygen_bond_distance_aromatic_linkinvent_7_9_3/rearranged_h_0048.sdf

> <i_m_source_file_index>
77

> <r_mmod_Potential_Energy-OPLS-2005>
253.977905273438

> <r_mmod_Stretch_Energy-OPLS-2005>
138.118255615234

> <r_mmod_Bend_Energy-OPLS-2005>
217.99853515625

> <r_mmod_Torsional_Energy-OPLS-2005>
247.039947509766

> <r_mmod_Improper_Torsional_Energy-OPLS-2005>
5.26116752624512

> <r_mmod_Van_der_Waal_Energy-OPLS-2005>
113.450454711914

> <r_mmod_Electrostatic_Energy-OPLS-2005>
-344.617797851562

> <r_mmod_Solvation_Energy-OPLS-2005>
-222.322265625

> <b_mmod_Minimization_Converged-OPLS-2005>
0

> <r_mmod_RMS_Derivative-OPLS-2005>
5.02370882034302

$$$$
78
                    3D
 Structure written by MMmdl.
158166  0  0  1  0            999 V2000
  -30.5243  -14.9570   20.4905 C   0  0  0  0  0  0
  -30.4477  -12.6036   19.5035 C   0  0  0  0  0  0
  -29.5302  -12.5592   18.2559 C   0  0  0  0  0  0
  -28.0540  -12.3513   18.6487 C   0  0  0  0  0  0
  -27.6337  -13.2443   19.8449 C   0  0  2  0  0  0
  -28.6778  -13.1875   20.9793 C   0  0  0  0  0  0
  -25.2422  -13.8036   20.5657 C   0  0  0  0  0  0
  -24.1767  -13.0304   20.9216 C   0  0  0  0  0  0
  -24.6410  -11.6813   20.8723 C   0  0  0  0  0  0
  -23.9084  -10.4219   21.0393 C   0  0  0  0  0  0
  -24.3619   -9.4152   21.9191 C   0  0  0  0  0  0
  -23.6283   -8.2194   22.0756 C   0  0  0  0  0  0
  -22.4270   -8.0243   21.3541 C   0  0  0  0  0  0
  -21.9909   -9.0218   20.4644 C   0  0  0  0  0  0
  -22.7246  -10.2084   20.3051 C   0  0  0  0  0  0
  -21.6845   -6.0729   22.5284 C   0  0  0  0  0  0
  -21.4001   -6.5636   23.8222 C   0  0  0  0  0  0
  -21.3653   -5.6792   24.9185 C   0  0  0  0  0  0
  -21.6044   -4.3054   24.7237 C   0  0  0  0  0  0
  -21.8816   -3.8147   23.4356 C   0  0  0  0  0  0
  -21.9192   -4.6955   22.3420 C   0  0  0  0  0  0
  -22.7803  -13.5110   21.1870 C   0  0  0  0  0  0
  -22.1659   -4.2146   21.0988 F   0  0  0  0  0  0
  -21.5640   -3.4544   25.7756 F   0  0  0  0  0  0
  -29.9498  -13.6754   20.4250 N   0  0  0  0  0  0
  -26.2901  -12.9339   20.3217 N   0  0  0  0  0  0
  -25.9346  -11.6469   20.5673 N   0  0  0  0  0  0
  -22.0443  -12.8156   22.0434 N   0  0  0  0  0  0
  -25.3945  -15.1692   20.3976 N   0  0  0  0  0  0
  -31.6932  -15.0088   20.0888 O   0  0  0  0  0  0
  -21.6612   -6.8852   21.4250 O   0  0  0  0  0  0
  -22.3538  -14.5461   20.6724 O   0  0  0  0  0  0
  -24.6404  -31.8474   23.1900 C   0  0  0  0  0  0
  -25.9171  -32.4719   23.8299 C   0  0  1  0  0  0
  -27.2228  -27.1550   20.1558 C   0  0  0  0  0  0
  -25.5912  -33.8524   24.2195 N   0  0  0  0  0  0
  -23.4452  -30.4666   21.5360 C   0  0  2  0  0  0
  -24.8941  -28.8962   20.1142 C   0  0  0  0  0  0
  -22.7558  -29.4555   22.4865 C   0  0  0  0  0  0
  -18.0321  -28.1381   22.8460 C   0  0  0  0  0  0
  -24.1473  -36.7252   23.2653 C   0  0  0  0  0  0
  -25.9999  -30.7282   21.3854 C   0  0  0  0  0  0
  -26.0726  -29.3426   20.7253 C   0  0  0  0  0  0
  -27.2394  -28.4901   20.7223 C   0  0  0  0  0  0
  -26.0134  -26.8057   19.5124 C   0  0  0  0  0  0
  -24.8760  -27.6399   19.4927 C   0  0  0  0  0  0
  -23.6705  -29.7969   20.1560 C   0  0  0  0  0  0
  -25.4114  -36.3048   24.0326 C   0  0  1  0  0  0
  -20.5924  -28.3708   23.1239 C   0  0  2  0  0  0
  -20.6800  -26.9416   22.5429 C   0  0  0  0  0  0
  -19.5770  -26.6331   21.5229 C   0  0  0  0  0  0
  -18.1935  -26.7946   22.1554 C   0  0  0  0  0  0
  -19.1568  -28.8855   23.2865 C   0  0  0  0  0  0
  -18.9462  -30.1453   23.8892 C   0  0  0  0  0  0
  -17.6457  -30.6574   24.0556 C   0  0  0  0  0  0
  -25.9069  -34.9425   23.5081 C   0  0  0  0  0  0
  -16.5351  -29.9041   23.6331 C   0  0  0  0  0  0
  -16.7309  -28.6485   23.0319 C   0  0  0  0  0  0
  -26.4507  -31.6576   25.0728 C   0  0  0  0  0  0
  -25.3718  -31.3733   26.1437 C   0  0  0  0  0  0
  -27.0372  -30.2979   24.6295 C   0  0  0  0  0  0
  -27.6021  -32.4362   25.7522 C   0  0  0  0  0  0
  -27.5569  -37.1779   24.8479 C   0  0  0  0  0  0
  -21.4254  -29.3041   22.3602 N   0  0  0  0  0  0
  -26.4279  -37.3755   23.9421 N   0  0  0  0  0  0
  -24.7154  -31.0343   22.0920 N   0  0  0  0  0  0
  -23.4200  -28.8107   23.3021 O   0  0  0  0  0  0
  -28.2882  -26.1853   20.2202 O   0  0  0  0  0  0
  -26.5675  -34.8924   22.4671 O   0  0  0  0  0  0
  -23.5516  -32.1335   23.7118 O   0  0  0  0  0  0
  -27.2844  -21.5559   20.8830 C   0  0  0  0  0  0
  -28.6286  -21.7889   20.5379 C   0  0  0  0  0  0
  -27.5070  -19.2425   20.6064 C   0  0  0  0  0  0
  -28.9257  -19.2865   20.4527 C   0  0  0  0  0  0
  -25.6085  -18.3365   19.1938 C   0  0  0  0  0  0
  -28.7552  -16.2709   22.0626 C   0  0  0  0  0  0
  -29.0767  -23.3677   20.3936 C   0  0  0  0  0  0
  -26.6565  -18.0304   20.2846 C   0  0  0  0  0  0
  -29.7722  -17.8812   20.1251 C   0  0  0  0  0  0
  -27.9978  -24.6563   20.2271 C   0  0  0  0  0  0
  -29.8674  -16.4238   21.0097 C   0  0  2  0  0  0
  -26.7480  -20.3211   20.9235 N   0  0  0  0  0  0
  -29.4528  -20.6206   20.3870 N   0  0  0  0  0  0
  -31.4804  -12.7704   19.1932 H   0  0  0  0  0  0
  -30.4562  -11.6330   20.0022 H   0  0  0  0  0  0
  -29.8495  -11.7697   17.5742 H   0  0  0  0  0  0
  -29.6312  -13.4942   17.7033 H   0  0  0  0  0  0
  -27.9237  -11.3002   18.9110 H   0  0  0  0  0  0
  -27.4052  -12.5268   17.7905 H   0  0  0  0  0  0
  -27.6122  -14.2652   19.4644 H   0  0  0  0  0  0
  -28.7726  -12.1613   21.3377 H   0  0  0  0  0  0
  -28.3645  -13.7466   21.8532 H   0  0  0  0  0  0
  -25.2745   -9.5636   22.4788 H   0  0  0  0  0  0
  -23.9983   -7.4590   22.7488 H   0  0  0  0  0  0
  -21.0829   -8.8735   19.8972 H   0  0  0  0  0  0
  -22.3688  -10.9629   19.6172 H   0  0  0  0  0  0
  -21.1971   -7.6142   23.9726 H   0  0  0  0  0  0
  -21.1480   -6.0519   25.9088 H   0  0  0  0  0  0
  -22.0597   -2.7609   23.2858 H   0  0  0  0  0  0
  -22.4044  -11.9819   22.4858 H   0  0  0  0  0  0
  -21.1081  -13.1250   22.2623 H   0  0  0  0  0  0
  -24.5945  -15.7896   20.4372 H   0  0  0  0  0  0
  -26.2029  -15.5887   19.9632 H   0  0  0  0  0  0
  -26.7240  -32.5329   23.1031 H   0  0  0  0  0  0
  -24.9987  -33.9655   25.0296 H   0  0  0  0  0  0
  -22.7455  -31.2929   21.3846 H   0  0  0  0  0  0
  -23.3755  -35.9564   23.3322 H   0  0  0  0  0  0
  -24.3542  -36.8881   22.2065 H   0  0  0  0  0  0
  -23.7209  -37.6440   23.6688 H   0  0  0  0  0  0
  -26.1542  -31.4883   20.6182 H   0  0  0  0  0  0
  -26.8697  -30.7740   22.0306 H   0  0  0  0  0  0
  -28.1409  -28.8384   21.2061 H   0  0  0  0  0  0
  -25.9109  -25.8500   19.0244 H   0  0  0  0  0  0
  -23.9741  -27.2915   19.0053 H   0  0  0  0  0  0
  -23.8093  -30.5720   19.4029 H   0  0  0  0  0  0
  -22.7849  -29.2412   19.8435 H   0  0  0  0  0  0
  -25.1287  -36.1892   25.0814 H   0  0  0  0  0  0
  -21.0018  -28.3326   24.1358 H   0  0  0  0  0  0
  -20.5718  -26.2339   23.3667 H   0  0  0  0  0  0
  -21.6684  -26.7452   22.1260 H   0  0  0  0  0  0
  -19.6899  -25.6223   21.1299 H   0  0  0  0  0  0
  -19.6721  -27.3068   20.6712 H   0  0  0  0  0  0
  -17.4275  -26.6777   21.3865 H   0  0  0  0  0  0
  -18.0208  -26.0074   22.8912 H   0  0  0  0  0  0
  -19.7914  -30.7309   24.2251 H   0  0  0  0  0  0
  -17.4990  -31.6244   24.5150 H   0  0  0  0  0  0
  -15.5343  -30.2924   23.7643 H   0  0  0  0  0  0
  -15.8749  -28.0787   22.6976 H   0  0  0  0  0  0
  -24.5899  -30.7081   25.7749 H   0  0  0  0  0  0
  -24.8917  -32.2901   26.4860 H   0  0  0  0  0  0
  -25.8029  -30.8904   27.0220 H   0  0  0  0  0  0
  -26.2984  -29.6715   24.1284 H   0  0  0  0  0  0
  -27.3961  -29.7258   25.4861 H   0  0  0  0  0  0
  -27.8897  -30.4212   23.9621 H   0  0  0  0  0  0
  -27.2580  -33.3680   26.2032 H   0  0  0  0  0  0
  -28.3857  -32.6910   25.0371 H   0  0  0  0  0  0
  -28.0666  -31.8557   26.5504 H   0  0  0  0  0  0
  -28.2582  -38.0075   24.7502 H   0  0  0  0  0  0
  -28.1059  -36.2600   24.6324 H   0  0  0  0  0  0
  -27.2285  -37.1448   25.8882 H   0  0  0  0  0  0
  -20.9483  -29.8719   21.6746 H   0  0  0  0  0  0
  -26.0154  -38.2820   24.1440 H   0  0  0  0  0  0
  -26.5958  -22.3670   21.0687 H   0  0  0  0  0  0
  -24.9632  -17.4836   18.9910 H   0  0  0  0  0  0
  -26.0809  -18.6324   18.2560 H   0  0  0  0  0  0
  -24.9506  -19.1465   19.5074 H   0  0  0  0  0  0
  -28.5542  -17.2231   22.5495 H   0  0  0  0  0  0
  -29.0539  -15.5877   22.8613 H   0  0  0  0  0  0
  -27.8229  -15.9047   21.6402 H   0  0  0  0  0  0
  -29.7701  -23.4204   19.5541 H   0  0  0  0  0  0
  -29.6816  -23.5775   21.2741 H   0  0  0  0  0  0
  -26.1703  -17.6977   21.2012 H   0  0  0  0  0  0
  -27.2755  -17.2150   19.9217 H   0  0  0  0  0  0
  -30.8041  -18.1952   19.9678 H   0  0  0  0  0  0
  -29.4299  -17.6010   19.1274 H   0  0  0  0  0  0
  -27.2607  -24.5361   21.0215 H   0  0  0  0  0  0
  -27.4633  -24.4418   19.3020 H   0  0  0  0  0  0
  -30.6799  -16.7123   21.6778 H   0  0  0  0  0  0
  1 25  1  0  0  0
  1 30  2  0  0  0
  1 81  1  0  0  0
  2  3  1  0  0  0
  2 25  1  0  0  0
  2 84  1  0  0  0
  2 85  1  0  0  0
  3  4  1  0  0  0
  3 86  1  0  0  0
  3 87  1  0  0  0
  4  5  1  0  0  0
  4 88  1  0  0  0
  4 89  1  0  0  0
  5  6  1  0  0  0
  5 26  1  0  0  0
  5 90  1  0  0  0
  6 25  1  0  0  0
  6 91  1  0  0  0
  6 92  1  0  0  0
  7  8  2  0  0  0
  7 26  1  0  0  0
  7 29  1  0  0  0
  8  9  1  0  0  0
  8 22  1  0  0  0
  9 10  1  0  0  0
  9 27  2  0  0  0
 10 11  2  0  0  0
 10 15  1  0  0  0
 11 12  1  0  0  0
 11 93  1  0  0  0
 12 13  2  0  0  0
 12 94  1  0  0  0
 13 14  1  0  0  0
 13 31  1  0  0  0
 14 15  2  0  0  0
 14 95  1  0  0  0
 15 96  1  0  0  0
 16 17  2  0  0  0
 16 21  1  0  0  0
 16 31  1  0  0  0
 17 18  1  0  0  0
 17 97  1  0  0  0
 18 19  2  0  0  0
 18 98  1  0  0  0
 19 20  1  0  0  0
 19 24  1  0  0  0
 20 21  2  0  0  0
 20 99  1  0  0  0
 21 23  1  0  0  0
 22 28  1  0  0  0
 22 32  2  0  0  0
 26 27  1  0  0  0
 28100  1  0  0  0
 28101  1  0  0  0
 29102  1  0  0  0
 29103  1  0  0  0
 33 34  1  0  0  0
 33 66  1  0  0  0
 33 70  2  0  0  0
 34 36  1  0  0  0
 34 59  1  0  0  0
 34104  1  0  0  0
 35 44  2  0  0  0
 35 45  1  0  0  0
 35 68  1  0  0  0
 36 56  1  0  0  0
 36105  1  0  0  0
 37 39  1  0  0  0
 37 47  1  0  0  0
 37 66  1  0  0  0
 37106  1  0  0  0
 38 43  2  0  0  0
 38 46  1  0  0  0
 38 47  1  0  0  0
 39 64  1  0  0  0
 39 67  2  0  0  0
 40 52  1  0  0  0
 40 53  2  0  0  0
 40 58  1  0  0  0
 41107  1  0  0  0
 41108  1  0  0  0
 41109  1  0  0  0
 41 48  1  0  0  0
 42 43  1  0  0  0
 42 66  1  0  0  0
 42110  1  0  0  0
 42111  1  0  0  0
 43 44  1  0  0  0
 44112  1  0  0  0
 45 46  2  0  0  0
 45113  1  0  0  0
 46114  1  0  0  0
 47115  1  0  0  0
 47116  1  0  0  0
 48 56  1  0  0  0
 48 65  1  0  0  0
 48117  1  0  0  0
 49 50  1  0  0  0
 49 53  1  0  0  0
 49 64  1  0  0  0
 49118  1  0  0  0
 50 51  1  0  0  0
 50119  1  0  0  0
 50120  1  0  0  0
 51 52  1  0  0  0
 51121  1  0  0  0
 51122  1  0  0  0
 52123  1  0  0  0
 52124  1  0  0  0
 53 54  1  0  0  0
 54 55  2  0  0  0
 54125  1  0  0  0
 55 57  1  0  0  0
 55126  1  0  0  0
 56 69  2  0  0  0
 57 58  2  0  0  0
 57127  1  0  0  0
 58128  1  0  0  0
 59 60  1  0  0  0
 59 61  1  0  0  0
 59 62  1  0  0  0
 60129  1  0  0  0
 60130  1  0  0  0
 60131  1  0  0  0
 61132  1  0  0  0
 61133  1  0  0  0
 61134  1  0  0  0
 62135  1  0  0  0
 62136  1  0  0  0
 62137  1  0  0  0
 63 65  1  0  0  0
 63138  1  0  0  0
 63139  1  0  0  0
 63140  1  0  0  0
 64141  1  0  0  0
 65142  1  0  0  0
 68 80  1  0  0  0
 71 72  2  0  0  0
 71 82  1  0  0  0
 71143  1  0  0  0
 72 77  1  0  0  0
 72 83  1  0  0  0
 73 74  1  0  0  0
 73 78  1  0  0  0
 73 82  2  0  0  0
 74 79  1  0  0  0
 74 83  2  0  0  0
 75 78  1  0  0  0
 75144  1  0  0  0
 75145  1  0  0  0
 75146  1  0  0  0
 76147  1  0  0  0
 76148  1  0  0  0
 76149  1  0  0  0
 76 81  1  0  0  0
 77 80  1  0  0  0
 77150  1  0  0  0
 77151  1  0  0  0
 78152  1  0  0  0
 78153  1  0  0  0
 79 81  1  0  0  0
 79154  1  0  0  0
 79155  1  0  0  0
 80156  1  0  0  0
 80157  1  0  0  0
 81158  1  0  0  0
M  ISO  4   1 100  68 101  80 101  81 100
M  END
> <chiral flag>
0

> <version>
0

> <s_m_source_file>
/data/baiqing/PycharmProjects/Reinvent-master-3.2/result/LINK_invent/BTK/process_docking_weight1_custom_sum_contain_oxygen_bond_distance_aromatic_linkinvent_7_9_3/rearranged_h_0048.sdf

> <i_m_source_file_index>
78

> <r_mmod_Potential_Energy-OPLS-2005>
620.224853515625

> <r_mmod_Stretch_Energy-OPLS-2005>
296.113067626953

> <r_mmod_Bend_Energy-OPLS-2005>
302.597442626953

> <r_mmod_Torsional_Energy-OPLS-2005>
194.9541015625

> <r_mmod_Improper_Torsional_Energy-OPLS-2005>
4.17223358154297

> <r_mmod_Van_der_Waal_Energy-OPLS-2005>
141.308868408203

> <r_mmod_Electrostatic_Energy-OPLS-2005>
-288.90625

> <r_mmod_Solvation_Energy-OPLS-2005>
-206.60124206543

> <b_mmod_Minimization_Converged-OPLS-2005>
0

> <r_mmod_RMS_Derivative-OPLS-2005>
3.79371047019958

$$$$
79
                    3D
 Structure written by MMmdl.
156164  0  0  1  0            999 V2000
  -30.6114  -14.9314   20.4518 C   0  0  0  0  0  0
  -30.4368  -12.5777   19.4975 C   0  0  0  0  0  0
  -29.5247  -12.5201   18.2505 C   0  0  0  0  0  0
  -28.0618  -12.3118   18.6737 C   0  0  0  0  0  0
  -27.6384  -13.2529   19.8311 C   0  0  2  0  0  0
  -28.6777  -13.3090   20.9726 C   0  0  0  0  0  0
  -25.2535  -13.8229   20.5648 C   0  0  0  0  0  0
  -24.1821  -13.0432   20.9123 C   0  0  0  0  0  0
  -24.6448  -11.6933   20.8667 C   0  0  0  0  0  0
  -23.9111  -10.4292   21.0347 C   0  0  0  0  0  0
  -24.3665   -9.4214   21.9145 C   0  0  0  0  0  0
  -23.6312   -8.2268   22.0765 C   0  0  0  0  0  0
  -22.4283   -8.0295   21.3575 C   0  0  0  0  0  0
  -21.9916   -9.0251   20.4654 C   0  0  0  0  0  0
  -22.7268  -10.2119   20.3014 C   0  0  0  0  0  0
  -21.6866   -6.0722   22.5293 C   0  0  0  0  0  0
  -21.4049   -6.5626   23.8229 C   0  0  0  0  0  0
  -21.3644   -5.6777   24.9188 C   0  0  0  0  0  0
  -21.6020   -4.3034   24.7241 C   0  0  0  0  0  0
  -21.8829   -3.8132   23.4358 C   0  0  0  0  0  0
  -21.9213   -4.6953   22.3418 C   0  0  0  0  0  0
  -22.7839  -13.5208   21.1795 C   0  0  0  0  0  0
  -22.1677   -4.2135   21.0993 F   0  0  0  0  0  0
  -21.5597   -3.4517   25.7756 F   0  0  0  0  0  0
  -29.9717  -13.6893   20.3877 N   0  0  0  0  0  0
  -26.2970  -12.9473   20.3201 N   0  0  0  0  0  0
  -25.9394  -11.6597   20.5689 N   0  0  0  0  0  0
  -22.0525  -12.8187   22.0390 N   0  0  0  0  0  0
  -25.4226  -15.1951   20.4136 N   0  0  0  0  0  0
  -31.7604  -14.9892   20.0078 O   0  0  0  0  0  0
  -21.6654   -6.8883   21.4263 O   0  0  0  0  0  0
  -22.3504  -14.5500   20.6658 O   0  0  0  0  0  0
  -24.6432  -31.8393   23.1864 C   0  0  0  0  0  0
  -25.9170  -32.4684   23.8260 C   0  0  1  0  0  0
  -27.2464  -27.1119   20.1679 C   0  0  0  0  0  0
  -25.5903  -33.8486   24.2207 N   0  0  0  0  0  0
  -23.4567  -30.4456   21.5324 C   0  0  2  0  0  0
  -24.9179  -28.8725   20.1133 C   0  0  0  0  0  0
  -22.7584  -29.4416   22.4841 C   0  0  0  0  0  0
  -18.0280  -28.1300   22.8414 C   0  0  0  0  0  0
  -24.1542  -36.7270   23.2646 C   0  0  0  0  0  0
  -26.0123  -30.7057   21.3934 C   0  0  0  0  0  0
  -26.0930  -29.3125   20.7395 C   0  0  0  0  0  0
  -27.2525  -28.4468   20.7485 C   0  0  0  0  0  0
  -26.0460  -26.7784   19.5006 C   0  0  0  0  0  0
  -24.9103  -27.6196   19.4797 C   0  0  0  0  0  0
  -23.6949  -29.7731   20.1522 C   0  0  0  0  0  0
  -25.4163  -36.3034   24.0318 C   0  0  1  0  0  0
  -20.5905  -28.3608   23.1237 C   0  0  2  0  0  0
  -20.6749  -26.9291   22.5404 C   0  0  0  0  0  0
  -19.5761  -26.6299   21.5175 C   0  0  0  0  0  0
  -18.1910  -26.7832   22.1568 C   0  0  0  0  0  0
  -19.1542  -28.8763   23.2797 C   0  0  0  0  0  0
  -18.9467  -30.1360   23.8820 C   0  0  0  0  0  0
  -17.6473  -30.6518   24.0493 C   0  0  0  0  0  0
  -25.9077  -34.9386   23.5097 C   0  0  0  0  0  0
  -16.5348  -29.9026   23.6299 C   0  0  0  0  0  0
  -16.7257  -28.6439   23.0302 C   0  0  0  0  0  0
  -26.4511  -31.6526   25.0677 C   0  0  0  0  0  0
  -25.3685  -31.3649   26.1371 C   0  0  0  0  0  0
  -27.0371  -30.2951   24.6158 C   0  0  0  0  0  0
  -27.6071  -32.4261   25.7432 C   0  0  0  0  0  0
  -27.5608  -37.1783   24.8456 C   0  0  0  0  0  0
  -21.4267  -29.2999   22.3656 N   0  0  0  0  0  0
  -26.4342  -37.3729   23.9387 N   0  0  0  0  0  0
  -24.7244  -31.0171   22.0938 N   0  0  0  0  0  0
  -23.4216  -28.7874   23.2920 O   0  0  0  0  0  0
  -28.3107  -26.1331   20.2514 O   0  0  0  0  0  0
  -26.5681  -34.8891   22.4688 O   0  0  0  0  0  0
  -23.5548  -32.1295   23.7035 O   0  0  0  0  0  0
  -31.2994  -20.9459   20.6468 C   0  0  0  0  0  0
  -30.0216  -20.4681   20.4935 C   0  0  0  0  0  0
  -30.2762  -18.9466   20.5075 C   0  0  0  0  0  0
  -33.6437  -19.9634   20.8933 C   0  0  0  0  0  0
  -30.1314  -16.2621   22.4009 C   0  0  0  0  0  0
  -28.8425  -21.6262   20.3642 C   0  0  0  0  0  0
  -29.5418  -17.4942   20.3110 C   0  0  0  0  0  0
  -29.1549  -23.3060   20.4188 C   0  0  0  0  0  0
  -28.0626  -24.5859   20.1710 C   0  0  0  0  0  0
  -31.5834  -18.7295   20.6374 N   0  0  0  0  0  0
  -32.1974  -19.9136   20.7291 N   0  0  0  0  0  0
  -29.9747  -16.1048   20.9531 N   0  0  0  0  0  0
  -31.4745  -12.6995   19.1864 H   0  0  0  0  0  0
  -30.4053  -11.6254   20.0285 H   0  0  0  0  0  0
  -29.8285  -11.7064   17.5908 H   0  0  0  0  0  0
  -29.6212  -13.4371   17.6679 H   0  0  0  0  0  0
  -27.9643  -11.2759   18.9990 H   0  0  0  0  0  0
  -27.3935  -12.4249   17.8180 H   0  0  0  0  0  0
  -27.5992  -14.2489   19.3903 H   0  0  0  0  0  0
  -28.7566  -12.3602   21.4994 H   0  0  0  0  0  0
  -28.3599  -14.0522   21.7060 H   0  0  0  0  0  0
  -25.2841   -9.5664   22.4688 H   0  0  0  0  0  0
  -24.0011   -7.4665   22.7508 H   0  0  0  0  0  0
  -21.0831   -8.8736   19.8990 H   0  0  0  0  0  0
  -22.3713  -10.9618   19.6080 H   0  0  0  0  0  0
  -21.2087   -7.6141   23.9735 H   0  0  0  0  0  0
  -21.1422   -6.0504   25.9083 H   0  0  0  0  0  0
  -22.0627   -2.7594   23.2869 H   0  0  0  0  0  0
  -22.4193  -11.9871   22.4748 H   0  0  0  0  0  0
  -21.1164  -13.1224   22.2657 H   0  0  0  0  0  0
  -24.6543  -15.8504   20.5017 H   0  0  0  0  0  0
  -26.2927  -15.6380   20.1468 H   0  0  0  0  0  0
  -26.7166  -32.5328   23.0917 H   0  0  0  0  0  0
  -24.9897  -33.9603   25.0243 H   0  0  0  0  0  0
  -22.7588  -31.2674   21.3608 H   0  0  0  0  0  0
  -23.3825  -35.9591   23.3311 H   0  0  0  0  0  0
  -24.3637  -36.8939   22.2072 H   0  0  0  0  0  0
  -23.7291  -37.6444   23.6699 H   0  0  0  0  0  0
  -26.1567  -31.4595   20.6198 H   0  0  0  0  0  0
  -26.8858  -30.7681   22.0281 H   0  0  0  0  0  0
  -28.1477  -28.7640   21.2686 H   0  0  0  0  0  0
  -25.9599  -25.8204   19.0072 H   0  0  0  0  0  0
  -24.0157  -27.2766   18.9780 H   0  0  0  0  0  0
  -23.8465  -30.5515   19.4050 H   0  0  0  0  0  0
  -22.8160  -29.2143   19.8208 H   0  0  0  0  0  0
  -25.1349  -36.1915   25.0809 H   0  0  0  0  0  0
  -20.9905  -28.3157   24.1405 H   0  0  0  0  0  0
  -20.5567  -26.2163   23.3582 H   0  0  0  0  0  0
  -21.6609  -26.7249   22.1226 H   0  0  0  0  0  0
  -19.6942  -25.6216   21.1181 H   0  0  0  0  0  0
  -19.6761  -27.3093   20.6682 H   0  0  0  0  0  0
  -17.4182  -26.6487   21.3994 H   0  0  0  0  0  0
  -18.0354  -25.9985   22.8981 H   0  0  0  0  0  0
  -19.7964  -30.7118   24.2207 H   0  0  0  0  0  0
  -17.5062  -31.6208   24.5065 H   0  0  0  0  0  0
  -15.5345  -30.2882   23.7723 H   0  0  0  0  0  0
  -15.8633  -28.0762   22.7047 H   0  0  0  0  0  0
  -24.5905  -30.6963   25.7692 H   0  0  0  0  0  0
  -24.8789  -32.2772   26.4768 H   0  0  0  0  0  0
  -25.7992  -30.8835   27.0166 H   0  0  0  0  0  0
  -26.2953  -29.6654   24.1229 H   0  0  0  0  0  0
  -27.4132  -29.7254   25.4660 H   0  0  0  0  0  0
  -27.8811  -30.4265   23.9390 H   0  0  0  0  0  0
  -27.2716  -33.3624   26.1910 H   0  0  0  0  0  0
  -28.3906  -32.6708   25.0245 H   0  0  0  0  0  0
  -28.0654  -31.8390   26.5399 H   0  0  0  0  0  0
  -28.2550  -38.0141   24.7518 H   0  0  0  0  0  0
  -28.1163  -36.2639   24.6278 H   0  0  0  0  0  0
  -27.2277  -37.1429   25.8842 H   0  0  0  0  0  0
  -20.9434  -29.8908   21.7025 H   0  0  0  0  0  0
  -26.0239  -38.2816   24.1406 H   0  0  0  0  0  0
  -31.6511  -21.9677   20.7029 H   0  0  0  0  0  0
  -33.9706  -20.9926   21.0479 H   0  0  0  0  0  0
  -34.1455  -19.5735   20.0061 H   0  0  0  0  0  0
  -33.9473  -19.3588   21.7496 H   0  0  0  0  0  0
  -29.2123  -16.6381   22.8495 H   0  0  0  0  0  0
  -30.9338  -16.9704   22.6106 H   0  0  0  0  0  0
  -30.3961  -15.3319   22.9090 H   0  0  0  0  0  0
  -28.1134  -21.4398   21.1542 H   0  0  0  0  0  0
  -28.2752  -21.4437   19.4508 H   0  0  0  0  0  0
  -29.4978  -17.3004   19.2398 H   0  0  0  0  0  0
  -28.5021  -17.6234   20.6077 H   0  0  0  0  0  0
  -29.9715  -23.4886   19.7177 H   0  0  0  0  0  0
  -29.5855  -23.4879   21.4047 H   0  0  0  0  0  0
  -27.2272  -24.3930   20.8429 H   0  0  0  0  0  0
  -27.6578  -24.4091   19.1781 H   0  0  0  0  0  0
  1 25  1  0  0  0
  1 30  2  0  0  0
  1 82  1  0  0  0
  2  3  1  0  0  0
  2 25  1  0  0  0
  2 83  1  0  0  0
  2 84  1  0  0  0
  3  4  1  0  0  0
  3 85  1  0  0  0
  3 86  1  0  0  0
  4  5  1  0  0  0
  4 87  1  0  0  0
  4 88  1  0  0  0
  5  6  1  0  0  0
  5 26  1  0  0  0
  5 89  1  0  0  0
  6 25  1  0  0  0
  6 90  1  0  0  0
  6 91  1  0  0  0
  7  8  2  0  0  0
  7 26  1  0  0  0
  7 29  1  0  0  0
  8  9  1  0  0  0
  8 22  1  0  0  0
  9 10  1  0  0  0
  9 27  2  0  0  0
 10 11  2  0  0  0
 10 15  1  0  0  0
 11 12  1  0  0  0
 11 92  1  0  0  0
 12 13  2  0  0  0
 12 93  1  0  0  0
 13 14  1  0  0  0
 13 31  1  0  0  0
 14 15  2  0  0  0
 14 94  1  0  0  0
 15 95  1  0  0  0
 16 17  2  0  0  0
 16 21  1  0  0  0
 16 31  1  0  0  0
 17 18  1  0  0  0
 17 96  1  0  0  0
 18 19  2  0  0  0
 18 97  1  0  0  0
 19 20  1  0  0  0
 19 24  1  0  0  0
 20 21  2  0  0  0
 20 98  1  0  0  0
 21 23  1  0  0  0
 22 28  1  0  0  0
 22 32  2  0  0  0
 26 27  1  0  0  0
 28 99  1  0  0  0
 28100  1  0  0  0
 29101  1  0  0  0
 29102  1  0  0  0
 33 34  1  0  0  0
 33 66  1  0  0  0
 33 70  2  0  0  0
 34 36  1  0  0  0
 34 59  1  0  0  0
 34103  1  0  0  0
 35 44  2  0  0  0
 35 45  1  0  0  0
 35 68  1  0  0  0
 36 56  1  0  0  0
 36104  1  0  0  0
 37 39  1  0  0  0
 37 47  1  0  0  0
 37 66  1  0  0  0
 37105  1  0  0  0
 38 43  2  0  0  0
 38 46  1  0  0  0
 38 47  1  0  0  0
 39 64  1  0  0  0
 39 67  2  0  0  0
 40 52  1  0  0  0
 40 53  2  0  0  0
 40 58  1  0  0  0
 41106  1  0  0  0
 41107  1  0  0  0
 41108  1  0  0  0
 41 48  1  0  0  0
 42 43  1  0  0  0
 42 66  1  0  0  0
 42109  1  0  0  0
 42110  1  0  0  0
 43 44  1  0  0  0
 44111  1  0  0  0
 45 46  2  0  0  0
 45112  1  0  0  0
 46113  1  0  0  0
 47114  1  0  0  0
 47115  1  0  0  0
 48 56  1  0  0  0
 48 65  1  0  0  0
 48116  1  0  0  0
 49 50  1  0  0  0
 49 53  1  0  0  0
 49 64  1  0  0  0
 49117  1  0  0  0
 50 51  1  0  0  0
 50118  1  0  0  0
 50119  1  0  0  0
 51 52  1  0  0  0
 51120  1  0  0  0
 51121  1  0  0  0
 52122  1  0  0  0
 52123  1  0  0  0
 53 54  1  0  0  0
 54 55  2  0  0  0
 54124  1  0  0  0
 55 57  1  0  0  0
 55125  1  0  0  0
 56 69  2  0  0  0
 57 58  2  0  0  0
 57126  1  0  0  0
 58127  1  0  0  0
 59 60  1  0  0  0
 59 61  1  0  0  0
 59 62  1  0  0  0
 60128  1  0  0  0
 60129  1  0  0  0
 60130  1  0  0  0
 61131  1  0  0  0
 61132  1  0  0  0
 61133  1  0  0  0
 62134  1  0  0  0
 62135  1  0  0  0
 62136  1  0  0  0
 63 65  1  0  0  0
 63137  1  0  0  0
 63138  1  0  0  0
 63139  1  0  0  0
 64140  1  0  0  0
 65141  1  0  0  0
 68 79  1  0  0  0
 71 72  2  0  0  0
 71 81  1  0  0  0
 71142  1  0  0  0
 72 73  1  0  0  0
 72 76  1  0  0  0
 73 77  1  0  0  0
 73 80  2  0  0  0
 74 81  1  0  0  0
 74143  1  0  0  0
 74144  1  0  0  0
 74145  1  0  0  0
 75 82  1  0  0  0
 75146  1  0  0  0
 75147  1  0  0  0
 75148  1  0  0  0
 76 78  1  0  0  0
 76149  1  0  0  0
 76150  1  0  0  0
 77 82  1  0  0  0
 77151  1  0  0  0
 77152  1  0  0  0
 78 79  1  0  0  0
 78153  1  0  0  0
 78154  1  0  0  0
 79155  1  0  0  0
 79156  1  0  0  0
 80 81  1  0  0  0
M  ISO  4   1 100  68 101  79 101  82 100
M  END
> <chiral flag>
0

> <version>
0

> <s_m_source_file>
/data/baiqing/PycharmProjects/Reinvent-master-3.2/result/LINK_invent/BTK/process_docking_weight1_custom_sum_contain_oxygen_bond_distance_aromatic_linkinvent_7_9_3/rearranged_h_0048.sdf

> <i_m_source_file_index>
79

> <r_mmod_Potential_Energy-OPLS-2005>
614.865112304688

> <r_mmod_Stretch_Energy-OPLS-2005>
300.820983886719

> <r_mmod_Bend_Energy-OPLS-2005>
302.218841552734

> <r_mmod_Torsional_Energy-OPLS-2005>
274.074676513672

> <r_mmod_Improper_Torsional_Energy-OPLS-2005>
3.16060209274292

> <r_mmod_Van_der_Waal_Energy-OPLS-2005>
107.167831420898

> <r_mmod_Electrostatic_Energy-OPLS-2005>
-347.943450927734

> <r_mmod_Solvation_Energy-OPLS-2005>
-219.748687744141

> <b_mmod_Minimization_Converged-OPLS-2005>
0

> <r_mmod_RMS_Derivative-OPLS-2005>
5.01239442825317

$$$$
80
                    3D
 Structure written by MMmdl.
168176  0  0  1  0            999 V2000
  -30.5446  -14.9755   20.4077 C   0  0  0  0  0  0
  -30.4345  -12.6092   19.4864 C   0  0  0  0  0  0
  -29.5179  -12.5560   18.2448 C   0  0  0  0  0  0
  -28.0524  -12.3353   18.6638 C   0  0  0  0  0  0
  -27.6269  -13.2588   19.8336 C   0  0  2  0  0  0
  -28.6715  -13.3110   20.9680 C   0  0  0  0  0  0
  -25.2472  -13.8243   20.5739 C   0  0  0  0  0  0
  -24.1800  -13.0412   20.9250 C   0  0  0  0  0  0
  -24.6447  -11.6926   20.8744 C   0  0  0  0  0  0
  -23.9128  -10.4288   21.0394 C   0  0  0  0  0  0
  -24.3679   -9.4211   21.9176 C   0  0  0  0  0  0
  -23.6355   -8.2250   22.0743 C   0  0  0  0  0  0
  -22.4325   -8.0304   21.3548 C   0  0  0  0  0  0
  -21.9960   -9.0266   20.4640 C   0  0  0  0  0  0
  -22.7284  -10.2149   20.3052 C   0  0  0  0  0  0
  -21.6869   -6.0765   22.5290 C   0  0  0  0  0  0
  -21.3999   -6.5655   23.8224 C   0  0  0  0  0  0
  -21.3659   -5.6808   24.9187 C   0  0  0  0  0  0
  -21.6062   -4.3074   24.7215 C   0  0  0  0  0  0
  -21.8814   -3.8164   23.4332 C   0  0  0  0  0  0
  -21.9195   -4.6992   22.3401 C   0  0  0  0  0  0
  -22.7821  -13.5191   21.1925 C   0  0  0  0  0  0
  -22.1681   -4.2198   21.0977 F   0  0  0  0  0  0
  -21.5641   -3.4544   25.7715 F   0  0  0  0  0  0
  -29.9400  -13.7193   20.3531 N   0  0  0  0  0  0
  -26.2888  -12.9494   20.3231 N   0  0  0  0  0  0
  -25.9375  -11.6606   20.5718 N   0  0  0  0  0  0
  -22.0484  -12.8139   22.0481 N   0  0  0  0  0  0
  -25.4047  -15.1971   20.4184 N   0  0  0  0  0  0
  -31.7585  -15.0212   20.1893 O   0  0  0  0  0  0
  -21.6670   -6.8911   21.4258 O   0  0  0  0  0  0
  -22.3467  -14.5478   20.6785 O   0  0  0  0  0  0
  -24.6404  -31.8453   23.1920 C   0  0  0  0  0  0
  -25.9224  -32.4708   23.8240 C   0  0  1  0  0  0
  -27.2020  -27.1456   20.1547 C   0  0  0  0  0  0
  -25.5991  -33.8494   24.2168 N   0  0  0  0  0  0
  -23.4404  -30.4686   21.5365 C   0  0  2  0  0  0
  -24.8901  -28.9012   20.1032 C   0  0  0  0  0  0
  -22.7513  -29.4573   22.4888 C   0  0  0  0  0  0
  -18.0316  -28.1353   22.8480 C   0  0  0  0  0  0
  -24.1499  -36.7250   23.2640 C   0  0  0  0  0  0
  -25.9929  -30.7256   21.3883 C   0  0  0  0  0  0
  -26.0633  -29.3347   20.7353 C   0  0  0  0  0  0
  -27.2198  -28.4690   20.7541 C   0  0  0  0  0  0
  -26.0199  -26.8281   19.4559 C   0  0  0  0  0  0
  -24.8819  -27.6613   19.4456 C   0  0  0  0  0  0
  -23.6632  -29.7984   20.1532 C   0  0  0  0  0  0
  -25.4129  -36.3014   24.0304 C   0  0  1  0  0  0
  -20.5917  -28.3703   23.1242 C   0  0  2  0  0  0
  -20.6820  -26.9412   22.5414 C   0  0  0  0  0  0
  -19.5807  -26.6350   21.5222 C   0  0  0  0  0  0
  -18.1968  -26.7892   22.1602 C   0  0  0  0  0  0
  -19.1560  -28.8841   23.2853 C   0  0  0  0  0  0
  -18.9493  -30.1454   23.8859 C   0  0  0  0  0  0
  -17.6487  -30.6566   24.0560 C   0  0  0  0  0  0
  -25.9076  -34.9411   23.5016 C   0  0  0  0  0  0
  -16.5379  -29.9055   23.6346 C   0  0  0  0  0  0
  -16.7298  -28.6473   23.0350 C   0  0  0  0  0  0
  -26.4555  -31.6551   25.0671 C   0  0  0  0  0  0
  -25.3727  -31.3769   26.1370 C   0  0  0  0  0  0
  -27.0451  -30.2945   24.6266 C   0  0  0  0  0  0
  -27.6056  -32.4322   25.7466 C   0  0  0  0  0  0
  -27.5576  -37.1790   24.8456 C   0  0  0  0  0  0
  -21.4207  -29.3049   22.3612 N   0  0  0  0  0  0
  -26.4277  -37.3758   23.9408 N   0  0  0  0  0  0
  -24.7111  -31.0328   22.0950 N   0  0  0  0  0  0
  -23.4155  -28.8145   23.3056 O   0  0  0  0  0  0
  -28.2384  -26.1439   20.1827 O   0  0  0  0  0  0
  -26.5647  -34.8921   22.4583 O   0  0  0  0  0  0
  -23.5544  -32.1322   23.7190 O   0  0  0  0  0  0
  -28.5978  -20.2624   20.7090 C   0  0  0  0  0  0
  -27.7338  -19.7231   21.7070 C   0  0  0  0  0  0
  -28.1533  -21.6737   20.6312 C   0  0  0  0  0  0
  -27.6920  -18.3916   22.4030 C   0  0  0  0  0  0
  -24.5095  -21.7728   23.2377 C   0  0  0  0  0  0
  -25.1671  -24.0962   22.7089 C   0  0  0  0  0  0
  -23.2784  -23.0315   21.4822 C   0  0  0  0  0  0
  -29.5916  -19.1466   20.0157 C   0  0  0  0  0  0
  -28.5201  -23.1643   20.0043 C   0  0  0  0  0  0
  -25.6049  -22.2786   20.9050 C   0  0  0  0  0  0
  -30.2074  -17.7034   20.6998 C   0  0  0  0  0  0
  -27.9326  -24.6638   20.5834 C   0  0  0  0  0  0
  -24.6777  -22.7813   22.0794 C   0  0  0  0  0  0
  -26.7150  -20.4825   21.9288 N   0  0  0  0  0  0
  -26.8722  -21.5925   21.2088 N   0  0  0  0  0  0
  -29.7804  -16.1804   20.5105 N   0  0  0  0  0  0
  -31.4717  -12.7597   19.1778 H   0  0  0  0  0  0
  -30.4122  -11.6568   20.0200 H   0  0  0  0  0  0
  -29.8331  -11.7747   17.5525 H   0  0  0  0  0  0
  -29.6058  -13.4966   17.6996 H   0  0  0  0  0  0
  -27.9412  -11.2894   18.9514 H   0  0  0  0  0  0
  -27.3945  -12.4915   17.8091 H   0  0  0  0  0  0
  -27.5827  -14.2593   19.4020 H   0  0  0  0  0  0
  -28.7685  -12.3481   21.4717 H   0  0  0  0  0  0
  -28.3715  -14.0363   21.7269 H   0  0  0  0  0  0
  -25.2818   -9.5703   22.4754 H   0  0  0  0  0  0
  -24.0082   -7.4629   22.7439 H   0  0  0  0  0  0
  -21.0897   -8.8752   19.8941 H   0  0  0  0  0  0
  -22.3718  -10.9683   19.6178 H   0  0  0  0  0  0
  -21.1982   -7.6156   23.9746 H   0  0  0  0  0  0
  -21.1501   -6.0530   25.9102 H   0  0  0  0  0  0
  -22.0597   -2.7625   23.2808 H   0  0  0  0  0  0
  -22.4132  -11.9806   22.4836 H   0  0  0  0  0  0
  -21.1099  -13.1107   22.2708 H   0  0  0  0  0  0
  -24.6163  -15.8259   20.5239 H   0  0  0  0  0  0
  -26.2377  -15.6561   20.0709 H   0  0  0  0  0  0
  -26.7280  -32.5386   23.0949 H   0  0  0  0  0  0
  -25.0167  -33.9582   25.0341 H   0  0  0  0  0  0
  -22.7454  -31.2985   21.3861 H   0  0  0  0  0  0
  -23.3779  -35.9567   23.3253 H   0  0  0  0  0  0
  -24.3602  -36.8941   22.2073 H   0  0  0  0  0  0
  -23.7257  -37.6419   23.6723 H   0  0  0  0  0  0
  -26.1429  -31.4907   20.6230 H   0  0  0  0  0  0
  -26.8600  -30.7757   22.0332 H   0  0  0  0  0  0
  -28.1039  -28.7945   21.2859 H   0  0  0  0  0  0
  -25.9758  -25.8970   18.9103 H   0  0  0  0  0  0
  -23.9974  -27.3381   18.9129 H   0  0  0  0  0  0
  -23.7820  -30.5742   19.3961 H   0  0  0  0  0  0
  -22.7785  -29.2311   19.8571 H   0  0  0  0  0  0
  -25.1340  -36.1787   25.0806 H   0  0  0  0  0  0
  -21.0030  -28.3324   24.1353 H   0  0  0  0  0  0
  -20.5727  -26.2324   23.3642 H   0  0  0  0  0  0
  -21.6693  -26.7432   22.1226 H   0  0  0  0  0  0
  -19.6989  -25.6255   21.1283 H   0  0  0  0  0  0
  -19.6732  -27.3143   20.6748 H   0  0  0  0  0  0
  -17.4256  -26.6668   21.3986 H   0  0  0  0  0  0
  -18.0340  -26.0010   22.8964 H   0  0  0  0  0  0
  -19.7971  -30.7301   24.2162 H   0  0  0  0  0  0
  -17.5041  -31.6240   24.5169 H   0  0  0  0  0  0
  -15.5377  -30.2940   23.7690 H   0  0  0  0  0  0
  -15.8699  -28.0798   22.7041 H   0  0  0  0  0  0
  -24.5852  -30.7176   25.7703 H   0  0  0  0  0  0
  -24.8981  -32.2982   26.4753 H   0  0  0  0  0  0
  -25.7982  -30.8944   27.0172 H   0  0  0  0  0  0
  -26.3090  -29.6626   24.1283 H   0  0  0  0  0  0
  -27.4081  -29.7291   25.4860 H   0  0  0  0  0  0
  -27.8974  -30.4172   23.9575 H   0  0  0  0  0  0
  -27.2599  -33.3628   26.1965 H   0  0  0  0  0  0
  -28.3907  -32.6865   25.0334 H   0  0  0  0  0  0
  -28.0662  -31.8491   26.5452 H   0  0  0  0  0  0
  -28.2577  -38.0108   24.7554 H   0  0  0  0  0  0
  -28.1067  -36.2642   24.6187 H   0  0  0  0  0  0
  -27.2298  -37.1349   25.8859 H   0  0  0  0  0  0
  -20.9378  -29.8716   21.6780 H   0  0  0  0  0  0
  -26.0110  -38.2803   24.1441 H   0  0  0  0  0  0
  -28.5853  -18.2116   23.0000 H   0  0  0  0  0  0
  -27.5514  -17.5695   21.7036 H   0  0  0  0  0  0
  -26.8611  -18.3625   23.1078 H   0  0  0  0  0  0
  -23.7435  -22.0941   23.9437 H   0  0  0  0  0  0
  -25.4323  -21.6615   23.8095 H   0  0  0  0  0  0
  -24.2192  -20.7883   22.8682 H   0  0  0  0  0  0
  -24.4698  -24.4352   23.4775 H   0  0  0  0  0  0
  -25.2281  -24.8978   21.9747 H   0  0  0  0  0  0
  -26.1376  -23.9777   23.1916 H   0  0  0  0  0  0
  -22.5700  -23.3817   22.2338 H   0  0  0  0  0  0
  -22.8561  -22.1200   21.0557 H   0  0  0  0  0  0
  -23.3101  -23.7767   20.6872 H   0  0  0  0  0  0
  -30.4695  -19.6955   19.6695 H   0  0  0  0  0  0
  -29.1216  -18.8405   19.0838 H   0  0  0  0  0  0
  -29.6044  -23.2512   20.0374 H   0  0  0  0  0  0
  -28.2999  -23.1285   18.9365 H   0  0  0  0  0  0
  -25.7347  -23.0025   20.1061 H   0  0  0  0  0  0
  -25.0223  -21.5095   20.3936 H   0  0  0  0  0  0
  -31.2286  -17.6781   20.3195 H   0  0  0  0  0  0
  -30.3788  -17.8710   21.7616 H   0  0  0  0  0  0
  -28.1736  -24.6500   21.6460 H   0  0  0  0  0  0
  -26.8554  -24.6215   20.5748 H   0  0  0  0  0  0
  -28.7894  -16.0073   20.6037 H   0  0  0  0  0  0
  1 25  1  0  0  0
  1 30  2  0  0  0
  1 86  1  0  0  0
  2  3  1  0  0  0
  2 25  1  0  0  0
  2 87  1  0  0  0
  2 88  1  0  0  0
  3  4  1  0  0  0
  3 89  1  0  0  0
  3 90  1  0  0  0
  4  5  1  0  0  0
  4 91  1  0  0  0
  4 92  1  0  0  0
  5  6  1  0  0  0
  5 26  1  0  0  0
  5 93  1  0  0  0
  6 25  1  0  0  0
  6 94  1  0  0  0
  6 95  1  0  0  0
  7  8  2  0  0  0
  7 26  1  0  0  0
  7 29  1  0  0  0
  8  9  1  0  0  0
  8 22  1  0  0  0
  9 10  1  0  0  0
  9 27  2  0  0  0
 10 11  2  0  0  0
 10 15  1  0  0  0
 11 12  1  0  0  0
 11 96  1  0  0  0
 12 13  2  0  0  0
 12 97  1  0  0  0
 13 14  1  0  0  0
 13 31  1  0  0  0
 14 15  2  0  0  0
 14 98  1  0  0  0
 15 99  1  0  0  0
 16 17  2  0  0  0
 16 21  1  0  0  0
 16 31  1  0  0  0
 17 18  1  0  0  0
 17100  1  0  0  0
 18 19  2  0  0  0
 18101  1  0  0  0
 19 20  1  0  0  0
 19 24  1  0  0  0
 20 21  2  0  0  0
 20102  1  0  0  0
 21 23  1  0  0  0
 22 28  1  0  0  0
 22 32  2  0  0  0
 26 27  1  0  0  0
 28103  1  0  0  0
 28104  1  0  0  0
 29105  1  0  0  0
 29106  1  0  0  0
 33 34  1  0  0  0
 33 66  1  0  0  0
 33 70  2  0  0  0
 34 36  1  0  0  0
 34 59  1  0  0  0
 34107  1  0  0  0
 35 44  2  0  0  0
 35 45  1  0  0  0
 35 68  1  0  0  0
 36 56  1  0  0  0
 36108  1  0  0  0
 37 39  1  0  0  0
 37 47  1  0  0  0
 37 66  1  0  0  0
 37109  1  0  0  0
 38 43  2  0  0  0
 38 46  1  0  0  0
 38 47  1  0  0  0
 39 64  1  0  0  0
 39 67  2  0  0  0
 40 52  1  0  0  0
 40 53  2  0  0  0
 40 58  1  0  0  0
 41110  1  0  0  0
 41111  1  0  0  0
 41112  1  0  0  0
 41 48  1  0  0  0
 42 43  1  0  0  0
 42 66  1  0  0  0
 42113  1  0  0  0
 42114  1  0  0  0
 43 44  1  0  0  0
 44115  1  0  0  0
 45 46  2  0  0  0
 45116  1  0  0  0
 46117  1  0  0  0
 47118  1  0  0  0
 47119  1  0  0  0
 48 56  1  0  0  0
 48 65  1  0  0  0
 48120  1  0  0  0
 49 50  1  0  0  0
 49 53  1  0  0  0
 49 64  1  0  0  0
 49121  1  0  0  0
 50 51  1  0  0  0
 50122  1  0  0  0
 50123  1  0  0  0
 51 52  1  0  0  0
 51124  1  0  0  0
 51125  1  0  0  0
 52126  1  0  0  0
 52127  1  0  0  0
 53 54  1  0  0  0
 54 55  2  0  0  0
 54128  1  0  0  0
 55 57  1  0  0  0
 55129  1  0  0  0
 56 69  2  0  0  0
 57 58  2  0  0  0
 57130  1  0  0  0
 58131  1  0  0  0
 59 60  1  0  0  0
 59 61  1  0  0  0
 59 62  1  0  0  0
 60132  1  0  0  0
 60133  1  0  0  0
 60134  1  0  0  0
 61135  1  0  0  0
 61136  1  0  0  0
 61137  1  0  0  0
 62138  1  0  0  0
 62139  1  0  0  0
 62140  1  0  0  0
 63 65  1  0  0  0
 63141  1  0  0  0
 63142  1  0  0  0
 63143  1  0  0  0
 64144  1  0  0  0
 65145  1  0  0  0
 68 82  1  0  0  0
 71 72  1  0  0  0
 71 73  2  0  0  0
 71 78  1  0  0  0
 72 74  1  0  0  0
 72 84  2  0  0  0
 73 79  1  0  0  0
 73 85  1  0  0  0
 74146  1  0  0  0
 74147  1  0  0  0
 74148  1  0  0  0
 75149  1  0  0  0
 75150  1  0  0  0
 75151  1  0  0  0
 75 83  1  0  0  0
 76 83  1  0  0  0
 76152  1  0  0  0
 76153  1  0  0  0
 76154  1  0  0  0
 77 83  1  0  0  0
 77155  1  0  0  0
 77156  1  0  0  0
 77157  1  0  0  0
 78 81  1  0  0  0
 78158  1  0  0  0
 78159  1  0  0  0
 79 82  1  0  0  0
 79160  1  0  0  0
 79161  1  0  0  0
 80 83  1  0  0  0
 80 85  1  0  0  0
 80162  1  0  0  0
 80163  1  0  0  0
 81 86  1  0  0  0
 81164  1  0  0  0
 81165  1  0  0  0
 82166  1  0  0  0
 82167  1  0  0  0
 84 85  1  0  0  0
 86168  1  0  0  0
M  ISO  4   1 100  68 101  82 101  86 100
M  END
> <chiral flag>
0

> <version>
0

> <s_m_source_file>
/data/baiqing/PycharmProjects/Reinvent-master-3.2/result/LINK_invent/BTK/process_docking_weight1_custom_sum_contain_oxygen_bond_distance_aromatic_linkinvent_7_9_3/rearranged_h_0048.sdf

> <i_m_source_file_index>
80

> <r_mmod_Potential_Energy-OPLS-2005>
670.285888671875

> <r_mmod_Stretch_Energy-OPLS-2005>
314.140380859375

> <r_mmod_Bend_Energy-OPLS-2005>
346.780059814453

> <r_mmod_Torsional_Energy-OPLS-2005>
297.933044433594

> <r_mmod_Improper_Torsional_Energy-OPLS-2005>
7.65333223342896

> <r_mmod_Van_der_Waal_Energy-OPLS-2005>
119.415863037109

> <r_mmod_Electrostatic_Energy-OPLS-2005>
-405.850433349609

> <r_mmod_Solvation_Energy-OPLS-2005>
-212.267120361328

> <b_mmod_Minimization_Converged-OPLS-2005>
0

> <r_mmod_RMS_Derivative-OPLS-2005>
5.249098777771

$$$$
81
                    3D
 Structure written by MMmdl.
161169  0  0  1  0            999 V2000
  -30.5954  -14.7523   20.4588 C   0  0  0  0  0  0
  -30.4330  -12.4558   19.4863 C   0  0  0  0  0  0
  -29.5138  -12.5150   18.2450 C   0  0  0  0  0  0
  -28.0395  -12.3351   18.6547 C   0  0  0  0  0  0
  -27.6429  -13.2326   19.8570 C   0  0  2  0  0  0
  -28.6840  -13.1629   20.9968 C   0  0  0  0  0  0
  -25.2505  -13.8194   20.5697 C   0  0  0  0  0  0
  -24.1800  -13.0439   20.9207 C   0  0  0  0  0  0
  -24.6393  -11.6917   20.8748 C   0  0  0  0  0  0
  -23.9070  -10.4294   21.0406 C   0  0  0  0  0  0
  -24.3621   -9.4207   21.9180 C   0  0  0  0  0  0
  -23.6297   -8.2242   22.0749 C   0  0  0  0  0  0
  -22.4280   -8.0280   21.3542 C   0  0  0  0  0  0
  -21.9916   -9.0251   20.4641 C   0  0  0  0  0  0
  -22.7244  -10.2133   20.3053 C   0  0  0  0  0  0
  -21.6854   -6.0736   22.5278 C   0  0  0  0  0  0
  -21.4013   -6.5640   23.8212 C   0  0  0  0  0  0
  -21.3663   -5.6792   24.9174 C   0  0  0  0  0  0
  -21.6049   -4.3054   24.7224 C   0  0  0  0  0  0
  -21.8818   -3.8147   23.4343 C   0  0  0  0  0  0
  -21.9192   -4.6964   22.3401 C   0  0  0  0  0  0
  -22.7824  -13.5218   21.1872 C   0  0  0  0  0  0
  -22.1662   -4.2152   21.0978 F   0  0  0  0  0  0
  -21.5632   -3.4539   25.7736 F   0  0  0  0  0  0
  -29.9887  -13.5155   20.4228 N   0  0  0  0  0  0
  -26.2937  -12.9400   20.3300 N   0  0  0  0  0  0
  -25.9325  -11.6540   20.5761 N   0  0  0  0  0  0
  -22.0481  -12.8197   22.0430 N   0  0  0  0  0  0
  -25.4177  -15.1915   20.4095 N   0  0  0  0  0  0
  -31.7708  -14.8691   20.1010 O   0  0  0  0  0  0
  -21.6642   -6.8883   21.4240 O   0  0  0  0  0  0
  -22.3501  -14.5527   20.6730 O   0  0  0  0  0  0
  -24.6330  -31.8537   23.1969 C   0  0  0  0  0  0
  -25.9152  -32.4738   23.8320 C   0  0  1  0  0  0
  -27.2144  -27.2426   20.1318 C   0  0  0  0  0  0
  -25.5950  -33.8543   24.2247 N   0  0  0  0  0  0
  -23.4303  -30.4763   21.5400 C   0  0  2  0  0  0
  -24.8766  -28.9228   20.1064 C   0  0  0  0  0  0
  -22.7516  -29.4579   22.4883 C   0  0  0  0  0  0
  -18.0298  -28.1376   22.8460 C   0  0  0  0  0  0
  -24.1498  -36.7287   23.2634 C   0  0  0  0  0  0
  -25.9774  -30.7600   21.3799 C   0  0  0  0  0  0
  -26.0493  -29.3816   20.7209 C   0  0  0  0  0  0
  -27.2203  -28.5546   20.7207 C   0  0  0  0  0  0
  -26.0208  -26.8617   19.4776 C   0  0  0  0  0  0
  -24.8697  -27.6721   19.4716 C   0  0  0  0  0  0
  -23.6499  -29.8135   20.1550 C   0  0  0  0  0  0
  -25.4124  -36.3056   24.0314 C   0  0  1  0  0  0
  -20.5903  -28.3696   23.1249 C   0  0  2  0  0  0
  -20.6786  -26.9406   22.5396 C   0  0  0  0  0  0
  -19.5765  -26.6369   21.5194 C   0  0  0  0  0  0
  -18.1946  -26.7919   22.1602 C   0  0  0  0  0  0
  -19.1553  -28.8854   23.2848 C   0  0  0  0  0  0
  -18.9474  -30.1454   23.8866 C   0  0  0  0  0  0
  -17.6476  -30.6573   24.0559 C   0  0  0  0  0  0
  -25.9058  -34.9427   23.5078 C   0  0  0  0  0  0
  -16.5364  -29.9074   23.6320 C   0  0  0  0  0  0
  -16.7287  -28.6495   23.0327 C   0  0  0  0  0  0
  -26.4510  -31.6563   25.0718 C   0  0  0  0  0  0
  -25.3729  -31.3724   26.1440 C   0  0  0  0  0  0
  -27.0358  -30.2978   24.6216 C   0  0  0  0  0  0
  -27.6049  -32.4325   25.7498 C   0  0  0  0  0  0
  -27.5579  -37.1798   24.8460 C   0  0  0  0  0  0
  -21.4219  -29.3045   22.3642 N   0  0  0  0  0  0
  -26.4299  -37.3754   23.9395 N   0  0  0  0  0  0
  -24.6991  -31.0494   22.0950 N   0  0  0  0  0  0
  -23.4206  -28.8094   23.2972 O   0  0  0  0  0  0
  -28.2971  -26.3295   20.2110 O   0  0  0  0  0  0
  -26.5624  -34.8896   22.4642 O   0  0  0  0  0  0
  -23.5473  -32.1371   23.7256 O   0  0  0  0  0  0
  -29.2408  -20.0177   20.3637 C   0  0  0  0  0  0
  -28.8395  -21.5874   18.9771 C   0  0  0  0  0  0
  -28.8161  -21.5200   16.4255 C   0  0  0  0  0  0
  -27.7385  -18.1370   21.1153 C   0  0  0  0  0  0
  -29.8087  -18.6128   22.4199 C   0  0  0  0  0  0
  -28.5192  -22.3178   17.7067 C   0  0  0  0  0  0
  -29.1038  -23.7159   20.5233 C   0  0  0  0  0  0
  -30.0318  -17.3393   20.2609 C   0  0  0  0  0  0
  -28.0580  -24.8482   20.0006 C   0  0  0  0  0  0
  -29.2184  -18.5483   20.9977 C   0  0  0  0  0  0
  -28.9330  -20.2442   19.0492 N   0  0  0  0  0  0
  -29.2460  -21.1866   21.0721 N   0  0  0  0  0  0
  -28.9903  -22.2193   20.1598 N   0  0  0  0  0  0
  -29.8049  -15.8724   20.6762 N   0  0  0  0  0  0
  -31.4762  -12.5776   19.1893 H   0  0  0  0  0  0
  -30.3716  -11.4767   19.9645 H   0  0  0  0  0  0
  -29.7984  -11.7465   17.5251 H   0  0  0  0  0  0
  -29.6402  -13.4729   17.7376 H   0  0  0  0  0  0
  -27.8986  -11.2862   18.9167 H   0  0  0  0  0  0
  -27.3828  -12.5271   17.8054 H   0  0  0  0  0  0
  -27.6392  -14.2555   19.4793 H   0  0  0  0  0  0
  -28.7159  -12.1648   21.4361 H   0  0  0  0  0  0
  -28.4159  -13.8429   21.8072 H   0  0  0  0  0  0
  -25.2766   -9.5683   22.4755 H   0  0  0  0  0  0
  -24.0011   -7.4632   22.7464 H   0  0  0  0  0  0
  -21.0851   -8.8769   19.8943 H   0  0  0  0  0  0
  -22.3702  -10.9671   19.6165 H   0  0  0  0  0  0
  -21.2003   -7.6149   23.9717 H   0  0  0  0  0  0
  -21.1489   -6.0522   25.9078 H   0  0  0  0  0  0
  -22.0595   -2.7610   23.2841 H   0  0  0  0  0  0
  -22.4110  -11.9856   22.4801 H   0  0  0  0  0  0
  -21.1102  -13.1204   22.2659 H   0  0  0  0  0  0
  -24.6425  -15.8383   20.5060 H   0  0  0  0  0  0
  -26.2562  -15.6308   20.0538 H   0  0  0  0  0  0
  -26.7208  -32.5388   23.1044 H   0  0  0  0  0  0
  -25.0133  -33.9674   25.0420 H   0  0  0  0  0  0
  -22.7272  -31.2984   21.3918 H   0  0  0  0  0  0
  -23.3754  -35.9625   23.3296 H   0  0  0  0  0  0
  -24.3588  -36.8919   22.2047 H   0  0  0  0  0  0
  -23.7260  -37.6485   23.6676 H   0  0  0  0  0  0
  -26.1224  -31.5190   20.6100 H   0  0  0  0  0  0
  -26.8534  -30.8078   22.0149 H   0  0  0  0  0  0
  -28.1170  -28.8963   21.2179 H   0  0  0  0  0  0
  -25.9461  -25.9091   18.9761 H   0  0  0  0  0  0
  -23.9752  -27.3193   18.9755 H   0  0  0  0  0  0
  -23.7810  -30.5931   19.4046 H   0  0  0  0  0  0
  -22.7661  -29.2528   19.8440 H   0  0  0  0  0  0
  -25.1302  -36.1898   25.0806 H   0  0  0  0  0  0
  -20.9994  -28.3286   24.1370 H   0  0  0  0  0  0
  -20.5679  -26.2303   23.3603 H   0  0  0  0  0  0
  -21.6656  -26.7419   22.1191 H   0  0  0  0  0  0
  -19.6935  -25.6276   21.1236 H   0  0  0  0  0  0
  -19.6717  -27.3167   20.6715 H   0  0  0  0  0  0
  -17.4211  -26.6643   21.4010 H   0  0  0  0  0  0
  -18.0362  -26.0063   22.9004 H   0  0  0  0  0  0
  -19.7952  -30.7272   24.2217 H   0  0  0  0  0  0
  -17.5032  -31.6247   24.5171 H   0  0  0  0  0  0
  -15.5366  -30.2967   23.7667 H   0  0  0  0  0  0
  -15.8679  -28.0824   22.7030 H   0  0  0  0  0  0
  -24.5920  -30.7040   25.7789 H   0  0  0  0  0  0
  -24.8900  -32.2887   26.4840 H   0  0  0  0  0  0
  -25.8053  -30.8933   27.0233 H   0  0  0  0  0  0
  -26.2941  -29.6717   24.1243 H   0  0  0  0  0  0
  -27.4033  -29.7247   25.4736 H   0  0  0  0  0  0
  -27.8820  -30.4237   23.9459 H   0  0  0  0  0  0
  -27.2641  -33.3642   26.2031 H   0  0  0  0  0  0
  -28.3885  -32.6868   25.0347 H   0  0  0  0  0  0
  -28.0690  -31.8486   26.5452 H   0  0  0  0  0  0
  -28.2575  -38.0111   24.7506 H   0  0  0  0  0  0
  -28.1088  -36.2634   24.6293 H   0  0  0  0  0  0
  -27.2295  -37.1460   25.8862 H   0  0  0  0  0  0
  -20.9408  -29.8802   21.6872 H   0  0  0  0  0  0
  -26.0169  -38.2820   24.1417 H   0  0  0  0  0  0
  -29.8678  -21.2406   16.3673 H   0  0  0  0  0  0
  -28.5742  -22.1062   15.5385 H   0  0  0  0  0  0
  -28.2251  -20.6045   16.3829 H   0  0  0  0  0  0
  -27.1684  -18.8862   21.6661 H   0  0  0  0  0  0
  -27.6111  -17.1862   21.6319 H   0  0  0  0  0  0
  -27.2825  -18.0439   20.1295 H   0  0  0  0  0  0
  -29.2457  -19.2957   23.0563 H   0  0  0  0  0  0
  -30.8416  -18.9588   22.3986 H   0  0  0  0  0  0
  -29.7959  -17.6374   22.9065 H   0  0  0  0  0  0
  -29.0978  -23.2403   17.6764 H   0  0  0  0  0  0
  -27.4664  -22.6009   17.7308 H   0  0  0  0  0  0
  -29.1305  -23.7790   21.6108 H   0  0  0  0  0  0
  -30.0976  -24.0252   20.2007 H   0  0  0  0  0  0
  -31.1004  -17.5542   20.3110 H   0  0  0  0  0  0
  -29.7881  -17.3859   19.1993 H   0  0  0  0  0  0
  -27.0995  -24.5926   20.4529 H   0  0  0  0  0  0
  -27.9218  -24.7204   18.9295 H   0  0  0  0  0  0
  -28.8675  -15.6607   20.9819 H   0  0  0  0  0  0
  1 25  1  0  0  0
  1 30  2  0  0  0
  1 84  1  0  0  0
  2  3  1  0  0  0
  2 25  1  0  0  0
  2 85  1  0  0  0
  2 86  1  0  0  0
  3  4  1  0  0  0
  3 87  1  0  0  0
  3 88  1  0  0  0
  4  5  1  0  0  0
  4 89  1  0  0  0
  4 90  1  0  0  0
  5  6  1  0  0  0
  5 26  1  0  0  0
  5 91  1  0  0  0
  6 25  1  0  0  0
  6 92  1  0  0  0
  6 93  1  0  0  0
  7  8  2  0  0  0
  7 26  1  0  0  0
  7 29  1  0  0  0
  8  9  1  0  0  0
  8 22  1  0  0  0
  9 10  1  0  0  0
  9 27  2  0  0  0
 10 11  2  0  0  0
 10 15  1  0  0  0
 11 12  1  0  0  0
 11 94  1  0  0  0
 12 13  2  0  0  0
 12 95  1  0  0  0
 13 14  1  0  0  0
 13 31  1  0  0  0
 14 15  2  0  0  0
 14 96  1  0  0  0
 15 97  1  0  0  0
 16 17  2  0  0  0
 16 21  1  0  0  0
 16 31  1  0  0  0
 17 18  1  0  0  0
 17 98  1  0  0  0
 18 19  2  0  0  0
 18 99  1  0  0  0
 19 20  1  0  0  0
 19 24  1  0  0  0
 20 21  2  0  0  0
 20100  1  0  0  0
 21 23  1  0  0  0
 22 28  1  0  0  0
 22 32  2  0  0  0
 26 27  1  0  0  0
 28101  1  0  0  0
 28102  1  0  0  0
 29103  1  0  0  0
 29104  1  0  0  0
 33 34  1  0  0  0
 33 66  1  0  0  0
 33 70  2  0  0  0
 34 36  1  0  0  0
 34 59  1  0  0  0
 34105  1  0  0  0
 35 44  2  0  0  0
 35 45  1  0  0  0
 35 68  1  0  0  0
 36 56  1  0  0  0
 36106  1  0  0  0
 37 39  1  0  0  0
 37 47  1  0  0  0
 37 66  1  0  0  0
 37107  1  0  0  0
 38 43  2  0  0  0
 38 46  1  0  0  0
 38 47  1  0  0  0
 39 64  1  0  0  0
 39 67  2  0  0  0
 40 52  1  0  0  0
 40 53  2  0  0  0
 40 58  1  0  0  0
 41108  1  0  0  0
 41109  1  0  0  0
 41110  1  0  0  0
 41 48  1  0  0  0
 42 43  1  0  0  0
 42 66  1  0  0  0
 42111  1  0  0  0
 42112  1  0  0  0
 43 44  1  0  0  0
 44113  1  0  0  0
 45 46  2  0  0  0
 45114  1  0  0  0
 46115  1  0  0  0
 47116  1  0  0  0
 47117  1  0  0  0
 48 56  1  0  0  0
 48 65  1  0  0  0
 48118  1  0  0  0
 49 50  1  0  0  0
 49 53  1  0  0  0
 49 64  1  0  0  0
 49119  1  0  0  0
 50 51  1  0  0  0
 50120  1  0  0  0
 50121  1  0  0  0
 51 52  1  0  0  0
 51122  1  0  0  0
 51123  1  0  0  0
 52124  1  0  0  0
 52125  1  0  0  0
 53 54  1  0  0  0
 54 55  2  0  0  0
 54126  1  0  0  0
 55 57  1  0  0  0
 55127  1  0  0  0
 56 69  2  0  0  0
 57 58  2  0  0  0
 57128  1  0  0  0
 58129  1  0  0  0
 59 60  1  0  0  0
 59 61  1  0  0  0
 59 62  1  0  0  0
 60130  1  0  0  0
 60131  1  0  0  0
 60132  1  0  0  0
 61133  1  0  0  0
 61134  1  0  0  0
 61135  1  0  0  0
 62136  1  0  0  0
 62137  1  0  0  0
 62138  1  0  0  0
 63 65  1  0  0  0
 63139  1  0  0  0
 63140  1  0  0  0
 63141  1  0  0  0
 64142  1  0  0  0
 65143  1  0  0  0
 68 79  1  0  0  0
 71 80  1  0  0  0
 71 81  1  0  0  0
 71 82  2  0  0  0
 72 76  1  0  0  0
 72 81  2  0  0  0
 72 83  1  0  0  0
 73 76  1  0  0  0
 73144  1  0  0  0
 73145  1  0  0  0
 73146  1  0  0  0
 74147  1  0  0  0
 74148  1  0  0  0
 74149  1  0  0  0
 74 80  1  0  0  0
 75 80  1  0  0  0
 75150  1  0  0  0
 75151  1  0  0  0
 75152  1  0  0  0
 76153  1  0  0  0
 76154  1  0  0  0
 77 79  1  0  0  0
 77 83  1  0  0  0
 77155  1  0  0  0
 77156  1  0  0  0
 78 80  1  0  0  0
 78 84  1  0  0  0
 78157  1  0  0  0
 78158  1  0  0  0
 79159  1  0  0  0
 79160  1  0  0  0
 82 83  1  0  0  0
 84161  1  0  0  0
M  ISO  4   1 100  68 101  79 101  84 100
M  END
> <chiral flag>
0

> <version>
0

> <s_m_source_file>
/data/baiqing/PycharmProjects/Reinvent-master-3.2/result/LINK_invent/BTK/process_docking_weight1_custom_sum_contain_oxygen_bond_distance_aromatic_linkinvent_7_9_3/rearranged_h_0048.sdf

> <i_m_source_file_index>
81

> <r_mmod_Potential_Energy-OPLS-2005>
109.52507019043

> <r_mmod_Stretch_Energy-OPLS-2005>
140.1142578125

> <r_mmod_Bend_Energy-OPLS-2005>
177.547012329102

> <r_mmod_Torsional_Energy-OPLS-2005>
222.343536376953

> <r_mmod_Improper_Torsional_Energy-OPLS-2005>
8.69999980926514

> <r_mmod_Van_der_Waal_Energy-OPLS-2005>
116.268608093262

> <r_mmod_Electrostatic_Energy-OPLS-2005>
-427.830688476562

> <r_mmod_Solvation_Energy-OPLS-2005>
-221.375

> <b_mmod_Minimization_Converged-OPLS-2005>
0

> <r_mmod_RMS_Derivative-OPLS-2005>
1.38637447357178

$$$$
82
                    3D
 Structure written by MMmdl.
161169  0  0  1  0            999 V2000
  -30.7022  -14.4828   20.5223 C   0  0  0  0  0  0
  -30.4323  -12.2997   19.4031 C   0  0  0  0  0  0
  -29.4946  -12.4849   18.1901 C   0  0  0  0  0  0
  -28.0152  -12.3639   18.6138 C   0  0  0  0  0  0
  -27.6691  -13.2050   19.8731 C   0  0  2  0  0  0
  -28.7283  -12.9928   20.9856 C   0  0  0  0  0  0
  -25.2622  -13.8161   20.5756 C   0  0  0  0  0  0
  -24.1877  -13.0415   20.9238 C   0  0  0  0  0  0
  -24.6415  -11.6898   20.8761 C   0  0  0  0  0  0
  -23.9058  -10.4277   21.0399 C   0  0  0  0  0  0
  -24.3608   -9.4202   21.9185 C   0  0  0  0  0  0
  -23.6285   -8.2241   22.0759 C   0  0  0  0  0  0
  -22.4264   -8.0276   21.3569 C   0  0  0  0  0  0
  -21.9900   -9.0231   20.4667 C   0  0  0  0  0  0
  -22.7221  -10.2119   20.3054 C   0  0  0  0  0  0
  -21.6844   -6.0709   22.5278 C   0  0  0  0  0  0
  -21.3995   -6.5620   23.8204 C   0  0  0  0  0  0
  -21.3664   -5.6788   24.9186 C   0  0  0  0  0  0
  -21.6051   -4.3044   24.7253 C   0  0  0  0  0  0
  -21.8815   -3.8134   23.4376 C   0  0  0  0  0  0
  -21.9196   -4.6938   22.3429 C   0  0  0  0  0  0
  -22.7863  -13.5199   21.1888 C   0  0  0  0  0  0
  -22.1657   -4.2121   21.0999 F   0  0  0  0  0  0
  -21.5649   -3.4527   25.7766 F   0  0  0  0  0  0
  -30.0502  -13.2932   20.4174 N   0  0  0  0  0  0
  -26.3076  -12.9318   20.3405 N   0  0  0  0  0  0
  -25.9368  -11.6481   20.5802 N   0  0  0  0  0  0
  -22.0493  -12.8188   22.0438 N   0  0  0  0  0  0
  -25.4334  -15.1887   20.4208 N   0  0  0  0  0  0
  -31.8428  -14.6352   20.0780 O   0  0  0  0  0  0
  -21.6636   -6.8863   21.4250 O   0  0  0  0  0  0
  -22.3552  -14.5502   20.6758 O   0  0  0  0  0  0
  -24.6118  -31.8667   23.2072 C   0  0  0  0  0  0
  -25.9015  -32.4808   23.8387 C   0  0  1  0  0  0
  -27.2471  -27.4644   20.0776 C   0  0  0  0  0  0
  -25.5898  -33.8611   24.2316 N   0  0  0  0  0  0
  -23.4011  -30.4943   21.5418 C   0  0  2  0  0  0
  -24.8520  -28.9593   20.1087 C   0  0  0  0  0  0
  -22.7354  -29.4705   22.4904 C   0  0  0  0  0  0
  -18.0201  -28.1453   22.8497 C   0  0  0  0  0  0
  -24.1506  -36.7330   23.2640 C   0  0  0  0  0  0
  -25.9248  -30.8447   21.3556 C   0  0  0  0  0  0
  -26.0085  -29.4810   20.7008 C   0  0  0  0  0  0
  -27.2120  -28.7425   20.6771 C   0  0  0  0  0  0
  -26.0736  -26.9453   19.4960 C   0  0  0  0  0  0
  -24.8798  -27.6919   19.4994 C   0  0  0  0  0  0
  -23.6090  -29.8188   20.1599 C   0  0  0  0  0  0
  -25.4121  -36.3096   24.0331 C   0  0  1  0  0  0
  -20.5798  -28.3760   23.1235 C   0  0  2  0  0  0
  -20.6658  -26.9458   22.5432 C   0  0  0  0  0  0
  -19.5567  -26.6312   21.5312 C   0  0  0  0  0  0
  -18.1781  -26.7974   22.1713 C   0  0  0  0  0  0
  -19.1466  -28.8927   23.2852 C   0  0  0  0  0  0
  -18.9403  -30.1504   23.8905 C   0  0  0  0  0  0
  -17.6393  -30.6608   24.0654 C   0  0  0  0  0  0
  -25.9031  -34.9476   23.5111 C   0  0  0  0  0  0
  -16.5284  -29.9138   23.6374 C   0  0  0  0  0  0
  -16.7197  -28.6586   23.0346 C   0  0  0  0  0  0
  -26.4457  -31.6588   25.0711 C   0  0  0  0  0  0
  -25.3711  -31.3702   26.1446 C   0  0  0  0  0  0
  -27.0307  -30.3045   24.6057 C   0  0  0  0  0  0
  -27.6030  -32.4324   25.7450 C   0  0  0  0  0  0
  -27.5572  -37.1823   24.8450 C   0  0  0  0  0  0
  -21.4086  -29.3078   22.3569 N   0  0  0  0  0  0
  -26.4289  -37.3777   23.9383 N   0  0  0  0  0  0
  -24.6634  -31.0810   22.0947 N   0  0  0  0  0  0
  -23.4100  -28.8257   23.2988 O   0  0  0  0  0  0
  -28.4086  -26.7334   20.0380 O   0  0  0  0  0  0
  -26.5571  -34.8920   22.4655 O   0  0  0  0  0  0
  -23.5315  -32.1384   23.7499 O   0  0  0  0  0  0
  -29.7744  -23.7113   19.7982 C   0  0  0  0  0  0
  -28.5253  -24.2445   20.1989 C   0  0  0  0  0  0
  -27.5023  -22.2581   19.5858 C   0  0  0  0  0  0
  -28.7707  -21.6932   19.2578 C   0  0  0  0  0  0
  -26.1907  -21.5108   19.4095 C   0  0  0  0  0  0
  -28.4928  -18.3842   21.3195 C   0  0  0  0  0  0
  -28.9484  -20.2513   18.7552 C   0  0  0  0  0  0
  -28.4183  -25.5965   20.9050 C   0  0  0  0  0  0
  -29.9683  -15.7406   21.0557 C   0  0  0  0  0  0
  -29.9419  -19.3863   19.5845 C   0  0  0  0  0  0
  -30.4319  -17.0874   20.4041 C   0  0  0  0  0  0
  -29.9011  -22.4441   19.3268 N   0  0  0  0  0  0
  -27.3857  -23.5207   20.0702 N   0  0  0  0  0  0
  -29.3736  -18.1188   20.1493 N   0  3  1  0  0  0
  -31.4746  -12.3809   19.0909 H   0  0  0  0  0  0
  -30.3277  -11.2920   19.8061 H   0  0  0  0  0  0
  -29.7180  -11.7421   17.4212 H   0  0  0  0  0  0
  -29.6674  -13.4565   17.7240 H   0  0  0  0  0  0
  -27.8166  -11.3111   18.8115 H   0  0  0  0  0  0
  -27.3600  -12.6381   17.7858 H   0  0  0  0  0  0
  -27.7057  -14.2493   19.5666 H   0  0  0  0  0  0
  -28.7185  -11.9593   21.3378 H   0  0  0  0  0  0
  -28.5223  -13.6024   21.8666 H   0  0  0  0  0  0
  -25.2745   -9.5656   22.4773 H   0  0  0  0  0  0
  -23.9976   -7.4617   22.7467 H   0  0  0  0  0  0
  -21.0834   -8.8753   19.8965 H   0  0  0  0  0  0
  -22.3680  -10.9659   19.6167 H   0  0  0  0  0  0
  -21.1945   -7.6116   23.9706 H   0  0  0  0  0  0
  -21.1501   -6.0517   25.9090 H   0  0  0  0  0  0
  -22.0599   -2.7585   23.2896 H   0  0  0  0  0  0
  -22.3997  -11.9800   22.4820 H   0  0  0  0  0  0
  -21.1107  -13.1273   22.2597 H   0  0  0  0  0  0
  -24.6771  -15.8478   20.5721 H   0  0  0  0  0  0
  -26.2904  -15.6364   20.1272 H   0  0  0  0  0  0
  -26.7097  -32.5549   23.1172 H   0  0  0  0  0  0
  -25.0130  -33.9789   25.0509 H   0  0  0  0  0  0
  -22.6956  -31.3135   21.3949 H   0  0  0  0  0  0
  -23.3742  -35.9697   23.3304 H   0  0  0  0  0  0
  -24.3595  -36.8934   22.2050 H   0  0  0  0  0  0
  -23.7303  -37.6563   23.6641 H   0  0  0  0  0  0
  -26.0229  -31.6133   20.5882 H   0  0  0  0  0  0
  -26.8142  -30.9034   21.9686 H   0  0  0  0  0  0
  -28.1070  -29.1559   21.1217 H   0  0  0  0  0  0
  -26.0895  -25.9695   19.0344 H   0  0  0  0  0  0
  -23.9932  -27.2862   19.0331 H   0  0  0  0  0  0
  -23.7134  -30.5851   19.3937 H   0  0  0  0  0  0
  -22.7393  -29.2279   19.8682 H   0  0  0  0  0  0
  -25.1301  -36.1970   25.0833 H   0  0  0  0  0  0
  -20.9937  -28.3462   24.1337 H   0  0  0  0  0  0
  -20.5595  -26.2424   23.3719 H   0  0  0  0  0  0
  -21.6505  -26.7481   22.1155 H   0  0  0  0  0  0
  -19.6658  -25.6130   21.1571 H   0  0  0  0  0  0
  -19.6451  -27.2950   20.6697 H   0  0  0  0  0  0
  -17.4039  -26.6725   21.4121 H   0  0  0  0  0  0
  -18.0128  -26.0189   22.9158 H   0  0  0  0  0  0
  -19.7889  -30.7307   24.2270 H   0  0  0  0  0  0
  -17.4924  -31.6218   24.5380 H   0  0  0  0  0  0
  -15.5276  -30.3028   23.7716 H   0  0  0  0  0  0
  -15.8579  -28.0965   22.7016 H   0  0  0  0  0  0
  -24.5865  -30.7075   25.7753 H   0  0  0  0  0  0
  -24.8931  -32.2886   26.4882 H   0  0  0  0  0  0
  -25.8038  -30.8844   27.0200 H   0  0  0  0  0  0
  -26.2846  -29.6768   24.1161 H   0  0  0  0  0  0
  -27.4155  -29.7307   25.4505 H   0  0  0  0  0  0
  -27.8639  -30.4382   23.9147 H   0  0  0  0  0  0
  -27.2632  -33.3597   26.2078 H   0  0  0  0  0  0
  -28.3793  -32.6936   25.0245 H   0  0  0  0  0  0
  -28.0756  -31.8428   26.5314 H   0  0  0  0  0  0
  -28.2584  -38.0113   24.7460 H   0  0  0  0  0  0
  -28.1062  -36.2645   24.6315 H   0  0  0  0  0  0
  -27.2279  -37.1507   25.8845 H   0  0  0  0  0  0
  -20.9269  -29.8693   21.6684 H   0  0  0  0  0  0
  -26.0178  -38.2859   24.1374 H   0  0  0  0  0  0
  -30.6822  -24.2899   19.9048 H   0  0  0  0  0  0
  -26.0776  -20.7403   20.1712 H   0  0  0  0  0  0
  -26.1438  -21.0507   18.4225 H   0  0  0  0  0  0
  -25.3273  -22.1744   19.4811 H   0  0  0  0  0  0
  -28.0109  -17.4807   21.6891 H   0  0  0  0  0  0
  -29.0385  -18.8349   22.1493 H   0  0  0  0  0  0
  -27.6870  -19.0634   21.0460 H   0  0  0  0  0  0
  -29.3393  -20.3264   17.7407 H   0  0  0  0  0  0
  -27.9931  -19.7410   18.6416 H   0  0  0  0  0  0
  -29.2770  -25.6963   21.5673 H   0  0  0  0  0  0
  -27.5478  -25.5893   21.5661 H   0  0  0  0  0  0
  -28.9012  -15.6136   20.9022 H   0  0  0  0  0  0
  -30.1128  -15.8039   22.1336 H   0  0  0  0  0  0
  -30.7611  -19.1381   18.9041 H   0  0  0  0  0  0
  -30.4192  -19.9731   20.3712 H   0  0  0  0  0  0
  -31.2103  -17.5237   21.0301 H   0  0  0  0  0  0
  -30.8964  -16.8905   19.4363 H   0  0  0  0  0  0
  -28.7994  -17.7202   19.4204 H   0  0  0  0  0  0
  1 25  1  0  0  0
  1 30  2  0  0  0
  1 79  1  0  0  0
  2  3  1  0  0  0
  2 25  1  0  0  0
  2 85  1  0  0  0
  2 86  1  0  0  0
  3  4  1  0  0  0
  3 87  1  0  0  0
  3 88  1  0  0  0
  4  5  1  0  0  0
  4 89  1  0  0  0
  4 90  1  0  0  0
  5  6  1  0  0  0
  5 26  1  0  0  0
  5 91  1  0  0  0
  6 25  1  0  0  0
  6 92  1  0  0  0
  6 93  1  0  0  0
  7  8  2  0  0  0
  7 26  1  0  0  0
  7 29  1  0  0  0
  8  9  1  0  0  0
  8 22  1  0  0  0
  9 10  1  0  0  0
  9 27  2  0  0  0
 10 11  2  0  0  0
 10 15  1  0  0  0
 11 12  1  0  0  0
 11 94  1  0  0  0
 12 13  2  0  0  0
 12 95  1  0  0  0
 13 14  1  0  0  0
 13 31  1  0  0  0
 14 15  2  0  0  0
 14 96  1  0  0  0
 15 97  1  0  0  0
 16 17  2  0  0  0
 16 21  1  0  0  0
 16 31  1  0  0  0
 17 18  1  0  0  0
 17 98  1  0  0  0
 18 19  2  0  0  0
 18 99  1  0  0  0
 19 20  1  0  0  0
 19 24  1  0  0  0
 20 21  2  0  0  0
 20100  1  0  0  0
 21 23  1  0  0  0
 22 28  1  0  0  0
 22 32  2  0  0  0
 26 27  1  0  0  0
 28101  1  0  0  0
 28102  1  0  0  0
 29103  1  0  0  0
 29104  1  0  0  0
 33 34  1  0  0  0
 33 66  1  0  0  0
 33 70  2  0  0  0
 34 36  1  0  0  0
 34 59  1  0  0  0
 34105  1  0  0  0
 35 44  2  0  0  0
 35 45  1  0  0  0
 35 68  1  0  0  0
 36 56  1  0  0  0
 36106  1  0  0  0
 37 39  1  0  0  0
 37 47  1  0  0  0
 37 66  1  0  0  0
 37107  1  0  0  0
 38 43  2  0  0  0
 38 46  1  0  0  0
 38 47  1  0  0  0
 39 64  1  0  0  0
 39 67  2  0  0  0
 40 52  1  0  0  0
 40 53  2  0  0  0
 40 58  1  0  0  0
 41108  1  0  0  0
 41109  1  0  0  0
 41110  1  0  0  0
 41 48  1  0  0  0
 42 43  1  0  0  0
 42 66  1  0  0  0
 42111  1  0  0  0
 42112  1  0  0  0
 43 44  1  0  0  0
 44113  1  0  0  0
 45 46  2  0  0  0
 45114  1  0  0  0
 46115  1  0  0  0
 47116  1  0  0  0
 47117  1  0  0  0
 48 56  1  0  0  0
 48 65  1  0  0  0
 48118  1  0  0  0
 49 50  1  0  0  0
 49 53  1  0  0  0
 49 64  1  0  0  0
 49119  1  0  0  0
 50 51  1  0  0  0
 50120  1  0  0  0
 50121  1  0  0  0
 51 52  1  0  0  0
 51122  1  0  0  0
 51123  1  0  0  0
 52124  1  0  0  0
 52125  1  0  0  0
 53 54  1  0  0  0
 54 55  2  0  0  0
 54126  1  0  0  0
 55 57  1  0  0  0
 55127  1  0  0  0
 56 69  2  0  0  0
 57 58  2  0  0  0
 57128  1  0  0  0
 58129  1  0  0  0
 59 60  1  0  0  0
 59 61  1  0  0  0
 59 62  1  0  0  0
 60130  1  0  0  0
 60131  1  0  0  0
 60132  1  0  0  0
 61133  1  0  0  0
 61134  1  0  0  0
 61135  1  0  0  0
 62136  1  0  0  0
 62137  1  0  0  0
 62138  1  0  0  0
 63 65  1  0  0  0
 63139  1  0  0  0
 63140  1  0  0  0
 63141  1  0  0  0
 64142  1  0  0  0
 65143  1  0  0  0
 68 78  1  0  0  0
 71 72  2  0  0  0
 71 82  1  0  0  0
 71144  1  0  0  0
 72 78  1  0  0  0
 72 83  1  0  0  0
 73 74  1  0  0  0
 73 75  1  0  0  0
 73 83  2  0  0  0
 74 77  1  0  0  0
 74 82  2  0  0  0
 75145  1  0  0  0
 75146  1  0  0  0
 75147  1  0  0  0
 76148  1  0  0  0
 76149  1  0  0  0
 76150  1  0  0  0
 76 84  1  0  0  0
 77 80  1  0  0  0
 77151  1  0  0  0
 77152  1  0  0  0
 78153  1  0  0  0
 78154  1  0  0  0
 79 81  1  0  0  0
 79155  1  0  0  0
 79156  1  0  0  0
 80 84  1  0  0  0
 80157  1  0  0  0
 80158  1  0  0  0
 81 84  1  0  0  0
 81159  1  0  0  0
 81160  1  0  0  0
 84161  1  0  0  0
M  CHG  1  84   1
M  ISO  4   1 100  68 101  78 101  79 100
M  END
> <chiral flag>
0

> <version>
0

> <s_m_source_file>
/data/baiqing/PycharmProjects/Reinvent-master-3.2/result/LINK_invent/BTK/process_docking_weight1_custom_sum_contain_oxygen_bond_distance_aromatic_linkinvent_7_9_3/rearranged_h_0048.sdf

> <i_m_source_file_index>
82

> <r_mmod_Potential_Energy-OPLS-2005>
-85.5905456542969

> <r_mmod_Stretch_Energy-OPLS-2005>
42.5374755859375

> <r_mmod_Bend_Energy-OPLS-2005>
100.245025634766

> <r_mmod_Torsional_Energy-OPLS-2005>
238.1337890625

> <r_mmod_Improper_Torsional_Energy-OPLS-2005>
3.61129426956177

> <r_mmod_Van_der_Waal_Energy-OPLS-2005>
154.274688720703

> <r_mmod_Electrostatic_Energy-OPLS-2005>
-176.964950561523

> <r_mmod_Solvation_Energy-OPLS-2005>
-460.306518554688

> <b_mmod_Minimization_Converged-OPLS-2005>
0

> <r_mmod_RMS_Derivative-OPLS-2005>
5.53299379348755

$$$$
83
                    3D
 Structure written by MMmdl.
166174  0  0  1  0            999 V2000
  -30.6593  -14.6600   20.4965 C   0  0  0  0  0  0
  -30.4328  -12.4052   19.4690 C   0  0  0  0  0  0
  -29.5085  -12.4810   18.2364 C   0  0  0  0  0  0
  -28.0339  -12.3220   18.6555 C   0  0  0  0  0  0
  -27.6482  -13.2213   19.8598 C   0  0  2  0  0  0
  -28.6951  -13.1307   20.9930 C   0  0  0  0  0  0
  -25.2540  -13.8198   20.5721 C   0  0  0  0  0  0
  -24.1814  -13.0446   20.9218 C   0  0  0  0  0  0
  -24.6391  -11.6909   20.8748 C   0  0  0  0  0  0
  -23.9067  -10.4289   21.0394 C   0  0  0  0  0  0
  -24.3617   -9.4215   21.9183 C   0  0  0  0  0  0
  -23.6279   -8.2262   22.0772 C   0  0  0  0  0  0
  -22.4274   -8.0293   21.3554 C   0  0  0  0  0  0
  -21.9911   -9.0274   20.4659 C   0  0  0  0  0  0
  -22.7239  -10.2144   20.3057 C   0  0  0  0  0  0
  -21.6844   -6.0756   22.5281 C   0  0  0  0  0  0
  -21.4005   -6.5656   23.8215 C   0  0  0  0  0  0
  -21.3649   -5.6805   24.9170 C   0  0  0  0  0  0
  -21.6036   -4.3071   24.7217 C   0  0  0  0  0  0
  -21.8812   -3.8164   23.4336 C   0  0  0  0  0  0
  -21.9186   -4.6986   22.3400 C   0  0  0  0  0  0
  -22.7828  -13.5231   21.1836 C   0  0  0  0  0  0
  -22.1650   -4.2179   21.0982 F   0  0  0  0  0  0
  -21.5622   -3.4551   25.7727 F   0  0  0  0  0  0
  -30.0031  -13.4576   20.4125 N   0  0  0  0  0  0
  -26.2976  -12.9384   20.3352 N   0  0  0  0  0  0
  -25.9330  -11.6531   20.5797 N   0  0  0  0  0  0
  -22.0467  -12.8245   22.0409 N   0  0  0  0  0  0
  -25.4234  -15.1919   20.4146 N   0  0  0  0  0  0
  -31.8205  -14.7680   20.0953 O   0  0  0  0  0  0
  -21.6622   -6.8899   21.4255 O   0  0  0  0  0  0
  -22.3515  -14.5534   20.6685 O   0  0  0  0  0  0
  -24.6232  -31.8618   23.2006 C   0  0  0  0  0  0
  -25.9092  -32.4767   23.8330 C   0  0  1  0  0  0
  -27.2125  -27.3209   20.0973 C   0  0  0  0  0  0
  -25.5944  -33.8577   24.2249 N   0  0  0  0  0  0
  -23.4118  -30.4894   21.5424 C   0  0  2  0  0  0
  -24.8520  -28.9535   20.1056 C   0  0  0  0  0  0
  -22.7454  -29.4622   22.4899 C   0  0  0  0  0  0
  -18.0292  -28.1370   22.8419 C   0  0  0  0  0  0
  -24.1492  -36.7262   23.2638 C   0  0  0  0  0  0
  -25.9558  -30.7944   21.3706 C   0  0  0  0  0  0
  -26.0244  -29.4264   20.7060 C   0  0  0  0  0  0
  -27.2004  -28.6198   20.6977 C   0  0  0  0  0  0
  -25.9988  -26.8922   19.5050 C   0  0  0  0  0  0
  -24.8434  -27.6903   19.5023 C   0  0  0  0  0  0
  -23.6204  -29.8303   20.1556 C   0  0  0  0  0  0
  -25.4121  -36.3064   24.0319 C   0  0  1  0  0  0
  -20.5889  -28.3668   23.1265 C   0  0  2  0  0  0
  -20.6778  -26.9401   22.5387 C   0  0  0  0  0  0
  -19.5773  -26.6363   21.5183 C   0  0  0  0  0  0
  -18.1938  -26.7906   22.1579 C   0  0  0  0  0  0
  -19.1546  -28.8832   23.2837 C   0  0  0  0  0  0
  -18.9492  -30.1436   23.8846 C   0  0  0  0  0  0
  -17.6503  -30.6564   24.0549 C   0  0  0  0  0  0
  -25.9075  -34.9447   23.5076 C   0  0  0  0  0  0
  -16.5381  -29.9073   23.6342 C   0  0  0  0  0  0
  -16.7279  -28.6501   23.0315 C   0  0  0  0  0  0
  -26.4471  -31.6595   25.0717 C   0  0  0  0  0  0
  -25.3689  -31.3774   26.1450 C   0  0  0  0  0  0
  -27.0372  -30.3030   24.6184 C   0  0  0  0  0  0
  -27.5998  -32.4361   25.7507 C   0  0  0  0  0  0
  -27.5575  -37.1779   24.8463 C   0  0  0  0  0  0
  -21.4162  -29.3033   22.3665 N   0  0  0  0  0  0
  -26.4287  -37.3778   23.9411 N   0  0  0  0  0  0
  -24.6831  -31.0670   22.0949 N   0  0  0  0  0  0
  -23.4218  -28.8160   23.2949 O   0  0  0  0  0  0
  -28.3562  -26.5050   20.1414 O   0  0  0  0  0  0
  -26.5651  -34.8928   22.4638 O   0  0  0  0  0  0
  -23.5395  -32.1431   23.7325 O   0  0  0  0  0  0
  -28.1242  -19.0329   20.2472 C   0  0  0  0  0  0
  -29.3566  -18.3267   20.1248 C   0  0  0  0  0  0
  -29.1410  -21.1102   19.7783 C   0  0  0  0  0  0
  -30.3885  -20.4015   19.7158 C   0  0  0  0  0  0
  -34.4557  -20.1006   16.6910 C   0  0  0  0  0  0
  -30.4083  -16.4022   22.1466 C   0  0  0  0  0  0
  -28.9110  -22.5809   19.2469 C   0  0  0  0  0  0
  -31.7141  -21.0562   19.3415 C   0  0  0  0  0  0
  -29.4316  -16.7681   19.8911 C   0  0  0  0  0  0
  -33.7991  -20.8570   17.8546 C   0  0  0  0  0  0
  -28.8098  -23.8610   20.1884 C   0  0  0  0  0  0
  -32.3363  -20.4408   18.0688 C   0  0  0  0  0  0
  -28.4540  -25.2147   19.4215 C   0  0  0  0  0  0
  -28.0206  -20.3948   20.0927 N   0  0  0  0  0  0
  -30.4878  -19.0475   19.9254 N   0  0  0  0  0  0
  -29.9581  -15.7774   20.9016 N   0  0  0  0  0  0
  -31.4753  -12.5187   19.1648 H   0  0  0  0  0  0
  -30.3696  -11.4292   19.9511 H   0  0  0  0  0  0
  -29.7793  -11.7002   17.5250 H   0  0  0  0  0  0
  -29.6487  -13.4306   17.7157 H   0  0  0  0  0  0
  -27.8828  -11.2743   18.9189 H   0  0  0  0  0  0
  -27.3751  -12.5199   17.8075 H   0  0  0  0  0  0
  -27.6502  -14.2452   19.4876 H   0  0  0  0  0  0
  -28.7203  -12.1321   21.4299 H   0  0  0  0  0  0
  -28.4442  -13.8110   21.8077 H   0  0  0  0  0  0
  -25.2757   -9.5700   22.4744 H   0  0  0  0  0  0
  -23.9988   -7.4665   22.7491 H   0  0  0  0  0  0
  -21.0848   -8.8774   19.8961 H   0  0  0  0  0  0
  -22.3683  -10.9682   19.6156 H   0  0  0  0  0  0
  -21.1990   -7.6162   23.9734 H   0  0  0  0  0  0
  -21.1467   -6.0527   25.9077 H   0  0  0  0  0  0
  -22.0596   -2.7631   23.2821 H   0  0  0  0  0  0
  -22.4067  -11.9883   22.4755 H   0  0  0  0  0  0
  -21.1096  -13.1298   22.2629 H   0  0  0  0  0  0
  -24.6563  -15.8440   20.5348 H   0  0  0  0  0  0
  -26.2734  -15.6352   20.0971 H   0  0  0  0  0  0
  -26.7144  -32.5377   23.1055 H   0  0  0  0  0  0
  -25.0121  -33.9757   25.0417 H   0  0  0  0  0  0
  -22.7051  -31.3097   21.4003 H   0  0  0  0  0  0
  -23.3776  -35.9570   23.3286 H   0  0  0  0  0  0
  -24.3614  -36.8928   22.2070 H   0  0  0  0  0  0
  -23.7251  -37.6454   23.6680 H   0  0  0  0  0  0
  -26.1077  -31.5686   20.6160 H   0  0  0  0  0  0
  -26.8298  -30.8213   22.0082 H   0  0  0  0  0  0
  -28.0965  -28.9861   21.1772 H   0  0  0  0  0  0
  -25.8712  -25.9195   19.0596 H   0  0  0  0  0  0
  -23.9386  -27.3056   19.0508 H   0  0  0  0  0  0
  -23.7248  -30.6079   19.3994 H   0  0  0  0  0  0
  -22.7409  -29.2553   19.8554 H   0  0  0  0  0  0
  -25.1301  -36.1900   25.0814 H   0  0  0  0  0  0
  -20.9959  -28.3220   24.1399 H   0  0  0  0  0  0
  -20.5716  -26.2260   23.3580 H   0  0  0  0  0  0
  -21.6634  -26.7438   22.1173 H   0  0  0  0  0  0
  -19.6977  -25.6291   21.1208 H   0  0  0  0  0  0
  -19.6740  -27.3159   20.6720 H   0  0  0  0  0  0
  -17.4226  -26.6635   21.3977 H   0  0  0  0  0  0
  -18.0327  -26.0072   22.8998 H   0  0  0  0  0  0
  -19.8005  -30.7226   24.2172 H   0  0  0  0  0  0
  -17.5096  -31.6256   24.5152 H   0  0  0  0  0  0
  -15.5386  -30.2971   23.7715 H   0  0  0  0  0  0
  -15.8670  -28.0846   22.7014 H   0  0  0  0  0  0
  -24.5828  -30.7167   25.7765 H   0  0  0  0  0  0
  -24.8928  -32.2987   26.4832 H   0  0  0  0  0  0
  -25.7997  -30.8972   27.0255 H   0  0  0  0  0  0
  -26.2999  -29.6739   24.1185 H   0  0  0  0  0  0
  -27.4117  -29.7320   25.4701 H   0  0  0  0  0  0
  -27.8806  -30.4363   23.9400 H   0  0  0  0  0  0
  -27.2563  -33.3668   26.2027 H   0  0  0  0  0  0
  -28.3817  -32.6941   25.0347 H   0  0  0  0  0  0
  -28.0622  -31.8550   26.5501 H   0  0  0  0  0  0
  -28.2534  -38.0125   24.7549 H   0  0  0  0  0  0
  -28.1144  -36.2667   24.6219 H   0  0  0  0  0  0
  -27.2323  -37.1337   25.8876 H   0  0  0  0  0  0
  -20.9327  -29.8839   21.6961 H   0  0  0  0  0  0
  -26.0158  -38.2839   24.1467 H   0  0  0  0  0  0
  -27.1953  -18.4938   20.3714 H   0  0  0  0  0  0
  -35.4551  -20.4890   16.4903 H   0  0  0  0  0  0
  -33.8743  -20.2001   15.7724 H   0  0  0  0  0  0
  -34.5498  -19.0342   16.9084 H   0  0  0  0  0  0
  -29.6858  -17.1268   22.5243 H   0  0  0  0  0  0
  -31.3607  -16.9115   21.9863 H   0  0  0  0  0  0
  -30.5601  -15.6585   22.9304 H   0  0  0  0  0  0
  -27.9713  -22.5404   18.6939 H   0  0  0  0  0  0
  -29.6482  -22.7886   18.4726 H   0  0  0  0  0  0
  -32.3953  -20.9275   20.1832 H   0  0  0  0  0  0
  -31.6101  -22.1334   19.2175 H   0  0  0  0  0  0
  -30.0077  -16.6441   18.9724 H   0  0  0  0  0  0
  -28.4239  -16.4455   19.6337 H   0  0  0  0  0  0
  -33.8455  -21.9320   17.6733 H   0  0  0  0  0  0
  -34.3725  -20.6728   18.7657 H   0  0  0  0  0  0
  -29.7583  -23.9925   20.7114 H   0  0  0  0  0  0
  -28.0575  -23.6811   20.9564 H   0  0  0  0  0  0
  -31.7330  -20.7019   17.1995 H   0  0  0  0  0  0
  -32.3128  -19.3516   18.1362 H   0  0  0  0  0  0
  -27.5977  -24.9994   18.7935 H   0  0  0  0  0  0
  -29.2500  -25.3774   18.6945 H   0  0  0  0  0  0
  1 25  1  0  0  0
  1 30  2  0  0  0
  1 86  1  0  0  0
  2  3  1  0  0  0
  2 25  1  0  0  0
  2 87  1  0  0  0
  2 88  1  0  0  0
  3  4  1  0  0  0
  3 89  1  0  0  0
  3 90  1  0  0  0
  4  5  1  0  0  0
  4 91  1  0  0  0
  4 92  1  0  0  0
  5  6  1  0  0  0
  5 26  1  0  0  0
  5 93  1  0  0  0
  6 25  1  0  0  0
  6 94  1  0  0  0
  6 95  1  0  0  0
  7  8  2  0  0  0
  7 26  1  0  0  0
  7 29  1  0  0  0
  8  9  1  0  0  0
  8 22  1  0  0  0
  9 10  1  0  0  0
  9 27  2  0  0  0
 10 11  2  0  0  0
 10 15  1  0  0  0
 11 12  1  0  0  0
 11 96  1  0  0  0
 12 13  2  0  0  0
 12 97  1  0  0  0
 13 14  1  0  0  0
 13 31  1  0  0  0
 14 15  2  0  0  0
 14 98  1  0  0  0
 15 99  1  0  0  0
 16 17  2  0  0  0
 16 21  1  0  0  0
 16 31  1  0  0  0
 17 18  1  0  0  0
 17100  1  0  0  0
 18 19  2  0  0  0
 18101  1  0  0  0
 19 20  1  0  0  0
 19 24  1  0  0  0
 20 21  2  0  0  0
 20102  1  0  0  0
 21 23  1  0  0  0
 22 28  1  0  0  0
 22 32  2  0  0  0
 26 27  1  0  0  0
 28103  1  0  0  0
 28104  1  0  0  0
 29105  1  0  0  0
 29106  1  0  0  0
 33 34  1  0  0  0
 33 66  1  0  0  0
 33 70  2  0  0  0
 34 36  1  0  0  0
 34 59  1  0  0  0
 34107  1  0  0  0
 35 44  2  0  0  0
 35 45  1  0  0  0
 35 68  1  0  0  0
 36 56  1  0  0  0
 36108  1  0  0  0
 37 39  1  0  0  0
 37 47  1  0  0  0
 37 66  1  0  0  0
 37109  1  0  0  0
 38 43  2  0  0  0
 38 46  1  0  0  0
 38 47  1  0  0  0
 39 64  1  0  0  0
 39 67  2  0  0  0
 40 52  1  0  0  0
 40 53  2  0  0  0
 40 58  1  0  0  0
 41110  1  0  0  0
 41111  1  0  0  0
 41112  1  0  0  0
 41 48  1  0  0  0
 42 43  1  0  0  0
 42 66  1  0  0  0
 42113  1  0  0  0
 42114  1  0  0  0
 43 44  1  0  0  0
 44115  1  0  0  0
 45 46  2  0  0  0
 45116  1  0  0  0
 46117  1  0  0  0
 47118  1  0  0  0
 47119  1  0  0  0
 48 56  1  0  0  0
 48 65  1  0  0  0
 48120  1  0  0  0
 49 50  1  0  0  0
 49 53  1  0  0  0
 49 64  1  0  0  0
 49121  1  0  0  0
 50 51  1  0  0  0
 50122  1  0  0  0
 50123  1  0  0  0
 51 52  1  0  0  0
 51124  1  0  0  0
 51125  1  0  0  0
 52126  1  0  0  0
 52127  1  0  0  0
 53 54  1  0  0  0
 54 55  2  0  0  0
 54128  1  0  0  0
 55 57  1  0  0  0
 55129  1  0  0  0
 56 69  2  0  0  0
 57 58  2  0  0  0
 57130  1  0  0  0
 58131  1  0  0  0
 59 60  1  0  0  0
 59 61  1  0  0  0
 59 62  1  0  0  0
 60132  1  0  0  0
 60133  1  0  0  0
 60134  1  0  0  0
 61135  1  0  0  0
 61136  1  0  0  0
 61137  1  0  0  0
 62138  1  0  0  0
 62139  1  0  0  0
 62140  1  0  0  0
 63 65  1  0  0  0
 63141  1  0  0  0
 63142  1  0  0  0
 63143  1  0  0  0
 64144  1  0  0  0
 65145  1  0  0  0
 68 83  1  0  0  0
 71 72  2  0  0  0
 71 84  1  0  0  0
 71146  1  0  0  0
 72 79  1  0  0  0
 72 85  1  0  0  0
 73 74  1  0  0  0
 73 77  1  0  0  0
 73 84  2  0  0  0
 74 78  1  0  0  0
 74 85  2  0  0  0
 75 80  1  0  0  0
 75147  1  0  0  0
 75148  1  0  0  0
 75149  1  0  0  0
 76 86  1  0  0  0
 76150  1  0  0  0
 76151  1  0  0  0
 76152  1  0  0  0
 77 81  1  0  0  0
 77153  1  0  0  0
 77154  1  0  0  0
 78 82  1  0  0  0
 78155  1  0  0  0
 78156  1  0  0  0
 79 86  1  0  0  0
 79157  1  0  0  0
 79158  1  0  0  0
 80 82  1  0  0  0
 80159  1  0  0  0
 80160  1  0  0  0
 81 83  1  0  0  0
 81161  1  0  0  0
 81162  1  0  0  0
 82163  1  0  0  0
 82164  1  0  0  0
 83165  1  0  0  0
 83166  1  0  0  0
M  ISO  4   1 100  68 101  83 101  86 100
M  END
> <chiral flag>
0

> <version>
0

> <s_m_source_file>
/data/baiqing/PycharmProjects/Reinvent-master-3.2/result/LINK_invent/BTK/process_docking_weight1_custom_sum_contain_oxygen_bond_distance_aromatic_linkinvent_7_9_3/rearranged_h_0048.sdf

> <i_m_source_file_index>
83

> <r_mmod_Potential_Energy-OPLS-2005>
251.617752075195

> <r_mmod_Stretch_Energy-OPLS-2005>
88.1634979248047

> <r_mmod_Bend_Energy-OPLS-2005>
165.758682250977

> <r_mmod_Torsional_Energy-OPLS-2005>
273.703857421875

> <r_mmod_Improper_Torsional_Energy-OPLS-2005>
9.16019725799561

> <r_mmod_Van_der_Waal_Energy-OPLS-2005>
147.163925170898

> <r_mmod_Electrostatic_Energy-OPLS-2005>
-274.512237548828

> <r_mmod_Solvation_Energy-OPLS-2005>
-209.104522705078

> <b_mmod_Minimization_Converged-OPLS-2005>
0

> <r_mmod_RMS_Derivative-OPLS-2005>
4.5663423538208

$$$$
84
                    3D
 Structure written by MMmdl.
150158  0  0  1  0            999 V2000
  -30.5307  -15.0153   20.4602 C   0  0  0  0  0  0
  -30.4398  -12.6444   19.5031 C   0  0  0  0  0  0
  -29.5187  -12.5448   18.2613 C   0  0  0  0  0  0
  -28.0537  -12.3188   18.6765 C   0  0  0  0  0  0
  -27.6265  -13.2480   19.8407 C   0  0  2  0  0  0
  -28.6684  -13.2572   20.9765 C   0  0  0  0  0  0
  -25.2444  -13.8219   20.5712 C   0  0  0  0  0  0
  -24.1752  -13.0437   20.9216 C   0  0  0  0  0  0
  -24.6374  -11.6924   20.8739 C   0  0  0  0  0  0
  -23.9063  -10.4293   21.0394 C   0  0  0  0  0  0
  -24.3615   -9.4211   21.9175 C   0  0  0  0  0  0
  -23.6288   -8.2249   22.0750 C   0  0  0  0  0  0
  -22.4270   -8.0285   21.3545 C   0  0  0  0  0  0
  -21.9910   -9.0251   20.4645 C   0  0  0  0  0  0
  -22.7230  -10.2130   20.3051 C   0  0  0  0  0  0
  -21.6845   -6.0746   22.5282 C   0  0  0  0  0  0
  -21.4014   -6.5649   23.8216 C   0  0  0  0  0  0
  -21.3656   -5.6796   24.9175 C   0  0  0  0  0  0
  -21.6046   -4.3062   24.7221 C   0  0  0  0  0  0
  -21.8824   -3.8157   23.4343 C   0  0  0  0  0  0
  -21.9192   -4.6978   22.3402 C   0  0  0  0  0  0
  -22.7780  -13.5217   21.1878 C   0  0  0  0  0  0
  -22.1660   -4.2165   21.0977 F   0  0  0  0  0  0
  -21.5622   -3.4542   25.7734 F   0  0  0  0  0  0
  -29.9308  -13.7421   20.3916 N   0  0  0  0  0  0
  -26.2862  -12.9440   20.3246 N   0  0  0  0  0  0
  -25.9309  -11.6570   20.5726 N   0  0  0  0  0  0
  -22.0430  -12.8199   22.0444 N   0  0  0  0  0  0
  -25.4144  -15.1944   20.4186 N   0  0  0  0  0  0
  -31.7107  -15.0541   20.0847 O   0  0  0  0  0  0
  -21.6636   -6.8881   21.4237 O   0  0  0  0  0  0
  -22.3466  -14.5514   20.6702 O   0  0  0  0  0  0
  -24.6468  -31.8390   23.1836 C   0  0  0  0  0  0
  -25.9203  -32.4682   23.8249 C   0  0  1  0  0  0
  -27.2183  -27.0847   20.1684 C   0  0  0  0  0  0
  -25.5927  -33.8487   24.2169 N   0  0  0  0  0  0
  -23.4542  -30.4543   21.5314 C   0  0  2  0  0  0
  -24.9059  -28.8689   20.1149 C   0  0  0  0  0  0
  -22.7586  -29.4525   22.4878 C   0  0  0  0  0  0
  -18.0309  -28.1373   22.8471 C   0  0  0  0  0  0
  -24.1484  -36.7242   23.2650 C   0  0  0  0  0  0
  -26.0129  -30.6995   21.3869 C   0  0  0  0  0  0
  -26.0851  -29.3039   20.7314 C   0  0  0  0  0  0
  -27.2420  -28.4296   20.7350 C   0  0  0  0  0  0
  -26.0116  -26.7604   19.5120 C   0  0  0  0  0  0
  -24.8845  -27.6135   19.4879 C   0  0  0  0  0  0
  -23.6833  -29.7751   20.1547 C   0  0  0  0  0  0
  -25.4125  -36.3027   24.0319 C   0  0  1  0  0  0
  -20.5924  -28.3716   23.1245 C   0  0  2  0  0  0
  -20.6811  -26.9443   22.5351 C   0  0  0  0  0  0
  -19.5776  -26.6469   21.5146 C   0  0  0  0  0  0
  -18.1962  -26.7919   22.1586 C   0  0  0  0  0  0
  -19.1556  -28.8863   23.2848 C   0  0  0  0  0  0
  -18.9469  -30.1454   23.8888 C   0  0  0  0  0  0
  -17.6456  -30.6550   24.0583 C   0  0  0  0  0  0
  -25.9073  -34.9404   23.5062 C   0  0  0  0  0  0
  -16.5351  -29.9050   23.6344 C   0  0  0  0  0  0
  -16.7288  -28.6482   23.0349 C   0  0  0  0  0  0
  -26.4515  -31.6569   25.0708 C   0  0  0  0  0  0
  -25.3688  -31.3757   26.1398 C   0  0  0  0  0  0
  -27.0404  -30.2970   24.6315 C   0  0  0  0  0  0
  -27.6037  -32.4359   25.7488 C   0  0  0  0  0  0
  -27.5572  -37.1789   24.8477 C   0  0  0  0  0  0
  -21.4272  -29.3051   22.3641 N   0  0  0  0  0  0
  -26.4290  -37.3745   23.9406 N   0  0  0  0  0  0
  -24.7253  -31.0195   22.0894 N   0  0  0  0  0  0
  -23.4216  -28.8080   23.3044 O   0  0  0  0  0  0
  -28.2632  -26.0779   20.2506 O   0  0  0  0  0  0
  -26.5676  -34.8909   22.4652 O   0  0  0  0  0  0
  -23.5572  -32.1273   23.7037 O   0  0  0  0  0  0
  -28.1047  -19.6249   20.8171 C   0  0  0  0  0  0
  -29.8871  -20.5659   20.1712 C   0  0  0  0  0  0
  -29.4241  -19.2330   20.3923 C   0  0  0  0  0  0
  -28.9280  -16.3495   21.8451 C   0  0  0  0  0  0
  -30.1712  -17.7291   20.1666 C   0  0  0  0  0  0
  -29.1121  -23.2521   20.4890 C   0  0  0  0  0  0
  -28.0125  -24.5169   20.1459 C   0  0  0  0  0  0
  -27.8472  -20.9674   20.8529 N   0  0  0  0  0  0
  -28.9464  -21.6489   20.4183 N   0  0  0  0  0  0
  -29.8082  -16.2572   20.6793 N   0  0  0  0  0  0
  -31.4655  -12.8209   19.1761 H   0  0  0  0  0  0
  -30.4701  -11.6941   20.0387 H   0  0  0  0  0  0
  -29.8465  -11.7361   17.6061 H   0  0  0  0  0  0
  -29.5938  -13.4632   17.6768 H   0  0  0  0  0  0
  -27.9571  -11.2773   18.9869 H   0  0  0  0  0  0
  -27.3878  -12.4447   17.8215 H   0  0  0  0  0  0
  -27.5917  -14.2547   19.4216 H   0  0  0  0  0  0
  -28.7886  -12.2592   21.4002 H   0  0  0  0  0  0
  -28.3212  -13.8710   21.7997 H   0  0  0  0  0  0
  -25.2761   -9.5704   22.4745 H   0  0  0  0  0  0
  -24.0008   -7.4644   22.7473 H   0  0  0  0  0  0
  -21.0850   -8.8772   19.8937 H   0  0  0  0  0  0
  -22.3689  -10.9676   19.6164 H   0  0  0  0  0  0
  -21.2004   -7.6156   23.9728 H   0  0  0  0  0  0
  -21.1463   -6.0519   25.9078 H   0  0  0  0  0  0
  -22.0601   -2.7620   23.2831 H   0  0  0  0  0  0
  -22.4068  -11.9866   22.4815 H   0  0  0  0  0  0
  -21.1037  -13.1198   22.2659 H   0  0  0  0  0  0
  -24.6508  -15.8516   20.5337 H   0  0  0  0  0  0
  -26.2716  -15.6300   20.1024 H   0  0  0  0  0  0
  -26.7273  -32.5283   23.0983 H   0  0  0  0  0  0
  -25.0026  -33.9590   25.0285 H   0  0  0  0  0  0
  -22.7577  -31.2799   21.3700 H   0  0  0  0  0  0
  -23.3756  -35.9565   23.3326 H   0  0  0  0  0  0
  -24.3555  -36.8860   22.2058 H   0  0  0  0  0  0
  -23.7227  -37.6441   23.6677 H   0  0  0  0  0  0
  -26.1694  -31.4510   20.6120 H   0  0  0  0  0  0
  -26.8827  -30.7573   22.0292 H   0  0  0  0  0  0
  -28.1422  -28.7587   21.2347 H   0  0  0  0  0  0
  -25.9089  -25.7967   19.0361 H   0  0  0  0  0  0
  -23.9828  -27.2755   18.9961 H   0  0  0  0  0  0
  -23.8200  -30.5434   19.3931 H   0  0  0  0  0  0
  -22.7987  -29.2134   19.8499 H   0  0  0  0  0  0
  -25.1318  -36.1865   25.0812 H   0  0  0  0  0  0
  -21.0004  -28.3249   24.1370 H   0  0  0  0  0  0
  -20.5730  -26.2295   23.3519 H   0  0  0  0  0  0
  -21.6675  -26.7505   22.1105 H   0  0  0  0  0  0
  -19.6968  -25.6421   21.1085 H   0  0  0  0  0  0
  -19.6676  -27.3370   20.6746 H   0  0  0  0  0  0
  -17.4226  -26.6675   21.3990 H   0  0  0  0  0  0
  -18.0425  -26.0015   22.8946 H   0  0  0  0  0  0
  -19.7930  -30.7283   24.2261 H   0  0  0  0  0  0
  -17.4978  -31.6196   24.5234 H   0  0  0  0  0  0
  -15.5343  -30.2915   23.7695 H   0  0  0  0  0  0
  -15.8688  -28.0789   22.7074 H   0  0  0  0  0  0
  -24.5858  -30.7129   25.7699 H   0  0  0  0  0  0
  -24.8884  -32.2935   26.4797 H   0  0  0  0  0  0
  -25.7946  -30.8927   27.0201 H   0  0  0  0  0  0
  -26.3038  -29.6676   24.1314 H   0  0  0  0  0  0
  -27.4006  -29.7288   25.4902 H   0  0  0  0  0  0
  -27.8938  -30.4218   23.9652 H   0  0  0  0  0  0
  -27.2625  -33.3684   26.2005 H   0  0  0  0  0  0
  -28.3864  -32.6902   25.0323 H   0  0  0  0  0  0
  -28.0696  -31.8535   26.5451 H   0  0  0  0  0  0
  -28.2623  -38.0058   24.7492 H   0  0  0  0  0  0
  -28.1037  -36.2585   24.6356 H   0  0  0  0  0  0
  -27.2278  -37.1503   25.8882 H   0  0  0  0  0  0
  -20.9502  -29.8760   21.6807 H   0  0  0  0  0  0
  -26.0159  -38.2817   24.1404 H   0  0  0  0  0  0
  -27.3045  -18.9607   21.1173 H   0  0  0  0  0  0
  -30.8798  -20.8474   19.8495 H   0  0  0  0  0  0
  -28.9667  -17.3340   22.3099 H   0  0  0  0  0  0
  -29.2284  -15.6551   22.6309 H   0  0  0  0  0  0
  -27.8936  -16.1519   21.5673 H   0  0  0  0  0  0
  -31.2161  -17.8452   20.4580 H   0  0  0  0  0  0
  -30.2392  -17.5835   19.0878 H   0  0  0  0  0  0
  -29.4464  -23.4392   21.5103 H   0  0  0  0  0  0
  -29.9937  -23.4679   19.8863 H   0  0  0  0  0  0
  -27.1301  -24.3192   20.7548 H   0  0  0  0  0  0
  -27.6870  -24.3434   19.1209 H   0  0  0  0  0  0
  1 25  1  0  0  0
  1 30  2  0  0  0
  1 80  1  0  0  0
  2  3  1  0  0  0
  2 25  1  0  0  0
  2 81  1  0  0  0
  2 82  1  0  0  0
  3  4  1  0  0  0
  3 83  1  0  0  0
  3 84  1  0  0  0
  4  5  1  0  0  0
  4 85  1  0  0  0
  4 86  1  0  0  0
  5  6  1  0  0  0
  5 26  1  0  0  0
  5 87  1  0  0  0
  6 25  1  0  0  0
  6 88  1  0  0  0
  6 89  1  0  0  0
  7  8  2  0  0  0
  7 26  1  0  0  0
  7 29  1  0  0  0
  8  9  1  0  0  0
  8 22  1  0  0  0
  9 10  1  0  0  0
  9 27  2  0  0  0
 10 11  2  0  0  0
 10 15  1  0  0  0
 11 12  1  0  0  0
 11 90  1  0  0  0
 12 13  2  0  0  0
 12 91  1  0  0  0
 13 14  1  0  0  0
 13 31  1  0  0  0
 14 15  2  0  0  0
 14 92  1  0  0  0
 15 93  1  0  0  0
 16 17  2  0  0  0
 16 21  1  0  0  0
 16 31  1  0  0  0
 17 18  1  0  0  0
 17 94  1  0  0  0
 18 19  2  0  0  0
 18 95  1  0  0  0
 19 20  1  0  0  0
 19 24  1  0  0  0
 20 21  2  0  0  0
 20 96  1  0  0  0
 21 23  1  0  0  0
 22 28  1  0  0  0
 22 32  2  0  0  0
 26 27  1  0  0  0
 28 97  1  0  0  0
 28 98  1  0  0  0
 29 99  1  0  0  0
 29100  1  0  0  0
 33 34  1  0  0  0
 33 66  1  0  0  0
 33 70  2  0  0  0
 34 36  1  0  0  0
 34 59  1  0  0  0
 34101  1  0  0  0
 35 44  2  0  0  0
 35 45  1  0  0  0
 35 68  1  0  0  0
 36 56  1  0  0  0
 36102  1  0  0  0
 37 39  1  0  0  0
 37 47  1  0  0  0
 37 66  1  0  0  0
 37103  1  0  0  0
 38 43  2  0  0  0
 38 46  1  0  0  0
 38 47  1  0  0  0
 39 64  1  0  0  0
 39 67  2  0  0  0
 40 52  1  0  0  0
 40 53  2  0  0  0
 40 58  1  0  0  0
 41104  1  0  0  0
 41105  1  0  0  0
 41106  1  0  0  0
 41 48  1  0  0  0
 42 43  1  0  0  0
 42 66  1  0  0  0
 42107  1  0  0  0
 42108  1  0  0  0
 43 44  1  0  0  0
 44109  1  0  0  0
 45 46  2  0  0  0
 45110  1  0  0  0
 46111  1  0  0  0
 47112  1  0  0  0
 47113  1  0  0  0
 48 56  1  0  0  0
 48 65  1  0  0  0
 48114  1  0  0  0
 49 50  1  0  0  0
 49 53  1  0  0  0
 49 64  1  0  0  0
 49115  1  0  0  0
 50 51  1  0  0  0
 50116  1  0  0  0
 50117  1  0  0  0
 51 52  1  0  0  0
 51118  1  0  0  0
 51119  1  0  0  0
 52120  1  0  0  0
 52121  1  0  0  0
 53 54  1  0  0  0
 54 55  2  0  0  0
 54122  1  0  0  0
 55 57  1  0  0  0
 55123  1  0  0  0
 56 69  2  0  0  0
 57 58  2  0  0  0
 57124  1  0  0  0
 58125  1  0  0  0
 59 60  1  0  0  0
 59 61  1  0  0  0
 59 62  1  0  0  0
 60126  1  0  0  0
 60127  1  0  0  0
 60128  1  0  0  0
 61129  1  0  0  0
 61130  1  0  0  0
 61131  1  0  0  0
 62132  1  0  0  0
 62133  1  0  0  0
 62134  1  0  0  0
 63 65  1  0  0  0
 63135  1  0  0  0
 63136  1  0  0  0
 63137  1  0  0  0
 64138  1  0  0  0
 65139  1  0  0  0
 68 77  1  0  0  0
 71 73  1  0  0  0
 71 78  2  0  0  0
 71140  1  0  0  0
 72 73  2  0  0  0
 72 79  1  0  0  0
 72141  1  0  0  0
 73 75  1  0  0  0
 74 80  1  0  0  0
 74142  1  0  0  0
 74143  1  0  0  0
 74144  1  0  0  0
 75 80  1  0  0  0
 75145  1  0  0  0
 75146  1  0  0  0
 76 77  1  0  0  0
 76 79  1  0  0  0
 76147  1  0  0  0
 76148  1  0  0  0
 77149  1  0  0  0
 77150  1  0  0  0
 78 79  1  0  0  0
M  ISO  4   1 100  68 101  77 101  80 100
M  END
> <chiral flag>
0

> <version>
0

> <s_m_source_file>
/data/baiqing/PycharmProjects/Reinvent-master-3.2/result/LINK_invent/BTK/process_docking_weight1_custom_sum_contain_oxygen_bond_distance_aromatic_linkinvent_7_9_3/rearranged_h_0048.sdf

> <i_m_source_file_index>
84

> <r_mmod_Potential_Energy-OPLS-2005>
732.182983398438

> <r_mmod_Stretch_Energy-OPLS-2005>
320.598388671875

> <r_mmod_Bend_Energy-OPLS-2005>
305.184722900391

> <r_mmod_Torsional_Energy-OPLS-2005>
253.939361572266

> <r_mmod_Improper_Torsional_Energy-OPLS-2005>
8.2588062286377

> <r_mmod_Van_der_Waal_Energy-OPLS-2005>
114.744163513184

> <r_mmod_Electrostatic_Energy-OPLS-2005>
-281.526214599609

> <r_mmod_Solvation_Energy-OPLS-2005>
-222.403839111328

> <b_mmod_Minimization_Converged-OPLS-2005>
0

> <r_mmod_RMS_Derivative-OPLS-2005>
2.0475025177002

$$$$
85
                    3D
 Structure written by MMmdl.
149157  0  0  1  0            999 V2000
  -30.5830  -14.7454   20.4507 C   0  0  0  0  0  0
  -30.4342  -12.4492   19.4810 C   0  0  0  0  0  0
  -29.5167  -12.5153   18.2393 C   0  0  0  0  0  0
  -28.0396  -12.3397   18.6427 C   0  0  0  0  0  0
  -27.6433  -13.2279   19.8538 C   0  0  2  0  0  0
  -28.6839  -13.1453   20.9924 C   0  0  0  0  0  0
  -25.2520  -13.8189   20.5664 C   0  0  0  0  0  0
  -24.1808  -13.0450   20.9215 C   0  0  0  0  0  0
  -24.6382  -11.6923   20.8747 C   0  0  0  0  0  0
  -23.9057  -10.4305   21.0394 C   0  0  0  0  0  0
  -24.3616   -9.4220   21.9168 C   0  0  0  0  0  0
  -23.6310   -8.2244   22.0735 C   0  0  0  0  0  0
  -22.4293   -8.0267   21.3524 C   0  0  0  0  0  0
  -21.9920   -9.0237   20.4632 C   0  0  0  0  0  0
  -22.7227  -10.2131   20.3049 C   0  0  0  0  0  0
  -21.6851   -6.0738   22.5275 C   0  0  0  0  0  0
  -21.4001   -6.5638   23.8211 C   0  0  0  0  0  0
  -21.3676   -5.6785   24.9177 C   0  0  0  0  0  0
  -21.6057   -4.3054   24.7212 C   0  0  0  0  0  0
  -21.8824   -3.8148   23.4331 C   0  0  0  0  0  0
  -21.9194   -4.6966   22.3393 C   0  0  0  0  0  0
  -22.7827  -13.5227   21.1895 C   0  0  0  0  0  0
  -22.1653   -4.2150   21.0969 F   0  0  0  0  0  0
  -21.5656   -3.4535   25.7725 F   0  0  0  0  0  0
  -29.9865  -13.5052   20.4187 N   0  0  0  0  0  0
  -26.2931  -12.9379   20.3258 N   0  0  0  0  0  0
  -25.9305  -11.6531   20.5721 N   0  0  0  0  0  0
  -22.0463  -12.8201   22.0437 N   0  0  0  0  0  0
  -25.4256  -15.1903   20.4049 N   0  0  0  0  0  0
  -31.7622  -14.8706   20.1078 O   0  0  0  0  0  0
  -21.6653   -6.8863   21.4228 O   0  0  0  0  0  0
  -22.3495  -14.5524   20.6738 O   0  0  0  0  0  0
  -24.6332  -31.8505   23.2013 C   0  0  0  0  0  0
  -25.9155  -32.4734   23.8318 C   0  0  1  0  0  0
  -27.2074  -27.2352   20.1148 C   0  0  0  0  0  0
  -25.5949  -33.8543   24.2222 N   0  0  0  0  0  0
  -23.4286  -30.4795   21.5427 C   0  0  2  0  0  0
  -24.8700  -28.9257   20.1063 C   0  0  0  0  0  0
  -22.7492  -29.4592   22.4886 C   0  0  0  0  0  0
  -18.0298  -28.1379   22.8480 C   0  0  0  0  0  0
  -24.1489  -36.7285   23.2638 C   0  0  0  0  0  0
  -25.9788  -30.7531   21.3876 C   0  0  0  0  0  0
  -26.0448  -29.3780   20.7213 C   0  0  0  0  0  0
  -27.2099  -28.5411   20.7215 C   0  0  0  0  0  0
  -26.0129  -26.8714   19.4475 C   0  0  0  0  0  0
  -24.8622  -27.6805   19.4629 C   0  0  0  0  0  0
  -23.6438  -29.8166   20.1577 C   0  0  0  0  0  0
  -25.4123  -36.3068   24.0313 C   0  0  1  0  0  0
  -20.5900  -28.3716   23.1240 C   0  0  2  0  0  0
  -20.6797  -26.9431   22.5398 C   0  0  0  0  0  0
  -19.5766  -26.6375   21.5217 C   0  0  0  0  0  0
  -18.1943  -26.7918   22.1626 C   0  0  0  0  0  0
  -19.1547  -28.8863   23.2851 C   0  0  0  0  0  0
  -18.9474  -30.1460   23.8862 C   0  0  0  0  0  0
  -17.6470  -30.6586   24.0564 C   0  0  0  0  0  0
  -25.9059  -34.9436   23.5069 C   0  0  0  0  0  0
  -16.5366  -29.9082   23.6333 C   0  0  0  0  0  0
  -16.7278  -28.6503   23.0356 C   0  0  0  0  0  0
  -26.4496  -31.6599   25.0748 C   0  0  0  0  0  0
  -25.3707  -31.3786   26.1462 C   0  0  0  0  0  0
  -27.0366  -30.3003   24.6315 C   0  0  0  0  0  0
  -27.6024  -32.4373   25.7523 C   0  0  0  0  0  0
  -27.5577  -37.1807   24.8451 C   0  0  0  0  0  0
  -21.4199  -29.3071   22.3627 N   0  0  0  0  0  0
  -26.4283  -37.3773   23.9403 N   0  0  0  0  0  0
  -24.6991  -31.0452   22.0990 N   0  0  0  0  0  0
  -23.4190  -28.8104   23.2970 O   0  0  0  0  0  0
  -28.3009  -26.3316   20.1987 O   0  0  0  0  0  0
  -26.5630  -34.8925   22.4635 O   0  0  0  0  0  0
  -23.5492  -32.1314   23.7323 O   0  0  0  0  0  0
  -29.2668  -20.5305   18.9899 C   0  0  0  0  0  0
  -29.1075  -20.0153   20.3114 C   0  0  0  0  0  0
  -29.0501  -18.4989   20.8052 C   0  0  0  0  0  0
  -28.8437  -23.6789   20.7061 C   0  0  0  0  0  0
  -30.0206  -17.3234   20.2377 C   0  0  0  0  0  0
  -28.2067  -24.8662   19.8020 C   0  0  0  0  0  0
  -29.1530  -21.8506   18.9435 N   0  0  0  0  0  0
  -28.8853  -21.0973   21.0741 N   0  0  0  0  0  0
  -28.8895  -22.2173   20.2292 N   0  0  0  0  0  0
  -29.7748  -15.8589   20.6398 N   0  0  0  0  0  0
  -31.4775  -12.5781   19.1878 H   0  0  0  0  0  0
  -30.3758  -11.4671   19.9529 H   0  0  0  0  0  0
  -29.8042  -11.7532   17.5146 H   0  0  0  0  0  0
  -29.6470  -13.4760   17.7381 H   0  0  0  0  0  0
  -27.8912  -11.2883   18.8907 H   0  0  0  0  0  0
  -27.3898  -12.5468   17.7918 H   0  0  0  0  0  0
  -27.6402  -14.2548   19.4876 H   0  0  0  0  0  0
  -28.7196  -12.1401   21.4139 H   0  0  0  0  0  0
  -28.4175  -13.8115   21.8145 H   0  0  0  0  0  0
  -25.2763   -9.5714   22.4747 H   0  0  0  0  0  0
  -24.0042   -7.4639   22.7457 H   0  0  0  0  0  0
  -21.0851   -8.8739   19.8938 H   0  0  0  0  0  0
  -22.3660  -10.9672   19.6171 H   0  0  0  0  0  0
  -21.1959   -7.6142   23.9704 H   0  0  0  0  0  0
  -21.1511   -6.0518   25.9080 H   0  0  0  0  0  0
  -22.0593   -2.7608   23.2822 H   0  0  0  0  0  0
  -22.4078  -11.9865   22.4835 H   0  0  0  0  0  0
  -21.1074  -13.1208   22.2656 H   0  0  0  0  0  0
  -24.6578  -15.8473   20.4970 H   0  0  0  0  0  0
  -26.2667  -15.6196   20.0411 H   0  0  0  0  0  0
  -26.7220  -32.5339   23.1054 H   0  0  0  0  0  0
  -25.0137  -33.9676   25.0390 H   0  0  0  0  0  0
  -22.7291  -31.3058   21.3992 H   0  0  0  0  0  0
  -23.3761  -35.9608   23.3285 H   0  0  0  0  0  0
  -24.3580  -36.8918   22.2054 H   0  0  0  0  0  0
  -23.7234  -37.6479   23.6676 H   0  0  0  0  0  0
  -26.1306  -31.5175   20.6247 H   0  0  0  0  0  0
  -26.8526  -30.7875   22.0263 H   0  0  0  0  0  0
  -28.1013  -28.8770   21.2336 H   0  0  0  0  0  0
  -25.9176  -25.9435   18.9063 H   0  0  0  0  0  0
  -23.9653  -27.3337   18.9689 H   0  0  0  0  0  0
  -23.7697  -30.5924   19.4015 H   0  0  0  0  0  0
  -22.7588  -29.2545   19.8520 H   0  0  0  0  0  0
  -25.1316  -36.1897   25.0810 H   0  0  0  0  0  0
  -21.0012  -28.3315   24.1349 H   0  0  0  0  0  0
  -20.5726  -26.2325   23.3611 H   0  0  0  0  0  0
  -21.6660  -26.7454   22.1171 H   0  0  0  0  0  0
  -19.6945  -25.6283   21.1248 H   0  0  0  0  0  0
  -19.6709  -27.3177   20.6742 H   0  0  0  0  0  0
  -17.4227  -26.6663   21.4023 H   0  0  0  0  0  0
  -18.0342  -26.0042   22.9003 H   0  0  0  0  0  0
  -19.7952  -30.7288   24.2206 H   0  0  0  0  0  0
  -17.5034  -31.6260   24.5184 H   0  0  0  0  0  0
  -15.5365  -30.2998   23.7675 H   0  0  0  0  0  0
  -15.8666  -28.0824   22.7096 H   0  0  0  0  0  0
  -24.5852  -30.7162   25.7802 H   0  0  0  0  0  0
  -24.8943  -32.2978   26.4886 H   0  0  0  0  0  0
  -25.8016  -30.8951   27.0235 H   0  0  0  0  0  0
  -26.2982  -29.6746   24.1297 H   0  0  0  0  0  0
  -27.3930  -29.7311   25.4908 H   0  0  0  0  0  0
  -27.8907  -30.4240   23.9658 H   0  0  0  0  0  0
  -27.2577  -33.3656   26.2091 H   0  0  0  0  0  0
  -28.3843  -32.6964   25.0377 H   0  0  0  0  0  0
  -28.0675  -31.8505   26.5449 H   0  0  0  0  0  0
  -28.2591  -38.0113   24.7535 H   0  0  0  0  0  0
  -28.1082  -36.2652   24.6235 H   0  0  0  0  0  0
  -27.2284  -37.1386   25.8848 H   0  0  0  0  0  0
  -20.9395  -29.8788   21.6819 H   0  0  0  0  0  0
  -26.0155  -38.2841   24.1435 H   0  0  0  0  0  0
  -29.4438  -19.9648   18.0849 H   0  0  0  0  0  0
  -28.0295  -18.1548   20.6361 H   0  0  0  0  0  0
  -29.1507  -18.4955   21.8911 H   0  0  0  0  0  0
  -28.3160  -23.6791   21.6599 H   0  0  0  0  0  0
  -29.8693  -23.9544   20.9431 H   0  0  0  0  0  0
  -31.0550  -17.5783   20.4734 H   0  0  0  0  0  0
  -29.9547  -17.3384   19.1482 H   0  0  0  0  0  0
  -27.1785  -24.5554   19.6533 H   0  0  0  0  0  0
  -28.6684  -24.8019   18.8168 H   0  0  0  0  0  0
  -28.8343  -15.6418   20.9360 H   0  0  0  0  0  0
  1 25  1  0  0  0
  1 30  2  0  0  0
  1 80  1  0  0  0
  2  3  1  0  0  0
  2 25  1  0  0  0
  2 81  1  0  0  0
  2 82  1  0  0  0
  3  4  1  0  0  0
  3 83  1  0  0  0
  3 84  1  0  0  0
  4  5  1  0  0  0
  4 85  1  0  0  0
  4 86  1  0  0  0
  5  6  1  0  0  0
  5 26  1  0  0  0
  5 87  1  0  0  0
  6 25  1  0  0  0
  6 88  1  0  0  0
  6 89  1  0  0  0
  7  8  2  0  0  0
  7 26  1  0  0  0
  7 29  1  0  0  0
  8  9  1  0  0  0
  8 22  1  0  0  0
  9 10  1  0  0  0
  9 27  2  0  0  0
 10 11  2  0  0  0
 10 15  1  0  0  0
 11 12  1  0  0  0
 11 90  1  0  0  0
 12 13  2  0  0  0
 12 91  1  0  0  0
 13 14  1  0  0  0
 13 31  1  0  0  0
 14 15  2  0  0  0
 14 92  1  0  0  0
 15 93  1  0  0  0
 16 17  2  0  0  0
 16 21  1  0  0  0
 16 31  1  0  0  0
 17 18  1  0  0  0
 17 94  1  0  0  0
 18 19  2  0  0  0
 18 95  1  0  0  0
 19 20  1  0  0  0
 19 24  1  0  0  0
 20 21  2  0  0  0
 20 96  1  0  0  0
 21 23  1  0  0  0
 22 28  1  0  0  0
 22 32  2  0  0  0
 26 27  1  0  0  0
 28 97  1  0  0  0
 28 98  1  0  0  0
 29 99  1  0  0  0
 29100  1  0  0  0
 33 34  1  0  0  0
 33 66  1  0  0  0
 33 70  2  0  0  0
 34 36  1  0  0  0
 34 59  1  0  0  0
 34101  1  0  0  0
 35 44  2  0  0  0
 35 45  1  0  0  0
 35 68  1  0  0  0
 36 56  1  0  0  0
 36102  1  0  0  0
 37 39  1  0  0  0
 37 47  1  0  0  0
 37 66  1  0  0  0
 37103  1  0  0  0
 38 43  2  0  0  0
 38 46  1  0  0  0
 38 47  1  0  0  0
 39 64  1  0  0  0
 39 67  2  0  0  0
 40 52  1  0  0  0
 40 53  2  0  0  0
 40 58  1  0  0  0
 41104  1  0  0  0
 41105  1  0  0  0
 41106  1  0  0  0
 41 48  1  0  0  0
 42 43  1  0  0  0
 42 66  1  0  0  0
 42107  1  0  0  0
 42108  1  0  0  0
 43 44  1  0  0  0
 44109  1  0  0  0
 45 46  2  0  0  0
 45110  1  0  0  0
 46111  1  0  0  0
 47112  1  0  0  0
 47113  1  0  0  0
 48 56  1  0  0  0
 48 65  1  0  0  0
 48114  1  0  0  0
 49 50  1  0  0  0
 49 53  1  0  0  0
 49 64  1  0  0  0
 49115  1  0  0  0
 50 51  1  0  0  0
 50116  1  0  0  0
 50117  1  0  0  0
 51 52  1  0  0  0
 51118  1  0  0  0
 51119  1  0  0  0
 52120  1  0  0  0
 52121  1  0  0  0
 53 54  1  0  0  0
 54 55  2  0  0  0
 54122  1  0  0  0
 55 57  1  0  0  0
 55123  1  0  0  0
 56 69  2  0  0  0
 57 58  2  0  0  0
 57124  1  0  0  0
 58125  1  0  0  0
 59 60  1  0  0  0
 59 61  1  0  0  0
 59 62  1  0  0  0
 60126  1  0  0  0
 60127  1  0  0  0
 60128  1  0  0  0
 61129  1  0  0  0
 61130  1  0  0  0
 61131  1  0  0  0
 62132  1  0  0  0
 62133  1  0  0  0
 62134  1  0  0  0
 63 65  1  0  0  0
 63135  1  0  0  0
 63136  1  0  0  0
 63137  1  0  0  0
 64138  1  0  0  0
 65139  1  0  0  0
 68 76  1  0  0  0
 71 72  1  0  0  0
 71 77  2  0  0  0
 71140  1  0  0  0
 72 73  1  0  0  0
 72 78  2  0  0  0
 73 75  1  0  0  0
 73141  1  0  0  0
 73142  1  0  0  0
 74 76  1  0  0  0
 74 79  1  0  0  0
 74143  1  0  0  0
 74144  1  0  0  0
 75 80  1  0  0  0
 75145  1  0  0  0
 75146  1  0  0  0
 76147  1  0  0  0
 76148  1  0  0  0
 77 79  1  0  0  0
 78 79  1  0  0  0
 80149  1  0  0  0
M  ISO  4   1 100  68 101  76 101  80 100
M  END
> <chiral flag>
0

> <version>
0

> <s_m_source_file>
/data/baiqing/PycharmProjects/Reinvent-master-3.2/result/LINK_invent/BTK/process_docking_weight1_custom_sum_contain_oxygen_bond_distance_aromatic_linkinvent_7_9_3/rearranged_h_0048.sdf

> <i_m_source_file_index>
85

> <r_mmod_Potential_Energy-OPLS-2005>
142.685211181641

> <r_mmod_Stretch_Energy-OPLS-2005>
132.222320556641

> <r_mmod_Bend_Energy-OPLS-2005>
180.141098022461

> <r_mmod_Torsional_Energy-OPLS-2005>
210.102767944336

> <r_mmod_Improper_Torsional_Energy-OPLS-2005>
7.14056968688965

> <r_mmod_Van_der_Waal_Energy-OPLS-2005>
117.982559204102

> <r_mmod_Electrostatic_Energy-OPLS-2005>
-365.524108886719

> <r_mmod_Solvation_Energy-OPLS-2005>
-232.609024047852

> <b_mmod_Minimization_Converged-OPLS-2005>
0

> <r_mmod_RMS_Derivative-OPLS-2005>
3.07646632194519

$$$$
86
                    3D
 Structure written by MMmdl.
160168  0  0  1  0            999 V2000
  -30.4194  -15.3103   20.3852 C   0  0  0  0  0  0
  -30.4394  -12.8281   19.5572 C   0  0  0  0  0  0
  -29.5455  -12.5975   18.3104 C   0  0  0  0  0  0
  -28.0945  -12.3080   18.7277 C   0  0  0  0  0  0
  -27.6153  -13.2823   19.8304 C   0  0  2  0  0  0
  -28.6402  -13.4686   20.9713 C   0  0  0  0  0  0
  -25.2406  -13.8264   20.5751 C   0  0  0  0  0  0
  -24.1748  -13.0450   20.9231 C   0  0  0  0  0  0
  -24.6407  -11.6945   20.8747 C   0  0  0  0  0  0
  -23.9103  -10.4301   21.0394 C   0  0  0  0  0  0
  -24.3645   -9.4214   21.9174 C   0  0  0  0  0  0
  -23.6310   -8.2256   22.0753 C   0  0  0  0  0  0
  -22.4291   -8.0293   21.3546 C   0  0  0  0  0  0
  -21.9935   -9.0264   20.4643 C   0  0  0  0  0  0
  -22.7273  -10.2137   20.3044 C   0  0  0  0  0  0
  -21.6859   -6.0745   22.5274 C   0  0  0  0  0  0
  -21.4024   -6.5645   23.8209 C   0  0  0  0  0  0
  -21.3660   -5.6794   24.9166 C   0  0  0  0  0  0
  -21.6041   -4.3060   24.7214 C   0  0  0  0  0  0
  -21.8821   -3.8152   23.4338 C   0  0  0  0  0  0
  -21.9196   -4.6970   22.3395 C   0  0  0  0  0  0
  -22.7764  -13.5199   21.1882 C   0  0  0  0  0  0
  -22.1663   -4.2154   21.0974 F   0  0  0  0  0  0
  -21.5623   -3.4542   25.7730 F   0  0  0  0  0  0
  -29.8843  -13.9801   20.3701 N   0  0  0  0  0  0
  -26.2837  -12.9548   20.3244 N   0  0  0  0  0  0
  -25.9351  -11.6646   20.5718 N   0  0  0  0  0  0
  -22.0440  -12.8166   22.0439 N   0  0  0  0  0  0
  -25.4087  -15.1996   20.4216 N   0  0  0  0  0  0
  -31.6009  -15.2996   20.0070 O   0  0  0  0  0  0
  -21.6652   -6.8891   21.4241 O   0  0  0  0  0  0
  -22.3430  -14.5498   20.6727 O   0  0  0  0  0  0
  -24.6657  -31.8203   23.1671 C   0  0  0  0  0  0
  -25.9325  -32.4565   23.8147 C   0  0  1  0  0  0
  -27.2192  -26.8911   20.1827 C   0  0  0  0  0  0
  -25.5984  -33.8384   24.2048 N   0  0  0  0  0  0
  -23.4832  -30.4310   21.5155 C   0  0  2  0  0  0
  -24.9390  -28.8146   20.1061 C   0  0  0  0  0  0
  -22.7688  -29.4425   22.4745 C   0  0  0  0  0  0
  -18.0333  -28.1419   22.8472 C   0  0  0  0  0  0
  -24.1485  -36.7175   23.2649 C   0  0  0  0  0  0
  -26.0551  -30.6123   21.4073 C   0  0  0  0  0  0
  -26.1209  -29.1992   20.7504 C   0  0  0  0  0  0
  -27.2497  -28.2574   20.7707 C   0  0  0  0  0  0
  -26.0139  -26.6786   19.4720 C   0  0  0  0  0  0
  -24.9135  -27.5755   19.4468 C   0  0  0  0  0  0
  -23.7269  -29.7463   20.1409 C   0  0  0  0  0  0
  -25.4132  -36.2946   24.0296 C   0  0  1  0  0  0
  -20.5960  -28.3761   23.1179 C   0  0  2  0  0  0
  -20.6809  -26.9442   22.5399 C   0  0  0  0  0  0
  -19.5780  -26.6386   21.5217 C   0  0  0  0  0  0
  -18.1960  -26.7961   22.1622 C   0  0  0  0  0  0
  -19.1597  -28.8915   23.2816 C   0  0  0  0  0  0
  -18.9511  -30.1505   23.8851 C   0  0  0  0  0  0
  -17.6500  -30.6610   24.0564 C   0  0  0  0  0  0
  -25.9105  -34.9339   23.4992 C   0  0  0  0  0  0
  -16.5388  -29.9097   23.6360 C   0  0  0  0  0  0
  -16.7313  -28.6523   23.0375 C   0  0  0  0  0  0
  -26.4568  -31.6529   25.0688 C   0  0  0  0  0  0
  -25.3685  -31.3799   26.1334 C   0  0  0  0  0  0
  -27.0474  -30.2889   24.6463 C   0  0  0  0  0  0
  -27.6048  -32.4347   25.7496 C   0  0  0  0  0  0
  -27.5562  -37.1749   24.8475 C   0  0  0  0  0  0
  -21.4352  -29.3041   22.3509 N   0  0  0  0  0  0
  -26.4265  -37.3694   23.9419 N   0  0  0  0  0  0
  -24.7558  -30.9833   22.0824 N   0  0  0  0  0  0
  -23.4224  -28.8004   23.3005 O   0  0  0  0  0  0
  -28.1960  -25.7547   20.3191 O   0  0  0  0  0  0
  -26.5716  -34.8886   22.4588 O   0  0  0  0  0  0
  -23.5720  -32.1177   23.6745 O   0  0  0  0  0  0
  -28.1802  -21.9542   21.6607 C   0  0  0  0  0  0
  -28.5477  -22.5697   20.4168 C   0  0  0  0  0  0
  -28.4460  -20.5715   21.6763 C   0  0  0  0  0  0
  -28.0450  -19.6459   22.7734 C   0  0  0  0  0  0
  -32.0872  -14.4388   24.4079 C   0  0  0  0  0  0
  -28.0719  -24.1741   19.8074 C   0  0  0  0  0  0
  -30.9036  -15.1498   23.7414 C   0  0  0  0  0  0
  -31.3290  -16.4329   23.0047 C   0  0  0  0  0  0
  -30.1663  -17.1985   22.3245 C   0  0  0  0  0  0
  -29.6221  -18.5287   20.0563 C   0  0  0  0  0  0
  -29.7177  -16.8821   20.8573 C   0  0  1  0  0  0
  -29.0903  -21.3796   19.7682 N   0  0  0  0  0  0
  -29.0914  -20.0895   20.5194 N   0  0  0  0  0  0
  -31.4642  -13.0130   19.2341 H   0  0  0  0  0  0
  -30.4934  -11.9226   20.1638 H   0  0  0  0  0  0
  -29.9359  -11.7783   17.7053 H   0  0  0  0  0  0
  -29.5705  -13.4872   17.6803 H   0  0  0  0  0  0
  -28.0539  -11.2839   19.1011 H   0  0  0  0  0  0
  -27.4304  -12.3473   17.8637 H   0  0  0  0  0  0
  -27.5308  -14.2474   19.3296 H   0  0  0  0  0  0
  -28.8052  -12.5390   21.5179 H   0  0  0  0  0  0
  -28.2649  -14.1919   21.6964 H   0  0  0  0  0  0
  -25.2788   -9.5685   22.4750 H   0  0  0  0  0  0
  -24.0010   -7.4649   22.7474 H   0  0  0  0  0  0
  -21.0868   -8.8785   19.8949 H   0  0  0  0  0  0
  -22.3732  -10.9672   19.6150 H   0  0  0  0  0  0
  -21.2030   -7.6154   23.9711 H   0  0  0  0  0  0
  -21.1476   -6.0526   25.9068 H   0  0  0  0  0  0
  -22.0604   -2.7615   23.2833 H   0  0  0  0  0  0
  -22.4095  -11.9825   22.4790 H   0  0  0  0  0  0
  -21.1057  -13.1162   22.2684 H   0  0  0  0  0  0
  -24.6449  -15.8570   20.5307 H   0  0  0  0  0  0
  -26.2663  -15.6376   20.1105 H   0  0  0  0  0  0
  -26.7395  -32.5090   23.0859 H   0  0  0  0  0  0
  -25.0108  -33.9454   25.0184 H   0  0  0  0  0  0
  -22.7991  -31.2642   21.3427 H   0  0  0  0  0  0
  -23.3763  -35.9487   23.3280 H   0  0  0  0  0  0
  -24.3567  -36.8849   22.2070 H   0  0  0  0  0  0
  -23.7228  -37.6346   23.6726 H   0  0  0  0  0  0
  -26.2447  -31.3522   20.6289 H   0  0  0  0  0  0
  -26.9117  -30.6680   22.0667 H   0  0  0  0  0  0
  -28.1357  -28.5459   21.3182 H   0  0  0  0  0  0
  -25.8691  -25.7414   18.9575 H   0  0  0  0  0  0
  -24.0181  -27.2781   18.9177 H   0  0  0  0  0  0
  -23.8878  -30.5163   19.3852 H   0  0  0  0  0  0
  -22.8360  -29.2041   19.8190 H   0  0  0  0  0  0
  -25.1340  -36.1718   25.0787 H   0  0  0  0  0  0
  -21.0060  -28.3369   24.1298 H   0  0  0  0  0  0
  -20.5697  -26.2383   23.3644 H   0  0  0  0  0  0
  -21.6674  -26.7422   22.1205 H   0  0  0  0  0  0
  -19.6935  -25.6285   21.1283 H   0  0  0  0  0  0
  -19.6718  -27.3177   20.6733 H   0  0  0  0  0  0
  -17.4236  -26.6713   21.4017 H   0  0  0  0  0  0
  -18.0337  -26.0114   22.9031 H   0  0  0  0  0  0
  -19.7984  -30.7343   24.2182 H   0  0  0  0  0  0
  -17.5055  -31.6286   24.5176 H   0  0  0  0  0  0
  -15.5386  -30.2989   23.7716 H   0  0  0  0  0  0
  -15.8715  -28.0830   22.7109 H   0  0  0  0  0  0
  -24.5889  -30.7122   25.7652 H   0  0  0  0  0  0
  -24.8845  -32.3008   26.4602 H   0  0  0  0  0  0
  -25.7905  -30.9082   27.0217 H   0  0  0  0  0  0
  -26.3155  -29.6541   24.1456 H   0  0  0  0  0  0
  -27.3978  -29.7281   25.5139 H   0  0  0  0  0  0
  -27.9114  -30.4056   23.9914 H   0  0  0  0  0  0
  -27.2613  -33.3703   26.1919 H   0  0  0  0  0  0
  -28.3942  -32.6811   25.0385 H   0  0  0  0  0  0
  -28.0621  -31.8571   26.5536 H   0  0  0  0  0  0
  -28.2569  -38.0057   24.7525 H   0  0  0  0  0  0
  -28.1064  -36.2583   24.6295 H   0  0  0  0  0  0
  -27.2282  -37.1390   25.8880 H   0  0  0  0  0  0
  -20.9597  -29.8702   21.6618 H   0  0  0  0  0  0
  -26.0092  -38.2741   24.1443 H   0  0  0  0  0  0
  -27.6662  -22.4735   22.4578 H   0  0  0  0  0  0
  -27.2196  -20.0641   23.3493 H   0  0  0  0  0  0
  -28.8695  -19.4713   23.4633 H   0  0  0  0  0  0
  -27.7007  -18.6928   22.3733 H   0  0  0  0  0  0
  -31.7519  -13.5588   24.9582 H   0  0  0  0  0  0
  -32.6022  -15.0933   25.1126 H   0  0  0  0  0  0
  -32.8148  -14.1076   23.6658 H   0  0  0  0  0  0
  -27.0036  -24.0582   19.6364 H   0  0  0  0  0  0
  -28.4753  -24.2287   18.7966 H   0  0  0  0  0  0
  -30.1605  -15.3955   24.5018 H   0  0  0  0  0  0
  -30.4184  -14.4522   23.0620 H   0  0  0  0  0  0
  -32.1488  -16.2463   22.3115 H   0  0  0  0  0  0
  -31.7604  -17.0981   23.7538 H   0  0  0  0  0  0
  -30.4848  -18.2406   22.3401 H   0  0  0  0  0  0
  -29.3000  -17.1556   22.9837 H   0  0  0  0  0  0
  -29.0875  -18.3354   19.1262 H   0  0  0  0  0  0
  -30.6438  -18.7022   19.7191 H   0  0  0  0  0  0
  -28.6660  -16.6058   20.9358 H   0  0  0  0  0  0
  1 25  1  0  0  0
  1 30  2  0  0  0
  1 81  1  0  0  0
  2  3  1  0  0  0
  2 25  1  0  0  0
  2 84  1  0  0  0
  2 85  1  0  0  0
  3  4  1  0  0  0
  3 86  1  0  0  0
  3 87  1  0  0  0
  4  5  1  0  0  0
  4 88  1  0  0  0
  4 89  1  0  0  0
  5  6  1  0  0  0
  5 26  1  0  0  0
  5 90  1  0  0  0
  6 25  1  0  0  0
  6 91  1  0  0  0
  6 92  1  0  0  0
  7  8  2  0  0  0
  7 26  1  0  0  0
  7 29  1  0  0  0
  8  9  1  0  0  0
  8 22  1  0  0  0
  9 10  1  0  0  0
  9 27  2  0  0  0
 10 11  2  0  0  0
 10 15  1  0  0  0
 11 12  1  0  0  0
 11 93  1  0  0  0
 12 13  2  0  0  0
 12 94  1  0  0  0
 13 14  1  0  0  0
 13 31  1  0  0  0
 14 15  2  0  0  0
 14 95  1  0  0  0
 15 96  1  0  0  0
 16 17  2  0  0  0
 16 21  1  0  0  0
 16 31  1  0  0  0
 17 18  1  0  0  0
 17 97  1  0  0  0
 18 19  2  0  0  0
 18 98  1  0  0  0
 19 20  1  0  0  0
 19 24  1  0  0  0
 20 21  2  0  0  0
 20 99  1  0  0  0
 21 23  1  0  0  0
 22 28  1  0  0  0
 22 32  2  0  0  0
 26 27  1  0  0  0
 28100  1  0  0  0
 28101  1  0  0  0
 29102  1  0  0  0
 29103  1  0  0  0
 33 34  1  0  0  0
 33 66  1  0  0  0
 33 70  2  0  0  0
 34 36  1  0  0  0
 34 59  1  0  0  0
 34104  1  0  0  0
 35 44  2  0  0  0
 35 45  1  0  0  0
 35 68  1  0  0  0
 36 56  1  0  0  0
 36105  1  0  0  0
 37 39  1  0  0  0
 37 47  1  0  0  0
 37 66  1  0  0  0
 37106  1  0  0  0
 38 43  2  0  0  0
 38 46  1  0  0  0
 38 47  1  0  0  0
 39 64  1  0  0  0
 39 67  2  0  0  0
 40 52  1  0  0  0
 40 53  2  0  0  0
 40 58  1  0  0  0
 41107  1  0  0  0
 41108  1  0  0  0
 41109  1  0  0  0
 41 48  1  0  0  0
 42 43  1  0  0  0
 42 66  1  0  0  0
 42110  1  0  0  0
 42111  1  0  0  0
 43 44  1  0  0  0
 44112  1  0  0  0
 45 46  2  0  0  0
 45113  1  0  0  0
 46114  1  0  0  0
 47115  1  0  0  0
 47116  1  0  0  0
 48 56  1  0  0  0
 48 65  1  0  0  0
 48117  1  0  0  0
 49 50  1  0  0  0
 49 53  1  0  0  0
 49 64  1  0  0  0
 49118  1  0  0  0
 50 51  1  0  0  0
 50119  1  0  0  0
 50120  1  0  0  0
 51 52  1  0  0  0
 51121  1  0  0  0
 51122  1  0  0  0
 52123  1  0  0  0
 52124  1  0  0  0
 53 54  1  0  0  0
 54 55  2  0  0  0
 54125  1  0  0  0
 55 57  1  0  0  0
 55126  1  0  0  0
 56 69  2  0  0  0
 57 58  2  0  0  0
 57127  1  0  0  0
 58128  1  0  0  0
 59 60  1  0  0  0
 59 61  1  0  0  0
 59 62  1  0  0  0
 60129  1  0  0  0
 60130  1  0  0  0
 60131  1  0  0  0
 61132  1  0  0  0
 61133  1  0  0  0
 61134  1  0  0  0
 62135  1  0  0  0
 62136  1  0  0  0
 62137  1  0  0  0
 63 65  1  0  0  0
 63138  1  0  0  0
 63139  1  0  0  0
 63140  1  0  0  0
 64141  1  0  0  0
 65142  1  0  0  0
 68 76  1  0  0  0
 71 72  1  0  0  0
 71 73  2  0  0  0
 71143  1  0  0  0
 72 76  1  0  0  0
 72 82  2  0  0  0
 73 74  1  0  0  0
 73 83  1  0  0  0
 74144  1  0  0  0
 74145  1  0  0  0
 74146  1  0  0  0
 75 77  1  0  0  0
 75147  1  0  0  0
 75148  1  0  0  0
 75149  1  0  0  0
 76150  1  0  0  0
 76151  1  0  0  0
 77 78  1  0  0  0
 77152  1  0  0  0
 77153  1  0  0  0
 78 79  1  0  0  0
 78154  1  0  0  0
 78155  1  0  0  0
 79156  1  0  0  0
 79157  1  0  0  0
 79 81  1  0  0  0
 80 81  1  0  0  0
 80 83  1  0  0  0
 80158  1  0  0  0
 80159  1  0  0  0
 81160  1  0  0  0
 82 83  1  0  0  0
M  ISO  4   1 100  68 101  76 101  81 100
M  END
> <chiral flag>
0

> <version>
0

> <s_m_source_file>
/data/baiqing/PycharmProjects/Reinvent-master-3.2/result/LINK_invent/BTK/process_docking_weight1_custom_sum_contain_oxygen_bond_distance_aromatic_linkinvent_7_9_3/rearranged_h_0048.sdf

> <i_m_source_file_index>
86

> <r_mmod_Potential_Energy-OPLS-2005>
1508.61193847656

> <r_mmod_Stretch_Energy-OPLS-2005>
681.54931640625

> <r_mmod_Bend_Energy-OPLS-2005>
506.033020019531

> <r_mmod_Torsional_Energy-OPLS-2005>
205.891677856445

> <r_mmod_Improper_Torsional_Energy-OPLS-2005>
4.00198459625244

> <r_mmod_Van_der_Waal_Energy-OPLS-2005>
109.23844909668

> <r_mmod_Electrostatic_Energy-OPLS-2005>
-304.436431884766

> <r_mmod_Solvation_Energy-OPLS-2005>
-204.020950317383

> <b_mmod_Minimization_Converged-OPLS-2005>
0

> <r_mmod_RMS_Derivative-OPLS-2005>
1.38059794902802

$$$$
87
                    3D
 Structure written by MMmdl.
171179  0  0  1  0            999 V2000
  -30.7181  -14.3923   20.7109 C   0  0  0  0  0  0
  -30.4343  -12.3138   19.3923 C   0  0  0  0  0  0
  -29.4920  -12.5354   18.1922 C   0  0  0  0  0  0
  -28.0140  -12.3750   18.6028 C   0  0  0  0  0  0
  -27.6645  -13.1899   19.8742 C   0  0  2  0  0  0
  -28.6958  -12.9065   20.9842 C   0  0  0  0  0  0
  -25.2588  -13.8145   20.5630 C   0  0  0  0  0  0
  -24.1821  -13.0432   20.9145 C   0  0  0  0  0  0
  -24.6360  -11.6900   20.8718 C   0  0  0  0  0  0
  -23.9030  -10.4297   21.0406 C   0  0  0  0  0  0
  -24.3601   -9.4222   21.9182 C   0  0  0  0  0  0
  -23.6293   -8.2243   22.0762 C   0  0  0  0  0  0
  -22.4276   -8.0271   21.3550 C   0  0  0  0  0  0
  -21.9895   -9.0248   20.4656 C   0  0  0  0  0  0
  -22.7207  -10.2131   20.3059 C   0  0  0  0  0  0
  -21.6850   -6.0728   22.5280 C   0  0  0  0  0  0
  -21.4009   -6.5639   23.8208 C   0  0  0  0  0  0
  -21.3661   -5.6788   24.9177 C   0  0  0  0  0  0
  -21.6039   -4.3046   24.7233 C   0  0  0  0  0  0
  -21.8820   -3.8142   23.4350 C   0  0  0  0  0  0
  -21.9188   -4.6958   22.3406 C   0  0  0  0  0  0
  -22.7848  -13.5249   21.1822 C   0  0  0  0  0  0
  -22.1635   -4.2140   21.0983 F   0  0  0  0  0  0
  -21.5679   -3.4523   25.7750 F   0  0  0  0  0  0
  -30.0394  -13.2365   20.4686 N   0  0  0  0  0  0
  -26.3011  -12.9269   20.3314 N   0  0  0  0  0  0
  -25.9262  -11.6445   20.5689 N   0  0  0  0  0  0
  -22.0488  -12.8248   22.0398 N   0  0  0  0  0  0
  -25.4336  -15.1850   20.4042 N   0  0  0  0  0  0
  -31.7368  -14.7182   20.0881 O   0  0  0  0  0  0
  -21.6646   -6.8872   21.4234 O   0  0  0  0  0  0
  -22.3538  -14.5553   20.6672 O   0  0  0  0  0  0
  -24.6118  -31.8689   23.2115 C   0  0  0  0  0  0
  -25.9029  -32.4821   23.8389 C   0  0  1  0  0  0
  -27.2417  -27.4534   20.0809 C   0  0  0  0  0  0
  -25.5900  -33.8618   24.2325 N   0  0  0  0  0  0
  -23.3965  -30.4925   21.5527 C   0  0  2  0  0  0
  -24.8402  -28.9528   20.1203 C   0  0  0  0  0  0
  -22.7375  -29.4682   22.5032 C   0  0  0  0  0  0
  -18.0268  -28.1360   22.8522 C   0  0  0  0  0  0
  -24.1471  -36.7310   23.2634 C   0  0  0  0  0  0
  -25.9231  -30.8355   21.3618 C   0  0  0  0  0  0
  -25.9975  -29.4702   20.7121 C   0  0  0  0  0  0
  -27.1950  -28.7253   20.6932 C   0  0  0  0  0  0
  -26.0587  -26.9354   19.5024 C   0  0  0  0  0  0
  -24.8633  -27.6815   19.5196 C   0  0  0  0  0  0
  -23.6001  -29.8177   20.1697 C   0  0  0  0  0  0
  -25.4096  -36.3100   24.0333 C   0  0  1  0  0  0
  -20.5854  -28.3648   23.1335 C   0  0  2  0  0  0
  -20.6752  -26.9394   22.5416 C   0  0  0  0  0  0
  -19.5728  -26.6385   21.5210 C   0  0  0  0  0  0
  -18.1907  -26.7914   22.1630 C   0  0  0  0  0  0
  -19.1512  -28.8822   23.2923 C   0  0  0  0  0  0
  -18.9437  -30.1443   23.8905 C   0  0  0  0  0  0
  -17.6444  -30.6587   24.0566 C   0  0  0  0  0  0
  -25.9030  -34.9469   23.5120 C   0  0  0  0  0  0
  -16.5338  -29.9091   23.6333 C   0  0  0  0  0  0
  -16.7258  -28.6500   23.0366 C   0  0  0  0  0  0
  -26.4459  -31.6609   25.0718 C   0  0  0  0  0  0
  -25.3738  -31.3727   26.1479 C   0  0  0  0  0  0
  -27.0320  -30.3057   24.6119 C   0  0  0  0  0  0
  -27.6019  -32.4347   25.7485 C   0  0  0  0  0  0
  -27.5585  -37.1789   24.8466 C   0  0  0  0  0  0
  -21.4106  -29.3029   22.3748 N   0  0  0  0  0  0
  -26.4285  -37.3787   23.9419 N   0  0  0  0  0  0
  -24.6618  -31.0808   22.1000 N   0  0  0  0  0  0
  -23.4163  -28.8254   23.3080 O   0  0  0  0  0  0
  -28.4526  -26.7930   20.0805 O   0  0  0  0  0  0
  -26.5598  -34.8929   22.4685 O   0  0  0  0  0  0
  -23.5314  -32.1437   23.7524 O   0  0  0  0  0  0
  -29.7996  -18.1035   23.1791 C   0  0  0  0  0  0
  -29.6700  -17.6648   21.8321 C   0  0  0  0  0  0
  -30.0865  -19.4357   23.0966 C   0  0  0  0  0  0
  -31.8046  -20.4182   24.6770 C   0  0  0  0  0  0
  -31.9712  -14.9718   25.0861 C   0  0  0  0  0  0
  -29.2865  -16.2939   21.3135 C   0  0  0  0  0  0
  -30.3458  -20.4048   24.2075 C   0  0  0  0  0  0
  -31.7770  -15.2933   23.5998 C   0  0  0  0  0  0
  -29.4112  -23.2603   20.2114 C   0  0  0  0  0  0
  -29.1291  -21.9811   21.0352 C   0  0  0  0  0  0
  -28.2943  -24.3309   20.2423 C   0  0  0  0  0  0
  -30.3600  -21.0472   21.1043 C   0  0  0  0  0  0
  -30.3885  -14.8699   23.0939 C   0  0  0  0  0  0
  -28.6196  -25.5658   19.3687 C   0  0  0  0  0  0
  -29.8519  -18.6686   20.9831 N   0  0  0  0  0  0
  -30.0994  -19.7618   21.7503 N   0  0  0  0  0  0
  -30.1832  -15.1809   21.6720 N   0  0  0  0  0  0
  -31.4724  -12.4592   19.0836 H   0  0  0  0  0  0
  -30.3702  -11.2822   19.7430 H   0  0  0  0  0  0
  -29.7356  -11.8359   17.3909 H   0  0  0  0  0  0
  -29.6546  -13.5351   17.7855 H   0  0  0  0  0  0
  -27.8317  -11.3154   18.7849 H   0  0  0  0  0  0
  -27.3600  -12.6580   17.7768 H   0  0  0  0  0  0
  -27.7301  -14.2446   19.6087 H   0  0  0  0  0  0
  -28.6681  -11.8516   21.2623 H   0  0  0  0  0  0
  -28.4163  -13.4402   21.8909 H   0  0  0  0  0  0
  -25.2758   -9.5697   22.4728 H   0  0  0  0  0  0
  -24.0021   -7.4633   22.7460 H   0  0  0  0  0  0
  -21.0841   -8.8730   19.8964 H   0  0  0  0  0  0
  -22.3656  -10.9653   19.6148 H   0  0  0  0  0  0
  -21.1965   -7.6142   23.9715 H   0  0  0  0  0  0
  -21.1499   -6.0519   25.9077 H   0  0  0  0  0  0
  -22.0592   -2.7605   23.2853 H   0  0  0  0  0  0
  -22.4118  -11.9928   22.4799 H   0  0  0  0  0  0
  -21.1096  -13.1253   22.2615 H   0  0  0  0  0  0
  -24.6691  -15.8428   20.5163 H   0  0  0  0  0  0
  -26.2807  -15.6207   20.0630 H   0  0  0  0  0  0
  -26.7100  -32.5534   23.1154 H   0  0  0  0  0  0
  -25.0064  -33.9787   25.0477 H   0  0  0  0  0  0
  -22.6821  -31.3068   21.4130 H   0  0  0  0  0  0
  -23.3744  -35.9636   23.3277 H   0  0  0  0  0  0
  -24.3556  -36.8953   22.2054 H   0  0  0  0  0  0
  -23.7213  -37.6498   23.6670 H   0  0  0  0  0  0
  -26.0307  -31.5997   20.5910 H   0  0  0  0  0  0
  -26.8118  -30.8884   21.9795 H   0  0  0  0  0  0
  -28.0928  -29.1283   21.1390 H   0  0  0  0  0  0
  -26.0384  -25.9596   19.0385 H   0  0  0  0  0  0
  -23.9693  -27.2729   19.0681 H   0  0  0  0  0  0
  -23.6987  -30.5874   19.4033 H   0  0  0  0  0  0
  -22.7246  -29.2300   19.8862 H   0  0  0  0  0  0
  -25.1259  -36.1947   25.0828 H   0  0  0  0  0  0
  -20.9935  -28.3208   24.1461 H   0  0  0  0  0  0
  -20.5647  -26.2260   23.3596 H   0  0  0  0  0  0
  -21.6625  -26.7439   22.1209 H   0  0  0  0  0  0
  -19.6885  -25.6294   21.1243 H   0  0  0  0  0  0
  -19.6674  -27.3194   20.6738 H   0  0  0  0  0  0
  -17.4175  -26.6686   21.4029 H   0  0  0  0  0  0
  -18.0316  -26.0039   22.9007 H   0  0  0  0  0  0
  -19.7906  -30.7267   24.2266 H   0  0  0  0  0  0
  -17.4995  -31.6260   24.5179 H   0  0  0  0  0  0
  -15.5335  -30.2987   23.7651 H   0  0  0  0  0  0
  -15.8665  -28.0828   22.7068 H   0  0  0  0  0  0
  -24.5906  -30.7065   25.7841 H   0  0  0  0  0  0
  -24.8934  -32.2895   26.4901 H   0  0  0  0  0  0
  -25.8099  -30.8929   27.0248 H   0  0  0  0  0  0
  -26.2888  -29.6783   24.1187 H   0  0  0  0  0  0
  -27.4106  -29.7317   25.4584 H   0  0  0  0  0  0
  -27.8695  -30.4376   23.9268 H   0  0  0  0  0  0
  -27.2625  -33.3660   26.2029 H   0  0  0  0  0  0
  -28.3844  -32.6889   25.0327 H   0  0  0  0  0  0
  -28.0662  -31.8497   26.5431 H   0  0  0  0  0  0
  -28.2569  -38.0114   24.7544 H   0  0  0  0  0  0
  -28.1108  -36.2643   24.6240 H   0  0  0  0  0  0
  -27.2315  -37.1387   25.8870 H   0  0  0  0  0  0
  -20.9247  -29.8753   21.6982 H   0  0  0  0  0  0
  -26.0171  -38.2862   24.1436 H   0  0  0  0  0  0
  -29.6923  -17.5346   24.0890 H   0  0  0  0  0  0
  -31.9334  -21.1023   25.5163 H   0  0  0  0  0  0
  -32.4738  -20.7389   23.8800 H   0  0  0  0  0  0
  -32.1270  -19.4303   25.0072 H   0  0  0  0  0  0
  -32.9855  -15.2116   25.4079 H   0  0  0  0  0  0
  -31.8003  -13.9138   25.2920 H   0  0  0  0  0  0
  -31.2819  -15.5427   25.7095 H   0  0  0  0  0  0
  -29.1611  -16.3322   20.2292 H   0  0  0  0  0  0
  -28.2970  -16.0406   21.6953 H   0  0  0  0  0  0
  -29.7098  -20.1470   25.0544 H   0  0  0  0  0  0
  -30.0512  -21.4106   23.9112 H   0  0  0  0  0  0
  -32.5533  -14.7899   23.0216 H   0  0  0  0  0  0
  -31.9261  -16.3616   23.4455 H   0  0  0  0  0  0
  -29.6063  -22.9767   19.1759 H   0  0  0  0  0  0
  -30.3334  -23.7159   20.5759 H   0  0  0  0  0  0
  -28.2840  -21.4472   20.5972 H   0  0  0  0  0  0
  -28.8284  -22.2552   22.0463 H   0  0  0  0  0  0
  -28.1356  -24.6487   21.2739 H   0  0  0  0  0  0
  -27.3495  -23.8969   19.9106 H   0  0  0  0  0  0
  -31.1722  -21.5434   21.6366 H   0  0  0  0  0  0
  -30.7311  -20.8591   20.0958 H   0  0  0  0  0  0
  -29.6034  -15.3293   23.6941 H   0  0  0  0  0  0
  -30.2685  -13.7976   23.2543 H   0  0  0  0  0  0
  -28.0853  -25.5498   18.4177 H   0  0  0  0  0  0
  -29.6708  -25.5356   19.0821 H   0  0  0  0  0  0
  1 25  1  0  0  0
  1 30  2  0  0  0
  1 87  1  0  0  0
  2  3  1  0  0  0
  2 25  1  0  0  0
  2 88  1  0  0  0
  2 89  1  0  0  0
  3  4  1  0  0  0
  3 90  1  0  0  0
  3 91  1  0  0  0
  4  5  1  0  0  0
  4 92  1  0  0  0
  4 93  1  0  0  0
  5  6  1  0  0  0
  5 26  1  0  0  0
  5 94  1  0  0  0
  6 25  1  0  0  0
  6 95  1  0  0  0
  6 96  1  0  0  0
  7  8  2  0  0  0
  7 26  1  0  0  0
  7 29  1  0  0  0
  8  9  1  0  0  0
  8 22  1  0  0  0
  9 10  1  0  0  0
  9 27  2  0  0  0
 10 11  2  0  0  0
 10 15  1  0  0  0
 11 12  1  0  0  0
 11 97  1  0  0  0
 12 13  2  0  0  0
 12 98  1  0  0  0
 13 14  1  0  0  0
 13 31  1  0  0  0
 14 15  2  0  0  0
 14 99  1  0  0  0
 15100  1  0  0  0
 16 17  2  0  0  0
 16 21  1  0  0  0
 16 31  1  0  0  0
 17 18  1  0  0  0
 17101  1  0  0  0
 18 19  2  0  0  0
 18102  1  0  0  0
 19 20  1  0  0  0
 19 24  1  0  0  0
 20 21  2  0  0  0
 20103  1  0  0  0
 21 23  1  0  0  0
 22 28  1  0  0  0
 22 32  2  0  0  0
 26 27  1  0  0  0
 28104  1  0  0  0
 28105  1  0  0  0
 29106  1  0  0  0
 29107  1  0  0  0
 33 34  1  0  0  0
 33 66  1  0  0  0
 33 70  2  0  0  0
 34 36  1  0  0  0
 34 59  1  0  0  0
 34108  1  0  0  0
 35 44  2  0  0  0
 35 45  1  0  0  0
 35 68  1  0  0  0
 36 56  1  0  0  0
 36109  1  0  0  0
 37 39  1  0  0  0
 37 47  1  0  0  0
 37 66  1  0  0  0
 37110  1  0  0  0
 38 43  2  0  0  0
 38 46  1  0  0  0
 38 47  1  0  0  0
 39 64  1  0  0  0
 39 67  2  0  0  0
 40 52  1  0  0  0
 40 53  2  0  0  0
 40 58  1  0  0  0
 41111  1  0  0  0
 41112  1  0  0  0
 41113  1  0  0  0
 41 48  1  0  0  0
 42 43  1  0  0  0
 42 66  1  0  0  0
 42114  1  0  0  0
 42115  1  0  0  0
 43 44  1  0  0  0
 44116  1  0  0  0
 45 46  2  0  0  0
 45117  1  0  0  0
 46118  1  0  0  0
 47119  1  0  0  0
 47120  1  0  0  0
 48 56  1  0  0  0
 48 65  1  0  0  0
 48121  1  0  0  0
 49 50  1  0  0  0
 49 53  1  0  0  0
 49 64  1  0  0  0
 49122  1  0  0  0
 50 51  1  0  0  0
 50123  1  0  0  0
 50124  1  0  0  0
 51 52  1  0  0  0
 51125  1  0  0  0
 51126  1  0  0  0
 52127  1  0  0  0
 52128  1  0  0  0
 53 54  1  0  0  0
 54 55  2  0  0  0
 54129  1  0  0  0
 55 57  1  0  0  0
 55130  1  0  0  0
 56 69  2  0  0  0
 57 58  2  0  0  0
 57131  1  0  0  0
 58132  1  0  0  0
 59 60  1  0  0  0
 59 61  1  0  0  0
 59 62  1  0  0  0
 60133  1  0  0  0
 60134  1  0  0  0
 60135  1  0  0  0
 61136  1  0  0  0
 61137  1  0  0  0
 61138  1  0  0  0
 62139  1  0  0  0
 62140  1  0  0  0
 62141  1  0  0  0
 63 65  1  0  0  0
 63142  1  0  0  0
 63143  1  0  0  0
 63144  1  0  0  0
 64145  1  0  0  0
 65146  1  0  0  0
 68 84  1  0  0  0
 71 72  1  0  0  0
 71 73  2  0  0  0
 71147  1  0  0  0
 72 76  1  0  0  0
 72 85  2  0  0  0
 73 77  1  0  0  0
 73 86  1  0  0  0
 74 77  1  0  0  0
 74148  1  0  0  0
 74149  1  0  0  0
 74150  1  0  0  0
 75 78  1  0  0  0
 75151  1  0  0  0
 75152  1  0  0  0
 75153  1  0  0  0
 76 87  1  0  0  0
 76154  1  0  0  0
 76155  1  0  0  0
 77156  1  0  0  0
 77157  1  0  0  0
 78 83  1  0  0  0
 78158  1  0  0  0
 78159  1  0  0  0
 79 80  1  0  0  0
 79 81  1  0  0  0
 79160  1  0  0  0
 79161  1  0  0  0
 80 82  1  0  0  0
 80162  1  0  0  0
 80163  1  0  0  0
 81 84  1  0  0  0
 81164  1  0  0  0
 81165  1  0  0  0
 82 86  1  0  0  0
 82166  1  0  0  0
 82167  1  0  0  0
 83 87  1  0  0  0
 83168  1  0  0  0
 83169  1  0  0  0
 84170  1  0  0  0
 84171  1  0  0  0
 85 86  1  0  0  0
M  ISO  4   1 100  68 101  84 101  87 100
M  END
> <chiral flag>
0

> <version>
0

> <s_m_source_file>
/data/baiqing/PycharmProjects/Reinvent-master-3.2/result/LINK_invent/BTK/process_docking_weight1_custom_sum_contain_oxygen_bond_distance_aromatic_linkinvent_7_9_3/rearranged_h_0048.sdf

> <i_m_source_file_index>
87

> <r_mmod_Potential_Energy-OPLS-2005>
27.0083255767822

> <r_mmod_Stretch_Energy-OPLS-2005>
35.0912933349609

> <r_mmod_Bend_Energy-OPLS-2005>
101.45873260498

> <r_mmod_Torsional_Energy-OPLS-2005>
307.964294433594

> <r_mmod_Improper_Torsional_Energy-OPLS-2005>
2.09058475494385

> <r_mmod_Van_der_Waal_Energy-OPLS-2005>
118.79109954834

> <r_mmod_Electrostatic_Energy-OPLS-2005>
-349.096984863281

> <r_mmod_Solvation_Energy-OPLS-2005>
-199.021347045898

> <b_mmod_Minimization_Converged-OPLS-2005>
0

> <r_mmod_RMS_Derivative-OPLS-2005>
2.65092515945435

$$$$
88
                    3D
 Structure written by MMmdl.
166174  0  0  1  0            999 V2000
  -30.7373  -14.4251   20.6693 C   0  0  0  0  0  0
  -30.4249  -12.3110   19.4069 C   0  0  0  0  0  0
  -29.4856  -12.4858   18.1928 C   0  0  0  0  0  0
  -28.0063  -12.3578   18.6060 C   0  0  0  0  0  0
  -27.6604  -13.1959   19.8635 C   0  0  2  0  0  0
  -28.6948  -12.9443   20.9774 C   0  0  0  0  0  0
  -25.2604  -13.8131   20.5658 C   0  0  0  0  0  0
  -24.1844  -13.0424   20.9167 C   0  0  0  0  0  0
  -24.6382  -11.6888   20.8719 C   0  0  0  0  0  0
  -23.9053  -10.4277   21.0395 C   0  0  0  0  0  0
  -24.3613   -9.4198   21.9179 C   0  0  0  0  0  0
  -23.6293   -8.2231   22.0745 C   0  0  0  0  0  0
  -22.4273   -8.0270   21.3541 C   0  0  0  0  0  0
  -21.9909   -9.0238   20.4640 C   0  0  0  0  0  0
  -22.7228  -10.2120   20.3046 C   0  0  0  0  0  0
  -21.6857   -6.0728   22.5282 C   0  0  0  0  0  0
  -21.4014   -6.5632   23.8213 C   0  0  0  0  0  0
  -21.3658   -5.6786   24.9178 C   0  0  0  0  0  0
  -21.6042   -4.3051   24.7228 C   0  0  0  0  0  0
  -21.8818   -3.8143   23.4347 C   0  0  0  0  0  0
  -21.9196   -4.6957   22.3407 C   0  0  0  0  0  0
  -22.7873  -13.5240   21.1841 C   0  0  0  0  0  0
  -22.1658   -4.2145   21.0981 F   0  0  0  0  0  0
  -21.5642   -3.4534   25.7740 F   0  0  0  0  0  0
  -30.0338  -13.2738   20.4531 N   0  0  0  0  0  0
  -26.3012  -12.9280   20.3292 N   0  0  0  0  0  0
  -25.9300  -11.6454   20.5726 N   0  0  0  0  0  0
  -22.0512  -12.8231   22.0393 N   0  0  0  0  0  0
  -25.4367  -15.1841   20.4070 N   0  0  0  0  0  0
  -31.8185  -14.6470   20.1147 O   0  0  0  0  0  0
  -21.6649   -6.8860   21.4232 O   0  0  0  0  0  0
  -22.3561  -14.5553   20.6685 O   0  0  0  0  0  0
  -24.6139  -31.8685   23.2126 C   0  0  0  0  0  0
  -25.9033  -32.4820   23.8418 C   0  0  1  0  0  0
  -27.2343  -27.4491   20.0979 C   0  0  0  0  0  0
  -25.5907  -33.8623   24.2356 N   0  0  0  0  0  0
  -23.4013  -30.4932   21.5511 C   0  0  2  0  0  0
  -24.8469  -28.9581   20.1189 C   0  0  0  0  0  0
  -22.7395  -29.4680   22.4994 C   0  0  0  0  0  0
  -18.0270  -28.1390   22.8483 C   0  0  0  0  0  0
  -24.1486  -36.7308   23.2646 C   0  0  0  0  0  0
  -25.9284  -30.8366   21.3658 C   0  0  0  0  0  0
  -26.0063  -29.4726   20.7140 C   0  0  0  0  0  0
  -27.2047  -28.7257   20.6996 C   0  0  0  0  0  0
  -26.0604  -26.9432   19.5009 C   0  0  0  0  0  0
  -24.8681  -27.6897   19.5113 C   0  0  0  0  0  0
  -23.6084  -29.8233   20.1664 C   0  0  0  0  0  0
  -25.4107  -36.3113   24.0351 C   0  0  1  0  0  0
  -20.5854  -28.3686   23.1304 C   0  0  2  0  0  0
  -20.6764  -26.9424   22.5412 C   0  0  0  0  0  0
  -19.5740  -26.6394   21.5206 C   0  0  0  0  0  0
  -18.1916  -26.7938   22.1612 C   0  0  0  0  0  0
  -19.1518  -28.8851   23.2894 C   0  0  0  0  0  0
  -18.9450  -30.1455   23.8912 C   0  0  0  0  0  0
  -17.6454  -30.6598   24.0571 C   0  0  0  0  0  0
  -25.9029  -34.9473   23.5144 C   0  0  0  0  0  0
  -16.5339  -29.9096   23.6340 C   0  0  0  0  0  0
  -16.7257  -28.6515   23.0355 C   0  0  0  0  0  0
  -26.4473  -31.6596   25.0739 C   0  0  0  0  0  0
  -25.3768  -31.3650   26.1505 C   0  0  0  0  0  0
  -27.0332  -30.3054   24.6103 C   0  0  0  0  0  0
  -27.6057  -32.4332   25.7477 C   0  0  0  0  0  0
  -27.5583  -37.1803   24.8467 C   0  0  0  0  0  0
  -21.4127  -29.3054   22.3712 N   0  0  0  0  0  0
  -26.4287  -37.3799   23.9420 N   0  0  0  0  0  0
  -24.6657  -31.0797   22.1020 N   0  0  0  0  0  0
  -23.4164  -28.8239   23.3051 O   0  0  0  0  0  0
  -28.3970  -26.7168   20.0721 O   0  0  0  0  0  0
  -26.5576  -34.8914   22.4693 O   0  0  0  0  0  0
  -23.5332  -32.1434   23.7528 O   0  0  0  0  0  0
  -27.6568  -22.7113   18.7311 C   0  0  0  0  0  0
  -29.6568  -23.3774   20.4142 C   0  0  0  0  0  0
  -28.7762  -21.8635   18.9146 C   0  0  0  0  0  0
  -28.5495  -24.2392   20.2070 C   0  0  0  0  0  0
  -29.7706  -16.4634   18.3461 C   0  0  0  0  0  0
  -29.8823  -15.2889   22.7783 C   0  0  0  0  0  0
  -31.5182  -19.3003   18.5834 C   0  0  0  0  0  0
  -28.9365  -20.6221   18.0481 C   0  0  0  0  0  0
  -28.4190  -25.5728   20.9406 C   0  0  0  0  0  0
  -30.0089  -16.8503   20.9230 C   0  0  0  0  0  0
  -28.9961  -19.2459   18.7628 C   0  0  0  0  0  0
  -30.4381  -17.2720   19.4853 C   0  0  2  0  0  0
  -29.7827  -22.1897   19.7637 N   0  0  0  0  0  0
  -27.5384  -23.8958   19.3714 N   0  0  0  0  0  0
  -30.0786  -15.4170   21.3261 N   0  0  0  0  0  0
  -30.3243  -18.7651   19.2912 N   0  3  1  0  0  0
  -31.4649  -12.4255   19.0982 H   0  0  0  0  0  0
  -30.3483  -11.2946   19.7965 H   0  0  0  0  0  0
  -29.7218  -11.7427   17.4296 H   0  0  0  0  0  0
  -29.6508  -13.4492   17.7169 H   0  0  0  0  0  0
  -27.8120  -11.3018   18.7998 H   0  0  0  0  0  0
  -27.3556  -12.6348   17.7748 H   0  0  0  0  0  0
  -27.7163  -14.2469   19.5798 H   0  0  0  0  0  0
  -28.6753  -11.8956   21.2773 H   0  0  0  0  0  0
  -28.4062  -13.4934   21.8687 H   0  0  0  0  0  0
  -25.2746   -9.5693   22.4763 H   0  0  0  0  0  0
  -24.0012   -7.4626   22.7455 H   0  0  0  0  0  0
  -21.0849   -8.8734   19.8944 H   0  0  0  0  0  0
  -22.3667  -10.9656   19.6157 H   0  0  0  0  0  0
  -21.1991   -7.6137   23.9718 H   0  0  0  0  0  0
  -21.1489   -6.0517   25.9084 H   0  0  0  0  0  0
  -22.0602   -2.7605   23.2855 H   0  0  0  0  0  0
  -22.4114  -11.9887   22.4783 H   0  0  0  0  0  0
  -21.1111  -13.1229   22.2553 H   0  0  0  0  0  0
  -24.6754  -15.8441   20.5209 H   0  0  0  0  0  0
  -26.3008  -15.6225   20.1159 H   0  0  0  0  0  0
  -26.7100  -32.5532   23.1183 H   0  0  0  0  0  0
  -25.0116  -33.9792   25.0535 H   0  0  0  0  0  0
  -22.6917  -31.3107   21.4109 H   0  0  0  0  0  0
  -23.3751  -35.9636   23.3305 H   0  0  0  0  0  0
  -24.3588  -36.8927   22.2063 H   0  0  0  0  0  0
  -23.7227  -37.6510   23.6650 H   0  0  0  0  0  0
  -26.0437  -31.6031   20.5992 H   0  0  0  0  0  0
  -26.8156  -30.8863   21.9851 H   0  0  0  0  0  0
  -28.1034  -29.1212   21.1518 H   0  0  0  0  0  0
  -26.0672  -25.9769   19.0198 H   0  0  0  0  0  0
  -23.9781  -27.2871   19.0473 H   0  0  0  0  0  0
  -23.7166  -30.5975   19.4062 H   0  0  0  0  0  0
  -22.7331  -29.2423   19.8710 H   0  0  0  0  0  0
  -25.1279  -36.1985   25.0843 H   0  0  0  0  0  0
  -20.9937  -28.3253   24.1424 H   0  0  0  0  0  0
  -20.5675  -26.2297   23.3606 H   0  0  0  0  0  0
  -21.6633  -26.7476   22.1194 H   0  0  0  0  0  0
  -19.6910  -25.6307   21.1239 H   0  0  0  0  0  0
  -19.6683  -27.3203   20.6739 H   0  0  0  0  0  0
  -17.4194  -26.6699   21.4009 H   0  0  0  0  0  0
  -18.0311  -26.0067   22.8998 H   0  0  0  0  0  0
  -19.7931  -30.7265   24.2283 H   0  0  0  0  0  0
  -17.5017  -31.6280   24.5173 H   0  0  0  0  0  0
  -15.5351  -30.3012   23.7667 H   0  0  0  0  0  0
  -15.8646  -28.0846   22.7071 H   0  0  0  0  0  0
  -24.5963  -30.6966   25.7843 H   0  0  0  0  0  0
  -24.8930  -32.2777   26.5002 H   0  0  0  0  0  0
  -25.8171  -30.8804   27.0231 H   0  0  0  0  0  0
  -26.2869  -29.6776   24.1225 H   0  0  0  0  0  0
  -27.4196  -29.7329   25.4545 H   0  0  0  0  0  0
  -27.8653  -30.4397   23.9191 H   0  0  0  0  0  0
  -27.2683  -33.3636   26.2056 H   0  0  0  0  0  0
  -28.3843  -32.6900   25.0281 H   0  0  0  0  0  0
  -28.0745  -31.8469   26.5387 H   0  0  0  0  0  0
  -28.2589  -38.0116   24.7545 H   0  0  0  0  0  0
  -28.1101  -36.2652   24.6254 H   0  0  0  0  0  0
  -27.2305  -37.1403   25.8872 H   0  0  0  0  0  0
  -20.9297  -29.8752   21.6903 H   0  0  0  0  0  0
  -26.0184  -38.2877   24.1431 H   0  0  0  0  0  0
  -26.8668  -22.4611   18.0357 H   0  0  0  0  0  0
  -30.4509  -23.6425   21.0971 H   0  0  0  0  0  0
  -30.1346  -15.4463   18.2986 H   0  0  0  0  0  0
  -30.0052  -16.8878   17.3687 H   0  0  0  0  0  0
  -28.6866  -16.4154   18.4509 H   0  0  0  0  0  0
  -28.8513  -15.5253   23.0448 H   0  0  0  0  0  0
  -30.5314  -15.9711   23.3276 H   0  0  0  0  0  0
  -30.1041  -14.2872   23.1528 H   0  0  0  0  0  0
  -31.5578  -20.3881   18.6090 H   0  0  0  0  0  0
  -31.5434  -18.9736   17.5434 H   0  0  0  0  0  0
  -32.4414  -18.9683   19.0609 H   0  0  0  0  0  0
  -29.7537  -20.7655   17.3448 H   0  0  0  0  0  0
  -28.0575  -20.5893   17.4028 H   0  0  0  0  0  0
  -29.2656  -25.6884   21.6174 H   0  0  0  0  0  0
  -27.5365  -25.5277   21.5822 H   0  0  0  0  0  0
  -28.9757  -17.1664   21.0779 H   0  0  0  0  0  0
  -30.6055  -17.4336   21.6275 H   0  0  0  0  0  0
  -28.6358  -18.5753   17.9897 H   0  0  0  0  0  0
  -28.2472  -19.1916   19.5544 H   0  0  0  0  0  0
  -31.5011  -17.0350   19.4337 H   0  0  0  0  0  0
  -30.4055  -19.1748   20.2121 H   0  0  0  0  0  0
  1 25  1  0  0  0
  1 30  2  0  0  0
  1 85  1  0  0  0
  2  3  1  0  0  0
  2 25  1  0  0  0
  2 87  1  0  0  0
  2 88  1  0  0  0
  3  4  1  0  0  0
  3 89  1  0  0  0
  3 90  1  0  0  0
  4  5  1  0  0  0
  4 91  1  0  0  0
  4 92  1  0  0  0
  5  6  1  0  0  0
  5 26  1  0  0  0
  5 93  1  0  0  0
  6 25  1  0  0  0
  6 94  1  0  0  0
  6 95  1  0  0  0
  7  8  2  0  0  0
  7 26  1  0  0  0
  7 29  1  0  0  0
  8  9  1  0  0  0
  8 22  1  0  0  0
  9 10  1  0  0  0
  9 27  2  0  0  0
 10 11  2  0  0  0
 10 15  1  0  0  0
 11 12  1  0  0  0
 11 96  1  0  0  0
 12 13  2  0  0  0
 12 97  1  0  0  0
 13 14  1  0  0  0
 13 31  1  0  0  0
 14 15  2  0  0  0
 14 98  1  0  0  0
 15 99  1  0  0  0
 16 17  2  0  0  0
 16 21  1  0  0  0
 16 31  1  0  0  0
 17 18  1  0  0  0
 17100  1  0  0  0
 18 19  2  0  0  0
 18101  1  0  0  0
 19 20  1  0  0  0
 19 24  1  0  0  0
 20 21  2  0  0  0
 20102  1  0  0  0
 21 23  1  0  0  0
 22 28  1  0  0  0
 22 32  2  0  0  0
 26 27  1  0  0  0
 28103  1  0  0  0
 28104  1  0  0  0
 29105  1  0  0  0
 29106  1  0  0  0
 33 34  1  0  0  0
 33 66  1  0  0  0
 33 70  2  0  0  0
 34 36  1  0  0  0
 34 59  1  0  0  0
 34107  1  0  0  0
 35 44  2  0  0  0
 35 45  1  0  0  0
 35 68  1  0  0  0
 36 56  1  0  0  0
 36108  1  0  0  0
 37 39  1  0  0  0
 37 47  1  0  0  0
 37 66  1  0  0  0
 37109  1  0  0  0
 38 43  2  0  0  0
 38 46  1  0  0  0
 38 47  1  0  0  0
 39 64  1  0  0  0
 39 67  2  0  0  0
 40 52  1  0  0  0
 40 53  2  0  0  0
 40 58  1  0  0  0
 41110  1  0  0  0
 41111  1  0  0  0
 41112  1  0  0  0
 41 48  1  0  0  0
 42 43  1  0  0  0
 42 66  1  0  0  0
 42113  1  0  0  0
 42114  1  0  0  0
 43 44  1  0  0  0
 44115  1  0  0  0
 45 46  2  0  0  0
 45116  1  0  0  0
 46117  1  0  0  0
 47118  1  0  0  0
 47119  1  0  0  0
 48 56  1  0  0  0
 48 65  1  0  0  0
 48120  1  0  0  0
 49 50  1  0  0  0
 49 53  1  0  0  0
 49 64  1  0  0  0
 49121  1  0  0  0
 50 51  1  0  0  0
 50122  1  0  0  0
 50123  1  0  0  0
 51 52  1  0  0  0
 51124  1  0  0  0
 51125  1  0  0  0
 52126  1  0  0  0
 52127  1  0  0  0
 53 54  1  0  0  0
 54 55  2  0  0  0
 54128  1  0  0  0
 55 57  1  0  0  0
 55129  1  0  0  0
 56 69  2  0  0  0
 57 58  2  0  0  0
 57130  1  0  0  0
 58131  1  0  0  0
 59 60  1  0  0  0
 59 61  1  0  0  0
 59 62  1  0  0  0
 60132  1  0  0  0
 60133  1  0  0  0
 60134  1  0  0  0
 61135  1  0  0  0
 61136  1  0  0  0
 61137  1  0  0  0
 62138  1  0  0  0
 62139  1  0  0  0
 62140  1  0  0  0
 63 65  1  0  0  0
 63141  1  0  0  0
 63142  1  0  0  0
 63143  1  0  0  0
 64144  1  0  0  0
 65145  1  0  0  0
 68 79  1  0  0  0
 71 73  2  0  0  0
 71 84  1  0  0  0
 71146  1  0  0  0
 72 74  1  0  0  0
 72 83  2  0  0  0
 72147  1  0  0  0
 73 78  1  0  0  0
 73 83  1  0  0  0
 74 79  1  0  0  0
 74 84  2  0  0  0
 75148  1  0  0  0
 75149  1  0  0  0
 75150  1  0  0  0
 75 82  1  0  0  0
 76 85  1  0  0  0
 76151  1  0  0  0
 76152  1  0  0  0
 76153  1  0  0  0
 77154  1  0  0  0
 77155  1  0  0  0
 77156  1  0  0  0
 77 86  1  0  0  0
 78 81  1  0  0  0
 78157  1  0  0  0
 78158  1  0  0  0
 79159  1  0  0  0
 79160  1  0  0  0
 80 82  1  0  0  0
 80 85  1  0  0  0
 80161  1  0  0  0
 80162  1  0  0  0
 81 86  1  0  0  0
 81163  1  0  0  0
 81164  1  0  0  0
 82 86  1  0  0  0
 82165  1  0  0  0
 86166  1  0  0  0
M  CHG  1  86   1
M  ISO  4   1 100  68 101  79 101  85 100
M  END
> <chiral flag>
0

> <version>
0

> <s_m_source_file>
/data/baiqing/PycharmProjects/Reinvent-master-3.2/result/LINK_invent/BTK/process_docking_weight1_custom_sum_contain_oxygen_bond_distance_aromatic_linkinvent_7_9_3/rearranged_h_0048.sdf

> <i_m_source_file_index>
88

> <r_mmod_Potential_Energy-OPLS-2005>
92.5980453491211

> <r_mmod_Stretch_Energy-OPLS-2005>
46.2755088806152

> <r_mmod_Bend_Energy-OPLS-2005>
125.491500854492

> <r_mmod_Torsional_Energy-OPLS-2005>
319.767211914062

> <r_mmod_Improper_Torsional_Energy-OPLS-2005>
7.29415416717529

> <r_mmod_Van_der_Waal_Energy-OPLS-2005>
177.079925537109

> <r_mmod_Electrostatic_Energy-OPLS-2005>
-167.913665771484

> <r_mmod_Solvation_Energy-OPLS-2005>
-424.613006591797

> <b_mmod_Minimization_Converged-OPLS-2005>
0

> <r_mmod_RMS_Derivative-OPLS-2005>
2.07502007484436

$$$$
89
                    3D
 Structure written by MMmdl.
157165  0  0  1  0            999 V2000
  -30.4166  -15.3072   20.3933 C   0  0  0  0  0  0
  -30.4390  -12.8327   19.5462 C   0  0  0  0  0  0
  -29.5412  -12.6020   18.3015 C   0  0  0  0  0  0
  -28.0886  -12.3125   18.7157 C   0  0  0  0  0  0
  -27.6123  -13.2775   19.8284 C   0  0  2  0  0  0
  -28.6440  -13.4197   20.9674 C   0  0  0  0  0  0
  -25.2304  -13.8197   20.5639 C   0  0  0  0  0  0
  -24.1697  -13.0386   20.9227 C   0  0  0  0  0  0
  -24.6385  -11.6901   20.8743 C   0  0  0  0  0  0
  -23.9088  -10.4265   21.0390 C   0  0  0  0  0  0
  -24.3631   -9.4184   21.9172 C   0  0  0  0  0  0
  -23.6296   -8.2226   22.0754 C   0  0  0  0  0  0
  -22.4280   -8.0262   21.3541 C   0  0  0  0  0  0
  -21.9919   -9.0231   20.4636 C   0  0  0  0  0  0
  -22.7256  -10.2103   20.3040 C   0  0  0  0  0  0
  -21.6845   -6.0724   22.5277 C   0  0  0  0  0  0
  -21.4006   -6.5631   23.8208 C   0  0  0  0  0  0
  -21.3668   -5.6785   24.9176 C   0  0  0  0  0  0
  -21.6048   -4.3049   24.7225 C   0  0  0  0  0  0
  -21.8819   -3.8138   23.4349 C   0  0  0  0  0  0
  -21.9188   -4.6950   22.3403 C   0  0  0  0  0  0
  -22.7718  -13.5141   21.1902 C   0  0  0  0  0  0
  -22.1654   -4.2134   21.0979 F   0  0  0  0  0  0
  -21.5640   -3.4536   25.7745 F   0  0  0  0  0  0
  -29.8786  -13.9742   20.3753 N   0  0  0  0  0  0
  -26.2793  -12.9516   20.3192 N   0  0  0  0  0  0
  -25.9330  -11.6617   20.5715 N   0  0  0  0  0  0
  -22.0403  -12.8115   22.0470 N   0  0  0  0  0  0
  -25.3780  -15.1910   20.3935 N   0  0  0  0  0  0
  -31.6073  -15.2775   20.0420 O   0  0  0  0  0  0
  -21.6636   -6.8865   21.4244 O   0  0  0  0  0  0
  -22.3387  -14.5450   20.6766 O   0  0  0  0  0  0
  -24.6650  -31.8205   23.1677 C   0  0  0  0  0  0
  -25.9329  -32.4561   23.8144 C   0  0  1  0  0  0
  -27.2151  -26.9113   20.1844 C   0  0  0  0  0  0
  -25.6004  -33.8377   24.2055 N   0  0  0  0  0  0
  -23.4802  -30.4337   21.5155 C   0  0  2  0  0  0
  -24.9346  -28.8197   20.1077 C   0  0  0  0  0  0
  -22.7684  -29.4427   22.4741 C   0  0  0  0  0  0
  -18.0337  -28.1410   22.8475 C   0  0  0  0  0  0
  -24.1485  -36.7199   23.2646 C   0  0  0  0  0  0
  -26.0502  -30.6231   21.4010 C   0  0  0  0  0  0
  -26.1173  -29.2104   20.7473 C   0  0  0  0  0  0
  -27.2504  -28.2757   20.7673 C   0  0  0  0  0  0
  -26.0082  -26.6847   19.4842 C   0  0  0  0  0  0
  -24.9057  -27.5776   19.4560 C   0  0  0  0  0  0
  -23.7222  -29.7502   20.1406 C   0  0  0  0  0  0
  -25.4122  -36.2941   24.0299 C   0  0  1  0  0  0
  -20.5963  -28.3756   23.1177 C   0  0  2  0  0  0
  -20.6802  -26.9430   22.5398 C   0  0  0  0  0  0
  -19.5774  -26.6370   21.5214 C   0  0  0  0  0  0
  -18.1958  -26.7950   22.1620 C   0  0  0  0  0  0
  -19.1603  -28.8897   23.2813 C   0  0  0  0  0  0
  -18.9514  -30.1493   23.8837 C   0  0  0  0  0  0
  -17.6506  -30.6594   24.0559 C   0  0  0  0  0  0
  -25.9095  -34.9337   23.4986 C   0  0  0  0  0  0
  -16.5389  -29.9087   23.6348 C   0  0  0  0  0  0
  -16.7318  -28.6513   23.0357 C   0  0  0  0  0  0
  -26.4576  -31.6520   25.0688 C   0  0  0  0  0  0
  -25.3706  -31.3815   26.1355 C   0  0  0  0  0  0
  -27.0477  -30.2878   24.6445 C   0  0  0  0  0  0
  -27.6040  -32.4350   25.7506 C   0  0  0  0  0  0
  -27.5557  -37.1753   24.8466 C   0  0  0  0  0  0
  -21.4346  -29.3050   22.3515 N   0  0  0  0  0  0
  -26.4251  -37.3692   23.9429 N   0  0  0  0  0  0
  -24.7535  -30.9869   22.0815 N   0  0  0  0  0  0
  -23.4236  -28.7991   23.2972 O   0  0  0  0  0  0
  -28.1896  -25.7761   20.2878 O   0  0  0  0  0  0
  -26.5689  -34.8880   22.4570 O   0  0  0  0  0  0
  -23.5719  -32.1173   23.6778 O   0  0  0  0  0  0
  -29.3231  -22.0605   21.4271 C   0  0  0  0  0  0
  -28.6024  -22.5968   20.2950 C   0  0  0  0  0  0
  -28.5715  -21.2904   19.6336 C   0  0  0  0  0  0
  -27.9169  -21.1220   18.3011 C   0  0  0  0  0  0
  -28.7494  -18.0481   18.6739 C   0  0  0  0  0  0
  -28.3881  -16.7135   21.4870 C   0  0  0  0  0  0
  -30.7047  -17.3564   21.9717 C   0  0  0  0  0  0
  -27.8664  -24.1889   19.9601 C   0  0  0  0  0  0
  -29.5847  -18.4597   19.8946 C   0  0  2  0  0  0
  -29.7617  -16.9192   20.8338 C   0  0  0  0  0  0
  -29.6620  -20.7210   21.4146 N   0  0  0  0  0  0
  -29.1873  -20.0777   20.2995 N   0  0  0  0  0  0
  -31.4583  -13.0283   19.2131 H   0  0  0  0  0  0
  -30.5118  -11.9195   20.1391 H   0  0  0  0  0  0
  -29.9315  -11.7814   17.6988 H   0  0  0  0  0  0
  -29.5693  -13.4896   17.6683 H   0  0  0  0  0  0
  -28.0471  -11.2850   19.0802 H   0  0  0  0  0  0
  -27.4259  -12.3569   17.8511 H   0  0  0  0  0  0
  -27.5351  -14.2520   19.3451 H   0  0  0  0  0  0
  -28.8202  -12.4577   21.4513 H   0  0  0  0  0  0
  -28.2601  -14.0629   21.7532 H   0  0  0  0  0  0
  -25.2777   -9.5655   22.4738 H   0  0  0  0  0  0
  -23.9990   -7.4624   22.7484 H   0  0  0  0  0  0
  -21.0850   -8.8746   19.8945 H   0  0  0  0  0  0
  -22.3716  -10.9630   19.6136 H   0  0  0  0  0  0
  -21.1989   -7.6134   23.9707 H   0  0  0  0  0  0
  -21.1496   -6.0517   25.9077 H   0  0  0  0  0  0
  -22.0591   -2.7598   23.2854 H   0  0  0  0  0  0
  -22.4056  -11.9778   22.4833 H   0  0  0  0  0  0
  -21.1023  -13.1104   22.2717 H   0  0  0  0  0  0
  -24.6008  -15.8341   20.4992 H   0  0  0  0  0  0
  -26.2141  -15.6350   20.0399 H   0  0  0  0  0  0
  -26.7405  -32.5087   23.0863 H   0  0  0  0  0  0
  -25.0175  -33.9450   25.0226 H   0  0  0  0  0  0
  -22.7953  -31.2667   21.3424 H   0  0  0  0  0  0
  -23.3743  -35.9529   23.3262 H   0  0  0  0  0  0
  -24.3581  -36.8887   22.2067 H   0  0  0  0  0  0
  -23.7250  -37.6379   23.6729 H   0  0  0  0  0  0
  -26.2305  -31.3619   20.6189 H   0  0  0  0  0  0
  -26.9113  -30.6818   22.0550 H   0  0  0  0  0  0
  -28.1373  -28.5700   21.3101 H   0  0  0  0  0  0
  -25.8712  -25.7410   18.9775 H   0  0  0  0  0  0
  -24.0097  -27.2728   18.9335 H   0  0  0  0  0  0
  -23.8837  -30.5187   19.3834 H   0  0  0  0  0  0
  -22.8323  -29.2067   19.8167 H   0  0  0  0  0  0
  -25.1317  -36.1707   25.0789 H   0  0  0  0  0  0
  -21.0058  -28.3351   24.1293 H   0  0  0  0  0  0
  -20.5658  -26.2375   23.3645 H   0  0  0  0  0  0
  -21.6671  -26.7381   22.1214 H   0  0  0  0  0  0
  -19.6920  -25.6263   21.1275 H   0  0  0  0  0  0
  -19.6709  -27.3158   20.6724 H   0  0  0  0  0  0
  -17.4228  -26.6710   21.4015 H   0  0  0  0  0  0
  -18.0330  -26.0098   22.9016 H   0  0  0  0  0  0
  -19.7989  -30.7338   24.2150 H   0  0  0  0  0  0
  -17.5060  -31.6265   24.5183 H   0  0  0  0  0  0
  -15.5388  -30.2970   23.7702 H   0  0  0  0  0  0
  -15.8728  -28.0820   22.7076 H   0  0  0  0  0  0
  -24.5913  -30.7113   25.7724 H   0  0  0  0  0  0
  -24.8870  -32.3031   26.4591 H   0  0  0  0  0  0
  -25.7951  -30.9152   27.0250 H   0  0  0  0  0  0
  -26.3157  -29.6547   24.1412 H   0  0  0  0  0  0
  -27.3968  -29.7249   25.5110 H   0  0  0  0  0  0
  -27.9109  -30.4058   23.9895 H   0  0  0  0  0  0
  -27.2575  -33.3711   26.1897 H   0  0  0  0  0  0
  -28.3947  -32.6809   25.0409 H   0  0  0  0  0  0
  -28.0583  -31.8599   26.5578 H   0  0  0  0  0  0
  -28.2534  -38.0082   24.7510 H   0  0  0  0  0  0
  -28.1078  -36.2604   24.6259 H   0  0  0  0  0  0
  -27.2293  -37.1368   25.8874 H   0  0  0  0  0  0
  -20.9576  -29.8791   21.6704 H   0  0  0  0  0  0
  -26.0073  -38.2734   24.1451 H   0  0  0  0  0  0
  -29.6086  -22.6195   22.3067 H   0  0  0  0  0  0
  -27.4088  -22.0342   17.9887 H   0  0  0  0  0  0
  -27.1632  -20.3357   18.3262 H   0  0  0  0  0  0
  -28.6510  -20.8894   17.5309 H   0  0  0  0  0  0
  -29.0200  -17.0499   18.3307 H   0  0  0  0  0  0
  -28.9149  -18.7073   17.8255 H   0  0  0  0  0  0
  -27.6850  -18.0370   18.9090 H   0  0  0  0  0  0
  -27.9458  -17.6644   21.7862 H   0  0  0  0  0  0
  -28.4460  -16.1028   22.3881 H   0  0  0  0  0  0
  -27.7019  -16.2475   20.7885 H   0  0  0  0  0  0
  -30.2845  -18.1824   22.5451 H   0  0  0  0  0  0
  -31.6613  -17.6930   21.5717 H   0  0  0  0  0  0
  -30.9085  -16.5461   22.6722 H   0  0  0  0  0  0
  -26.8445  -24.0949   20.3272 H   0  0  0  0  0  0
  -27.7316  -24.2263   18.8792 H   0  0  0  0  0  0
  -30.5937  -18.5780   19.4989 H   0  0  0  0  0  0
  1 25  1  0  0  0
  1 30  2  0  0  0
  1 80  1  0  0  0
  2  3  1  0  0  0
  2 25  1  0  0  0
  2 83  1  0  0  0
  2 84  1  0  0  0
  3  4  1  0  0  0
  3 85  1  0  0  0
  3 86  1  0  0  0
  4  5  1  0  0  0
  4 87  1  0  0  0
  4 88  1  0  0  0
  5  6  1  0  0  0
  5 26  1  0  0  0
  5 89  1  0  0  0
  6 25  1  0  0  0
  6 90  1  0  0  0
  6 91  1  0  0  0
  7  8  2  0  0  0
  7 26  1  0  0  0
  7 29  1  0  0  0
  8  9  1  0  0  0
  8 22  1  0  0  0
  9 10  1  0  0  0
  9 27  2  0  0  0
 10 11  2  0  0  0
 10 15  1  0  0  0
 11 12  1  0  0  0
 11 92  1  0  0  0
 12 13  2  0  0  0
 12 93  1  0  0  0
 13 14  1  0  0  0
 13 31  1  0  0  0
 14 15  2  0  0  0
 14 94  1  0  0  0
 15 95  1  0  0  0
 16 17  2  0  0  0
 16 21  1  0  0  0
 16 31  1  0  0  0
 17 18  1  0  0  0
 17 96  1  0  0  0
 18 19  2  0  0  0
 18 97  1  0  0  0
 19 20  1  0  0  0
 19 24  1  0  0  0
 20 21  2  0  0  0
 20 98  1  0  0  0
 21 23  1  0  0  0
 22 28  1  0  0  0
 22 32  2  0  0  0
 26 27  1  0  0  0
 28 99  1  0  0  0
 28100  1  0  0  0
 29101  1  0  0  0
 29102  1  0  0  0
 33 34  1  0  0  0
 33 66  1  0  0  0
 33 70  2  0  0  0
 34 36  1  0  0  0
 34 59  1  0  0  0
 34103  1  0  0  0
 35 44  2  0  0  0
 35 45  1  0  0  0
 35 68  1  0  0  0
 36 56  1  0  0  0
 36104  1  0  0  0
 37 39  1  0  0  0
 37 47  1  0  0  0
 37 66  1  0  0  0
 37105  1  0  0  0
 38 43  2  0  0  0
 38 46  1  0  0  0
 38 47  1  0  0  0
 39 64  1  0  0  0
 39 67  2  0  0  0
 40 52  1  0  0  0
 40 53  2  0  0  0
 40 58  1  0  0  0
 41106  1  0  0  0
 41107  1  0  0  0
 41108  1  0  0  0
 41 48  1  0  0  0
 42 43  1  0  0  0
 42 66  1  0  0  0
 42109  1  0  0  0
 42110  1  0  0  0
 43 44  1  0  0  0
 44111  1  0  0  0
 45 46  2  0  0  0
 45112  1  0  0  0
 46113  1  0  0  0
 47114  1  0  0  0
 47115  1  0  0  0
 48 56  1  0  0  0
 48 65  1  0  0  0
 48116  1  0  0  0
 49 50  1  0  0  0
 49 53  1  0  0  0
 49 64  1  0  0  0
 49117  1  0  0  0
 50 51  1  0  0  0
 50118  1  0  0  0
 50119  1  0  0  0
 51 52  1  0  0  0
 51120  1  0  0  0
 51121  1  0  0  0
 52122  1  0  0  0
 52123  1  0  0  0
 53 54  1  0  0  0
 54 55  2  0  0  0
 54124  1  0  0  0
 55 57  1  0  0  0
 55125  1  0  0  0
 56 69  2  0  0  0
 57 58  2  0  0  0
 57126  1  0  0  0
 58127  1  0  0  0
 59 60  1  0  0  0
 59 61  1  0  0  0
 59 62  1  0  0  0
 60128  1  0  0  0
 60129  1  0  0  0
 60130  1  0  0  0
 61131  1  0  0  0
 61132  1  0  0  0
 61133  1  0  0  0
 62134  1  0  0  0
 62135  1  0  0  0
 62136  1  0  0  0
 63 65  1  0  0  0
 63137  1  0  0  0
 63138  1  0  0  0
 63139  1  0  0  0
 64140  1  0  0  0
 65141  1  0  0  0
 68 78  1  0  0  0
 71 72  1  0  0  0
 71 81  2  0  0  0
 71142  1  0  0  0
 72 73  2  0  0  0
 72 78  1  0  0  0
 73 74  1  0  0  0
 73 82  1  0  0  0
 74143  1  0  0  0
 74144  1  0  0  0
 74145  1  0  0  0
 75146  1  0  0  0
 75147  1  0  0  0
 75148  1  0  0  0
 75 79  1  0  0  0
 76149  1  0  0  0
 76150  1  0  0  0
 76151  1  0  0  0
 76 80  1  0  0  0
 77 80  1  0  0  0
 77152  1  0  0  0
 77153  1  0  0  0
 77154  1  0  0  0
 78155  1  0  0  0
 78156  1  0  0  0
 79 80  1  0  0  0
 79 82  1  0  0  0
 79157  1  0  0  0
 81 82  1  0  0  0
M  ISO  4   1 100  68 101  78 101  80 100
M  END
> <chiral flag>
0

> <version>
0

> <s_m_source_file>
/data/baiqing/PycharmProjects/Reinvent-master-3.2/result/LINK_invent/BTK/process_docking_weight1_custom_sum_contain_oxygen_bond_distance_aromatic_linkinvent_7_9_3/rearranged_h_0048.sdf

> <i_m_source_file_index>
89

> <r_mmod_Potential_Energy-OPLS-2005>
1438.00268554688

> <r_mmod_Stretch_Energy-OPLS-2005>
649.796203613281

> <r_mmod_Bend_Energy-OPLS-2005>
481.311828613281

> <r_mmod_Torsional_Energy-OPLS-2005>
212.891571044922

> <r_mmod_Improper_Torsional_Energy-OPLS-2005>
3.69888520240784

> <r_mmod_Van_der_Waal_Energy-OPLS-2005>
110.822326660156

> <r_mmod_Electrostatic_Energy-OPLS-2005>
-305.927398681641

> <r_mmod_Solvation_Energy-OPLS-2005>
-202.472137451172

> <b_mmod_Minimization_Converged-OPLS-2005>
0

> <r_mmod_RMS_Derivative-OPLS-2005>
1.86125290393829

$$$$
90
                    3D
 Structure written by MMmdl.
151159  0  0  1  0            999 V2000
  -30.5388  -14.8959   20.4413 C   0  0  0  0  0  0
  -30.4433  -12.5544   19.4838 C   0  0  0  0  0  0
  -29.5186  -12.5191   18.2453 C   0  0  0  0  0  0
  -28.0499  -12.3120   18.6663 C   0  0  0  0  0  0
  -27.6314  -13.2377   19.8383 C   0  0  2  0  0  0
  -28.6755  -13.2321   20.9729 C   0  0  0  0  0  0
  -25.2477  -13.8189   20.5721 C   0  0  0  0  0  0
  -24.1782  -13.0430   20.9238 C   0  0  0  0  0  0
  -24.6378  -11.6912   20.8766 C   0  0  0  0  0  0
  -23.9057  -10.4288   21.0421 C   0  0  0  0  0  0
  -24.3611   -9.4202   21.9195 C   0  0  0  0  0  0
  -23.6288   -8.2233   22.0752 C   0  0  0  0  0  0
  -22.4271   -8.0270   21.3541 C   0  0  0  0  0  0
  -21.9908   -9.0244   20.4647 C   0  0  0  0  0  0
  -22.7233  -10.2127   20.3063 C   0  0  0  0  0  0
  -21.6852   -6.0735   22.5279 C   0  0  0  0  0  0
  -21.4019   -6.5639   23.8214 C   0  0  0  0  0  0
  -21.3662   -5.6788   24.9177 C   0  0  0  0  0  0
  -21.6039   -4.3049   24.7226 C   0  0  0  0  0  0
  -21.8814   -3.8144   23.4346 C   0  0  0  0  0  0
  -21.9192   -4.6964   22.3405 C   0  0  0  0  0  0
  -22.7809  -13.5216   21.1892 C   0  0  0  0  0  0
  -22.1661   -4.2147   21.0983 F   0  0  0  0  0  0
  -21.5626   -3.4536   25.7742 F   0  0  0  0  0  0
  -29.9534  -13.6389   20.3751 N   0  0  0  0  0  0
  -26.2886  -12.9397   20.3244 N   0  0  0  0  0  0
  -25.9307  -11.6536   20.5742 N   0  0  0  0  0  0
  -22.0449  -12.8211   22.0442 N   0  0  0  0  0  0
  -25.4154  -15.1922   20.4152 N   0  0  0  0  0  0
  -31.7480  -14.9881   20.2047 O   0  0  0  0  0  0
  -21.6633   -6.8872   21.4235 O   0  0  0  0  0  0
  -22.3504  -14.5519   20.6727 O   0  0  0  0  0  0
  -24.6414  -31.8458   23.1891 C   0  0  0  0  0  0
  -25.9189  -32.4701   23.8278 C   0  0  1  0  0  0
  -27.2175  -27.1624   20.1626 C   0  0  0  0  0  0
  -25.5942  -33.8508   24.2197 N   0  0  0  0  0  0
  -23.4442  -30.4644   21.5341 C   0  0  2  0  0  0
  -24.8953  -28.8923   20.1141 C   0  0  0  0  0  0
  -22.7558  -29.4552   22.4869 C   0  0  0  0  0  0
  -18.0303  -28.1392   22.8476 C   0  0  0  0  0  0
  -24.1491  -36.7268   23.2643 C   0  0  0  0  0  0
  -25.9975  -30.7290   21.3834 C   0  0  0  0  0  0
  -26.0714  -29.3406   20.7306 C   0  0  0  0  0  0
  -27.2392  -28.4928   20.7355 C   0  0  0  0  0  0
  -26.0199  -26.8057   19.5098 C   0  0  0  0  0  0
  -24.8804  -27.6369   19.4872 C   0  0  0  0  0  0
  -23.6701  -29.7914   20.1543 C   0  0  0  0  0  0
  -25.4120  -36.3042   24.0319 C   0  0  1  0  0  0
  -20.5914  -28.3719   23.1240 C   0  0  2  0  0  0
  -20.6786  -26.9421   22.5408 C   0  0  0  0  0  0
  -19.5758  -26.6380   21.5215 C   0  0  0  0  0  0
  -18.1940  -26.7930   22.1625 C   0  0  0  0  0  0
  -19.1559  -28.8874   23.2848 C   0  0  0  0  0  0
  -18.9474  -30.1470   23.8875 C   0  0  0  0  0  0
  -17.6471  -30.6591   24.0559 C   0  0  0  0  0  0
  -25.9066  -34.9415   23.5067 C   0  0  0  0  0  0
  -16.5363  -29.9084   23.6335 C   0  0  0  0  0  0
  -16.7288  -28.6501   23.0356 C   0  0  0  0  0  0
  -26.4525  -31.6563   25.0711 C   0  0  0  0  0  0
  -25.3714  -31.3744   26.1407 C   0  0  0  0  0  0
  -27.0385  -30.2960   24.6270 C   0  0  0  0  0  0
  -27.6048  -32.4333   25.7502 C   0  0  0  0  0  0
  -27.5578  -37.1793   24.8467 C   0  0  0  0  0  0
  -21.4253  -29.3049   22.3619 N   0  0  0  0  0  0
  -26.4291  -37.3748   23.9405 N   0  0  0  0  0  0
  -24.7137  -31.0340   22.0909 N   0  0  0  0  0  0
  -23.4212  -28.8102   23.3013 O   0  0  0  0  0  0
  -28.2612  -26.1787   20.1787 O   0  0  0  0  0  0
  -26.5652  -34.8911   22.4645 O   0  0  0  0  0  0
  -23.5537  -32.1322   23.7132 O   0  0  0  0  0  0
  -27.7855  -21.0426   19.9442 C   0  0  0  0  0  0
  -29.0249  -20.3964   20.2782 C   0  0  0  0  0  0
  -29.7377  -22.6559   20.7930 C   0  0  0  0  0  0
  -28.4885  -23.2984   20.4401 C   0  0  0  0  0  0
  -30.8507  -23.4749   21.4151 C   0  0  0  0  0  0
  -29.2843  -18.8037   19.9232 C   0  0  0  0  0  0
  -27.9887  -24.8188   20.8518 C   0  0  0  0  0  0
  -29.9583  -17.5808   20.8377 C   0  0  0  0  0  0
  -27.5298  -22.4066   20.0201 N   0  0  0  0  0  0
  -30.0061  -21.2812   20.6770 N   0  0  0  0  0  0
  -29.7217  -16.0431   20.5770 N   0  0  0  0  0  0
  -30.4309  -11.5949   20.0042 H   0  0  0  0  0  0
  -31.4770  -12.7184   19.1759 H   0  0  0  0  0  0
  -29.8291  -11.7271   17.5617 H   0  0  0  0  0  0
  -29.6128  -13.4561   17.6934 H   0  0  0  0  0  0
  -27.9421  -11.2707   18.9718 H   0  0  0  0  0  0
  -27.3859  -12.4486   17.8121 H   0  0  0  0  0  0
  -27.6045  -14.2452   19.4226 H   0  0  0  0  0  0
  -28.3841  -13.9203   21.7682 H   0  0  0  0  0  0
  -28.7541  -12.2441   21.4306 H   0  0  0  0  0  0
  -25.2756   -9.5683   22.4766 H   0  0  0  0  0  0
  -24.0001   -7.4628   22.7471 H   0  0  0  0  0  0
  -21.0839   -8.8766   19.8961 H   0  0  0  0  0  0
  -22.3692  -10.9663   19.6172 H   0  0  0  0  0  0
  -21.2011   -7.6146   23.9723 H   0  0  0  0  0  0
  -21.1495   -6.0521   25.9081 H   0  0  0  0  0  0
  -22.0592   -2.7606   23.2851 H   0  0  0  0  0  0
  -22.4059  -11.9877   22.4837 H   0  0  0  0  0  0
  -21.1064  -13.1244   22.2634 H   0  0  0  0  0  0
  -24.6437  -15.8412   20.5239 H   0  0  0  0  0  0
  -26.2501  -15.6324   20.0519 H   0  0  0  0  0  0
  -26.7254  -32.5329   23.1010 H   0  0  0  0  0  0
  -25.0068  -33.9618   25.0332 H   0  0  0  0  0  0
  -22.7456  -31.2892   21.3793 H   0  0  0  0  0  0
  -23.3753  -35.9600   23.3298 H   0  0  0  0  0  0
  -24.3576  -36.8904   22.2058 H   0  0  0  0  0  0
  -23.7250  -37.6465   23.6681 H   0  0  0  0  0  0
  -26.1478  -31.4819   20.6091 H   0  0  0  0  0  0
  -26.8699  -30.7823   22.0226 H   0  0  0  0  0  0
  -28.1392  -28.8333   21.2286 H   0  0  0  0  0  0
  -25.9527  -25.8392   19.0297 H   0  0  0  0  0  0
  -23.9841  -27.2891   18.9929 H   0  0  0  0  0  0
  -23.8047  -30.5641   19.3962 H   0  0  0  0  0  0
  -22.7863  -29.2297   19.8460 H   0  0  0  0  0  0
  -25.1310  -36.1875   25.0813 H   0  0  0  0  0  0
  -21.0001  -28.3303   24.1361 H   0  0  0  0  0  0
  -20.5676  -26.2328   23.3622 H   0  0  0  0  0  0
  -21.6651  -26.7423   22.1205 H   0  0  0  0  0  0
  -19.6916  -25.6285   21.1255 H   0  0  0  0  0  0
  -19.6698  -27.3180   20.6733 H   0  0  0  0  0  0
  -17.4209  -26.6673   21.4031 H   0  0  0  0  0  0
  -18.0342  -26.0081   22.9028 H   0  0  0  0  0  0
  -19.7952  -30.7290   24.2237 H   0  0  0  0  0  0
  -17.5026  -31.6269   24.5162 H   0  0  0  0  0  0
  -15.5362  -30.2978   23.7675 H   0  0  0  0  0  0
  -15.8685  -28.0813   22.7084 H   0  0  0  0  0  0
  -24.5895  -30.7087   25.7737 H   0  0  0  0  0  0
  -24.8902  -32.2922   26.4793 H   0  0  0  0  0  0
  -25.8005  -30.8948   27.0212 H   0  0  0  0  0  0
  -26.2992  -29.6686   24.1272 H   0  0  0  0  0  0
  -27.4000  -29.7258   25.4840 H   0  0  0  0  0  0
  -27.8904  -30.4206   23.9579 H   0  0  0  0  0  0
  -27.2620  -33.3637   26.2041 H   0  0  0  0  0  0
  -28.3879  -32.6884   25.0350 H   0  0  0  0  0  0
  -28.0688  -31.8482   26.5452 H   0  0  0  0  0  0
  -28.2595  -38.0090   24.7497 H   0  0  0  0  0  0
  -28.1072  -36.2617   24.6313 H   0  0  0  0  0  0
  -27.2289  -37.1464   25.8868 H   0  0  0  0  0  0
  -20.9460  -29.8765   21.6804 H   0  0  0  0  0  0
  -26.0162  -38.2822   24.1392 H   0  0  0  0  0  0
  -26.9667  -20.4485   19.5638 H   0  0  0  0  0  0
  -30.5586  -23.8162   22.4088 H   0  0  0  0  0  0
  -31.0690  -24.3509   20.8047 H   0  0  0  0  0  0
  -31.7684  -22.8948   21.5180 H   0  0  0  0  0  0
  -29.8332  -18.8188   18.9814 H   0  0  0  0  0  0
  -28.2985  -18.4370   19.6380 H   0  0  0  0  0  0
  -28.3692  -24.9559   21.8636 H   0  0  0  0  0  0
  -26.9115  -24.7372   21.0036 H   0  0  0  0  0  0
  -31.0341  -17.7484   20.8936 H   0  0  0  0  0  0
  -29.5998  -17.7339   21.8558 H   0  0  0  0  0  0
  -28.7471  -15.7895   20.6374 H   0  0  0  0  0  0
  1 25  1  0  0  0
  1 30  2  0  0  0
  1 81  1  0  0  0
  2  3  1  0  0  0
  2 25  1  0  0  0
  2 82  1  0  0  0
  2 83  1  0  0  0
  3  4  1  0  0  0
  3 84  1  0  0  0
  3 85  1  0  0  0
  4  5  1  0  0  0
  4 86  1  0  0  0
  4 87  1  0  0  0
  5  6  1  0  0  0
  5 26  1  0  0  0
  5 88  1  0  0  0
  6 25  1  0  0  0
  6 89  1  0  0  0
  6 90  1  0  0  0
  7  8  2  0  0  0
  7 26  1  0  0  0
  7 29  1  0  0  0
  8  9  1  0  0  0
  8 22  1  0  0  0
  9 10  1  0  0  0
  9 27  2  0  0  0
 10 11  2  0  0  0
 10 15  1  0  0  0
 11 12  1  0  0  0
 11 91  1  0  0  0
 12 13  2  0  0  0
 12 92  1  0  0  0
 13 14  1  0  0  0
 13 31  1  0  0  0
 14 15  2  0  0  0
 14 93  1  0  0  0
 15 94  1  0  0  0
 16 17  2  0  0  0
 16 21  1  0  0  0
 16 31  1  0  0  0
 17 18  1  0  0  0
 17 95  1  0  0  0
 18 19  2  0  0  0
 18 96  1  0  0  0
 19 20  1  0  0  0
 19 24  1  0  0  0
 20 21  2  0  0  0
 20 97  1  0  0  0
 21 23  1  0  0  0
 22 28  1  0  0  0
 22 32  2  0  0  0
 26 27  1  0  0  0
 28 98  1  0  0  0
 28 99  1  0  0  0
 29100  1  0  0  0
 29101  1  0  0  0
 33 34  1  0  0  0
 33 66  1  0  0  0
 33 70  2  0  0  0
 34 36  1  0  0  0
 34 59  1  0  0  0
 34102  1  0  0  0
 35 44  2  0  0  0
 35 45  1  0  0  0
 35 68  1  0  0  0
 36 56  1  0  0  0
 36103  1  0  0  0
 37 39  1  0  0  0
 37 47  1  0  0  0
 37 66  1  0  0  0
 37104  1  0  0  0
 38 43  2  0  0  0
 38 46  1  0  0  0
 38 47  1  0  0  0
 39 64  1  0  0  0
 39 67  2  0  0  0
 40 52  1  0  0  0
 40 53  2  0  0  0
 40 58  1  0  0  0
 41105  1  0  0  0
 41106  1  0  0  0
 41107  1  0  0  0
 41 48  1  0  0  0
 42 43  1  0  0  0
 42 66  1  0  0  0
 42108  1  0  0  0
 42109  1  0  0  0
 43 44  1  0  0  0
 44110  1  0  0  0
 45 46  2  0  0  0
 45111  1  0  0  0
 46112  1  0  0  0
 47113  1  0  0  0
 47114  1  0  0  0
 48 56  1  0  0  0
 48 65  1  0  0  0
 48115  1  0  0  0
 49 50  1  0  0  0
 49 53  1  0  0  0
 49 64  1  0  0  0
 49116  1  0  0  0
 50 51  1  0  0  0
 50117  1  0  0  0
 50118  1  0  0  0
 51 52  1  0  0  0
 51119  1  0  0  0
 51120  1  0  0  0
 52121  1  0  0  0
 52122  1  0  0  0
 53 54  1  0  0  0
 54 55  2  0  0  0
 54123  1  0  0  0
 55 57  1  0  0  0
 55124  1  0  0  0
 56 69  2  0  0  0
 57 58  2  0  0  0
 57125  1  0  0  0
 58126  1  0  0  0
 59 60  1  0  0  0
 59 61  1  0  0  0
 59 62  1  0  0  0
 60127  1  0  0  0
 60128  1  0  0  0
 60129  1  0  0  0
 61130  1  0  0  0
 61131  1  0  0  0
 61132  1  0  0  0
 62133  1  0  0  0
 62134  1  0  0  0
 62135  1  0  0  0
 63 65  1  0  0  0
 63136  1  0  0  0
 63137  1  0  0  0
 63138  1  0  0  0
 64139  1  0  0  0
 65140  1  0  0  0
 68 77  1  0  0  0
 71 72  2  0  0  0
 71 79  1  0  0  0
 71141  1  0  0  0
 72 76  1  0  0  0
 72 80  1  0  0  0
 73 74  1  0  0  0
 73 75  1  0  0  0
 73 80  2  0  0  0
 74 77  1  0  0  0
 74 79  2  0  0  0
 75142  1  0  0  0
 75143  1  0  0  0
 75144  1  0  0  0
 76 78  1  0  0  0
 76145  1  0  0  0
 76146  1  0  0  0
 77147  1  0  0  0
 77148  1  0  0  0
 78 81  1  0  0  0
 78149  1  0  0  0
 78150  1  0  0  0
 81151  1  0  0  0
M  ISO  4   1 100  68 101  77 101  81 100
M  END
> <chiral flag>
0

> <version>
0

> <s_m_source_file>
/data/baiqing/PycharmProjects/Reinvent-master-3.2/result/LINK_invent/BTK/process_docking_weight1_custom_sum_contain_oxygen_bond_distance_aromatic_linkinvent_7_9_3/rearranged_h_0048.sdf

> <i_m_source_file_index>
90

> <r_mmod_Potential_Energy-OPLS-2005>
493.975067138672

> <r_mmod_Stretch_Energy-OPLS-2005>
218.090408325195

> <r_mmod_Bend_Energy-OPLS-2005>
259.072784423828

> <r_mmod_Torsional_Energy-OPLS-2005>
236.587966918945

> <r_mmod_Improper_Torsional_Energy-OPLS-2005>
8.1905345916748

> <r_mmod_Van_der_Waal_Energy-OPLS-2005>
132.505310058594

> <r_mmod_Electrostatic_Energy-OPLS-2005>
-294.635925292969

> <r_mmod_Solvation_Energy-OPLS-2005>
-231.979736328125

> <b_mmod_Minimization_Converged-OPLS-2005>
0

> <r_mmod_RMS_Derivative-OPLS-2005>
1.54867112636566

$$$$
91
                    3D
 Structure written by MMmdl.
156164  0  0  1  0            999 V2000
  -30.6419  -14.7199   20.5008 C   0  0  0  0  0  0
  -30.4292  -12.4472   19.4792 C   0  0  0  0  0  0
  -29.5118  -12.5140   18.2385 C   0  0  0  0  0  0
  -28.0351  -12.3402   18.6443 C   0  0  0  0  0  0
  -27.6434  -13.2308   19.8538 C   0  0  2  0  0  0
  -28.6832  -13.1329   20.9885 C   0  0  0  0  0  0
  -25.2519  -13.8195   20.5688 C   0  0  0  0  0  0
  -24.1799  -13.0444   20.9185 C   0  0  0  0  0  0
  -24.6390  -11.6918   20.8733 C   0  0  0  0  0  0
  -23.9060  -10.4295   21.0396 C   0  0  0  0  0  0
  -24.3612   -9.4214   21.9172 C   0  0  0  0  0  0
  -23.6294   -8.2247   22.0748 C   0  0  0  0  0  0
  -22.4277   -8.0274   21.3547 C   0  0  0  0  0  0
  -21.9909   -9.0239   20.4647 C   0  0  0  0  0  0
  -22.7231  -10.2128   20.3049 C   0  0  0  0  0  0
  -21.6849   -6.0741   22.5288 C   0  0  0  0  0  0
  -21.4006   -6.5639   23.8219 C   0  0  0  0  0  0
  -21.3666   -5.6793   24.9181 C   0  0  0  0  0  0
  -21.6050   -4.3055   24.7228 C   0  0  0  0  0  0
  -21.8817   -3.8151   23.4348 C   0  0  0  0  0  0
  -21.9188   -4.6969   22.3406 C   0  0  0  0  0  0
  -22.7826  -13.5229   21.1856 C   0  0  0  0  0  0
  -22.1658   -4.2157   21.0984 F   0  0  0  0  0  0
  -21.5633   -3.4540   25.7738 F   0  0  0  0  0  0
  -29.9888  -13.5037   20.4236 N   0  0  0  0  0  0
  -26.2938  -12.9401   20.3272 N   0  0  0  0  0  0
  -25.9317  -11.6546   20.5730 N   0  0  0  0  0  0
  -22.0465  -12.8221   22.0419 N   0  0  0  0  0  0
  -25.4241  -15.1916   20.4144 N   0  0  0  0  0  0
  -31.7989  -14.8014   20.0762 O   0  0  0  0  0  0
  -21.6640   -6.8877   21.4245 O   0  0  0  0  0  0
  -22.3511  -14.5532   20.6701 O   0  0  0  0  0  0
  -24.6307  -31.8566   23.2010 C   0  0  0  0  0  0
  -25.9135  -32.4763   23.8350 C   0  0  1  0  0  0
  -27.2121  -27.2706   20.1300 C   0  0  0  0  0  0
  -25.5932  -33.8564   24.2272 N   0  0  0  0  0  0
  -23.4256  -30.4804   21.5449 C   0  0  2  0  0  0
  -24.8718  -28.9326   20.1111 C   0  0  0  0  0  0
  -22.7495  -29.4602   22.4921 C   0  0  0  0  0  0
  -18.0286  -28.1385   22.8494 C   0  0  0  0  0  0
  -24.1489  -36.7278   23.2639 C   0  0  0  0  0  0
  -25.9718  -30.7722   21.3811 C   0  0  0  0  0  0
  -26.0436  -29.3959   20.7230 C   0  0  0  0  0  0
  -27.2191  -28.5780   20.7215 C   0  0  0  0  0  0
  -26.0241  -26.8856   19.4694 C   0  0  0  0  0  0
  -24.8663  -27.6848   19.4718 C   0  0  0  0  0  0
  -23.6420  -29.8180   20.1603 C   0  0  0  0  0  0
  -25.4119  -36.3074   24.0326 C   0  0  1  0  0  0
  -20.5890  -28.3689   23.1273 C   0  0  2  0  0  0
  -20.6772  -26.9404   22.5404 C   0  0  0  0  0  0
  -19.5739  -26.6386   21.5207 C   0  0  0  0  0  0
  -18.1923  -26.7929   22.1627 C   0  0  0  0  0  0
  -19.1541  -28.8856   23.2878 C   0  0  0  0  0  0
  -18.9459  -30.1462   23.8887 C   0  0  0  0  0  0
  -17.6461  -30.6587   24.0556 C   0  0  0  0  0  0
  -25.9057  -34.9442   23.5101 C   0  0  0  0  0  0
  -16.5350  -29.9086   23.6338 C   0  0  0  0  0  0
  -16.7273  -28.6499   23.0362 C   0  0  0  0  0  0
  -26.4508  -31.6581   25.0728 C   0  0  0  0  0  0
  -25.3739  -31.3718   26.1456 C   0  0  0  0  0  0
  -27.0361  -30.3002   24.6206 C   0  0  0  0  0  0
  -27.6060  -32.4336   25.7494 C   0  0  0  0  0  0
  -27.5578  -37.1799   24.8467 C   0  0  0  0  0  0
  -21.4200  -29.3040   22.3668 N   0  0  0  0  0  0
  -26.4291  -37.3772   23.9405 N   0  0  0  0  0  0
  -24.6947  -31.0541   22.0982 N   0  0  0  0  0  0
  -23.4202  -28.8138   23.3011 O   0  0  0  0  0  0
  -28.2952  -26.3632   20.1702 O   0  0  0  0  0  0
  -26.5620  -34.8913   22.4665 O   0  0  0  0  0  0
  -23.5459  -32.1382   23.7308 O   0  0  0  0  0  0
  -28.7740  -19.5622   20.0514 C   0  0  0  0  0  0
  -29.1921  -20.8617   20.5559 C   0  0  0  0  0  0
  -29.7740  -18.6248   20.3078 C   0  0  0  0  0  0
  -32.0504  -18.9675   21.4032 C   0  0  0  0  0  0
  -29.3693  -16.1514   22.0721 C   0  0  0  0  0  0
  -28.3955  -22.2251   20.6953 C   0  0  0  0  0  0
  -30.0128  -17.1293   19.8457 C   0  0  0  0  0  0
  -28.9466  -23.6730   20.2316 C   0  0  0  0  0  0
  -27.9927  -24.9390   20.5510 C   0  0  0  0  0  0
  -30.3808  -20.7019   21.1273 N   0  0  0  0  0  0
  -30.7378  -19.3899   20.9540 N   0  0  0  0  0  0
  -29.9162  -15.8900   20.7384 N   0  0  0  0  0  0
  -31.4718  -12.5586   19.1785 H   0  0  0  0  0  0
  -30.3677  -11.4649   19.9500 H   0  0  0  0  0  0
  -29.7977  -11.7471   17.5168 H   0  0  0  0  0  0
  -29.6428  -13.4724   17.7343 H   0  0  0  0  0  0
  -27.8849  -11.2890   18.8937 H   0  0  0  0  0  0
  -27.3828  -12.5469   17.7945 H   0  0  0  0  0  0
  -27.6467  -14.2600   19.4926 H   0  0  0  0  0  0
  -28.7160  -12.1194   21.3907 H   0  0  0  0  0  0
  -28.3933  -13.7665   21.8226 H   0  0  0  0  0  0
  -25.2757   -9.5699   22.4744 H   0  0  0  0  0  0
  -24.0010   -7.4646   22.7468 H   0  0  0  0  0  0
  -21.0844   -8.8752   19.8952 H   0  0  0  0  0  0
  -22.3680  -10.9660   19.6153 H   0  0  0  0  0  0
  -21.1992   -7.6146   23.9727 H   0  0  0  0  0  0
  -21.1493   -6.0521   25.9089 H   0  0  0  0  0  0
  -22.0592   -2.7612   23.2842 H   0  0  0  0  0  0
  -22.4072  -11.9891   22.4830 H   0  0  0  0  0  0
  -21.1074  -13.1249   22.2608 H   0  0  0  0  0  0
  -24.6638  -15.8502   20.5391 H   0  0  0  0  0  0
  -26.2865  -15.6333   20.1229 H   0  0  0  0  0  0
  -26.7188  -32.5409   23.1084 H   0  0  0  0  0  0
  -25.0104  -33.9713   25.0435 H   0  0  0  0  0  0
  -22.7215  -31.3026   21.4019 H   0  0  0  0  0  0
  -23.3754  -35.9605   23.3303 H   0  0  0  0  0  0
  -24.3580  -36.8897   22.2050 H   0  0  0  0  0  0
  -23.7234  -37.6479   23.6663 H   0  0  0  0  0  0
  -26.1121  -31.5341   20.6129 H   0  0  0  0  0  0
  -26.8484  -30.8180   22.0150 H   0  0  0  0  0  0
  -28.1140  -28.9268   21.2173 H   0  0  0  0  0  0
  -25.9668  -25.9468   18.9390 H   0  0  0  0  0  0
  -23.9742  -27.3310   18.9731 H   0  0  0  0  0  0
  -23.7622  -30.5959   19.4052 H   0  0  0  0  0  0
  -22.7589  -29.2511   19.8597 H   0  0  0  0  0  0
  -25.1303  -36.1921   25.0817 H   0  0  0  0  0  0
  -20.9992  -28.3254   24.1388 H   0  0  0  0  0  0
  -20.5670  -26.2290   23.3608 H   0  0  0  0  0  0
  -21.6641  -26.7429   22.1189 H   0  0  0  0  0  0
  -19.6900  -25.6297   21.1233 H   0  0  0  0  0  0
  -19.6674  -27.3199   20.6741 H   0  0  0  0  0  0
  -17.4201  -26.6694   21.4025 H   0  0  0  0  0  0
  -18.0305  -26.0071   22.9014 H   0  0  0  0  0  0
  -19.7934  -30.7290   24.2241 H   0  0  0  0  0  0
  -17.5011  -31.6269   24.5159 H   0  0  0  0  0  0
  -15.5349  -30.2977   23.7680 H   0  0  0  0  0  0
  -15.8670  -28.0814   22.7083 H   0  0  0  0  0  0
  -24.5911  -30.7070   25.7785 H   0  0  0  0  0  0
  -24.8939  -32.2882   26.4898 H   0  0  0  0  0  0
  -25.8072  -30.8885   27.0224 H   0  0  0  0  0  0
  -26.2943  -29.6742   24.1240 H   0  0  0  0  0  0
  -27.4053  -29.7272   25.4720 H   0  0  0  0  0  0
  -27.8814  -30.4276   23.9443 H   0  0  0  0  0  0
  -27.2659  -33.3637   26.2064 H   0  0  0  0  0  0
  -28.3872  -32.6904   25.0324 H   0  0  0  0  0  0
  -28.0736  -31.8478   26.5421 H   0  0  0  0  0  0
  -28.2609  -38.0088   24.7520 H   0  0  0  0  0  0
  -28.1073  -36.2623   24.6302 H   0  0  0  0  0  0
  -27.2299  -37.1453   25.8874 H   0  0  0  0  0  0
  -20.9379  -29.8758   21.6876 H   0  0  0  0  0  0
  -26.0171  -38.2844   24.1418 H   0  0  0  0  0  0
  -27.8418  -19.3481   19.5466 H   0  0  0  0  0  0
  -32.0161  -17.9325   21.7457 H   0  0  0  0  0  0
  -32.3981  -19.5953   22.2238 H   0  0  0  0  0  0
  -32.7586  -19.0417   20.5782 H   0  0  0  0  0  0
  -29.7594  -17.0796   22.4879 H   0  0  0  0  0  0
  -29.6277  -15.3706   22.7901 H   0  0  0  0  0  0
  -28.2829  -16.2342   22.0272 H   0  0  0  0  0  0
  -28.1298  -22.3244   21.7476 H   0  0  0  0  0  0
  -27.4360  -22.0894   20.1943 H   0  0  0  0  0  0
  -30.9944  -17.1096   19.3708 H   0  0  0  0  0  0
  -29.3264  -16.9357   19.0214 H   0  0  0  0  0  0
  -29.1420  -23.6435   19.1596 H   0  0  0  0  0  0
  -29.9125  -23.8431   20.7070 H   0  0  0  0  0  0
  -27.8621  -24.9611   21.6333 H   0  0  0  0  0  0
  -27.0135  -24.6448   20.1830 H   0  0  0  0  0  0
  1 25  1  0  0  0
  1 30  2  0  0  0
  1 82  1  0  0  0
  2  3  1  0  0  0
  2 25  1  0  0  0
  2 83  1  0  0  0
  2 84  1  0  0  0
  3  4  1  0  0  0
  3 85  1  0  0  0
  3 86  1  0  0  0
  4  5  1  0  0  0
  4 87  1  0  0  0
  4 88  1  0  0  0
  5  6  1  0  0  0
  5 26  1  0  0  0
  5 89  1  0  0  0
  6 25  1  0  0  0
  6 90  1  0  0  0
  6 91  1  0  0  0
  7  8  2  0  0  0
  7 26  1  0  0  0
  7 29  1  0  0  0
  8  9  1  0  0  0
  8 22  1  0  0  0
  9 10  1  0  0  0
  9 27  2  0  0  0
 10 11  2  0  0  0
 10 15  1  0  0  0
 11 12  1  0  0  0
 11 92  1  0  0  0
 12 13  2  0  0  0
 12 93  1  0  0  0
 13 14  1  0  0  0
 13 31  1  0  0  0
 14 15  2  0  0  0
 14 94  1  0  0  0
 15 95  1  0  0  0
 16 17  2  0  0  0
 16 21  1  0  0  0
 16 31  1  0  0  0
 17 18  1  0  0  0
 17 96  1  0  0  0
 18 19  2  0  0  0
 18 97  1  0  0  0
 19 20  1  0  0  0
 19 24  1  0  0  0
 20 21  2  0  0  0
 20 98  1  0  0  0
 21 23  1  0  0  0
 22 28  1  0  0  0
 22 32  2  0  0  0
 26 27  1  0  0  0
 28 99  1  0  0  0
 28100  1  0  0  0
 29101  1  0  0  0
 29102  1  0  0  0
 33 34  1  0  0  0
 33 66  1  0  0  0
 33 70  2  0  0  0
 34 36  1  0  0  0
 34 59  1  0  0  0
 34103  1  0  0  0
 35 44  2  0  0  0
 35 45  1  0  0  0
 35 68  1  0  0  0
 36 56  1  0  0  0
 36104  1  0  0  0
 37 39  1  0  0  0
 37 47  1  0  0  0
 37 66  1  0  0  0
 37105  1  0  0  0
 38 43  2  0  0  0
 38 46  1  0  0  0
 38 47  1  0  0  0
 39 64  1  0  0  0
 39 67  2  0  0  0
 40 52  1  0  0  0
 40 53  2  0  0  0
 40 58  1  0  0  0
 41106  1  0  0  0
 41107  1  0  0  0
 41108  1  0  0  0
 41 48  1  0  0  0
 42 43  1  0  0  0
 42 66  1  0  0  0
 42109  1  0  0  0
 42110  1  0  0  0
 43 44  1  0  0  0
 44111  1  0  0  0
 45 46  2  0  0  0
 45112  1  0  0  0
 46113  1  0  0  0
 47114  1  0  0  0
 47115  1  0  0  0
 48 56  1  0  0  0
 48 65  1  0  0  0
 48116  1  0  0  0
 49 50  1  0  0  0
 49 53  1  0  0  0
 49 64  1  0  0  0
 49117  1  0  0  0
 50 51  1  0  0  0
 50118  1  0  0  0
 50119  1  0  0  0
 51 52  1  0  0  0
 51120  1  0  0  0
 51121  1  0  0  0
 52122  1  0  0  0
 52123  1  0  0  0
 53 54  1  0  0  0
 54 55  2  0  0  0
 54124  1  0  0  0
 55 57  1  0  0  0
 55125  1  0  0  0
 56 69  2  0  0  0
 57 58  2  0  0  0
 57126  1  0  0  0
 58127  1  0  0  0
 59 60  1  0  0  0
 59 61  1  0  0  0
 59 62  1  0  0  0
 60128  1  0  0  0
 60129  1  0  0  0
 60130  1  0  0  0
 61131  1  0  0  0
 61132  1  0  0  0
 61133  1  0  0  0
 62134  1  0  0  0
 62135  1  0  0  0
 62136  1  0  0  0
 63 65  1  0  0  0
 63137  1  0  0  0
 63138  1  0  0  0
 63139  1  0  0  0
 64140  1  0  0  0
 65141  1  0  0  0
 68 79  1  0  0  0
 71 72  1  0  0  0
 71 73  2  0  0  0
 71142  1  0  0  0
 72 76  1  0  0  0
 72 80  2  0  0  0
 73 77  1  0  0  0
 73 81  1  0  0  0
 74 81  1  0  0  0
 74143  1  0  0  0
 74144  1  0  0  0
 74145  1  0  0  0
 75 82  1  0  0  0
 75146  1  0  0  0
 75147  1  0  0  0
 75148  1  0  0  0
 76 78  1  0  0  0
 76149  1  0  0  0
 76150  1  0  0  0
 77 82  1  0  0  0
 77151  1  0  0  0
 77152  1  0  0  0
 78 79  1  0  0  0
 78153  1  0  0  0
 78154  1  0  0  0
 79155  1  0  0  0
 79156  1  0  0  0
 80 81  1  0  0  0
M  ISO  4   1 100  68 101  79 101  82 100
M  END
> <chiral flag>
0

> <version>
0

> <s_m_source_file>
/data/baiqing/PycharmProjects/Reinvent-master-3.2/result/LINK_invent/BTK/process_docking_weight1_custom_sum_contain_oxygen_bond_distance_aromatic_linkinvent_7_9_3/rearranged_h_0048.sdf

> <i_m_source_file_index>
91

> <r_mmod_Potential_Energy-OPLS-2005>
186.572692871094

> <r_mmod_Stretch_Energy-OPLS-2005>
115.707443237305

> <r_mmod_Bend_Energy-OPLS-2005>
174.554550170898

> <r_mmod_Torsional_Energy-OPLS-2005>
273.201995849609

> <r_mmod_Improper_Torsional_Energy-OPLS-2005>
10.4864568710327

> <r_mmod_Van_der_Waal_Energy-OPLS-2005>
119.535453796387

> <r_mmod_Electrostatic_Energy-OPLS-2005>
-373.142883300781

> <r_mmod_Solvation_Energy-OPLS-2005>
-209.12060546875

> <b_mmod_Minimization_Converged-OPLS-2005>
0

> <r_mmod_RMS_Derivative-OPLS-2005>
1.39265441894531

$$$$
92
                    3D
 Structure written by MMmdl.
150158  0  0  1  0            999 V2000
  -30.4079  -15.1283   20.3648 C   0  0  0  0  0  0
  -30.4602  -12.6969   19.5181 C   0  0  0  0  0  0
  -29.5405  -12.5575   18.2755 C   0  0  0  0  0  0
  -28.0765  -12.3065   18.6884 C   0  0  0  0  0  0
  -27.6248  -13.2529   19.8285 C   0  0  2  0  0  0
  -28.6628  -13.3286   20.9650 C   0  0  0  0  0  0
  -25.2456  -13.8215   20.5710 C   0  0  0  0  0  0
  -24.1771  -13.0432   20.9215 C   0  0  0  0  0  0
  -24.6395  -11.6921   20.8729 C   0  0  0  0  0  0
  -23.9072  -10.4295   21.0398 C   0  0  0  0  0  0
  -24.3623   -9.4210   21.9169 C   0  0  0  0  0  0
  -23.6302   -8.2238   22.0751 C   0  0  0  0  0  0
  -22.4280   -8.0272   21.3541 C   0  0  0  0  0  0
  -21.9914   -9.0247   20.4643 C   0  0  0  0  0  0
  -22.7244  -10.2127   20.3050 C   0  0  0  0  0  0
  -21.6854   -6.0729   22.5275 C   0  0  0  0  0  0
  -21.4017   -6.5634   23.8209 C   0  0  0  0  0  0
  -21.3668   -5.6791   24.9175 C   0  0  0  0  0  0
  -21.6044   -4.3054   24.7222 C   0  0  0  0  0  0
  -21.8820   -3.8144   23.4346 C   0  0  0  0  0  0
  -21.9192   -4.6957   22.3404 C   0  0  0  0  0  0
  -22.7790  -13.5204   21.1877 C   0  0  0  0  0  0
  -22.1659   -4.2143   21.0986 F   0  0  0  0  0  0
  -21.5633   -3.4540   25.7735 F   0  0  0  0  0  0
  -29.9246  -13.8021   20.3767 N   0  0  0  0  0  0
  -26.2867  -12.9444   20.3194 N   0  0  0  0  0  0
  -25.9330  -11.6569   20.5702 N   0  0  0  0  0  0
  -22.0449  -12.8197   22.0446 N   0  0  0  0  0  0
  -25.4132  -15.1946   20.4180 N   0  0  0  0  0  0
  -31.6251  -15.2184   20.1402 O   0  0  0  0  0  0
  -21.6631   -6.8875   21.4243 O   0  0  0  0  0  0
  -22.3452  -14.5495   20.6725 O   0  0  0  0  0  0
  -24.6525  -31.8326   23.1759 C   0  0  0  0  0  0
  -25.9242  -32.4635   23.8194 C   0  0  1  0  0  0
  -27.2225  -27.0233   20.1703 C   0  0  0  0  0  0
  -25.5953  -33.8448   24.2114 N   0  0  0  0  0  0
  -23.4633  -30.4450   21.5249 C   0  0  2  0  0  0
  -24.9157  -28.8469   20.1111 C   0  0  0  0  0  0
  -22.7613  -29.4477   22.4820 C   0  0  0  0  0  0
  -18.0308  -28.1406   22.8471 C   0  0  0  0  0  0
  -24.1490  -36.7246   23.2636 C   0  0  0  0  0  0
  -26.0250  -30.6701   21.3892 C   0  0  0  0  0  0
  -26.0966  -29.2681   20.7362 C   0  0  0  0  0  0
  -27.2479  -28.3755   20.7427 C   0  0  0  0  0  0
  -26.0143  -26.7288   19.5010 C   0  0  0  0  0  0
  -24.8946  -27.5954   19.4739 C   0  0  0  0  0  0
  -23.6946  -29.7599   20.1505 C   0  0  0  0  0  0
  -25.4127  -36.3002   24.0297 C   0  0  1  0  0  0
  -20.5926  -28.3738   23.1212 C   0  0  2  0  0  0
  -20.6794  -26.9431   22.5401 C   0  0  0  0  0  0
  -19.5769  -26.6382   21.5211 C   0  0  0  0  0  0
  -18.1948  -26.7941   22.1627 C   0  0  0  0  0  0
  -19.1566  -28.8898   23.2827 C   0  0  0  0  0  0
  -18.9479  -30.1495   23.8844 C   0  0  0  0  0  0
  -17.6471  -30.6591   24.0565 C   0  0  0  0  0  0
  -25.9083  -34.9380   23.5022 C   0  0  0  0  0  0
  -16.5364  -29.9077   23.6353 C   0  0  0  0  0  0
  -16.7289  -28.6513   23.0350 C   0  0  0  0  0  0
  -26.4526  -31.6543   25.0682 C   0  0  0  0  0  0
  -25.3671  -31.3774   26.1351 C   0  0  0  0  0  0
  -27.0388  -30.2915   24.6335 C   0  0  0  0  0  0
  -27.6038  -32.4327   25.7475 C   0  0  0  0  0  0
  -27.5577  -37.1767   24.8453 C   0  0  0  0  0  0
  -21.4293  -29.3045   22.3580 N   0  0  0  0  0  0
  -26.4285  -37.3728   23.9401 N   0  0  0  0  0  0
  -24.7345  -31.0065   22.0851 N   0  0  0  0  0  0
  -23.4206  -28.8038   23.3031 O   0  0  0  0  0  0
  -28.2545  -25.9809   20.2498 O   0  0  0  0  0  0
  -26.5696  -34.8906   22.4614 O   0  0  0  0  0  0
  -23.5620  -32.1268   23.6906 O   0  0  0  0  0  0
  -28.7375  -20.4779   21.4891 C   0  0  0  0  0  0
  -28.9407  -19.0246   21.5150 C   0  0  0  0  0  0
  -29.0525  -21.3512   20.3826 C   0  0  0  0  0  0
  -29.5062  -18.2271   20.4516 C   0  0  0  0  0  0
  -29.5937  -20.4824   19.3441 C   0  0  0  0  0  0
  -30.0761  -21.1233   18.0587 C   0  0  0  0  0  0
  -29.1020  -23.0684   20.4650 C   0  0  0  0  0  0
  -29.3893  -16.5148   20.3815 C   0  0  0  0  0  0
  -28.0233  -24.3936   20.0949 C   0  0  0  0  0  0
  -29.7702  -19.0692   19.3711 N   0  0  0  0  0  0
  -31.4832  -12.9009   19.2005 H   0  0  0  0  0  0
  -30.5020  -11.7593   20.0748 H   0  0  0  0  0  0
  -29.8914  -11.7535   17.6268 H   0  0  0  0  0  0
  -29.5943  -13.4725   17.6848 H   0  0  0  0  0  0
  -28.0015  -11.2700   19.0205 H   0  0  0  0  0  0
  -27.4152  -12.4012   17.8264 H   0  0  0  0  0  0
  -27.5679  -14.2408   19.3729 H   0  0  0  0  0  0
  -28.7884  -12.3579   21.4455 H   0  0  0  0  0  0
  -28.3304  -14.0132   21.7465 H   0  0  0  0  0  0
  -25.2775   -9.5685   22.4730 H   0  0  0  0  0  0
  -24.0002   -7.4639   22.7488 H   0  0  0  0  0  0
  -21.0835   -8.8789   19.8955 H   0  0  0  0  0  0
  -22.3714  -10.9666   19.6155 H   0  0  0  0  0  0
  -21.2010   -7.6141   23.9717 H   0  0  0  0  0  0
  -21.1492   -6.0517   25.9079 H   0  0  0  0  0  0
  -22.0591   -2.7603   23.2852 H   0  0  0  0  0  0
  -22.4074  -11.9849   22.4810 H   0  0  0  0  0  0
  -21.1066  -13.1223   22.2670 H   0  0  0  0  0  0
  -24.6454  -15.8473   20.5336 H   0  0  0  0  0  0
  -26.2610  -15.6397   20.0928 H   0  0  0  0  0  0
  -26.7300  -32.5205   23.0907 H   0  0  0  0  0  0
  -25.0036  -33.9548   25.0218 H   0  0  0  0  0  0
  -22.7705  -31.2720   21.3581 H   0  0  0  0  0  0
  -23.3764  -35.9565   23.3270 H   0  0  0  0  0  0
  -24.3570  -36.8921   22.2056 H   0  0  0  0  0  0
  -23.7243  -37.6423   23.6714 H   0  0  0  0  0  0
  -26.1867  -31.4134   20.6072 H   0  0  0  0  0  0
  -26.8934  -30.7317   22.0340 H   0  0  0  0  0  0
  -28.1451  -28.6936   21.2553 H   0  0  0  0  0  0
  -25.9082  -25.7705   19.0134 H   0  0  0  0  0  0
  -23.9965  -27.2682   18.9686 H   0  0  0  0  0  0
  -23.8321  -30.5257   19.3869 H   0  0  0  0  0  0
  -22.8083  -29.2004   19.8458 H   0  0  0  0  0  0
  -25.1317  -36.1813   25.0792 H   0  0  0  0  0  0
  -21.0013  -28.3346   24.1340 H   0  0  0  0  0  0
  -20.5693  -26.2350   23.3632 H   0  0  0  0  0  0
  -21.6655  -26.7431   22.1194 H   0  0  0  0  0  0
  -19.6934  -25.6281   21.1270 H   0  0  0  0  0  0
  -19.6713  -27.3172   20.6720 H   0  0  0  0  0  0
  -17.4218  -26.6669   21.4038 H   0  0  0  0  0  0
  -18.0353  -26.0098   22.9040 H   0  0  0  0  0  0
  -19.7948  -30.7327   24.2189 H   0  0  0  0  0  0
  -17.5020  -31.6269   24.5161 H   0  0  0  0  0  0
  -15.5362  -30.2955   23.7712 H   0  0  0  0  0  0
  -15.8696  -28.0819   22.7069 H   0  0  0  0  0  0
  -24.5851  -30.7127   25.7655 H   0  0  0  0  0  0
  -24.8856  -32.2972   26.4681 H   0  0  0  0  0  0
  -25.7908  -30.8991   27.0190 H   0  0  0  0  0  0
  -26.3015  -29.6616   24.1343 H   0  0  0  0  0  0
  -27.3947  -29.7244   25.4946 H   0  0  0  0  0  0
  -27.8953  -30.4105   23.9697 H   0  0  0  0  0  0
  -27.2617  -33.3657   26.1974 H   0  0  0  0  0  0
  -28.3893  -32.6840   25.0332 H   0  0  0  0  0  0
  -28.0668  -31.8507   26.5454 H   0  0  0  0  0  0
  -28.2553  -38.0101   24.7525 H   0  0  0  0  0  0
  -28.1115  -36.2625   24.6249 H   0  0  0  0  0  0
  -27.2299  -37.1380   25.8856 H   0  0  0  0  0  0
  -20.9526  -29.8739   21.6728 H   0  0  0  0  0  0
  -26.0142  -38.2785   24.1428 H   0  0  0  0  0  0
  -28.3380  -20.9325   22.3841 H   0  0  0  0  0  0
  -28.5996  -18.4985   22.3968 H   0  0  0  0  0  0
  -29.5280  -22.0410   17.8473 H   0  0  0  0  0  0
  -29.9351  -20.4556   17.2091 H   0  0  0  0  0  0
  -31.1355  -21.3668   18.1319 H   0  0  0  0  0  0
  -30.0234  -23.3186   19.9394 H   0  0  0  0  0  0
  -29.3631  -23.2413   21.5097 H   0  0  0  0  0  0
  -28.8110  -16.3680   19.4704 H   0  0  0  0  0  0
  -28.6769  -16.2861   21.1727 H   0  0  0  0  0  0
  -27.1045  -24.1913   20.6464 H   0  0  0  0  0  0
  -27.7508  -24.2597   19.0488 H   0  0  0  0  0  0
  1 25  1  0  0  0
  1 30  2  0  0  0
  1 78  1  0  0  0
  2  3  1  0  0  0
  2 25  1  0  0  0
  2 81  1  0  0  0
  2 82  1  0  0  0
  3  4  1  0  0  0
  3 83  1  0  0  0
  3 84  1  0  0  0
  4  5  1  0  0  0
  4 85  1  0  0  0
  4 86  1  0  0  0
  5  6  1  0  0  0
  5 26  1  0  0  0
  5 87  1  0  0  0
  6 25  1  0  0  0
  6 88  1  0  0  0
  6 89  1  0  0  0
  7  8  2  0  0  0
  7 26  1  0  0  0
  7 29  1  0  0  0
  8  9  1  0  0  0
  8 22  1  0  0  0
  9 10  1  0  0  0
  9 27  2  0  0  0
 10 11  2  0  0  0
 10 15  1  0  0  0
 11 12  1  0  0  0
 11 90  1  0  0  0
 12 13  2  0  0  0
 12 91  1  0  0  0
 13 14  1  0  0  0
 13 31  1  0  0  0
 14 15  2  0  0  0
 14 92  1  0  0  0
 15 93  1  0  0  0
 16 17  2  0  0  0
 16 21  1  0  0  0
 16 31  1  0  0  0
 17 18  1  0  0  0
 17 94  1  0  0  0
 18 19  2  0  0  0
 18 95  1  0  0  0
 19 20  1  0  0  0
 19 24  1  0  0  0
 20 21  2  0  0  0
 20 96  1  0  0  0
 21 23  1  0  0  0
 22 28  1  0  0  0
 22 32  2  0  0  0
 26 27  1  0  0  0
 28 97  1  0  0  0
 28 98  1  0  0  0
 29 99  1  0  0  0
 29100  1  0  0  0
 33 34  1  0  0  0
 33 66  1  0  0  0
 33 70  2  0  0  0
 34 36  1  0  0  0
 34 59  1  0  0  0
 34101  1  0  0  0
 35 44  2  0  0  0
 35 45  1  0  0  0
 35 68  1  0  0  0
 36 56  1  0  0  0
 36102  1  0  0  0
 37 39  1  0  0  0
 37 47  1  0  0  0
 37 66  1  0  0  0
 37103  1  0  0  0
 38 43  2  0  0  0
 38 46  1  0  0  0
 38 47  1  0  0  0
 39 64  1  0  0  0
 39 67  2  0  0  0
 40 52  1  0  0  0
 40 53  2  0  0  0
 40 58  1  0  0  0
 41104  1  0  0  0
 41105  1  0  0  0
 41106  1  0  0  0
 41 48  1  0  0  0
 42 43  1  0  0  0
 42 66  1  0  0  0
 42107  1  0  0  0
 42108  1  0  0  0
 43 44  1  0  0  0
 44109  1  0  0  0
 45 46  2  0  0  0
 45110  1  0  0  0
 46111  1  0  0  0
 47112  1  0  0  0
 47113  1  0  0  0
 48 56  1  0  0  0
 48 65  1  0  0  0
 48114  1  0  0  0
 49 50  1  0  0  0
 49 53  1  0  0  0
 49 64  1  0  0  0
 49115  1  0  0  0
 50 51  1  0  0  0
 50116  1  0  0  0
 50117  1  0  0  0
 51 52  1  0  0  0
 51118  1  0  0  0
 51119  1  0  0  0
 52120  1  0  0  0
 52121  1  0  0  0
 53 54  1  0  0  0
 54 55  2  0  0  0
 54122  1  0  0  0
 55 57  1  0  0  0
 55123  1  0  0  0
 56 69  2  0  0  0
 57 58  2  0  0  0
 57124  1  0  0  0
 58125  1  0  0  0
 59 60  1  0  0  0
 59 61  1  0  0  0
 59 62  1  0  0  0
 60126  1  0  0  0
 60127  1  0  0  0
 60128  1  0  0  0
 61129  1  0  0  0
 61130  1  0  0  0
 61131  1  0  0  0
 62132  1  0  0  0
 62133  1  0  0  0
 62134  1  0  0  0
 63 65  1  0  0  0
 63135  1  0  0  0
 63136  1  0  0  0
 63137  1  0  0  0
 64138  1  0  0  0
 65139  1  0  0  0
 68 79  1  0  0  0
 71 72  2  0  0  0
 71 73  1  0  0  0
 71140  1  0  0  0
 72 74  1  0  0  0
 72141  1  0  0  0
 73 75  2  0  0  0
 73 77  1  0  0  0
 74 78  1  0  0  0
 74 80  2  0  0  0
 75 76  1  0  0  0
 75 80  1  0  0  0
 76142  1  0  0  0
 76143  1  0  0  0
 76144  1  0  0  0
 77 79  1  0  0  0
 77145  1  0  0  0
 77146  1  0  0  0
 78147  1  0  0  0
 78148  1  0  0  0
 79149  1  0  0  0
 79150  1  0  0  0
M  ISO  4   1 100  68 101  78 100  79 101
M  END
> <chiral flag>
0

> <version>
0

> <s_m_source_file>
/data/baiqing/PycharmProjects/Reinvent-master-3.2/result/LINK_invent/BTK/process_docking_weight1_custom_sum_contain_oxygen_bond_distance_aromatic_linkinvent_7_9_3/rearranged_h_0048.sdf

> <i_m_source_file_index>
92

> <r_mmod_Potential_Energy-OPLS-2005>
818.745849609375

> <r_mmod_Stretch_Energy-OPLS-2005>
406.307281494141

> <r_mmod_Bend_Energy-OPLS-2005>
395.600555419922

> <r_mmod_Torsional_Energy-OPLS-2005>
195.009582519531

> <r_mmod_Improper_Torsional_Energy-OPLS-2005>
10.5851898193359

> <r_mmod_Van_der_Waal_Energy-OPLS-2005>
127.447380065918

> <r_mmod_Electrostatic_Energy-OPLS-2005>
-421.80712890625

> <r_mmod_Solvation_Energy-OPLS-2005>
-222.981979370117

> <b_mmod_Minimization_Converged-OPLS-2005>
0

> <r_mmod_RMS_Derivative-OPLS-2005>
1.88347816467285

$$$$
93
                    3D
 Structure written by MMmdl.
162170  0  0  1  0            999 V2000
  -30.7294  -14.4125   20.5938 C   0  0  0  0  0  0
  -30.4136  -12.2703   19.4269 C   0  0  0  0  0  0
  -29.5041  -12.5097   18.2036 C   0  0  0  0  0  0
  -28.0191  -12.3752   18.6038 C   0  0  0  0  0  0
  -27.6646  -13.1932   19.8758 C   0  0  2  0  0  0
  -28.6988  -12.9360   20.9913 C   0  0  0  0  0  0
  -25.2651  -13.8141   20.5633 C   0  0  0  0  0  0
  -24.1860  -13.0458   20.9098 C   0  0  0  0  0  0
  -24.6374  -11.6908   20.8647 C   0  0  0  0  0  0
  -23.9024  -10.4314   21.0350 C   0  0  0  0  0  0
  -24.3607   -9.4253   21.9151 C   0  0  0  0  0  0
  -23.6300   -8.2277   22.0735 C   0  0  0  0  0  0
  -22.4283   -8.0289   21.3533 C   0  0  0  0  0  0
  -21.9893   -9.0237   20.4614 C   0  0  0  0  0  0
  -22.7203  -10.2126   20.3007 C   0  0  0  0  0  0
  -21.6865   -6.0734   22.5264 C   0  0  0  0  0  0
  -21.3997   -6.5642   23.8191 C   0  0  0  0  0  0
  -21.3655   -5.6793   24.9156 C   0  0  0  0  0  0
  -21.6053   -4.3053   24.7213 C   0  0  0  0  0  0
  -21.8830   -3.8139   23.4335 C   0  0  0  0  0  0
  -21.9213   -4.6964   22.3399 C   0  0  0  0  0  0
  -22.7912  -13.5286   21.1826 C   0  0  0  0  0  0
  -22.1686   -4.2155   21.0978 F   0  0  0  0  0  0
  -21.5645   -3.4532   25.7720 F   0  0  0  0  0  0
  -30.0318  -13.2507   20.4525 N   0  0  0  0  0  0
  -26.3038  -12.9262   20.3306 N   0  0  0  0  0  0
  -25.9283  -11.6432   20.5658 N   0  0  0  0  0  0
  -22.0586  -12.8192   22.0354 N   0  0  0  0  0  0
  -25.4552  -15.1837   20.4093 N   0  0  0  0  0  0
  -31.8533  -14.5670   20.1037 O   0  0  0  0  0  0
  -21.6668   -6.8867   21.4218 O   0  0  0  0  0  0
  -22.3601  -14.5627   20.6767 O   0  0  0  0  0  0
  -24.6145  -31.8678   23.2141 C   0  0  0  0  0  0
  -25.9062  -32.4813   23.8429 C   0  0  1  0  0  0
  -27.2340  -27.4740   20.0870 C   0  0  0  0  0  0
  -25.5951  -33.8615   24.2369 N   0  0  0  0  0  0
  -23.3974  -30.4904   21.5549 C   0  0  2  0  0  0
  -24.8413  -28.9571   20.1190 C   0  0  0  0  0  0
  -22.7394  -29.4656   22.5061 C   0  0  0  0  0  0
  -18.0249  -28.1374   22.8498 C   0  0  0  0  0  0
  -24.1464  -36.7303   23.2637 C   0  0  0  0  0  0
  -25.9213  -30.8470   21.3558 C   0  0  0  0  0  0
  -25.9999  -29.4841   20.7036 C   0  0  0  0  0  0
  -27.2035  -28.7498   20.6827 C   0  0  0  0  0  0
  -26.0599  -26.9431   19.5126 C   0  0  0  0  0  0
  -24.8627  -27.6826   19.5249 C   0  0  0  0  0  0
  -23.5986  -29.8144   20.1713 C   0  0  0  0  0  0
  -25.4081  -36.3106   24.0351 C   0  0  1  0  0  0
  -20.5836  -28.3638   23.1346 C   0  0  2  0  0  0
  -20.6734  -26.9387   22.5415 C   0  0  0  0  0  0
  -19.5711  -26.6356   21.5225 C   0  0  0  0  0  0
  -18.1885  -26.7937   22.1601 C   0  0  0  0  0  0
  -19.1503  -28.8828   23.2904 C   0  0  0  0  0  0
  -18.9429  -30.1456   23.8875 C   0  0  0  0  0  0
  -17.6437  -30.6591   24.0539 C   0  0  0  0  0  0
  -25.9027  -34.9478   23.5132 C   0  0  0  0  0  0
  -16.5325  -29.9069   23.6354 C   0  0  0  0  0  0
  -16.7244  -28.6486   23.0376 C   0  0  0  0  0  0
  -26.4510  -31.6606   25.0761 C   0  0  0  0  0  0
  -25.3809  -31.3695   26.1543 C   0  0  0  0  0  0
  -27.0355  -30.3063   24.6114 C   0  0  0  0  0  0
  -27.6074  -32.4345   25.7528 C   0  0  0  0  0  0
  -27.5584  -37.1775   24.8443 C   0  0  0  0  0  0
  -21.4126  -29.3018   22.3788 N   0  0  0  0  0  0
  -26.4257  -37.3800   23.9455 N   0  0  0  0  0  0
  -24.6627  -31.0825   22.1005 N   0  0  0  0  0  0
  -23.4186  -28.8208   23.3096 O   0  0  0  0  0  0
  -28.3963  -26.7474   20.1013 O   0  0  0  0  0  0
  -26.5532  -34.8927   22.4668 O   0  0  0  0  0  0
  -23.5352  -32.1411   23.7573 O   0  0  0  0  0  0
  -28.7246  -18.7039   20.9779 C   0  0  0  0  0  0
  -27.6483  -19.3413   20.3062 C   0  0  0  0  0  0
  -29.0820  -17.6734   20.1588 C   0  0  0  0  0  0
  -28.1484  -16.8205   17.9300 C   0  0  0  0  0  0
  -29.7035  -15.6776   22.4181 C   0  0  0  0  0  0
  -27.0077  -20.6482   20.6804 C   0  0  0  0  0  0
  -30.2577  -16.7509   20.2551 C   0  0  0  0  0  0
  -27.7563  -21.8178   20.0177 C   0  0  0  0  0  0
  -27.4962  -23.1726   20.6851 C   0  0  0  0  0  0
  -28.3150  -24.3015   20.0403 C   0  0  0  0  0  0
  -28.3071  -25.5716   20.9014 C   0  0  0  0  0  0
  -27.3163  -18.7126   19.1877 N   0  0  0  0  0  0
  -28.1950  -17.6866   19.0939 N   0  0  0  0  0  0
  -30.0218  -15.4951   20.9945 N   0  0  0  0  0  0
  -31.4675  -12.3334   19.1501 H   0  0  0  0  0  0
  -30.2756  -11.2582   19.8098 H   0  0  0  0  0  0
  -29.7461  -11.7966   17.4147 H   0  0  0  0  0  0
  -29.6909  -13.5007   17.7857 H   0  0  0  0  0  0
  -27.8175  -11.3186   18.7790 H   0  0  0  0  0  0
  -27.3775  -12.6638   17.7710 H   0  0  0  0  0  0
  -27.7181  -14.2458   19.6103 H   0  0  0  0  0  0
  -28.6637  -11.8862   21.2830 H   0  0  0  0  0  0
  -28.4513  -13.4855   21.8962 H   0  0  0  0  0  0
  -25.2754   -9.5769   22.4711 H   0  0  0  0  0  0
  -24.0033   -7.4683   22.7455 H   0  0  0  0  0  0
  -21.0835   -8.8724   19.8916 H   0  0  0  0  0  0
  -22.3650  -10.9648   19.6098 H   0  0  0  0  0  0
  -21.1944   -7.6144   23.9690 H   0  0  0  0  0  0
  -21.1474   -6.0517   25.9058 H   0  0  0  0  0  0
  -22.0609   -2.7601   23.2831 H   0  0  0  0  0  0
  -22.4245  -11.9767   22.4532 H   0  0  0  0  0  0
  -21.1240  -13.1193   22.2715 H   0  0  0  0  0  0
  -24.7106  -15.8627   20.5081 H   0  0  0  0  0  0
  -26.3351  -15.6003   20.1339 H   0  0  0  0  0  0
  -26.7147  -32.5527   23.1208 H   0  0  0  0  0  0
  -25.0301  -33.9776   25.0647 H   0  0  0  0  0  0
  -22.6871  -31.3079   21.4173 H   0  0  0  0  0  0
  -23.3754  -35.9600   23.3217 H   0  0  0  0  0  0
  -24.3591  -36.8983   22.2069 H   0  0  0  0  0  0
  -23.7160  -37.6462   23.6694 H   0  0  0  0  0  0
  -26.0223  -31.6107   20.5835 H   0  0  0  0  0  0
  -26.8152  -30.9034   21.9662 H   0  0  0  0  0  0
  -28.1006  -29.1482   21.1363 H   0  0  0  0  0  0
  -26.0681  -25.9589   19.0669 H   0  0  0  0  0  0
  -23.9681  -27.2627   19.0860 H   0  0  0  0  0  0
  -23.6928  -30.5805   19.4014 H   0  0  0  0  0  0
  -22.7258  -29.2212   19.8906 H   0  0  0  0  0  0
  -25.1238  -36.1943   25.0835 H   0  0  0  0  0  0
  -20.9911  -28.3160   24.1474 H   0  0  0  0  0  0
  -20.5634  -26.2245   23.3585 H   0  0  0  0  0  0
  -21.6600  -26.7427   22.1199 H   0  0  0  0  0  0
  -19.6837  -25.6256   21.1269 H   0  0  0  0  0  0
  -19.6671  -27.3140   20.6747 H   0  0  0  0  0  0
  -17.4181  -26.6757   21.3970 H   0  0  0  0  0  0
  -18.0206  -26.0058   22.8952 H   0  0  0  0  0  0
  -19.7916  -30.7286   24.2200 H   0  0  0  0  0  0
  -17.4997  -31.6292   24.5107 H   0  0  0  0  0  0
  -15.5325  -30.2955   23.7726 H   0  0  0  0  0  0
  -15.8633  -28.0805   22.7117 H   0  0  0  0  0  0
  -24.5972  -30.7033   25.7928 H   0  0  0  0  0  0
  -24.9032  -32.2843   26.5063 H   0  0  0  0  0  0
  -25.8223  -30.8854   27.0263 H   0  0  0  0  0  0
  -26.2880  -29.6783   24.1253 H   0  0  0  0  0  0
  -27.4235  -29.7349   25.4557 H   0  0  0  0  0  0
  -27.8666  -30.4410   23.9183 H   0  0  0  0  0  0
  -27.2680  -33.3642   26.2108 H   0  0  0  0  0  0
  -28.3901  -32.6900   25.0375 H   0  0  0  0  0  0
  -28.0728  -31.8478   26.5452 H   0  0  0  0  0  0
  -28.2502  -38.0171   24.7651 H   0  0  0  0  0  0
  -28.1178  -36.2724   24.6048 H   0  0  0  0  0  0
  -27.2347  -37.1131   25.8843 H   0  0  0  0  0  0
  -20.9295  -29.8797   21.7055 H   0  0  0  0  0  0
  -26.0130  -38.2846   24.1560 H   0  0  0  0  0  0
  -29.2200  -19.0181   21.8856 H   0  0  0  0  0  0
  -28.8608  -17.1667   17.1804 H   0  0  0  0  0  0
  -27.1464  -16.8087   17.4966 H   0  0  0  0  0  0
  -28.4150  -15.8037   18.2093 H   0  0  0  0  0  0
  -28.6271  -15.6204   22.5834 H   0  0  0  0  0  0
  -30.0354  -16.6511   22.7817 H   0  0  0  0  0  0
  -30.1854  -14.9258   23.0487 H   0  0  0  0  0  0
  -27.0327  -20.7599   21.7654 H   0  0  0  0  0  0
  -25.9529  -20.6699   20.4033 H   0  0  0  0  0  0
  -31.0869  -17.2805   20.7261 H   0  0  0  0  0  0
  -30.6059  -16.5510   19.2391 H   0  0  0  0  0  0
  -27.5141  -21.8561   18.9551 H   0  0  0  0  0  0
  -28.8285  -21.6257   20.0774 H   0  0  0  0  0  0
  -27.7410  -23.1066   21.7464 H   0  0  0  0  0  0
  -26.4364  -23.4207   20.6307 H   0  0  0  0  0  0
  -27.9206  -24.5011   19.0435 H   0  0  0  0  0  0
  -29.3481  -23.9846   19.8962 H   0  0  0  0  0  0
  -29.1543  -25.5531   21.5879 H   0  0  0  0  0  0
  -27.4206  -25.5890   21.5394 H   0  0  0  0  0  0
  1 25  1  0  0  0
  1 30  2  0  0  0
  1 84  1  0  0  0
  2  3  1  0  0  0
  2 25  1  0  0  0
  2 85  1  0  0  0
  2 86  1  0  0  0
  3  4  1  0  0  0
  3 87  1  0  0  0
  3 88  1  0  0  0
  4  5  1  0  0  0
  4 89  1  0  0  0
  4 90  1  0  0  0
  5  6  1  0  0  0
  5 26  1  0  0  0
  5 91  1  0  0  0
  6 25  1  0  0  0
  6 92  1  0  0  0
  6 93  1  0  0  0
  7  8  2  0  0  0
  7 26  1  0  0  0
  7 29  1  0  0  0
  8  9  1  0  0  0
  8 22  1  0  0  0
  9 10  1  0  0  0
  9 27  2  0  0  0
 10 11  2  0  0  0
 10 15  1  0  0  0
 11 12  1  0  0  0
 11 94  1  0  0  0
 12 13  2  0  0  0
 12 95  1  0  0  0
 13 14  1  0  0  0
 13 31  1  0  0  0
 14 15  2  0  0  0
 14 96  1  0  0  0
 15 97  1  0  0  0
 16 17  2  0  0  0
 16 21  1  0  0  0
 16 31  1  0  0  0
 17 18  1  0  0  0
 17 98  1  0  0  0
 18 19  2  0  0  0
 18 99  1  0  0  0
 19 20  1  0  0  0
 19 24  1  0  0  0
 20 21  2  0  0  0
 20100  1  0  0  0
 21 23  1  0  0  0
 22 28  1  0  0  0
 22 32  2  0  0  0
 26 27  1  0  0  0
 28101  1  0  0  0
 28102  1  0  0  0
 29103  1  0  0  0
 29104  1  0  0  0
 33 34  1  0  0  0
 33 66  1  0  0  0
 33 70  2  0  0  0
 34 36  1  0  0  0
 34 59  1  0  0  0
 34105  1  0  0  0
 35 44  2  0  0  0
 35 45  1  0  0  0
 35 68  1  0  0  0
 36 56  1  0  0  0
 36106  1  0  0  0
 37 39  1  0  0  0
 37 47  1  0  0  0
 37 66  1  0  0  0
 37107  1  0  0  0
 38 43  2  0  0  0
 38 46  1  0  0  0
 38 47  1  0  0  0
 39 64  1  0  0  0
 39 67  2  0  0  0
 40 52  1  0  0  0
 40 53  2  0  0  0
 40 58  1  0  0  0
 41108  1  0  0  0
 41109  1  0  0  0
 41110  1  0  0  0
 41 48  1  0  0  0
 42 43  1  0  0  0
 42 66  1  0  0  0
 42111  1  0  0  0
 42112  1  0  0  0
 43 44  1  0  0  0
 44113  1  0  0  0
 45 46  2  0  0  0
 45114  1  0  0  0
 46115  1  0  0  0
 47116  1  0  0  0
 47117  1  0  0  0
 48 56  1  0  0  0
 48 65  1  0  0  0
 48118  1  0  0  0
 49 50  1  0  0  0
 49 53  1  0  0  0
 49 64  1  0  0  0
 49119  1  0  0  0
 50 51  1  0  0  0
 50120  1  0  0  0
 50121  1  0  0  0
 51 52  1  0  0  0
 51122  1  0  0  0
 51123  1  0  0  0
 52124  1  0  0  0
 52125  1  0  0  0
 53 54  1  0  0  0
 54 55  2  0  0  0
 54126  1  0  0  0
 55 57  1  0  0  0
 55127  1  0  0  0
 56 69  2  0  0  0
 57 58  2  0  0  0
 57128  1  0  0  0
 58129  1  0  0  0
 59 60  1  0  0  0
 59 61  1  0  0  0
 59 62  1  0  0  0
 60130  1  0  0  0
 60131  1  0  0  0
 60132  1  0  0  0
 61133  1  0  0  0
 61134  1  0  0  0
 61135  1  0  0  0
 62136  1  0  0  0
 62137  1  0  0  0
 62138  1  0  0  0
 63 65  1  0  0  0
 63139  1  0  0  0
 63140  1  0  0  0
 63141  1  0  0  0
 64142  1  0  0  0
 65143  1  0  0  0
 68 81  1  0  0  0
 71 72  1  0  0  0
 71 73  2  0  0  0
 71144  1  0  0  0
 72 76  1  0  0  0
 72 82  2  0  0  0
 73 77  1  0  0  0
 73 83  1  0  0  0
 74 83  1  0  0  0
 74145  1  0  0  0
 74146  1  0  0  0
 74147  1  0  0  0
 75 84  1  0  0  0
 75148  1  0  0  0
 75149  1  0  0  0
 75150  1  0  0  0
 76 78  1  0  0  0
 76151  1  0  0  0
 76152  1  0  0  0
 77 84  1  0  0  0
 77153  1  0  0  0
 77154  1  0  0  0
 78 79  1  0  0  0
 78155  1  0  0  0
 78156  1  0  0  0
 79 80  1  0  0  0
 79157  1  0  0  0
 79158  1  0  0  0
 80 81  1  0  0  0
 80159  1  0  0  0
 80160  1  0  0  0
 81161  1  0  0  0
 81162  1  0  0  0
 82 83  1  0  0  0
M  ISO  4   1 100  68 101  81 101  84 100
M  END
> <chiral flag>
0

> <version>
0

> <s_m_source_file>
/data/baiqing/PycharmProjects/Reinvent-master-3.2/result/LINK_invent/BTK/process_docking_weight1_custom_sum_contain_oxygen_bond_distance_aromatic_linkinvent_7_9_3/rearranged_h_0048.sdf

> <i_m_source_file_index>
93

> <r_mmod_Potential_Energy-OPLS-2005>
2.09621977806091

> <r_mmod_Stretch_Energy-OPLS-2005>
32.0731201171875

> <r_mmod_Bend_Energy-OPLS-2005>
93.7230758666992

> <r_mmod_Torsional_Energy-OPLS-2005>
282.786437988281

> <r_mmod_Improper_Torsional_Energy-OPLS-2005>
11.5912084579468

> <r_mmod_Van_der_Waal_Energy-OPLS-2005>
124.503044128418

> <r_mmod_Electrostatic_Energy-OPLS-2005>
-356.387084960938

> <r_mmod_Solvation_Energy-OPLS-2005>
-196.735900878906

> <b_mmod_Minimization_Converged-OPLS-2005>
0

> <r_mmod_RMS_Derivative-OPLS-2005>
3.24326062202454

$$$$
94
                    3D
 Structure written by MMmdl.
157165  0  0  1  0            999 V2000
  -30.5280  -15.0071   20.3466 C   0  0  0  0  0  0
  -30.4424  -12.6169   19.4811 C   0  0  0  0  0  0
  -29.5177  -12.4826   18.2492 C   0  0  0  0  0  0
  -28.0519  -12.2736   18.6820 C   0  0  0  0  0  0
  -27.6157  -13.2263   19.8257 C   0  0  2  0  0  0
  -28.6706  -13.3270   20.9457 C   0  0  0  0  0  0
  -25.2468  -13.8145   20.5773 C   0  0  0  0  0  0
  -24.1755  -13.0404   20.9251 C   0  0  0  0  0  0
  -24.6346  -11.6882   20.8788 C   0  0  0  0  0  0
  -23.9034  -10.4273   21.0428 C   0  0  0  0  0  0
  -24.3599   -9.4191   21.9198 C   0  0  0  0  0  0
  -23.6284   -8.2224   22.0757 C   0  0  0  0  0  0
  -22.4267   -8.0267   21.3544 C   0  0  0  0  0  0
  -21.9896   -9.0239   20.4648 C   0  0  0  0  0  0
  -22.7217  -10.2121   20.3065 C   0  0  0  0  0  0
  -21.6849   -6.0734   22.5282 C   0  0  0  0  0  0
  -21.4010   -6.5641   23.8214 C   0  0  0  0  0  0
  -21.3653   -5.6794   24.9176 C   0  0  0  0  0  0
  -21.6037   -4.3057   24.7226 C   0  0  0  0  0  0
  -21.8824   -3.8149   23.4349 C   0  0  0  0  0  0
  -21.9195   -4.6964   22.3405 C   0  0  0  0  0  0
  -22.7786  -13.5208   21.1889 C   0  0  0  0  0  0
  -22.1665   -4.2152   21.0984 F   0  0  0  0  0  0
  -21.5623   -3.4540   25.7739 F   0  0  0  0  0  0
  -29.9282  -13.7433   20.3088 N   0  0  0  0  0  0
  -26.2840  -12.9308   20.3291 N   0  0  0  0  0  0
  -25.9267  -11.6471   20.5789 N   0  0  0  0  0  0
  -22.0426  -12.8207   22.0444 N   0  0  0  0  0  0
  -25.4198  -15.1875   20.4242 N   0  0  0  0  0  0
  -31.7630  -15.0311   20.2884 O   0  0  0  0  0  0
  -21.6632   -6.8867   21.4240 O   0  0  0  0  0  0
  -22.3490  -14.5516   20.6725 O   0  0  0  0  0  0
  -24.6444  -31.8421   23.1845 C   0  0  0  0  0  0
  -25.9210  -32.4689   23.8242 C   0  0  1  0  0  0
  -27.2244  -27.1269   20.1674 C   0  0  0  0  0  0
  -25.5952  -33.8495   24.2169 N   0  0  0  0  0  0
  -23.4480  -30.4584   21.5298 C   0  0  2  0  0  0
  -24.8978  -28.8722   20.1174 C   0  0  0  0  0  0
  -22.7561  -29.4542   22.4853 C   0  0  0  0  0  0
  -18.0304  -28.1409   22.8478 C   0  0  0  0  0  0
  -24.1485  -36.7247   23.2642 C   0  0  0  0  0  0
  -26.0022  -30.7149   21.3805 C   0  0  0  0  0  0
  -26.0748  -29.3214   20.7297 C   0  0  0  0  0  0
  -27.2403  -28.4676   20.7292 C   0  0  0  0  0  0
  -26.0198  -26.7684   19.5293 C   0  0  0  0  0  0
  -24.8825  -27.6088   19.5014 C   0  0  0  0  0  0
  -23.6760  -29.7781   20.1528 C   0  0  0  0  0  0
  -25.4120  -36.3024   24.0313 C   0  0  1  0  0  0
  -20.5913  -28.3732   23.1234 C   0  0  2  0  0  0
  -20.6788  -26.9434   22.5408 C   0  0  0  0  0  0
  -19.5765  -26.6389   21.5216 C   0  0  0  0  0  0
  -18.1943  -26.7945   22.1622 C   0  0  0  0  0  0
  -19.1561  -28.8887   23.2849 C   0  0  0  0  0  0
  -18.9480  -30.1481   23.8880 C   0  0  0  0  0  0
  -17.6479  -30.6605   24.0564 C   0  0  0  0  0  0
  -25.9075  -34.9407   23.5051 C   0  0  0  0  0  0
  -16.5367  -29.9101   23.6344 C   0  0  0  0  0  0
  -16.7288  -28.6521   23.0360 C   0  0  0  0  0  0
  -26.4528  -31.6565   25.0693 C   0  0  0  0  0  0
  -25.3711  -31.3767   26.1389 C   0  0  0  0  0  0
  -27.0400  -30.2963   24.6277 C   0  0  0  0  0  0
  -27.6053  -32.4336   25.7484 C   0  0  0  0  0  0
  -27.5569  -37.1777   24.8468 C   0  0  0  0  0  0
  -21.4254  -29.3049   22.3598 N   0  0  0  0  0  0
  -26.4277  -37.3744   23.9414 N   0  0  0  0  0  0
  -24.7182  -31.0271   22.0874 N   0  0  0  0  0  0
  -23.4199  -28.8099   23.3017 O   0  0  0  0  0  0
  -28.3123  -26.1825   20.1749 O   0  0  0  0  0  0
  -26.5661  -34.8911   22.4630 O   0  0  0  0  0  0
  -23.5562  -32.1296   23.7067 O   0  0  0  0  0  0
  -28.5436  -23.4782   17.0751 C   0  0  0  0  0  0
  -28.8594  -22.1168   17.0474 C   0  0  0  0  0  0
  -28.8785  -21.9860   19.3992 C   0  0  0  0  0  0
  -28.5390  -23.4845   19.4225 C   0  0  0  0  0  0
  -29.0224  -21.3815   15.7344 C   0  0  0  0  0  0
  -28.9833  -16.2865   18.9347 C   0  0  0  0  0  0
  -29.2320  -20.7606   20.4503 C   0  0  0  0  0  0
  -28.2028  -24.6523   20.5142 C   0  0  0  0  0  0
  -29.2909  -19.1181   19.9448 C   0  0  0  0  0  0
  -29.9480  -17.7238   20.6885 C   0  0  0  0  0  0
  -28.3908  -24.1339   18.2372 N   0  0  0  0  0  0
  -29.0269  -21.4062   18.1783 N   0  0  0  0  0  0
  -29.7603  -16.2209   20.1769 N   0  0  0  0  0  0
  -31.4694  -12.7921   19.1566 H   0  0  0  0  0  0
  -30.4601  -11.6908   20.0584 H   0  0  0  0  0  0
  -29.8420  -11.6473   17.6271 H   0  0  0  0  0  0
  -29.6009  -13.3680   17.6202 H   0  0  0  0  0  0
  -27.9604  -11.2403   19.0187 H   0  0  0  0  0  0
  -27.3836  -12.3720   17.8257 H   0  0  0  0  0  0
  -27.5272  -14.1998   19.3607 H   0  0  0  0  0  0
  -28.7850  -12.3780   21.4714 H   0  0  0  0  0  0
  -28.3652  -14.0658   21.6887 H   0  0  0  0  0  0
  -25.2742   -9.5677   22.4773 H   0  0  0  0  0  0
  -23.9999   -7.4616   22.7472 H   0  0  0  0  0  0
  -21.0827   -8.8753   19.8954 H   0  0  0  0  0  0
  -22.3673  -10.9664   19.6179 H   0  0  0  0  0  0
  -21.2003   -7.6150   23.9717 H   0  0  0  0  0  0
  -21.1463   -6.0524   25.9076 H   0  0  0  0  0  0
  -22.0609   -2.7614   23.2851 H   0  0  0  0  0  0
  -22.4043  -11.9872   22.4839 H   0  0  0  0  0  0
  -21.1041  -13.1230   22.2638 H   0  0  0  0  0  0
  -24.6609  -15.8480   20.5521 H   0  0  0  0  0  0
  -26.2881  -15.6291   20.1508 H   0  0  0  0  0  0
  -26.7276  -32.5294   23.0972 H   0  0  0  0  0  0
  -25.0097  -33.9608   25.0312 H   0  0  0  0  0  0
  -22.7517  -31.2844   21.3695 H   0  0  0  0  0  0
  -23.3754  -35.9572   23.3298 H   0  0  0  0  0  0
  -24.3562  -36.8888   22.2057 H   0  0  0  0  0  0
  -23.7238  -37.6438   23.6689 H   0  0  0  0  0  0
  -26.1534  -31.4648   20.6026 H   0  0  0  0  0  0
  -26.8744  -30.7715   22.0202 H   0  0  0  0  0  0
  -28.1441  -28.8133   21.2112 H   0  0  0  0  0  0
  -25.9494  -25.7991   19.0553 H   0  0  0  0  0  0
  -23.9831  -27.2591   19.0130 H   0  0  0  0  0  0
  -23.8160  -30.5479   19.3929 H   0  0  0  0  0  0
  -22.7903  -29.2204   19.8427 H   0  0  0  0  0  0
  -25.1309  -36.1843   25.0805 H   0  0  0  0  0  0
  -21.0010  -28.3334   24.1353 H   0  0  0  0  0  0
  -20.5688  -26.2348   23.3630 H   0  0  0  0  0  0
  -21.6654  -26.7446   22.1201 H   0  0  0  0  0  0
  -19.6932  -25.6293   21.1264 H   0  0  0  0  0  0
  -19.6709  -27.3186   20.6733 H   0  0  0  0  0  0
  -17.4212  -26.6693   21.4025 H   0  0  0  0  0  0
  -18.0342  -26.0094   22.9023 H   0  0  0  0  0  0
  -19.7958  -30.7300   24.2240 H   0  0  0  0  0  0
  -17.5038  -31.6284   24.5168 H   0  0  0  0  0  0
  -15.5371  -30.3001   23.7685 H   0  0  0  0  0  0
  -15.8683  -28.0838   22.7084 H   0  0  0  0  0  0
  -24.5877  -30.7135   25.7695 H   0  0  0  0  0  0
  -24.8916  -32.2960   26.4763 H   0  0  0  0  0  0
  -25.7979  -30.8958   27.0199 H   0  0  0  0  0  0
  -26.3023  -29.6677   24.1276 H   0  0  0  0  0  0
  -27.4010  -29.7271   25.4852 H   0  0  0  0  0  0
  -27.8926  -30.4195   23.9596 H   0  0  0  0  0  0
  -27.2637  -33.3651   26.2013 H   0  0  0  0  0  0
  -28.3888  -32.6880   25.0333 H   0  0  0  0  0  0
  -28.0699  -31.8501   26.5441 H   0  0  0  0  0  0
  -28.2581  -38.0074   24.7502 H   0  0  0  0  0  0
  -28.1064  -36.2603   24.6303 H   0  0  0  0  0  0
  -27.2287  -37.1437   25.8870 H   0  0  0  0  0  0
  -20.9474  -29.8744   21.6754 H   0  0  0  0  0  0
  -26.0140  -38.2809   24.1421 H   0  0  0  0  0  0
  -28.4084  -24.0440   16.1647 H   0  0  0  0  0  0
  -28.0501  -21.2306   15.2654 H   0  0  0  0  0  0
  -29.4909  -20.4077   15.8761 H   0  0  0  0  0  0
  -29.6435  -21.9609   15.0509 H   0  0  0  0  0  0
  -27.9406  -16.5232   19.1443 H   0  0  0  0  0  0
  -29.0144  -15.3737   18.3447 H   0  0  0  0  0  0
  -29.3790  -17.0492   18.2656 H   0  0  0  0  0  0
  -28.5343  -20.8395   21.2843 H   0  0  0  0  0  0
  -30.2067  -21.0084   20.8712 H   0  0  0  0  0  0
  -28.8583  -24.4747   21.3663 H   0  0  0  0  0  0
  -27.1959  -24.4619   20.8869 H   0  0  0  0  0  0
  -29.8190  -19.1433   18.9926 H   0  0  0  0  0  0
  -28.2616  -18.8745   19.6822 H   0  0  0  0  0  0
  -29.5830  -17.7154   21.7159 H   0  0  0  0  0  0
  -31.0238  -17.8798   20.7822 H   0  0  0  0  0  0
  1 25  1  0  0  0
  1 30  2  0  0  0
  1 83  1  0  0  0
  2  3  1  0  0  0
  2 25  1  0  0  0
  2 84  1  0  0  0
  2 85  1  0  0  0
  3  4  1  0  0  0
  3 86  1  0  0  0
  3 87  1  0  0  0
  4  5  1  0  0  0
  4 88  1  0  0  0
  4 89  1  0  0  0
  5  6  1  0  0  0
  5 26  1  0  0  0
  5 90  1  0  0  0
  6 25  1  0  0  0
  6 91  1  0  0  0
  6 92  1  0  0  0
  7  8  2  0  0  0
  7 26  1  0  0  0
  7 29  1  0  0  0
  8  9  1  0  0  0
  8 22  1  0  0  0
  9 10  1  0  0  0
  9 27  2  0  0  0
 10 11  2  0  0  0
 10 15  1  0  0  0
 11 12  1  0  0  0
 11 93  1  0  0  0
 12 13  2  0  0  0
 12 94  1  0  0  0
 13 14  1  0  0  0
 13 31  1  0  0  0
 14 15  2  0  0  0
 14 95  1  0  0  0
 15 96  1  0  0  0
 16 17  2  0  0  0
 16 21  1  0  0  0
 16 31  1  0  0  0
 17 18  1  0  0  0
 17 97  1  0  0  0
 18 19  2  0  0  0
 18 98  1  0  0  0
 19 20  1  0  0  0
 19 24  1  0  0  0
 20 21  2  0  0  0
 20 99  1  0  0  0
 21 23  1  0  0  0
 22 28  1  0  0  0
 22 32  2  0  0  0
 26 27  1  0  0  0
 28100  1  0  0  0
 28101  1  0  0  0
 29102  1  0  0  0
 29103  1  0  0  0
 33 34  1  0  0  0
 33 66  1  0  0  0
 33 70  2  0  0  0
 34 36  1  0  0  0
 34 59  1  0  0  0
 34104  1  0  0  0
 35 44  2  0  0  0
 35 45  1  0  0  0
 35 68  1  0  0  0
 36 56  1  0  0  0
 36105  1  0  0  0
 37 39  1  0  0  0
 37 47  1  0  0  0
 37 66  1  0  0  0
 37106  1  0  0  0
 38 43  2  0  0  0
 38 46  1  0  0  0
 38 47  1  0  0  0
 39 64  1  0  0  0
 39 67  2  0  0  0
 40 52  1  0  0  0
 40 53  2  0  0  0
 40 58  1  0  0  0
 41107  1  0  0  0
 41108  1  0  0  0
 41109  1  0  0  0
 41 48  1  0  0  0
 42 43  1  0  0  0
 42 66  1  0  0  0
 42110  1  0  0  0
 42111  1  0  0  0
 43 44  1  0  0  0
 44112  1  0  0  0
 45 46  2  0  0  0
 45113  1  0  0  0
 46114  1  0  0  0
 47115  1  0  0  0
 47116  1  0  0  0
 48 56  1  0  0  0
 48 65  1  0  0  0
 48117  1  0  0  0
 49 50  1  0  0  0
 49 53  1  0  0  0
 49 64  1  0  0  0
 49118  1  0  0  0
 50 51  1  0  0  0
 50119  1  0  0  0
 50120  1  0  0  0
 51 52  1  0  0  0
 51121  1  0  0  0
 51122  1  0  0  0
 52123  1  0  0  0
 52124  1  0  0  0
 53 54  1  0  0  0
 54 55  2  0  0  0
 54125  1  0  0  0
 55 57  1  0  0  0
 55126  1  0  0  0
 56 69  2  0  0  0
 57 58  2  0  0  0
 57127  1  0  0  0
 58128  1  0  0  0
 59 60  1  0  0  0
 59 61  1  0  0  0
 59 62  1  0  0  0
 60129  1  0  0  0
 60130  1  0  0  0
 60131  1  0  0  0
 61132  1  0  0  0
 61133  1  0  0  0
 61134  1  0  0  0
 62135  1  0  0  0
 62136  1  0  0  0
 62137  1  0  0  0
 63 65  1  0  0  0
 63138  1  0  0  0
 63139  1  0  0  0
 63140  1  0  0  0
 64141  1  0  0  0
 65142  1  0  0  0
 68 78  1  0  0  0
 71 72  2  0  0  0
 71 81  1  0  0  0
 71143  1  0  0  0
 72 75  1  0  0  0
 72 82  1  0  0  0
 73 74  1  0  0  0
 73 77  1  0  0  0
 73 82  2  0  0  0
 74 78  1  0  0  0
 74 81  2  0  0  0
 75144  1  0  0  0
 75145  1  0  0  0
 75146  1  0  0  0
 76 83  1  0  0  0
 76147  1  0  0  0
 76148  1  0  0  0
 76149  1  0  0  0
 77 79  1  0  0  0
 77150  1  0  0  0
 77151  1  0  0  0
 78152  1  0  0  0
 78153  1  0  0  0
 79 80  1  0  0  0
 79154  1  0  0  0
 79155  1  0  0  0
 80 83  1  0  0  0
 80156  1  0  0  0
 80157  1  0  0  0
M  ISO  4   1 100  68 101  78 101  83 100
M  END
> <chiral flag>
0

> <version>
0

> <s_m_source_file>
/data/baiqing/PycharmProjects/Reinvent-master-3.2/result/LINK_invent/BTK/process_docking_weight1_custom_sum_contain_oxygen_bond_distance_aromatic_linkinvent_7_9_3/rearranged_h_0048.sdf

> <i_m_source_file_index>
94

> <r_mmod_Potential_Energy-OPLS-2005>
901.559692382812

> <r_mmod_Stretch_Energy-OPLS-2005>
318.118682861328

> <r_mmod_Bend_Energy-OPLS-2005>
338.772521972656

> <r_mmod_Torsional_Energy-OPLS-2005>
316.563537597656

> <r_mmod_Improper_Torsional_Energy-OPLS-2005>
7.89923429489136

> <r_mmod_Van_der_Waal_Energy-OPLS-2005>
137.278900146484

> <r_mmod_Electrostatic_Energy-OPLS-2005>
-220.233047485352

> <r_mmod_Solvation_Energy-OPLS-2005>
-218.597015380859

> <b_mmod_Minimization_Converged-OPLS-2005>
0

> <r_mmod_RMS_Derivative-OPLS-2005>
0.781198740005493

$$$$
95
                    3D
 Structure written by MMmdl.
162170  0  0  1  0            999 V2000
  -30.6242  -14.7203   20.4701 C   0  0  0  0  0  0
  -30.4355  -12.4432   19.4712 C   0  0  0  0  0  0
  -29.5146  -12.4930   18.2317 C   0  0  0  0  0  0
  -28.0383  -12.3252   18.6458 C   0  0  0  0  0  0
  -27.6429  -13.2276   19.8465 C   0  0  2  0  0  0
  -28.6867  -13.1531   20.9808 C   0  0  0  0  0  0
  -25.2521  -13.8176   20.5693 C   0  0  0  0  0  0
  -24.1798  -13.0447   20.9201 C   0  0  0  0  0  0
  -24.6383  -11.6917   20.8737 C   0  0  0  0  0  0
  -23.9046  -10.4303   21.0410 C   0  0  0  0  0  0
  -24.3606   -9.4218   21.9188 C   0  0  0  0  0  0
  -23.6292   -8.2249   22.0752 C   0  0  0  0  0  0
  -22.4276   -8.0277   21.3540 C   0  0  0  0  0  0
  -21.9908   -9.0252   20.4639 C   0  0  0  0  0  0
  -22.7223  -10.2139   20.3055 C   0  0  0  0  0  0
  -21.6839   -6.0740   22.5282 C   0  0  0  0  0  0
  -21.4002   -6.5644   23.8214 C   0  0  0  0  0  0
  -21.3667   -5.6789   24.9175 C   0  0  0  0  0  0
  -21.6047   -4.3054   24.7221 C   0  0  0  0  0  0
  -21.8814   -3.8155   23.4336 C   0  0  0  0  0  0
  -21.9185   -4.6973   22.3392 C   0  0  0  0  0  0
  -22.7822  -13.5251   21.1855 C   0  0  0  0  0  0
  -22.1654   -4.2157   21.0971 F   0  0  0  0  0  0
  -21.5635   -3.4535   25.7734 F   0  0  0  0  0  0
  -29.9886  -13.5041   20.4004 N   0  0  0  0  0  0
  -26.2942  -12.9381   20.3257 N   0  0  0  0  0  0
  -25.9311  -11.6529   20.5720 N   0  0  0  0  0  0
  -22.0430  -12.8273   22.0397 N   0  0  0  0  0  0
  -25.4223  -15.1900   20.4124 N   0  0  0  0  0  0
  -31.8163  -14.8128   20.1661 O   0  0  0  0  0  0
  -21.6625   -6.8885   21.4244 O   0  0  0  0  0  0
  -22.3529  -14.5563   20.6685 O   0  0  0  0  0  0
  -24.6301  -31.8551   23.1963 C   0  0  0  0  0  0
  -25.9112  -32.4763   23.8340 C   0  0  1  0  0  0
  -27.2261  -27.2709   20.1366 C   0  0  0  0  0  0
  -25.5905  -33.8571   24.2263 N   0  0  0  0  0  0
  -23.4298  -30.4724   21.5409 C   0  0  2  0  0  0
  -24.8801  -28.9133   20.1174 C   0  0  0  0  0  0
  -22.7514  -29.4586   22.4933 C   0  0  0  0  0  0
  -18.0298  -28.1381   22.8478 C   0  0  0  0  0  0
  -24.1488  -36.7280   23.2642 C   0  0  0  0  0  0
  -25.9727  -30.7710   21.3758 C   0  0  0  0  0  0
  -26.0507  -29.3909   20.7227 C   0  0  0  0  0  0
  -27.2327  -28.5837   20.7155 C   0  0  0  0  0  0
  -26.0355  -26.8478   19.5181 C   0  0  0  0  0  0
  -24.8756  -27.6482   19.5049 C   0  0  0  0  0  0
  -23.6501  -29.7997   20.1594 C   0  0  0  0  0  0
  -25.4114  -36.3078   24.0333 C   0  0  1  0  0  0
  -20.5890  -28.3691   23.1276 C   0  0  2  0  0  0
  -20.6780  -26.9409   22.5412 C   0  0  0  0  0  0
  -19.5756  -26.6376   21.5212 C   0  0  0  0  0  0
  -18.1936  -26.7922   22.1624 C   0  0  0  0  0  0
  -19.1544  -28.8860   23.2865 C   0  0  0  0  0  0
  -18.9462  -30.1457   23.8888 C   0  0  0  0  0  0
  -17.6459  -30.6580   24.0560 C   0  0  0  0  0  0
  -25.9051  -34.9447   23.5108 C   0  0  0  0  0  0
  -16.5354  -29.9076   23.6326 C   0  0  0  0  0  0
  -16.7284  -28.6494   23.0349 C   0  0  0  0  0  0
  -26.4480  -31.6581   25.0730 C   0  0  0  0  0  0
  -25.3695  -31.3728   26.1445 C   0  0  0  0  0  0
  -27.0334  -30.3005   24.6204 C   0  0  0  0  0  0
  -27.6048  -32.4311   25.7489 C   0  0  0  0  0  0
  -27.5583  -37.1798   24.8471 C   0  0  0  0  0  0
  -21.4220  -29.3033   22.3673 N   0  0  0  0  0  0
  -26.4298  -37.3772   23.9410 N   0  0  0  0  0  0
  -24.6957  -31.0514   22.0942 N   0  0  0  0  0  0
  -23.4208  -28.8144   23.3052 O   0  0  0  0  0  0
  -28.3215  -26.3869   20.1033 O   0  0  0  0  0  0
  -26.5628  -34.8914   22.4680 O   0  0  0  0  0  0
  -23.5446  -32.1396   23.7237 O   0  0  0  0  0  0
  -29.3742  -22.6241   20.4614 C   0  0  0  0  0  0
  -28.3570  -23.6611   20.3803 C   0  0  0  0  0  0
  -28.8434  -21.4041   20.0268 C   0  0  0  0  0  0
  -26.4048  -21.1061   17.6417 C   0  0  0  0  0  0
  -25.0372  -21.4197   19.7303 C   0  0  0  0  0  0
  -26.4854  -19.4344   19.5242 C   0  0  0  0  0  0
  -28.2729  -25.1500   20.9439 C   0  0  0  0  0  0
  -29.5370  -20.0200   19.6801 C   0  0  0  0  0  0
  -29.3422  -18.5823   20.4597 C   0  0  0  0  0  0
  -30.3573  -17.3143   20.7042 C   0  0  0  0  0  0
  -26.3967  -20.9327   19.1715 C   0  0  0  0  0  0
  -27.2612  -23.0750   19.9229 N   0  0  0  0  0  0
  -27.5045  -21.7317   19.7491 N   0  0  0  0  0  0
  -29.8702  -15.8640   20.6798 N   0  0  0  0  0  0
  -31.4779  -12.5649   19.1713 H   0  0  0  0  0  0
  -30.3782  -11.4696   19.9576 H   0  0  0  0  0  0
  -29.7969  -11.7114   17.5248 H   0  0  0  0  0  0
  -29.6437  -13.4404   17.7057 H   0  0  0  0  0  0
  -27.8949  -11.2781   18.9156 H   0  0  0  0  0  0
  -27.3826  -12.5127   17.7941 H   0  0  0  0  0  0
  -27.6414  -14.2504   19.4703 H   0  0  0  0  0  0
  -28.7187  -12.1497   21.4074 H   0  0  0  0  0  0
  -28.4242  -13.8254   21.7983 H   0  0  0  0  0  0
  -25.2756   -9.5688   22.4763 H   0  0  0  0  0  0
  -23.9993   -7.4632   22.7482 H   0  0  0  0  0  0
  -21.0831   -8.8779   19.8943 H   0  0  0  0  0  0
  -22.3687  -10.9685   19.6162 H   0  0  0  0  0  0
  -21.1979   -7.6149   23.9716 H   0  0  0  0  0  0
  -21.1500   -6.0516   25.9069 H   0  0  0  0  0  0
  -22.0580   -2.7620   23.2825 H   0  0  0  0  0  0
  -22.4035  -11.9992   22.4905 H   0  0  0  0  0  0
  -21.1019  -13.1284   22.2489 H   0  0  0  0  0  0
  -24.6568  -15.8431   20.5310 H   0  0  0  0  0  0
  -26.2653  -15.6310   20.0696 H   0  0  0  0  0  0
  -26.7187  -32.5431   23.1095 H   0  0  0  0  0  0
  -25.0053  -33.9712   25.0411 H   0  0  0  0  0  0
  -22.7263  -31.2932   21.3904 H   0  0  0  0  0  0
  -23.3760  -35.9605   23.3315 H   0  0  0  0  0  0
  -24.3582  -36.8890   22.2055 H   0  0  0  0  0  0
  -23.7229  -37.6481   23.6657 H   0  0  0  0  0  0
  -26.1094  -31.5293   20.6043 H   0  0  0  0  0  0
  -26.8515  -30.8254   22.0064 H   0  0  0  0  0  0
  -28.1383  -28.9494   21.1783 H   0  0  0  0  0  0
  -26.0044  -25.8710   19.0548 H   0  0  0  0  0  0
  -23.9802  -27.2743   19.0301 H   0  0  0  0  0  0
  -23.7775  -30.5743   19.4020 H   0  0  0  0  0  0
  -22.7712  -29.2295   19.8535 H   0  0  0  0  0  0
  -25.1293  -36.1942   25.0829 H   0  0  0  0  0  0
  -20.9976  -28.3252   24.1397 H   0  0  0  0  0  0
  -20.5672  -26.2298   23.3611 H   0  0  0  0  0  0
  -21.6651  -26.7427   22.1209 H   0  0  0  0  0  0
  -19.6915  -25.6285   21.1245 H   0  0  0  0  0  0
  -19.6688  -27.3181   20.6733 H   0  0  0  0  0  0
  -17.4203  -26.6665   21.4026 H   0  0  0  0  0  0
  -18.0335  -26.0068   22.9025 H   0  0  0  0  0  0
  -19.7940  -30.7269   24.2259 H   0  0  0  0  0  0
  -17.5015  -31.6258   24.5158 H   0  0  0  0  0  0
  -15.5355  -30.2971   23.7652 H   0  0  0  0  0  0
  -15.8681  -28.0804   22.7073 H   0  0  0  0  0  0
  -24.5886  -30.7061   25.7764 H   0  0  0  0  0  0
  -24.8864  -32.2896   26.4843 H   0  0  0  0  0  0
  -25.8004  -30.8928   27.0243 H   0  0  0  0  0  0
  -26.2927  -29.6754   24.1202 H   0  0  0  0  0  0
  -27.4009  -29.7261   25.4720 H   0  0  0  0  0  0
  -27.8806  -30.4308   23.9462 H   0  0  0  0  0  0
  -27.2685  -33.3626   26.2053 H   0  0  0  0  0  0
  -28.3853  -32.6839   25.0301 H   0  0  0  0  0  0
  -28.0720  -31.8442   26.5407 H   0  0  0  0  0  0
  -28.2601  -38.0089   24.7510 H   0  0  0  0  0  0
  -28.1070  -36.2624   24.6307 H   0  0  0  0  0  0
  -27.2302  -37.1458   25.8872 H   0  0  0  0  0  0
  -20.9410  -29.8764   21.6879 H   0  0  0  0  0  0
  -26.0182  -38.2855   24.1396 H   0  0  0  0  0  0
  -30.3912  -22.7659   20.7950 H   0  0  0  0  0  0
  -25.5857  -20.5612   17.1744 H   0  0  0  0  0  0
  -27.3343  -20.7444   17.2010 H   0  0  0  0  0  0
  -26.2981  -22.1546   17.3630 H   0  0  0  0  0  0
  -24.2106  -20.7961   19.3888 H   0  0  0  0  0  0
  -24.8041  -22.4389   19.4221 H   0  0  0  0  0  0
  -25.0363  -21.3908   20.8201 H   0  0  0  0  0  0
  -25.5408  -18.9203   19.3526 H   0  0  0  0  0  0
  -26.7374  -19.2878   20.5751 H   0  0  0  0  0  0
  -27.2120  -18.9102   18.9071 H   0  0  0  0  0  0
  -29.0850  -25.2709   21.6607 H   0  0  0  0  0  0
  -27.3788  -25.2124   21.5643 H   0  0  0  0  0  0
  -30.6098  -20.2141   19.6190 H   0  0  0  0  0  0
  -29.2839  -19.8824   18.6252 H   0  0  0  0  0  0
  -29.9837  -19.0901   21.1812 H   0  0  0  0  0  0
  -29.4449  -18.1671   19.4577 H   0  0  0  0  0  0
  -31.2055  -17.3943   20.0180 H   0  0  0  0  0  0
  -30.8227  -17.4012   21.6903 H   0  0  0  0  0  0
  -28.8883  -15.7113   20.8516 H   0  0  0  0  0  0
  1 25  1  0  0  0
  1 30  2  0  0  0
  1 84  1  0  0  0
  2  3  1  0  0  0
  2 25  1  0  0  0
  2 85  1  0  0  0
  2 86  1  0  0  0
  3  4  1  0  0  0
  3 87  1  0  0  0
  3 88  1  0  0  0
  4  5  1  0  0  0
  4 89  1  0  0  0
  4 90  1  0  0  0
  5  6  1  0  0  0
  5 26  1  0  0  0
  5 91  1  0  0  0
  6 25  1  0  0  0
  6 92  1  0  0  0
  6 93  1  0  0  0
  7  8  2  0  0  0
  7 26  1  0  0  0
  7 29  1  0  0  0
  8  9  1  0  0  0
  8 22  1  0  0  0
  9 10  1  0  0  0
  9 27  2  0  0  0
 10 11  2  0  0  0
 10 15  1  0  0  0
 11 12  1  0  0  0
 11 94  1  0  0  0
 12 13  2  0  0  0
 12 95  1  0  0  0
 13 14  1  0  0  0
 13 31  1  0  0  0
 14 15  2  0  0  0
 14 96  1  0  0  0
 15 97  1  0  0  0
 16 17  2  0  0  0
 16 21  1  0  0  0
 16 31  1  0  0  0
 17 18  1  0  0  0
 17 98  1  0  0  0
 18 19  2  0  0  0
 18 99  1  0  0  0
 19 20  1  0  0  0
 19 24  1  0  0  0
 20 21  2  0  0  0
 20100  1  0  0  0
 21 23  1  0  0  0
 22 28  1  0  0  0
 22 32  2  0  0  0
 26 27  1  0  0  0
 28101  1  0  0  0
 28102  1  0  0  0
 29103  1  0  0  0
 29104  1  0  0  0
 33 34  1  0  0  0
 33 66  1  0  0  0
 33 70  2  0  0  0
 34 36  1  0  0  0
 34 59  1  0  0  0
 34105  1  0  0  0
 35 44  2  0  0  0
 35 45  1  0  0  0
 35 68  1  0  0  0
 36 56  1  0  0  0
 36106  1  0  0  0
 37 39  1  0  0  0
 37 47  1  0  0  0
 37 66  1  0  0  0
 37107  1  0  0  0
 38 43  2  0  0  0
 38 46  1  0  0  0
 38 47  1  0  0  0
 39 64  1  0  0  0
 39 67  2  0  0  0
 40 52  1  0  0  0
 40 53  2  0  0  0
 40 58  1  0  0  0
 41108  1  0  0  0
 41109  1  0  0  0
 41110  1  0  0  0
 41 48  1  0  0  0
 42 43  1  0  0  0
 42 66  1  0  0  0
 42111  1  0  0  0
 42112  1  0  0  0
 43 44  1  0  0  0
 44113  1  0  0  0
 45 46  2  0  0  0
 45114  1  0  0  0
 46115  1  0  0  0
 47116  1  0  0  0
 47117  1  0  0  0
 48 56  1  0  0  0
 48 65  1  0  0  0
 48118  1  0  0  0
 49 50  1  0  0  0
 49 53  1  0  0  0
 49 64  1  0  0  0
 49119  1  0  0  0
 50 51  1  0  0  0
 50120  1  0  0  0
 50121  1  0  0  0
 51 52  1  0  0  0
 51122  1  0  0  0
 51123  1  0  0  0
 52124  1  0  0  0
 52125  1  0  0  0
 53 54  1  0  0  0
 54 55  2  0  0  0
 54126  1  0  0  0
 55 57  1  0  0  0
 55127  1  0  0  0
 56 69  2  0  0  0
 57 58  2  0  0  0
 57128  1  0  0  0
 58129  1  0  0  0
 59 60  1  0  0  0
 59 61  1  0  0  0
 59 62  1  0  0  0
 60130  1  0  0  0
 60131  1  0  0  0
 60132  1  0  0  0
 61133  1  0  0  0
 61134  1  0  0  0
 61135  1  0  0  0
 62136  1  0  0  0
 62137  1  0  0  0
 62138  1  0  0  0
 63 65  1  0  0  0
 63139  1  0  0  0
 63140  1  0  0  0
 63141  1  0  0  0
 64142  1  0  0  0
 65143  1  0  0  0
 68 77  1  0  0  0
 71 72  1  0  0  0
 71 73  2  0  0  0
 71144  1  0  0  0
 72 77  1  0  0  0
 72 82  2  0  0  0
 73 78  1  0  0  0
 73 83  1  0  0  0
 74145  1  0  0  0
 74146  1  0  0  0
 74147  1  0  0  0
 74 81  1  0  0  0
 75 81  1  0  0  0
 75148  1  0  0  0
 75149  1  0  0  0
 75150  1  0  0  0
 76 81  1  0  0  0
 76151  1  0  0  0
 76152  1  0  0  0
 76153  1  0  0  0
 77154  1  0  0  0
 77155  1  0  0  0
 78 79  1  0  0  0
 78156  1  0  0  0
 78157  1  0  0  0
 79 80  1  0  0  0
 79158  1  0  0  0
 79159  1  0  0  0
 80 84  1  0  0  0
 80160  1  0  0  0
 80161  1  0  0  0
 81 83  1  0  0  0
 82 83  1  0  0  0
 84162  1  0  0  0
M  ISO  4   1 100  68 101  77 101  84 100
M  END
> <chiral flag>
0

> <version>
0

> <s_m_source_file>
/data/baiqing/PycharmProjects/Reinvent-master-3.2/result/LINK_invent/BTK/process_docking_weight1_custom_sum_contain_oxygen_bond_distance_aromatic_linkinvent_7_9_3/rearranged_h_0048.sdf

> <i_m_source_file_index>
95

> <r_mmod_Potential_Energy-OPLS-2005>
443.401641845703

> <r_mmod_Stretch_Energy-OPLS-2005>
128.187286376953

> <r_mmod_Bend_Energy-OPLS-2005>
410.415222167969

> <r_mmod_Torsional_Energy-OPLS-2005>
286.55029296875

> <r_mmod_Improper_Torsional_Energy-OPLS-2005>
6.5374231338501

> <r_mmod_Van_der_Waal_Energy-OPLS-2005>
134.482727050781

> <r_mmod_Electrostatic_Energy-OPLS-2005>
-388.328308105469

> <r_mmod_Solvation_Energy-OPLS-2005>
-210.99153137207

> <b_mmod_Minimization_Converged-OPLS-2005>
0

> <r_mmod_RMS_Derivative-OPLS-2005>
2.53737306594849

$$$$
