0
                    3D
 Structure written by MMmdl.
150157  0  0  1  0            999 V2000
  -30.5895  -14.6877   20.4841 C   0  0  0  0  0  0
  -30.4398  -12.4184   19.4665 C   0  0  0  0  0  0
  -29.5116  -12.5027   18.2319 C   0  0  0  0  0  0
  -28.0344  -12.3275   18.6461 C   0  0  0  0  0  0
  -27.6449  -13.2146   19.8600 C   0  0  2  0  0  0
  -28.6890  -13.0826   20.9922 C   0  0  0  0  0  0
  -25.2502  -13.8111   20.5715 C   0  0  0  0  0  0
  -24.1780  -13.0414   20.9249 C   0  0  0  0  0  0
  -24.6328  -11.6865   20.8716 C   0  0  0  0  0  0
  -23.8958  -10.4260   21.0356 C   0  0  0  0  0  0
  -24.3519   -9.4204   21.9155 C   0  0  0  0  0  0
  -23.6241   -8.2216   22.0712 C   0  0  0  0  0  0
  -22.4222   -8.0225   21.3495 C   0  0  0  0  0  0
  -21.9835   -9.0180   20.4602 C   0  0  0  0  0  0
  -22.7116  -10.2100   20.3021 C   0  0  0  0  0  0
  -21.6841   -6.0675   22.5253 C   0  0  0  0  0  0
  -21.4008   -6.5603   23.8181 C   0  0  0  0  0  0
  -21.3684   -5.6769   24.9153 C   0  0  0  0  0  0
  -21.6032   -4.3014   24.7209 C   0  0  0  0  0  0
  -21.8833   -3.8109   23.4338 C   0  0  0  0  0  0
  -21.9199   -4.6913   22.3391 C   0  0  0  0  0  0
  -22.7799  -13.5207   21.1900 C   0  0  0  0  0  0
  -22.1665   -4.2096   21.0966 F   0  0  0  0  0  0
  -21.5645   -3.4519   25.7741 F   0  0  0  0  0  0
  -29.9881  -13.4547   20.4148 N   0  0  0  0  0  0
  -26.2910  -12.9308   20.3285 N   0  0  0  0  0  0
  -25.9240  -11.6447   20.5718 N   0  0  0  0  0  0
  -22.0425  -12.8191   22.0458 N   0  0  0  0  0  0
  -25.4250  -15.1851   20.4135 N   0  0  0  0  0  0
  -31.7790  -14.8280   20.1749 O   0  0  0  0  0  0
  -21.6618   -6.8803   21.4196 O   0  0  0  0  0  0
  -22.3496  -14.5524   20.6761 O   0  0  0  0  0  0
  -24.6326  -31.8632   23.2008 C   0  0  0  0  0  0
  -25.9170  -32.4814   23.8303 C   0  0  1  0  0  0
  -27.1859  -27.2801   20.1104 C   0  0  0  0  0  0
  -25.5985  -33.8604   24.2247 N   0  0  0  0  0  0
  -23.4228  -30.4869   21.5511 C   0  0  2  0  0  0
  -24.8564  -28.9391   20.1185 C   0  0  0  0  0  0
  -22.7485  -29.4688   22.5006 C   0  0  0  0  0  0
  -18.0313  -28.1516   22.8497 C   0  0  0  0  0  0
  -24.1475  -36.7243   23.2630 C   0  0  0  0  0  0
  -25.9642  -30.7797   21.3728 C   0  0  0  0  0  0
  -26.0338  -29.4032   20.7199 C   0  0  0  0  0  0
  -27.2041  -28.5811   20.7104 C   0  0  0  0  0  0
  -25.9868  -26.8946   19.4664 C   0  0  0  0  0  0
  -24.8339  -27.6892   19.4908 C   0  0  0  0  0  0
  -23.6343  -29.8258   20.1665 C   0  0  0  0  0  0
  -25.4128  -36.3088   24.0311 C   0  0  1  0  0  0
  -20.5909  -28.3793   23.1330 C   0  0  2  0  0  0
  -20.6837  -26.9542   22.5435 C   0  0  0  0  0  0
  -19.5801  -26.6501   21.5269 C   0  0  0  0  0  0
  -18.1973  -26.8058   22.1651 C   0  0  0  0  0  0
  -19.1560  -28.8957   23.2898 C   0  0  0  0  0  0
  -18.9485  -30.1564   23.8927 C   0  0  0  0  0  0
  -17.6487  -30.6698   24.0611 C   0  0  0  0  0  0
  -25.9088  -34.9488   23.5076 C   0  0  0  0  0  0
  -16.5372  -29.9210   23.6364 C   0  0  0  0  0  0
  -16.7279  -28.6642   23.0356 C   0  0  0  0  0  0
  -26.4521  -31.6617   25.0656 C   0  0  0  0  0  0
  -25.3700  -31.3763   26.1318 C   0  0  0  0  0  0
  -27.0382  -30.3051   24.6109 C   0  0  0  0  0  0
  -27.6081  -32.4333   25.7427 C   0  0  0  0  0  0
  -27.5576  -37.1779   24.8490 C   0  0  0  0  0  0
  -21.4197  -29.3105   22.3684 N   0  0  0  0  0  0
  -26.4291  -37.3799   23.9420 N   0  0  0  0  0  0
  -24.6939  -31.0612   22.0989 N   0  0  0  0  0  0
  -23.4184  -28.8276   23.3144 O   0  0  0  0  0  0
  -28.2637  -26.3730   20.1603 O   0  0  0  0  0  0
  -26.5648  -34.8951   22.4645 O   0  0  0  0  0  0
  -23.5473  -32.1466   23.7287 O   0  0  0  0  0  0
  -29.4165  -19.8793   20.8681 C   0  0  0  0  0  0
  -29.5331  -18.4612   20.1504 C   0  0  0  0  0  0
  -29.0135  -23.7609   20.3032 C   0  0  0  0  0  0
  -30.1606  -17.2296   20.9927 C   0  0  0  0  0  0
  -28.5036  -22.3052   20.7580 C   0  0  0  0  0  0
  -27.9155  -24.9214   20.2659 C   0  0  0  0  0  0
  -29.1204  -21.0423   20.1888 N   0  0  0  0  0  0
  -29.7789  -15.7782   20.7284 N   0  0  0  0  0  0
  -29.5532  -19.9207   22.0909 O   0  0  0  0  0  0
  -31.4835  -12.5554   19.1723 H   0  0  0  0  0  0
  -30.3854  -11.4277   19.9238 H   0  0  0  0  0  0
  -29.7894  -11.7424   17.5010 H   0  0  0  0  0  0
  -29.6473  -13.4665   17.7397 H   0  0  0  0  0  0
  -27.8912  -11.2786   18.9106 H   0  0  0  0  0  0
  -27.3750  -12.5190   17.8033 H   0  0  0  0  0  0
  -27.6597  -14.2445   19.5064 H   0  0  0  0  0  0
  -28.7162  -12.0514   21.3533 H   0  0  0  0  0  0
  -28.4349  -13.7013   21.8567 H   0  0  0  0  0  0
  -25.2638   -9.5720   22.4756 H   0  0  0  0  0  0
  -23.9953   -7.4601   22.7442 H   0  0  0  0  0  0
  -21.0754   -8.8621   19.8926 H   0  0  0  0  0  0
  -22.3468  -10.9604   19.6153 H   0  0  0  0  0  0
  -21.1989   -7.6115   23.9664 H   0  0  0  0  0  0
  -21.1502   -6.0502   25.9056 H   0  0  0  0  0  0
  -22.0606   -2.7567   23.2844 H   0  0  0  0  0  0
  -22.4014  -11.9869   22.4864 H   0  0  0  0  0  0
  -21.1043  -13.1206   22.2651 H   0  0  0  0  0  0
  -24.6532  -15.8346   20.5172 H   0  0  0  0  0  0
  -26.2531  -15.6090   20.0173 H   0  0  0  0  0  0
  -26.7191  -32.5483   23.1017 H   0  0  0  0  0  0
  -25.0140  -33.9743   25.0373 H   0  0  0  0  0  0
  -22.7164  -31.3069   21.4107 H   0  0  0  0  0  0
  -23.3773  -35.9541   23.3346 H   0  0  0  0  0  0
  -24.3509  -36.8812   22.2026 H   0  0  0  0  0  0
  -23.7197  -37.6435   23.6620 H   0  0  0  0  0  0
  -26.0960  -31.5340   20.5966 H   0  0  0  0  0  0
  -26.8466  -30.8338   21.9973 H   0  0  0  0  0  0
  -28.1079  -28.9204   21.1950 H   0  0  0  0  0  0
  -25.8867  -25.9648   18.9298 H   0  0  0  0  0  0
  -23.9269  -27.3273   19.0240 H   0  0  0  0  0  0
  -23.7713  -30.6021   19.4115 H   0  0  0  0  0  0
  -22.7465  -29.2655   19.8592 H   0  0  0  0  0  0
  -25.1320  -36.1900   25.0795 H   0  0  0  0  0  0
  -20.9970  -28.3417   24.1470 H   0  0  0  0  0  0
  -20.5933  -26.2400   23.3635 H   0  0  0  0  0  0
  -21.6686  -26.7739   22.1121 H   0  0  0  0  0  0
  -19.6982  -25.6422   21.1315 H   0  0  0  0  0  0
  -19.6751  -27.3294   20.6795 H   0  0  0  0  0  0
  -17.4256  -26.6835   21.4030 H   0  0  0  0  0  0
  -18.0329  -26.0246   22.9081 H   0  0  0  0  0  0
  -19.7941  -30.7406   24.2290 H   0  0  0  0  0  0
  -17.5041  -31.6364   24.5260 H   0  0  0  0  0  0
  -15.5374  -30.3135   23.7716 H   0  0  0  0  0  0
  -15.8677  -28.0987   22.7049 H   0  0  0  0  0  0
  -24.5889  -30.7152   25.7530 H   0  0  0  0  0  0
  -24.8894  -32.2964   26.4659 H   0  0  0  0  0  0
  -25.7940  -30.8908   27.0122 H   0  0  0  0  0  0
  -26.2943  -29.6772   24.1189 H   0  0  0  0  0  0
  -27.4163  -29.7334   25.4595 H   0  0  0  0  0  0
  -27.8776  -30.4347   23.9277 H   0  0  0  0  0  0
  -27.2713  -33.3647   26.2000 H   0  0  0  0  0  0
  -28.3896  -32.6894   25.0250 H   0  0  0  0  0  0
  -28.0772  -31.8470   26.5346 H   0  0  0  0  0  0
  -28.2646  -38.0032   24.7547 H   0  0  0  0  0  0
  -28.1035  -36.2581   24.6337 H   0  0  0  0  0  0
  -27.2294  -37.1437   25.8893 H   0  0  0  0  0  0
  -20.9456  -29.8594   21.6649 H   0  0  0  0  0  0
  -26.0173  -38.2859   24.1448 H   0  0  0  0  0  0
  -30.0851  -18.5786   19.2156 H   0  0  0  0  0  0
  -28.5155  -18.2152   19.8421 H   0  0  0  0  0  0
  -29.4717  -23.7046   19.3176 H   0  0  0  0  0  0
  -29.8090  -24.0751   20.9805 H   0  0  0  0  0  0
  -29.9038  -17.3934   22.0405 H   0  0  0  0  0  0
  -31.2467  -17.3166   20.9605 H   0  0  0  0  0  0
  -27.4364  -22.2312   20.5439 H   0  0  0  0  0  0
  -28.5580  -22.2687   21.8498 H   0  0  0  0  0  0
  -27.2713  -24.8052   21.1409 H   0  0  0  0  0  0
  -27.3011  -24.6268   19.4194 H   0  0  0  0  0  0
  -29.1128  -20.9811   19.1774 H   0  0  0  0  0  0
  -28.8099  -15.5478   20.9150 H   0  0  0  0  0  0
  1 25  1  0  0  0
  1 30  2  0  0  0
  1 78  1  0  0  0
  2  3  1  0  0  0
  2 25  1  0  0  0
  2 80  1  0  0  0
  2 81  1  0  0  0
  3  4  1  0  0  0
  3 82  1  0  0  0
  3 83  1  0  0  0
  4  5  1  0  0  0
  4 84  1  0  0  0
  4 85  1  0  0  0
  5  6  1  0  0  0
  5 26  1  0  0  0
  5 86  1  0  0  0
  6 25  1  0  0  0
  6 87  1  0  0  0
  6 88  1  0  0  0
  7  8  2  0  0  0
  7 26  1  0  0  0
  7 29  1  0  0  0
  8  9  1  0  0  0
  8 22  1  0  0  0
  9 10  1  0  0  0
  9 27  2  0  0  0
 10 11  2  0  0  0
 10 15  1  0  0  0
 11 12  1  0  0  0
 11 89  1  0  0  0
 12 13  2  0  0  0
 12 90  1  0  0  0
 13 14  1  0  0  0
 13 31  1  0  0  0
 14 15  2  0  0  0
 14 91  1  0  0  0
 15 92  1  0  0  0
 16 17  2  0  0  0
 16 21  1  0  0  0
 16 31  1  0  0  0
 17 18  1  0  0  0
 17 93  1  0  0  0
 18 19  2  0  0  0
 18 94  1  0  0  0
 19 20  1  0  0  0
 19 24  1  0  0  0
 20 21  2  0  0  0
 20 95  1  0  0  0
 21 23  1  0  0  0
 22 28  1  0  0  0
 22 32  2  0  0  0
 26 27  1  0  0  0
 28 96  1  0  0  0
 28 97  1  0  0  0
 29 98  1  0  0  0
 29 99  1  0  0  0
 33 34  1  0  0  0
 33 66  1  0  0  0
 33 70  2  0  0  0
 34 36  1  0  0  0
 34 59  1  0  0  0
 34100  1  0  0  0
 35 44  2  0  0  0
 35 45  1  0  0  0
 35 68  1  0  0  0
 36 56  1  0  0  0
 36101  1  0  0  0
 37 39  1  0  0  0
 37 47  1  0  0  0
 37 66  1  0  0  0
 37102  1  0  0  0
 38 43  2  0  0  0
 38 46  1  0  0  0
 38 47  1  0  0  0
 39 64  1  0  0  0
 39 67  2  0  0  0
 40 52  1  0  0  0
 40 53  2  0  0  0
 40 58  1  0  0  0
 41103  1  0  0  0
 41104  1  0  0  0
 41105  1  0  0  0
 41 48  1  0  0  0
 42 43  1  0  0  0
 42 66  1  0  0  0
 42106  1  0  0  0
 42107  1  0  0  0
 43 44  1  0  0  0
 44108  1  0  0  0
 45 46  2  0  0  0
 45109  1  0  0  0
 46110  1  0  0  0
 47111  1  0  0  0
 47112  1  0  0  0
 48 56  1  0  0  0
 48 65  1  0  0  0
 48113  1  0  0  0
 49 50  1  0  0  0
 49 53  1  0  0  0
 49 64  1  0  0  0
 49114  1  0  0  0
 50 51  1  0  0  0
 50115  1  0  0  0
 50116  1  0  0  0
 51 52  1  0  0  0
 51117  1  0  0  0
 51118  1  0  0  0
 52119  1  0  0  0
 52120  1  0  0  0
 53 54  1  0  0  0
 54 55  2  0  0  0
 54121  1  0  0  0
 55 57  1  0  0  0
 55122  1  0  0  0
 56 69  2  0  0  0
 57 58  2  0  0  0
 57123  1  0  0  0
 58124  1  0  0  0
 59 60  1  0  0  0
 59 61  1  0  0  0
 59 62  1  0  0  0
 60125  1  0  0  0
 60126  1  0  0  0
 60127  1  0  0  0
 61128  1  0  0  0
 61129  1  0  0  0
 61130  1  0  0  0
 62131  1  0  0  0
 62132  1  0  0  0
 62133  1  0  0  0
 63 65  1  0  0  0
 63134  1  0  0  0
 63135  1  0  0  0
 63136  1  0  0  0
 64137  1  0  0  0
 65138  1  0  0  0
 68 76  1  0  0  0
 71 72  1  0  0  0
 71 77  1  0  0  0
 71 79  2  0  0  0
 72 74  1  0  0  0
 72139  1  0  0  0
 72140  1  0  0  0
 73 75  1  0  0  0
 73 76  1  0  0  0
 73141  1  0  0  0
 73142  1  0  0  0
 74 78  1  0  0  0
 74143  1  0  0  0
 74144  1  0  0  0
 75 77  1  0  0  0
 75145  1  0  0  0
 75146  1  0  0  0
 76147  1  0  0  0
 76148  1  0  0  0
 77149  1  0  0  0
 78150  1  0  0  0
M  ISO  4   1 100  68 101  76 101  78 100
M  END
> <chiral flag>
0

> <version>
0

> <s_m_source_file>
/data/baiqing/PycharmProjects/Reinvent-master-3.2/result/LINK_invent/BTK/process_docking_weight1_custom_sum_contain_oxygen_bond_distance_aromatic_linkinvent_7_9_3/rearranged_h_0002.sdf

> <i_m_source_file_index>
1

> <r_mmod_Potential_Energy-OPLS-2005>
54.0262908935547

> <r_mmod_Stretch_Energy-OPLS-2005>
99.8561401367188

> <r_mmod_Bend_Energy-OPLS-2005>
152.236587524414

> <r_mmod_Torsional_Energy-OPLS-2005>
220.240264892578

> <r_mmod_Improper_Torsional_Energy-OPLS-2005>
5.30049705505371

> <r_mmod_Van_der_Waal_Energy-OPLS-2005>
132.63005065918

> <r_mmod_Electrostatic_Energy-OPLS-2005>
-383.829254150391

> <r_mmod_Solvation_Energy-OPLS-2005>
-244.646240234375

> <b_mmod_Minimization_Converged-OPLS-2005>
0

> <r_mmod_RMS_Derivative-OPLS-2005>
6.9218692779541

$$$$
1
                    3D
 Structure written by MMmdl.
152159  0  0  1  0            999 V2000
  -30.6462  -14.6483   20.5186 C   0  0  0  0  0  0
  -30.4269  -12.4069   19.4448 C   0  0  0  0  0  0
  -29.4932  -12.4897   18.2183 C   0  0  0  0  0  0
  -28.0209  -12.3275   18.6404 C   0  0  0  0  0  0
  -27.6457  -13.2163   19.8550 C   0  0  2  0  0  0
  -28.6907  -13.1019   20.9849 C   0  0  0  0  0  0
  -25.2539  -13.8163   20.5686 C   0  0  0  0  0  0
  -24.1804  -13.0432   20.9198 C   0  0  0  0  0  0
  -24.6365  -11.6903   20.8763 C   0  0  0  0  0  0
  -23.9036  -10.4287   21.0410 C   0  0  0  0  0  0
  -24.3594   -9.4200   21.9192 C   0  0  0  0  0  0
  -23.6291   -8.2232   22.0750 C   0  0  0  0  0  0
  -22.4271   -8.0259   21.3534 C   0  0  0  0  0  0
  -21.9900   -9.0227   20.4634 C   0  0  0  0  0  0
  -22.7221  -10.2122   20.3055 C   0  0  0  0  0  0
  -21.6854   -6.0720   22.5278 C   0  0  0  0  0  0
  -21.4007   -6.5635   23.8208 C   0  0  0  0  0  0
  -21.3662   -5.6791   24.9178 C   0  0  0  0  0  0
  -21.6042   -4.3050   24.7233 C   0  0  0  0  0  0
  -21.8825   -3.8141   23.4357 C   0  0  0  0  0  0
  -21.9203   -4.6946   22.3416 C   0  0  0  0  0  0
  -22.7827  -13.5225   21.1918 C   0  0  0  0  0  0
  -22.1669   -4.2125   21.0990 F   0  0  0  0  0  0
  -21.5635   -3.4547   25.7754 F   0  0  0  0  0  0
  -29.9985  -13.4423   20.4083 N   0  0  0  0  0  0
  -26.2955  -12.9345   20.3304 N   0  0  0  0  0  0
  -25.9298  -11.6510   20.5776 N   0  0  0  0  0  0
  -22.0506  -12.8162   22.0453 N   0  0  0  0  0  0
  -25.4285  -15.1888   20.4102 N   0  0  0  0  0  0
  -31.8200  -14.7752   20.1685 O   0  0  0  0  0  0
  -21.6642   -6.8853   21.4231 O   0  0  0  0  0  0
  -22.3504  -14.5562   20.6818 O   0  0  0  0  0  0
  -24.6281  -31.8571   23.2051 C   0  0  0  0  0  0
  -25.9118  -32.4774   23.8358 C   0  0  1  0  0  0
  -27.2093  -27.3016   20.1282 C   0  0  0  0  0  0
  -25.5927  -33.8567   24.2279 N   0  0  0  0  0  0
  -23.4195  -30.4860   21.5453 C   0  0  2  0  0  0
  -24.8658  -28.9453   20.1085 C   0  0  0  0  0  0
  -22.7486  -29.4599   22.4909 C   0  0  0  0  0  0
  -18.0273  -28.1379   22.8469 C   0  0  0  0  0  0
  -24.1475  -36.7255   23.2635 C   0  0  0  0  0  0
  -25.9632  -30.7893   21.3751 C   0  0  0  0  0  0
  -26.0366  -29.4174   20.7150 C   0  0  0  0  0  0
  -27.2112  -28.6049   20.7141 C   0  0  0  0  0  0
  -26.0224  -26.8958   19.4766 C   0  0  0  0  0  0
  -24.8636  -27.6928   19.4782 C   0  0  0  0  0  0
  -23.6357  -29.8273   20.1583 C   0  0  0  0  0  0
  -25.4102  -36.3054   24.0316 C   0  0  1  0  0  0
  -20.5875  -28.3668   23.1254 C   0  0  2  0  0  0
  -20.6760  -26.9380   22.5408 C   0  0  0  0  0  0
  -19.5750  -26.6352   21.5204 C   0  0  0  0  0  0
  -18.1916  -26.7926   22.1593 C   0  0  0  0  0  0
  -19.1531  -28.8847   23.2869 C   0  0  0  0  0  0
  -18.9476  -30.1452   23.8881 C   0  0  0  0  0  0
  -17.6469  -30.6584   24.0574 C   0  0  0  0  0  0
  -25.9050  -34.9431   23.5086 C   0  0  0  0  0  0
  -16.5354  -29.9082   23.6359 C   0  0  0  0  0  0
  -16.7268  -28.6502   23.0354 C   0  0  0  0  0  0
  -26.4518  -31.6609   25.0738 C   0  0  0  0  0  0
  -25.3747  -31.3748   26.1467 C   0  0  0  0  0  0
  -27.0385  -30.3040   24.6197 C   0  0  0  0  0  0
  -27.6074  -32.4355   25.7502 C   0  0  0  0  0  0
  -27.5570  -37.1761   24.8460 C   0  0  0  0  0  0
  -21.4177  -29.3037   22.3662 N   0  0  0  0  0  0
  -26.4270  -37.3772   23.9434 N   0  0  0  0  0  0
  -24.6894  -31.0589   22.0999 N   0  0  0  0  0  0
  -23.4215  -28.8084   23.2953 O   0  0  0  0  0  0
  -28.3087  -26.4274   20.1699 O   0  0  0  0  0  0
  -26.5626  -34.8885   22.4643 O   0  0  0  0  0  0
  -23.5424  -32.1341   23.7375 O   0  0  0  0  0  0
  -29.4759  -21.1416   20.2726 C   0  0  0  0  0  0
  -29.7746  -19.8316   21.1424 C   0  0  0  0  0  0
  -28.9738  -22.4709   21.0056 C   0  0  0  0  0  0
  -29.6067  -18.3844   20.4803 C   0  0  0  0  0  0
  -29.1516  -23.8904   20.2829 C   0  0  0  0  0  0
  -30.3313  -17.1502   21.1899 C   0  0  0  0  0  0
  -28.0507  -25.0132   20.5683 C   0  0  0  0  0  0
  -29.8907  -15.7399   20.8735 N   0  0  0  0  0  0
  -31.4644  -12.5337   19.1317 H   0  0  0  0  0  0
  -30.3677  -11.4173   19.9037 H   0  0  0  0  0  0
  -29.7552  -11.7164   17.4963 H   0  0  0  0  0  0
  -29.6240  -13.4432   17.7040 H   0  0  0  0  0  0
  -27.8719  -11.2779   18.8971 H   0  0  0  0  0  0
  -27.3553  -12.5319   17.7988 H   0  0  0  0  0  0
  -27.6557  -14.2450   19.4969 H   0  0  0  0  0  0
  -28.7092  -12.0907   21.3950 H   0  0  0  0  0  0
  -28.4339  -13.7586   21.8178 H   0  0  0  0  0  0
  -25.2728   -9.5701   22.4759 H   0  0  0  0  0  0
  -24.0021   -7.4620   22.7461 H   0  0  0  0  0  0
  -21.0842   -8.8733   19.8921 H   0  0  0  0  0  0
  -22.3672  -10.9656   19.6164 H   0  0  0  0  0  0
  -21.1979   -7.6142   23.9700 H   0  0  0  0  0  0
  -21.1476   -6.0527   25.9071 H   0  0  0  0  0  0
  -22.0601   -2.7600   23.2878 H   0  0  0  0  0  0
  -22.4151  -11.9789   22.4747 H   0  0  0  0  0  0
  -21.1116  -13.1134   22.2728 H   0  0  0  0  0  0
  -24.6629  -15.8475   20.5068 H   0  0  0  0  0  0
  -26.2800  -15.6204   20.0724 H   0  0  0  0  0  0
  -26.7149  -32.5466   23.1065 H   0  0  0  0  0  0
  -25.0110  -33.9736   25.0449 H   0  0  0  0  0  0
  -22.7142  -31.3078   21.4015 H   0  0  0  0  0  0
  -23.3765  -35.9573   23.3302 H   0  0  0  0  0  0
  -24.3580  -36.8917   22.2066 H   0  0  0  0  0  0
  -23.7197  -37.6423   23.6675 H   0  0  0  0  0  0
  -26.0976  -31.5573   20.6118 H   0  0  0  0  0  0
  -26.8417  -30.8310   22.0074 H   0  0  0  0  0  0
  -28.1081  -28.9585   21.2007 H   0  0  0  0  0  0
  -25.9710  -25.9488   18.9588 H   0  0  0  0  0  0
  -23.9678  -27.3353   18.9896 H   0  0  0  0  0  0
  -23.7467  -30.6067   19.4038 H   0  0  0  0  0  0
  -22.7576  -29.2570   19.8535 H   0  0  0  0  0  0
  -25.1282  -36.1888   25.0814 H   0  0  0  0  0  0
  -20.9967  -28.3230   24.1372 H   0  0  0  0  0  0
  -20.5654  -26.2255   23.3599 H   0  0  0  0  0  0
  -21.6616  -26.7403   22.1196 H   0  0  0  0  0  0
  -19.6924  -25.6276   21.1213 H   0  0  0  0  0  0
  -19.6719  -27.3180   20.6766 H   0  0  0  0  0  0
  -17.4187  -26.6684   21.3984 H   0  0  0  0  0  0
  -18.0299  -26.0084   22.8994 H   0  0  0  0  0  0
  -19.7977  -30.7251   24.2230 H   0  0  0  0  0  0
  -17.5052  -31.6286   24.5146 H   0  0  0  0  0  0
  -15.5362  -30.2983   23.7727 H   0  0  0  0  0  0
  -15.8644  -28.0831   22.7095 H   0  0  0  0  0  0
  -24.5939  -30.7062   25.7801 H   0  0  0  0  0  0
  -24.8911  -32.2915   26.4864 H   0  0  0  0  0  0
  -25.8067  -30.8953   27.0268 H   0  0  0  0  0  0
  -26.2962  -29.6749   24.1249 H   0  0  0  0  0  0
  -27.4148  -29.7343   25.4721 H   0  0  0  0  0  0
  -27.8787  -30.4370   23.9371 H   0  0  0  0  0  0
  -27.2698  -33.3691   26.2014 H   0  0  0  0  0  0
  -28.3894  -32.6882   25.0321 H   0  0  0  0  0  0
  -28.0683  -31.8514   26.5489 H   0  0  0  0  0  0
  -28.2533  -38.0112   24.7598 H   0  0  0  0  0  0
  -28.1120  -36.2657   24.6164 H   0  0  0  0  0  0
  -27.2308  -37.1251   25.8863 H   0  0  0  0  0  0
  -20.9308  -29.8814   21.6942 H   0  0  0  0  0  0
  -26.0145  -38.2812   24.1571 H   0  0  0  0  0  0
  -28.7462  -20.8912   19.5009 H   0  0  0  0  0  0
  -30.3877  -21.3784   19.7218 H   0  0  0  0  0  0
  -29.1610  -19.8637   22.0464 H   0  0  0  0  0  0
  -30.7988  -19.9150   21.5140 H   0  0  0  0  0  0
  -29.4570  -22.5397   21.9840 H   0  0  0  0  0  0
  -27.9164  -22.3324   21.2375 H   0  0  0  0  0  0
  -29.9602  -18.4351   19.4510 H   0  0  0  0  0  0
  -28.5383  -18.1808   20.4126 H   0  0  0  0  0  0
  -29.2105  -23.7364   19.2038 H   0  0  0  0  0  0
  -30.1288  -24.2902   20.5606 H   0  0  0  0  0  0
  -30.1935  -17.2662   22.2648 H   0  0  0  0  0  0
  -31.4069  -17.2426   21.0309 H   0  0  0  0  0  0
  -27.8508  -25.0226   21.6427 H   0  0  0  0  0  0
  -27.1293  -24.6266   20.1292 H   0  0  0  0  0  0
  -28.9236  -15.5286   21.0656 H   0  0  0  0  0  0
  1 25  1  0  0  0
  1 30  2  0  0  0
  1 78  1  0  0  0
  2  3  1  0  0  0
  2 25  1  0  0  0
  2 79  1  0  0  0
  2 80  1  0  0  0
  3  4  1  0  0  0
  3 81  1  0  0  0
  3 82  1  0  0  0
  4  5  1  0  0  0
  4 83  1  0  0  0
  4 84  1  0  0  0
  5  6  1  0  0  0
  5 26  1  0  0  0
  5 85  1  0  0  0
  6 25  1  0  0  0
  6 86  1  0  0  0
  6 87  1  0  0  0
  7  8  2  0  0  0
  7 26  1  0  0  0
  7 29  1  0  0  0
  8  9  1  0  0  0
  8 22  1  0  0  0
  9 10  1  0  0  0
  9 27  2  0  0  0
 10 11  2  0  0  0
 10 15  1  0  0  0
 11 12  1  0  0  0
 11 88  1  0  0  0
 12 13  2  0  0  0
 12 89  1  0  0  0
 13 14  1  0  0  0
 13 31  1  0  0  0
 14 15  2  0  0  0
 14 90  1  0  0  0
 15 91  1  0  0  0
 16 17  2  0  0  0
 16 21  1  0  0  0
 16 31  1  0  0  0
 17 18  1  0  0  0
 17 92  1  0  0  0
 18 19  2  0  0  0
 18 93  1  0  0  0
 19 20  1  0  0  0
 19 24  1  0  0  0
 20 21  2  0  0  0
 20 94  1  0  0  0
 21 23  1  0  0  0
 22 28  1  0  0  0
 22 32  2  0  0  0
 26 27  1  0  0  0
 28 95  1  0  0  0
 28 96  1  0  0  0
 29 97  1  0  0  0
 29 98  1  0  0  0
 33 34  1  0  0  0
 33 66  1  0  0  0
 33 70  2  0  0  0
 34 36  1  0  0  0
 34 59  1  0  0  0
 34 99  1  0  0  0
 35 44  2  0  0  0
 35 45  1  0  0  0
 35 68  1  0  0  0
 36 56  1  0  0  0
 36100  1  0  0  0
 37 39  1  0  0  0
 37 47  1  0  0  0
 37 66  1  0  0  0
 37101  1  0  0  0
 38 43  2  0  0  0
 38 46  1  0  0  0
 38 47  1  0  0  0
 39 64  1  0  0  0
 39 67  2  0  0  0
 40 52  1  0  0  0
 40 53  2  0  0  0
 40 58  1  0  0  0
 41102  1  0  0  0
 41103  1  0  0  0
 41104  1  0  0  0
 41 48  1  0  0  0
 42 43  1  0  0  0
 42 66  1  0  0  0
 42105  1  0  0  0
 42106  1  0  0  0
 43 44  1  0  0  0
 44107  1  0  0  0
 45 46  2  0  0  0
 45108  1  0  0  0
 46109  1  0  0  0
 47110  1  0  0  0
 47111  1  0  0  0
 48 56  1  0  0  0
 48 65  1  0  0  0
 48112  1  0  0  0
 49 50  1  0  0  0
 49 53  1  0  0  0
 49 64  1  0  0  0
 49113  1  0  0  0
 50 51  1  0  0  0
 50114  1  0  0  0
 50115  1  0  0  0
 51 52  1  0  0  0
 51116  1  0  0  0
 51117  1  0  0  0
 52118  1  0  0  0
 52119  1  0  0  0
 53 54  1  0  0  0
 54 55  2  0  0  0
 54120  1  0  0  0
 55 57  1  0  0  0
 55121  1  0  0  0
 56 69  2  0  0  0
 57 58  2  0  0  0
 57122  1  0  0  0
 58123  1  0  0  0
 59 60  1  0  0  0
 59 61  1  0  0  0
 59 62  1  0  0  0
 60124  1  0  0  0
 60125  1  0  0  0
 60126  1  0  0  0
 61127  1  0  0  0
 61128  1  0  0  0
 61129  1  0  0  0
 62130  1  0  0  0
 62131  1  0  0  0
 62132  1  0  0  0
 63 65  1  0  0  0
 63133  1  0  0  0
 63134  1  0  0  0
 63135  1  0  0  0
 64136  1  0  0  0
 65137  1  0  0  0
 68 77  1  0  0  0
 71 72  1  0  0  0
 71 73  1  0  0  0
 71138  1  0  0  0
 71139  1  0  0  0
 72 74  1  0  0  0
 72140  1  0  0  0
 72141  1  0  0  0
 73 75  1  0  0  0
 73142  1  0  0  0
 73143  1  0  0  0
 74 76  1  0  0  0
 74144  1  0  0  0
 74145  1  0  0  0
 75 77  1  0  0  0
 75146  1  0  0  0
 75147  1  0  0  0
 76 78  1  0  0  0
 76148  1  0  0  0
 76149  1  0  0  0
 77150  1  0  0  0
 77151  1  0  0  0
 78152  1  0  0  0
M  ISO  4   1 100  68 101  77 101  78 100
M  END
> <chiral flag>
0

> <version>
0

> <s_m_source_file>
/data/baiqing/PycharmProjects/Reinvent-master-3.2/result/LINK_invent/BTK/process_docking_weight1_custom_sum_contain_oxygen_bond_distance_aromatic_linkinvent_7_9_3/rearranged_h_0002.sdf

> <i_m_source_file_index>
2

> <r_mmod_Potential_Energy-OPLS-2005>
80.6559448242188

> <r_mmod_Stretch_Energy-OPLS-2005>
89.3946762084961

> <r_mmod_Bend_Energy-OPLS-2005>
133.24479675293

> <r_mmod_Torsional_Energy-OPLS-2005>
230.104934692383

> <r_mmod_Improper_Torsional_Energy-OPLS-2005>
3.54633331298828

> <r_mmod_Van_der_Waal_Energy-OPLS-2005>
121.893142700195

> <r_mmod_Electrostatic_Energy-OPLS-2005>
-353.173400878906

> <r_mmod_Solvation_Energy-OPLS-2005>
-200.489471435547

> <b_mmod_Minimization_Converged-OPLS-2005>
0

> <r_mmod_RMS_Derivative-OPLS-2005>
5.06851482391357

$$$$
2
                    3D
 Structure written by MMmdl.
156163  0  0  1  0            999 V2000
  -30.6597  -14.4680   20.5334 C   0  0  0  0  0  0
  -30.4218  -12.2747   19.4552 C   0  0  0  0  0  0
  -29.5067  -12.4818   18.2285 C   0  0  0  0  0  0
  -28.0221  -12.3493   18.6236 C   0  0  0  0  0  0
  -27.6601  -13.1941   19.8736 C   0  0  2  0  0  0
  -28.6924  -12.9729   21.0052 C   0  0  0  0  0  0
  -25.2578  -13.8130   20.5654 C   0  0  0  0  0  0
  -24.1810  -13.0434   20.9164 C   0  0  0  0  0  0
  -24.6335  -11.6889   20.8715 C   0  0  0  0  0  0
  -23.8997  -10.4289   21.0382 C   0  0  0  0  0  0
  -24.3566   -9.4225   21.9172 C   0  0  0  0  0  0
  -23.6280   -8.2239   22.0745 C   0  0  0  0  0  0
  -22.4262   -8.0267   21.3538 C   0  0  0  0  0  0
  -21.9863   -9.0230   20.4638 C   0  0  0  0  0  0
  -22.7157  -10.2125   20.3051 C   0  0  0  0  0  0
  -21.6854   -6.0720   22.5283 C   0  0  0  0  0  0
  -21.4012   -6.5630   23.8217 C   0  0  0  0  0  0
  -21.3665   -5.6787   24.9183 C   0  0  0  0  0  0
  -21.6047   -4.3050   24.7234 C   0  0  0  0  0  0
  -21.8812   -3.8136   23.4359 C   0  0  0  0  0  0
  -21.9195   -4.6948   22.3413 C   0  0  0  0  0  0
  -22.7835  -13.5252   21.1845 C   0  0  0  0  0  0
  -22.1656   -4.2138   21.0988 F   0  0  0  0  0  0
  -21.5641   -3.4537   25.7744 F   0  0  0  0  0  0
  -30.0337  -13.2639   20.4701 N   0  0  0  0  0  0
  -26.2994  -12.9270   20.3319 N   0  0  0  0  0  0
  -25.9258  -11.6444   20.5732 N   0  0  0  0  0  0
  -22.0484  -12.8278   22.0433 N   0  0  0  0  0  0
  -25.4337  -15.1860   20.4079 N   0  0  0  0  0  0
  -31.7838  -14.6788   20.0704 O   0  0  0  0  0  0
  -21.6645   -6.8857   21.4240 O   0  0  0  0  0  0
  -22.3525  -14.5564   20.6690 O   0  0  0  0  0  0
  -24.6127  -31.8677   23.2078 C   0  0  0  0  0  0
  -25.9031  -32.4829   23.8362 C   0  0  1  0  0  0
  -27.2428  -27.4552   20.0972 C   0  0  0  0  0  0
  -25.5888  -33.8622   24.2314 N   0  0  0  0  0  0
  -23.3989  -30.4889   21.5474 C   0  0  2  0  0  0
  -24.8449  -28.9524   20.1162 C   0  0  0  0  0  0
  -22.7402  -29.4659   22.5007 C   0  0  0  0  0  0
  -18.0265  -28.1384   22.8505 C   0  0  0  0  0  0
  -24.1489  -36.7321   23.2640 C   0  0  0  0  0  0
  -25.9208  -30.8462   21.3471 C   0  0  0  0  0  0
  -26.0014  -29.4767   20.7061 C   0  0  0  0  0  0
  -27.2008  -28.7329   20.6950 C   0  0  0  0  0  0
  -26.0692  -26.9390   19.5009 C   0  0  0  0  0  0
  -24.8721  -27.6824   19.5110 C   0  0  0  0  0  0
  -23.6037  -29.8140   20.1637 C   0  0  0  0  0  0
  -25.4108  -36.3116   24.0342 C   0  0  1  0  0  0
  -20.5858  -28.3660   23.1340 C   0  0  2  0  0  0
  -20.6755  -26.9395   22.5430 C   0  0  0  0  0  0
  -19.5729  -26.6397   21.5216 C   0  0  0  0  0  0
  -18.1908  -26.7937   22.1626 C   0  0  0  0  0  0
  -19.1524  -28.8834   23.2928 C   0  0  0  0  0  0
  -18.9450  -30.1449   23.8923 C   0  0  0  0  0  0
  -17.6462  -30.6588   24.0575 C   0  0  0  0  0  0
  -25.9018  -34.9482   23.5116 C   0  0  0  0  0  0
  -16.5352  -29.9102   23.6334 C   0  0  0  0  0  0
  -16.7261  -28.6528   23.0339 C   0  0  0  0  0  0
  -26.4463  -31.6599   25.0680 C   0  0  0  0  0  0
  -25.3754  -31.3723   26.1457 C   0  0  0  0  0  0
  -27.0256  -30.3055   24.5985 C   0  0  0  0  0  0
  -27.6053  -32.4299   25.7432 C   0  0  0  0  0  0
  -27.5583  -37.1800   24.8466 C   0  0  0  0  0  0
  -21.4133  -29.3041   22.3755 N   0  0  0  0  0  0
  -26.4294  -37.3807   23.9416 N   0  0  0  0  0  0
  -24.6633  -31.0807   22.0948 N   0  0  0  0  0  0
  -23.4185  -28.8215   23.3049 O   0  0  0  0  0  0
  -28.4386  -26.7701   20.1023 O   0  0  0  0  0  0
  -26.5593  -34.8941   22.4680 O   0  0  0  0  0  0
  -23.5324  -32.1406   23.7495 O   0  0  0  0  0  0
  -30.1325  -22.4690   20.1001 C   0  0  0  0  0  0
  -29.6647  -23.3494   21.2669 C   0  0  0  0  0  0
  -29.6085  -24.8697   20.9736 C   0  0  0  0  0  0
  -30.2602  -19.0166   19.3126 C   0  0  0  0  0  0
  -30.4934  -17.9059   20.3626 C   0  0  0  0  0  0
  -31.1435  -20.2706   19.4623 C   0  0  0  0  0  0
  -29.6504  -16.6609   20.0190 C   0  0  0  0  0  0
  -28.4035  -25.3425   20.1361 C   0  0  0  0  0  0
  -30.5870  -21.2413   20.4085 N   0  0  0  0  0  0
  -29.8461  -15.4820   20.8714 N   0  0  0  0  0  0
  -30.0905  -22.8899   18.9430 O   0  0  0  0  0  0
  -31.4725  -12.3592   19.1732 H   0  0  0  0  0  0
  -30.3063  -11.2664   19.8597 H   0  0  0  0  0  0
  -29.7511  -11.7541   17.4537 H   0  0  0  0  0  0
  -29.6896  -13.4657   17.7921 H   0  0  0  0  0  0
  -27.8232  -11.2953   18.8222 H   0  0  0  0  0  0
  -27.3837  -12.6214   17.7832 H   0  0  0  0  0  0
  -27.7035  -14.2385   19.5658 H   0  0  0  0  0  0
  -28.6546  -11.9391   21.3481 H   0  0  0  0  0  0
  -28.4530  -13.5802   21.8794 H   0  0  0  0  0  0
  -25.2714   -9.5726   22.4743 H   0  0  0  0  0  0
  -24.0012   -7.4629   22.7460 H   0  0  0  0  0  0
  -21.0800   -8.8725   19.8954 H   0  0  0  0  0  0
  -22.3598  -10.9657   19.6173 H   0  0  0  0  0  0
  -21.1988   -7.6135   23.9709 H   0  0  0  0  0  0
  -21.1503   -6.0524   25.9085 H   0  0  0  0  0  0
  -22.0588   -2.7598   23.2865 H   0  0  0  0  0  0
  -22.4070  -11.9938   22.4853 H   0  0  0  0  0  0
  -21.1091  -13.1314   22.2617 H   0  0  0  0  0  0
  -24.6698  -15.8458   20.5058 H   0  0  0  0  0  0
  -26.2909  -15.6204   20.0915 H   0  0  0  0  0  0
  -26.7115  -32.5567   23.1136 H   0  0  0  0  0  0
  -25.0073  -33.9779   25.0486 H   0  0  0  0  0  0
  -22.6894  -31.3057   21.4051 H   0  0  0  0  0  0
  -23.3743  -35.9659   23.3305 H   0  0  0  0  0  0
  -24.3591  -36.8918   22.2051 H   0  0  0  0  0  0
  -23.7232  -37.6530   23.6639 H   0  0  0  0  0  0
  -26.0061  -31.6059   20.5682 H   0  0  0  0  0  0
  -26.8186  -30.9200   21.9477 H   0  0  0  0  0  0
  -28.0956  -29.1333   21.1511 H   0  0  0  0  0  0
  -26.0732  -25.9730   19.0171 H   0  0  0  0  0  0
  -23.9853  -27.2730   19.0477 H   0  0  0  0  0  0
  -23.7068  -30.5821   19.3962 H   0  0  0  0  0  0
  -22.7308  -29.2249   19.8751 H   0  0  0  0  0  0
  -25.1272  -36.1974   25.0837 H   0  0  0  0  0  0
  -20.9950  -28.3202   24.1459 H   0  0  0  0  0  0
  -20.5634  -26.2258   23.3614 H   0  0  0  0  0  0
  -21.6632  -26.7432   22.1224 H   0  0  0  0  0  0
  -19.6886  -25.6317   21.1217 H   0  0  0  0  0  0
  -19.6664  -27.3242   20.6775 H   0  0  0  0  0  0
  -17.4179  -26.6708   21.4021 H   0  0  0  0  0  0
  -18.0291  -26.0065   22.9007 H   0  0  0  0  0  0
  -19.7932  -30.7257   24.2288 H   0  0  0  0  0  0
  -17.5019  -31.6260   24.5192 H   0  0  0  0  0  0
  -15.5354  -30.3011   23.7638 H   0  0  0  0  0  0
  -15.8664  -28.0861   22.7020 H   0  0  0  0  0  0
  -24.5952  -30.7007   25.7853 H   0  0  0  0  0  0
  -24.8925  -32.2889   26.4865 H   0  0  0  0  0  0
  -25.8153  -30.8976   27.0237 H   0  0  0  0  0  0
  -26.2747  -29.6829   24.1111 H   0  0  0  0  0  0
  -27.4129  -29.7272   25.4378 H   0  0  0  0  0  0
  -27.8533  -30.4394   23.9018 H   0  0  0  0  0  0
  -27.2691  -33.3606   26.2021 H   0  0  0  0  0  0
  -28.3863  -32.6837   25.0251 H   0  0  0  0  0  0
  -28.0713  -31.8409   26.5339 H   0  0  0  0  0  0
  -28.2609  -38.0098   24.7527 H   0  0  0  0  0  0
  -28.1064  -36.2621   24.6254 H   0  0  0  0  0  0
  -27.2307  -37.1420   25.8879 H   0  0  0  0  0  0
  -20.9272  -29.8782   21.7015 H   0  0  0  0  0  0
  -26.0174  -38.2876   24.1458 H   0  0  0  0  0  0
  -30.3519  -23.1896   22.0989 H   0  0  0  0  0  0
  -28.6907  -22.9983   21.6100 H   0  0  0  0  0  0
  -30.5382  -25.1948   20.5038 H   0  0  0  0  0  0
  -29.5673  -25.3878   21.9318 H   0  0  0  0  0  0
  -29.2071  -19.3021   19.2841 H   0  0  0  0  0  0
  -30.4685  -18.5887   18.3300 H   0  0  0  0  0  0
  -30.2440  -18.2719   21.3585 H   0  0  0  0  0  0
  -31.5511  -17.6408   20.3734 H   0  0  0  0  0  0
  -31.2666  -20.7289   18.4785 H   0  0  0  0  0  0
  -32.1505  -19.9901   19.7771 H   0  0  0  0  0  0
  -28.5940  -16.9276   20.0705 H   0  0  0  0  0  0
  -29.8258  -16.3774   18.9778 H   0  0  0  0  0  0
  -27.4867  -24.9671   20.5953 H   0  0  0  0  0  0
  -28.4479  -24.9570   19.1176 H   0  0  0  0  0  0
  -30.5933  -20.9823   21.3867 H   0  0  0  0  0  0
  -29.0174  -15.1870   21.3669 H   0  0  0  0  0  0
  1 25  1  0  0  0
  1 30  2  0  0  0
  1 80  1  0  0  0
  2  3  1  0  0  0
  2 25  1  0  0  0
  2 82  1  0  0  0
  2 83  1  0  0  0
  3  4  1  0  0  0
  3 84  1  0  0  0
  3 85  1  0  0  0
  4  5  1  0  0  0
  4 86  1  0  0  0
  4 87  1  0  0  0
  5  6  1  0  0  0
  5 26  1  0  0  0
  5 88  1  0  0  0
  6 25  1  0  0  0
  6 89  1  0  0  0
  6 90  1  0  0  0
  7  8  2  0  0  0
  7 26  1  0  0  0
  7 29  1  0  0  0
  8  9  1  0  0  0
  8 22  1  0  0  0
  9 10  1  0  0  0
  9 27  2  0  0  0
 10 11  2  0  0  0
 10 15  1  0  0  0
 11 12  1  0  0  0
 11 91  1  0  0  0
 12 13  2  0  0  0
 12 92  1  0  0  0
 13 14  1  0  0  0
 13 31  1  0  0  0
 14 15  2  0  0  0
 14 93  1  0  0  0
 15 94  1  0  0  0
 16 17  2  0  0  0
 16 21  1  0  0  0
 16 31  1  0  0  0
 17 18  1  0  0  0
 17 95  1  0  0  0
 18 19  2  0  0  0
 18 96  1  0  0  0
 19 20  1  0  0  0
 19 24  1  0  0  0
 20 21  2  0  0  0
 20 97  1  0  0  0
 21 23  1  0  0  0
 22 28  1  0  0  0
 22 32  2  0  0  0
 26 27  1  0  0  0
 28 98  1  0  0  0
 28 99  1  0  0  0
 29100  1  0  0  0
 29101  1  0  0  0
 33 34  1  0  0  0
 33 66  1  0  0  0
 33 70  2  0  0  0
 34 36  1  0  0  0
 34 59  1  0  0  0
 34102  1  0  0  0
 35 44  2  0  0  0
 35 45  1  0  0  0
 35 68  1  0  0  0
 36 56  1  0  0  0
 36103  1  0  0  0
 37 39  1  0  0  0
 37 47  1  0  0  0
 37 66  1  0  0  0
 37104  1  0  0  0
 38 43  2  0  0  0
 38 46  1  0  0  0
 38 47  1  0  0  0
 39 64  1  0  0  0
 39 67  2  0  0  0
 40 52  1  0  0  0
 40 53  2  0  0  0
 40 58  1  0  0  0
 41105  1  0  0  0
 41106  1  0  0  0
 41107  1  0  0  0
 41 48  1  0  0  0
 42 43  1  0  0  0
 42 66  1  0  0  0
 42108  1  0  0  0
 42109  1  0  0  0
 43 44  1  0  0  0
 44110  1  0  0  0
 45 46  2  0  0  0
 45111  1  0  0  0
 46112  1  0  0  0
 47113  1  0  0  0
 47114  1  0  0  0
 48 56  1  0  0  0
 48 65  1  0  0  0
 48115  1  0  0  0
 49 50  1  0  0  0
 49 53  1  0  0  0
 49 64  1  0  0  0
 49116  1  0  0  0
 50 51  1  0  0  0
 50117  1  0  0  0
 50118  1  0  0  0
 51 52  1  0  0  0
 51119  1  0  0  0
 51120  1  0  0  0
 52121  1  0  0  0
 52122  1  0  0  0
 53 54  1  0  0  0
 54 55  2  0  0  0
 54123  1  0  0  0
 55 57  1  0  0  0
 55124  1  0  0  0
 56 69  2  0  0  0
 57 58  2  0  0  0
 57125  1  0  0  0
 58126  1  0  0  0
 59 60  1  0  0  0
 59 61  1  0  0  0
 59 62  1  0  0  0
 60127  1  0  0  0
 60128  1  0  0  0
 60129  1  0  0  0
 61130  1  0  0  0
 61131  1  0  0  0
 61132  1  0  0  0
 62133  1  0  0  0
 62134  1  0  0  0
 62135  1  0  0  0
 63 65  1  0  0  0
 63136  1  0  0  0
 63137  1  0  0  0
 63138  1  0  0  0
 64139  1  0  0  0
 65140  1  0  0  0
 68 78  1  0  0  0
 71 72  1  0  0  0
 71 79  1  0  0  0
 71 81  2  0  0  0
 72 73  1  0  0  0
 72141  1  0  0  0
 72142  1  0  0  0
 73 78  1  0  0  0
 73143  1  0  0  0
 73144  1  0  0  0
 74 75  1  0  0  0
 74 76  1  0  0  0
 74145  1  0  0  0
 74146  1  0  0  0
 75 77  1  0  0  0
 75147  1  0  0  0
 75148  1  0  0  0
 76 79  1  0  0  0
 76149  1  0  0  0
 76150  1  0  0  0
 77 80  1  0  0  0
 77151  1  0  0  0
 77152  1  0  0  0
 78153  1  0  0  0
 78154  1  0  0  0
 79155  1  0  0  0
 80156  1  0  0  0
M  ISO  4   1 100  68 101  78 101  80 100
M  END
> <chiral flag>
0

> <version>
0

> <s_m_source_file>
/data/baiqing/PycharmProjects/Reinvent-master-3.2/result/LINK_invent/BTK/process_docking_weight1_custom_sum_contain_oxygen_bond_distance_aromatic_linkinvent_7_9_3/rearranged_h_0002.sdf

> <i_m_source_file_index>
3

> <r_mmod_Potential_Energy-OPLS-2005>
-173.34016418457

> <r_mmod_Stretch_Energy-OPLS-2005>
32.6628456115723

> <r_mmod_Bend_Energy-OPLS-2005>
96.9455795288086

> <r_mmod_Torsional_Energy-OPLS-2005>
226.498641967773

> <r_mmod_Improper_Torsional_Energy-OPLS-2005>
10.2116355895996

> <r_mmod_Van_der_Waal_Energy-OPLS-2005>
135.054412841797

> <r_mmod_Electrostatic_Energy-OPLS-2005>
-446.672393798828

> <r_mmod_Solvation_Energy-OPLS-2005>
-241.148590087891

> <b_mmod_Minimization_Converged-OPLS-2005>
0

> <r_mmod_RMS_Derivative-OPLS-2005>
3.20806169509888

$$$$
3
                    3D
 Structure written by MMmdl.
137144  0  0  1  0            999 V2000
  -29.9622  -16.5635   20.2664 C   0  0  0  0  0  0
  -30.3146  -13.7964   19.5233 C   0  0  0  0  0  0
  -29.5702  -12.9451   18.4142 C   0  0  0  0  0  0
  -28.2376  -12.3814   18.9086 C   0  0  0  0  0  0
  -27.5746  -13.4257   19.8177 C   0  0  2  0  0  0
  -28.5152  -14.1357   20.8613 C   0  0  0  0  0  0
  -25.2174  -13.8479   20.5951 C   0  0  0  0  0  0
  -24.1675  -13.0467   20.9341 C   0  0  0  0  0  0
  -24.6541  -11.7031   20.8745 C   0  0  0  0  0  0
  -23.9255  -10.4321   21.0342 C   0  0  0  0  0  0
  -24.3739   -9.4228   21.9149 C   0  0  0  0  0  0
  -23.6364   -8.2283   22.0747 C   0  0  0  0  0  0
  -22.4340   -8.0323   21.3544 C   0  0  0  0  0  0
  -22.0014   -9.0304   20.4634 C   0  0  0  0  0  0
  -22.7395  -10.2158   20.3018 C   0  0  0  0  0  0
  -21.6878   -6.0765   22.5277 C   0  0  0  0  0  0
  -21.4033   -6.5657   23.8214 C   0  0  0  0  0  0
  -21.3665   -5.6802   24.9171 C   0  0  0  0  0  0
  -21.6043   -4.3064   24.7217 C   0  0  0  0  0  0
  -21.8816   -3.8163   23.4335 C   0  0  0  0  0  0
  -21.9200   -4.6987   22.3396 C   0  0  0  0  0  0
  -22.7650  -13.5092   21.1938 C   0  0  0  0  0  0
  -22.1663   -4.2170   21.0973 F   0  0  0  0  0  0
  -21.5624   -3.4543   25.7727 F   0  0  0  0  0  0
  -29.5188  -15.0444   20.1465 N   0  0  0  0  0  0
  -26.2805  -13.0063   20.3476 N   0  0  0  0  0  0
  -25.9548  -11.6990   20.5678 N   0  0  0  0  0  0
  -22.0351  -12.8040   22.0489 N   0  0  0  0  0  0
  -25.3555  -15.2242   20.4383 N   0  0  0  0  0  0
  -31.2063  -16.3142   20.2293 O   0  0  0  0  0  0
  -21.6677   -6.8928   21.4248 O   0  0  0  0  0  0
  -22.3283  -14.5375   20.6771 O   0  0  0  0  0  0
  -24.7449  -31.7216   23.0979 C   0  0  0  0  0  0
  -25.9712  -32.4091   23.7768 C   0  0  1  0  0  0
  -27.2626  -26.0606   20.2671 C   0  0  0  0  0  0
  -25.6018  -33.7953   24.1581 N   0  0  0  0  0  0
  -23.5996  -30.2922   21.4680 C   0  0  2  0  0  0
  -25.0624  -28.4936   20.1392 C   0  0  0  0  0  0
  -22.8035  -29.3895   22.4550 C   0  0  0  0  0  0
  -18.0376  -28.1454   22.8421 C   0  0  0  0  0  0
  -24.1496  -36.6992   23.2671 C   0  0  0  0  0  0
  -26.1999  -30.2411   21.4589 C   0  0  0  0  0  0
  -26.2597  -28.7329   20.8212 C   0  0  0  0  0  0
  -27.3097  -27.5690   20.8335 C   0  0  0  0  0  0
  -26.0272  -26.1946   19.5192 C   0  0  0  0  0  0
  -25.0234  -27.2541   19.4619 C   0  0  0  0  0  0
  -23.8874  -29.5253   20.1333 C   0  0  0  0  0  0
  -25.4170  -36.2677   24.0236 C   0  0  1  0  0  0
  -20.6038  -28.3836   23.1031 C   0  0  2  0  0  0
  -20.6806  -26.9436   22.5420 C   0  0  0  0  0  0
  -19.5796  -26.6348   21.5224 C   0  0  0  0  0  0
  -18.1977  -26.7969   22.1607 C   0  0  0  0  0  0
  -19.1657  -28.8984   23.2686 C   0  0  0  0  0  0
  -18.9553  -30.1552   23.8759 C   0  0  0  0  0  0
  -17.6536  -30.6619   24.0537 C   0  0  0  0  0  0
  -25.9187  -34.9084   23.4798 C   0  0  0  0  0  0
  -16.5422  -29.9090   23.6366 C   0  0  0  0  0  0
  -16.7352  -28.6518   23.0376 C   0  0  0  0  0  0
  -26.4693  -31.6408   25.0652 C   0  0  0  0  0  0
  -25.3596  -31.3898   26.1149 C   0  0  0  0  0  0
  -27.0730  -30.2690   24.7003 C   0  0  0  0  0  0
  -27.6017  -32.4426   25.7501 C   0  0  0  0  0  0
  -27.5543  -37.1648   24.8466 C   0  0  0  0  0  0
  -21.4628  -29.2949   22.3282 N   0  0  0  0  0  0
  -26.4242  -37.3509   23.9408 N   0  0  0  0  0  0
  -24.8802  -30.8007   22.0600 N   0  0  0  0  0  0
  -23.4175  -28.7613   23.3197 O   0  0  0  0  0  0
  -28.1668  -24.5661   20.3212 O   0  0  0  0  0  0
  -26.5925  -34.8791   22.4483 O   0  0  0  0  0  0
  -23.6336  -32.0588   23.5524 O   0  0  0  0  0  0
  -29.2006  -20.3375   20.3201 C   0  0  0  0  0  0
  -28.2004  -22.4649   20.2188 C   0  0  0  0  0  0
  -29.3170  -18.2279   20.2702 N   0  0  0  0  0  0
  -31.2155  -14.1817   19.0448 H   0  0  0  0  0  0
  -30.7050  -13.1434   20.3066 H   0  0  0  0  0  0
  -30.2109  -12.1390   18.0541 H   0  0  0  0  0  0
  -29.3823  -13.5901   17.5547 H   0  0  0  0  0  0
  -28.4305  -11.4738   19.4819 H   0  0  0  0  0  0
  -27.5913  -12.1016   18.0755 H   0  0  0  0  0  0
  -27.3204  -14.2160   19.1091 H   0  0  0  0  0  0
  -28.9720  -13.4238   21.5512 H   0  0  0  0  0  0
  -27.9168  -14.7884   21.4973 H   0  0  0  0  0  0
  -25.2871   -9.5690   22.4748 H   0  0  0  0  0  0
  -24.0047   -7.4683   22.7489 H   0  0  0  0  0  0
  -21.0938   -8.8851   19.8945 H   0  0  0  0  0  0
  -22.3854  -10.9697   19.6127 H   0  0  0  0  0  0
  -21.2035   -7.6165   23.9725 H   0  0  0  0  0  0
  -21.1486   -6.0529   25.9075 H   0  0  0  0  0  0
  -22.0587   -2.7625   23.2829 H   0  0  0  0  0  0
  -22.4039  -11.9742   22.4895 H   0  0  0  0  0  0
  -21.0937  -13.0980   22.2674 H   0  0  0  0  0  0
  -24.5768  -15.8638   20.5540 H   0  0  0  0  0  0
  -26.2060  -15.6839   20.1380 H   0  0  0  0  0  0
  -26.7876  -32.4443   23.0543 H   0  0  0  0  0  0
  -24.9961  -33.8879   24.9601 H   0  0  0  0  0  0
  -22.9629  -31.1444   21.2211 H   0  0  0  0  0  0
  -23.3792  -35.9283   23.3224 H   0  0  0  0  0  0
  -24.3542  -36.8804   22.2107 H   0  0  0  0  0  0
  -23.7229  -37.6104   23.6874 H   0  0  0  0  0  0
  -26.4659  -30.9211   20.6487 H   0  0  0  0  0  0
  -27.0298  -30.3291   22.1459 H   0  0  0  0  0  0
  -28.1985  -27.7908   21.4071 H   0  0  0  0  0  0
  -25.7596  -25.3099   18.9588 H   0  0  0  0  0  0
  -24.1415  -27.0455   18.8719 H   0  0  0  0  0  0
  -24.1127  -30.2559   19.3556 H   0  0  0  0  0  0
  -22.9802  -29.0216   19.7958 H   0  0  0  0  0  0
  -25.1411  -36.1346   25.0723 H   0  0  0  0  0  0
  -21.0093  -28.3507   24.1170 H   0  0  0  0  0  0
  -20.5606  -26.2478   23.3738 H   0  0  0  0  0  0
  -21.6663  -26.7276   22.1281 H   0  0  0  0  0  0
  -19.6940  -25.6222   21.1342 H   0  0  0  0  0  0
  -19.6763  -27.3084   20.6699 H   0  0  0  0  0  0
  -17.4253  -26.6718   21.4002 H   0  0  0  0  0  0
  -18.0338  -26.0144   22.9029 H   0  0  0  0  0  0
  -19.8031  -30.7398   24.2071 H   0  0  0  0  0  0
  -17.5087  -31.6284   24.5168 H   0  0  0  0  0  0
  -15.5417  -30.2952   23.7771 H   0  0  0  0  0  0
  -15.8752  -28.0794   22.7169 H   0  0  0  0  0  0
  -24.5845  -30.7190   25.7424 H   0  0  0  0  0  0
  -24.8725  -32.3171   26.4173 H   0  0  0  0  0  0
  -25.7627  -30.9316   27.0189 H   0  0  0  0  0  0
  -26.3552  -29.6093   24.2123 H   0  0  0  0  0  0
  -27.4038  -29.7408   25.5956 H   0  0  0  0  0  0
  -27.9570  -30.3690   24.0706 H   0  0  0  0  0  0
  -27.2476  -33.3875   26.1635 H   0  0  0  0  0  0
  -28.4042  -32.6752   25.0488 H   0  0  0  0  0  0
  -28.0450  -31.8868   26.5774 H   0  0  0  0  0  0
  -28.2488  -38.0006   24.7515 H   0  0  0  0  0  0
  -28.1107  -36.2518   24.6291 H   0  0  0  0  0  0
  -27.2256  -37.1265   25.8866 H   0  0  0  0  0  0
  -21.0089  -29.8498   21.6159 H   0  0  0  0  0  0
  -26.0011  -38.2526   24.1435 H   0  0  0  0  0  0
  -30.0015  -20.5173   19.6027 H   0  0  0  0  0  0
  -29.6902  -20.4553   21.2869 H   0  0  0  0  0  0
  -27.7199  -22.3753   19.2446 H   0  0  0  0  0  0
  -27.3860  -22.2933   20.9225 H   0  0  0  0  0  0
  -30.3181  -18.3884   20.2986 H   0  0  0  0  0  0
  1 25  1  0  0  0
  1 30  2  0  0  0
  1 73  1  0  0  0
  2  3  1  0  0  0
  2 25  1  0  0  0
  2 74  1  0  0  0
  2 75  1  0  0  0
  3  4  1  0  0  0
  3 76  1  0  0  0
  3 77  1  0  0  0
  4  5  1  0  0  0
  4 78  1  0  0  0
  4 79  1  0  0  0
  5  6  1  0  0  0
  5 26  1  0  0  0
  5 80  1  0  0  0
  6 25  1  0  0  0
  6 81  1  0  0  0
  6 82  1  0  0  0
  7  8  2  0  0  0
  7 26  1  0  0  0
  7 29  1  0  0  0
  8  9  1  0  0  0
  8 22  1  0  0  0
  9 10  1  0  0  0
  9 27  2  0  0  0
 10 11  2  0  0  0
 10 15  1  0  0  0
 11 12  1  0  0  0
 11 83  1  0  0  0
 12 13  2  0  0  0
 12 84  1  0  0  0
 13 14  1  0  0  0
 13 31  1  0  0  0
 14 15  2  0  0  0
 14 85  1  0  0  0
 15 86  1  0  0  0
 16 17  2  0  0  0
 16 21  1  0  0  0
 16 31  1  0  0  0
 17 18  1  0  0  0
 17 87  1  0  0  0
 18 19  2  0  0  0
 18 88  1  0  0  0
 19 20  1  0  0  0
 19 24  1  0  0  0
 20 21  2  0  0  0
 20 89  1  0  0  0
 21 23  1  0  0  0
 22 28  1  0  0  0
 22 32  2  0  0  0
 26 27  1  0  0  0
 28 90  1  0  0  0
 28 91  1  0  0  0
 29 92  1  0  0  0
 29 93  1  0  0  0
 33 34  1  0  0  0
 33 66  1  0  0  0
 33 70  2  0  0  0
 34 36  1  0  0  0
 34 59  1  0  0  0
 34 94  1  0  0  0
 35 44  2  0  0  0
 35 45  1  0  0  0
 35 68  1  0  0  0
 36 56  1  0  0  0
 36 95  1  0  0  0
 37 39  1  0  0  0
 37 47  1  0  0  0
 37 66  1  0  0  0
 37 96  1  0  0  0
 38 43  2  0  0  0
 38 46  1  0  0  0
 38 47  1  0  0  0
 39 64  1  0  0  0
 39 67  2  0  0  0
 40 52  1  0  0  0
 40 53  2  0  0  0
 40 58  1  0  0  0
 41 97  1  0  0  0
 41 98  1  0  0  0
 41 99  1  0  0  0
 41 48  1  0  0  0
 42 43  1  0  0  0
 42 66  1  0  0  0
 42100  1  0  0  0
 42101  1  0  0  0
 43 44  1  0  0  0
 44102  1  0  0  0
 45 46  2  0  0  0
 45103  1  0  0  0
 46104  1  0  0  0
 47105  1  0  0  0
 47106  1  0  0  0
 48 56  1  0  0  0
 48 65  1  0  0  0
 48107  1  0  0  0
 49 50  1  0  0  0
 49 53  1  0  0  0
 49 64  1  0  0  0
 49108  1  0  0  0
 50 51  1  0  0  0
 50109  1  0  0  0
 50110  1  0  0  0
 51 52  1  0  0  0
 51111  1  0  0  0
 51112  1  0  0  0
 52113  1  0  0  0
 52114  1  0  0  0
 53 54  1  0  0  0
 54 55  2  0  0  0
 54115  1  0  0  0
 55 57  1  0  0  0
 55116  1  0  0  0
 56 69  2  0  0  0
 57 58  2  0  0  0
 57117  1  0  0  0
 58118  1  0  0  0
 59 60  1  0  0  0
 59 61  1  0  0  0
 59 62  1  0  0  0
 60119  1  0  0  0
 60120  1  0  0  0
 60121  1  0  0  0
 61122  1  0  0  0
 61123  1  0  0  0
 61124  1  0  0  0
 62125  1  0  0  0
 62126  1  0  0  0
 62127  1  0  0  0
 63 65  1  0  0  0
 63128  1  0  0  0
 63129  1  0  0  0
 63130  1  0  0  0
 64131  1  0  0  0
 65132  1  0  0  0
 68 72  1  0  0  0
 71 72  1  0  0  0
 71 73  1  0  0  0
 71133  1  0  0  0
 71134  1  0  0  0
 72135  1  0  0  0
 72136  1  0  0  0
 73137  1  0  0  0
M  ISO  4   1 100  68 101  72 101  73 100
M  END
> <chiral flag>
0

> <version>
0

> <s_m_source_file>
/data/baiqing/PycharmProjects/Reinvent-master-3.2/result/LINK_invent/BTK/process_docking_weight1_custom_sum_contain_oxygen_bond_distance_aromatic_linkinvent_7_9_3/rearranged_h_0002.sdf

> <i_m_source_file_index>
4

> <r_mmod_Potential_Energy-OPLS-2005>
6948.9697265625

> <r_mmod_Stretch_Energy-OPLS-2005>
3136.46411132812

> <r_mmod_Bend_Energy-OPLS-2005>
1268.50207519531

> <r_mmod_Torsional_Energy-OPLS-2005>
217.324829101562

> <r_mmod_Improper_Torsional_Energy-OPLS-2005>
4.82364273071289

> <r_mmod_Van_der_Waal_Energy-OPLS-2005>
120.95548248291

> <r_mmod_Electrostatic_Energy-OPLS-2005>
-391.247985839844

> <r_mmod_Solvation_Energy-OPLS-2005>
-221.174652099609

> <b_mmod_Minimization_Converged-OPLS-2005>
1

> <r_mmod_RMS_Derivative-OPLS-2005>
0.042349461466074

$$$$
4
                    3D
 Structure written by MMmdl.
154162  0  0  1  0            999 V2000
  -30.7108  -14.6268   20.4661 C   0  0  0  0  0  0
  -30.4192  -12.3707   19.4872 C   0  0  0  0  0  0
  -29.5234  -12.5164   18.2410 C   0  0  0  0  0  0
  -28.0376  -12.3904   18.6298 C   0  0  0  0  0  0
  -27.6531  -13.2519   19.8619 C   0  0  2  0  0  0
  -28.7005  -13.1550   20.9979 C   0  0  0  0  0  0
  -25.2496  -13.8246   20.5676 C   0  0  0  0  0  0
  -24.1804  -13.0482   20.9207 C   0  0  0  0  0  0
  -24.6450  -11.6957   20.8755 C   0  0  0  0  0  0
  -23.9153  -10.4331   21.0423 C   0  0  0  0  0  0
  -24.3706   -9.4225   21.9188 C   0  0  0  0  0  0
  -23.6355   -8.2271   22.0761 C   0  0  0  0  0  0
  -22.4322   -8.0347   21.3568 C   0  0  0  0  0  0
  -21.9973   -9.0304   20.4677 C   0  0  0  0  0  0
  -22.7335  -10.2183   20.3052 C   0  0  0  0  0  0
  -21.6858   -6.0791   22.5275 C   0  0  0  0  0  0
  -21.4036   -6.5665   23.8220 C   0  0  0  0  0  0
  -21.3658   -5.6802   24.9155 C   0  0  0  0  0  0
  -21.6040   -4.3060   24.7199 C   0  0  0  0  0  0
  -21.8812   -3.8175   23.4303 C   0  0  0  0  0  0
  -21.9198   -4.7020   22.3371 C   0  0  0  0  0  0
  -22.7825  -13.5260   21.1856 C   0  0  0  0  0  0
  -22.1665   -4.2229   21.0940 F   0  0  0  0  0  0
  -21.5620   -3.4527   25.7690 F   0  0  0  0  0  0
  -30.0313  -13.4359   20.4296 N   0  0  0  0  0  0
  -26.2993  -12.9540   20.3339 N   0  0  0  0  0  0
  -25.9390  -11.6661   20.5770 N   0  0  0  0  0  0
  -22.0480  -12.8205   22.0431 N   0  0  0  0  0  0
  -25.4154  -15.2005   20.4022 N   0  0  0  0  0  0
  -31.8736  -14.7150   20.0715 O   0  0  0  0  0  0
  -21.6655   -6.8958   21.4251 O   0  0  0  0  0  0
  -22.3449  -14.5531   20.6733 O   0  0  0  0  0  0
  -24.6196  -31.8640   23.2021 C   0  0  0  0  0  0
  -25.9071  -32.4813   23.8347 C   0  0  1  0  0  0
  -27.2386  -27.4003   20.1077 C   0  0  0  0  0  0
  -25.5927  -33.8608   24.2299 N   0  0  0  0  0  0
  -23.4065  -30.4865   21.5427 C   0  0  2  0  0  0
  -24.8561  -28.9438   20.1140 C   0  0  0  0  0  0
  -22.7404  -29.4636   22.4923 C   0  0  0  0  0  0
  -18.0277  -28.1362   22.8461 C   0  0  0  0  0  0
  -24.1501  -36.7360   23.2618 C   0  0  0  0  0  0
  -25.9342  -30.8271   21.3454 C   0  0  0  0  0  0
  -26.0172  -29.4534   20.7055 C   0  0  0  0  0  0
  -27.2124  -28.6911   20.6949 C   0  0  0  0  0  0
  -26.0535  -26.9064   19.5192 C   0  0  0  0  0  0
  -24.8715  -27.6705   19.5174 C   0  0  0  0  0  0
  -23.6182  -29.8132   20.1587 C   0  0  0  0  0  0
  -25.4097  -36.3108   24.0334 C   0  0  1  0  0  0
  -20.5863  -28.3656   23.1281 C   0  0  2  0  0  0
  -20.6759  -26.9385   22.5388 C   0  0  0  0  0  0
  -19.5744  -26.6370   21.5172 C   0  0  0  0  0  0
  -18.1925  -26.7905   22.1596 C   0  0  0  0  0  0
  -19.1523  -28.8816   23.2891 C   0  0  0  0  0  0
  -18.9467  -30.1411   23.8933 C   0  0  0  0  0  0
  -17.6464  -30.6554   24.0560 C   0  0  0  0  0  0
  -25.9024  -34.9481   23.5108 C   0  0  0  0  0  0
  -16.5353  -29.9057   23.6307 C   0  0  0  0  0  0
  -16.7261  -28.6477   23.0315 C   0  0  0  0  0  0
  -26.4471  -31.6589   25.0691 C   0  0  0  0  0  0
  -25.3762  -31.3717   26.1473 C   0  0  0  0  0  0
  -27.0264  -30.3038   24.6016 C   0  0  0  0  0  0
  -27.6028  -32.4292   25.7504 C   0  0  0  0  0  0
  -27.5589  -37.1826   24.8427 C   0  0  0  0  0  0
  -21.4124  -29.3057   22.3696 N   0  0  0  0  0  0
  -26.4271  -37.3810   23.9410 N   0  0  0  0  0  0
  -24.6729  -31.0717   22.0919 N   0  0  0  0  0  0
  -23.4162  -28.8153   23.2953 O   0  0  0  0  0  0
  -28.4218  -26.6753   20.1424 O   0  0  0  0  0  0
  -26.5575  -34.8943   22.4663 O   0  0  0  0  0  0
  -23.5388  -32.1385   23.7425 O   0  0  0  0  0  0
  -31.5993  -19.1266   20.0204 C   0  0  0  0  0  0
  -31.4733  -17.7336   20.2361 C   0  0  0  0  0  0
  -30.4851  -19.9795   20.1277 C   0  0  0  0  0  0
  -29.1027  -18.0439   20.6408 C   0  0  0  0  0  0
  -30.2132  -17.1554   20.5486 C   0  0  0  0  0  0
  -29.2176  -19.4529   20.4527 C   0  0  0  0  0  0
  -28.1039  -24.1997   20.6508 C   0  0  0  0  0  0
  -28.0625  -22.7514   20.0525 C   0  0  0  0  0  0
  -28.4862  -25.3201   19.6377 C   0  0  0  0  0  0
  -28.2288  -21.5984   21.0890 C   0  0  0  0  0  0
  -29.9829  -15.7353   20.7930 N   0  0  0  0  0  0
  -28.0923  -20.2637   20.5520 O   0  0  0  0  0  0
  -31.4728  -12.4190   19.2138 H   0  0  0  0  0  0
  -30.2789  -11.3944   19.9547 H   0  0  0  0  0  0
  -29.7904  -11.7652   17.4988 H   0  0  0  0  0  0
  -29.7031  -13.4835   17.7639 H   0  0  0  0  0  0
  -27.8398  -11.3397   18.8463 H   0  0  0  0  0  0
  -27.4064  -12.6547   17.7808 H   0  0  0  0  0  0
  -27.6568  -14.2826   19.5104 H   0  0  0  0  0  0
  -28.6858  -12.1606   21.4404 H   0  0  0  0  0  0
  -28.4554  -13.8473   21.8063 H   0  0  0  0  0  0
  -25.2893   -9.5654   22.4706 H   0  0  0  0  0  0
  -24.0105   -7.4623   22.7406 H   0  0  0  0  0  0
  -21.0911   -8.8836   19.8935 H   0  0  0  0  0  0
  -22.3856  -10.9714   19.6087 H   0  0  0  0  0  0
  -21.2051   -7.6177   23.9746 H   0  0  0  0  0  0
  -21.1477   -6.0515   25.9063 H   0  0  0  0  0  0
  -22.0607   -2.7655   23.2744 H   0  0  0  0  0  0
  -22.4137  -11.9905   22.4848 H   0  0  0  0  0  0
  -21.1050  -13.1135   22.2587 H   0  0  0  0  0  0
  -24.6281  -15.8415   20.4170 H   0  0  0  0  0  0
  -26.2419  -15.6114   19.9897 H   0  0  0  0  0  0
  -26.7149  -32.5524   23.1123 H   0  0  0  0  0  0
  -25.0169  -33.9761   25.0508 H   0  0  0  0  0  0
  -22.6994  -31.3054   21.3968 H   0  0  0  0  0  0
  -23.3746  -35.9703   23.3197 H   0  0  0  0  0  0
  -24.3624  -36.9063   22.2048 H   0  0  0  0  0  0
  -23.7256  -37.6557   23.6668 H   0  0  0  0  0  0
  -26.0212  -31.5765   20.5588 H   0  0  0  0  0  0
  -26.8330  -30.9120   21.9428 H   0  0  0  0  0  0
  -28.1098  -29.0890   21.1483 H   0  0  0  0  0  0
  -26.0083  -25.9245   19.0690 H   0  0  0  0  0  0
  -23.9794  -27.2608   19.0642 H   0  0  0  0  0  0
  -23.7289  -30.5858   19.3970 H   0  0  0  0  0  0
  -22.7426  -29.2353   19.8586 H   0  0  0  0  0  0
  -25.1253  -36.1971   25.0824 H   0  0  0  0  0  0
  -20.9995  -28.3240   24.1390 H   0  0  0  0  0  0
  -20.5618  -26.2276   23.3578 H   0  0  0  0  0  0
  -21.6647  -26.7390   22.1206 H   0  0  0  0  0  0
  -19.6898  -25.6286   21.1194 H   0  0  0  0  0  0
  -19.6673  -27.3190   20.6706 H   0  0  0  0  0  0
  -17.4188  -26.6632   21.4011 H   0  0  0  0  0  0
  -18.0345  -26.0037   22.8981 H   0  0  0  0  0  0
  -19.7957  -30.7200   24.2341 H   0  0  0  0  0  0
  -17.5028  -31.6246   24.5133 H   0  0  0  0  0  0
  -15.5352  -30.2955   23.7622 H   0  0  0  0  0  0
  -15.8670  -28.0802   22.6994 H   0  0  0  0  0  0
  -24.5916  -30.7062   25.7868 H   0  0  0  0  0  0
  -24.9000  -32.2896   26.4932 H   0  0  0  0  0  0
  -25.8179  -30.8912   27.0217 H   0  0  0  0  0  0
  -26.2765  -29.6850   24.1087 H   0  0  0  0  0  0
  -27.4076  -29.7228   25.4420 H   0  0  0  0  0  0
  -27.8578  -30.4377   23.9094 H   0  0  0  0  0  0
  -27.2614  -33.3568   26.2114 H   0  0  0  0  0  0
  -28.3867  -32.6885   25.0377 H   0  0  0  0  0  0
  -28.0647  -31.8393   26.5440 H   0  0  0  0  0  0
  -28.2524  -38.0205   24.7571 H   0  0  0  0  0  0
  -28.1175  -36.2752   24.6087 H   0  0  0  0  0  0
  -27.2351  -37.1290   25.8839 H   0  0  0  0  0  0
  -20.9231  -29.8897   21.7058 H   0  0  0  0  0  0
  -26.0160  -38.2889   24.1431 H   0  0  0  0  0  0
  -32.5559  -19.5634   19.7691 H   0  0  0  0  0  0
  -32.3629  -17.1298   20.1575 H   0  0  0  0  0  0
  -30.6114  -21.0373   19.9408 H   0  0  0  0  0  0
  -28.1325  -17.6319   20.8764 H   0  0  0  0  0  0
  -28.8328  -24.2229   21.4612 H   0  0  0  0  0  0
  -27.1433  -24.4283   21.1122 H   0  0  0  0  0  0
  -28.8428  -22.6539   19.2980 H   0  0  0  0  0  0
  -27.1116  -22.6214   19.5272 H   0  0  0  0  0  0
  -27.9654  -25.2114   18.6896 H   0  0  0  0  0  0
  -29.5315  -25.1508   19.3834 H   0  0  0  0  0  0
  -27.4483  -21.7030   21.8432 H   0  0  0  0  0  0
  -29.1667  -21.6970   21.6376 H   0  0  0  0  0  0
  -29.0543  -15.5175   21.1144 H   0  0  0  0  0  0
  1 25  1  0  0  0
  1 30  2  0  0  0
  1 81  1  0  0  0
  2  3  1  0  0  0
  2 25  1  0  0  0
  2 83  1  0  0  0
  2 84  1  0  0  0
  3  4  1  0  0  0
  3 85  1  0  0  0
  3 86  1  0  0  0
  4  5  1  0  0  0
  4 87  1  0  0  0
  4 88  1  0  0  0
  5  6  1  0  0  0
  5 26  1  0  0  0
  5 89  1  0  0  0
  6 25  1  0  0  0
  6 90  1  0  0  0
  6 91  1  0  0  0
  7  8  2  0  0  0
  7 26  1  0  0  0
  7 29  1  0  0  0
  8  9  1  0  0  0
  8 22  1  0  0  0
  9 10  1  0  0  0
  9 27  2  0  0  0
 10 11  2  0  0  0
 10 15  1  0  0  0
 11 12  1  0  0  0
 11 92  1  0  0  0
 12 13  2  0  0  0
 12 93  1  0  0  0
 13 14  1  0  0  0
 13 31  1  0  0  0
 14 15  2  0  0  0
 14 94  1  0  0  0
 15 95  1  0  0  0
 16 17  2  0  0  0
 16 21  1  0  0  0
 16 31  1  0  0  0
 17 18  1  0  0  0
 17 96  1  0  0  0
 18 19  2  0  0  0
 18 97  1  0  0  0
 19 20  1  0  0  0
 19 24  1  0  0  0
 20 21  2  0  0  0
 20 98  1  0  0  0
 21 23  1  0  0  0
 22 28  1  0  0  0
 22 32  2  0  0  0
 26 27  1  0  0  0
 28 99  1  0  0  0
 28100  1  0  0  0
 29101  1  0  0  0
 29102  1  0  0  0
 33 34  1  0  0  0
 33 66  1  0  0  0
 33 70  2  0  0  0
 34 36  1  0  0  0
 34 59  1  0  0  0
 34103  1  0  0  0
 35 44  2  0  0  0
 35 45  1  0  0  0
 35 68  1  0  0  0
 36 56  1  0  0  0
 36104  1  0  0  0
 37 39  1  0  0  0
 37 47  1  0  0  0
 37 66  1  0  0  0
 37105  1  0  0  0
 38 43  2  0  0  0
 38 46  1  0  0  0
 38 47  1  0  0  0
 39 64  1  0  0  0
 39 67  2  0  0  0
 40 52  1  0  0  0
 40 53  2  0  0  0
 40 58  1  0  0  0
 41106  1  0  0  0
 41107  1  0  0  0
 41108  1  0  0  0
 41 48  1  0  0  0
 42 43  1  0  0  0
 42 66  1  0  0  0
 42109  1  0  0  0
 42110  1  0  0  0
 43 44  1  0  0  0
 44111  1  0  0  0
 45 46  2  0  0  0
 45112  1  0  0  0
 46113  1  0  0  0
 47114  1  0  0  0
 47115  1  0  0  0
 48 56  1  0  0  0
 48 65  1  0  0  0
 48116  1  0  0  0
 49 50  1  0  0  0
 49 53  1  0  0  0
 49 64  1  0  0  0
 49117  1  0  0  0
 50 51  1  0  0  0
 50118  1  0  0  0
 50119  1  0  0  0
 51 52  1  0  0  0
 51120  1  0  0  0
 51121  1  0  0  0
 52122  1  0  0  0
 52123  1  0  0  0
 53 54  1  0  0  0
 54 55  2  0  0  0
 54124  1  0  0  0
 55 57  1  0  0  0
 55125  1  0  0  0
 56 69  2  0  0  0
 57 58  2  0  0  0
 57126  1  0  0  0
 58127  1  0  0  0
 59 60  1  0  0  0
 59 61  1  0  0  0
 59 62  1  0  0  0
 60128  1  0  0  0
 60129  1  0  0  0
 60130  1  0  0  0
 61131  1  0  0  0
 61132  1  0  0  0
 61133  1  0  0  0
 62134  1  0  0  0
 62135  1  0  0  0
 62136  1  0  0  0
 63 65  1  0  0  0
 63137  1  0  0  0
 63138  1  0  0  0
 63139  1  0  0  0
 64140  1  0  0  0
 65141  1  0  0  0
 68 79  1  0  0  0
 71 72  2  0  0  0
 71 73  1  0  0  0
 71142  1  0  0  0
 72 75  1  0  0  0
 72143  1  0  0  0
 73 76  2  0  0  0
 73144  1  0  0  0
 74 75  2  0  0  0
 74 76  1  0  0  0
 74145  1  0  0  0
 75 81  1  0  0  0
 76 82  1  0  0  0
 77 78  1  0  0  0
 77 79  1  0  0  0
 77146  1  0  0  0
 77147  1  0  0  0
 78 80  1  0  0  0
 78148  1  0  0  0
 78149  1  0  0  0
 79150  1  0  0  0
 79151  1  0  0  0
 80 82  1  0  0  0
 80152  1  0  0  0
 80153  1  0  0  0
 81154  1  0  0  0
M  ISO  4   1 100  68 101  79 101  81 100
M  END
> <chiral flag>
0

> <version>
0

> <s_m_source_file>
/data/baiqing/PycharmProjects/Reinvent-master-3.2/result/LINK_invent/BTK/process_docking_weight1_custom_sum_contain_oxygen_bond_distance_aromatic_linkinvent_7_9_3/rearranged_h_0002.sdf

> <i_m_source_file_index>
5

> <r_mmod_Potential_Energy-OPLS-2005>
12.3938570022583

> <r_mmod_Stretch_Energy-OPLS-2005>
53.158374786377

> <r_mmod_Bend_Energy-OPLS-2005>
125.004516601562

> <r_mmod_Torsional_Energy-OPLS-2005>
215.281326293945

> <r_mmod_Improper_Torsional_Energy-OPLS-2005>
4.95515584945679

> <r_mmod_Van_der_Waal_Energy-OPLS-2005>
147.654434204102

> <r_mmod_Electrostatic_Energy-OPLS-2005>
-362.478637695312

> <r_mmod_Solvation_Energy-OPLS-2005>
-207.331604003906

> <b_mmod_Minimization_Converged-OPLS-2005>
0

> <r_mmod_RMS_Derivative-OPLS-2005>
6.90671491622925

$$$$
5
                    3D
 Structure written by MMmdl.
151159  0  0  1  0            999 V2000
  -30.6183  -14.6884   20.5139 C   0  0  0  0  0  0
  -30.4359  -12.4337   19.4638 C   0  0  0  0  0  0
  -29.5135  -12.5566   18.2311 C   0  0  0  0  0  0
  -28.0372  -12.3840   18.6297 C   0  0  0  0  0  0
  -27.6555  -13.2329   19.8715 C   0  0  2  0  0  0
  -28.6981  -13.0967   21.0054 C   0  0  0  0  0  0
  -25.2556  -13.8210   20.5713 C   0  0  0  0  0  0
  -24.1819  -13.0449   20.9188 C   0  0  0  0  0  0
  -24.6435  -11.6934   20.8744 C   0  0  0  0  0  0
  -23.9092  -10.4291   21.0363 C   0  0  0  0  0  0
  -24.3651   -9.4206   21.9131 C   0  0  0  0  0  0
  -23.6309   -8.2257   22.0720 C   0  0  0  0  0  0
  -22.4288   -8.0293   21.3541 C   0  0  0  0  0  0
  -21.9934   -9.0258   20.4628 C   0  0  0  0  0  0
  -22.7273  -10.2129   20.3016 C   0  0  0  0  0  0
  -21.6874   -6.0737   22.5277 C   0  0  0  0  0  0
  -21.4030   -6.5634   23.8203 C   0  0  0  0  0  0
  -21.3679   -5.6772   24.9165 C   0  0  0  0  0  0
  -21.6040   -4.3054   24.7207 C   0  0  0  0  0  0
  -21.8837   -3.8139   23.4323 C   0  0  0  0  0  0
  -21.9204   -4.6962   22.3389 C   0  0  0  0  0  0
  -22.7831  -13.5241   21.1808 C   0  0  0  0  0  0
  -22.1651   -4.2152   21.0969 F   0  0  0  0  0  0
  -21.5636   -3.4527   25.7714 F   0  0  0  0  0  0
  -30.0159  -13.4528   20.4529 N   0  0  0  0  0  0
  -26.3007  -12.9411   20.3353 N   0  0  0  0  0  0
  -25.9377  -11.6563   20.5761 N   0  0  0  0  0  0
  -22.0454  -12.8264   22.0419 N   0  0  0  0  0  0
  -25.4261  -15.1926   20.4188 N   0  0  0  0  0  0
  -31.7466  -14.8581   20.0396 O   0  0  0  0  0  0
  -21.6664   -6.8882   21.4224 O   0  0  0  0  0  0
  -22.3495  -14.5516   20.6631 O   0  0  0  0  0  0
  -24.6263  -31.8598   23.1996 C   0  0  0  0  0  0
  -25.9118  -32.4779   23.8327 C   0  0  1  0  0  0
  -27.2440  -27.3066   20.1323 C   0  0  0  0  0  0
  -25.5949  -33.8587   24.2276 N   0  0  0  0  0  0
  -23.4204  -30.4782   21.5458 C   0  0  2  0  0  0
  -24.8716  -28.9196   20.1219 C   0  0  0  0  0  0
  -22.7472  -29.4642   22.4998 C   0  0  0  0  0  0
  -18.0303  -28.1373   22.8479 C   0  0  0  0  0  0
  -24.1504  -36.7279   23.2632 C   0  0  0  0  0  0
  -25.9629  -30.7810   21.3774 C   0  0  0  0  0  0
  -26.0393  -29.4068   20.7226 C   0  0  0  0  0  0
  -27.2260  -28.6130   20.7158 C   0  0  0  0  0  0
  -26.0486  -26.8692   19.5151 C   0  0  0  0  0  0
  -24.8787  -27.6550   19.5111 C   0  0  0  0  0  0
  -23.6351  -29.7970   20.1681 C   0  0  0  0  0  0
  -25.4137  -36.3092   24.0332 C   0  0  1  0  0  0
  -20.5892  -28.3685   23.1288 C   0  0  2  0  0  0
  -20.6825  -26.9422   22.5401 C   0  0  0  0  0  0
  -19.5800  -26.6366   21.5226 C   0  0  0  0  0  0
  -18.1971  -26.7919   22.1604 C   0  0  0  0  0  0
  -19.1543  -28.8850   23.2867 C   0  0  0  0  0  0
  -18.9471  -30.1464   23.8859 C   0  0  0  0  0  0
  -17.6464  -30.6574   24.0553 C   0  0  0  0  0  0
  -25.9078  -34.9468   23.5103 C   0  0  0  0  0  0
  -16.5364  -29.9063   23.6332 C   0  0  0  0  0  0
  -16.7285  -28.6480   23.0351 C   0  0  0  0  0  0
  -26.4481  -31.6589   25.0709 C   0  0  0  0  0  0
  -25.3699  -31.3732   26.1424 C   0  0  0  0  0  0
  -27.0354  -30.3025   24.6179 C   0  0  0  0  0  0
  -27.6045  -32.4320   25.7470 C   0  0  0  0  0  0
  -27.5609  -37.1794   24.8455 C   0  0  0  0  0  0
  -21.4202  -29.3019   22.3689 N   0  0  0  0  0  0
  -26.4304  -37.3797   23.9413 N   0  0  0  0  0  0
  -24.6886  -31.0584   22.0967 N   0  0  0  0  0  0
  -23.4166  -28.8224   23.3136 O   0  0  0  0  0  0
  -28.3839  -26.4785   20.1614 O   0  0  0  0  0  0
  -26.5641  -34.8918   22.4668 O   0  0  0  0  0  0
  -23.5438  -32.1430   23.7307 O   0  0  0  0  0  0
  -30.3063  -17.7857   19.5591 C   0  0  0  0  0  0
  -29.3834  -18.0960   21.7608 C   0  0  0  0  0  0
  -30.1503  -19.1846   19.3131 C   0  0  0  0  0  0
  -29.2632  -19.5058   21.5264 C   0  0  0  0  0  0
  -29.9033  -17.1873   20.7885 C   0  0  0  0  0  0
  -29.6223  -20.0930   20.2781 C   0  0  0  0  0  0
  -29.4960  -24.0739   20.3620 C   0  0  0  0  0  0
  -29.4037  -22.5508   20.8796 C   0  0  0  0  0  0
  -28.2090  -25.0020   20.2058 C   0  0  0  0  0  0
  -29.8978  -15.7332   21.0433 N   0  0  0  0  0  0
  -29.4531  -21.4503   19.9079 O   0  0  0  0  0  0
  -31.4753  -12.5568   19.1615 H   0  0  0  0  0  0
  -30.3658  -11.4324   19.8887 H   0  0  0  0  0  0
  -29.7913  -11.8247   17.4695 H   0  0  0  0  0  0
  -29.6525  -13.5380   17.7753 H   0  0  0  0  0  0
  -27.8735  -11.3263   18.8296 H   0  0  0  0  0  0
  -27.3910  -12.6356   17.7882 H   0  0  0  0  0  0
  -27.6693  -14.2727   19.5484 H   0  0  0  0  0  0
  -28.7155  -12.0734   21.3863 H   0  0  0  0  0  0
  -28.4291  -13.7289   21.8511 H   0  0  0  0  0  0
  -25.2775   -9.5720   22.4711 H   0  0  0  0  0  0
  -24.0047   -7.4666   22.7467 H   0  0  0  0  0  0
  -21.0850   -8.8770   19.8950 H   0  0  0  0  0  0
  -22.3685  -10.9673   19.6153 H   0  0  0  0  0  0
  -21.2008   -7.6126   23.9721 H   0  0  0  0  0  0
  -21.1483   -6.0488   25.9079 H   0  0  0  0  0  0
  -22.0594   -2.7597   23.2816 H   0  0  0  0  0  0
  -22.4062  -11.9965   22.4895 H   0  0  0  0  0  0
  -21.1051  -13.1241   22.2523 H   0  0  0  0  0  0
  -24.6665  -15.8532   20.5436 H   0  0  0  0  0  0
  -26.2856  -15.6363   20.1247 H   0  0  0  0  0  0
  -26.7180  -32.5417   23.1067 H   0  0  0  0  0  0
  -25.0177  -33.9724   25.0473 H   0  0  0  0  0  0
  -22.7144  -31.2989   21.3978 H   0  0  0  0  0  0
  -23.3803  -35.9568   23.3274 H   0  0  0  0  0  0
  -24.3602  -36.8921   22.2046 H   0  0  0  0  0  0
  -23.7201  -37.6453   23.6661 H   0  0  0  0  0  0
  -26.1067  -31.5404   20.6075 H   0  0  0  0  0  0
  -26.8363  -30.8237   22.0166 H   0  0  0  0  0  0
  -28.1177  -28.9868   21.2001 H   0  0  0  0  0  0
  -25.9934  -25.9038   19.0360 H   0  0  0  0  0  0
  -23.9843  -27.2690   19.0415 H   0  0  0  0  0  0
  -23.7403  -30.5632   19.4004 H   0  0  0  0  0  0
  -22.7556  -29.2188   19.8770 H   0  0  0  0  0  0
  -25.1316  -36.1953   25.0827 H   0  0  0  0  0  0
  -20.9965  -28.3272   24.1415 H   0  0  0  0  0  0
  -20.5799  -26.2308   23.3595 H   0  0  0  0  0  0
  -21.6692  -26.7520   22.1159 H   0  0  0  0  0  0
  -19.6998  -25.6281   21.1261 H   0  0  0  0  0  0
  -19.6737  -27.3157   20.6745 H   0  0  0  0  0  0
  -17.4273  -26.6667   21.3983 H   0  0  0  0  0  0
  -18.0346  -26.0029   22.8950 H   0  0  0  0  0  0
  -19.7957  -30.7303   24.2150 H   0  0  0  0  0  0
  -17.5032  -31.6249   24.5162 H   0  0  0  0  0  0
  -15.5365  -30.2946   23.7697 H   0  0  0  0  0  0
  -15.8687  -28.0785   22.7088 H   0  0  0  0  0  0
  -24.5841  -30.7139   25.7725 H   0  0  0  0  0  0
  -24.8923  -32.2906   26.4872 H   0  0  0  0  0  0
  -25.7975  -30.8855   27.0188 H   0  0  0  0  0  0
  -26.2957  -29.6747   24.1210 H   0  0  0  0  0  0
  -27.4094  -29.7292   25.4666 H   0  0  0  0  0  0
  -27.8785  -30.4337   23.9399 H   0  0  0  0  0  0
  -27.2672  -33.3616   26.2050 H   0  0  0  0  0  0
  -28.3834  -32.6889   25.0286 H   0  0  0  0  0  0
  -28.0734  -31.8453   26.5370 H   0  0  0  0  0  0
  -28.2593  -38.0129   24.7612 H   0  0  0  0  0  0
  -28.1151  -36.2687   24.6170 H   0  0  0  0  0  0
  -27.2338  -37.1292   25.8850 H   0  0  0  0  0  0
  -20.9436  -29.8639   21.6781 H   0  0  0  0  0  0
  -26.0207  -38.2871   24.1430 H   0  0  0  0  0  0
  -30.7036  -17.1789   18.7545 H   0  0  0  0  0  0
  -29.0400  -17.7192   22.7203 H   0  0  0  0  0  0
  -30.4406  -19.5683   18.3432 H   0  0  0  0  0  0
  -28.8440  -20.1135   22.3196 H   0  0  0  0  0  0
  -30.0759  -24.0950   19.4386 H   0  0  0  0  0  0
  -30.1279  -24.5954   21.0820 H   0  0  0  0  0  0
  -28.5720  -22.4378   21.5775 H   0  0  0  0  0  0
  -30.3014  -22.3971   21.4825 H   0  0  0  0  0  0
  -27.5390  -24.7864   21.0384 H   0  0  0  0  0  0
  -27.7049  -24.6696   19.3012 H   0  0  0  0  0  0
  -29.1493  -15.4223   21.6469 H   0  0  0  0  0  0
  1 25  1  0  0  0
  1 30  2  0  0  0
  1 80  1  0  0  0
  2  3  1  0  0  0
  2 25  1  0  0  0
  2 82  1  0  0  0
  2 83  1  0  0  0
  3  4  1  0  0  0
  3 84  1  0  0  0
  3 85  1  0  0  0
  4  5  1  0  0  0
  4 86  1  0  0  0
  4 87  1  0  0  0
  5  6  1  0  0  0
  5 26  1  0  0  0
  5 88  1  0  0  0
  6 25  1  0  0  0
  6 89  1  0  0  0
  6 90  1  0  0  0
  7  8  2  0  0  0
  7 26  1  0  0  0
  7 29  1  0  0  0
  8  9  1  0  0  0
  8 22  1  0  0  0
  9 10  1  0  0  0
  9 27  2  0  0  0
 10 11  2  0  0  0
 10 15  1  0  0  0
 11 12  1  0  0  0
 11 91  1  0  0  0
 12 13  2  0  0  0
 12 92  1  0  0  0
 13 14  1  0  0  0
 13 31  1  0  0  0
 14 15  2  0  0  0
 14 93  1  0  0  0
 15 94  1  0  0  0
 16 17  2  0  0  0
 16 21  1  0  0  0
 16 31  1  0  0  0
 17 18  1  0  0  0
 17 95  1  0  0  0
 18 19  2  0  0  0
 18 96  1  0  0  0
 19 20  1  0  0  0
 19 24  1  0  0  0
 20 21  2  0  0  0
 20 97  1  0  0  0
 21 23  1  0  0  0
 22 28  1  0  0  0
 22 32  2  0  0  0
 26 27  1  0  0  0
 28 98  1  0  0  0
 28 99  1  0  0  0
 29100  1  0  0  0
 29101  1  0  0  0
 33 34  1  0  0  0
 33 66  1  0  0  0
 33 70  2  0  0  0
 34 36  1  0  0  0
 34 59  1  0  0  0
 34102  1  0  0  0
 35 44  2  0  0  0
 35 45  1  0  0  0
 35 68  1  0  0  0
 36 56  1  0  0  0
 36103  1  0  0  0
 37 39  1  0  0  0
 37 47  1  0  0  0
 37 66  1  0  0  0
 37104  1  0  0  0
 38 43  2  0  0  0
 38 46  1  0  0  0
 38 47  1  0  0  0
 39 64  1  0  0  0
 39 67  2  0  0  0
 40 52  1  0  0  0
 40 53  2  0  0  0
 40 58  1  0  0  0
 41105  1  0  0  0
 41106  1  0  0  0
 41107  1  0  0  0
 41 48  1  0  0  0
 42 43  1  0  0  0
 42 66  1  0  0  0
 42108  1  0  0  0
 42109  1  0  0  0
 43 44  1  0  0  0
 44110  1  0  0  0
 45 46  2  0  0  0
 45111  1  0  0  0
 46112  1  0  0  0
 47113  1  0  0  0
 47114  1  0  0  0
 48 56  1  0  0  0
 48 65  1  0  0  0
 48115  1  0  0  0
 49 50  1  0  0  0
 49 53  1  0  0  0
 49 64  1  0  0  0
 49116  1  0  0  0
 50 51  1  0  0  0
 50117  1  0  0  0
 50118  1  0  0  0
 51 52  1  0  0  0
 51119  1  0  0  0
 51120  1  0  0  0
 52121  1  0  0  0
 52122  1  0  0  0
 53 54  1  0  0  0
 54 55  2  0  0  0
 54123  1  0  0  0
 55 57  1  0  0  0
 55124  1  0  0  0
 56 69  2  0  0  0
 57 58  2  0  0  0
 57125  1  0  0  0
 58126  1  0  0  0
 59 60  1  0  0  0
 59 61  1  0  0  0
 59 62  1  0  0  0
 60127  1  0  0  0
 60128  1  0  0  0
 60129  1  0  0  0
 61130  1  0  0  0
 61131  1  0  0  0
 61132  1  0  0  0
 62133  1  0  0  0
 62134  1  0  0  0
 62135  1  0  0  0
 63 65  1  0  0  0
 63136  1  0  0  0
 63137  1  0  0  0
 63138  1  0  0  0
 64139  1  0  0  0
 65140  1  0  0  0
 68 79  1  0  0  0
 71 73  2  0  0  0
 71 75  1  0  0  0
 71141  1  0  0  0
 72 74  1  0  0  0
 72 75  2  0  0  0
 72142  1  0  0  0
 73 76  1  0  0  0
 73143  1  0  0  0
 74 76  2  0  0  0
 74144  1  0  0  0
 75 80  1  0  0  0
 76 81  1  0  0  0
 77 78  1  0  0  0
 77 79  1  0  0  0
 77145  1  0  0  0
 77146  1  0  0  0
 78 81  1  0  0  0
 78147  1  0  0  0
 78148  1  0  0  0
 79149  1  0  0  0
 79150  1  0  0  0
 80151  1  0  0  0
M  ISO  4   1 100  68 101  79 101  80 100
M  END
> <chiral flag>
0

> <version>
0

> <s_m_source_file>
/data/baiqing/PycharmProjects/Reinvent-master-3.2/result/LINK_invent/BTK/process_docking_weight1_custom_sum_contain_oxygen_bond_distance_aromatic_linkinvent_7_9_3/rearranged_h_0002.sdf

> <i_m_source_file_index>
6

> <r_mmod_Potential_Energy-OPLS-2005>
87.3086853027344

> <r_mmod_Stretch_Energy-OPLS-2005>
91.08984375

> <r_mmod_Bend_Energy-OPLS-2005>
159.319290161133

> <r_mmod_Torsional_Energy-OPLS-2005>
236.013916015625

> <r_mmod_Improper_Torsional_Energy-OPLS-2005>
3.05807876586914

> <r_mmod_Van_der_Waal_Energy-OPLS-2005>
138.714782714844

> <r_mmod_Electrostatic_Energy-OPLS-2005>
-383.976654052734

> <r_mmod_Solvation_Energy-OPLS-2005>
-214.270523071289

> <b_mmod_Minimization_Converged-OPLS-2005>
0

> <r_mmod_RMS_Derivative-OPLS-2005>
5.72391843795776

$$$$
6
                    3D
 Structure written by MMmdl.
151159  0  0  1  0            999 V2000
  -30.6224  -14.7233   20.4518 C   0  0  0  0  0  0
  -30.4290  -12.4358   19.4838 C   0  0  0  0  0  0
  -29.5126  -12.5074   18.2423 C   0  0  0  0  0  0
  -28.0370  -12.3373   18.6506 C   0  0  0  0  0  0
  -27.6451  -13.2333   19.8561 C   0  0  2  0  0  0
  -28.6868  -13.1584   20.9949 C   0  0  0  0  0  0
  -25.2517  -13.8205   20.5699 C   0  0  0  0  0  0
  -24.1806  -13.0448   20.9202 C   0  0  0  0  0  0
  -24.6398  -11.6925   20.8745 C   0  0  0  0  0  0
  -23.9074  -10.4299   21.0406 C   0  0  0  0  0  0
  -24.3625   -9.4212   21.9182 C   0  0  0  0  0  0
  -23.6300   -8.2247   22.0753 C   0  0  0  0  0  0
  -22.4280   -8.0285   21.3545 C   0  0  0  0  0  0
  -21.9916   -9.0260   20.4647 C   0  0  0  0  0  0
  -22.7246  -10.2138   20.3055 C   0  0  0  0  0  0
  -21.6854   -6.0739   22.5279 C   0  0  0  0  0  0
  -21.4016   -6.5643   23.8213 C   0  0  0  0  0  0
  -21.3660   -5.6794   24.9175 C   0  0  0  0  0  0
  -21.6043   -4.3056   24.7225 C   0  0  0  0  0  0
  -21.8819   -3.8150   23.4345 C   0  0  0  0  0  0
  -21.9193   -4.6967   22.3402 C   0  0  0  0  0  0
  -22.7825  -13.5227   21.1862 C   0  0  0  0  0  0
  -22.1661   -4.2153   21.0979 F   0  0  0  0  0  0
  -21.5628   -3.4540   25.7737 F   0  0  0  0  0  0
  -29.9953  -13.4978   20.4221 N   0  0  0  0  0  0
  -26.2951  -12.9417   20.3300 N   0  0  0  0  0  0
  -25.9331  -11.6556   20.5758 N   0  0  0  0  0  0
  -22.0473  -12.8216   22.0421 N   0  0  0  0  0  0
  -25.4212  -15.1930   20.4123 N   0  0  0  0  0  0
  -31.8047  -14.8083   20.1066 O   0  0  0  0  0  0
  -21.6643   -6.8883   21.4241 O   0  0  0  0  0  0
  -22.3507  -14.5530   20.6706 O   0  0  0  0  0  0
  -24.6308  -31.8559   23.2000 C   0  0  0  0  0  0
  -25.9137  -32.4758   23.8340 C   0  0  1  0  0  0
  -27.2160  -27.2631   20.1265 C   0  0  0  0  0  0
  -25.5935  -33.8560   24.2261 N   0  0  0  0  0  0
  -23.4272  -30.4799   21.5431 C   0  0  2  0  0  0
  -24.8741  -28.9316   20.1071 C   0  0  0  0  0  0
  -22.7502  -29.4604   22.4911 C   0  0  0  0  0  0
  -18.0293  -28.1387   22.8482 C   0  0  0  0  0  0
  -24.1490  -36.7285   23.2639 C   0  0  0  0  0  0
  -25.9735  -30.7680   21.3821 C   0  0  0  0  0  0
  -26.0445  -29.3916   20.7231 C   0  0  0  0  0  0
  -27.2160  -28.5681   20.7264 C   0  0  0  0  0  0
  -26.0281  -26.8855   19.4577 C   0  0  0  0  0  0
  -24.8714  -27.6867   19.4631 C   0  0  0  0  0  0
  -23.6450  -29.8176   20.1576 C   0  0  0  0  0  0
  -25.4117  -36.3071   24.0326 C   0  0  1  0  0  0
  -20.5896  -28.3699   23.1268 C   0  0  2  0  0  0
  -20.6781  -26.9417   22.5408 C   0  0  0  0  0  0
  -19.5756  -26.6383   21.5213 C   0  0  0  0  0  0
  -18.1936  -26.7929   22.1624 C   0  0  0  0  0  0
  -19.1546  -28.8860   23.2870 C   0  0  0  0  0  0
  -18.9466  -30.1461   23.8889 C   0  0  0  0  0  0
  -17.6465  -30.6588   24.0562 C   0  0  0  0  0  0
  -25.9057  -34.9440   23.5096 C   0  0  0  0  0  0
  -16.5357  -29.9085   23.6331 C   0  0  0  0  0  0
  -16.7279  -28.6503   23.0351 C   0  0  0  0  0  0
  -26.4504  -31.6582   25.0729 C   0  0  0  0  0  0
  -25.3723  -31.3732   26.1446 C   0  0  0  0  0  0
  -27.0358  -30.2999   24.6222 C   0  0  0  0  0  0
  -27.6057  -32.4324   25.7501 C   0  0  0  0  0  0
  -27.5579  -37.1799   24.8465 C   0  0  0  0  0  0
  -21.4210  -29.3044   22.3655 N   0  0  0  0  0  0
  -26.4292  -37.3769   23.9406 N   0  0  0  0  0  0
  -24.6961  -31.0526   22.0979 N   0  0  0  0  0  0
  -23.4203  -28.8140   23.3006 O   0  0  0  0  0  0
  -28.3041  -26.3605   20.2156 O   0  0  0  0  0  0
  -26.5629  -34.8914   22.4664 O   0  0  0  0  0  0
  -23.5458  -32.1382   23.7294 O   0  0  0  0  0  0
  -30.8089  -18.7098   18.3596 C   0  0  0  0  0  0
  -30.3002  -19.8644   18.9868 C   0  0  0  0  0  0
  -30.6802  -17.4335   18.9453 C   0  0  0  0  0  0
  -29.5047  -18.4558   20.8087 C   0  0  0  0  0  0
  -29.6349  -19.7862   20.2251 C   0  0  0  0  0  0
  -30.0318  -17.2460   20.1896 C   0  0  0  0  0  0
  -29.1923  -21.1526   20.9076 C   0  0  0  0  0  0
  -28.0958  -24.8958   19.9268 C   0  0  0  0  0  0
  -28.9466  -23.7130   20.6290 C   0  0  0  0  0  0
  -29.8733  -15.8631   20.7162 N   0  0  0  0  0  0
  -28.8927  -22.3357   20.0531 O   0  0  0  0  0  0
  -31.4734  -12.5436   19.1862 H   0  0  0  0  0  0
  -30.3576  -11.4570   19.9608 H   0  0  0  0  0  0
  -29.7923  -11.7386   17.5209 H   0  0  0  0  0  0
  -29.6476  -13.4653   17.7372 H   0  0  0  0  0  0
  -27.8877  -11.2880   18.9076 H   0  0  0  0  0  0
  -27.3828  -12.5377   17.8013 H   0  0  0  0  0  0
  -27.6441  -14.2574   19.4819 H   0  0  0  0  0  0
  -28.7114  -12.1600   21.4340 H   0  0  0  0  0  0
  -28.4242  -13.8406   21.8048 H   0  0  0  0  0  0
  -25.2770   -9.5689   22.4757 H   0  0  0  0  0  0
  -24.0010   -7.4638   22.7470 H   0  0  0  0  0  0
  -21.0847   -8.8779   19.8953 H   0  0  0  0  0  0
  -22.3703  -10.9679   19.6165 H   0  0  0  0  0  0
  -21.2011   -7.6151   23.9718 H   0  0  0  0  0  0
  -21.1481   -6.0524   25.9078 H   0  0  0  0  0  0
  -22.0597   -2.7612   23.2843 H   0  0  0  0  0  0
  -22.4097  -11.9886   22.4818 H   0  0  0  0  0  0
  -21.1088  -13.1235   22.2622 H   0  0  0  0  0  0
  -24.6538  -15.8472   20.5218 H   0  0  0  0  0  0
  -26.2702  -15.6326   20.0798 H   0  0  0  0  0  0
  -26.7201  -32.5407   23.1079 H   0  0  0  0  0  0
  -25.0079  -33.9699   25.0405 H   0  0  0  0  0  0
  -22.7232  -31.3022   21.3992 H   0  0  0  0  0  0
  -23.3752  -35.9618   23.3301 H   0  0  0  0  0  0
  -24.3581  -36.8909   22.2054 H   0  0  0  0  0  0
  -23.7244  -37.6485   23.6666 H   0  0  0  0  0  0
  -26.1143  -31.5289   20.6130 H   0  0  0  0  0  0
  -26.8506  -30.8152   22.0159 H   0  0  0  0  0  0
  -28.1075  -28.9107   21.2327 H   0  0  0  0  0  0
  -25.9558  -25.9476   18.9285 H   0  0  0  0  0  0
  -23.9795  -27.3348   18.9629 H   0  0  0  0  0  0
  -23.7694  -30.5957   19.4037 H   0  0  0  0  0  0
  -22.7633  -29.2516   19.8517 H   0  0  0  0  0  0
  -25.1299  -36.1920   25.0819 H   0  0  0  0  0  0
  -20.9989  -28.3281   24.1389 H   0  0  0  0  0  0
  -20.5684  -26.2311   23.3614 H   0  0  0  0  0  0
  -21.6649  -26.7443   22.1200 H   0  0  0  0  0  0
  -19.6918  -25.6292   21.1247 H   0  0  0  0  0  0
  -19.6691  -27.3190   20.6739 H   0  0  0  0  0  0
  -17.4206  -26.6674   21.4027 H   0  0  0  0  0  0
  -18.0337  -26.0075   22.9024 H   0  0  0  0  0  0
  -19.7942  -30.7280   24.2254 H   0  0  0  0  0  0
  -17.5019  -31.6266   24.5167 H   0  0  0  0  0  0
  -15.5356  -30.2984   23.7659 H   0  0  0  0  0  0
  -15.8680  -28.0821   22.7067 H   0  0  0  0  0  0
  -24.5904  -30.7077   25.7772 H   0  0  0  0  0  0
  -24.8907  -32.2901   26.4854 H   0  0  0  0  0  0
  -25.8034  -30.8921   27.0234 H   0  0  0  0  0  0
  -26.2949  -29.6738   24.1237 H   0  0  0  0  0  0
  -27.4029  -29.7269   25.4747 H   0  0  0  0  0  0
  -27.8830  -30.4274   23.9480 H   0  0  0  0  0  0
  -27.2667  -33.3631   26.2064 H   0  0  0  0  0  0
  -28.3874  -32.6873   25.0333 H   0  0  0  0  0  0
  -28.0719  -31.8459   26.5429 H   0  0  0  0  0  0
  -28.2596  -38.0096   24.7508 H   0  0  0  0  0  0
  -28.1073  -36.2626   24.6297 H   0  0  0  0  0  0
  -27.2295  -37.1455   25.8868 H   0  0  0  0  0  0
  -20.9397  -29.8770   21.6861 H   0  0  0  0  0  0
  -26.0170  -38.2844   24.1403 H   0  0  0  0  0  0
  -31.3135  -18.8049   17.4082 H   0  0  0  0  0  0
  -30.4377  -20.8278   18.5150 H   0  0  0  0  0  0
  -31.0817  -16.5905   18.4009 H   0  0  0  0  0  0
  -29.0028  -18.3695   21.7621 H   0  0  0  0  0  0
  -30.0008  -21.4297   21.5856 H   0  0  0  0  0  0
  -28.3241  -20.9608   21.5390 H   0  0  0  0  0  0
  -27.0639  -24.6284   20.1498 H   0  0  0  0  0  0
  -28.2073  -24.7858   18.8478 H   0  0  0  0  0  0
  -28.6383  -23.6582   21.6737 H   0  0  0  0  0  0
  -29.9972  -24.0040   20.6478 H   0  0  0  0  0  0
  -29.0031  -15.6846   21.1953 H   0  0  0  0  0  0
  1 25  1  0  0  0
  1 30  2  0  0  0
  1 80  1  0  0  0
  2  3  1  0  0  0
  2 25  1  0  0  0
  2 82  1  0  0  0
  2 83  1  0  0  0
  3  4  1  0  0  0
  3 84  1  0  0  0
  3 85  1  0  0  0
  4  5  1  0  0  0
  4 86  1  0  0  0
  4 87  1  0  0  0
  5  6  1  0  0  0
  5 26  1  0  0  0
  5 88  1  0  0  0
  6 25  1  0  0  0
  6 89  1  0  0  0
  6 90  1  0  0  0
  7  8  2  0  0  0
  7 26  1  0  0  0
  7 29  1  0  0  0
  8  9  1  0  0  0
  8 22  1  0  0  0
  9 10  1  0  0  0
  9 27  2  0  0  0
 10 11  2  0  0  0
 10 15  1  0  0  0
 11 12  1  0  0  0
 11 91  1  0  0  0
 12 13  2  0  0  0
 12 92  1  0  0  0
 13 14  1  0  0  0
 13 31  1  0  0  0
 14 15  2  0  0  0
 14 93  1  0  0  0
 15 94  1  0  0  0
 16 17  2  0  0  0
 16 21  1  0  0  0
 16 31  1  0  0  0
 17 18  1  0  0  0
 17 95  1  0  0  0
 18 19  2  0  0  0
 18 96  1  0  0  0
 19 20  1  0  0  0
 19 24  1  0  0  0
 20 21  2  0  0  0
 20 97  1  0  0  0
 21 23  1  0  0  0
 22 28  1  0  0  0
 22 32  2  0  0  0
 26 27  1  0  0  0
 28 98  1  0  0  0
 28 99  1  0  0  0
 29100  1  0  0  0
 29101  1  0  0  0
 33 34  1  0  0  0
 33 66  1  0  0  0
 33 70  2  0  0  0
 34 36  1  0  0  0
 34 59  1  0  0  0
 34102  1  0  0  0
 35 44  2  0  0  0
 35 45  1  0  0  0
 35 68  1  0  0  0
 36 56  1  0  0  0
 36103  1  0  0  0
 37 39  1  0  0  0
 37 47  1  0  0  0
 37 66  1  0  0  0
 37104  1  0  0  0
 38 43  2  0  0  0
 38 46  1  0  0  0
 38 47  1  0  0  0
 39 64  1  0  0  0
 39 67  2  0  0  0
 40 52  1  0  0  0
 40 53  2  0  0  0
 40 58  1  0  0  0
 41105  1  0  0  0
 41106  1  0  0  0
 41107  1  0  0  0
 41 48  1  0  0  0
 42 43  1  0  0  0
 42 66  1  0  0  0
 42108  1  0  0  0
 42109  1  0  0  0
 43 44  1  0  0  0
 44110  1  0  0  0
 45 46  2  0  0  0
 45111  1  0  0  0
 46112  1  0  0  0
 47113  1  0  0  0
 47114  1  0  0  0
 48 56  1  0  0  0
 48 65  1  0  0  0
 48115  1  0  0  0
 49 50  1  0  0  0
 49 53  1  0  0  0
 49 64  1  0  0  0
 49116  1  0  0  0
 50 51  1  0  0  0
 50117  1  0  0  0
 50118  1  0  0  0
 51 52  1  0  0  0
 51119  1  0  0  0
 51120  1  0  0  0
 52121  1  0  0  0
 52122  1  0  0  0
 53 54  1  0  0  0
 54 55  2  0  0  0
 54123  1  0  0  0
 55 57  1  0  0  0
 55124  1  0  0  0
 56 69  2  0  0  0
 57 58  2  0  0  0
 57125  1  0  0  0
 58126  1  0  0  0
 59 60  1  0  0  0
 59 61  1  0  0  0
 59 62  1  0  0  0
 60127  1  0  0  0
 60128  1  0  0  0
 60129  1  0  0  0
 61130  1  0  0  0
 61131  1  0  0  0
 61132  1  0  0  0
 62133  1  0  0  0
 62134  1  0  0  0
 62135  1  0  0  0
 63 65  1  0  0  0
 63136  1  0  0  0
 63137  1  0  0  0
 63138  1  0  0  0
 64139  1  0  0  0
 65140  1  0  0  0
 68 78  1  0  0  0
 71 72  2  0  0  0
 71 73  1  0  0  0
 71141  1  0  0  0
 72 75  1  0  0  0
 72142  1  0  0  0
 73 76  2  0  0  0
 73143  1  0  0  0
 74 75  2  0  0  0
 74 76  1  0  0  0
 74144  1  0  0  0
 75 77  1  0  0  0
 76 80  1  0  0  0
 77 81  1  0  0  0
 77145  1  0  0  0
 77146  1  0  0  0
 78 79  1  0  0  0
 78147  1  0  0  0
 78148  1  0  0  0
 79 81  1  0  0  0
 79149  1  0  0  0
 79150  1  0  0  0
 80151  1  0  0  0
M  ISO  4   1 100  68 101  78 101  80 100
M  END
> <chiral flag>
0

> <version>
0

> <s_m_source_file>
/data/baiqing/PycharmProjects/Reinvent-master-3.2/result/LINK_invent/BTK/process_docking_weight1_custom_sum_contain_oxygen_bond_distance_aromatic_linkinvent_7_9_3/rearranged_h_0002.sdf

> <i_m_source_file_index>
7

> <r_mmod_Potential_Energy-OPLS-2005>
180.189956665039

> <r_mmod_Stretch_Energy-OPLS-2005>
121.842063903809

> <r_mmod_Bend_Energy-OPLS-2005>
155.261901855469

> <r_mmod_Torsional_Energy-OPLS-2005>
235.331909179688

> <r_mmod_Improper_Torsional_Energy-OPLS-2005>
4.30407476425171

> <r_mmod_Van_der_Waal_Energy-OPLS-2005>
143.683441162109

> <r_mmod_Electrostatic_Energy-OPLS-2005>
-350.973907470703

> <r_mmod_Solvation_Energy-OPLS-2005>
-210.853988647461

> <b_mmod_Minimization_Converged-OPLS-2005>
0

> <r_mmod_RMS_Derivative-OPLS-2005>
0.272529244422913

$$$$
7
                    3D
 Structure written by MMmdl.
141149  0  0  1  0            999 V2000
  -30.0197  -16.3287   20.2785 C   0  0  0  0  0  0
  -30.3591  -13.6089   19.5409 C   0  0  0  0  0  0
  -29.5740  -12.8613   18.3966 C   0  0  0  0  0  0
  -28.2109  -12.3495   18.8719 C   0  0  0  0  0  0
  -27.5797  -13.3880   19.8136 C   0  0  2  0  0  0
  -28.5421  -13.9971   20.8852 C   0  0  0  0  0  0
  -25.2217  -13.8403   20.5892 C   0  0  0  0  0  0
  -24.1686  -13.0448   20.9332 C   0  0  0  0  0  0
  -24.6499  -11.6995   20.8755 C   0  0  0  0  0  0
  -23.9209  -10.4307   21.0363 C   0  0  0  0  0  0
  -24.3710   -9.4216   21.9162 C   0  0  0  0  0  0
  -23.6346   -8.2268   22.0750 C   0  0  0  0  0  0
  -22.4323   -8.0310   21.3545 C   0  0  0  0  0  0
  -21.9989   -9.0289   20.4638 C   0  0  0  0  0  0
  -22.7357  -10.2148   20.3031 C   0  0  0  0  0  0
  -21.6871   -6.0756   22.5278 C   0  0  0  0  0  0
  -21.4028   -6.5652   23.8214 C   0  0  0  0  0  0
  -21.3663   -5.6799   24.9172 C   0  0  0  0  0  0
  -21.6043   -4.3062   24.7220 C   0  0  0  0  0  0
  -21.8817   -3.8158   23.4339 C   0  0  0  0  0  0
  -21.9197   -4.6980   22.3398 C   0  0  0  0  0  0
  -22.7675  -13.5112   21.1940 C   0  0  0  0  0  0
  -22.1662   -4.2164   21.0975 F   0  0  0  0  0  0
  -21.5625   -3.4542   25.7730 F   0  0  0  0  0  0
  -29.5970  -14.8355   20.1932 N   0  0  0  0  0  0
  -26.2783  -12.9901   20.3372 N   0  0  0  0  0  0
  -25.9485  -11.6877   20.5674 N   0  0  0  0  0  0
  -22.0361  -12.8068   22.0490 N   0  0  0  0  0  0
  -25.3668  -15.2157   20.4309 N   0  0  0  0  0  0
  -31.2710  -16.1737   20.1900 O   0  0  0  0  0  0
  -21.6666   -6.8914   21.4247 O   0  0  0  0  0  0
  -22.3324  -14.5401   20.6775 O   0  0  0  0  0  0
  -24.7287  -31.7428   23.1123 C   0  0  0  0  0  0
  -25.9638  -32.4188   23.7845 C   0  0  1  0  0  0
  -27.2523  -26.2201   20.2601 C   0  0  0  0  0  0
  -25.6018  -33.8041   24.1677 N   0  0  0  0  0  0
  -23.5770  -30.3216   21.4775 C   0  0  2  0  0  0
  -25.0402  -28.5588   20.1354 C   0  0  0  0  0  0
  -22.7967  -29.4007   22.4588 C   0  0  0  0  0  0
  -18.0366  -28.1446   22.8430 C   0  0  0  0  0  0
  -24.1497  -36.7034   23.2666 C   0  0  0  0  0  0
  -26.1733  -30.3138   21.4528 C   0  0  0  0  0  0
  -26.2332  -28.8230   20.8162 C   0  0  0  0  0  0
  -27.2961  -27.6978   20.8362 C   0  0  0  0  0  0
  -26.0273  -26.2948   19.5052 C   0  0  0  0  0  0
  -25.0046  -27.3239   19.4549 C   0  0  0  0  0  0
  -23.8582  -29.5719   20.1350 C   0  0  0  0  0  0
  -25.4165  -36.2733   24.0247 C   0  0  1  0  0  0
  -20.6022  -28.3823   23.1058 C   0  0  2  0  0  0
  -20.6806  -26.9438   22.5415 C   0  0  0  0  0  0
  -19.5792  -26.6354   21.5222 C   0  0  0  0  0  0
  -18.1974  -26.7964   22.1610 C   0  0  0  0  0  0
  -19.1644  -28.8970   23.2710 C   0  0  0  0  0  0
  -18.9543  -30.1542   23.8775 C   0  0  0  0  0  0
  -17.6527  -30.6616   24.0540 C   0  0  0  0  0  0
  -25.9173  -34.9135   23.4836 C   0  0  0  0  0  0
  -16.5413  -29.9090   23.6363 C   0  0  0  0  0  0
  -16.7343  -28.6516   23.0374 C   0  0  0  0  0  0
  -26.4667  -31.6432   25.0666 C   0  0  0  0  0  0
  -25.3609  -31.3887   26.1193 C   0  0  0  0  0  0
  -27.0676  -30.2722   24.6916 C   0  0  0  0  0  0
  -27.6023  -32.4411   25.7506 C   0  0  0  0  0  0
  -27.5547  -37.1670   24.8467 C   0  0  0  0  0  0
  -21.4573  -29.2973   22.3325 N   0  0  0  0  0  0
  -26.4250  -37.3547   23.9407 N   0  0  0  0  0  0
  -24.8557  -30.8383   22.0655 N   0  0  0  0  0  0
  -23.4183  -28.7692   23.3158 O   0  0  0  0  0  0
  -28.1760  -24.7953   20.2839 O   0  0  0  0  0  0
  -26.5884  -34.8808   22.4502 O   0  0  0  0  0  0
  -23.6206  -32.0732   23.5767 O   0  0  0  0  0  0
  -26.4916  -21.0383   20.1823 C   0  0  0  0  0  0
  -27.3291  -19.8554   20.2140 C   0  0  0  0  0  0
  -26.8302  -22.4442   20.2046 C   0  0  0  0  0  0
  -29.0332  -21.4834   20.2943 C   0  0  0  0  0  0
  -28.7553  -19.7469   20.2741 C   0  0  0  0  0  0
  -28.1343  -23.0031   20.2646 C   0  0  0  0  0  0
  -29.1958  -17.8391   20.2885 N   0  0  0  0  0  0
  -31.2862  -13.9734   19.0974 H   0  0  0  0  0  0
  -30.6936  -12.9006   20.3014 H   0  0  0  0  0  0
  -30.1684  -12.0385   17.9972 H   0  0  0  0  0  0
  -29.4225  -13.5566   17.5698 H   0  0  0  0  0  0
  -28.3608  -11.4149   19.4138 H   0  0  0  0  0  0
  -27.5575  -12.1250   18.0276 H   0  0  0  0  0  0
  -27.3560  -14.2156   19.1384 H   0  0  0  0  0  0
  -28.9512  -13.2332   21.5487 H   0  0  0  0  0  0
  -27.9811  -14.6691   21.5357 H   0  0  0  0  0  0
  -25.2845   -9.5681   22.4756 H   0  0  0  0  0  0
  -24.0035   -7.4664   22.7486 H   0  0  0  0  0  0
  -21.0915   -8.8830   19.8947 H   0  0  0  0  0  0
  -22.3818  -10.9689   19.6141 H   0  0  0  0  0  0
  -21.2027   -7.6161   23.9721 H   0  0  0  0  0  0
  -21.1485   -6.0528   25.9075 H   0  0  0  0  0  0
  -22.0590   -2.7620   23.2835 H   0  0  0  0  0  0
  -22.4034  -11.9761   22.4890 H   0  0  0  0  0  0
  -21.0955  -13.1027   22.2682 H   0  0  0  0  0  0
  -24.5854  -15.8543   20.5321 H   0  0  0  0  0  0
  -26.2016  -15.6606   20.0749 H   0  0  0  0  0  0
  -26.7775  -32.4557   23.0594 H   0  0  0  0  0  0
  -24.9991  -33.8997   24.9716 H   0  0  0  0  0  0
  -22.9304  -31.1703   21.2450 H   0  0  0  0  0  0
  -23.3791  -35.9326   23.3226 H   0  0  0  0  0  0
  -24.3550  -36.8831   22.2102 H   0  0  0  0  0  0
  -23.7228  -37.6152   23.6853 H   0  0  0  0  0  0
  -26.4241  -31.0025   20.6451 H   0  0  0  0  0  0
  -27.0082  -30.4005   22.1344 H   0  0  0  0  0  0
  -28.1859  -27.9296   21.4042 H   0  0  0  0  0  0
  -25.7926  -25.4015   18.9441 H   0  0  0  0  0  0
  -24.1229  -27.1038   18.8687 H   0  0  0  0  0  0
  -24.0724  -30.3103   19.3617 H   0  0  0  0  0  0
  -22.9541  -29.0611   19.7997 H   0  0  0  0  0  0
  -25.1399  -36.1423   25.0734 H   0  0  0  0  0  0
  -21.0086  -28.3485   24.1193 H   0  0  0  0  0  0
  -20.5623  -26.2461   23.3721 H   0  0  0  0  0  0
  -21.6664  -26.7305   22.1263 H   0  0  0  0  0  0
  -19.6941  -25.6233   21.1331 H   0  0  0  0  0  0
  -19.6753  -27.3098   20.6702 H   0  0  0  0  0  0
  -17.4249  -26.6711   21.4007 H   0  0  0  0  0  0
  -18.0340  -26.0135   22.9031 H   0  0  0  0  0  0
  -19.8020  -30.7387   24.2092 H   0  0  0  0  0  0
  -17.5077  -31.6282   24.5168 H   0  0  0  0  0  0
  -15.5409  -30.2955   23.7758 H   0  0  0  0  0  0
  -15.8743  -28.0797   22.7156 H   0  0  0  0  0  0
  -24.5840  -30.7197   25.7472 H   0  0  0  0  0  0
  -24.8758  -32.3152   26.4272 H   0  0  0  0  0  0
  -25.7673  -30.9265   27.0198 H   0  0  0  0  0  0
  -26.3478  -29.6179   24.1994 H   0  0  0  0  0  0
  -27.3995  -29.7374   25.5825 H   0  0  0  0  0  0
  -27.9496  -30.3744   24.0593 H   0  0  0  0  0  0
  -27.2504  -33.3843   26.1696 H   0  0  0  0  0  0
  -28.4022  -32.6762   25.0472 H   0  0  0  0  0  0
  -28.0483  -31.8810   26.5735 H   0  0  0  0  0  0
  -28.2504  -38.0019   24.7512 H   0  0  0  0  0  0
  -28.1102  -36.2533   24.6296 H   0  0  0  0  0  0
  -27.2260  -37.1297   25.8867 H   0  0  0  0  0  0
  -20.9993  -29.8550   21.6251 H   0  0  0  0  0  0
  -26.0032  -38.2571   24.1430 H   0  0  0  0  0  0
  -25.4307  -20.8349   20.1344 H   0  0  0  0  0  0
  -26.7838  -18.9229   20.1862 H   0  0  0  0  0  0
  -26.0055  -23.1423   20.1745 H   0  0  0  0  0  0
  -30.0932  -21.6868   20.3439 H   0  0  0  0  0  0
  -28.2759  -17.4220   20.3020 H   0  0  0  0  0  0
  1 25  1  0  0  0
  1 30  2  0  0  0
  1 77  1  0  0  0
  2  3  1  0  0  0
  2 25  1  0  0  0
  2 78  1  0  0  0
  2 79  1  0  0  0
  3  4  1  0  0  0
  3 80  1  0  0  0
  3 81  1  0  0  0
  4  5  1  0  0  0
  4 82  1  0  0  0
  4 83  1  0  0  0
  5  6  1  0  0  0
  5 26  1  0  0  0
  5 84  1  0  0  0
  6 25  1  0  0  0
  6 85  1  0  0  0
  6 86  1  0  0  0
  7  8  2  0  0  0
  7 26  1  0  0  0
  7 29  1  0  0  0
  8  9  1  0  0  0
  8 22  1  0  0  0
  9 10  1  0  0  0
  9 27  2  0  0  0
 10 11  2  0  0  0
 10 15  1  0  0  0
 11 12  1  0  0  0
 11 87  1  0  0  0
 12 13  2  0  0  0
 12 88  1  0  0  0
 13 14  1  0  0  0
 13 31  1  0  0  0
 14 15  2  0  0  0
 14 89  1  0  0  0
 15 90  1  0  0  0
 16 17  2  0  0  0
 16 21  1  0  0  0
 16 31  1  0  0  0
 17 18  1  0  0  0
 17 91  1  0  0  0
 18 19  2  0  0  0
 18 92  1  0  0  0
 19 20  1  0  0  0
 19 24  1  0  0  0
 20 21  2  0  0  0
 20 93  1  0  0  0
 21 23  1  0  0  0
 22 28  1  0  0  0
 22 32  2  0  0  0
 26 27  1  0  0  0
 28 94  1  0  0  0
 28 95  1  0  0  0
 29 96  1  0  0  0
 29 97  1  0  0  0
 33 34  1  0  0  0
 33 66  1  0  0  0
 33 70  2  0  0  0
 34 36  1  0  0  0
 34 59  1  0  0  0
 34 98  1  0  0  0
 35 44  2  0  0  0
 35 45  1  0  0  0
 35 68  1  0  0  0
 36 56  1  0  0  0
 36 99  1  0  0  0
 37 39  1  0  0  0
 37 47  1  0  0  0
 37 66  1  0  0  0
 37100  1  0  0  0
 38 43  2  0  0  0
 38 46  1  0  0  0
 38 47  1  0  0  0
 39 64  1  0  0  0
 39 67  2  0  0  0
 40 52  1  0  0  0
 40 53  2  0  0  0
 40 58  1  0  0  0
 41101  1  0  0  0
 41102  1  0  0  0
 41103  1  0  0  0
 41 48  1  0  0  0
 42 43  1  0  0  0
 42 66  1  0  0  0
 42104  1  0  0  0
 42105  1  0  0  0
 43 44  1  0  0  0
 44106  1  0  0  0
 45 46  2  0  0  0
 45107  1  0  0  0
 46108  1  0  0  0
 47109  1  0  0  0
 47110  1  0  0  0
 48 56  1  0  0  0
 48 65  1  0  0  0
 48111  1  0  0  0
 49 50  1  0  0  0
 49 53  1  0  0  0
 49 64  1  0  0  0
 49112  1  0  0  0
 50 51  1  0  0  0
 50113  1  0  0  0
 50114  1  0  0  0
 51 52  1  0  0  0
 51115  1  0  0  0
 51116  1  0  0  0
 52117  1  0  0  0
 52118  1  0  0  0
 53 54  1  0  0  0
 54 55  2  0  0  0
 54119  1  0  0  0
 55 57  1  0  0  0
 55120  1  0  0  0
 56 69  2  0  0  0
 57 58  2  0  0  0
 57121  1  0  0  0
 58122  1  0  0  0
 59 60  1  0  0  0
 59 61  1  0  0  0
 59 62  1  0  0  0
 60123  1  0  0  0
 60124  1  0  0  0
 60125  1  0  0  0
 61126  1  0  0  0
 61127  1  0  0  0
 61128  1  0  0  0
 62129  1  0  0  0
 62130  1  0  0  0
 62131  1  0  0  0
 63 65  1  0  0  0
 63132  1  0  0  0
 63133  1  0  0  0
 63134  1  0  0  0
 64135  1  0  0  0
 65136  1  0  0  0
 68 76  1  0  0  0
 71 72  2  0  0  0
 71 73  1  0  0  0
 71137  1  0  0  0
 72 75  1  0  0  0
 72138  1  0  0  0
 73 76  2  0  0  0
 73139  1  0  0  0
 74 75  2  0  0  0
 74 76  1  0  0  0
 74140  1  0  0  0
 75 77  1  0  0  0
 77141  1  0  0  0
M  ISO  4   1 100  68 101  76 101  77 100
M  END
> <chiral flag>
0

> <version>
0

> <s_m_source_file>
/data/baiqing/PycharmProjects/Reinvent-master-3.2/result/LINK_invent/BTK/process_docking_weight1_custom_sum_contain_oxygen_bond_distance_aromatic_linkinvent_7_9_3/rearranged_h_0002.sdf

> <i_m_source_file_index>
8

> <r_mmod_Potential_Energy-OPLS-2005>
5273.91259765625

> <r_mmod_Stretch_Energy-OPLS-2005>
2172.36376953125

> <r_mmod_Bend_Energy-OPLS-2005>
1065.59814453125

> <r_mmod_Torsional_Energy-OPLS-2005>
216.597412109375

> <r_mmod_Improper_Torsional_Energy-OPLS-2005>
4.25017404556274

> <r_mmod_Van_der_Waal_Energy-OPLS-2005>
135.699996948242

> <r_mmod_Electrostatic_Energy-OPLS-2005>
-333.039489746094

> <r_mmod_Solvation_Energy-OPLS-2005>
-222.837158203125

> <b_mmod_Minimization_Converged-OPLS-2005>
0

> <r_mmod_RMS_Derivative-OPLS-2005>
0.155458047986031

$$$$
8
                    3D
 Structure written by MMmdl.
141149  0  0  1  0            999 V2000
  -30.0197  -16.3287   20.2785 C   0  0  0  0  0  0
  -30.3591  -13.6089   19.5409 C   0  0  0  0  0  0
  -29.5740  -12.8613   18.3966 C   0  0  0  0  0  0
  -28.2109  -12.3495   18.8719 C   0  0  0  0  0  0
  -27.5797  -13.3880   19.8136 C   0  0  2  0  0  0
  -28.5421  -13.9971   20.8852 C   0  0  0  0  0  0
  -25.2217  -13.8403   20.5892 C   0  0  0  0  0  0
  -24.1686  -13.0448   20.9332 C   0  0  0  0  0  0
  -24.6499  -11.6995   20.8755 C   0  0  0  0  0  0
  -23.9209  -10.4307   21.0363 C   0  0  0  0  0  0
  -24.3710   -9.4216   21.9162 C   0  0  0  0  0  0
  -23.6346   -8.2268   22.0750 C   0  0  0  0  0  0
  -22.4323   -8.0310   21.3545 C   0  0  0  0  0  0
  -21.9989   -9.0289   20.4638 C   0  0  0  0  0  0
  -22.7357  -10.2148   20.3031 C   0  0  0  0  0  0
  -21.6871   -6.0756   22.5278 C   0  0  0  0  0  0
  -21.4028   -6.5652   23.8214 C   0  0  0  0  0  0
  -21.3663   -5.6799   24.9172 C   0  0  0  0  0  0
  -21.6043   -4.3062   24.7220 C   0  0  0  0  0  0
  -21.8817   -3.8158   23.4339 C   0  0  0  0  0  0
  -21.9197   -4.6980   22.3398 C   0  0  0  0  0  0
  -22.7675  -13.5112   21.1940 C   0  0  0  0  0  0
  -22.1662   -4.2164   21.0975 F   0  0  0  0  0  0
  -21.5625   -3.4542   25.7730 F   0  0  0  0  0  0
  -29.5970  -14.8355   20.1932 N   0  0  0  0  0  0
  -26.2783  -12.9901   20.3372 N   0  0  0  0  0  0
  -25.9485  -11.6877   20.5674 N   0  0  0  0  0  0
  -22.0361  -12.8068   22.0490 N   0  0  0  0  0  0
  -25.3668  -15.2157   20.4309 N   0  0  0  0  0  0
  -31.2710  -16.1737   20.1900 O   0  0  0  0  0  0
  -21.6666   -6.8914   21.4247 O   0  0  0  0  0  0
  -22.3324  -14.5401   20.6775 O   0  0  0  0  0  0
  -24.7287  -31.7428   23.1123 C   0  0  0  0  0  0
  -25.9638  -32.4188   23.7845 C   0  0  1  0  0  0
  -27.2523  -26.2201   20.2601 C   0  0  0  0  0  0
  -25.6018  -33.8041   24.1677 N   0  0  0  0  0  0
  -23.5770  -30.3216   21.4775 C   0  0  2  0  0  0
  -25.0402  -28.5588   20.1354 C   0  0  0  0  0  0
  -22.7967  -29.4007   22.4588 C   0  0  0  0  0  0
  -18.0366  -28.1446   22.8430 C   0  0  0  0  0  0
  -24.1497  -36.7034   23.2666 C   0  0  0  0  0  0
  -26.1733  -30.3138   21.4528 C   0  0  0  0  0  0
  -26.2332  -28.8230   20.8162 C   0  0  0  0  0  0
  -27.2961  -27.6978   20.8362 C   0  0  0  0  0  0
  -26.0273  -26.2948   19.5052 C   0  0  0  0  0  0
  -25.0046  -27.3239   19.4549 C   0  0  0  0  0  0
  -23.8582  -29.5719   20.1350 C   0  0  0  0  0  0
  -25.4165  -36.2733   24.0247 C   0  0  1  0  0  0
  -20.6022  -28.3823   23.1058 C   0  0  2  0  0  0
  -20.6806  -26.9438   22.5415 C   0  0  0  0  0  0
  -19.5792  -26.6354   21.5222 C   0  0  0  0  0  0
  -18.1974  -26.7964   22.1610 C   0  0  0  0  0  0
  -19.1644  -28.8970   23.2710 C   0  0  0  0  0  0
  -18.9543  -30.1542   23.8775 C   0  0  0  0  0  0
  -17.6527  -30.6616   24.0540 C   0  0  0  0  0  0
  -25.9173  -34.9135   23.4836 C   0  0  0  0  0  0
  -16.5413  -29.9090   23.6363 C   0  0  0  0  0  0
  -16.7343  -28.6516   23.0374 C   0  0  0  0  0  0
  -26.4667  -31.6432   25.0666 C   0  0  0  0  0  0
  -25.3609  -31.3887   26.1193 C   0  0  0  0  0  0
  -27.0676  -30.2722   24.6916 C   0  0  0  0  0  0
  -27.6023  -32.4411   25.7506 C   0  0  0  0  0  0
  -27.5547  -37.1670   24.8467 C   0  0  0  0  0  0
  -21.4573  -29.2973   22.3325 N   0  0  0  0  0  0
  -26.4250  -37.3547   23.9407 N   0  0  0  0  0  0
  -24.8557  -30.8383   22.0655 N   0  0  0  0  0  0
  -23.4183  -28.7692   23.3158 O   0  0  0  0  0  0
  -28.1760  -24.7953   20.2839 O   0  0  0  0  0  0
  -26.5884  -34.8808   22.4502 O   0  0  0  0  0  0
  -23.6206  -32.0732   23.5767 O   0  0  0  0  0  0
  -26.4916  -21.0383   20.1823 C   0  0  0  0  0  0
  -27.3291  -19.8554   20.2140 C   0  0  0  0  0  0
  -26.8302  -22.4442   20.2046 C   0  0  0  0  0  0
  -29.0332  -21.4834   20.2943 C   0  0  0  0  0  0
  -28.7553  -19.7469   20.2741 C   0  0  0  0  0  0
  -28.1343  -23.0031   20.2646 C   0  0  0  0  0  0
  -29.1958  -17.8391   20.2885 N   0  0  0  0  0  0
  -31.2862  -13.9734   19.0974 H   0  0  0  0  0  0
  -30.6936  -12.9006   20.3014 H   0  0  0  0  0  0
  -30.1684  -12.0385   17.9972 H   0  0  0  0  0  0
  -29.4225  -13.5566   17.5698 H   0  0  0  0  0  0
  -28.3608  -11.4149   19.4138 H   0  0  0  0  0  0
  -27.5575  -12.1250   18.0276 H   0  0  0  0  0  0
  -27.3560  -14.2156   19.1384 H   0  0  0  0  0  0
  -28.9512  -13.2332   21.5487 H   0  0  0  0  0  0
  -27.9811  -14.6691   21.5357 H   0  0  0  0  0  0
  -25.2845   -9.5681   22.4756 H   0  0  0  0  0  0
  -24.0035   -7.4664   22.7486 H   0  0  0  0  0  0
  -21.0915   -8.8830   19.8947 H   0  0  0  0  0  0
  -22.3818  -10.9689   19.6141 H   0  0  0  0  0  0
  -21.2027   -7.6161   23.9721 H   0  0  0  0  0  0
  -21.1485   -6.0528   25.9075 H   0  0  0  0  0  0
  -22.0590   -2.7620   23.2835 H   0  0  0  0  0  0
  -22.4034  -11.9761   22.4890 H   0  0  0  0  0  0
  -21.0955  -13.1027   22.2682 H   0  0  0  0  0  0
  -24.5854  -15.8543   20.5321 H   0  0  0  0  0  0
  -26.2016  -15.6606   20.0749 H   0  0  0  0  0  0
  -26.7775  -32.4557   23.0594 H   0  0  0  0  0  0
  -24.9991  -33.8997   24.9716 H   0  0  0  0  0  0
  -22.9304  -31.1703   21.2450 H   0  0  0  0  0  0
  -23.3791  -35.9326   23.3226 H   0  0  0  0  0  0
  -24.3550  -36.8831   22.2102 H   0  0  0  0  0  0
  -23.7228  -37.6152   23.6853 H   0  0  0  0  0  0
  -26.4241  -31.0025   20.6451 H   0  0  0  0  0  0
  -27.0082  -30.4005   22.1344 H   0  0  0  0  0  0
  -28.1859  -27.9296   21.4042 H   0  0  0  0  0  0
  -25.7926  -25.4015   18.9441 H   0  0  0  0  0  0
  -24.1229  -27.1038   18.8687 H   0  0  0  0  0  0
  -24.0724  -30.3103   19.3617 H   0  0  0  0  0  0
  -22.9541  -29.0611   19.7997 H   0  0  0  0  0  0
  -25.1399  -36.1423   25.0734 H   0  0  0  0  0  0
  -21.0086  -28.3485   24.1193 H   0  0  0  0  0  0
  -20.5623  -26.2461   23.3721 H   0  0  0  0  0  0
  -21.6664  -26.7305   22.1263 H   0  0  0  0  0  0
  -19.6941  -25.6233   21.1331 H   0  0  0  0  0  0
  -19.6753  -27.3098   20.6702 H   0  0  0  0  0  0
  -17.4249  -26.6711   21.4007 H   0  0  0  0  0  0
  -18.0340  -26.0135   22.9031 H   0  0  0  0  0  0
  -19.8020  -30.7387   24.2092 H   0  0  0  0  0  0
  -17.5077  -31.6282   24.5168 H   0  0  0  0  0  0
  -15.5409  -30.2955   23.7758 H   0  0  0  0  0  0
  -15.8743  -28.0797   22.7156 H   0  0  0  0  0  0
  -24.5840  -30.7197   25.7472 H   0  0  0  0  0  0
  -24.8758  -32.3152   26.4272 H   0  0  0  0  0  0
  -25.7673  -30.9265   27.0198 H   0  0  0  0  0  0
  -26.3478  -29.6179   24.1994 H   0  0  0  0  0  0
  -27.3995  -29.7374   25.5825 H   0  0  0  0  0  0
  -27.9496  -30.3744   24.0593 H   0  0  0  0  0  0
  -27.2504  -33.3843   26.1696 H   0  0  0  0  0  0
  -28.4022  -32.6762   25.0472 H   0  0  0  0  0  0
  -28.0483  -31.8810   26.5735 H   0  0  0  0  0  0
  -28.2504  -38.0019   24.7512 H   0  0  0  0  0  0
  -28.1102  -36.2533   24.6296 H   0  0  0  0  0  0
  -27.2260  -37.1297   25.8867 H   0  0  0  0  0  0
  -20.9993  -29.8550   21.6251 H   0  0  0  0  0  0
  -26.0032  -38.2571   24.1430 H   0  0  0  0  0  0
  -25.4307  -20.8349   20.1344 H   0  0  0  0  0  0
  -26.7838  -18.9229   20.1862 H   0  0  0  0  0  0
  -26.0055  -23.1423   20.1745 H   0  0  0  0  0  0
  -30.0932  -21.6868   20.3439 H   0  0  0  0  0  0
  -28.2759  -17.4220   20.3020 H   0  0  0  0  0  0
  1 25  1  0  0  0
  1 30  2  0  0  0
  1 77  1  0  0  0
  2  3  1  0  0  0
  2 25  1  0  0  0
  2 78  1  0  0  0
  2 79  1  0  0  0
  3  4  1  0  0  0
  3 80  1  0  0  0
  3 81  1  0  0  0
  4  5  1  0  0  0
  4 82  1  0  0  0
  4 83  1  0  0  0
  5  6  1  0  0  0
  5 26  1  0  0  0
  5 84  1  0  0  0
  6 25  1  0  0  0
  6 85  1  0  0  0
  6 86  1  0  0  0
  7  8  2  0  0  0
  7 26  1  0  0  0
  7 29  1  0  0  0
  8  9  1  0  0  0
  8 22  1  0  0  0
  9 10  1  0  0  0
  9 27  2  0  0  0
 10 11  2  0  0  0
 10 15  1  0  0  0
 11 12  1  0  0  0
 11 87  1  0  0  0
 12 13  2  0  0  0
 12 88  1  0  0  0
 13 14  1  0  0  0
 13 31  1  0  0  0
 14 15  2  0  0  0
 14 89  1  0  0  0
 15 90  1  0  0  0
 16 17  2  0  0  0
 16 21  1  0  0  0
 16 31  1  0  0  0
 17 18  1  0  0  0
 17 91  1  0  0  0
 18 19  2  0  0  0
 18 92  1  0  0  0
 19 20  1  0  0  0
 19 24  1  0  0  0
 20 21  2  0  0  0
 20 93  1  0  0  0
 21 23  1  0  0  0
 22 28  1  0  0  0
 22 32  2  0  0  0
 26 27  1  0  0  0
 28 94  1  0  0  0
 28 95  1  0  0  0
 29 96  1  0  0  0
 29 97  1  0  0  0
 33 34  1  0  0  0
 33 66  1  0  0  0
 33 70  2  0  0  0
 34 36  1  0  0  0
 34 59  1  0  0  0
 34 98  1  0  0  0
 35 44  2  0  0  0
 35 45  1  0  0  0
 35 68  1  0  0  0
 36 56  1  0  0  0
 36 99  1  0  0  0
 37 39  1  0  0  0
 37 47  1  0  0  0
 37 66  1  0  0  0
 37100  1  0  0  0
 38 43  2  0  0  0
 38 46  1  0  0  0
 38 47  1  0  0  0
 39 64  1  0  0  0
 39 67  2  0  0  0
 40 52  1  0  0  0
 40 53  2  0  0  0
 40 58  1  0  0  0
 41101  1  0  0  0
 41102  1  0  0  0
 41103  1  0  0  0
 41 48  1  0  0  0
 42 43  1  0  0  0
 42 66  1  0  0  0
 42104  1  0  0  0
 42105  1  0  0  0
 43 44  1  0  0  0
 44106  1  0  0  0
 45 46  2  0  0  0
 45107  1  0  0  0
 46108  1  0  0  0
 47109  1  0  0  0
 47110  1  0  0  0
 48 56  1  0  0  0
 48 65  1  0  0  0
 48111  1  0  0  0
 49 50  1  0  0  0
 49 53  1  0  0  0
 49 64  1  0  0  0
 49112  1  0  0  0
 50 51  1  0  0  0
 50113  1  0  0  0
 50114  1  0  0  0
 51 52  1  0  0  0
 51115  1  0  0  0
 51116  1  0  0  0
 52117  1  0  0  0
 52118  1  0  0  0
 53 54  1  0  0  0
 54 55  2  0  0  0
 54119  1  0  0  0
 55 57  1  0  0  0
 55120  1  0  0  0
 56 69  2  0  0  0
 57 58  2  0  0  0
 57121  1  0  0  0
 58122  1  0  0  0
 59 60  1  0  0  0
 59 61  1  0  0  0
 59 62  1  0  0  0
 60123  1  0  0  0
 60124  1  0  0  0
 60125  1  0  0  0
 61126  1  0  0  0
 61127  1  0  0  0
 61128  1  0  0  0
 62129  1  0  0  0
 62130  1  0  0  0
 62131  1  0  0  0
 63 65  1  0  0  0
 63132  1  0  0  0
 63133  1  0  0  0
 63134  1  0  0  0
 64135  1  0  0  0
 65136  1  0  0  0
 68 76  1  0  0  0
 71 72  2  0  0  0
 71 73  1  0  0  0
 71137  1  0  0  0
 72 75  1  0  0  0
 72138  1  0  0  0
 73 76  2  0  0  0
 73139  1  0  0  0
 74 75  2  0  0  0
 74 76  1  0  0  0
 74140  1  0  0  0
 75 77  1  0  0  0
 77141  1  0  0  0
M  ISO  4   1 100  68 101  76 101  77 100
M  END
> <chiral flag>
0

> <version>
0

> <s_m_source_file>
/data/baiqing/PycharmProjects/Reinvent-master-3.2/result/LINK_invent/BTK/process_docking_weight1_custom_sum_contain_oxygen_bond_distance_aromatic_linkinvent_7_9_3/rearranged_h_0002.sdf

> <i_m_source_file_index>
9

> <r_mmod_Potential_Energy-OPLS-2005>
5273.91259765625

> <r_mmod_Stretch_Energy-OPLS-2005>
2172.36376953125

> <r_mmod_Bend_Energy-OPLS-2005>
1065.59814453125

> <r_mmod_Torsional_Energy-OPLS-2005>
216.597412109375

> <r_mmod_Improper_Torsional_Energy-OPLS-2005>
4.25017404556274

> <r_mmod_Van_der_Waal_Energy-OPLS-2005>
135.699996948242

> <r_mmod_Electrostatic_Energy-OPLS-2005>
-333.039489746094

> <r_mmod_Solvation_Energy-OPLS-2005>
-222.837158203125

> <b_mmod_Minimization_Converged-OPLS-2005>
0

> <r_mmod_RMS_Derivative-OPLS-2005>
0.155458047986031

$$$$
9
                    3D
 Structure written by MMmdl.
141149  0  0  1  0            999 V2000
  -30.0996  -16.1278   20.2933 C   0  0  0  0  0  0
  -30.3832  -13.4557   19.5445 C   0  0  0  0  0  0
  -29.5696  -12.7948   18.3771 C   0  0  0  0  0  0
  -28.1854  -12.3278   18.8420 C   0  0  0  0  0  0
  -27.5827  -13.3611   19.8112 C   0  0  2  0  0  0
  -28.5622  -13.8923   20.8994 C   0  0  0  0  0  0
  -25.2245  -13.8357   20.5865 C   0  0  0  0  0  0
  -24.1689  -13.0438   20.9319 C   0  0  0  0  0  0
  -24.6462  -11.6972   20.8754 C   0  0  0  0  0  0
  -23.9169  -10.4299   21.0373 C   0  0  0  0  0  0
  -24.3683   -9.4212   21.9167 C   0  0  0  0  0  0
  -23.6331   -8.2259   22.0753 C   0  0  0  0  0  0
  -22.4310   -8.0298   21.3547 C   0  0  0  0  0  0
  -21.9965   -9.0272   20.4641 C   0  0  0  0  0  0
  -22.7323  -10.2138   20.3037 C   0  0  0  0  0  0
  -21.6863   -6.0749   22.5279 C   0  0  0  0  0  0
  -21.4021   -6.5648   23.8213 C   0  0  0  0  0  0
  -21.3666   -5.6796   24.9172 C   0  0  0  0  0  0
  -21.6044   -4.3058   24.7219 C   0  0  0  0  0  0
  -21.8817   -3.8155   23.4339 C   0  0  0  0  0  0
  -21.9196   -4.6974   22.3397 C   0  0  0  0  0  0
  -22.7687  -13.5129   21.1931 C   0  0  0  0  0  0
  -22.1664   -4.2159   21.0974 F   0  0  0  0  0  0
  -21.5628   -3.4539   25.7732 F   0  0  0  0  0  0
  -29.6522  -14.6704   20.2170 N   0  0  0  0  0  0
  -26.2765  -12.9795   20.3316 N   0  0  0  0  0  0
  -25.9436  -11.6806   20.5676 N   0  0  0  0  0  0
  -22.0364  -12.8097   22.0484 N   0  0  0  0  0  0
  -25.3740  -15.2107   20.4305 N   0  0  0  0  0  0
  -31.3470  -16.0009   20.1853 O   0  0  0  0  0  0
  -21.6658   -6.8903   21.4246 O   0  0  0  0  0  0
  -22.3347  -14.5416   20.6758 O   0  0  0  0  0  0
  -24.7147  -31.7601   23.1231 C   0  0  0  0  0  0
  -25.9565  -32.4273   23.7902 C   0  0  1  0  0  0
  -27.2411  -26.3562   20.2530 C   0  0  0  0  0  0
  -25.6001  -33.8119   24.1750 N   0  0  0  0  0  0
  -23.5566  -30.3453   21.4856 C   0  0  2  0  0  0
  -25.0164  -28.6102   20.1314 C   0  0  0  0  0  0
  -22.7905  -29.4094   22.4624 C   0  0  0  0  0  0
  -18.0356  -28.1437   22.8437 C   0  0  0  0  0  0
  -24.1501  -36.7082   23.2668 C   0  0  0  0  0  0
  -26.1487  -30.3764   21.4420 C   0  0  0  0  0  0
  -26.2080  -28.9009   20.8041 C   0  0  0  0  0  0
  -27.2841  -27.8129   20.8239 C   0  0  0  0  0  0
  -26.0167  -26.3654   19.5087 C   0  0  0  0  0  0
  -24.9800  -27.3714   19.4593 C   0  0  0  0  0  0
  -23.8300  -29.6091   20.1365 C   0  0  0  0  0  0
  -25.4169  -36.2789   24.0255 C   0  0  1  0  0  0
  -20.6007  -28.3810   23.1083 C   0  0  2  0  0  0
  -20.6807  -26.9438   22.5414 C   0  0  0  0  0  0
  -19.5789  -26.6357   21.5225 C   0  0  0  0  0  0
  -18.1968  -26.7959   22.1612 C   0  0  0  0  0  0
  -19.1629  -28.8956   23.2733 C   0  0  0  0  0  0
  -18.9530  -30.1532   23.8794 C   0  0  0  0  0  0
  -17.6516  -30.6612   24.0543 C   0  0  0  0  0  0
  -25.9156  -34.9182   23.4868 C   0  0  0  0  0  0
  -16.5404  -29.9088   23.6357 C   0  0  0  0  0  0
  -16.7334  -28.6513   23.0371 C   0  0  0  0  0  0
  -26.4638  -31.6462   25.0672 C   0  0  0  0  0  0
  -25.3607  -31.3859   26.1213 C   0  0  0  0  0  0
  -27.0643  -30.2773   24.6824 C   0  0  0  0  0  0
  -27.6007  -32.4417   25.7520 C   0  0  0  0  0  0
  -27.5540  -37.1728   24.8486 C   0  0  0  0  0  0
  -21.4524  -29.2991   22.3368 N   0  0  0  0  0  0
  -26.4284  -37.3568   23.9365 N   0  0  0  0  0  0
  -24.8344  -30.8695   22.0684 N   0  0  0  0  0  0
  -23.4191  -28.7753   23.3124 O   0  0  0  0  0  0
  -28.2116  -25.0178   20.2791 O   0  0  0  0  0  0
  -26.5849  -34.8821   22.4520 O   0  0  0  0  0  0
  -23.6097  -32.0834   23.5976 O   0  0  0  0  0  0
  -27.8539  -20.4015   20.2893 C   0  0  0  0  0  0
  -29.9276  -20.7736   20.2908 C   0  0  0  0  0  0
  -27.5458  -21.9724   20.2784 C   0  0  0  0  0  0
  -29.6166  -22.3428   20.2816 C   0  0  0  0  0  0
  -29.0980  -19.4718   20.2969 C   0  0  0  0  0  0
  -28.3753  -23.2749   20.2716 C   0  0  0  0  0  0
  -29.2921  -17.5943   20.3134 N   0  0  0  0  0  0
  -31.3311  -13.7934   19.1249 H   0  0  0  0  0  0
  -30.6705  -12.7078   20.2857 H   0  0  0  0  0  0
  -30.1256  -11.9610   17.9465 H   0  0  0  0  0  0
  -29.4494  -13.5270   17.5771 H   0  0  0  0  0  0
  -28.3016  -11.3740   19.3587 H   0  0  0  0  0  0
  -27.5262  -12.1465   17.9919 H   0  0  0  0  0  0
  -27.3825  -14.2170   19.1644 H   0  0  0  0  0  0
  -28.9318  -13.0918   21.5423 H   0  0  0  0  0  0
  -28.0358  -14.5789   21.5634 H   0  0  0  0  0  0
  -25.2821   -9.5683   22.4758 H   0  0  0  0  0  0
  -24.0025   -7.4656   22.7486 H   0  0  0  0  0  0
  -21.0895   -8.8805   19.8951 H   0  0  0  0  0  0
  -22.3780  -10.9677   19.6148 H   0  0  0  0  0  0
  -21.2017   -7.6156   23.9718 H   0  0  0  0  0  0
  -21.1490   -6.0526   25.9075 H   0  0  0  0  0  0
  -22.0589   -2.7617   23.2831 H   0  0  0  0  0  0
  -22.4022  -11.9785   22.4892 H   0  0  0  0  0  0
  -21.0962  -13.1075   22.2674 H   0  0  0  0  0  0
  -24.5949  -15.8513   20.5382 H   0  0  0  0  0  0
  -26.2098  -15.6569   20.0781 H   0  0  0  0  0  0
  -26.7685  -32.4663   23.0638 H   0  0  0  0  0  0
  -24.9993  -33.9100   24.9802 H   0  0  0  0  0  0
  -22.9021  -31.1913   21.2657 H   0  0  0  0  0  0
  -23.3742  -35.9441   23.3374 H   0  0  0  0  0  0
  -24.3519  -36.8715   22.2071 H   0  0  0  0  0  0
  -23.7322  -37.6292   23.6744 H   0  0  0  0  0  0
  -26.3855  -31.0740   20.6379 H   0  0  0  0  0  0
  -26.9883  -30.4591   22.1188 H   0  0  0  0  0  0
  -28.1784  -28.0601   21.3779 H   0  0  0  0  0  0
  -25.8044  -25.4574   18.9621 H   0  0  0  0  0  0
  -24.0936  -27.1355   18.8860 H   0  0  0  0  0  0
  -24.0356  -30.3537   19.3665 H   0  0  0  0  0  0
  -22.9277  -29.0941   19.8030 H   0  0  0  0  0  0
  -25.1411  -36.1524   25.0751 H   0  0  0  0  0  0
  -21.0073  -28.3463   24.1218 H   0  0  0  0  0  0
  -20.5637  -26.2445   23.3707 H   0  0  0  0  0  0
  -21.6667  -26.7330   22.1256 H   0  0  0  0  0  0
  -19.6941  -25.6237   21.1326 H   0  0  0  0  0  0
  -19.6747  -27.3107   20.6708 H   0  0  0  0  0  0
  -17.4245  -26.6704   21.4009 H   0  0  0  0  0  0
  -18.0340  -26.0130   22.9031 H   0  0  0  0  0  0
  -19.8008  -30.7368   24.2125 H   0  0  0  0  0  0
  -17.5067  -31.6281   24.5164 H   0  0  0  0  0  0
  -15.5400  -30.2957   23.7741 H   0  0  0  0  0  0
  -15.8735  -28.0797   22.7144 H   0  0  0  0  0  0
  -24.5907  -30.7077   25.7514 H   0  0  0  0  0  0
  -24.8662  -32.3090   26.4247 H   0  0  0  0  0  0
  -25.7713  -30.9314   27.0239 H   0  0  0  0  0  0
  -26.3429  -29.6270   24.1870 H   0  0  0  0  0  0
  -27.3992  -29.7365   25.5687 H   0  0  0  0  0  0
  -27.9429  -30.3834   24.0461 H   0  0  0  0  0  0
  -27.2488  -33.3825   26.1763 H   0  0  0  0  0  0
  -28.3987  -32.6813   25.0480 H   0  0  0  0  0  0
  -28.0494  -31.8786   26.5714 H   0  0  0  0  0  0
  -28.2600  -37.9970   24.7386 H   0  0  0  0  0  0
  -28.0989  -36.2482   24.6520 H   0  0  0  0  0  0
  -27.2218  -37.1608   25.8881 H   0  0  0  0  0  0
  -20.9907  -29.8597   21.6342 H   0  0  0  0  0  0
  -26.0093  -38.2628   24.1276 H   0  0  0  0  0  0
  -26.9376  -19.8287   20.2921 H   0  0  0  0  0  0
  -30.9898  -20.5739   20.2960 H   0  0  0  0  0  0
  -26.4844  -22.1755   20.2789 H   0  0  0  0  0  0
  -30.5307  -22.9191   20.2872 H   0  0  0  0  0  0
  -28.3439  -17.2471   20.3493 H   0  0  0  0  0  0
  1 25  1  0  0  0
  1 30  2  0  0  0
  1 77  1  0  0  0
  2  3  1  0  0  0
  2 25  1  0  0  0
  2 78  1  0  0  0
  2 79  1  0  0  0
  3  4  1  0  0  0
  3 80  1  0  0  0
  3 81  1  0  0  0
  4  5  1  0  0  0
  4 82  1  0  0  0
  4 83  1  0  0  0
  5  6  1  0  0  0
  5 26  1  0  0  0
  5 84  1  0  0  0
  6 25  1  0  0  0
  6 85  1  0  0  0
  6 86  1  0  0  0
  7  8  2  0  0  0
  7 26  1  0  0  0
  7 29  1  0  0  0
  8  9  1  0  0  0
  8 22  1  0  0  0
  9 10  1  0  0  0
  9 27  2  0  0  0
 10 11  2  0  0  0
 10 15  1  0  0  0
 11 12  1  0  0  0
 11 87  1  0  0  0
 12 13  2  0  0  0
 12 88  1  0  0  0
 13 14  1  0  0  0
 13 31  1  0  0  0
 14 15  2  0  0  0
 14 89  1  0  0  0
 15 90  1  0  0  0
 16 17  2  0  0  0
 16 21  1  0  0  0
 16 31  1  0  0  0
 17 18  1  0  0  0
 17 91  1  0  0  0
 18 19  2  0  0  0
 18 92  1  0  0  0
 19 20  1  0  0  0
 19 24  1  0  0  0
 20 21  2  0  0  0
 20 93  1  0  0  0
 21 23  1  0  0  0
 22 28  1  0  0  0
 22 32  2  0  0  0
 26 27  1  0  0  0
 28 94  1  0  0  0
 28 95  1  0  0  0
 29 96  1  0  0  0
 29 97  1  0  0  0
 33 34  1  0  0  0
 33 66  1  0  0  0
 33 70  2  0  0  0
 34 36  1  0  0  0
 34 59  1  0  0  0
 34 98  1  0  0  0
 35 44  2  0  0  0
 35 45  1  0  0  0
 35 68  1  0  0  0
 36 56  1  0  0  0
 36 99  1  0  0  0
 37 39  1  0  0  0
 37 47  1  0  0  0
 37 66  1  0  0  0
 37100  1  0  0  0
 38 43  2  0  0  0
 38 46  1  0  0  0
 38 47  1  0  0  0
 39 64  1  0  0  0
 39 67  2  0  0  0
 40 52  1  0  0  0
 40 53  2  0  0  0
 40 58  1  0  0  0
 41101  1  0  0  0
 41102  1  0  0  0
 41103  1  0  0  0
 41 48  1  0  0  0
 42 43  1  0  0  0
 42 66  1  0  0  0
 42104  1  0  0  0
 42105  1  0  0  0
 43 44  1  0  0  0
 44106  1  0  0  0
 45 46  2  0  0  0
 45107  1  0  0  0
 46108  1  0  0  0
 47109  1  0  0  0
 47110  1  0  0  0
 48 56  1  0  0  0
 48 65  1  0  0  0
 48111  1  0  0  0
 49 50  1  0  0  0
 49 53  1  0  0  0
 49 64  1  0  0  0
 49112  1  0  0  0
 50 51  1  0  0  0
 50113  1  0  0  0
 50114  1  0  0  0
 51 52  1  0  0  0
 51115  1  0  0  0
 51116  1  0  0  0
 52117  1  0  0  0
 52118  1  0  0  0
 53 54  1  0  0  0
 54 55  2  0  0  0
 54119  1  0  0  0
 55 57  1  0  0  0
 55120  1  0  0  0
 56 69  2  0  0  0
 57 58  2  0  0  0
 57121  1  0  0  0
 58122  1  0  0  0
 59 60  1  0  0  0
 59 61  1  0  0  0
 59 62  1  0  0  0
 60123  1  0  0  0
 60124  1  0  0  0
 60125  1  0  0  0
 61126  1  0  0  0
 61127  1  0  0  0
 61128  1  0  0  0
 62129  1  0  0  0
 62130  1  0  0  0
 62131  1  0  0  0
 63 65  1  0  0  0
 63132  1  0  0  0
 63133  1  0  0  0
 63134  1  0  0  0
 64135  1  0  0  0
 65136  1  0  0  0
 68 76  1  0  0  0
 71 73  2  0  0  0
 71 75  1  0  0  0
 71137  1  0  0  0
 72 74  1  0  0  0
 72 75  2  0  0  0
 72138  1  0  0  0
 73 76  1  0  0  0
 73139  1  0  0  0
 74 76  2  0  0  0
 74140  1  0  0  0
 75 77  1  0  0  0
 77141  1  0  0  0
M  ISO  4   1 100  68 101  76 101  77 100
M  END
> <chiral flag>
0

> <version>
0

> <s_m_source_file>
/data/baiqing/PycharmProjects/Reinvent-master-3.2/result/LINK_invent/BTK/process_docking_weight1_custom_sum_contain_oxygen_bond_distance_aromatic_linkinvent_7_9_3/rearranged_h_0002.sdf

> <i_m_source_file_index>
10

> <r_mmod_Potential_Energy-OPLS-2005>
4197.39111328125

> <r_mmod_Stretch_Energy-OPLS-2005>
1611.42260742188

> <r_mmod_Bend_Energy-OPLS-2005>
1018.25030517578

> <r_mmod_Torsional_Energy-OPLS-2005>
213.763397216797

> <r_mmod_Improper_Torsional_Energy-OPLS-2005>
4.01581335067749

> <r_mmod_Van_der_Waal_Energy-OPLS-2005>
144.880767822266

> <r_mmod_Electrostatic_Energy-OPLS-2005>
-354.25341796875

> <r_mmod_Solvation_Energy-OPLS-2005>
-218.535690307617

> <b_mmod_Minimization_Converged-OPLS-2005>
0

> <r_mmod_RMS_Derivative-OPLS-2005>
0.799303591251373

$$$$
10
                    3D
 Structure written by MMmdl.
180188  0  0  1  0            999 V2000
  -30.4148  -14.7707   20.7095 C   0  0  0  0  0  0
  -30.4477  -12.5317   19.4977 C   0  0  0  0  0  0
  -29.5199  -12.5601   18.2559 C   0  0  0  0  0  0
  -28.0416  -12.3439   18.6453 C   0  0  0  0  0  0
  -27.6328  -13.2040   19.8685 C   0  0  2  0  0  0
  -28.6431  -13.0274   21.0147 C   0  0  0  0  0  0
  -25.2456  -13.8129   20.5639 C   0  0  0  0  0  0
  -24.1737  -13.0412   20.9180 C   0  0  0  0  0  0
  -24.6293  -11.6875   20.8722 C   0  0  0  0  0  0
  -23.8990  -10.4272   21.0413 C   0  0  0  0  0  0
  -24.3575   -9.4200   21.9185 C   0  0  0  0  0  0
  -23.6271   -8.2228   22.0752 C   0  0  0  0  0  0
  -22.4252   -8.0258   21.3543 C   0  0  0  0  0  0
  -21.9869   -9.0223   20.4645 C   0  0  0  0  0  0
  -22.7176  -10.2109   20.3057 C   0  0  0  0  0  0
  -21.6845   -6.0723   22.5282 C   0  0  0  0  0  0
  -21.4008   -6.5633   23.8213 C   0  0  0  0  0  0
  -21.3659   -5.6788   24.9176 C   0  0  0  0  0  0
  -21.6045   -4.3053   24.7230 C   0  0  0  0  0  0
  -21.8821   -3.8139   23.4353 C   0  0  0  0  0  0
  -21.9190   -4.6954   22.3406 C   0  0  0  0  0  0
  -22.7785  -13.5226   21.1872 C   0  0  0  0  0  0
  -22.1661   -4.2140   21.0985 F   0  0  0  0  0  0
  -21.5631   -3.4537   25.7744 F   0  0  0  0  0  0
  -29.9279  -13.4983   20.5012 N   0  0  0  0  0  0
  -26.2803  -12.9257   20.3199 N   0  0  0  0  0  0
  -25.9184  -11.6431   20.5668 N   0  0  0  0  0  0
  -22.0438  -12.8224   22.0438 N   0  0  0  0  0  0
  -25.4228  -15.1852   20.4088 N   0  0  0  0  0  0
  -31.5661  -15.0371   20.3268 O   0  0  0  0  0  0
  -21.6627   -6.8855   21.4239 O   0  0  0  0  0  0
  -22.3483  -14.5545   20.6729 O   0  0  0  0  0  0
  -24.7387  -31.9704   23.1973 C   0  0  0  0  0  0
  -26.0056  -32.5420   23.8714 C   0  0  1  0  0  0
  -26.6632  -27.3408   20.1576 C   0  0  0  0  0  0
  -25.6744  -33.9095   24.2669 N   0  0  0  0  0  0
  -23.6767  -30.3574   21.7011 C   0  0  2  0  0  0
  -25.0495  -29.3784   19.7982 C   0  0  0  0  0  0
  -23.4140  -28.9805   22.6388 C   0  0  0  0  0  0
  -18.0134  -28.0246   22.7997 C   0  0  0  0  0  0
  -24.1529  -36.7439   23.2557 C   0  0  0  0  0  0
  -26.1457  -30.8122   21.5116 C   0  0  0  0  0  0
  -26.1379  -29.5737   20.6443 C   0  0  0  0  0  0
  -27.1037  -28.5632   20.7133 C   0  0  0  0  0  0
  -26.0580  -27.3495   18.9260 C   0  0  0  0  0  0
  -25.0744  -28.3492   18.8171 C   0  0  0  0  0  0
  -23.9032  -30.2691   20.1233 C   0  0  0  0  0  0
  -25.4158  -36.3351   24.0298 C   0  0  1  0  0  0
  -20.6576  -27.8625   23.0742 C   0  0  2  0  0  0
  -20.5174  -26.5084   22.4152 C   0  0  0  0  0  0
  -19.3977  -26.4512   21.4048 C   0  0  0  0  0  0
  -18.0827  -26.6741   22.1298 C   0  0  0  0  0  0
  -19.2040  -28.7185   23.1704 C   0  0  0  0  0  0
  -18.8728  -30.0548   23.6595 C   0  0  0  0  0  0
  -17.5901  -30.5679   23.8999 C   0  0  0  0  0  0
  -25.9246  -34.9806   23.5118 C   0  0  0  0  0  0
  -16.4837  -29.7960   23.5786 C   0  0  0  0  0  0
  -16.7078  -28.5395   23.0056 C   0  0  0  0  0  0
  -26.5209  -31.7176   25.1167 C   0  0  0  0  0  0
  -25.4942  -31.5485   26.2617 C   0  0  0  0  0  0
  -27.0564  -30.3227   24.7091 C   0  0  0  0  0  0
  -27.7260  -32.4635   25.7257 C   0  0  0  0  0  0
  -27.5617  -37.1963   24.8463 C   0  0  0  0  0  0
  -22.2586  -28.1581   23.0169 N   0  0  0  0  0  0
  -26.4320  -37.4039   23.9432 N   0  0  0  0  0  0
  -24.8613  -31.0651   22.2001 N   0  0  0  0  0  0
  -24.3910  -28.5258   23.1468 O   0  0  0  0  0  0
  -25.6139  -26.8788   20.9325 O   0  0  0  0  0  0
  -26.5486  -34.9182   22.4492 O   0  0  0  0  0  0
  -23.6347  -32.3429   23.6264 O   0  0  0  0  0  0
  -23.2415  -25.9798   25.3188 C   0  0  0  0  0  0
  -23.0241  -29.9447   25.2266 C   0  0  0  0  0  0
  -20.9355  -29.2165   25.5766 C   0  0  0  0  0  0
  -23.6601  -28.5524   25.7819 C   0  0  0  0  0  0
  -21.5376  -27.7938   26.1211 C   0  0  0  0  0  0
  -21.6222  -30.1530   24.3922 C   0  0  0  0  0  0
  -24.6114  -25.4307   24.6217 C   0  0  0  0  0  0
  -28.0087  -19.4204   22.8847 C   0  0  0  0  0  0
  -26.9745  -20.7012   22.6493 C   0  0  0  0  0  0
  -28.2271  -18.1520   21.8321 C   0  0  0  0  0  0
  -26.3971  -21.6968   23.8498 C   0  0  0  0  0  0
  -22.3987  -28.0306   20.3653 C   0  0  0  0  0  0
  -29.5490  -17.1439   21.8291 C   0  0  0  0  0  0
  -25.7432  -23.2058   23.6110 C   0  0  0  0  0  0
  -23.9121  -26.9492   20.7437 C   0  0  0  0  0  0
  -21.3015  -29.4395   21.1132 C   0  0  0  0  0  0
  -22.8699  -27.3215   25.6179 N   0  0  0  0  0  0
  -29.5027  -15.7012   21.2555 N   0  0  0  0  0  0
  -22.4037  -25.1004   25.5367 O   0  0  0  0  0  0
  -21.2649  -30.2944   22.6676 O   0  0  0  0  0  0
  -24.8644  -23.9222   24.6259 O   0  0  0  0  0  0
  -31.4715  -12.7711   19.2059 H   0  0  0  0  0  0
  -30.4852  -11.5291   19.9268 H   0  0  0  0  0  0
  -29.8323  -11.8070   17.5311 H   0  0  0  0  0  0
  -29.6207  -13.5244   17.7553 H   0  0  0  0  0  0
  -27.9060  -11.2867   18.8771 H   0  0  0  0  0  0
  -27.3903  -12.5556   17.7965 H   0  0  0  0  0  0
  -27.6570  -14.2434   19.5402 H   0  0  0  0  0  0
  -28.7096  -11.9794   21.3113 H   0  0  0  0  0  0
  -28.3260  -13.5605   21.9120 H   0  0  0  0  0  0
  -25.2724   -9.5690   22.4749 H   0  0  0  0  0  0
  -23.9991   -7.4619   22.7467 H   0  0  0  0  0  0
  -21.0802   -8.8728   19.8953 H   0  0  0  0  0  0
  -22.3628  -10.9646   19.6166 H   0  0  0  0  0  0
  -21.1997   -7.6140   23.9713 H   0  0  0  0  0  0
  -21.1481   -6.0521   25.9080 H   0  0  0  0  0  0
  -22.0602   -2.7602   23.2855 H   0  0  0  0  0  0
  -22.4055  -11.9875   22.4809 H   0  0  0  0  0  0
  -21.1067  -13.1261   22.2673 H   0  0  0  0  0  0
  -24.6563  -15.8401   20.5186 H   0  0  0  0  0  0
  -26.2637  -15.6196   20.0509 H   0  0  0  0  0  0
  -26.8286  -32.5985   23.1607 H   0  0  0  0  0  0
  -25.1181  -34.0245   25.1009 H   0  0  0  0  0  0
  -22.9448  -31.1537   21.7297 H   0  0  0  0  0  0
  -23.3861  -35.9699   23.3201 H   0  0  0  0  0  0
  -24.3646  -36.9066   22.1978 H   0  0  0  0  0  0
  -23.7181  -37.6607   23.6548 H   0  0  0  0  0  0
  -26.3816  -31.6701   20.8796 H   0  0  0  0  0  0
  -26.9844  -30.7024   22.1853 H   0  0  0  0  0  0
  -27.8737  -28.5934   21.4712 H   0  0  0  0  0  0
  -25.9780  -26.4579   18.3198 H   0  0  0  0  0  0
  -24.3026  -28.2659   18.0653 H   0  0  0  0  0  0
  -24.2193  -31.2630   19.7989 H   0  0  0  0  0  0
  -23.0716  -30.1749   19.4394 H   0  0  0  0  0  0
  -25.1289  -36.2210   25.0777 H   0  0  0  0  0  0
  -20.5491  -27.4456   24.0445 H   0  0  0  0  0  0
  -20.2814  -25.7437   23.1622 H   0  0  0  0  0  0
  -21.4425  -26.1220   21.9995 H   0  0  0  0  0  0
  -19.3845  -25.4674   20.9344 H   0  0  0  0  0  0
  -19.5058  -27.1668   20.5939 H   0  0  0  0  0  0
  -17.2662  -26.5800   21.4119 H   0  0  0  0  0  0
  -17.9203  -25.8998   22.8814 H   0  0  0  0  0  0
  -19.5331  -30.8419   23.9283 H   0  0  0  0  0  0
  -17.4615  -31.5634   24.3032 H   0  0  0  0  0  0
  -15.4800  -30.1664   23.7362 H   0  0  0  0  0  0
  -15.8494  -27.9486   22.7154 H   0  0  0  0  0  0
  -24.5619  -32.0773   26.0751 H   0  0  0  0  0  0
  -25.8623  -31.9695   27.1982 H   0  0  0  0  0  0
  -25.2979  -30.5069   26.4977 H   0  0  0  0  0  0
  -26.3094  -29.7136   24.2085 H   0  0  0  0  0  0
  -27.3735  -29.7559   25.5850 H   0  0  0  0  0  0
  -27.9368  -30.3929   24.0705 H   0  0  0  0  0  0
  -27.4501  -33.4329   26.1428 H   0  0  0  0  0  0
  -28.4994  -32.6465   24.9782 H   0  0  0  0  0  0
  -28.1891  -31.8932   26.5325 H   0  0  0  0  0  0
  -28.2603  -38.0298   24.7626 H   0  0  0  0  0  0
  -28.1163  -36.2850   24.6171 H   0  0  0  0  0  0
  -27.2337  -37.1460   25.8860 H   0  0  0  0  0  0
  -22.6724  -27.4694   23.6194 H   0  0  0  0  0  0
  -26.0216  -38.3101   24.1518 H   0  0  0  0  0  0
  -23.8649  -30.3589   24.7469 H   0  0  0  0  0  0
  -22.9370  -30.5858   26.1048 H   0  0  0  0  0  0
  -20.9485  -29.8501   26.4665 H   0  0  0  0  0  0
  -19.8638  -29.0836   25.5546 H   0  0  0  0  0  0
  -23.8043  -28.6732   26.8572 H   0  0  0  0  0  0
  -24.6839  -28.3918   25.4488 H   0  0  0  0  0  0
  -20.7924  -27.0029   26.0289 H   0  0  0  0  0  0
  -21.6298  -27.8740   27.2062 H   0  0  0  0  0  0
  -21.3906  -31.1828   24.6690 H   0  0  0  0  0  0
  -25.4643  -25.9278   25.0836 H   0  0  0  0  0  0
  -24.5968  -25.7622   23.5852 H   0  0  0  0  0  0
  -27.7395  -18.9725   23.8419 H   0  0  0  0  0  0
  -28.9934  -19.8539   23.0620 H   0  0  0  0  0  0
  -26.0974  -20.3093   22.1330 H   0  0  0  0  0  0
  -27.4526  -21.3455   21.9105 H   0  0  0  0  0  0
  -28.1546  -18.5613   20.8241 H   0  0  0  0  0  0
  -27.3421  -17.5222   21.9294 H   0  0  0  0  0  0
  -27.2024  -21.8244   24.5736 H   0  0  0  0  0  0
  -25.6461  -21.1143   24.3841 H   0  0  0  0  0  0
  -21.6650  -27.2475   20.2338 H   0  0  0  0  0  0
  -22.4571  -28.2459   19.3020 H   0  0  0  0  0  0
  -29.8579  -17.0239   22.8682 H   0  0  0  0  0  0
  -30.3794  -17.6649   21.3506 H   0  0  0  0  0  0
  -25.1573  -23.1677   22.6921 H   0  0  0  0  0  0
  -26.5721  -23.8781   23.3862 H   0  0  0  0  0  0
  -23.7952  -26.1869   19.9729 H   0  0  0  0  0  0
  -23.6134  -26.3855   21.6232 H   0  0  0  0  0  0
  -20.2803  -29.1297   20.9186 H   0  0  0  0  0  0
  -21.2796  -30.2640   20.4039 H   0  0  0  0  0  0
  -28.6076  -15.2622   21.4125 H   0  0  0  0  0  0
  1 25  1  0  0  0
  1 30  2  0  0  0
  1 88  1  0  0  0
  2  3  1  0  0  0
  2 25  1  0  0  0
  2 92  1  0  0  0
  2 93  1  0  0  0
  3  4  1  0  0  0
  3 94  1  0  0  0
  3 95  1  0  0  0
  4  5  1  0  0  0
  4 96  1  0  0  0
  4 97  1  0  0  0
  5  6  1  0  0  0
  5 26  1  0  0  0
  5 98  1  0  0  0
  6 25  1  0  0  0
  6 99  1  0  0  0
  6100  1  0  0  0
  7  8  2  0  0  0
  7 26  1  0  0  0
  7 29  1  0  0  0
  8  9  1  0  0  0
  8 22  1  0  0  0
  9 10  1  0  0  0
  9 27  2  0  0  0
 10 11  2  0  0  0
 10 15  1  0  0  0
 11 12  1  0  0  0
 11101  1  0  0  0
 12 13  2  0  0  0
 12102  1  0  0  0
 13 14  1  0  0  0
 13 31  1  0  0  0
 14 15  2  0  0  0
 14103  1  0  0  0
 15104  1  0  0  0
 16 17  2  0  0  0
 16 21  1  0  0  0
 16 31  1  0  0  0
 17 18  1  0  0  0
 17105  1  0  0  0
 18 19  2  0  0  0
 18106  1  0  0  0
 19 20  1  0  0  0
 19 24  1  0  0  0
 20 21  2  0  0  0
 20107  1  0  0  0
 21 23  1  0  0  0
 22 28  1  0  0  0
 22 32  2  0  0  0
 26 27  1  0  0  0
 28108  1  0  0  0
 28109  1  0  0  0
 29110  1  0  0  0
 29111  1  0  0  0
 33 34  1  0  0  0
 33 66  1  0  0  0
 33 70  2  0  0  0
 34 36  1  0  0  0
 34 59  1  0  0  0
 34112  1  0  0  0
 35 44  2  0  0  0
 35 45  1  0  0  0
 35 68  1  0  0  0
 36 56  1  0  0  0
 36113  1  0  0  0
 37 39  1  0  0  0
 37 47  1  0  0  0
 37 66  1  0  0  0
 37114  1  0  0  0
 38 43  2  0  0  0
 38 46  1  0  0  0
 38 47  1  0  0  0
 39 64  1  0  0  0
 39 67  2  0  0  0
 40 52  1  0  0  0
 40 53  2  0  0  0
 40 58  1  0  0  0
 41115  1  0  0  0
 41116  1  0  0  0
 41117  1  0  0  0
 41 48  1  0  0  0
 42 43  1  0  0  0
 42 66  1  0  0  0
 42118  1  0  0  0
 42119  1  0  0  0
 43 44  1  0  0  0
 44120  1  0  0  0
 45 46  2  0  0  0
 45121  1  0  0  0
 46122  1  0  0  0
 47123  1  0  0  0
 47124  1  0  0  0
 48 56  1  0  0  0
 48 65  1  0  0  0
 48125  1  0  0  0
 49 50  1  0  0  0
 49 53  1  0  0  0
 49 64  1  0  0  0
 49126  1  0  0  0
 50 51  1  0  0  0
 50127  1  0  0  0
 50128  1  0  0  0
 51 52  1  0  0  0
 51129  1  0  0  0
 51130  1  0  0  0
 52131  1  0  0  0
 52132  1  0  0  0
 53 54  1  0  0  0
 54 55  2  0  0  0
 54133  1  0  0  0
 55 57  1  0  0  0
 55134  1  0  0  0
 56 69  2  0  0  0
 57 58  2  0  0  0
 57135  1  0  0  0
 58136  1  0  0  0
 59 60  1  0  0  0
 59 61  1  0  0  0
 59 62  1  0  0  0
 60137  1  0  0  0
 60138  1  0  0  0
 60139  1  0  0  0
 61140  1  0  0  0
 61141  1  0  0  0
 61142  1  0  0  0
 62143  1  0  0  0
 62144  1  0  0  0
 62145  1  0  0  0
 63 65  1  0  0  0
 63146  1  0  0  0
 63147  1  0  0  0
 63148  1  0  0  0
 64149  1  0  0  0
 65150  1  0  0  0
 68 85  1  0  0  0
 71 77  1  0  0  0
 71 87  1  0  0  0
 71 89  2  0  0  0
 72 74  1  0  0  0
 72 76  1  0  0  0
 72151  1  0  0  0
 72152  1  0  0  0
 73 75  1  0  0  0
 73 76  1  0  0  0
 73153  1  0  0  0
 73154  1  0  0  0
 74 87  1  0  0  0
 74155  1  0  0  0
 74156  1  0  0  0
 75 87  1  0  0  0
 75157  1  0  0  0
 75158  1  0  0  0
 76 90  1  0  0  0
 76159  1  0  0  0
 77 91  1  0  0  0
 77160  1  0  0  0
 77161  1  0  0  0
 78 79  1  0  0  0
 78 80  1  0  0  0
 78162  1  0  0  0
 78163  1  0  0  0
 79 81  1  0  0  0
 79164  1  0  0  0
 79165  1  0  0  0
 80 83  1  0  0  0
 80166  1  0  0  0
 80167  1  0  0  0
 81 84  1  0  0  0
 81168  1  0  0  0
 81169  1  0  0  0
 82 85  1  0  0  0
 82 86  1  0  0  0
 82170  1  0  0  0
 82171  1  0  0  0
 83 88  1  0  0  0
 83172  1  0  0  0
 83173  1  0  0  0
 84 91  1  0  0  0
 84174  1  0  0  0
 84175  1  0  0  0
 85176  1  0  0  0
 85177  1  0  0  0
 86 90  1  0  0  0
 86178  1  0  0  0
 86179  1  0  0  0
 88180  1  0  0  0
M  ISO  4   1 100  68 101  85 101  88 100
M  END
> <chiral flag>
0

> <version>
0

> <s_m_source_file>
/data/baiqing/PycharmProjects/Reinvent-master-3.2/result/LINK_invent/BTK/process_docking_weight1_custom_sum_contain_oxygen_bond_distance_aromatic_linkinvent_7_9_3/rearranged_h_0002.sdf

> <i_m_source_file_index>
11

> <r_mmod_Potential_Energy-OPLS-2005>
5291.79833984375

> <r_mmod_Stretch_Energy-OPLS-2005>
1277.80261230469

> <r_mmod_Bend_Energy-OPLS-2005>
1253.26110839844

> <r_mmod_Torsional_Energy-OPLS-2005>
561.486022949219

> <r_mmod_Improper_Torsional_Energy-OPLS-2005>
31.6590614318848

> <r_mmod_Van_der_Waal_Energy-OPLS-2005>
970.088256835938

> <r_mmod_Electrostatic_Energy-OPLS-2005>
-332.36376953125

> <r_mmod_Solvation_Energy-OPLS-2005>
-223.087875366211

> <b_mmod_Minimization_Converged-OPLS-2005>
0

> <r_mmod_RMS_Derivative-OPLS-2005>
0.743656694889069

$$$$
11
                    3D
 Structure written by MMmdl.
141149  0  0  1  0            999 V2000
  -30.0197  -16.3287   20.2785 C   0  0  0  0  0  0
  -30.3591  -13.6089   19.5409 C   0  0  0  0  0  0
  -29.5740  -12.8613   18.3966 C   0  0  0  0  0  0
  -28.2109  -12.3495   18.8719 C   0  0  0  0  0  0
  -27.5797  -13.3880   19.8136 C   0  0  2  0  0  0
  -28.5421  -13.9971   20.8852 C   0  0  0  0  0  0
  -25.2217  -13.8403   20.5892 C   0  0  0  0  0  0
  -24.1686  -13.0448   20.9332 C   0  0  0  0  0  0
  -24.6499  -11.6995   20.8755 C   0  0  0  0  0  0
  -23.9209  -10.4307   21.0363 C   0  0  0  0  0  0
  -24.3710   -9.4216   21.9162 C   0  0  0  0  0  0
  -23.6346   -8.2268   22.0750 C   0  0  0  0  0  0
  -22.4323   -8.0310   21.3545 C   0  0  0  0  0  0
  -21.9989   -9.0289   20.4638 C   0  0  0  0  0  0
  -22.7357  -10.2148   20.3031 C   0  0  0  0  0  0
  -21.6871   -6.0756   22.5278 C   0  0  0  0  0  0
  -21.4028   -6.5652   23.8214 C   0  0  0  0  0  0
  -21.3663   -5.6799   24.9172 C   0  0  0  0  0  0
  -21.6043   -4.3062   24.7220 C   0  0  0  0  0  0
  -21.8817   -3.8158   23.4339 C   0  0  0  0  0  0
  -21.9197   -4.6980   22.3398 C   0  0  0  0  0  0
  -22.7675  -13.5112   21.1940 C   0  0  0  0  0  0
  -22.1662   -4.2164   21.0975 F   0  0  0  0  0  0
  -21.5625   -3.4542   25.7730 F   0  0  0  0  0  0
  -29.5970  -14.8355   20.1932 N   0  0  0  0  0  0
  -26.2783  -12.9901   20.3372 N   0  0  0  0  0  0
  -25.9485  -11.6877   20.5674 N   0  0  0  0  0  0
  -22.0361  -12.8068   22.0490 N   0  0  0  0  0  0
  -25.3668  -15.2157   20.4309 N   0  0  0  0  0  0
  -31.2710  -16.1737   20.1900 O   0  0  0  0  0  0
  -21.6666   -6.8914   21.4247 O   0  0  0  0  0  0
  -22.3324  -14.5401   20.6775 O   0  0  0  0  0  0
  -24.7287  -31.7428   23.1123 C   0  0  0  0  0  0
  -25.9638  -32.4188   23.7845 C   0  0  1  0  0  0
  -27.2523  -26.2201   20.2601 C   0  0  0  0  0  0
  -25.6018  -33.8041   24.1677 N   0  0  0  0  0  0
  -23.5770  -30.3216   21.4775 C   0  0  2  0  0  0
  -25.0402  -28.5588   20.1354 C   0  0  0  0  0  0
  -22.7967  -29.4007   22.4588 C   0  0  0  0  0  0
  -18.0366  -28.1446   22.8430 C   0  0  0  0  0  0
  -24.1497  -36.7034   23.2666 C   0  0  0  0  0  0
  -26.1733  -30.3138   21.4528 C   0  0  0  0  0  0
  -26.2332  -28.8230   20.8162 C   0  0  0  0  0  0
  -27.2961  -27.6978   20.8362 C   0  0  0  0  0  0
  -26.0273  -26.2948   19.5052 C   0  0  0  0  0  0
  -25.0046  -27.3239   19.4549 C   0  0  0  0  0  0
  -23.8582  -29.5719   20.1350 C   0  0  0  0  0  0
  -25.4165  -36.2733   24.0247 C   0  0  1  0  0  0
  -20.6022  -28.3823   23.1058 C   0  0  2  0  0  0
  -20.6806  -26.9438   22.5415 C   0  0  0  0  0  0
  -19.5792  -26.6354   21.5222 C   0  0  0  0  0  0
  -18.1974  -26.7964   22.1610 C   0  0  0  0  0  0
  -19.1644  -28.8970   23.2710 C   0  0  0  0  0  0
  -18.9543  -30.1542   23.8775 C   0  0  0  0  0  0
  -17.6527  -30.6616   24.0540 C   0  0  0  0  0  0
  -25.9173  -34.9135   23.4836 C   0  0  0  0  0  0
  -16.5413  -29.9090   23.6363 C   0  0  0  0  0  0
  -16.7343  -28.6516   23.0374 C   0  0  0  0  0  0
  -26.4667  -31.6432   25.0666 C   0  0  0  0  0  0
  -25.3609  -31.3887   26.1193 C   0  0  0  0  0  0
  -27.0676  -30.2722   24.6916 C   0  0  0  0  0  0
  -27.6023  -32.4411   25.7506 C   0  0  0  0  0  0
  -27.5547  -37.1670   24.8467 C   0  0  0  0  0  0
  -21.4573  -29.2973   22.3325 N   0  0  0  0  0  0
  -26.4250  -37.3547   23.9407 N   0  0  0  0  0  0
  -24.8557  -30.8383   22.0655 N   0  0  0  0  0  0
  -23.4183  -28.7692   23.3158 O   0  0  0  0  0  0
  -28.1760  -24.7953   20.2839 O   0  0  0  0  0  0
  -26.5884  -34.8808   22.4502 O   0  0  0  0  0  0
  -23.6206  -32.0732   23.5767 O   0  0  0  0  0  0
  -26.4916  -21.0383   20.1823 C   0  0  0  0  0  0
  -27.3291  -19.8554   20.2140 C   0  0  0  0  0  0
  -26.8302  -22.4442   20.2046 C   0  0  0  0  0  0
  -29.0332  -21.4834   20.2943 C   0  0  0  0  0  0
  -28.7553  -19.7469   20.2741 C   0  0  0  0  0  0
  -28.1343  -23.0031   20.2646 C   0  0  0  0  0  0
  -29.1958  -17.8391   20.2885 N   0  0  0  0  0  0
  -31.2862  -13.9734   19.0974 H   0  0  0  0  0  0
  -30.6936  -12.9006   20.3014 H   0  0  0  0  0  0
  -30.1684  -12.0385   17.9972 H   0  0  0  0  0  0
  -29.4225  -13.5566   17.5698 H   0  0  0  0  0  0
  -28.3608  -11.4149   19.4138 H   0  0  0  0  0  0
  -27.5575  -12.1250   18.0276 H   0  0  0  0  0  0
  -27.3560  -14.2156   19.1384 H   0  0  0  0  0  0
  -28.9512  -13.2332   21.5487 H   0  0  0  0  0  0
  -27.9811  -14.6691   21.5357 H   0  0  0  0  0  0
  -25.2845   -9.5681   22.4756 H   0  0  0  0  0  0
  -24.0035   -7.4664   22.7486 H   0  0  0  0  0  0
  -21.0915   -8.8830   19.8947 H   0  0  0  0  0  0
  -22.3818  -10.9689   19.6141 H   0  0  0  0  0  0
  -21.2027   -7.6161   23.9721 H   0  0  0  0  0  0
  -21.1485   -6.0528   25.9075 H   0  0  0  0  0  0
  -22.0590   -2.7620   23.2835 H   0  0  0  0  0  0
  -22.4034  -11.9761   22.4890 H   0  0  0  0  0  0
  -21.0955  -13.1027   22.2682 H   0  0  0  0  0  0
  -24.5854  -15.8543   20.5321 H   0  0  0  0  0  0
  -26.2016  -15.6606   20.0749 H   0  0  0  0  0  0
  -26.7775  -32.4557   23.0594 H   0  0  0  0  0  0
  -24.9991  -33.8997   24.9716 H   0  0  0  0  0  0
  -22.9304  -31.1703   21.2450 H   0  0  0  0  0  0
  -23.3791  -35.9326   23.3226 H   0  0  0  0  0  0
  -24.3550  -36.8831   22.2102 H   0  0  0  0  0  0
  -23.7228  -37.6152   23.6853 H   0  0  0  0  0  0
  -26.4241  -31.0025   20.6451 H   0  0  0  0  0  0
  -27.0082  -30.4005   22.1344 H   0  0  0  0  0  0
  -28.1859  -27.9296   21.4042 H   0  0  0  0  0  0
  -25.7926  -25.4015   18.9441 H   0  0  0  0  0  0
  -24.1229  -27.1038   18.8687 H   0  0  0  0  0  0
  -24.0724  -30.3103   19.3617 H   0  0  0  0  0  0
  -22.9541  -29.0611   19.7997 H   0  0  0  0  0  0
  -25.1399  -36.1423   25.0734 H   0  0  0  0  0  0
  -21.0086  -28.3485   24.1193 H   0  0  0  0  0  0
  -20.5623  -26.2461   23.3721 H   0  0  0  0  0  0
  -21.6664  -26.7305   22.1263 H   0  0  0  0  0  0
  -19.6941  -25.6233   21.1331 H   0  0  0  0  0  0
  -19.6753  -27.3098   20.6702 H   0  0  0  0  0  0
  -17.4249  -26.6711   21.4007 H   0  0  0  0  0  0
  -18.0340  -26.0135   22.9031 H   0  0  0  0  0  0
  -19.8020  -30.7387   24.2092 H   0  0  0  0  0  0
  -17.5077  -31.6282   24.5168 H   0  0  0  0  0  0
  -15.5409  -30.2955   23.7758 H   0  0  0  0  0  0
  -15.8743  -28.0797   22.7156 H   0  0  0  0  0  0
  -24.5840  -30.7197   25.7472 H   0  0  0  0  0  0
  -24.8758  -32.3152   26.4272 H   0  0  0  0  0  0
  -25.7673  -30.9265   27.0198 H   0  0  0  0  0  0
  -26.3478  -29.6179   24.1994 H   0  0  0  0  0  0
  -27.3995  -29.7374   25.5825 H   0  0  0  0  0  0
  -27.9496  -30.3744   24.0593 H   0  0  0  0  0  0
  -27.2504  -33.3843   26.1696 H   0  0  0  0  0  0
  -28.4022  -32.6762   25.0472 H   0  0  0  0  0  0
  -28.0483  -31.8810   26.5735 H   0  0  0  0  0  0
  -28.2504  -38.0019   24.7512 H   0  0  0  0  0  0
  -28.1102  -36.2533   24.6296 H   0  0  0  0  0  0
  -27.2260  -37.1297   25.8867 H   0  0  0  0  0  0
  -20.9993  -29.8550   21.6251 H   0  0  0  0  0  0
  -26.0032  -38.2571   24.1430 H   0  0  0  0  0  0
  -25.4307  -20.8349   20.1344 H   0  0  0  0  0  0
  -26.7838  -18.9229   20.1862 H   0  0  0  0  0  0
  -26.0055  -23.1423   20.1745 H   0  0  0  0  0  0
  -30.0932  -21.6868   20.3439 H   0  0  0  0  0  0
  -28.2759  -17.4220   20.3020 H   0  0  0  0  0  0
  1 25  1  0  0  0
  1 30  2  0  0  0
  1 77  1  0  0  0
  2  3  1  0  0  0
  2 25  1  0  0  0
  2 78  1  0  0  0
  2 79  1  0  0  0
  3  4  1  0  0  0
  3 80  1  0  0  0
  3 81  1  0  0  0
  4  5  1  0  0  0
  4 82  1  0  0  0
  4 83  1  0  0  0
  5  6  1  0  0  0
  5 26  1  0  0  0
  5 84  1  0  0  0
  6 25  1  0  0  0
  6 85  1  0  0  0
  6 86  1  0  0  0
  7  8  2  0  0  0
  7 26  1  0  0  0
  7 29  1  0  0  0
  8  9  1  0  0  0
  8 22  1  0  0  0
  9 10  1  0  0  0
  9 27  2  0  0  0
 10 11  2  0  0  0
 10 15  1  0  0  0
 11 12  1  0  0  0
 11 87  1  0  0  0
 12 13  2  0  0  0
 12 88  1  0  0  0
 13 14  1  0  0  0
 13 31  1  0  0  0
 14 15  2  0  0  0
 14 89  1  0  0  0
 15 90  1  0  0  0
 16 17  2  0  0  0
 16 21  1  0  0  0
 16 31  1  0  0  0
 17 18  1  0  0  0
 17 91  1  0  0  0
 18 19  2  0  0  0
 18 92  1  0  0  0
 19 20  1  0  0  0
 19 24  1  0  0  0
 20 21  2  0  0  0
 20 93  1  0  0  0
 21 23  1  0  0  0
 22 28  1  0  0  0
 22 32  2  0  0  0
 26 27  1  0  0  0
 28 94  1  0  0  0
 28 95  1  0  0  0
 29 96  1  0  0  0
 29 97  1  0  0  0
 33 34  1  0  0  0
 33 66  1  0  0  0
 33 70  2  0  0  0
 34 36  1  0  0  0
 34 59  1  0  0  0
 34 98  1  0  0  0
 35 44  2  0  0  0
 35 45  1  0  0  0
 35 68  1  0  0  0
 36 56  1  0  0  0
 36 99  1  0  0  0
 37 39  1  0  0  0
 37 47  1  0  0  0
 37 66  1  0  0  0
 37100  1  0  0  0
 38 43  2  0  0  0
 38 46  1  0  0  0
 38 47  1  0  0  0
 39 64  1  0  0  0
 39 67  2  0  0  0
 40 52  1  0  0  0
 40 53  2  0  0  0
 40 58  1  0  0  0
 41101  1  0  0  0
 41102  1  0  0  0
 41103  1  0  0  0
 41 48  1  0  0  0
 42 43  1  0  0  0
 42 66  1  0  0  0
 42104  1  0  0  0
 42105  1  0  0  0
 43 44  1  0  0  0
 44106  1  0  0  0
 45 46  2  0  0  0
 45107  1  0  0  0
 46108  1  0  0  0
 47109  1  0  0  0
 47110  1  0  0  0
 48 56  1  0  0  0
 48 65  1  0  0  0
 48111  1  0  0  0
 49 50  1  0  0  0
 49 53  1  0  0  0
 49 64  1  0  0  0
 49112  1  0  0  0
 50 51  1  0  0  0
 50113  1  0  0  0
 50114  1  0  0  0
 51 52  1  0  0  0
 51115  1  0  0  0
 51116  1  0  0  0
 52117  1  0  0  0
 52118  1  0  0  0
 53 54  1  0  0  0
 54 55  2  0  0  0
 54119  1  0  0  0
 55 57  1  0  0  0
 55120  1  0  0  0
 56 69  2  0  0  0
 57 58  2  0  0  0
 57121  1  0  0  0
 58122  1  0  0  0
 59 60  1  0  0  0
 59 61  1  0  0  0
 59 62  1  0  0  0
 60123  1  0  0  0
 60124  1  0  0  0
 60125  1  0  0  0
 61126  1  0  0  0
 61127  1  0  0  0
 61128  1  0  0  0
 62129  1  0  0  0
 62130  1  0  0  0
 62131  1  0  0  0
 63 65  1  0  0  0
 63132  1  0  0  0
 63133  1  0  0  0
 63134  1  0  0  0
 64135  1  0  0  0
 65136  1  0  0  0
 68 76  1  0  0  0
 71 72  2  0  0  0
 71 73  1  0  0  0
 71137  1  0  0  0
 72 75  1  0  0  0
 72138  1  0  0  0
 73 76  2  0  0  0
 73139  1  0  0  0
 74 75  2  0  0  0
 74 76  1  0  0  0
 74140  1  0  0  0
 75 77  1  0  0  0
 77141  1  0  0  0
M  ISO  4   1 100  68 101  76 101  77 100
M  END
> <chiral flag>
0

> <version>
0

> <s_m_source_file>
/data/baiqing/PycharmProjects/Reinvent-master-3.2/result/LINK_invent/BTK/process_docking_weight1_custom_sum_contain_oxygen_bond_distance_aromatic_linkinvent_7_9_3/rearranged_h_0002.sdf

> <i_m_source_file_index>
12

> <r_mmod_Potential_Energy-OPLS-2005>
5273.91259765625

> <r_mmod_Stretch_Energy-OPLS-2005>
2172.36376953125

> <r_mmod_Bend_Energy-OPLS-2005>
1065.59814453125

> <r_mmod_Torsional_Energy-OPLS-2005>
216.597412109375

> <r_mmod_Improper_Torsional_Energy-OPLS-2005>
4.25017404556274

> <r_mmod_Van_der_Waal_Energy-OPLS-2005>
135.699996948242

> <r_mmod_Electrostatic_Energy-OPLS-2005>
-333.039489746094

> <r_mmod_Solvation_Energy-OPLS-2005>
-222.837158203125

> <b_mmod_Minimization_Converged-OPLS-2005>
0

> <r_mmod_RMS_Derivative-OPLS-2005>
0.155458047986031

$$$$
12
                    3D
 Structure written by MMmdl.
154162  0  0  1  0            999 V2000
  -30.6373  -14.6704   20.4823 C   0  0  0  0  0  0
  -30.4373  -12.4114   19.4530 C   0  0  0  0  0  0
  -29.5073  -12.5246   18.2241 C   0  0  0  0  0  0
  -28.0287  -12.3716   18.6341 C   0  0  0  0  0  0
  -27.6499  -13.2372   19.8661 C   0  0  2  0  0  0
  -28.7025  -13.1000   20.9918 C   0  0  0  0  0  0
  -25.2381  -13.8093   20.5589 C   0  0  0  0  0  0
  -24.1746  -13.0328   20.9192 C   0  0  0  0  0  0
  -24.6434  -11.6860   20.8788 C   0  0  0  0  0  0
  -23.9125  -10.4244   21.0435 C   0  0  0  0  0  0
  -24.3661   -9.4158   21.9211 C   0  0  0  0  0  0
  -23.6305   -8.2208   22.0771 C   0  0  0  0  0  0
  -22.4284   -8.0277   21.3553 C   0  0  0  0  0  0
  -21.9939   -9.0259   20.4652 C   0  0  0  0  0  0
  -22.7302  -10.2116   20.3067 C   0  0  0  0  0  0
  -21.6836   -6.0749   22.5290 C   0  0  0  0  0  0
  -21.3998   -6.5647   23.8227 C   0  0  0  0  0  0
  -21.3655   -5.6786   24.9180 C   0  0  0  0  0  0
  -21.6042   -4.3053   24.7222 C   0  0  0  0  0  0
  -21.8818   -3.8150   23.4339 C   0  0  0  0  0  0
  -21.9185   -4.6978   22.3400 C   0  0  0  0  0  0
  -22.7758  -13.5109   21.1834 C   0  0  0  0  0  0
  -22.1656   -4.2171   21.0974 F   0  0  0  0  0  0
  -21.5634   -3.4524   25.7732 F   0  0  0  0  0  0
  -30.0176  -13.4440   20.4240 N   0  0  0  0  0  0
  -26.2965  -12.9430   20.3349 N   0  0  0  0  0  0
  -25.9394  -11.6555   20.5845 N   0  0  0  0  0  0
  -22.0405  -12.8151   22.0428 N   0  0  0  0  0  0
  -25.3581  -15.1767   20.3805 N   0  0  0  0  0  0
  -31.8048  -14.8060   20.1077 O   0  0  0  0  0  0
  -21.6614   -6.8901   21.4258 O   0  0  0  0  0  0
  -22.3426  -14.5405   20.6667 O   0  0  0  0  0  0
  -24.6243  -31.8592   23.2030 C   0  0  0  0  0  0
  -25.9103  -32.4760   23.8350 C   0  0  1  0  0  0
  -27.2280  -27.3239   20.1018 C   0  0  0  0  0  0
  -25.5931  -33.8566   24.2266 N   0  0  0  0  0  0
  -23.4154  -30.4823   21.5477 C   0  0  2  0  0  0
  -24.8608  -28.9365   20.1135 C   0  0  0  0  0  0
  -22.7448  -29.4620   22.4976 C   0  0  0  0  0  0
  -18.0281  -28.1362   22.8487 C   0  0  0  0  0  0
  -24.1496  -36.7300   23.2637 C   0  0  0  0  0  0
  -25.9578  -30.7871   21.3762 C   0  0  0  0  0  0
  -26.0309  -29.4166   20.7149 C   0  0  0  0  0  0
  -27.2152  -28.6218   20.7013 C   0  0  0  0  0  0
  -26.0279  -26.8937   19.4859 C   0  0  0  0  0  0
  -24.8603  -27.6792   19.4933 C   0  0  0  0  0  0
  -23.6246  -29.8108   20.1653 C   0  0  0  0  0  0
  -25.4122  -36.3071   24.0316 C   0  0  1  0  0  0
  -20.5872  -28.3662   23.1295 C   0  0  2  0  0  0
  -20.6776  -26.9394   22.5404 C   0  0  0  0  0  0
  -19.5755  -26.6360   21.5209 C   0  0  0  0  0  0
  -18.1929  -26.7910   22.1609 C   0  0  0  0  0  0
  -19.1530  -28.8833   23.2874 C   0  0  0  0  0  0
  -18.9463  -30.1452   23.8863 C   0  0  0  0  0  0
  -17.6460  -30.6576   24.0543 C   0  0  0  0  0  0
  -25.9059  -34.9440   23.5087 C   0  0  0  0  0  0
  -16.5350  -29.9061   23.6338 C   0  0  0  0  0  0
  -16.7268  -28.6475   23.0365 C   0  0  0  0  0  0
  -26.4486  -31.6577   25.0732 C   0  0  0  0  0  0
  -25.3729  -31.3732   26.1471 C   0  0  0  0  0  0
  -27.0324  -30.2991   24.6209 C   0  0  0  0  0  0
  -27.6038  -32.4313   25.7514 C   0  0  0  0  0  0
  -27.5581  -37.1808   24.8452 C   0  0  0  0  0  0
  -21.4169  -29.3022   22.3702 N   0  0  0  0  0  0
  -26.4293  -37.3766   23.9392 N   0  0  0  0  0  0
  -24.6845  -31.0604   22.0974 N   0  0  0  0  0  0
  -23.4182  -28.8168   23.3049 O   0  0  0  0  0  0
  -28.3630  -26.4930   20.1285 O   0  0  0  0  0  0
  -26.5624  -34.8904   22.4652 O   0  0  0  0  0  0
  -23.5413  -32.1401   23.7362 O   0  0  0  0  0  0
  -31.1365  -17.8808   20.2239 C   0  0  0  0  0  0
  -31.1987  -19.3012   20.0772 C   0  0  0  0  0  0
  -28.9132  -19.4930   20.7405 C   0  0  0  0  0  0
  -28.8426  -18.0787   20.9342 C   0  0  0  0  0  0
  -29.9565  -17.2099   20.6562 C   0  0  0  0  0  0
  -30.0876  -20.1558   20.3184 C   0  0  0  0  0  0
  -29.3835  -24.0299   20.1750 C   0  0  0  0  0  0
  -28.1679  -25.0335   19.9635 C   0  0  0  0  0  0
  -29.0683  -22.4657   20.0896 C   0  0  0  0  0  0
  -27.4845  -17.5683   21.4015 C   0  0  0  0  0  0
  -29.8415  -15.7422   20.8068 N   0  0  0  0  0  0
  -30.2191  -21.5548   20.1612 O   0  0  0  0  0  0
  -26.9593  -18.3831   22.3193 F   0  0  0  0  0  0
  -26.6852  -17.5690   20.3368 F   0  0  0  0  0  0
  -27.5234  -16.3436   21.9272 F   0  0  0  0  0  0
  -31.4788  -12.5287   19.1491 H   0  0  0  0  0  0
  -30.3682  -11.4164   19.8963 H   0  0  0  0  0  0
  -29.7724  -11.7702   17.4821 H   0  0  0  0  0  0
  -29.6517  -13.4918   17.7385 H   0  0  0  0  0  0
  -27.8586  -11.3183   18.8570 H   0  0  0  0  0  0
  -27.3753  -12.6104   17.7935 H   0  0  0  0  0  0
  -27.6568  -14.2764   19.5340 H   0  0  0  0  0  0
  -28.7155  -12.0790   21.3757 H   0  0  0  0  0  0
  -28.4540  -13.7332   21.8444 H   0  0  0  0  0  0
  -25.2813   -9.5601   22.4785 H   0  0  0  0  0  0
  -23.9994   -7.4586   22.7491 H   0  0  0  0  0  0
  -21.0864   -8.8806   19.8955 H   0  0  0  0  0  0
  -22.3801  -10.9666   19.6165 H   0  0  0  0  0  0
  -21.1980   -7.6156   23.9746 H   0  0  0  0  0  0
  -21.1475   -6.0506   25.9091 H   0  0  0  0  0  0
  -22.0602   -2.7616   23.2819 H   0  0  0  0  0  0
  -22.4023  -11.9845   22.4864 H   0  0  0  0  0  0
  -21.1032  -13.1224   22.2636 H   0  0  0  0  0  0
  -24.5658  -15.7869   20.5435 H   0  0  0  0  0  0
  -26.1777  -15.6839   20.0744 H   0  0  0  0  0  0
  -26.7161  -32.5409   23.1089 H   0  0  0  0  0  0
  -25.0087  -33.9715   25.0413 H   0  0  0  0  0  0
  -22.7083  -31.3021   21.4049 H   0  0  0  0  0  0
  -23.3743  -35.9648   23.3294 H   0  0  0  0  0  0
  -24.3585  -36.8934   22.2053 H   0  0  0  0  0  0
  -23.7271  -37.6507   23.6672 H   0  0  0  0  0  0
  -26.0972  -31.5529   20.6123 H   0  0  0  0  0  0
  -26.8338  -30.8256   22.0115 H   0  0  0  0  0  0
  -28.1124  -28.9851   21.1826 H   0  0  0  0  0  0
  -25.9544  -25.9368   18.9929 H   0  0  0  0  0  0
  -23.9625  -27.3039   19.0215 H   0  0  0  0  0  0
  -23.7233  -30.5798   19.3983 H   0  0  0  0  0  0
  -22.7467  -29.2273   19.8805 H   0  0  0  0  0  0
  -25.1309  -36.1917   25.0809 H   0  0  0  0  0  0
  -20.9961  -28.3229   24.1420 H   0  0  0  0  0  0
  -20.5691  -26.2270   23.3597 H   0  0  0  0  0  0
  -21.6646  -26.7438   22.1191 H   0  0  0  0  0  0
  -19.6922  -25.6268   21.1252 H   0  0  0  0  0  0
  -19.6707  -27.3154   20.6732 H   0  0  0  0  0  0
  -17.4216  -26.6675   21.3995 H   0  0  0  0  0  0
  -18.0313  -26.0036   22.8984 H   0  0  0  0  0  0
  -19.7947  -30.7280   24.2190 H   0  0  0  0  0  0
  -17.5025  -31.6268   24.5123 H   0  0  0  0  0  0
  -15.5350  -30.2953   23.7688 H   0  0  0  0  0  0
  -15.8667  -28.0785   22.7099 H   0  0  0  0  0  0
  -24.5833  -30.7167   25.7802 H   0  0  0  0  0  0
  -24.9014  -32.2914   26.4982 H   0  0  0  0  0  0
  -25.8046  -30.8821   27.0199 H   0  0  0  0  0  0
  -26.2904  -29.6748   24.1215 H   0  0  0  0  0  0
  -27.3981  -29.7245   25.4730 H   0  0  0  0  0  0
  -27.8796  -30.4258   23.9463 H   0  0  0  0  0  0
  -27.2633  -33.3603   26.2099 H   0  0  0  0  0  0
  -28.3860  -32.6884   25.0361 H   0  0  0  0  0  0
  -28.0692  -31.8435   26.5437 H   0  0  0  0  0  0
  -28.2582  -38.0118   24.7491 H   0  0  0  0  0  0
  -28.1086  -36.2642   24.6276 H   0  0  0  0  0  0
  -27.2293  -37.1452   25.8852 H   0  0  0  0  0  0
  -20.9345  -29.8737   21.6908 H   0  0  0  0  0  0
  -26.0169  -38.2841   24.1369 H   0  0  0  0  0  0
  -32.0245  -17.3115   19.9930 H   0  0  0  0  0  0
  -32.1314  -19.7425   19.7535 H   0  0  0  0  0  0
  -28.0217  -20.0668   20.9395 H   0  0  0  0  0  0
  -29.8295  -24.2336   21.1487 H   0  0  0  0  0  0
  -30.1500  -24.2712   19.4382 H   0  0  0  0  0  0
  -27.3752  -24.7272   20.6478 H   0  0  0  0  0  0
  -27.7927  -24.8500   18.9569 H   0  0  0  0  0  0
  -28.5610  -22.2656   19.1441 H   0  0  0  0  0  0
  -28.3561  -22.2270   20.8776 H   0  0  0  0  0  0
  -28.9311  -15.4452   21.1312 H   0  0  0  0  0  0
  1 25  1  0  0  0
  1 30  2  0  0  0
  1 81  1  0  0  0
  2  3  1  0  0  0
  2 25  1  0  0  0
  2 86  1  0  0  0
  2 87  1  0  0  0
  3  4  1  0  0  0
  3 88  1  0  0  0
  3 89  1  0  0  0
  4  5  1  0  0  0
  4 90  1  0  0  0
  4 91  1  0  0  0
  5  6  1  0  0  0
  5 26  1  0  0  0
  5 92  1  0  0  0
  6 25  1  0  0  0
  6 93  1  0  0  0
  6 94  1  0  0  0
  7  8  2  0  0  0
  7 26  1  0  0  0
  7 29  1  0  0  0
  8  9  1  0  0  0
  8 22  1  0  0  0
  9 10  1  0  0  0
  9 27  2  0  0  0
 10 11  2  0  0  0
 10 15  1  0  0  0
 11 12  1  0  0  0
 11 95  1  0  0  0
 12 13  2  0  0  0
 12 96  1  0  0  0
 13 14  1  0  0  0
 13 31  1  0  0  0
 14 15  2  0  0  0
 14 97  1  0  0  0
 15 98  1  0  0  0
 16 17  2  0  0  0
 16 21  1  0  0  0
 16 31  1  0  0  0
 17 18  1  0  0  0
 17 99  1  0  0  0
 18 19  2  0  0  0
 18100  1  0  0  0
 19 20  1  0  0  0
 19 24  1  0  0  0
 20 21  2  0  0  0
 20101  1  0  0  0
 21 23  1  0  0  0
 22 28  1  0  0  0
 22 32  2  0  0  0
 26 27  1  0  0  0
 28102  1  0  0  0
 28103  1  0  0  0
 29104  1  0  0  0
 29105  1  0  0  0
 33 34  1  0  0  0
 33 66  1  0  0  0
 33 70  2  0  0  0
 34 36  1  0  0  0
 34 59  1  0  0  0
 34106  1  0  0  0
 35 44  2  0  0  0
 35 45  1  0  0  0
 35 68  1  0  0  0
 36 56  1  0  0  0
 36107  1  0  0  0
 37 39  1  0  0  0
 37 47  1  0  0  0
 37 66  1  0  0  0
 37108  1  0  0  0
 38 43  2  0  0  0
 38 46  1  0  0  0
 38 47  1  0  0  0
 39 64  1  0  0  0
 39 67  2  0  0  0
 40 52  1  0  0  0
 40 53  2  0  0  0
 40 58  1  0  0  0
 41109  1  0  0  0
 41110  1  0  0  0
 41111  1  0  0  0
 41 48  1  0  0  0
 42 43  1  0  0  0
 42 66  1  0  0  0
 42112  1  0  0  0
 42113  1  0  0  0
 43 44  1  0  0  0
 44114  1  0  0  0
 45 46  2  0  0  0
 45115  1  0  0  0
 46116  1  0  0  0
 47117  1  0  0  0
 47118  1  0  0  0
 48 56  1  0  0  0
 48 65  1  0  0  0
 48119  1  0  0  0
 49 50  1  0  0  0
 49 53  1  0  0  0
 49 64  1  0  0  0
 49120  1  0  0  0
 50 51  1  0  0  0
 50121  1  0  0  0
 50122  1  0  0  0
 51 52  1  0  0  0
 51123  1  0  0  0
 51124  1  0  0  0
 52125  1  0  0  0
 52126  1  0  0  0
 53 54  1  0  0  0
 54 55  2  0  0  0
 54127  1  0  0  0
 55 57  1  0  0  0
 55128  1  0  0  0
 56 69  2  0  0  0
 57 58  2  0  0  0
 57129  1  0  0  0
 58130  1  0  0  0
 59 60  1  0  0  0
 59 61  1  0  0  0
 59 62  1  0  0  0
 60131  1  0  0  0
 60132  1  0  0  0
 60133  1  0  0  0
 61134  1  0  0  0
 61135  1  0  0  0
 61136  1  0  0  0
 62137  1  0  0  0
 62138  1  0  0  0
 62139  1  0  0  0
 63 65  1  0  0  0
 63140  1  0  0  0
 63141  1  0  0  0
 63142  1  0  0  0
 64143  1  0  0  0
 65144  1  0  0  0
 68 78  1  0  0  0
 71 72  2  0  0  0
 71 75  1  0  0  0
 71145  1  0  0  0
 72 76  1  0  0  0
 72146  1  0  0  0
 73 74  1  0  0  0
 73 76  2  0  0  0
 73147  1  0  0  0
 74 75  2  0  0  0
 74 80  1  0  0  0
 75 81  1  0  0  0
 76 82  1  0  0  0
 77 78  1  0  0  0
 77 79  1  0  0  0
 77148  1  0  0  0
 77149  1  0  0  0
 78150  1  0  0  0
 78151  1  0  0  0
 79 82  1  0  0  0
 79152  1  0  0  0
 79153  1  0  0  0
 80 83  1  0  0  0
 80 84  1  0  0  0
 80 85  1  0  0  0
 81154  1  0  0  0
M  ISO  4   1 100  68 101  78 101  81 100
M  END
> <chiral flag>
0

> <version>
0

> <s_m_source_file>
/data/baiqing/PycharmProjects/Reinvent-master-3.2/result/LINK_invent/BTK/process_docking_weight1_custom_sum_contain_oxygen_bond_distance_aromatic_linkinvent_7_9_3/rearranged_h_0002.sdf

> <i_m_source_file_index>
13

> <r_mmod_Potential_Energy-OPLS-2005>
96.0107574462891

> <r_mmod_Stretch_Energy-OPLS-2005>
85.8661727905273

> <r_mmod_Bend_Energy-OPLS-2005>
153.991775512695

> <r_mmod_Torsional_Energy-OPLS-2005>
208.120178222656

> <r_mmod_Improper_Torsional_Energy-OPLS-2005>
4.05649709701538

> <r_mmod_Van_der_Waal_Energy-OPLS-2005>
154.947708129883

> <r_mmod_Electrostatic_Energy-OPLS-2005>
-364.410430908203

> <r_mmod_Solvation_Energy-OPLS-2005>
-197.755599975586

> <b_mmod_Minimization_Converged-OPLS-2005>
0

> <r_mmod_RMS_Derivative-OPLS-2005>
2.27012276649475

$$$$
13
                    3D
 Structure written by MMmdl.
158165  0  0  1  0            999 V2000
  -30.6383  -15.1765   20.3696 C   0  0  0  0  0  0
  -30.3851  -12.7630   19.5110 C   0  0  0  0  0  0
  -29.5056  -12.5651   18.2617 C   0  0  0  0  0  0
  -28.0530  -12.3247   18.6921 C   0  0  0  0  0  0
  -27.5999  -13.2995   19.8135 C   0  0  2  0  0  0
  -28.6460  -13.5164   20.9362 C   0  0  0  0  0  0
  -25.2341  -13.8299   20.5817 C   0  0  0  0  0  0
  -24.1716  -13.0454   20.9287 C   0  0  0  0  0  0
  -24.6396  -11.6951   20.8785 C   0  0  0  0  0  0
  -23.9112  -10.4299   21.0396 C   0  0  0  0  0  0
  -24.3659   -9.4203   21.9172 C   0  0  0  0  0  0
  -23.6312   -8.2245   22.0754 C   0  0  0  0  0  0
  -22.4299   -8.0292   21.3549 C   0  0  0  0  0  0
  -21.9931   -9.0259   20.4657 C   0  0  0  0  0  0
  -22.7276  -10.2133   20.3049 C   0  0  0  0  0  0
  -21.6861   -6.0727   22.5263 C   0  0  0  0  0  0
  -21.4022   -6.5624   23.8197 C   0  0  0  0  0  0
  -21.3676   -5.6779   24.9158 C   0  0  0  0  0  0
  -21.6062   -4.3049   24.7215 C   0  0  0  0  0  0
  -21.8806   -3.8124   23.4331 C   0  0  0  0  0  0
  -21.9187   -4.6951   22.3385 C   0  0  0  0  0  0
  -22.7724  -13.5195   21.1863 C   0  0  0  0  0  0
  -22.1660   -4.2126   21.0970 F   0  0  0  0  0  0
  -21.5639   -3.4531   25.7732 F   0  0  0  0  0  0
  -29.8775  -13.9756   20.2724 N   0  0  0  0  0  0
  -26.2786  -12.9632   20.3272 N   0  0  0  0  0  0
  -25.9356  -11.6703   20.5754 N   0  0  0  0  0  0
  -22.0384  -12.8212   22.0442 N   0  0  0  0  0  0
  -25.3916  -15.2048   20.4321 N   0  0  0  0  0  0
  -31.8327  -14.8871   20.2142 O   0  0  0  0  0  0
  -21.6664   -6.8875   21.4228 O   0  0  0  0  0  0
  -22.3402  -14.5464   20.6650 O   0  0  0  0  0  0
  -24.6585  -31.8275   23.1749 C   0  0  0  0  0  0
  -25.9287  -32.4601   23.8196 C   0  0  1  0  0  0
  -27.1981  -26.9709   20.1773 C   0  0  0  0  0  0
  -25.5978  -33.8411   24.2105 N   0  0  0  0  0  0
  -23.4694  -30.4435   21.5236 C   0  0  2  0  0  0
  -24.9169  -28.8408   20.1099 C   0  0  0  0  0  0
  -22.7629  -29.4459   22.4796 C   0  0  0  0  0  0
  -18.0307  -28.1390   22.8460 C   0  0  0  0  0  0
  -24.1498  -36.7209   23.2646 C   0  0  0  0  0  0
  -26.0356  -30.6494   21.3957 C   0  0  0  0  0  0
  -26.1010  -29.2450   20.7404 C   0  0  0  0  0  0
  -27.2402  -28.3291   20.7515 C   0  0  0  0  0  0
  -25.9872  -26.7076   19.5034 C   0  0  0  0  0  0
  -24.8836  -27.5928   19.4697 C   0  0  0  0  0  0
  -23.7035  -29.7639   20.1477 C   0  0  0  0  0  0
  -25.4126  -36.2959   24.0306 C   0  0  1  0  0  0
  -20.5926  -28.3728   23.1193 C   0  0  2  0  0  0
  -20.6779  -26.9414   22.5404 C   0  0  0  0  0  0
  -19.5763  -26.6361   21.5201 C   0  0  0  0  0  0
  -18.1942  -26.7919   22.1616 C   0  0  0  0  0  0
  -19.1568  -28.8881   23.2807 C   0  0  0  0  0  0
  -18.9483  -30.1468   23.8848 C   0  0  0  0  0  0
  -17.6481  -30.6585   24.0538 C   0  0  0  0  0  0
  -25.9094  -34.9349   23.5013 C   0  0  0  0  0  0
  -16.5368  -29.9076   23.6337 C   0  0  0  0  0  0
  -16.7287  -28.6493   23.0361 C   0  0  0  0  0  0
  -26.4555  -31.6526   25.0708 C   0  0  0  0  0  0
  -25.3714  -31.3756   26.1389 C   0  0  0  0  0  0
  -27.0441  -30.2901   24.6404 C   0  0  0  0  0  0
  -27.6061  -32.4315   25.7517 C   0  0  0  0  0  0
  -27.5561  -37.1752   24.8452 C   0  0  0  0  0  0
  -21.4312  -29.3029   22.3552 N   0  0  0  0  0  0
  -26.4257  -37.3704   23.9413 N   0  0  0  0  0  0
  -24.7428  -30.9987   22.0861 N   0  0  0  0  0  0
  -23.4200  -28.8012   23.2998 O   0  0  0  0  0  0
  -28.1980  -25.8844   20.2503 O   0  0  0  0  0  0
  -26.5703  -34.8870   22.4606 O   0  0  0  0  0  0
  -23.5670  -32.1234   23.6879 O   0  0  0  0  0  0
  -28.4659  -21.0795   20.2517 C   0  0  0  0  0  0
  -29.4771  -19.6281   20.3778 C   0  0  0  0  0  0
  -28.8613  -22.8146   20.3193 C   0  0  0  0  0  0
  -31.7714  -17.6582   22.3293 C   0  0  0  0  0  0
  -29.2117  -17.8492   20.2931 C   0  0  0  0  0  0
  -31.5534  -17.4339   20.8237 C   0  0  0  0  0  0
  -33.0056  -18.5392   22.6176 C   0  0  0  0  0  0
  -27.8845  -24.2891   20.1515 C   0  0  0  0  0  0
  -30.3187  -16.6413   20.5296 N   0  0  0  0  0  0
  -33.3239  -18.5967   24.0537 N   0  3  0  0  0  0
  -31.4231  -12.8365   19.1863 H   0  0  0  0  0  0
  -30.3602  -11.8694   20.1365 H   0  0  0  0  0  0
  -29.8718  -11.7272   17.6663 H   0  0  0  0  0  0
  -29.5668  -13.4482   17.6230 H   0  0  0  0  0  0
  -27.9831  -11.2947   19.0459 H   0  0  0  0  0  0
  -27.3851  -12.3960   17.8316 H   0  0  0  0  0  0
  -27.4987  -14.2639   19.3117 H   0  0  0  0  0  0
  -28.8044  -12.6119   21.5249 H   0  0  0  0  0  0
  -28.3030  -14.2849   21.6336 H   0  0  0  0  0  0
  -25.2811   -9.5677   22.4729 H   0  0  0  0  0  0
  -24.0016   -7.4645   22.7491 H   0  0  0  0  0  0
  -21.0838   -8.8788   19.8981 H   0  0  0  0  0  0
  -22.3730  -10.9664   19.6151 H   0  0  0  0  0  0
  -21.2022   -7.6139   23.9689 H   0  0  0  0  0  0
  -21.1525   -6.0525   25.9069 H   0  0  0  0  0  0
  -22.0578   -2.7588   23.2833 H   0  0  0  0  0  0
  -22.4045  -11.9954   22.4931 H   0  0  0  0  0  0
  -21.0966  -13.1184   22.2542 H   0  0  0  0  0  0
  -24.6192  -15.8500   20.5622 H   0  0  0  0  0  0
  -26.2440  -15.6611   20.1298 H   0  0  0  0  0  0
  -26.7358  -32.5158   23.0913 H   0  0  0  0  0  0
  -25.0066  -33.9508   25.0213 H   0  0  0  0  0  0
  -22.7800  -31.2740   21.3601 H   0  0  0  0  0  0
  -23.3764  -35.9533   23.3260 H   0  0  0  0  0  0
  -24.3583  -36.8904   22.2068 H   0  0  0  0  0  0
  -23.7257  -37.6384   23.6735 H   0  0  0  0  0  0
  -26.2036  -31.3924   20.6155 H   0  0  0  0  0  0
  -26.9008  -30.7087   22.0442 H   0  0  0  0  0  0
  -28.1380  -28.6291   21.2730 H   0  0  0  0  0  0
  -25.8572  -25.7512   19.0190 H   0  0  0  0  0  0
  -23.9832  -27.2774   18.9584 H   0  0  0  0  0  0
  -23.8538  -30.5350   19.3923 H   0  0  0  0  0  0
  -22.8149  -29.2174   19.8282 H   0  0  0  0  0  0
  -25.1321  -36.1748   25.0800 H   0  0  0  0  0  0
  -21.0016  -28.3331   24.1311 H   0  0  0  0  0  0
  -20.5621  -26.2352   23.3639 H   0  0  0  0  0  0
  -21.6645  -26.7367   22.1234 H   0  0  0  0  0  0
  -19.6915  -25.6257   21.1261 H   0  0  0  0  0  0
  -19.6702  -27.3136   20.6701 H   0  0  0  0  0  0
  -17.4205  -26.6641   21.4023 H   0  0  0  0  0  0
  -18.0348  -26.0075   22.9035 H   0  0  0  0  0  0
  -19.7958  -30.7278   24.2208 H   0  0  0  0  0  0
  -17.5035  -31.6266   24.5136 H   0  0  0  0  0  0
  -15.5360  -30.2955   23.7692 H   0  0  0  0  0  0
  -15.8691  -28.0786   22.7112 H   0  0  0  0  0  0
  -24.5900  -30.7098   25.7704 H   0  0  0  0  0  0
  -24.8907  -32.2955   26.4729 H   0  0  0  0  0  0
  -25.7984  -30.8985   27.0221 H   0  0  0  0  0  0
  -26.3097  -29.6593   24.1393 H   0  0  0  0  0  0
  -27.3959  -29.7238   25.5035 H   0  0  0  0  0  0
  -27.9037  -30.4073   23.9806 H   0  0  0  0  0  0
  -27.2635  -33.3644   26.1999 H   0  0  0  0  0  0
  -28.3937  -32.6829   25.0403 H   0  0  0  0  0  0
  -28.0660  -31.8507   26.5523 H   0  0  0  0  0  0
  -28.2531  -38.0093   24.7524 H   0  0  0  0  0  0
  -28.1106  -36.2616   24.6238 H   0  0  0  0  0  0
  -27.2286  -37.1339   25.8857 H   0  0  0  0  0  0
  -20.9549  -29.8766   21.6744 H   0  0  0  0  0  0
  -26.0099  -38.2749   24.1461 H   0  0  0  0  0  0
  -27.7028  -20.9440   21.0176 H   0  0  0  0  0  0
  -27.9195  -20.9520   19.3170 H   0  0  0  0  0  0
  -30.0103  -19.7811   21.3144 H   0  0  0  0  0  0
  -30.2145  -19.8275   19.6009 H   0  0  0  0  0  0
  -29.6567  -22.9389   19.5858 H   0  0  0  0  0  0
  -29.3664  -22.9402   21.2762 H   0  0  0  0  0  0
  -31.8949  -16.6867   22.8094 H   0  0  0  0  0  0
  -30.8859  -18.1138   22.7725 H   0  0  0  0  0  0
  -28.7917  -17.6495   19.3061 H   0  0  0  0  0  0
  -28.3979  -17.6197   20.9821 H   0  0  0  0  0  0
  -32.4735  -17.0179   20.4128 H   0  0  0  0  0  0
  -31.5814  -18.3763   20.2913 H   0  0  0  0  0  0
  -32.8482  -19.5532   22.2419 H   0  0  0  0  0  0
  -33.8776  -18.1462   22.0936 H   0  0  0  0  0  0
  -27.0688  -24.1547   20.8597 H   0  0  0  0  0  0
  -27.4118  -24.1743   19.1771 H   0  0  0  0  0  0
  -32.6038  -19.0752   24.5654 H   0  0  0  0  0  0
  -34.1882  -19.0895   24.1966 H   0  0  0  0  0  0
  -33.4298  -17.6719   24.4310 H   0  0  0  0  0  0
  1 25  1  0  0  0
  1 30  2  0  0  0
  1 79  1  0  0  0
  2  3  1  0  0  0
  2 25  1  0  0  0
  2 81  1  0  0  0
  2 82  1  0  0  0
  3  4  1  0  0  0
  3 83  1  0  0  0
  3 84  1  0  0  0
  4  5  1  0  0  0
  4 85  1  0  0  0
  4 86  1  0  0  0
  5  6  1  0  0  0
  5 26  1  0  0  0
  5 87  1  0  0  0
  6 25  1  0  0  0
  6 88  1  0  0  0
  6 89  1  0  0  0
  7  8  2  0  0  0
  7 26  1  0  0  0
  7 29  1  0  0  0
  8  9  1  0  0  0
  8 22  1  0  0  0
  9 10  1  0  0  0
  9 27  2  0  0  0
 10 11  2  0  0  0
 10 15  1  0  0  0
 11 12  1  0  0  0
 11 90  1  0  0  0
 12 13  2  0  0  0
 12 91  1  0  0  0
 13 14  1  0  0  0
 13 31  1  0  0  0
 14 15  2  0  0  0
 14 92  1  0  0  0
 15 93  1  0  0  0
 16 17  2  0  0  0
 16 21  1  0  0  0
 16 31  1  0  0  0
 17 18  1  0  0  0
 17 94  1  0  0  0
 18 19  2  0  0  0
 18 95  1  0  0  0
 19 20  1  0  0  0
 19 24  1  0  0  0
 20 21  2  0  0  0
 20 96  1  0  0  0
 21 23  1  0  0  0
 22 28  1  0  0  0
 22 32  2  0  0  0
 26 27  1  0  0  0
 28 97  1  0  0  0
 28 98  1  0  0  0
 29 99  1  0  0  0
 29100  1  0  0  0
 33 34  1  0  0  0
 33 66  1  0  0  0
 33 70  2  0  0  0
 34 36  1  0  0  0
 34 59  1  0  0  0
 34101  1  0  0  0
 35 44  2  0  0  0
 35 45  1  0  0  0
 35 68  1  0  0  0
 36 56  1  0  0  0
 36102  1  0  0  0
 37 39  1  0  0  0
 37 47  1  0  0  0
 37 66  1  0  0  0
 37103  1  0  0  0
 38 43  2  0  0  0
 38 46  1  0  0  0
 38 47  1  0  0  0
 39 64  1  0  0  0
 39 67  2  0  0  0
 40 52  1  0  0  0
 40 53  2  0  0  0
 40 58  1  0  0  0
 41104  1  0  0  0
 41105  1  0  0  0
 41106  1  0  0  0
 41 48  1  0  0  0
 42 43  1  0  0  0
 42 66  1  0  0  0
 42107  1  0  0  0
 42108  1  0  0  0
 43 44  1  0  0  0
 44109  1  0  0  0
 45 46  2  0  0  0
 45110  1  0  0  0
 46111  1  0  0  0
 47112  1  0  0  0
 47113  1  0  0  0
 48 56  1  0  0  0
 48 65  1  0  0  0
 48114  1  0  0  0
 49 50  1  0  0  0
 49 53  1  0  0  0
 49 64  1  0  0  0
 49115  1  0  0  0
 50 51  1  0  0  0
 50116  1  0  0  0
 50117  1  0  0  0
 51 52  1  0  0  0
 51118  1  0  0  0
 51119  1  0  0  0
 52120  1  0  0  0
 52121  1  0  0  0
 53 54  1  0  0  0
 54 55  2  0  0  0
 54122  1  0  0  0
 55 57  1  0  0  0
 55123  1  0  0  0
 56 69  2  0  0  0
 57 58  2  0  0  0
 57124  1  0  0  0
 58125  1  0  0  0
 59 60  1  0  0  0
 59 61  1  0  0  0
 59 62  1  0  0  0
 60126  1  0  0  0
 60127  1  0  0  0
 60128  1  0  0  0
 61129  1  0  0  0
 61130  1  0  0  0
 61131  1  0  0  0
 62132  1  0  0  0
 62133  1  0  0  0
 62134  1  0  0  0
 63 65  1  0  0  0
 63135  1  0  0  0
 63136  1  0  0  0
 63137  1  0  0  0
 64138  1  0  0  0
 65139  1  0  0  0
 68 78  1  0  0  0
 71 72  1  0  0  0
 71 73  1  0  0  0
 71140  1  0  0  0
 71141  1  0  0  0
 72 75  1  0  0  0
 72142  1  0  0  0
 72143  1  0  0  0
 73 78  1  0  0  0
 73144  1  0  0  0
 73145  1  0  0  0
 74 76  1  0  0  0
 74 77  1  0  0  0
 74146  1  0  0  0
 74147  1  0  0  0
 75 79  1  0  0  0
 75148  1  0  0  0
 75149  1  0  0  0
 76 79  1  0  0  0
 76150  1  0  0  0
 76151  1  0  0  0
 77 80  1  0  0  0
 77152  1  0  0  0
 77153  1  0  0  0
 78154  1  0  0  0
 78155  1  0  0  0
 80156  1  0  0  0
 80157  1  0  0  0
 80158  1  0  0  0
M  CHG  1  80   1
M  ISO  4   1 100  68 101  78 101  79 100
M  END
> <chiral flag>
0

> <version>
0

> <s_m_source_file>
/data/baiqing/PycharmProjects/Reinvent-master-3.2/result/LINK_invent/BTK/process_docking_weight1_custom_sum_contain_oxygen_bond_distance_aromatic_linkinvent_7_9_3/rearranged_h_0002.sdf

> <i_m_source_file_index>
14

> <r_mmod_Potential_Energy-OPLS-2005>
1192.04638671875

> <r_mmod_Stretch_Energy-OPLS-2005>
580.14013671875

> <r_mmod_Bend_Energy-OPLS-2005>
507.155578613281

> <r_mmod_Torsional_Energy-OPLS-2005>
274.621215820312

> <r_mmod_Improper_Torsional_Energy-OPLS-2005>
2.7159411907196

> <r_mmod_Van_der_Waal_Energy-OPLS-2005>
142.430191040039

> <r_mmod_Electrostatic_Energy-OPLS-2005>
-208.720779418945

> <r_mmod_Solvation_Energy-OPLS-2005>
-490.100402832031

> <b_mmod_Minimization_Converged-OPLS-2005>
0

> <r_mmod_RMS_Derivative-OPLS-2005>
3.41973900794983

$$$$
14
                    3D
 Structure written by MMmdl.
144152  0  0  1  0            999 V2000
  -30.2491  -15.7690   20.3185 C   0  0  0  0  0  0
  -30.4165  -13.1824   19.5389 C   0  0  0  0  0  0
  -29.5561  -12.6883   18.3366 C   0  0  0  0  0  0
  -28.1400  -12.3025   18.7870 C   0  0  0  0  0  0
  -27.5914  -13.3204   19.8100 C   0  0  2  0  0  0
  -28.5996  -13.7101   20.9197 C   0  0  0  0  0  0
  -25.2302  -13.8299   20.5812 C   0  0  0  0  0  0
  -24.1705  -13.0432   20.9298 C   0  0  0  0  0  0
  -24.6425  -11.6949   20.8764 C   0  0  0  0  0  0
  -23.9129  -10.4292   21.0393 C   0  0  0  0  0  0
  -24.3660   -9.4205   21.9178 C   0  0  0  0  0  0
  -23.6316   -8.2248   22.0754 C   0  0  0  0  0  0
  -22.4296   -8.0290   21.3545 C   0  0  0  0  0  0
  -21.9945   -9.0266   20.4644 C   0  0  0  0  0  0
  -22.7293  -10.2135   20.3047 C   0  0  0  0  0  0
  -21.6860   -6.0742   22.5279 C   0  0  0  0  0  0
  -21.4020   -6.5644   23.8213 C   0  0  0  0  0  0
  -21.3660   -5.6795   24.9174 C   0  0  0  0  0  0
  -21.6043   -4.3057   24.7223 C   0  0  0  0  0  0
  -21.8818   -3.8151   23.4344 C   0  0  0  0  0  0
  -21.9195   -4.6969   22.3401 C   0  0  0  0  0  0
  -22.7713  -13.5153   21.1928 C   0  0  0  0  0  0
  -22.1662   -4.2154   21.0979 F   0  0  0  0  0  0
  -21.5627   -3.4540   25.7735 F   0  0  0  0  0  0
  -29.7500  -14.3765   20.2532 N   0  0  0  0  0  0
  -26.2766  -12.9654   20.3247 N   0  0  0  0  0  0
  -25.9376  -11.6711   20.5692 N   0  0  0  0  0  0
  -22.0381  -12.8128   22.0480 N   0  0  0  0  0  0
  -25.3868  -15.2043   20.4253 N   0  0  0  0  0  0
  -31.4896  -15.6885   20.1870 O   0  0  0  0  0  0
  -21.6650   -6.8891   21.4243 O   0  0  0  0  0  0
  -22.3385  -14.5450   20.6762 O   0  0  0  0  0  0
  -24.6936  -31.7881   23.1428 C   0  0  0  0  0  0
  -25.9467  -32.4408   23.8014 C   0  0  1  0  0  0
  -27.2314  -26.6000   20.2259 C   0  0  0  0  0  0
  -25.6003  -33.8239   24.1889 N   0  0  0  0  0  0
  -23.5248  -30.3852   21.4992 C   0  0  2  0  0  0
  -24.9837  -28.7043   20.1217 C   0  0  0  0  0  0
  -22.7812  -29.4252   22.4682 C   0  0  0  0  0  0
  -18.0345  -28.1427   22.8448 C   0  0  0  0  0  0
  -24.1496  -36.7128   23.2656 C   0  0  0  0  0  0
  -26.1099  -30.4873   21.4229 C   0  0  0  0  0  0
  -26.1749  -29.0406   20.7752 C   0  0  0  0  0  0
  -27.2793  -28.0201   20.7903 C   0  0  0  0  0  0
  -26.0052  -26.4991   19.5134 C   0  0  0  0  0  0
  -24.9440  -27.4606   19.4663 C   0  0  0  0  0  0
  -23.7849  -29.6724   20.1393 C   0  0  0  0  0  0
  -25.4150  -36.2860   24.0273 C   0  0  1  0  0  0
  -20.5986  -28.3792   23.1121 C   0  0  2  0  0  0
  -20.6806  -26.9441   22.5405 C   0  0  0  0  0  0
  -19.5784  -26.6367   21.5217 C   0  0  0  0  0  0
  -18.1967  -26.7952   22.1618 C   0  0  0  0  0  0
  -19.1614  -28.8936   23.2762 C   0  0  0  0  0  0
  -18.9518  -30.1517   23.8813 C   0  0  0  0  0  0
  -17.6507  -30.6607   24.0547 C   0  0  0  0  0  0
  -25.9137  -34.9253   23.4926 C   0  0  0  0  0  0
  -16.5395  -29.9086   23.6353 C   0  0  0  0  0  0
  -16.7324  -28.6509   23.0369 C   0  0  0  0  0  0
  -26.4611  -31.6488   25.0681 C   0  0  0  0  0  0
  -25.3648  -31.3836   26.1276 C   0  0  0  0  0  0
  -27.0562  -30.2813   24.6660 C   0  0  0  0  0  0
  -27.6036  -32.4377   25.7508 C   0  0  0  0  0  0
  -27.5560  -37.1721   24.8466 C   0  0  0  0  0  0
  -21.4449  -29.3019   22.3429 N   0  0  0  0  0  0
  -26.4267  -37.3633   23.9406 N   0  0  0  0  0  0
  -24.8007  -30.9224   22.0738 N   0  0  0  0  0  0
  -23.4206  -28.7870   23.3076 O   0  0  0  0  0  0
  -28.1813  -25.3340   20.2925 O   0  0  0  0  0  0
  -26.5793  -34.8851   22.4554 O   0  0  0  0  0  0
  -23.5932  -32.1003   23.6316 O   0  0  0  0  0  0
  -31.2233  -20.8510   20.4443 C   0  0  0  0  0  0
  -30.3278  -21.9742   20.3863 C   0  0  0  0  0  0
  -30.8973  -19.4510   20.4170 C   0  0  0  0  0  0
  -28.6498  -20.2656   20.2683 C   0  0  0  0  0  0
  -28.9175  -21.8849   20.2883 C   0  0  0  0  0  0
  -29.5860  -18.9200   20.3295 C   0  0  0  0  0  0
  -27.9553  -23.5403   20.1946 C   0  0  0  0  0  0
  -29.4678  -17.1584   20.3338 N   0  0  0  0  0  0
  -31.3972  -13.4683   19.1574 H   0  0  0  0  0  0
  -30.6150  -12.3654   20.2348 H   0  0  0  0  0  0
  -30.0382  -11.8449   17.8404 H   0  0  0  0  0  0
  -29.4933  -13.4857   17.5947 H   0  0  0  0  0  0
  -28.1920  -11.3161   19.2495 H   0  0  0  0  0  0
  -27.4721  -12.2092   17.9298 H   0  0  0  0  0  0
  -27.4353  -14.2232   19.2177 H   0  0  0  0  0  0
  -28.8922  -12.8505   21.5245 H   0  0  0  0  0  0
  -28.1402  -14.4228   21.6061 H   0  0  0  0  0  0
  -25.2799   -9.5677   22.4764 H   0  0  0  0  0  0
  -24.0015   -7.4641   22.7480 H   0  0  0  0  0  0
  -21.0874   -8.8796   19.8951 H   0  0  0  0  0  0
  -22.3752  -10.9677   19.6160 H   0  0  0  0  0  0
  -21.2015   -7.6152   23.9718 H   0  0  0  0  0  0
  -21.1481   -6.0525   25.9077 H   0  0  0  0  0  0
  -22.0595   -2.7612   23.2843 H   0  0  0  0  0  0
  -22.4028  -11.9810   22.4881 H   0  0  0  0  0  0
  -21.0984  -13.1116   22.2673 H   0  0  0  0  0  0
  -24.6121  -15.8494   20.5375 H   0  0  0  0  0  0
  -26.2233  -15.6482   20.0710 H   0  0  0  0  0  0
  -26.7560  -32.4853   23.0732 H   0  0  0  0  0  0
  -25.0040  -33.9259   24.9969 H   0  0  0  0  0  0
  -22.8560  -31.2251   21.3001 H   0  0  0  0  0  0
  -23.3778  -35.9436   23.3259 H   0  0  0  0  0  0
  -24.3559  -36.8857   22.2082 H   0  0  0  0  0  0
  -23.7237  -37.6279   23.6781 H   0  0  0  0  0  0
  -26.3235  -31.2052   20.6299 H   0  0  0  0  0  0
  -26.9566  -30.5591   22.0929 H   0  0  0  0  0  0
  -28.1740  -28.2884   21.3341 H   0  0  0  0  0  0
  -25.8210  -25.5639   19.0038 H   0  0  0  0  0  0
  -24.0480  -27.1923   18.9234 H   0  0  0  0  0  0
  -23.9691  -30.4280   19.3747 H   0  0  0  0  0  0
  -22.8876  -29.1444   19.8122 H   0  0  0  0  0  0
  -25.1366  -36.1607   25.0763 H   0  0  0  0  0  0
  -21.0064  -28.3426   24.1249 H   0  0  0  0  0  0
  -20.5660  -26.2419   23.3677 H   0  0  0  0  0  0
  -21.6666  -26.7367   22.1230 H   0  0  0  0  0  0
  -19.6938  -25.6255   21.1303 H   0  0  0  0  0  0
  -19.6730  -27.3129   20.6710 H   0  0  0  0  0  0
  -17.4236  -26.6693   21.4021 H   0  0  0  0  0  0
  -18.0352  -26.0116   22.9034 H   0  0  0  0  0  0
  -19.7994  -30.7354   24.2146 H   0  0  0  0  0  0
  -17.5057  -31.6278   24.5166 H   0  0  0  0  0  0
  -15.5392  -30.2961   23.7726 H   0  0  0  0  0  0
  -15.8725  -28.0800   22.7132 H   0  0  0  0  0  0
  -24.5864  -30.7155   25.7572 H   0  0  0  0  0  0
  -24.8806  -32.3067   26.4469 H   0  0  0  0  0  0
  -25.7799  -30.9150   27.0207 H   0  0  0  0  0  0
  -26.3300  -29.6394   24.1665 H   0  0  0  0  0  0
  -27.3958  -29.7305   25.5442 H   0  0  0  0  0  0
  -27.9292  -30.3914   24.0226 H   0  0  0  0  0  0
  -27.2557  -33.3759   26.1844 H   0  0  0  0  0  0
  -28.3970  -32.6810   25.0429 H   0  0  0  0  0  0
  -28.0570  -31.8672   26.5625 H   0  0  0  0  0  0
  -28.2540  -38.0050   24.7512 H   0  0  0  0  0  0
  -28.1093  -36.2570   24.6297 H   0  0  0  0  0  0
  -27.2273  -37.1358   25.8868 H   0  0  0  0  0  0
  -20.9779  -29.8658   21.6465 H   0  0  0  0  0  0
  -26.0084  -38.2675   24.1421 H   0  0  0  0  0  0
  -32.2755  -21.0887   20.5173 H   0  0  0  0  0  0
  -30.7626  -22.9641   20.4154 H   0  0  0  0  0  0
  -31.7198  -18.7513   20.4730 H   0  0  0  0  0  0
  -27.5975  -20.0310   20.1940 H   0  0  0  0  0  0
  -27.1705  -23.3778   20.9334 H   0  0  0  0  0  0
  -27.4334  -23.4350   19.2435 H   0  0  0  0  0  0
  -28.4908  -16.9030   20.3508 H   0  0  0  0  0  0
  1 25  1  0  0  0
  1 30  2  0  0  0
  1 78  1  0  0  0
  2  3  1  0  0  0
  2 25  1  0  0  0
  2 79  1  0  0  0
  2 80  1  0  0  0
  3  4  1  0  0  0
  3 81  1  0  0  0
  3 82  1  0  0  0
  4  5  1  0  0  0
  4 83  1  0  0  0
  4 84  1  0  0  0
  5  6  1  0  0  0
  5 26  1  0  0  0
  5 85  1  0  0  0
  6 25  1  0  0  0
  6 86  1  0  0  0
  6 87  1  0  0  0
  7  8  2  0  0  0
  7 26  1  0  0  0
  7 29  1  0  0  0
  8  9  1  0  0  0
  8 22  1  0  0  0
  9 10  1  0  0  0
  9 27  2  0  0  0
 10 11  2  0  0  0
 10 15  1  0  0  0
 11 12  1  0  0  0
 11 88  1  0  0  0
 12 13  2  0  0  0
 12 89  1  0  0  0
 13 14  1  0  0  0
 13 31  1  0  0  0
 14 15  2  0  0  0
 14 90  1  0  0  0
 15 91  1  0  0  0
 16 17  2  0  0  0
 16 21  1  0  0  0
 16 31  1  0  0  0
 17 18  1  0  0  0
 17 92  1  0  0  0
 18 19  2  0  0  0
 18 93  1  0  0  0
 19 20  1  0  0  0
 19 24  1  0  0  0
 20 21  2  0  0  0
 20 94  1  0  0  0
 21 23  1  0  0  0
 22 28  1  0  0  0
 22 32  2  0  0  0
 26 27  1  0  0  0
 28 95  1  0  0  0
 28 96  1  0  0  0
 29 97  1  0  0  0
 29 98  1  0  0  0
 33 34  1  0  0  0
 33 66  1  0  0  0
 33 70  2  0  0  0
 34 36  1  0  0  0
 34 59  1  0  0  0
 34 99  1  0  0  0
 35 44  2  0  0  0
 35 45  1  0  0  0
 35 68  1  0  0  0
 36 56  1  0  0  0
 36100  1  0  0  0
 37 39  1  0  0  0
 37 47  1  0  0  0
 37 66  1  0  0  0
 37101  1  0  0  0
 38 43  2  0  0  0
 38 46  1  0  0  0
 38 47  1  0  0  0
 39 64  1  0  0  0
 39 67  2  0  0  0
 40 52  1  0  0  0
 40 53  2  0  0  0
 40 58  1  0  0  0
 41102  1  0  0  0
 41103  1  0  0  0
 41104  1  0  0  0
 41 48  1  0  0  0
 42 43  1  0  0  0
 42 66  1  0  0  0
 42105  1  0  0  0
 42106  1  0  0  0
 43 44  1  0  0  0
 44107  1  0  0  0
 45 46  2  0  0  0
 45108  1  0  0  0
 46109  1  0  0  0
 47110  1  0  0  0
 47111  1  0  0  0
 48 56  1  0  0  0
 48 65  1  0  0  0
 48112  1  0  0  0
 49 50  1  0  0  0
 49 53  1  0  0  0
 49 64  1  0  0  0
 49113  1  0  0  0
 50 51  1  0  0  0
 50114  1  0  0  0
 50115  1  0  0  0
 51 52  1  0  0  0
 51116  1  0  0  0
 51117  1  0  0  0
 52118  1  0  0  0
 52119  1  0  0  0
 53 54  1  0  0  0
 54 55  2  0  0  0
 54120  1  0  0  0
 55 57  1  0  0  0
 55121  1  0  0  0
 56 69  2  0  0  0
 57 58  2  0  0  0
 57122  1  0  0  0
 58123  1  0  0  0
 59 60  1  0  0  0
 59 61  1  0  0  0
 59 62  1  0  0  0
 60124  1  0  0  0
 60125  1  0  0  0
 60126  1  0  0  0
 61127  1  0  0  0
 61128  1  0  0  0
 61129  1  0  0  0
 62130  1  0  0  0
 62131  1  0  0  0
 62132  1  0  0  0
 63 65  1  0  0  0
 63133  1  0  0  0
 63134  1  0  0  0
 63135  1  0  0  0
 64136  1  0  0  0
 65137  1  0  0  0
 68 77  1  0  0  0
 71 72  2  0  0  0
 71 73  1  0  0  0
 71138  1  0  0  0
 72 75  1  0  0  0
 72139  1  0  0  0
 73 76  2  0  0  0
 73140  1  0  0  0
 74 75  2  0  0  0
 74 76  1  0  0  0
 74141  1  0  0  0
 75 77  1  0  0  0
 76 78  1  0  0  0
 77142  1  0  0  0
 77143  1  0  0  0
 78144  1  0  0  0
M  ISO  4   1 100  68 101  77 101  78 100
M  END
> <chiral flag>
0

> <version>
0

> <s_m_source_file>
/data/baiqing/PycharmProjects/Reinvent-master-3.2/result/LINK_invent/BTK/process_docking_weight1_custom_sum_contain_oxygen_bond_distance_aromatic_linkinvent_7_9_3/rearranged_h_0002.sdf

> <i_m_source_file_index>
15

> <r_mmod_Potential_Energy-OPLS-2005>
2813.380859375

> <r_mmod_Stretch_Energy-OPLS-2005>
1256.92761230469

> <r_mmod_Bend_Energy-OPLS-2005>
641.894226074219

> <r_mmod_Torsional_Energy-OPLS-2005>
222.88850402832

> <r_mmod_Improper_Torsional_Energy-OPLS-2005>
4.12787246704102

> <r_mmod_Van_der_Waal_Energy-OPLS-2005>
126.438247680664

> <r_mmod_Electrostatic_Energy-OPLS-2005>
-346.341064453125

> <r_mmod_Solvation_Energy-OPLS-2005>
-213.760787963867

> <b_mmod_Minimization_Converged-OPLS-2005>
0

> <r_mmod_RMS_Derivative-OPLS-2005>
0.157229289412498

$$$$
15
                    3D
 Structure written by MMmdl.
140147  0  0  1  0            999 V2000
  -30.1611  -16.0041   20.3080 C   0  0  0  0  0  0
  -30.3940  -13.3709   19.5193 C   0  0  0  0  0  0
  -29.5602  -12.7495   18.3505 C   0  0  0  0  0  0
  -28.1679  -12.3098   18.8207 C   0  0  0  0  0  0
  -27.5837  -13.3431   19.8035 C   0  0  2  0  0  0
  -28.5794  -13.8362   20.8889 C   0  0  0  0  0  0
  -25.2278  -13.8329   20.5856 C   0  0  0  0  0  0
  -24.1700  -13.0433   20.9315 C   0  0  0  0  0  0
  -24.6450  -11.6960   20.8763 C   0  0  0  0  0  0
  -23.9156  -10.4295   21.0384 C   0  0  0  0  0  0
  -24.3676   -9.4207   21.9173 C   0  0  0  0  0  0
  -23.6326   -8.2253   22.0753 C   0  0  0  0  0  0
  -22.4305   -8.0296   21.3544 C   0  0  0  0  0  0
  -21.9960   -9.0273   20.4641 C   0  0  0  0  0  0
  -22.7315  -10.2138   20.3042 C   0  0  0  0  0  0
  -21.6863   -6.0747   22.5279 C   0  0  0  0  0  0
  -21.4022   -6.5646   23.8213 C   0  0  0  0  0  0
  -21.3661   -5.6796   24.9173 C   0  0  0  0  0  0
  -21.6044   -4.3059   24.7222 C   0  0  0  0  0  0
  -21.8818   -3.8153   23.4342 C   0  0  0  0  0  0
  -21.9196   -4.6972   22.3400 C   0  0  0  0  0  0
  -22.7702  -13.5137   21.1934 C   0  0  0  0  0  0
  -22.1662   -4.2158   21.0977 F   0  0  0  0  0  0
  -21.5626   -3.4540   25.7734 F   0  0  0  0  0  0
  -29.6775  -14.5802   20.1919 N   0  0  0  0  0  0
  -26.2769  -12.9729   20.3291 N   0  0  0  0  0  0
  -25.9412  -11.6758   20.5682 N   0  0  0  0  0  0
  -22.0374  -12.8106   22.0483 N   0  0  0  0  0  0
  -25.3817  -15.2078   20.4306 N   0  0  0  0  0  0
  -31.4087  -15.8722   20.2822 O   0  0  0  0  0  0
  -21.6655   -6.8899   21.4244 O   0  0  0  0  0  0
  -22.3368  -14.5432   20.6768 O   0  0  0  0  0  0
  -24.7122  -31.7741   23.1306 C   0  0  0  0  0  0
  -25.9575  -32.4339   23.7956 C   0  0  1  0  0  0
  -27.2357  -26.4414   20.2493 C   0  0  0  0  0  0
  -25.6043  -33.8173   24.1821 N   0  0  0  0  0  0
  -23.5502  -30.3697   21.4913 C   0  0  2  0  0  0
  -25.0042  -28.6446   20.1367 C   0  0  0  0  0  0
  -22.7896  -29.4343   22.4700 C   0  0  0  0  0  0
  -18.0162  -28.1569   22.8214 C   0  0  0  0  0  0
  -24.1498  -36.7093   23.2657 C   0  0  0  0  0  0
  -26.1405  -30.4200   21.4324 C   0  0  0  0  0  0
  -26.2010  -28.9529   20.7936 C   0  0  0  0  0  0
  -27.2917  -27.8910   20.8024 C   0  0  0  0  0  0
  -25.9991  -26.4075   19.5352 C   0  0  0  0  0  0
  -24.9575  -27.3998   19.4818 C   0  0  0  0  0  0
  -23.8153  -29.6344   20.1422 C   0  0  0  0  0  0
  -25.4158  -36.2817   24.0263 C   0  0  1  0  0  0
  -20.6073  -28.3875   23.0881 C   0  0  2  0  0  0
  -20.7786  -26.9756   22.4608 C   0  0  0  0  0  0
  -19.5498  -26.4216   21.7088 C   0  0  0  0  0  0
  -18.1097  -26.8638   22.0237 C   0  0  0  0  0  0
  -19.1588  -28.8842   23.2637 C   0  0  0  0  0  0
  -18.9570  -30.1345   23.8911 C   0  0  0  0  0  0
  -17.6624  -30.6560   24.0765 C   0  0  0  0  0  0
  -25.9160  -34.9216   23.4892 C   0  0  0  0  0  0
  -16.5419  -29.9202   23.6574 C   0  0  0  0  0  0
  -16.7219  -28.6723   23.0397 C   0  0  0  0  0  0
  -26.4648  -31.6466   25.0680 C   0  0  0  0  0  0
  -25.3637  -31.3855   26.1238 C   0  0  0  0  0  0
  -27.0614  -30.2776   24.6755 C   0  0  0  0  0  0
  -27.6047  -32.4377   25.7524 C   0  0  0  0  0  0
  -27.5558  -37.1705   24.8467 C   0  0  0  0  0  0
  -21.4495  -29.3435   22.3578 N   0  0  0  0  0  0
  -26.4262  -37.3606   23.9409 N   0  0  0  0  0  0
  -24.8283  -30.8941   22.0696 N   0  0  0  0  0  0
  -23.4210  -28.7802   23.3033 O   0  0  0  0  0  0
  -28.1967  -25.1262   20.2226 O   0  0  0  0  0  0
  -26.5824  -34.8842   22.4527 O   0  0  0  0  0  0
  -23.6085  -32.0940   23.6097 O   0  0  0  0  0  0
  -28.7705  -21.2825   19.9969 C   0  0  0  0  0  0
  -29.3625  -19.3536   20.6014 C   0  0  0  0  0  0
  -28.2110  -23.2498   20.5175 C   0  0  0  0  0  0
  -29.4079  -17.4693   20.2741 N   0  0  0  0  0  0
  -31.3466  -13.7011   19.1035 H   0  0  0  0  0  0
  -30.6640  -12.6081   20.2520 H   0  0  0  0  0  0
  -30.0920  -11.9085   17.9034 H   0  0  0  0  0  0
  -29.4512  -13.4961   17.5625 H   0  0  0  0  0  0
  -28.2677  -11.3481   19.3257 H   0  0  0  0  0  0
  -27.5014  -12.1499   17.9722 H   0  0  0  0  0  0
  -27.3925  -14.2099   19.1687 H   0  0  0  0  0  0
  -28.9347  -13.0208   21.5211 H   0  0  0  0  0  0
  -28.0774  -14.5353   21.5592 H   0  0  0  0  0  0
  -25.2813   -9.5677   22.4762 H   0  0  0  0  0  0
  -24.0020   -7.4647   22.7483 H   0  0  0  0  0  0
  -21.0888   -8.8807   19.8948 H   0  0  0  0  0  0
  -22.3776  -10.9680   19.6153 H   0  0  0  0  0  0
  -21.2018   -7.6155   23.9719 H   0  0  0  0  0  0
  -21.1482   -6.0525   25.9077 H   0  0  0  0  0  0
  -22.0594   -2.7615   23.2840 H   0  0  0  0  0  0
  -22.4027  -11.9789   22.4882 H   0  0  0  0  0  0
  -21.0974  -13.1085   22.2674 H   0  0  0  0  0  0
  -24.6092  -15.8546   20.5480 H   0  0  0  0  0  0
  -26.2271  -15.6547   20.1017 H   0  0  0  0  0  0
  -26.7689  -32.4750   23.0689 H   0  0  0  0  0  0
  -25.0068  -33.9166   24.9896 H   0  0  0  0  0  0
  -22.8946  -31.2157   21.2742 H   0  0  0  0  0  0
  -23.3788  -35.9392   23.3244 H   0  0  0  0  0  0
  -24.3558  -36.8846   22.2087 H   0  0  0  0  0  0
  -23.7232  -37.6231   23.6804 H   0  0  0  0  0  0
  -26.3681  -31.1235   20.6306 H   0  0  0  0  0  0
  -26.9832  -30.5006   22.1060 H   0  0  0  0  0  0
  -28.1975  -28.1537   21.3305 H   0  0  0  0  0  0
  -25.7911  -25.4872   19.0076 H   0  0  0  0  0  0
  -24.0632  -27.1495   18.9276 H   0  0  0  0  0  0
  -24.0136  -30.3783   19.3698 H   0  0  0  0  0  0
  -22.9130  -29.1146   19.8155 H   0  0  0  0  0  0
  -25.1379  -36.1542   25.0751 H   0  0  0  0  0  0
  -20.9993  -28.3319   24.1064 H   0  0  0  0  0  0
  -21.1583  -26.3040   23.2422 H   0  0  0  0  0  0
  -21.6163  -26.9721   21.7601 H   0  0  0  0  0  0
  -19.3880  -26.0269   22.7114 H   0  0  0  0  0  0
  -19.6128  -27.3462   21.1307 H   0  0  0  0  0  0
  -17.5815  -27.0283   21.0810 H   0  0  0  0  0  0
  -17.5017  -26.0951   22.5175 H   0  0  0  0  0  0
  -19.8097  -30.7074   24.2302 H   0  0  0  0  0  0
  -17.5302  -31.6181   24.5523 H   0  0  0  0  0  0
  -15.5460  -30.3152   23.8048 H   0  0  0  0  0  0
  -15.8546  -28.1225   22.6995 H   0  0  0  0  0  0
  -24.5858  -30.7178   25.7514 H   0  0  0  0  0  0
  -24.8793  -32.3100   26.4389 H   0  0  0  0  0  0
  -25.7743  -30.9184   27.0198 H   0  0  0  0  0  0
  -26.3378  -29.6321   24.1770 H   0  0  0  0  0  0
  -27.3966  -29.7315   25.5583 H   0  0  0  0  0  0
  -27.9387  -30.3845   24.0374 H   0  0  0  0  0  0
  -27.2557  -33.3779   26.1808 H   0  0  0  0  0  0
  -28.4013  -32.6778   25.0469 H   0  0  0  0  0  0
  -28.0543  -31.8704   26.5683 H   0  0  0  0  0  0
  -28.2525  -38.0046   24.7520 H   0  0  0  0  0  0
  -28.1104  -36.2565   24.6288 H   0  0  0  0  0  0
  -27.2271  -37.1326   25.8867 H   0  0  0  0  0  0
  -20.9859  -29.9264   21.6745 H   0  0  0  0  0  0
  -26.0065  -38.2641   24.1431 H   0  0  0  0  0  0
  -27.9479  -21.0312   19.3274 H   0  0  0  0  0  0
  -29.5799  -21.5046   19.3014 H   0  0  0  0  0  0
  -28.8623  -19.3135   21.5693 H   0  0  0  0  0  0
  -30.4044  -19.5229   20.8749 H   0  0  0  0  0  0
  -28.6621  -23.2870   21.5090 H   0  0  0  0  0  0
  -27.1534  -23.1048   20.7380 H   0  0  0  0  0  0
  -28.4467  -17.2150   20.0887 H   0  0  0  0  0  0
  1 25  1  0  0  0
  1 30  2  0  0  0
  1 74  1  0  0  0
  2  3  1  0  0  0
  2 25  1  0  0  0
  2 75  1  0  0  0
  2 76  1  0  0  0
  3  4  1  0  0  0
  3 77  1  0  0  0
  3 78  1  0  0  0
  4  5  1  0  0  0
  4 79  1  0  0  0
  4 80  1  0  0  0
  5  6  1  0  0  0
  5 26  1  0  0  0
  5 81  1  0  0  0
  6 25  1  0  0  0
  6 82  1  0  0  0
  6 83  1  0  0  0
  7  8  2  0  0  0
  7 26  1  0  0  0
  7 29  1  0  0  0
  8  9  1  0  0  0
  8 22  1  0  0  0
  9 10  1  0  0  0
  9 27  2  0  0  0
 10 11  2  0  0  0
 10 15  1  0  0  0
 11 12  1  0  0  0
 11 84  1  0  0  0
 12 13  2  0  0  0
 12 85  1  0  0  0
 13 14  1  0  0  0
 13 31  1  0  0  0
 14 15  2  0  0  0
 14 86  1  0  0  0
 15 87  1  0  0  0
 16 17  2  0  0  0
 16 21  1  0  0  0
 16 31  1  0  0  0
 17 18  1  0  0  0
 17 88  1  0  0  0
 18 19  2  0  0  0
 18 89  1  0  0  0
 19 20  1  0  0  0
 19 24  1  0  0  0
 20 21  2  0  0  0
 20 90  1  0  0  0
 21 23  1  0  0  0
 22 28  1  0  0  0
 22 32  2  0  0  0
 26 27  1  0  0  0
 28 91  1  0  0  0
 28 92  1  0  0  0
 29 93  1  0  0  0
 29 94  1  0  0  0
 33 34  1  0  0  0
 33 66  1  0  0  0
 33 70  2  0  0  0
 34 36  1  0  0  0
 34 59  1  0  0  0
 34 95  1  0  0  0
 35 44  2  0  0  0
 35 45  1  0  0  0
 35 68  1  0  0  0
 36 56  1  0  0  0
 36 96  1  0  0  0
 37 39  1  0  0  0
 37 47  1  0  0  0
 37 66  1  0  0  0
 37 97  1  0  0  0
 38 43  2  0  0  0
 38 46  1  0  0  0
 38 47  1  0  0  0
 39 64  1  0  0  0
 39 67  2  0  0  0
 40 52  1  0  0  0
 40 53  2  0  0  0
 40 58  1  0  0  0
 41 98  1  0  0  0
 41 99  1  0  0  0
 41100  1  0  0  0
 41 48  1  0  0  0
 42 43  1  0  0  0
 42 66  1  0  0  0
 42101  1  0  0  0
 42102  1  0  0  0
 43 44  1  0  0  0
 44103  1  0  0  0
 45 46  2  0  0  0
 45104  1  0  0  0
 46105  1  0  0  0
 47106  1  0  0  0
 47107  1  0  0  0
 48 56  1  0  0  0
 48 65  1  0  0  0
 48108  1  0  0  0
 49 50  1  0  0  0
 49 53  1  0  0  0
 49 64  1  0  0  0
 49109  1  0  0  0
 50 51  1  0  0  0
 50110  1  0  0  0
 50111  1  0  0  0
 51 52  1  0  0  0
 51112  1  0  0  0
 51113  1  0  0  0
 52114  1  0  0  0
 52115  1  0  0  0
 53 54  1  0  0  0
 54 55  2  0  0  0
 54116  1  0  0  0
 55 57  1  0  0  0
 55117  1  0  0  0
 56 69  2  0  0  0
 57 58  2  0  0  0
 57118  1  0  0  0
 58119  1  0  0  0
 59 60  1  0  0  0
 59 61  1  0  0  0
 59 62  1  0  0  0
 60120  1  0  0  0
 60121  1  0  0  0
 60122  1  0  0  0
 61123  1  0  0  0
 61124  1  0  0  0
 61125  1  0  0  0
 62126  1  0  0  0
 62127  1  0  0  0
 62128  1  0  0  0
 63 65  1  0  0  0
 63129  1  0  0  0
 63130  1  0  0  0
 63131  1  0  0  0
 64132  1  0  0  0
 65133  1  0  0  0
 68 73  1  0  0  0
 71 72  1  0  0  0
 71 73  1  0  0  0
 71134  1  0  0  0
 71135  1  0  0  0
 72 74  1  0  0  0
 72136  1  0  0  0
 72137  1  0  0  0
 73138  1  0  0  0
 73139  1  0  0  0
 74140  1  0  0  0
M  ISO  4   1 100  68 101  73 101  74 100
M  END
> <chiral flag>
0

> <version>
0

> <s_m_source_file>
/data/baiqing/PycharmProjects/Reinvent-master-3.2/result/LINK_invent/BTK/process_docking_weight1_custom_sum_contain_oxygen_bond_distance_aromatic_linkinvent_7_9_3/rearranged_h_0002.sdf

> <i_m_source_file_index>
16

> <r_mmod_Potential_Energy-OPLS-2005>
4439.1796875

> <r_mmod_Stretch_Energy-OPLS-2005>
1928.78686523438

> <r_mmod_Bend_Energy-OPLS-2005>
1134.07287597656

> <r_mmod_Torsional_Energy-OPLS-2005>
253.740341186523

> <r_mmod_Improper_Torsional_Energy-OPLS-2005>
5.21059560775757

> <r_mmod_Van_der_Waal_Energy-OPLS-2005>
136.971328735352

> <r_mmod_Electrostatic_Energy-OPLS-2005>
-343.119842529297

> <r_mmod_Solvation_Energy-OPLS-2005>
-223.109710693359

> <b_mmod_Minimization_Converged-OPLS-2005>
0

> <r_mmod_RMS_Derivative-OPLS-2005>
0.0710311159491539

$$$$
16
                    3D
 Structure written by MMmdl.
161169  0  0  1  0            999 V2000
  -30.6636  -14.4839   20.6842 C   0  0  0  0  0  0
  -30.4714  -12.3479   19.4082 C   0  0  0  0  0  0
  -29.5208  -12.5400   18.2037 C   0  0  0  0  0  0
  -28.0392  -12.3708   18.6116 C   0  0  0  0  0  0
  -27.6780  -13.1842   19.8819 C   0  0  2  0  0  0
  -28.7228  -12.9033   20.9897 C   0  0  0  0  0  0
  -25.2699  -13.8054   20.5616 C   0  0  0  0  0  0
  -24.1912  -13.0433   20.9175 C   0  0  0  0  0  0
  -24.6412  -11.6861   20.8724 C   0  0  0  0  0  0
  -23.9054  -10.4253   21.0395 C   0  0  0  0  0  0
  -24.3580   -9.4176   21.9209 C   0  0  0  0  0  0
  -23.6238   -8.2227   22.0786 C   0  0  0  0  0  0
  -22.4238   -8.0252   21.3562 C   0  0  0  0  0  0
  -21.9874   -9.0244   20.4694 C   0  0  0  0  0  0
  -22.7208  -10.2115   20.3087 C   0  0  0  0  0  0
  -21.6828   -6.0721   22.5269 C   0  0  0  0  0  0
  -21.4001   -6.5633   23.8206 C   0  0  0  0  0  0
  -21.3680   -5.6784   24.9165 C   0  0  0  0  0  0
  -21.6033   -4.3037   24.7223 C   0  0  0  0  0  0
  -21.8811   -3.8141   23.4337 C   0  0  0  0  0  0
  -21.9177   -4.6951   22.3397 C   0  0  0  0  0  0
  -22.7945  -13.5289   21.1791 C   0  0  0  0  0  0
  -22.1651   -4.2150   21.0973 F   0  0  0  0  0  0
  -21.5629   -3.4522   25.7730 F   0  0  0  0  0  0
  -30.0547  -13.2788   20.4670 N   0  0  0  0  0  0
  -26.3120  -12.9198   20.3330 N   0  0  0  0  0  0
  -25.9335  -11.6387   20.5709 N   0  0  0  0  0  0
  -22.0483  -12.8400   22.0311 N   0  0  0  0  0  0
  -25.4429  -15.1753   20.3870 N   0  0  0  0  0  0
  -31.7721  -14.8016   20.2348 O   0  0  0  0  0  0
  -21.6611   -6.8855   21.4232 O   0  0  0  0  0  0
  -22.3701  -14.5610   20.6555 O   0  0  0  0  0  0
  -24.6153  -31.8628   23.2053 C   0  0  0  0  0  0
  -25.9023  -32.4805   23.8391 C   0  0  1  0  0  0
  -27.2939  -27.3988   20.1614 C   0  0  0  0  0  0
  -25.5852  -33.8604   24.2338 N   0  0  0  0  0  0
  -23.4158  -30.4801   21.5380 C   0  0  2  0  0  0
  -24.8825  -28.9206   20.1404 C   0  0  0  0  0  0
  -22.7465  -29.4618   22.4893 C   0  0  0  0  0  0
  -18.0273  -28.1383   22.8437 C   0  0  0  0  0  0
  -24.1491  -36.7315   23.2633 C   0  0  0  0  0  0
  -25.9463  -30.8241   21.3620 C   0  0  0  0  0  0
  -26.0361  -29.4434   20.7369 C   0  0  0  0  0  0
  -27.2427  -28.6951   20.7323 C   0  0  0  0  0  0
  -26.1185  -26.8914   19.5613 C   0  0  0  0  0  0
  -24.9184  -27.6435   19.5498 C   0  0  0  0  0  0
  -23.6452  -29.8001   20.1610 C   0  0  0  0  0  0
  -25.4107  -36.3103   24.0335 C   0  0  1  0  0  0
  -20.5881  -28.3693   23.1243 C   0  0  2  0  0  0
  -20.6773  -26.9415   22.5373 C   0  0  0  0  0  0
  -19.5734  -26.6387   21.5182 C   0  0  0  0  0  0
  -18.1923  -26.7916   22.1621 C   0  0  0  0  0  0
  -19.1519  -28.8854   23.2847 C   0  0  0  0  0  0
  -18.9453  -30.1455   23.8886 C   0  0  0  0  0  0
  -17.6454  -30.6589   24.0532 C   0  0  0  0  0  0
  -25.9019  -34.9463   23.5131 C   0  0  0  0  0  0
  -16.5338  -29.9098   23.6287 C   0  0  0  0  0  0
  -16.7265  -28.6506   23.0312 C   0  0  0  0  0  0
  -26.4485  -31.6582   25.0698 C   0  0  0  0  0  0
  -25.3805  -31.3629   26.1472 C   0  0  0  0  0  0
  -27.0238  -30.3007   24.6013 C   0  0  0  0  0  0
  -27.6081  -32.4274   25.7438 C   0  0  0  0  0  0
  -27.5577  -37.1817   24.8472 C   0  0  0  0  0  0
  -21.4176  -29.3052   22.3650 N   0  0  0  0  0  0
  -26.4297  -37.3792   23.9416 N   0  0  0  0  0  0
  -24.6763  -31.0747   22.0930 N   0  0  0  0  0  0
  -23.4202  -28.8152   23.2953 O   0  0  0  0  0  0
  -28.5199  -26.7608   20.0020 O   0  0  0  0  0  0
  -26.5608  -34.8906   22.4700 O   0  0  0  0  0  0
  -23.5325  -32.1361   23.7434 O   0  0  0  0  0  0
  -30.8479  -23.9591   20.7519 C   0  0  0  0  0  0
  -29.0292  -23.8156   22.3409 C   0  0  0  0  0  0
  -30.2367  -25.1011   20.1814 C   0  0  0  0  0  0
  -28.4100  -24.9634   21.7622 C   0  0  0  0  0  0
  -30.2449  -23.2890   21.8326 C   0  0  0  0  0  0
  -29.0034  -25.6217   20.6534 C   0  0  0  0  0  0
  -29.7723  -16.7372   21.7142 C   0  0  0  0  0  0
  -28.4114  -17.2247   22.1253 C   0  0  0  0  0  0
  -30.9457  -22.0754   22.4788 C   0  0  0  0  0  0
  -32.7881  -19.1338   21.7706 C   0  0  0  0  0  0
  -32.1612  -17.7383   21.4627 C   0  0  0  0  0  0
  -32.1744  -20.4280   21.1544 C   0  0  0  0  0  0
  -29.7778  -15.4212   21.3436 N   0  0  0  0  0  0
  -30.7314  -17.6971   21.7748 N   0  3  0  0  0  0
  -30.9144  -20.8607   21.7008 O   0  0  0  0  0  0
  -31.5081  -12.5151   19.1065 H   0  0  0  0  0  0
  -30.4262  -11.3180   19.7716 H   0  0  0  0  0  0
  -29.7755  -11.8378   17.4100 H   0  0  0  0  0  0
  -29.6701  -13.5368   17.7860 H   0  0  0  0  0  0
  -27.8595  -11.3090   18.7880 H   0  0  0  0  0  0
  -27.3912  -12.6569   17.7826 H   0  0  0  0  0  0
  -27.7378  -14.2398   19.6103 H   0  0  0  0  0  0
  -28.7189  -11.8397   21.2353 H   0  0  0  0  0  0
  -28.4618  -13.3925   21.9309 H   0  0  0  0  0  0
  -25.2708   -9.5647   22.4813 H   0  0  0  0  0  0
  -23.9915   -7.4629   22.7530 H   0  0  0  0  0  0
  -21.0804   -8.8774   19.9019 H   0  0  0  0  0  0
  -22.3652  -10.9662   19.6207 H   0  0  0  0  0  0
  -21.2007   -7.6136   23.9717 H   0  0  0  0  0  0
  -21.1509   -6.0508   25.9075 H   0  0  0  0  0  0
  -22.0580   -2.7605   23.2819 H   0  0  0  0  0  0
  -22.3930  -12.0062   22.4809 H   0  0  0  0  0  0
  -21.1159  -13.1597   22.2442 H   0  0  0  0  0  0
  -24.6156  -15.7579   20.3598 H   0  0  0  0  0  0
  -26.1705  -15.5214   19.7747 H   0  0  0  0  0  0
  -26.7085  -32.5567   23.1160 H   0  0  0  0  0  0
  -24.9917  -33.9756   25.0414 H   0  0  0  0  0  0
  -22.7010  -31.2917   21.3864 H   0  0  0  0  0  0
  -23.3710  -35.9695   23.3343 H   0  0  0  0  0  0
  -24.3574  -36.8871   22.2040 H   0  0  0  0  0  0
  -23.7304  -37.6555   23.6614 H   0  0  0  0  0  0
  -26.0582  -31.5777   20.5815 H   0  0  0  0  0  0
  -26.8322  -30.8982   21.9832 H   0  0  0  0  0  0
  -28.1515  -29.1219   21.1313 H   0  0  0  0  0  0
  -26.1438  -25.9251   19.0790 H   0  0  0  0  0  0
  -24.0369  -27.2362   19.0751 H   0  0  0  0  0  0
  -23.7867  -30.5728   19.4034 H   0  0  0  0  0  0
  -22.7669  -29.2380   19.8414 H   0  0  0  0  0  0
  -25.1290  -36.1957   25.0834 H   0  0  0  0  0  0
  -20.9978  -28.3261   24.1360 H   0  0  0  0  0  0
  -20.5696  -26.2279   23.3551 H   0  0  0  0  0  0
  -21.6621  -26.7457   22.1131 H   0  0  0  0  0  0
  -19.6886  -25.6311   21.1177 H   0  0  0  0  0  0
  -19.6639  -27.3208   20.6714 H   0  0  0  0  0  0
  -17.4158  -26.6556   21.4084 H   0  0  0  0  0  0
  -18.0391  -26.0134   22.9107 H   0  0  0  0  0  0
  -19.7927  -30.7250   24.2268 H   0  0  0  0  0  0
  -17.5009  -31.6269   24.5139 H   0  0  0  0  0  0
  -15.5332  -30.3006   23.7638 H   0  0  0  0  0  0
  -15.8648  -28.0852   22.7039 H   0  0  0  0  0  0
  -24.5899  -30.7072   25.7787 H   0  0  0  0  0  0
  -24.9093  -32.2762   26.5110 H   0  0  0  0  0  0
  -25.8196  -30.8623   27.0110 H   0  0  0  0  0  0
  -26.2674  -29.6789   24.1186 H   0  0  0  0  0  0
  -27.4111  -29.7229   25.4412 H   0  0  0  0  0  0
  -27.8517  -30.4260   23.9023 H   0  0  0  0  0  0
  -27.2732  -33.3585   26.2003 H   0  0  0  0  0  0
  -28.3899  -32.6790   25.0270 H   0  0  0  0  0  0
  -28.0727  -31.8391   26.5357 H   0  0  0  0  0  0
  -28.2589  -38.0120   24.7508 H   0  0  0  0  0  0
  -28.1078  -36.2638   24.6325 H   0  0  0  0  0  0
  -27.2274  -37.1510   25.8871 H   0  0  0  0  0  0
  -20.9342  -29.8808   21.6890 H   0  0  0  0  0  0
  -26.0159  -38.2843   24.1466 H   0  0  0  0  0  0
  -31.7949  -23.5997   20.3721 H   0  0  0  0  0  0
  -28.5752  -23.3335   23.1969 H   0  0  0  0  0  0
  -30.7443  -25.5943   19.3651 H   0  0  0  0  0  0
  -27.4847  -25.3365   22.1811 H   0  0  0  0  0  0
  -27.6349  -16.4878   21.9160 H   0  0  0  0  0  0
  -28.1423  -18.1283   21.5752 H   0  0  0  0  0  0
  -28.3779  -17.4458   23.1905 H   0  0  0  0  0  0
  -30.4715  -21.8532   23.4355 H   0  0  0  0  0  0
  -31.9683  -22.3569   22.7429 H   0  0  0  0  0  0
  -33.7868  -19.0780   21.3293 H   0  0  0  0  0  0
  -32.9463  -19.2625   22.8436 H   0  0  0  0  0  0
  -32.6574  -16.9899   22.0849 H   0  0  0  0  0  0
  -32.3344  -17.4571   20.4222 H   0  0  0  0  0  0
  -32.0636  -20.3073   20.0801 H   0  0  0  0  0  0
  -32.9134  -21.2223   21.2483 H   0  0  0  0  0  0
  -28.8844  -15.0353   21.5903 H   0  0  0  0  0  0
  -30.4230  -18.5715   22.1875 H   0  0  0  0  0  0
  1 25  1  0  0  0
  1 30  2  0  0  0
  1 83  1  0  0  0
  2  3  1  0  0  0
  2 25  1  0  0  0
  2 86  1  0  0  0
  2 87  1  0  0  0
  3  4  1  0  0  0
  3 88  1  0  0  0
  3 89  1  0  0  0
  4  5  1  0  0  0
  4 90  1  0  0  0
  4 91  1  0  0  0
  5  6  1  0  0  0
  5 26  1  0  0  0
  5 92  1  0  0  0
  6 25  1  0  0  0
  6 93  1  0  0  0
  6 94  1  0  0  0
  7  8  2  0  0  0
  7 26  1  0  0  0
  7 29  1  0  0  0
  8  9  1  0  0  0
  8 22  1  0  0  0
  9 10  1  0  0  0
  9 27  2  0  0  0
 10 11  2  0  0  0
 10 15  1  0  0  0
 11 12  1  0  0  0
 11 95  1  0  0  0
 12 13  2  0  0  0
 12 96  1  0  0  0
 13 14  1  0  0  0
 13 31  1  0  0  0
 14 15  2  0  0  0
 14 97  1  0  0  0
 15 98  1  0  0  0
 16 17  2  0  0  0
 16 21  1  0  0  0
 16 31  1  0  0  0
 17 18  1  0  0  0
 17 99  1  0  0  0
 18 19  2  0  0  0
 18100  1  0  0  0
 19 20  1  0  0  0
 19 24  1  0  0  0
 20 21  2  0  0  0
 20101  1  0  0  0
 21 23  1  0  0  0
 22 28  1  0  0  0
 22 32  2  0  0  0
 26 27  1  0  0  0
 28102  1  0  0  0
 28103  1  0  0  0
 29104  1  0  0  0
 29105  1  0  0  0
 33 34  1  0  0  0
 33 66  1  0  0  0
 33 70  2  0  0  0
 34 36  1  0  0  0
 34 59  1  0  0  0
 34106  1  0  0  0
 35 44  2  0  0  0
 35 45  1  0  0  0
 35 68  1  0  0  0
 36 56  1  0  0  0
 36107  1  0  0  0
 37 39  1  0  0  0
 37 47  1  0  0  0
 37 66  1  0  0  0
 37108  1  0  0  0
 38 43  2  0  0  0
 38 46  1  0  0  0
 38 47  1  0  0  0
 39 64  1  0  0  0
 39 67  2  0  0  0
 40 52  1  0  0  0
 40 53  2  0  0  0
 40 58  1  0  0  0
 41109  1  0  0  0
 41110  1  0  0  0
 41111  1  0  0  0
 41 48  1  0  0  0
 42 43  1  0  0  0
 42 66  1  0  0  0
 42112  1  0  0  0
 42113  1  0  0  0
 43 44  1  0  0  0
 44114  1  0  0  0
 45 46  2  0  0  0
 45115  1  0  0  0
 46116  1  0  0  0
 47117  1  0  0  0
 47118  1  0  0  0
 48 56  1  0  0  0
 48 65  1  0  0  0
 48119  1  0  0  0
 49 50  1  0  0  0
 49 53  1  0  0  0
 49 64  1  0  0  0
 49120  1  0  0  0
 50 51  1  0  0  0
 50121  1  0  0  0
 50122  1  0  0  0
 51 52  1  0  0  0
 51123  1  0  0  0
 51124  1  0  0  0
 52125  1  0  0  0
 52126  1  0  0  0
 53 54  1  0  0  0
 54 55  2  0  0  0
 54127  1  0  0  0
 55 57  1  0  0  0
 55128  1  0  0  0
 56 69  2  0  0  0
 57 58  2  0  0  0
 57129  1  0  0  0
 58130  1  0  0  0
 59 60  1  0  0  0
 59 61  1  0  0  0
 59 62  1  0  0  0
 60131  1  0  0  0
 60132  1  0  0  0
 60133  1  0  0  0
 61134  1  0  0  0
 61135  1  0  0  0
 61136  1  0  0  0
 62137  1  0  0  0
 62138  1  0  0  0
 62139  1  0  0  0
 63 65  1  0  0  0
 63140  1  0  0  0
 63141  1  0  0  0
 63142  1  0  0  0
 64143  1  0  0  0
 65144  1  0  0  0
 68 76  1  0  0  0
 71 73  2  0  0  0
 71 75  1  0  0  0
 71145  1  0  0  0
 72 74  1  0  0  0
 72 75  2  0  0  0
 72146  1  0  0  0
 73 76  1  0  0  0
 73147  1  0  0  0
 74 76  2  0  0  0
 74148  1  0  0  0
 75 79  1  0  0  0
 77 78  1  0  0  0
 77 83  1  0  0  0
 77 84  2  0  0  0
 78149  1  0  0  0
 78150  1  0  0  0
 78151  1  0  0  0
 79 85  1  0  0  0
 79152  1  0  0  0
 79153  1  0  0  0
 80 81  1  0  0  0
 80 82  1  0  0  0
 80154  1  0  0  0
 80155  1  0  0  0
 81 84  1  0  0  0
 81156  1  0  0  0
 81157  1  0  0  0
 82 85  1  0  0  0
 82158  1  0  0  0
 82159  1  0  0  0
 83160  1  0  0  0
 84161  1  0  0  0
M  CHG  1  84   1
M  ISO  4   1 100  68 101  76 101  83 100
M  END
> <chiral flag>
0

> <version>
0

> <s_m_source_file>
/data/baiqing/PycharmProjects/Reinvent-master-3.2/result/LINK_invent/BTK/process_docking_weight1_custom_sum_contain_oxygen_bond_distance_aromatic_linkinvent_7_9_3/rearranged_h_0002.sdf

> <i_m_source_file_index>
17

> <r_mmod_Potential_Energy-OPLS-2005>
58.164867401123

> <r_mmod_Stretch_Energy-OPLS-2005>
51.0290145874023

> <r_mmod_Bend_Energy-OPLS-2005>
201.956527709961

> <r_mmod_Torsional_Energy-OPLS-2005>
239.328628540039

> <r_mmod_Improper_Torsional_Energy-OPLS-2005>
8.19127655029297

> <r_mmod_Van_der_Waal_Energy-OPLS-2005>
135.324111938477

> <r_mmod_Electrostatic_Energy-OPLS-2005>
-194.278335571289

> <r_mmod_Solvation_Energy-OPLS-2005>
-405.549896240234

> <b_mmod_Minimization_Converged-OPLS-2005>
0

> <r_mmod_RMS_Derivative-OPLS-2005>
6.55982875823975

$$$$
17
                    3D
 Structure written by MMmdl.
143150  0  0  1  0            999 V2000
  -30.3355  -15.5533   20.3377 C   0  0  0  0  0  0
  -30.4278  -13.0206   19.5356 C   0  0  0  0  0  0
  -29.5464  -12.6353   18.3151 C   0  0  0  0  0  0
  -28.1142  -12.2965   18.7563 C   0  0  0  0  0  0
  -27.5983  -13.2998   19.8136 C   0  0  2  0  0  0
  -28.6188  -13.6020   20.9348 C   0  0  0  0  0  0
  -25.2335  -13.8272   20.5783 C   0  0  0  0  0  0
  -24.1716  -13.0431   20.9280 C   0  0  0  0  0  0
  -24.6407  -11.6939   20.8763 C   0  0  0  0  0  0
  -23.9108  -10.4290   21.0398 C   0  0  0  0  0  0
  -24.3646   -9.4204   21.9179 C   0  0  0  0  0  0
  -23.6308   -8.2245   22.0753 C   0  0  0  0  0  0
  -22.4289   -8.0285   21.3544 C   0  0  0  0  0  0
  -21.9934   -9.0259   20.4644 C   0  0  0  0  0  0
  -22.7275  -10.2132   20.3050 C   0  0  0  0  0  0
  -21.6858   -6.0738   22.5278 C   0  0  0  0  0  0
  -21.4019   -6.5642   23.8212 C   0  0  0  0  0  0
  -21.3660   -5.6794   24.9173 C   0  0  0  0  0  0
  -21.6043   -4.3057   24.7224 C   0  0  0  0  0  0
  -21.8819   -3.8148   23.4345 C   0  0  0  0  0  0
  -21.9194   -4.6965   22.3402 C   0  0  0  0  0  0
  -22.7731  -13.5167   21.1917 C   0  0  0  0  0  0
  -22.1662   -4.2150   21.0979 F   0  0  0  0  0  0
  -21.5626   -3.4540   25.7737 F   0  0  0  0  0  0
  -29.8047  -14.1993   20.2827 N   0  0  0  0  0  0
  -26.2777  -12.9589   20.3227 N   0  0  0  0  0  0
  -25.9352  -11.6669   20.5705 N   0  0  0  0  0  0
  -22.0396  -12.8145   22.0471 N   0  0  0  0  0  0
  -25.3934  -15.2012   20.4226 N   0  0  0  0  0  0
  -31.5687  -15.5024   20.1771 O   0  0  0  0  0  0
  -21.6647   -6.8885   21.4242 O   0  0  0  0  0  0
  -22.3406  -14.5465   20.6752 O   0  0  0  0  0  0
  -24.6800  -31.8038   23.1543 C   0  0  0  0  0  0
  -25.9399  -32.4487   23.8074 C   0  0  1  0  0  0
  -27.2247  -26.7418   20.2123 C   0  0  0  0  0  0
  -25.5993  -33.8310   24.1966 N   0  0  0  0  0  0
  -23.5038  -30.4073   21.5074 C   0  0  2  0  0  0
  -24.9602  -28.7545   20.1181 C   0  0  0  0  0  0
  -22.7746  -29.4338   22.4723 C   0  0  0  0  0  0
  -18.0336  -28.1422   22.8456 C   0  0  0  0  0  0
  -24.1495  -36.7162   23.2653 C   0  0  0  0  0  0
  -26.0826  -30.5501   21.4119 C   0  0  0  0  0  0
  -26.1487  -29.1190   20.7619 C   0  0  0  0  0  0
  -27.2682  -28.1399   20.7756 C   0  0  0  0  0  0
  -26.0029  -26.5744   19.5148 C   0  0  0  0  0  0
  -24.9238  -27.5069   19.4714 C   0  0  0  0  0  0
  -23.7552  -29.7060   20.1417 C   0  0  0  0  0  0
  -25.4144  -36.2907   24.0285 C   0  0  1  0  0  0
  -20.5969  -28.3778   23.1151 C   0  0  2  0  0  0
  -20.6806  -26.9441   22.5404 C   0  0  0  0  0  0
  -19.5783  -26.6372   21.5218 C   0  0  0  0  0  0
  -18.1963  -26.7949   22.1618 C   0  0  0  0  0  0
  -19.1601  -28.8923   23.2785 C   0  0  0  0  0  0
  -18.9509  -30.1507   23.8830 C   0  0  0  0  0  0
  -17.6500  -30.6605   24.0552 C   0  0  0  0  0  0
  -25.9122  -34.9297   23.4960 C   0  0  0  0  0  0
  -16.5389  -29.9089   23.6351 C   0  0  0  0  0  0
  -16.7316  -28.6511   23.0366 C   0  0  0  0  0  0
  -26.4590  -31.6507   25.0681 C   0  0  0  0  0  0
  -25.3664  -31.3815   26.1302 C   0  0  0  0  0  0
  -27.0517  -30.2851   24.6551 C   0  0  0  0  0  0
  -27.6045  -32.4359   25.7497 C   0  0  0  0  0  0
  -27.5563  -37.1737   24.8467 C   0  0  0  0  0  0
  -21.4398  -29.3031   22.3473 N   0  0  0  0  0  0
  -26.4272  -37.3665   23.9408 N   0  0  0  0  0  0
  -24.7786  -30.9523   22.0774 N   0  0  0  0  0  0
  -23.4209  -28.7935   23.3052 O   0  0  0  0  0  0
  -28.2041  -25.5512   20.2801 O   0  0  0  0  0  0
  -26.5758  -34.8869   22.4574 O   0  0  0  0  0  0
  -23.5828  -32.1094   23.6523 O   0  0  0  0  0  0
  -28.7651  -20.2674   20.2904 C   0  0  0  0  0  0
  -29.0007  -22.1779   20.3080 C   0  0  0  0  0  0
  -29.8051  -18.6520   20.3467 C   0  0  0  0  0  0
  -28.0034  -23.8204   20.2032 C   0  0  0  0  0  0
  -29.5782  -16.9027   20.3825 N   0  0  0  0  0  0
  -31.4268  -13.2705   19.1767 H   0  0  0  0  0  0
  -30.5690  -12.1647   20.1980 H   0  0  0  0  0  0
  -29.9845  -11.7945   17.7757 H   0  0  0  0  0  0
  -29.5210  -13.4708   17.6137 H   0  0  0  0  0  0
  -28.1271  -11.2932   19.1840 H   0  0  0  0  0  0
  -27.4439  -12.2569   17.8969 H   0  0  0  0  0  0
  -27.4709  -14.2301   19.2582 H   0  0  0  0  0  0
  -28.8604  -12.7103   21.5153 H   0  0  0  0  0  0
  -28.2012  -14.3242   21.6380 H   0  0  0  0  0  0
  -25.2785   -9.5679   22.4764 H   0  0  0  0  0  0
  -24.0009   -7.4638   22.7481 H   0  0  0  0  0  0
  -21.0862   -8.8785   19.8952 H   0  0  0  0  0  0
  -22.3730  -10.9673   19.6163 H   0  0  0  0  0  0
  -21.2015   -7.6151   23.9715 H   0  0  0  0  0  0
  -21.1481   -6.0525   25.9076 H   0  0  0  0  0  0
  -22.0596   -2.7611   23.2846 H   0  0  0  0  0  0
  -22.4039  -11.9821   22.4865 H   0  0  0  0  0  0
  -21.1004  -13.1141   22.2671 H   0  0  0  0  0  0
  -24.6207  -15.8487   20.5359 H   0  0  0  0  0  0
  -26.2324  -15.6443   20.0726 H   0  0  0  0  0  0
  -26.7477  -32.4971   23.0784 H   0  0  0  0  0  0
  -25.0059  -33.9354   25.0062 H   0  0  0  0  0  0
  -22.8274  -31.2439   21.3201 H   0  0  0  0  0  0
  -23.3774  -35.9475   23.3272 H   0  0  0  0  0  0
  -24.3562  -36.8864   22.2076 H   0  0  0  0  0  0
  -23.7238  -37.6325   23.6753 H   0  0  0  0  0  0
  -26.2810  -31.2776   20.6238 H   0  0  0  0  0  0
  -26.9354  -30.6164   22.0750 H   0  0  0  0  0  0
  -28.1647  -28.4248   21.3080 H   0  0  0  0  0  0
  -25.8443  -25.6278   19.0182 H   0  0  0  0  0  0
  -24.0252  -27.2191   18.9430 H   0  0  0  0  0  0
  -23.9278  -30.4668   19.3796 H   0  0  0  0  0  0
  -22.8607  -29.1707   19.8189 H   0  0  0  0  0  0
  -25.1351  -36.1675   25.0775 H   0  0  0  0  0  0
  -21.0052  -28.3402   24.1277 H   0  0  0  0  0  0
  -20.5676  -26.2401   23.3662 H   0  0  0  0  0  0
  -21.6667  -26.7393   22.1218 H   0  0  0  0  0  0
  -19.6942  -25.6265   21.1292 H   0  0  0  0  0  0
  -19.6728  -27.3145   20.6718 H   0  0  0  0  0  0
  -17.4233  -26.6692   21.4021 H   0  0  0  0  0  0
  -18.0352  -26.0108   22.9031 H   0  0  0  0  0  0
  -19.7986  -30.7339   24.2170 H   0  0  0  0  0  0
  -17.5053  -31.6279   24.5166 H   0  0  0  0  0  0
  -15.5388  -30.2971   23.7716 H   0  0  0  0  0  0
  -15.8715  -28.0809   22.7122 H   0  0  0  0  0  0
  -24.5873  -30.7140   25.7600 H   0  0  0  0  0  0
  -24.8826  -32.3036   26.4537 H   0  0  0  0  0  0
  -25.7846  -30.9101   27.0204 H   0  0  0  0  0  0
  -26.3228  -29.6473   24.1543 H   0  0  0  0  0  0
  -27.3966  -29.7288   25.5278 H   0  0  0  0  0  0
  -27.9198  -30.3989   24.0055 H   0  0  0  0  0  0
  -27.2593  -33.3729   26.1879 H   0  0  0  0  0  0
  -28.3955  -32.6809   25.0396 H   0  0  0  0  0  0
  -28.0603  -31.8616   26.5574 H   0  0  0  0  0  0
  -28.2553  -38.0057   24.7511 H   0  0  0  0  0  0
  -28.1085  -36.2580   24.6299 H   0  0  0  0  0  0
  -27.2276  -37.1380   25.8868 H   0  0  0  0  0  0
  -20.9695  -29.8687   21.6544 H   0  0  0  0  0  0
  -26.0103  -38.2714   24.1421 H   0  0  0  0  0  0
  -28.1541  -20.1192   19.3998 H   0  0  0  0  0  0
  -28.0571  -20.1169   21.1057 H   0  0  0  0  0  0
  -29.7448  -22.3205   19.5244 H   0  0  0  0  0  0
  -29.5730  -22.3235   21.2244 H   0  0  0  0  0  0
  -30.4440  -18.8018   21.2176 H   0  0  0  0  0  0
  -30.4945  -18.7676   19.5099 H   0  0  0  0  0  0
  -27.2299  -23.6732   20.9571 H   0  0  0  0  0  0
  -27.4624  -23.7113   19.2633 H   0  0  0  0  0  0
  -28.5926  -16.6942   20.4591 H   0  0  0  0  0  0
  1 25  1  0  0  0
  1 30  2  0  0  0
  1 75  1  0  0  0
  2  3  1  0  0  0
  2 25  1  0  0  0
  2 76  1  0  0  0
  2 77  1  0  0  0
  3  4  1  0  0  0
  3 78  1  0  0  0
  3 79  1  0  0  0
  4  5  1  0  0  0
  4 80  1  0  0  0
  4 81  1  0  0  0
  5  6  1  0  0  0
  5 26  1  0  0  0
  5 82  1  0  0  0
  6 25  1  0  0  0
  6 83  1  0  0  0
  6 84  1  0  0  0
  7  8  2  0  0  0
  7 26  1  0  0  0
  7 29  1  0  0  0
  8  9  1  0  0  0
  8 22  1  0  0  0
  9 10  1  0  0  0
  9 27  2  0  0  0
 10 11  2  0  0  0
 10 15  1  0  0  0
 11 12  1  0  0  0
 11 85  1  0  0  0
 12 13  2  0  0  0
 12 86  1  0  0  0
 13 14  1  0  0  0
 13 31  1  0  0  0
 14 15  2  0  0  0
 14 87  1  0  0  0
 15 88  1  0  0  0
 16 17  2  0  0  0
 16 21  1  0  0  0
 16 31  1  0  0  0
 17 18  1  0  0  0
 17 89  1  0  0  0
 18 19  2  0  0  0
 18 90  1  0  0  0
 19 20  1  0  0  0
 19 24  1  0  0  0
 20 21  2  0  0  0
 20 91  1  0  0  0
 21 23  1  0  0  0
 22 28  1  0  0  0
 22 32  2  0  0  0
 26 27  1  0  0  0
 28 92  1  0  0  0
 28 93  1  0  0  0
 29 94  1  0  0  0
 29 95  1  0  0  0
 33 34  1  0  0  0
 33 66  1  0  0  0
 33 70  2  0  0  0
 34 36  1  0  0  0
 34 59  1  0  0  0
 34 96  1  0  0  0
 35 44  2  0  0  0
 35 45  1  0  0  0
 35 68  1  0  0  0
 36 56  1  0  0  0
 36 97  1  0  0  0
 37 39  1  0  0  0
 37 47  1  0  0  0
 37 66  1  0  0  0
 37 98  1  0  0  0
 38 43  2  0  0  0
 38 46  1  0  0  0
 38 47  1  0  0  0
 39 64  1  0  0  0
 39 67  2  0  0  0
 40 52  1  0  0  0
 40 53  2  0  0  0
 40 58  1  0  0  0
 41 99  1  0  0  0
 41100  1  0  0  0
 41101  1  0  0  0
 41 48  1  0  0  0
 42 43  1  0  0  0
 42 66  1  0  0  0
 42102  1  0  0  0
 42103  1  0  0  0
 43 44  1  0  0  0
 44104  1  0  0  0
 45 46  2  0  0  0
 45105  1  0  0  0
 46106  1  0  0  0
 47107  1  0  0  0
 47108  1  0  0  0
 48 56  1  0  0  0
 48 65  1  0  0  0
 48109  1  0  0  0
 49 50  1  0  0  0
 49 53  1  0  0  0
 49 64  1  0  0  0
 49110  1  0  0  0
 50 51  1  0  0  0
 50111  1  0  0  0
 50112  1  0  0  0
 51 52  1  0  0  0
 51113  1  0  0  0
 51114  1  0  0  0
 52115  1  0  0  0
 52116  1  0  0  0
 53 54  1  0  0  0
 54 55  2  0  0  0
 54117  1  0  0  0
 55 57  1  0  0  0
 55118  1  0  0  0
 56 69  2  0  0  0
 57 58  2  0  0  0
 57119  1  0  0  0
 58120  1  0  0  0
 59 60  1  0  0  0
 59 61  1  0  0  0
 59 62  1  0  0  0
 60121  1  0  0  0
 60122  1  0  0  0
 60123  1  0  0  0
 61124  1  0  0  0
 61125  1  0  0  0
 61126  1  0  0  0
 62127  1  0  0  0
 62128  1  0  0  0
 62129  1  0  0  0
 63 65  1  0  0  0
 63130  1  0  0  0
 63131  1  0  0  0
 63132  1  0  0  0
 64133  1  0  0  0
 65134  1  0  0  0
 68 74  1  0  0  0
 71 72  1  0  0  0
 71 73  1  0  0  0
 71135  1  0  0  0
 71136  1  0  0  0
 72 74  1  0  0  0
 72137  1  0  0  0
 72138  1  0  0  0
 73 75  1  0  0  0
 73139  1  0  0  0
 73140  1  0  0  0
 74141  1  0  0  0
 74142  1  0  0  0
 75143  1  0  0  0
M  ISO  4   1 100  68 101  74 101  75 100
M  END
> <chiral flag>
0

> <version>
0

> <s_m_source_file>
/data/baiqing/PycharmProjects/Reinvent-master-3.2/result/LINK_invent/BTK/process_docking_weight1_custom_sum_contain_oxygen_bond_distance_aromatic_linkinvent_7_9_3/rearranged_h_0002.sdf

> <i_m_source_file_index>
18

> <r_mmod_Potential_Energy-OPLS-2005>
2236.59155273438

> <r_mmod_Stretch_Energy-OPLS-2005>
1088.18041992188

> <r_mmod_Bend_Energy-OPLS-2005>
600.093139648438

> <r_mmod_Torsional_Energy-OPLS-2005>
206.369812011719

> <r_mmod_Improper_Torsional_Energy-OPLS-2005>
3.66827178001404

> <r_mmod_Van_der_Waal_Energy-OPLS-2005>
110.215888977051

> <r_mmod_Electrostatic_Energy-OPLS-2005>
-352.887237548828

> <r_mmod_Solvation_Energy-OPLS-2005>
-215.827575683594

> <b_mmod_Minimization_Converged-OPLS-2005>
0

> <r_mmod_RMS_Derivative-OPLS-2005>
0.268112510442734

$$$$
18
                    3D
 Structure written by MMmdl.
151159  0  0  1  0            999 V2000
  -30.6108  -14.7369   20.4652 C   0  0  0  0  0  0
  -30.4303  -12.4501   19.4613 C   0  0  0  0  0  0
  -29.5092  -12.5150   18.2240 C   0  0  0  0  0  0
  -28.0329  -12.3463   18.6355 C   0  0  0  0  0  0
  -27.6403  -13.2328   19.8479 C   0  0  2  0  0  0
  -28.6879  -13.1550   20.9795 C   0  0  0  0  0  0
  -25.2497  -13.8193   20.5689 C   0  0  0  0  0  0
  -24.1799  -13.0435   20.9206 C   0  0  0  0  0  0
  -24.6398  -11.6912   20.8753 C   0  0  0  0  0  0
  -23.9079  -10.4292   21.0417 C   0  0  0  0  0  0
  -24.3631   -9.4201   21.9188 C   0  0  0  0  0  0
  -23.6308   -8.2234   22.0757 C   0  0  0  0  0  0
  -22.4287   -8.0274   21.3552 C   0  0  0  0  0  0
  -21.9919   -9.0249   20.4646 C   0  0  0  0  0  0
  -22.7255  -10.2131   20.3059 C   0  0  0  0  0  0
  -21.6853   -6.0736   22.5291 C   0  0  0  0  0  0
  -21.4009   -6.5644   23.8224 C   0  0  0  0  0  0
  -21.3658   -5.6798   24.9187 C   0  0  0  0  0  0
  -21.6049   -4.3060   24.7238 C   0  0  0  0  0  0
  -21.8812   -3.8151   23.4357 C   0  0  0  0  0  0
  -21.9192   -4.6964   22.3413 C   0  0  0  0  0  0
  -22.7822  -13.5209   21.1871 C   0  0  0  0  0  0
  -22.1660   -4.2154   21.0987 F   0  0  0  0  0  0
  -21.5634   -3.4535   25.7747 F   0  0  0  0  0  0
  -29.9861  -13.5116   20.3939 N   0  0  0  0  0  0
  -26.2928  -12.9409   20.3266 N   0  0  0  0  0  0
  -25.9322  -11.6549   20.5736 N   0  0  0  0  0  0
  -22.0474  -12.8197   22.0424 N   0  0  0  0  0  0
  -25.4157  -15.1922   20.4071 N   0  0  0  0  0  0
  -31.8076  -14.8217   20.1744 O   0  0  0  0  0  0
  -21.6643   -6.8875   21.4250 O   0  0  0  0  0  0
  -22.3494  -14.5514   20.6713 O   0  0  0  0  0  0
  -24.6315  -31.8538   23.1952 C   0  0  0  0  0  0
  -25.9134  -32.4755   23.8306 C   0  0  1  0  0  0
  -27.2287  -27.2612   20.1419 C   0  0  0  0  0  0
  -25.5939  -33.8555   24.2243 N   0  0  0  0  0  0
  -23.4291  -30.4712   21.5394 C   0  0  2  0  0  0
  -24.8790  -28.9083   20.1172 C   0  0  0  0  0  0
  -22.7498  -29.4577   22.4918 C   0  0  0  0  0  0
  -18.0293  -28.1377   22.8474 C   0  0  0  0  0  0
  -24.1498  -36.7275   23.2638 C   0  0  0  0  0  0
  -25.9726  -30.7677   21.3723 C   0  0  0  0  0  0
  -26.0492  -29.3862   20.7216 C   0  0  0  0  0  0
  -27.2298  -28.5767   20.7163 C   0  0  0  0  0  0
  -26.0371  -26.8408   19.5176 C   0  0  0  0  0  0
  -24.8772  -27.6437   19.5044 C   0  0  0  0  0  0
  -23.6486  -29.7954   20.1592 C   0  0  0  0  0  0
  -25.4130  -36.3070   24.0322 C   0  0  1  0  0  0
  -20.5895  -28.3681   23.1277 C   0  0  2  0  0  0
  -20.6776  -26.9398   22.5411 C   0  0  0  0  0  0
  -19.5758  -26.6371   21.5208 C   0  0  0  0  0  0
  -18.1939  -26.7920   22.1614 C   0  0  0  0  0  0
  -19.1545  -28.8847   23.2870 C   0  0  0  0  0  0
  -18.9463  -30.1452   23.8879 C   0  0  0  0  0  0
  -17.6460  -30.6579   24.0551 C   0  0  0  0  0  0
  -25.9065  -34.9440   23.5084 C   0  0  0  0  0  0
  -16.5352  -29.9068   23.6332 C   0  0  0  0  0  0
  -16.7278  -28.6489   23.0348 C   0  0  0  0  0  0
  -26.4508  -31.6573   25.0691 C   0  0  0  0  0  0
  -25.3734  -31.3693   26.1406 C   0  0  0  0  0  0
  -27.0353  -30.3002   24.6146 C   0  0  0  0  0  0
  -27.6080  -32.4289   25.7468 C   0  0  0  0  0  0
  -27.5587  -37.1795   24.8465 C   0  0  0  0  0  0
  -21.4208  -29.3024   22.3661 N   0  0  0  0  0  0
  -26.4302  -37.3769   23.9402 N   0  0  0  0  0  0
  -24.6966  -31.0491   22.0930 N   0  0  0  0  0  0
  -23.4192  -28.8132   23.3031 O   0  0  0  0  0  0
  -28.3401  -26.3923   20.1368 O   0  0  0  0  0  0
  -26.5625  -34.8916   22.4647 O   0  0  0  0  0  0
  -23.5464  -32.1355   23.7252 O   0  0  0  0  0  0
  -31.7791  -19.0248   21.4916 C   0  0  0  0  0  0
  -30.9240  -20.0860   21.1258 C   0  0  0  0  0  0
  -31.4139  -17.6752   21.3042 C   0  0  0  0  0  0
  -29.2982  -18.4344   20.3830 C   0  0  0  0  0  0
  -29.6543  -19.8424   20.5589 C   0  0  0  0  0  0
  -30.1678  -17.3164   20.7420 C   0  0  0  0  0  0
  -28.8016  -21.0522   20.0523 C   0  0  0  0  0  0
  -28.6137  -23.6754   19.8142 C   0  0  0  0  0  0
  -28.2221  -24.9919   20.6795 C   0  0  0  0  0  0
  -29.8175  -15.8731   20.6119 N   0  0  0  0  0  0
  -29.0181  -22.3527   20.4874 N   0  0  0  0  0  0
  -27.9350  -20.8296   19.2054 O   0  0  0  0  0  0
  -31.4735  -12.5690   19.1619 H   0  0  0  0  0  0
  -30.3648  -11.4709   19.9378 H   0  0  0  0  0  0
  -29.7881  -11.7484   17.4993 H   0  0  0  0  0  0
  -29.6415  -13.4735   17.7201 H   0  0  0  0  0  0
  -27.8719  -11.2961   18.8783 H   0  0  0  0  0  0
  -27.3838  -12.5621   17.7867 H   0  0  0  0  0  0
  -27.6343  -14.2572   19.4763 H   0  0  0  0  0  0
  -28.7234  -12.1530   21.4088 H   0  0  0  0  0  0
  -28.4304  -13.8300   21.7973 H   0  0  0  0  0  0
  -25.2778   -9.5679   22.4754 H   0  0  0  0  0  0
  -24.0027   -7.4621   22.7469 H   0  0  0  0  0  0
  -21.0851   -8.8759   19.8945 H   0  0  0  0  0  0
  -22.3709  -10.9664   19.6167 H   0  0  0  0  0  0
  -21.1989   -7.6152   23.9724 H   0  0  0  0  0  0
  -21.1498   -6.0534   25.9092 H   0  0  0  0  0  0
  -22.0594   -2.7611   23.2865 H   0  0  0  0  0  0
  -22.4094  -11.9875   22.4840 H   0  0  0  0  0  0
  -21.1078  -13.1208   22.2609 H   0  0  0  0  0  0
  -24.6384  -15.8380   20.4950 H   0  0  0  0  0  0
  -26.2490  -15.6312   20.0384 H   0  0  0  0  0  0
  -26.7189  -32.5406   23.1038 H   0  0  0  0  0  0
  -25.0109  -33.9690   25.0405 H   0  0  0  0  0  0
  -22.7261  -31.2934   21.3884 H   0  0  0  0  0  0
  -23.3772  -35.9594   23.3299 H   0  0  0  0  0  0
  -24.3585  -36.8899   22.2052 H   0  0  0  0  0  0
  -23.7236  -37.6470   23.6662 H   0  0  0  0  0  0
  -26.1057  -31.5241   20.5978 H   0  0  0  0  0  0
  -26.8520  -30.8228   22.0025 H   0  0  0  0  0  0
  -28.1319  -28.9413   21.1874 H   0  0  0  0  0  0
  -26.0012  -25.8700   19.0429 H   0  0  0  0  0  0
  -23.9804  -27.2713   19.0285 H   0  0  0  0  0  0
  -23.7736  -30.5666   19.3978 H   0  0  0  0  0  0
  -22.7672  -29.2260   19.8576 H   0  0  0  0  0  0
  -25.1319  -36.1918   25.0813 H   0  0  0  0  0  0
  -20.9990  -28.3253   24.1398 H   0  0  0  0  0  0
  -20.5676  -26.2283   23.3604 H   0  0  0  0  0  0
  -21.6645  -26.7416   22.1213 H   0  0  0  0  0  0
  -19.6923  -25.6281   21.1239 H   0  0  0  0  0  0
  -19.6719  -27.3175   20.6734 H   0  0  0  0  0  0
  -17.4214  -26.6663   21.4011 H   0  0  0  0  0  0
  -18.0344  -26.0066   22.9016 H   0  0  0  0  0  0
  -19.7936  -30.7273   24.2245 H   0  0  0  0  0  0
  -17.5010  -31.6268   24.5136 H   0  0  0  0  0  0
  -15.5347  -30.2953   23.7676 H   0  0  0  0  0  0
  -15.8682  -28.0803   22.7063 H   0  0  0  0  0  0
  -24.5932  -30.7032   25.7706 H   0  0  0  0  0  0
  -24.8901  -32.2843   26.4835 H   0  0  0  0  0  0
  -25.8059  -30.8859   27.0173 H   0  0  0  0  0  0
  -26.2914  -29.6746   24.1204 H   0  0  0  0  0  0
  -27.4087  -29.7277   25.4641 H   0  0  0  0  0  0
  -27.8767  -30.4297   23.9341 H   0  0  0  0  0  0
  -27.2724  -33.3599   26.2043 H   0  0  0  0  0  0
  -28.3902  -32.6818   25.0302 H   0  0  0  0  0  0
  -28.0726  -31.8398   26.5381 H   0  0  0  0  0  0
  -28.2605  -38.0097   24.7528 H   0  0  0  0  0  0
  -28.1088  -36.2626   24.6286 H   0  0  0  0  0  0
  -27.2295  -37.1434   25.8866 H   0  0  0  0  0  0
  -20.9392  -29.8734   21.6857 H   0  0  0  0  0  0
  -26.0185  -38.2843   24.1411 H   0  0  0  0  0  0
  -32.7464  -19.2518   21.9194 H   0  0  0  0  0  0
  -31.2726  -21.1003   21.2636 H   0  0  0  0  0  0
  -32.1187  -16.9140   21.6116 H   0  0  0  0  0  0
  -28.3384  -18.2134   19.9354 H   0  0  0  0  0  0
  -29.4737  -23.9441   19.1997 H   0  0  0  0  0  0
  -27.8079  -23.4825   19.1046 H   0  0  0  0  0  0
  -28.8750  -24.9913   21.5525 H   0  0  0  0  0  0
  -27.2218  -24.8475   21.0893 H   0  0  0  0  0  0
  -28.8304  -15.6720   20.6284 H   0  0  0  0  0  0
  -29.6825  -22.4432   21.2434 H   0  0  0  0  0  0
  1 25  1  0  0  0
  1 30  2  0  0  0
  1 80  1  0  0  0
  2  3  1  0  0  0
  2 25  1  0  0  0
  2 83  1  0  0  0
  2 84  1  0  0  0
  3  4  1  0  0  0
  3 85  1  0  0  0
  3 86  1  0  0  0
  4  5  1  0  0  0
  4 87  1  0  0  0
  4 88  1  0  0  0
  5  6  1  0  0  0
  5 26  1  0  0  0
  5 89  1  0  0  0
  6 25  1  0  0  0
  6 90  1  0  0  0
  6 91  1  0  0  0
  7  8  2  0  0  0
  7 26  1  0  0  0
  7 29  1  0  0  0
  8  9  1  0  0  0
  8 22  1  0  0  0
  9 10  1  0  0  0
  9 27  2  0  0  0
 10 11  2  0  0  0
 10 15  1  0  0  0
 11 12  1  0  0  0
 11 92  1  0  0  0
 12 13  2  0  0  0
 12 93  1  0  0  0
 13 14  1  0  0  0
 13 31  1  0  0  0
 14 15  2  0  0  0
 14 94  1  0  0  0
 15 95  1  0  0  0
 16 17  2  0  0  0
 16 21  1  0  0  0
 16 31  1  0  0  0
 17 18  1  0  0  0
 17 96  1  0  0  0
 18 19  2  0  0  0
 18 97  1  0  0  0
 19 20  1  0  0  0
 19 24  1  0  0  0
 20 21  2  0  0  0
 20 98  1  0  0  0
 21 23  1  0  0  0
 22 28  1  0  0  0
 22 32  2  0  0  0
 26 27  1  0  0  0
 28 99  1  0  0  0
 28100  1  0  0  0
 29101  1  0  0  0
 29102  1  0  0  0
 33 34  1  0  0  0
 33 66  1  0  0  0
 33 70  2  0  0  0
 34 36  1  0  0  0
 34 59  1  0  0  0
 34103  1  0  0  0
 35 44  2  0  0  0
 35 45  1  0  0  0
 35 68  1  0  0  0
 36 56  1  0  0  0
 36104  1  0  0  0
 37 39  1  0  0  0
 37 47  1  0  0  0
 37 66  1  0  0  0
 37105  1  0  0  0
 38 43  2  0  0  0
 38 46  1  0  0  0
 38 47  1  0  0  0
 39 64  1  0  0  0
 39 67  2  0  0  0
 40 52  1  0  0  0
 40 53  2  0  0  0
 40 58  1  0  0  0
 41106  1  0  0  0
 41107  1  0  0  0
 41108  1  0  0  0
 41 48  1  0  0  0
 42 43  1  0  0  0
 42 66  1  0  0  0
 42109  1  0  0  0
 42110  1  0  0  0
 43 44  1  0  0  0
 44111  1  0  0  0
 45 46  2  0  0  0
 45112  1  0  0  0
 46113  1  0  0  0
 47114  1  0  0  0
 47115  1  0  0  0
 48 56  1  0  0  0
 48 65  1  0  0  0
 48116  1  0  0  0
 49 50  1  0  0  0
 49 53  1  0  0  0
 49 64  1  0  0  0
 49117  1  0  0  0
 50 51  1  0  0  0
 50118  1  0  0  0
 50119  1  0  0  0
 51 52  1  0  0  0
 51120  1  0  0  0
 51121  1  0  0  0
 52122  1  0  0  0
 52123  1  0  0  0
 53 54  1  0  0  0
 54 55  2  0  0  0
 54124  1  0  0  0
 55 57  1  0  0  0
 55125  1  0  0  0
 56 69  2  0  0  0
 57 58  2  0  0  0
 57126  1  0  0  0
 58127  1  0  0  0
 59 60  1  0  0  0
 59 61  1  0  0  0
 59 62  1  0  0  0
 60128  1  0  0  0
 60129  1  0  0  0
 60130  1  0  0  0
 61131  1  0  0  0
 61132  1  0  0  0
 61133  1  0  0  0
 62134  1  0  0  0
 62135  1  0  0  0
 62136  1  0  0  0
 63 65  1  0  0  0
 63137  1  0  0  0
 63138  1  0  0  0
 63139  1  0  0  0
 64140  1  0  0  0
 65141  1  0  0  0
 68 79  1  0  0  0
 71 72  2  0  0  0
 71 73  1  0  0  0
 71142  1  0  0  0
 72 75  1  0  0  0
 72143  1  0  0  0
 73 76  2  0  0  0
 73144  1  0  0  0
 74 75  2  0  0  0
 74 76  1  0  0  0
 74145  1  0  0  0
 75 77  1  0  0  0
 76 80  1  0  0  0
 77 81  1  0  0  0
 77 82  2  0  0  0
 78 79  1  0  0  0
 78 81  1  0  0  0
 78146  1  0  0  0
 78147  1  0  0  0
 79148  1  0  0  0
 79149  1  0  0  0
 80150  1  0  0  0
 81151  1  0  0  0
M  ISO  4   1 100  68 101  79 101  80 100
M  END
> <chiral flag>
0

> <version>
0

> <s_m_source_file>
/data/baiqing/PycharmProjects/Reinvent-master-3.2/result/LINK_invent/BTK/process_docking_weight1_custom_sum_contain_oxygen_bond_distance_aromatic_linkinvent_7_9_3/rearranged_h_0002.sdf

> <i_m_source_file_index>
19

> <r_mmod_Potential_Energy-OPLS-2005>
78.586296081543

> <r_mmod_Stretch_Energy-OPLS-2005>
125.418853759766

> <r_mmod_Bend_Energy-OPLS-2005>
158.979034423828

> <r_mmod_Torsional_Energy-OPLS-2005>
249.130096435547

> <r_mmod_Improper_Torsional_Energy-OPLS-2005>
6.98363304138184

> <r_mmod_Van_der_Waal_Energy-OPLS-2005>
135.837265014648

> <r_mmod_Electrostatic_Energy-OPLS-2005>
-442.598510742188

> <r_mmod_Solvation_Energy-OPLS-2005>
-235.281036376953

> <b_mmod_Minimization_Converged-OPLS-2005>
0

> <r_mmod_RMS_Derivative-OPLS-2005>
1.91622853279114

$$$$
19
                    3D
 Structure written by MMmdl.
154162  0  0  1  0            999 V2000
  -30.6781  -14.5756   20.5067 C   0  0  0  0  0  0
  -30.4152  -12.3573   19.4332 C   0  0  0  0  0  0
  -29.4939  -12.4998   18.2041 C   0  0  0  0  0  0
  -28.0149  -12.3559   18.6179 C   0  0  0  0  0  0
  -27.6484  -13.2221   19.8552 C   0  0  2  0  0  0
  -28.6947  -13.0852   20.9818 C   0  0  0  0  0  0
  -25.2557  -13.8187   20.5691 C   0  0  0  0  0  0
  -24.1836  -13.0432   20.9210 C   0  0  0  0  0  0
  -24.6412  -11.6908   20.8749 C   0  0  0  0  0  0
  -23.9088  -10.4285   21.0421 C   0  0  0  0  0  0
  -24.3630   -9.4199   21.9202 C   0  0  0  0  0  0
  -23.6305   -8.2234   22.0763 C   0  0  0  0  0  0
  -22.4288   -8.0284   21.3557 C   0  0  0  0  0  0
  -21.9929   -9.0263   20.4659 C   0  0  0  0  0  0
  -22.7266  -10.2138   20.3065 C   0  0  0  0  0  0
  -21.6853   -6.0741   22.5292 C   0  0  0  0  0  0
  -21.4014   -6.5638   23.8232 C   0  0  0  0  0  0
  -21.3663   -5.6794   24.9188 C   0  0  0  0  0  0
  -21.6030   -4.3059   24.7241 C   0  0  0  0  0  0
  -21.8819   -3.8147   23.4365 C   0  0  0  0  0  0
  -21.9196   -4.6962   22.3416 C   0  0  0  0  0  0
  -22.7861  -13.5230   21.1868 C   0  0  0  0  0  0
  -22.1665   -4.2141   21.1001 F   0  0  0  0  0  0
  -21.5624   -3.4545   25.7759 F   0  0  0  0  0  0
  -30.0079  -13.3913   20.4004 N   0  0  0  0  0  0
  -26.2973  -12.9378   20.3296 N   0  0  0  0  0  0
  -25.9339  -11.6523   20.5749 N   0  0  0  0  0  0
  -22.0508  -12.8213   22.0416 N   0  0  0  0  0  0
  -25.4257  -15.1906   20.4108 N   0  0  0  0  0  0
  -31.8576  -14.6825   20.1604 O   0  0  0  0  0  0
  -21.6650   -6.8881   21.4258 O   0  0  0  0  0  0
  -22.3555  -14.5548   20.6734 O   0  0  0  0  0  0
  -24.6206  -31.8612   23.2067 C   0  0  0  0  0  0
  -25.9070  -32.4784   23.8375 C   0  0  1  0  0  0
  -27.2150  -27.3711   20.1120 C   0  0  0  0  0  0
  -25.5893  -33.8585   24.2305 N   0  0  0  0  0  0
  -23.4122  -30.4837   21.5505 C   0  0  2  0  0  0
  -24.8562  -28.9476   20.1092 C   0  0  0  0  0  0
  -22.7456  -29.4598   22.4987 C   0  0  0  0  0  0
  -18.0276  -28.1374   22.8475 C   0  0  0  0  0  0
  -24.1492  -36.7295   23.2646 C   0  0  0  0  0  0
  -25.9466  -30.8129   21.3664 C   0  0  0  0  0  0
  -26.0229  -29.4443   20.7082 C   0  0  0  0  0  0
  -27.2112  -28.6652   20.6981 C   0  0  0  0  0  0
  -26.0332  -26.9055   19.5029 C   0  0  0  0  0  0
  -24.8596  -27.6825   19.4980 C   0  0  0  0  0  0
  -23.6221  -29.8215   20.1631 C   0  0  0  0  0  0
  -25.4110  -36.3081   24.0338 C   0  0  1  0  0  0
  -20.5869  -28.3641   23.1322 C   0  0  2  0  0  0
  -20.6767  -26.9375   22.5419 C   0  0  0  0  0  0
  -19.5752  -26.6379   21.5217 C   0  0  0  0  0  0
  -18.1927  -26.7919   22.1622 C   0  0  0  0  0  0
  -19.1526  -28.8833   23.2878 C   0  0  0  0  0  0
  -18.9458  -30.1448   23.8877 C   0  0  0  0  0  0
  -17.6449  -30.6582   24.0562 C   0  0  0  0  0  0
  -25.9033  -34.9449   23.5129 C   0  0  0  0  0  0
  -16.5340  -29.9072   23.6332 C   0  0  0  0  0  0
  -16.7251  -28.6497   23.0332 C   0  0  0  0  0  0
  -26.4475  -31.6586   25.0726 C   0  0  0  0  0  0
  -25.3713  -31.3720   26.1460 C   0  0  0  0  0  0
  -27.0326  -30.3023   24.6145 C   0  0  0  0  0  0
  -27.6052  -32.4318   25.7477 C   0  0  0  0  0  0
  -27.5582  -37.1792   24.8469 C   0  0  0  0  0  0
  -21.4171  -29.3007   22.3740 N   0  0  0  0  0  0
  -26.4294  -37.3769   23.9420 N   0  0  0  0  0  0
  -24.6791  -31.0669   22.0995 N   0  0  0  0  0  0
  -23.4204  -28.8154   23.3058 O   0  0  0  0  0  0
  -28.3313  -26.5469   20.1228 O   0  0  0  0  0  0
  -26.5607  -34.8901   22.4696 O   0  0  0  0  0  0
  -23.5374  -32.1411   23.7417 O   0  0  0  0  0  0
  -31.9303  -18.2364   22.6464 C   0  0  0  0  0  0
  -31.4598  -19.4508   22.1221 C   0  0  0  0  0  0
  -31.4144  -17.0185   22.1811 C   0  0  0  0  0  0
  -29.9044  -18.2400   20.6862 C   0  0  0  0  0  0
  -30.4391  -19.4914   21.1455 C   0  0  0  0  0  0
  -30.4136  -16.9868   21.1845 C   0  0  0  0  0  0
  -30.0703  -20.8799   20.6235 C   0  0  0  0  0  0
  -28.5533  -23.9338   20.1674 C   0  0  0  0  0  0
  -28.4109  -22.7123   21.1503 C   0  0  0  0  0  0
  -28.1794  -25.2974   20.8630 C   0  0  0  0  0  0
  -29.9287  -15.6886   20.7656 N   0  0  0  0  0  0
  -28.8037  -21.3259   20.7480 N   0  0  0  0  0  0
  -30.9748  -21.6397   20.2668 O   0  0  0  0  0  0
  -31.4629  -12.4414   19.1403 H   0  0  0  0  0  0
  -30.3067  -11.3648   19.8762 H   0  0  0  0  0  0
  -29.7449  -11.7489   17.4548 H   0  0  0  0  0  0
  -29.6508  -13.4701   17.7291 H   0  0  0  0  0  0
  -27.8339  -11.3028   18.8352 H   0  0  0  0  0  0
  -27.3649  -12.6079   17.7786 H   0  0  0  0  0  0
  -27.6656  -14.2582   19.5159 H   0  0  0  0  0  0
  -28.6901  -12.0737   21.3906 H   0  0  0  0  0  0
  -28.4607  -13.7511   21.8147 H   0  0  0  0  0  0
  -25.2774   -9.5656   22.4788 H   0  0  0  0  0  0
  -24.0008   -7.4611   22.7472 H   0  0  0  0  0  0
  -21.0858   -8.8793   19.8962 H   0  0  0  0  0  0
  -22.3744  -10.9680   19.6164 H   0  0  0  0  0  0
  -21.2006   -7.6147   23.9725 H   0  0  0  0  0  0
  -21.1489   -6.0533   25.9091 H   0  0  0  0  0  0
  -22.0593   -2.7608   23.2885 H   0  0  0  0  0  0
  -22.4145  -11.9859   22.4757 H   0  0  0  0  0  0
  -21.1126  -13.1230   22.2635 H   0  0  0  0  0  0
  -24.6556  -15.8422   20.5168 H   0  0  0  0  0  0
  -26.2667  -15.6308   20.0613 H   0  0  0  0  0  0
  -26.7141  -32.5468   23.1124 H   0  0  0  0  0  0
  -25.0013  -33.9720   25.0434 H   0  0  0  0  0  0
  -22.7039  -31.3031   21.4143 H   0  0  0  0  0  0
  -23.3732  -35.9646   23.3319 H   0  0  0  0  0  0
  -24.3590  -36.8910   22.2062 H   0  0  0  0  0  0
  -23.7248  -37.6502   23.6655 H   0  0  0  0  0  0
  -26.0654  -31.5832   20.6023 H   0  0  0  0  0  0
  -26.8303  -30.8621   21.9922 H   0  0  0  0  0  0
  -28.1144  -29.0392   21.1636 H   0  0  0  0  0  0
  -26.0176  -25.9280   19.0430 H   0  0  0  0  0  0
  -23.9627  -27.3031   19.0263 H   0  0  0  0  0  0
  -23.7289  -30.6026   19.4105 H   0  0  0  0  0  0
  -22.7423  -29.2477   19.8635 H   0  0  0  0  0  0
  -25.1282  -36.1967   25.0826 H   0  0  0  0  0  0
  -20.9933  -28.3201   24.1454 H   0  0  0  0  0  0
  -20.5721  -26.2221   23.3599 H   0  0  0  0  0  0
  -21.6632  -26.7452   22.1194 H   0  0  0  0  0  0
  -19.6919  -25.6301   21.1229 H   0  0  0  0  0  0
  -19.6715  -27.3202   20.6764 H   0  0  0  0  0  0
  -17.4199  -26.6661   21.4007 H   0  0  0  0  0  0
  -18.0316  -26.0070   22.9027 H   0  0  0  0  0  0
  -19.7935  -30.7277   24.2228 H   0  0  0  0  0  0
  -17.5003  -31.6264   24.5153 H   0  0  0  0  0  0
  -15.5330  -30.2957   23.7700 H   0  0  0  0  0  0
  -15.8657  -28.0840   22.7015 H   0  0  0  0  0  0
  -24.5902  -30.7052   25.7795 H   0  0  0  0  0  0
  -24.8856  -32.2877   26.4843 H   0  0  0  0  0  0
  -25.8026  -30.8941   27.0269 H   0  0  0  0  0  0
  -26.2904  -29.6764   24.1172 H   0  0  0  0  0  0
  -27.4057  -29.7277   25.4631 H   0  0  0  0  0  0
  -27.8748  -30.4328   23.9347 H   0  0  0  0  0  0
  -27.2687  -33.3634   26.2044 H   0  0  0  0  0  0
  -28.3851  -32.6846   25.0288 H   0  0  0  0  0  0
  -28.0720  -31.8441   26.5404 H   0  0  0  0  0  0
  -28.2581  -38.0099   24.7501 H   0  0  0  0  0  0
  -28.1085  -36.2621   24.6304 H   0  0  0  0  0  0
  -27.2291  -37.1452   25.8866 H   0  0  0  0  0  0
  -20.9352  -29.8705   21.6936 H   0  0  0  0  0  0
  -26.0188  -38.2852   24.1415 H   0  0  0  0  0  0
  -32.6973  -18.2389   23.4088 H   0  0  0  0  0  0
  -31.8955  -20.3721   22.4824 H   0  0  0  0  0  0
  -31.8026  -16.1058   22.6108 H   0  0  0  0  0  0
  -29.1470  -18.2461   19.9149 H   0  0  0  0  0  0
  -27.9114  -23.7848   19.3003 H   0  0  0  0  0  0
  -29.5751  -23.9903   19.7924 H   0  0  0  0  0  0
  -27.3619  -22.6542   21.4492 H   0  0  0  0  0  0
  -28.9525  -22.9459   22.0680 H   0  0  0  0  0  0
  -28.8144  -25.4042   21.7424 H   0  0  0  0  0  0
  -27.1707  -25.2021   21.2715 H   0  0  0  0  0  0
  -28.9287  -15.5615   20.7467 H   0  0  0  0  0  0
  -28.1315  -20.6064   20.9841 H   0  0  0  0  0  0
  1 25  1  0  0  0
  1 30  2  0  0  0
  1 81  1  0  0  0
  2  3  1  0  0  0
  2 25  1  0  0  0
  2 84  1  0  0  0
  2 85  1  0  0  0
  3  4  1  0  0  0
  3 86  1  0  0  0
  3 87  1  0  0  0
  4  5  1  0  0  0
  4 88  1  0  0  0
  4 89  1  0  0  0
  5  6  1  0  0  0
  5 26  1  0  0  0
  5 90  1  0  0  0
  6 25  1  0  0  0
  6 91  1  0  0  0
  6 92  1  0  0  0
  7  8  2  0  0  0
  7 26  1  0  0  0
  7 29  1  0  0  0
  8  9  1  0  0  0
  8 22  1  0  0  0
  9 10  1  0  0  0
  9 27  2  0  0  0
 10 11  2  0  0  0
 10 15  1  0  0  0
 11 12  1  0  0  0
 11 93  1  0  0  0
 12 13  2  0  0  0
 12 94  1  0  0  0
 13 14  1  0  0  0
 13 31  1  0  0  0
 14 15  2  0  0  0
 14 95  1  0  0  0
 15 96  1  0  0  0
 16 17  2  0  0  0
 16 21  1  0  0  0
 16 31  1  0  0  0
 17 18  1  0  0  0
 17 97  1  0  0  0
 18 19  2  0  0  0
 18 98  1  0  0  0
 19 20  1  0  0  0
 19 24  1  0  0  0
 20 21  2  0  0  0
 20 99  1  0  0  0
 21 23  1  0  0  0
 22 28  1  0  0  0
 22 32  2  0  0  0
 26 27  1  0  0  0
 28100  1  0  0  0
 28101  1  0  0  0
 29102  1  0  0  0
 29103  1  0  0  0
 33 34  1  0  0  0
 33 66  1  0  0  0
 33 70  2  0  0  0
 34 36  1  0  0  0
 34 59  1  0  0  0
 34104  1  0  0  0
 35 44  2  0  0  0
 35 45  1  0  0  0
 35 68  1  0  0  0
 36 56  1  0  0  0
 36105  1  0  0  0
 37 39  1  0  0  0
 37 47  1  0  0  0
 37 66  1  0  0  0
 37106  1  0  0  0
 38 43  2  0  0  0
 38 46  1  0  0  0
 38 47  1  0  0  0
 39 64  1  0  0  0
 39 67  2  0  0  0
 40 52  1  0  0  0
 40 53  2  0  0  0
 40 58  1  0  0  0
 41107  1  0  0  0
 41108  1  0  0  0
 41109  1  0  0  0
 41 48  1  0  0  0
 42 43  1  0  0  0
 42 66  1  0  0  0
 42110  1  0  0  0
 42111  1  0  0  0
 43 44  1  0  0  0
 44112  1  0  0  0
 45 46  2  0  0  0
 45113  1  0  0  0
 46114  1  0  0  0
 47115  1  0  0  0
 47116  1  0  0  0
 48 56  1  0  0  0
 48 65  1  0  0  0
 48117  1  0  0  0
 49 50  1  0  0  0
 49 53  1  0  0  0
 49 64  1  0  0  0
 49118  1  0  0  0
 50 51  1  0  0  0
 50119  1  0  0  0
 50120  1  0  0  0
 51 52  1  0  0  0
 51121  1  0  0  0
 51122  1  0  0  0
 52123  1  0  0  0
 52124  1  0  0  0
 53 54  1  0  0  0
 54 55  2  0  0  0
 54125  1  0  0  0
 55 57  1  0  0  0
 55126  1  0  0  0
 56 69  2  0  0  0
 57 58  2  0  0  0
 57127  1  0  0  0
 58128  1  0  0  0
 59 60  1  0  0  0
 59 61  1  0  0  0
 59 62  1  0  0  0
 60129  1  0  0  0
 60130  1  0  0  0
 60131  1  0  0  0
 61132  1  0  0  0
 61133  1  0  0  0
 61134  1  0  0  0
 62135  1  0  0  0
 62136  1  0  0  0
 62137  1  0  0  0
 63 65  1  0  0  0
 63138  1  0  0  0
 63139  1  0  0  0
 63140  1  0  0  0
 64141  1  0  0  0
 65142  1  0  0  0
 68 80  1  0  0  0
 71 72  2  0  0  0
 71 73  1  0  0  0
 71143  1  0  0  0
 72 75  1  0  0  0
 72144  1  0  0  0
 73 76  2  0  0  0
 73145  1  0  0  0
 74 75  2  0  0  0
 74 76  1  0  0  0
 74146  1  0  0  0
 75 77  1  0  0  0
 76 81  1  0  0  0
 77 82  1  0  0  0
 77 83  2  0  0  0
 78 79  1  0  0  0
 78 80  1  0  0  0
 78147  1  0  0  0
 78148  1  0  0  0
 79 82  1  0  0  0
 79149  1  0  0  0
 79150  1  0  0  0
 80151  1  0  0  0
 80152  1  0  0  0
 81153  1  0  0  0
 82154  1  0  0  0
M  ISO  4   1 100  68 101  80 101  81 100
M  END
> <chiral flag>
0

> <version>
0

> <s_m_source_file>
/data/baiqing/PycharmProjects/Reinvent-master-3.2/result/LINK_invent/BTK/process_docking_weight1_custom_sum_contain_oxygen_bond_distance_aromatic_linkinvent_7_9_3/rearranged_h_0002.sdf

> <i_m_source_file_index>
20

> <r_mmod_Potential_Energy-OPLS-2005>
-6.84075784683228

> <r_mmod_Stretch_Energy-OPLS-2005>
57.7708206176758

> <r_mmod_Bend_Energy-OPLS-2005>
122.469619750977

> <r_mmod_Torsional_Energy-OPLS-2005>
278.912048339844

> <r_mmod_Improper_Torsional_Energy-OPLS-2005>
10.5075798034668

> <r_mmod_Van_der_Waal_Energy-OPLS-2005>
143.249465942383

> <r_mmod_Electrostatic_Energy-OPLS-2005>
-409.116546630859

> <r_mmod_Solvation_Energy-OPLS-2005>
-243.69189453125

> <b_mmod_Minimization_Converged-OPLS-2005>
0

> <r_mmod_RMS_Derivative-OPLS-2005>
3.05263543128967

$$$$
20
                    3D
 Structure written by MMmdl.
146153  0  0  1  0            999 V2000
  -30.4549  -15.1919   20.3849 C   0  0  0  0  0  0
  -30.4419  -12.7609   19.5051 C   0  0  0  0  0  0
  -29.5292  -12.5596   18.2708 C   0  0  0  0  0  0
  -28.0748  -12.2962   18.7021 C   0  0  0  0  0  0
  -27.6136  -13.2648   19.8202 C   0  0  2  0  0  0
  -28.6529  -13.4068   20.9504 C   0  0  0  0  0  0
  -25.2403  -13.8229   20.5729 C   0  0  0  0  0  0
  -24.1748  -13.0433   20.9253 C   0  0  0  0  0  0
  -24.6392  -11.6927   20.8763 C   0  0  0  0  0  0
  -23.9086  -10.4291   21.0410 C   0  0  0  0  0  0
  -24.3633   -9.4204   21.9187 C   0  0  0  0  0  0
  -23.6302   -8.2242   22.0756 C   0  0  0  0  0  0
  -22.4283   -8.0282   21.3546 C   0  0  0  0  0  0
  -21.9924   -9.0257   20.4647 C   0  0  0  0  0  0
  -22.7258  -10.2133   20.3057 C   0  0  0  0  0  0
  -21.6855   -6.0737   22.5280 C   0  0  0  0  0  0
  -21.4015   -6.5640   23.8213 C   0  0  0  0  0  0
  -21.3660   -5.6793   24.9176 C   0  0  0  0  0  0
  -21.6044   -4.3056   24.7226 C   0  0  0  0  0  0
  -21.8819   -3.8148   23.4347 C   0  0  0  0  0  0
  -21.9194   -4.6964   22.3403 C   0  0  0  0  0  0
  -22.7766  -13.5192   21.1903 C   0  0  0  0  0  0
  -22.1661   -4.2150   21.0980 F   0  0  0  0  0  0
  -21.5629   -3.4538   25.7738 F   0  0  0  0  0  0
  -29.8884  -13.8961   20.3201 N   0  0  0  0  0  0
  -26.2822  -12.9485   20.3201 N   0  0  0  0  0  0
  -25.9324  -11.6602   20.5719 N   0  0  0  0  0  0
  -22.0422  -12.8177   22.0456 N   0  0  0  0  0  0
  -25.4037  -15.1963   20.4153 N   0  0  0  0  0  0
  -31.6824  -15.2103   20.2234 O   0  0  0  0  0  0
  -21.6644   -6.8881   21.4242 O   0  0  0  0  0  0
  -22.3448  -14.5495   20.6742 O   0  0  0  0  0  0
  -24.6584  -31.8285   23.1736 C   0  0  0  0  0  0
  -25.9287  -32.4613   23.8185 C   0  0  1  0  0  0
  -27.2178  -26.9750   20.1869 C   0  0  0  0  0  0
  -25.5973  -33.8425   24.2096 N   0  0  0  0  0  0
  -23.4702  -30.4410   21.5230 C   0  0  2  0  0  0
  -24.9214  -28.8312   20.1193 C   0  0  0  0  0  0
  -22.7640  -29.4469   22.4810 C   0  0  0  0  0  0
  -18.0318  -28.1406   22.8470 C   0  0  0  0  0  0
  -24.1494  -36.7217   23.2647 C   0  0  0  0  0  0
  -26.0362  -30.6515   21.3950 C   0  0  0  0  0  0
  -26.1055  -29.2439   20.7437 C   0  0  0  0  0  0
  -27.2532  -28.3383   20.7472 C   0  0  0  0  0  0
  -26.0028  -26.6964   19.5254 C   0  0  0  0  0  0
  -24.8915  -27.5757   19.4909 C   0  0  0  0  0  0
  -23.7071  -29.7557   20.1497 C   0  0  0  0  0  0
  -25.4134  -36.2981   24.0302 C   0  0  1  0  0  0
  -20.5938  -28.3745   23.1202 C   0  0  2  0  0  0
  -20.6798  -26.9434   22.5403 C   0  0  0  0  0  0
  -19.5771  -26.6380   21.5215 C   0  0  0  0  0  0
  -18.1953  -26.7940   22.1623 C   0  0  0  0  0  0
  -19.1577  -28.8896   23.2823 C   0  0  0  0  0  0
  -18.9489  -30.1488   23.8856 C   0  0  0  0  0  0
  -17.6483  -30.6597   24.0557 C   0  0  0  0  0  0
  -25.9093  -34.9364   23.5017 C   0  0  0  0  0  0
  -16.5374  -29.9085   23.6344 C   0  0  0  0  0  0
  -16.7300  -28.6506   23.0362 C   0  0  0  0  0  0
  -26.4555  -31.6539   25.0694 C   0  0  0  0  0  0
  -25.3694  -31.3776   26.1358 C   0  0  0  0  0  0
  -27.0448  -30.2914   24.6390 C   0  0  0  0  0  0
  -27.6051  -32.4342   25.7497 C   0  0  0  0  0  0
  -27.5571  -37.1767   24.8468 C   0  0  0  0  0  0
  -21.4316  -29.3042   22.3557 N   0  0  0  0  0  0
  -26.4283  -37.3712   23.9406 N   0  0  0  0  0  0
  -24.7427  -30.9994   22.0847 N   0  0  0  0  0  0
  -23.4209  -28.8039   23.3035 O   0  0  0  0  0  0
  -28.2529  -25.9182   20.1845 O   0  0  0  0  0  0
  -26.5701  -34.8893   22.4610 O   0  0  0  0  0  0
  -23.5665  -32.1233   23.6860 O   0  0  0  0  0  0
  -28.9836  -21.1892   20.6760 C   0  0  0  0  0  0
  -29.1420  -19.5254   20.0456 C   0  0  0  0  0  0
  -28.7259  -22.7941   19.9369 C   0  0  0  0  0  0
  -29.9001  -18.0518   20.7008 C   0  0  0  0  0  0
  -28.0709  -24.3377   20.5448 C   0  0  0  0  0  0
  -29.6685  -16.4354   20.4314 N   0  0  0  0  0  0
  -31.4603  -12.9680   19.1731 H   0  0  0  0  0  0
  -30.5035  -11.8473   20.0986 H   0  0  0  0  0  0
  -29.8948  -11.7358   17.6561 H   0  0  0  0  0  0
  -29.5668  -13.4513   17.6432 H   0  0  0  0  0  0
  -28.0212  -11.2689   19.0646 H   0  0  0  0  0  0
  -27.4048  -12.3529   17.8434 H   0  0  0  0  0  0
  -27.5380  -14.2388   19.3356 H   0  0  0  0  0  0
  -28.8080  -12.4621   21.4735 H   0  0  0  0  0  0
  -28.3078  -14.1243   21.6968 H   0  0  0  0  0  0
  -25.2776   -9.5679   22.4767 H   0  0  0  0  0  0
  -24.0008   -7.4632   22.7476 H   0  0  0  0  0  0
  -21.0856   -8.8778   19.8951 H   0  0  0  0  0  0
  -22.3717  -10.9673   19.6167 H   0  0  0  0  0  0
  -21.2007   -7.6149   23.9716 H   0  0  0  0  0  0
  -21.1482   -6.0524   25.9078 H   0  0  0  0  0  0
  -22.0596   -2.7610   23.2848 H   0  0  0  0  0  0
  -22.4055  -11.9848   22.4850 H   0  0  0  0  0  0
  -21.1032  -13.1183   22.2657 H   0  0  0  0  0  0
  -24.6309  -15.8437   20.5272 H   0  0  0  0  0  0
  -26.2397  -15.6392   20.0580 H   0  0  0  0  0  0
  -26.7354  -32.5171   23.0902 H   0  0  0  0  0  0
  -25.0079  -33.9507   25.0219 H   0  0  0  0  0  0
  -22.7811  -31.2710   21.3541 H   0  0  0  0  0  0
  -23.3765  -35.9539   23.3288 H   0  0  0  0  0  0
  -24.3568  -36.8881   22.2064 H   0  0  0  0  0  0
  -23.7244  -37.6399   23.6712 H   0  0  0  0  0  0
  -26.2087  -31.3941   20.6146 H   0  0  0  0  0  0
  -26.8995  -30.7094   22.0463 H   0  0  0  0  0  0
  -28.1585  -28.6587   21.2434 H   0  0  0  0  0  0
  -25.8948  -25.7377   19.0384 H   0  0  0  0  0  0
  -23.9906  -27.2535   18.9867 H   0  0  0  0  0  0
  -23.8605  -30.5232   19.3902 H   0  0  0  0  0  0
  -22.8176  -29.2077   19.8341 H   0  0  0  0  0  0
  -25.1331  -36.1783   25.0794 H   0  0  0  0  0  0
  -21.0026  -28.3348   24.1325 H   0  0  0  0  0  0
  -20.5684  -26.2363   23.3637 H   0  0  0  0  0  0
  -21.6662  -26.7420   22.1206 H   0  0  0  0  0  0
  -19.6932  -25.6280   21.1271 H   0  0  0  0  0  0
  -19.6708  -27.3169   20.6728 H   0  0  0  0  0  0
  -17.4221  -26.6684   21.4027 H   0  0  0  0  0  0
  -18.0347  -26.0092   22.9029 H   0  0  0  0  0  0
  -19.7965  -30.7317   24.2205 H   0  0  0  0  0  0
  -17.5035  -31.6273   24.5167 H   0  0  0  0  0  0
  -15.5372  -30.2973   23.7691 H   0  0  0  0  0  0
  -15.8701  -28.0810   22.7100 H   0  0  0  0  0  0
  -24.5886  -30.7116   25.7667 H   0  0  0  0  0  0
  -24.8872  -32.2974   26.4676 H   0  0  0  0  0  0
  -25.7933  -30.9012   27.0206 H   0  0  0  0  0  0
  -26.3106  -29.6597   24.1379 H   0  0  0  0  0  0
  -27.3986  -29.7265   25.5025 H   0  0  0  0  0  0
  -27.9042  -30.4111   23.9791 H   0  0  0  0  0  0
  -27.2619  -33.3679   26.1966 H   0  0  0  0  0  0
  -28.3920  -32.6845   25.0370 H   0  0  0  0  0  0
  -28.0656  -31.8543   26.5505 H   0  0  0  0  0  0
  -28.2578  -38.0072   24.7505 H   0  0  0  0  0  0
  -28.1076  -36.2597   24.6309 H   0  0  0  0  0  0
  -27.2284  -37.1428   25.8870 H   0  0  0  0  0  0
  -20.9563  -29.8727   21.6687 H   0  0  0  0  0  0
  -26.0135  -38.2774   24.1406 H   0  0  0  0  0  0
  -28.1889  -21.1083   21.4182 H   0  0  0  0  0  0
  -29.8762  -21.3287   21.2864 H   0  0  0  0  0  0
  -29.6013  -19.6459   19.0639 H   0  0  0  0  0  0
  -28.1191  -19.2319   19.8080 H   0  0  0  0  0  0
  -28.1428  -22.5960   19.0374 H   0  0  0  0  0  0
  -29.7078  -23.0579   19.5436 H   0  0  0  0  0  0
  -30.9755  -18.1979   20.5921 H   0  0  0  0  0  0
  -29.7423  -18.1293   21.7770 H   0  0  0  0  0  0
  -28.3515  -24.3288   21.5981 H   0  0  0  0  0  0
  -26.9917  -24.1871   20.5767 H   0  0  0  0  0  0
  -28.6848  -16.2096   20.4174 H   0  0  0  0  0  0
  1 25  1  0  0  0
  1 30  2  0  0  0
  1 76  1  0  0  0
  2  3  1  0  0  0
  2 25  1  0  0  0
  2 77  1  0  0  0
  2 78  1  0  0  0
  3  4  1  0  0  0
  3 79  1  0  0  0
  3 80  1  0  0  0
  4  5  1  0  0  0
  4 81  1  0  0  0
  4 82  1  0  0  0
  5  6  1  0  0  0
  5 26  1  0  0  0
  5 83  1  0  0  0
  6 25  1  0  0  0
  6 84  1  0  0  0
  6 85  1  0  0  0
  7  8  2  0  0  0
  7 26  1  0  0  0
  7 29  1  0  0  0
  8  9  1  0  0  0
  8 22  1  0  0  0
  9 10  1  0  0  0
  9 27  2  0  0  0
 10 11  2  0  0  0
 10 15  1  0  0  0
 11 12  1  0  0  0
 11 86  1  0  0  0
 12 13  2  0  0  0
 12 87  1  0  0  0
 13 14  1  0  0  0
 13 31  1  0  0  0
 14 15  2  0  0  0
 14 88  1  0  0  0
 15 89  1  0  0  0
 16 17  2  0  0  0
 16 21  1  0  0  0
 16 31  1  0  0  0
 17 18  1  0  0  0
 17 90  1  0  0  0
 18 19  2  0  0  0
 18 91  1  0  0  0
 19 20  1  0  0  0
 19 24  1  0  0  0
 20 21  2  0  0  0
 20 92  1  0  0  0
 21 23  1  0  0  0
 22 28  1  0  0  0
 22 32  2  0  0  0
 26 27  1  0  0  0
 28 93  1  0  0  0
 28 94  1  0  0  0
 29 95  1  0  0  0
 29 96  1  0  0  0
 33 34  1  0  0  0
 33 66  1  0  0  0
 33 70  2  0  0  0
 34 36  1  0  0  0
 34 59  1  0  0  0
 34 97  1  0  0  0
 35 44  2  0  0  0
 35 45  1  0  0  0
 35 68  1  0  0  0
 36 56  1  0  0  0
 36 98  1  0  0  0
 37 39  1  0  0  0
 37 47  1  0  0  0
 37 66  1  0  0  0
 37 99  1  0  0  0
 38 43  2  0  0  0
 38 46  1  0  0  0
 38 47  1  0  0  0
 39 64  1  0  0  0
 39 67  2  0  0  0
 40 52  1  0  0  0
 40 53  2  0  0  0
 40 58  1  0  0  0
 41100  1  0  0  0
 41101  1  0  0  0
 41102  1  0  0  0
 41 48  1  0  0  0
 42 43  1  0  0  0
 42 66  1  0  0  0
 42103  1  0  0  0
 42104  1  0  0  0
 43 44  1  0  0  0
 44105  1  0  0  0
 45 46  2  0  0  0
 45106  1  0  0  0
 46107  1  0  0  0
 47108  1  0  0  0
 47109  1  0  0  0
 48 56  1  0  0  0
 48 65  1  0  0  0
 48110  1  0  0  0
 49 50  1  0  0  0
 49 53  1  0  0  0
 49 64  1  0  0  0
 49111  1  0  0  0
 50 51  1  0  0  0
 50112  1  0  0  0
 50113  1  0  0  0
 51 52  1  0  0  0
 51114  1  0  0  0
 51115  1  0  0  0
 52116  1  0  0  0
 52117  1  0  0  0
 53 54  1  0  0  0
 54 55  2  0  0  0
 54118  1  0  0  0
 55 57  1  0  0  0
 55119  1  0  0  0
 56 69  2  0  0  0
 57 58  2  0  0  0
 57120  1  0  0  0
 58121  1  0  0  0
 59 60  1  0  0  0
 59 61  1  0  0  0
 59 62  1  0  0  0
 60122  1  0  0  0
 60123  1  0  0  0
 60124  1  0  0  0
 61125  1  0  0  0
 61126  1  0  0  0
 61127  1  0  0  0
 62128  1  0  0  0
 62129  1  0  0  0
 62130  1  0  0  0
 63 65  1  0  0  0
 63131  1  0  0  0
 63132  1  0  0  0
 63133  1  0  0  0
 64134  1  0  0  0
 65135  1  0  0  0
 68 75  1  0  0  0
 71 72  1  0  0  0
 71 73  1  0  0  0
 71136  1  0  0  0
 71137  1  0  0  0
 72 74  1  0  0  0
 72138  1  0  0  0
 72139  1  0  0  0
 73 75  1  0  0  0
 73140  1  0  0  0
 73141  1  0  0  0
 74 76  1  0  0  0
 74142  1  0  0  0
 74143  1  0  0  0
 75144  1  0  0  0
 75145  1  0  0  0
 76146  1  0  0  0
M  ISO  4   1 100  68 101  75 101  76 100
M  END
> <chiral flag>
0

> <version>
0

> <s_m_source_file>
/data/baiqing/PycharmProjects/Reinvent-master-3.2/result/LINK_invent/BTK/process_docking_weight1_custom_sum_contain_oxygen_bond_distance_aromatic_linkinvent_7_9_3/rearranged_h_0002.sdf

> <i_m_source_file_index>
21

> <r_mmod_Potential_Energy-OPLS-2005>
1145.12805175781

> <r_mmod_Stretch_Energy-OPLS-2005>
551.795166015625

> <r_mmod_Bend_Energy-OPLS-2005>
420.130432128906

> <r_mmod_Torsional_Energy-OPLS-2005>
235.50422668457

> <r_mmod_Improper_Torsional_Energy-OPLS-2005>
4.20592355728149

> <r_mmod_Van_der_Waal_Energy-OPLS-2005>
108.776268005371

> <r_mmod_Electrostatic_Energy-OPLS-2005>
-349.052825927734

> <r_mmod_Solvation_Energy-OPLS-2005>
-209.454177856445

> <b_mmod_Minimization_Converged-OPLS-2005>
0

> <r_mmod_RMS_Derivative-OPLS-2005>
0.315360128879547

$$$$
21
                    3D
 Structure written by MMmdl.
140147  0  0  1  0            999 V2000
  -30.1611  -16.0041   20.3080 C   0  0  0  0  0  0
  -30.3940  -13.3709   19.5193 C   0  0  0  0  0  0
  -29.5602  -12.7495   18.3505 C   0  0  0  0  0  0
  -28.1679  -12.3098   18.8207 C   0  0  0  0  0  0
  -27.5837  -13.3431   19.8035 C   0  0  2  0  0  0
  -28.5794  -13.8362   20.8889 C   0  0  0  0  0  0
  -25.2278  -13.8329   20.5856 C   0  0  0  0  0  0
  -24.1700  -13.0433   20.9315 C   0  0  0  0  0  0
  -24.6450  -11.6960   20.8763 C   0  0  0  0  0  0
  -23.9156  -10.4295   21.0384 C   0  0  0  0  0  0
  -24.3676   -9.4207   21.9173 C   0  0  0  0  0  0
  -23.6326   -8.2253   22.0753 C   0  0  0  0  0  0
  -22.4305   -8.0296   21.3544 C   0  0  0  0  0  0
  -21.9960   -9.0273   20.4641 C   0  0  0  0  0  0
  -22.7315  -10.2138   20.3042 C   0  0  0  0  0  0
  -21.6863   -6.0747   22.5279 C   0  0  0  0  0  0
  -21.4022   -6.5646   23.8213 C   0  0  0  0  0  0
  -21.3661   -5.6796   24.9173 C   0  0  0  0  0  0
  -21.6044   -4.3059   24.7222 C   0  0  0  0  0  0
  -21.8818   -3.8153   23.4342 C   0  0  0  0  0  0
  -21.9196   -4.6972   22.3400 C   0  0  0  0  0  0
  -22.7702  -13.5137   21.1934 C   0  0  0  0  0  0
  -22.1662   -4.2158   21.0977 F   0  0  0  0  0  0
  -21.5626   -3.4540   25.7734 F   0  0  0  0  0  0
  -29.6775  -14.5802   20.1919 N   0  0  0  0  0  0
  -26.2769  -12.9729   20.3291 N   0  0  0  0  0  0
  -25.9412  -11.6758   20.5682 N   0  0  0  0  0  0
  -22.0374  -12.8106   22.0483 N   0  0  0  0  0  0
  -25.3817  -15.2078   20.4306 N   0  0  0  0  0  0
  -31.4087  -15.8722   20.2822 O   0  0  0  0  0  0
  -21.6655   -6.8899   21.4244 O   0  0  0  0  0  0
  -22.3368  -14.5432   20.6768 O   0  0  0  0  0  0
  -24.7122  -31.7741   23.1306 C   0  0  0  0  0  0
  -25.9575  -32.4339   23.7956 C   0  0  1  0  0  0
  -27.2357  -26.4414   20.2493 C   0  0  0  0  0  0
  -25.6043  -33.8173   24.1821 N   0  0  0  0  0  0
  -23.5502  -30.3697   21.4913 C   0  0  2  0  0  0
  -25.0042  -28.6446   20.1367 C   0  0  0  0  0  0
  -22.7896  -29.4343   22.4700 C   0  0  0  0  0  0
  -18.0162  -28.1569   22.8214 C   0  0  0  0  0  0
  -24.1498  -36.7093   23.2657 C   0  0  0  0  0  0
  -26.1405  -30.4200   21.4324 C   0  0  0  0  0  0
  -26.2010  -28.9529   20.7936 C   0  0  0  0  0  0
  -27.2917  -27.8910   20.8024 C   0  0  0  0  0  0
  -25.9991  -26.4075   19.5352 C   0  0  0  0  0  0
  -24.9575  -27.3998   19.4818 C   0  0  0  0  0  0
  -23.8153  -29.6344   20.1422 C   0  0  0  0  0  0
  -25.4158  -36.2817   24.0263 C   0  0  1  0  0  0
  -20.6073  -28.3875   23.0881 C   0  0  2  0  0  0
  -20.7786  -26.9756   22.4608 C   0  0  0  0  0  0
  -19.5498  -26.4216   21.7088 C   0  0  0  0  0  0
  -18.1097  -26.8638   22.0237 C   0  0  0  0  0  0
  -19.1588  -28.8842   23.2637 C   0  0  0  0  0  0
  -18.9570  -30.1345   23.8911 C   0  0  0  0  0  0
  -17.6624  -30.6560   24.0765 C   0  0  0  0  0  0
  -25.9160  -34.9216   23.4892 C   0  0  0  0  0  0
  -16.5419  -29.9202   23.6574 C   0  0  0  0  0  0
  -16.7219  -28.6723   23.0397 C   0  0  0  0  0  0
  -26.4648  -31.6466   25.0680 C   0  0  0  0  0  0
  -25.3637  -31.3855   26.1238 C   0  0  0  0  0  0
  -27.0614  -30.2776   24.6755 C   0  0  0  0  0  0
  -27.6047  -32.4377   25.7524 C   0  0  0  0  0  0
  -27.5558  -37.1705   24.8467 C   0  0  0  0  0  0
  -21.4495  -29.3435   22.3578 N   0  0  0  0  0  0
  -26.4262  -37.3606   23.9409 N   0  0  0  0  0  0
  -24.8283  -30.8941   22.0696 N   0  0  0  0  0  0
  -23.4210  -28.7802   23.3033 O   0  0  0  0  0  0
  -28.1967  -25.1262   20.2226 O   0  0  0  0  0  0
  -26.5824  -34.8842   22.4527 O   0  0  0  0  0  0
  -23.6085  -32.0940   23.6097 O   0  0  0  0  0  0
  -28.7705  -21.2825   19.9969 C   0  0  0  0  0  0
  -29.3625  -19.3536   20.6014 C   0  0  0  0  0  0
  -28.2110  -23.2498   20.5175 C   0  0  0  0  0  0
  -29.4079  -17.4693   20.2741 N   0  0  0  0  0  0
  -31.3466  -13.7011   19.1035 H   0  0  0  0  0  0
  -30.6640  -12.6081   20.2520 H   0  0  0  0  0  0
  -30.0920  -11.9085   17.9034 H   0  0  0  0  0  0
  -29.4512  -13.4961   17.5625 H   0  0  0  0  0  0
  -28.2677  -11.3481   19.3257 H   0  0  0  0  0  0
  -27.5014  -12.1499   17.9722 H   0  0  0  0  0  0
  -27.3925  -14.2099   19.1687 H   0  0  0  0  0  0
  -28.9347  -13.0208   21.5211 H   0  0  0  0  0  0
  -28.0774  -14.5353   21.5592 H   0  0  0  0  0  0
  -25.2813   -9.5677   22.4762 H   0  0  0  0  0  0
  -24.0020   -7.4647   22.7483 H   0  0  0  0  0  0
  -21.0888   -8.8807   19.8948 H   0  0  0  0  0  0
  -22.3776  -10.9680   19.6153 H   0  0  0  0  0  0
  -21.2018   -7.6155   23.9719 H   0  0  0  0  0  0
  -21.1482   -6.0525   25.9077 H   0  0  0  0  0  0
  -22.0594   -2.7615   23.2840 H   0  0  0  0  0  0
  -22.4027  -11.9789   22.4882 H   0  0  0  0  0  0
  -21.0974  -13.1085   22.2674 H   0  0  0  0  0  0
  -24.6092  -15.8546   20.5480 H   0  0  0  0  0  0
  -26.2271  -15.6547   20.1017 H   0  0  0  0  0  0
  -26.7689  -32.4750   23.0689 H   0  0  0  0  0  0
  -25.0068  -33.9166   24.9896 H   0  0  0  0  0  0
  -22.8946  -31.2157   21.2742 H   0  0  0  0  0  0
  -23.3788  -35.9392   23.3244 H   0  0  0  0  0  0
  -24.3558  -36.8846   22.2087 H   0  0  0  0  0  0
  -23.7232  -37.6231   23.6804 H   0  0  0  0  0  0
  -26.3681  -31.1235   20.6306 H   0  0  0  0  0  0
  -26.9832  -30.5006   22.1060 H   0  0  0  0  0  0
  -28.1975  -28.1537   21.3305 H   0  0  0  0  0  0
  -25.7911  -25.4872   19.0076 H   0  0  0  0  0  0
  -24.0632  -27.1495   18.9276 H   0  0  0  0  0  0
  -24.0136  -30.3783   19.3698 H   0  0  0  0  0  0
  -22.9130  -29.1146   19.8155 H   0  0  0  0  0  0
  -25.1379  -36.1542   25.0751 H   0  0  0  0  0  0
  -20.9993  -28.3319   24.1064 H   0  0  0  0  0  0
  -21.1583  -26.3040   23.2422 H   0  0  0  0  0  0
  -21.6163  -26.9721   21.7601 H   0  0  0  0  0  0
  -19.3880  -26.0269   22.7114 H   0  0  0  0  0  0
  -19.6128  -27.3462   21.1307 H   0  0  0  0  0  0
  -17.5815  -27.0283   21.0810 H   0  0  0  0  0  0
  -17.5017  -26.0951   22.5175 H   0  0  0  0  0  0
  -19.8097  -30.7074   24.2302 H   0  0  0  0  0  0
  -17.5302  -31.6181   24.5523 H   0  0  0  0  0  0
  -15.5460  -30.3152   23.8048 H   0  0  0  0  0  0
  -15.8546  -28.1225   22.6995 H   0  0  0  0  0  0
  -24.5858  -30.7178   25.7514 H   0  0  0  0  0  0
  -24.8793  -32.3100   26.4389 H   0  0  0  0  0  0
  -25.7743  -30.9184   27.0198 H   0  0  0  0  0  0
  -26.3378  -29.6321   24.1770 H   0  0  0  0  0  0
  -27.3966  -29.7315   25.5583 H   0  0  0  0  0  0
  -27.9387  -30.3845   24.0374 H   0  0  0  0  0  0
  -27.2557  -33.3779   26.1808 H   0  0  0  0  0  0
  -28.4013  -32.6778   25.0469 H   0  0  0  0  0  0
  -28.0543  -31.8704   26.5683 H   0  0  0  0  0  0
  -28.2525  -38.0046   24.7520 H   0  0  0  0  0  0
  -28.1104  -36.2565   24.6288 H   0  0  0  0  0  0
  -27.2271  -37.1326   25.8867 H   0  0  0  0  0  0
  -20.9859  -29.9264   21.6745 H   0  0  0  0  0  0
  -26.0065  -38.2641   24.1431 H   0  0  0  0  0  0
  -27.9479  -21.0312   19.3274 H   0  0  0  0  0  0
  -29.5799  -21.5046   19.3014 H   0  0  0  0  0  0
  -28.8623  -19.3135   21.5693 H   0  0  0  0  0  0
  -30.4044  -19.5229   20.8749 H   0  0  0  0  0  0
  -28.6621  -23.2870   21.5090 H   0  0  0  0  0  0
  -27.1534  -23.1048   20.7380 H   0  0  0  0  0  0
  -28.4467  -17.2150   20.0887 H   0  0  0  0  0  0
  1 25  1  0  0  0
  1 30  2  0  0  0
  1 74  1  0  0  0
  2  3  1  0  0  0
  2 25  1  0  0  0
  2 75  1  0  0  0
  2 76  1  0  0  0
  3  4  1  0  0  0
  3 77  1  0  0  0
  3 78  1  0  0  0
  4  5  1  0  0  0
  4 79  1  0  0  0
  4 80  1  0  0  0
  5  6  1  0  0  0
  5 26  1  0  0  0
  5 81  1  0  0  0
  6 25  1  0  0  0
  6 82  1  0  0  0
  6 83  1  0  0  0
  7  8  2  0  0  0
  7 26  1  0  0  0
  7 29  1  0  0  0
  8  9  1  0  0  0
  8 22  1  0  0  0
  9 10  1  0  0  0
  9 27  2  0  0  0
 10 11  2  0  0  0
 10 15  1  0  0  0
 11 12  1  0  0  0
 11 84  1  0  0  0
 12 13  2  0  0  0
 12 85  1  0  0  0
 13 14  1  0  0  0
 13 31  1  0  0  0
 14 15  2  0  0  0
 14 86  1  0  0  0
 15 87  1  0  0  0
 16 17  2  0  0  0
 16 21  1  0  0  0
 16 31  1  0  0  0
 17 18  1  0  0  0
 17 88  1  0  0  0
 18 19  2  0  0  0
 18 89  1  0  0  0
 19 20  1  0  0  0
 19 24  1  0  0  0
 20 21  2  0  0  0
 20 90  1  0  0  0
 21 23  1  0  0  0
 22 28  1  0  0  0
 22 32  2  0  0  0
 26 27  1  0  0  0
 28 91  1  0  0  0
 28 92  1  0  0  0
 29 93  1  0  0  0
 29 94  1  0  0  0
 33 34  1  0  0  0
 33 66  1  0  0  0
 33 70  2  0  0  0
 34 36  1  0  0  0
 34 59  1  0  0  0
 34 95  1  0  0  0
 35 44  2  0  0  0
 35 45  1  0  0  0
 35 68  1  0  0  0
 36 56  1  0  0  0
 36 96  1  0  0  0
 37 39  1  0  0  0
 37 47  1  0  0  0
 37 66  1  0  0  0
 37 97  1  0  0  0
 38 43  2  0  0  0
 38 46  1  0  0  0
 38 47  1  0  0  0
 39 64  1  0  0  0
 39 67  2  0  0  0
 40 52  1  0  0  0
 40 53  2  0  0  0
 40 58  1  0  0  0
 41 98  1  0  0  0
 41 99  1  0  0  0
 41100  1  0  0  0
 41 48  1  0  0  0
 42 43  1  0  0  0
 42 66  1  0  0  0
 42101  1  0  0  0
 42102  1  0  0  0
 43 44  1  0  0  0
 44103  1  0  0  0
 45 46  2  0  0  0
 45104  1  0  0  0
 46105  1  0  0  0
 47106  1  0  0  0
 47107  1  0  0  0
 48 56  1  0  0  0
 48 65  1  0  0  0
 48108  1  0  0  0
 49 50  1  0  0  0
 49 53  1  0  0  0
 49 64  1  0  0  0
 49109  1  0  0  0
 50 51  1  0  0  0
 50110  1  0  0  0
 50111  1  0  0  0
 51 52  1  0  0  0
 51112  1  0  0  0
 51113  1  0  0  0
 52114  1  0  0  0
 52115  1  0  0  0
 53 54  1  0  0  0
 54 55  2  0  0  0
 54116  1  0  0  0
 55 57  1  0  0  0
 55117  1  0  0  0
 56 69  2  0  0  0
 57 58  2  0  0  0
 57118  1  0  0  0
 58119  1  0  0  0
 59 60  1  0  0  0
 59 61  1  0  0  0
 59 62  1  0  0  0
 60120  1  0  0  0
 60121  1  0  0  0
 60122  1  0  0  0
 61123  1  0  0  0
 61124  1  0  0  0
 61125  1  0  0  0
 62126  1  0  0  0
 62127  1  0  0  0
 62128  1  0  0  0
 63 65  1  0  0  0
 63129  1  0  0  0
 63130  1  0  0  0
 63131  1  0  0  0
 64132  1  0  0  0
 65133  1  0  0  0
 68 73  1  0  0  0
 71 72  1  0  0  0
 71 73  1  0  0  0
 71134  1  0  0  0
 71135  1  0  0  0
 72 74  1  0  0  0
 72136  1  0  0  0
 72137  1  0  0  0
 73138  1  0  0  0
 73139  1  0  0  0
 74140  1  0  0  0
M  ISO  4   1 100  68 101  73 101  74 100
M  END
> <chiral flag>
0

> <version>
0

> <s_m_source_file>
/data/baiqing/PycharmProjects/Reinvent-master-3.2/result/LINK_invent/BTK/process_docking_weight1_custom_sum_contain_oxygen_bond_distance_aromatic_linkinvent_7_9_3/rearranged_h_0002.sdf

> <i_m_source_file_index>
22

> <r_mmod_Potential_Energy-OPLS-2005>
4439.1796875

> <r_mmod_Stretch_Energy-OPLS-2005>
1928.78686523438

> <r_mmod_Bend_Energy-OPLS-2005>
1134.07287597656

> <r_mmod_Torsional_Energy-OPLS-2005>
253.740341186523

> <r_mmod_Improper_Torsional_Energy-OPLS-2005>
5.21059560775757

> <r_mmod_Van_der_Waal_Energy-OPLS-2005>
136.971328735352

> <r_mmod_Electrostatic_Energy-OPLS-2005>
-343.119842529297

> <r_mmod_Solvation_Energy-OPLS-2005>
-223.109710693359

> <b_mmod_Minimization_Converged-OPLS-2005>
0

> <r_mmod_RMS_Derivative-OPLS-2005>
0.0710311159491539

$$$$
22
                    3D
 Structure written by MMmdl.
154162  0  0  1  0            999 V2000
  -30.7108  -14.6268   20.4661 C   0  0  0  0  0  0
  -30.4192  -12.3707   19.4872 C   0  0  0  0  0  0
  -29.5234  -12.5164   18.2410 C   0  0  0  0  0  0
  -28.0376  -12.3904   18.6298 C   0  0  0  0  0  0
  -27.6531  -13.2519   19.8619 C   0  0  2  0  0  0
  -28.7005  -13.1550   20.9979 C   0  0  0  0  0  0
  -25.2496  -13.8246   20.5676 C   0  0  0  0  0  0
  -24.1804  -13.0482   20.9207 C   0  0  0  0  0  0
  -24.6450  -11.6957   20.8755 C   0  0  0  0  0  0
  -23.9153  -10.4331   21.0423 C   0  0  0  0  0  0
  -24.3706   -9.4225   21.9188 C   0  0  0  0  0  0
  -23.6355   -8.2271   22.0761 C   0  0  0  0  0  0
  -22.4322   -8.0347   21.3568 C   0  0  0  0  0  0
  -21.9973   -9.0304   20.4677 C   0  0  0  0  0  0
  -22.7335  -10.2183   20.3052 C   0  0  0  0  0  0
  -21.6858   -6.0791   22.5275 C   0  0  0  0  0  0
  -21.4036   -6.5665   23.8220 C   0  0  0  0  0  0
  -21.3658   -5.6802   24.9155 C   0  0  0  0  0  0
  -21.6040   -4.3060   24.7199 C   0  0  0  0  0  0
  -21.8812   -3.8175   23.4303 C   0  0  0  0  0  0
  -21.9198   -4.7020   22.3371 C   0  0  0  0  0  0
  -22.7825  -13.5260   21.1856 C   0  0  0  0  0  0
  -22.1665   -4.2229   21.0940 F   0  0  0  0  0  0
  -21.5620   -3.4527   25.7690 F   0  0  0  0  0  0
  -30.0313  -13.4359   20.4296 N   0  0  0  0  0  0
  -26.2993  -12.9540   20.3339 N   0  0  0  0  0  0
  -25.9390  -11.6661   20.5770 N   0  0  0  0  0  0
  -22.0480  -12.8205   22.0431 N   0  0  0  0  0  0
  -25.4154  -15.2005   20.4022 N   0  0  0  0  0  0
  -31.8736  -14.7150   20.0715 O   0  0  0  0  0  0
  -21.6655   -6.8958   21.4251 O   0  0  0  0  0  0
  -22.3449  -14.5531   20.6733 O   0  0  0  0  0  0
  -24.6196  -31.8640   23.2021 C   0  0  0  0  0  0
  -25.9071  -32.4813   23.8347 C   0  0  1  0  0  0
  -27.2386  -27.4003   20.1077 C   0  0  0  0  0  0
  -25.5927  -33.8608   24.2299 N   0  0  0  0  0  0
  -23.4065  -30.4865   21.5427 C   0  0  2  0  0  0
  -24.8561  -28.9438   20.1140 C   0  0  0  0  0  0
  -22.7404  -29.4636   22.4923 C   0  0  0  0  0  0
  -18.0277  -28.1362   22.8461 C   0  0  0  0  0  0
  -24.1501  -36.7360   23.2618 C   0  0  0  0  0  0
  -25.9342  -30.8271   21.3454 C   0  0  0  0  0  0
  -26.0172  -29.4534   20.7055 C   0  0  0  0  0  0
  -27.2124  -28.6911   20.6949 C   0  0  0  0  0  0
  -26.0535  -26.9064   19.5192 C   0  0  0  0  0  0
  -24.8715  -27.6705   19.5174 C   0  0  0  0  0  0
  -23.6182  -29.8132   20.1587 C   0  0  0  0  0  0
  -25.4097  -36.3108   24.0334 C   0  0  1  0  0  0
  -20.5863  -28.3656   23.1281 C   0  0  2  0  0  0
  -20.6759  -26.9385   22.5388 C   0  0  0  0  0  0
  -19.5744  -26.6370   21.5172 C   0  0  0  0  0  0
  -18.1925  -26.7905   22.1596 C   0  0  0  0  0  0
  -19.1523  -28.8816   23.2891 C   0  0  0  0  0  0
  -18.9467  -30.1411   23.8933 C   0  0  0  0  0  0
  -17.6464  -30.6554   24.0560 C   0  0  0  0  0  0
  -25.9024  -34.9481   23.5108 C   0  0  0  0  0  0
  -16.5353  -29.9057   23.6307 C   0  0  0  0  0  0
  -16.7261  -28.6477   23.0315 C   0  0  0  0  0  0
  -26.4471  -31.6589   25.0691 C   0  0  0  0  0  0
  -25.3762  -31.3717   26.1473 C   0  0  0  0  0  0
  -27.0264  -30.3038   24.6016 C   0  0  0  0  0  0
  -27.6028  -32.4292   25.7504 C   0  0  0  0  0  0
  -27.5589  -37.1826   24.8427 C   0  0  0  0  0  0
  -21.4124  -29.3057   22.3696 N   0  0  0  0  0  0
  -26.4271  -37.3810   23.9410 N   0  0  0  0  0  0
  -24.6729  -31.0717   22.0919 N   0  0  0  0  0  0
  -23.4162  -28.8153   23.2953 O   0  0  0  0  0  0
  -28.4218  -26.6753   20.1424 O   0  0  0  0  0  0
  -26.5575  -34.8943   22.4663 O   0  0  0  0  0  0
  -23.5388  -32.1385   23.7425 O   0  0  0  0  0  0
  -31.5993  -19.1266   20.0204 C   0  0  0  0  0  0
  -31.4733  -17.7336   20.2361 C   0  0  0  0  0  0
  -30.4851  -19.9795   20.1277 C   0  0  0  0  0  0
  -29.1027  -18.0439   20.6408 C   0  0  0  0  0  0
  -30.2132  -17.1554   20.5486 C   0  0  0  0  0  0
  -29.2176  -19.4529   20.4527 C   0  0  0  0  0  0
  -28.1039  -24.1997   20.6508 C   0  0  0  0  0  0
  -28.0625  -22.7514   20.0525 C   0  0  0  0  0  0
  -28.4862  -25.3201   19.6377 C   0  0  0  0  0  0
  -28.2288  -21.5984   21.0890 C   0  0  0  0  0  0
  -29.9829  -15.7353   20.7930 N   0  0  0  0  0  0
  -28.0923  -20.2637   20.5520 O   0  0  0  0  0  0
  -31.4728  -12.4190   19.2138 H   0  0  0  0  0  0
  -30.2789  -11.3944   19.9547 H   0  0  0  0  0  0
  -29.7904  -11.7652   17.4988 H   0  0  0  0  0  0
  -29.7031  -13.4835   17.7639 H   0  0  0  0  0  0
  -27.8398  -11.3397   18.8463 H   0  0  0  0  0  0
  -27.4064  -12.6547   17.7808 H   0  0  0  0  0  0
  -27.6568  -14.2826   19.5104 H   0  0  0  0  0  0
  -28.6858  -12.1606   21.4404 H   0  0  0  0  0  0
  -28.4554  -13.8473   21.8063 H   0  0  0  0  0  0
  -25.2893   -9.5654   22.4706 H   0  0  0  0  0  0
  -24.0105   -7.4623   22.7406 H   0  0  0  0  0  0
  -21.0911   -8.8836   19.8935 H   0  0  0  0  0  0
  -22.3856  -10.9714   19.6087 H   0  0  0  0  0  0
  -21.2051   -7.6177   23.9746 H   0  0  0  0  0  0
  -21.1477   -6.0515   25.9063 H   0  0  0  0  0  0
  -22.0607   -2.7655   23.2744 H   0  0  0  0  0  0
  -22.4137  -11.9905   22.4848 H   0  0  0  0  0  0
  -21.1050  -13.1135   22.2587 H   0  0  0  0  0  0
  -24.6281  -15.8415   20.4170 H   0  0  0  0  0  0
  -26.2419  -15.6114   19.9897 H   0  0  0  0  0  0
  -26.7149  -32.5524   23.1123 H   0  0  0  0  0  0
  -25.0169  -33.9761   25.0508 H   0  0  0  0  0  0
  -22.6994  -31.3054   21.3968 H   0  0  0  0  0  0
  -23.3746  -35.9703   23.3197 H   0  0  0  0  0  0
  -24.3624  -36.9063   22.2048 H   0  0  0  0  0  0
  -23.7256  -37.6557   23.6668 H   0  0  0  0  0  0
  -26.0212  -31.5765   20.5588 H   0  0  0  0  0  0
  -26.8330  -30.9120   21.9428 H   0  0  0  0  0  0
  -28.1098  -29.0890   21.1483 H   0  0  0  0  0  0
  -26.0083  -25.9245   19.0690 H   0  0  0  0  0  0
  -23.9794  -27.2608   19.0642 H   0  0  0  0  0  0
  -23.7289  -30.5858   19.3970 H   0  0  0  0  0  0
  -22.7426  -29.2353   19.8586 H   0  0  0  0  0  0
  -25.1253  -36.1971   25.0824 H   0  0  0  0  0  0
  -20.9995  -28.3240   24.1390 H   0  0  0  0  0  0
  -20.5618  -26.2276   23.3578 H   0  0  0  0  0  0
  -21.6647  -26.7390   22.1206 H   0  0  0  0  0  0
  -19.6898  -25.6286   21.1194 H   0  0  0  0  0  0
  -19.6673  -27.3190   20.6706 H   0  0  0  0  0  0
  -17.4188  -26.6632   21.4011 H   0  0  0  0  0  0
  -18.0345  -26.0037   22.8981 H   0  0  0  0  0  0
  -19.7957  -30.7200   24.2341 H   0  0  0  0  0  0
  -17.5028  -31.6246   24.5133 H   0  0  0  0  0  0
  -15.5352  -30.2955   23.7622 H   0  0  0  0  0  0
  -15.8670  -28.0802   22.6994 H   0  0  0  0  0  0
  -24.5916  -30.7062   25.7868 H   0  0  0  0  0  0
  -24.9000  -32.2896   26.4932 H   0  0  0  0  0  0
  -25.8179  -30.8912   27.0217 H   0  0  0  0  0  0
  -26.2765  -29.6850   24.1087 H   0  0  0  0  0  0
  -27.4076  -29.7228   25.4420 H   0  0  0  0  0  0
  -27.8578  -30.4377   23.9094 H   0  0  0  0  0  0
  -27.2614  -33.3568   26.2114 H   0  0  0  0  0  0
  -28.3867  -32.6885   25.0377 H   0  0  0  0  0  0
  -28.0647  -31.8393   26.5440 H   0  0  0  0  0  0
  -28.2524  -38.0205   24.7571 H   0  0  0  0  0  0
  -28.1175  -36.2752   24.6087 H   0  0  0  0  0  0
  -27.2351  -37.1290   25.8839 H   0  0  0  0  0  0
  -20.9231  -29.8897   21.7058 H   0  0  0  0  0  0
  -26.0160  -38.2889   24.1431 H   0  0  0  0  0  0
  -32.5559  -19.5634   19.7691 H   0  0  0  0  0  0
  -32.3629  -17.1298   20.1575 H   0  0  0  0  0  0
  -30.6114  -21.0373   19.9408 H   0  0  0  0  0  0
  -28.1325  -17.6319   20.8764 H   0  0  0  0  0  0
  -28.8328  -24.2229   21.4612 H   0  0  0  0  0  0
  -27.1433  -24.4283   21.1122 H   0  0  0  0  0  0
  -28.8428  -22.6539   19.2980 H   0  0  0  0  0  0
  -27.1116  -22.6214   19.5272 H   0  0  0  0  0  0
  -27.9654  -25.2114   18.6896 H   0  0  0  0  0  0
  -29.5315  -25.1508   19.3834 H   0  0  0  0  0  0
  -27.4483  -21.7030   21.8432 H   0  0  0  0  0  0
  -29.1667  -21.6970   21.6376 H   0  0  0  0  0  0
  -29.0543  -15.5175   21.1144 H   0  0  0  0  0  0
  1 25  1  0  0  0
  1 30  2  0  0  0
  1 81  1  0  0  0
  2  3  1  0  0  0
  2 25  1  0  0  0
  2 83  1  0  0  0
  2 84  1  0  0  0
  3  4  1  0  0  0
  3 85  1  0  0  0
  3 86  1  0  0  0
  4  5  1  0  0  0
  4 87  1  0  0  0
  4 88  1  0  0  0
  5  6  1  0  0  0
  5 26  1  0  0  0
  5 89  1  0  0  0
  6 25  1  0  0  0
  6 90  1  0  0  0
  6 91  1  0  0  0
  7  8  2  0  0  0
  7 26  1  0  0  0
  7 29  1  0  0  0
  8  9  1  0  0  0
  8 22  1  0  0  0
  9 10  1  0  0  0
  9 27  2  0  0  0
 10 11  2  0  0  0
 10 15  1  0  0  0
 11 12  1  0  0  0
 11 92  1  0  0  0
 12 13  2  0  0  0
 12 93  1  0  0  0
 13 14  1  0  0  0
 13 31  1  0  0  0
 14 15  2  0  0  0
 14 94  1  0  0  0
 15 95  1  0  0  0
 16 17  2  0  0  0
 16 21  1  0  0  0
 16 31  1  0  0  0
 17 18  1  0  0  0
 17 96  1  0  0  0
 18 19  2  0  0  0
 18 97  1  0  0  0
 19 20  1  0  0  0
 19 24  1  0  0  0
 20 21  2  0  0  0
 20 98  1  0  0  0
 21 23  1  0  0  0
 22 28  1  0  0  0
 22 32  2  0  0  0
 26 27  1  0  0  0
 28 99  1  0  0  0
 28100  1  0  0  0
 29101  1  0  0  0
 29102  1  0  0  0
 33 34  1  0  0  0
 33 66  1  0  0  0
 33 70  2  0  0  0
 34 36  1  0  0  0
 34 59  1  0  0  0
 34103  1  0  0  0
 35 44  2  0  0  0
 35 45  1  0  0  0
 35 68  1  0  0  0
 36 56  1  0  0  0
 36104  1  0  0  0
 37 39  1  0  0  0
 37 47  1  0  0  0
 37 66  1  0  0  0
 37105  1  0  0  0
 38 43  2  0  0  0
 38 46  1  0  0  0
 38 47  1  0  0  0
 39 64  1  0  0  0
 39 67  2  0  0  0
 40 52  1  0  0  0
 40 53  2  0  0  0
 40 58  1  0  0  0
 41106  1  0  0  0
 41107  1  0  0  0
 41108  1  0  0  0
 41 48  1  0  0  0
 42 43  1  0  0  0
 42 66  1  0  0  0
 42109  1  0  0  0
 42110  1  0  0  0
 43 44  1  0  0  0
 44111  1  0  0  0
 45 46  2  0  0  0
 45112  1  0  0  0
 46113  1  0  0  0
 47114  1  0  0  0
 47115  1  0  0  0
 48 56  1  0  0  0
 48 65  1  0  0  0
 48116  1  0  0  0
 49 50  1  0  0  0
 49 53  1  0  0  0
 49 64  1  0  0  0
 49117  1  0  0  0
 50 51  1  0  0  0
 50118  1  0  0  0
 50119  1  0  0  0
 51 52  1  0  0  0
 51120  1  0  0  0
 51121  1  0  0  0
 52122  1  0  0  0
 52123  1  0  0  0
 53 54  1  0  0  0
 54 55  2  0  0  0
 54124  1  0  0  0
 55 57  1  0  0  0
 55125  1  0  0  0
 56 69  2  0  0  0
 57 58  2  0  0  0
 57126  1  0  0  0
 58127  1  0  0  0
 59 60  1  0  0  0
 59 61  1  0  0  0
 59 62  1  0  0  0
 60128  1  0  0  0
 60129  1  0  0  0
 60130  1  0  0  0
 61131  1  0  0  0
 61132  1  0  0  0
 61133  1  0  0  0
 62134  1  0  0  0
 62135  1  0  0  0
 62136  1  0  0  0
 63 65  1  0  0  0
 63137  1  0  0  0
 63138  1  0  0  0
 63139  1  0  0  0
 64140  1  0  0  0
 65141  1  0  0  0
 68 79  1  0  0  0
 71 72  2  0  0  0
 71 73  1  0  0  0
 71142  1  0  0  0
 72 75  1  0  0  0
 72143  1  0  0  0
 73 76  2  0  0  0
 73144  1  0  0  0
 74 75  2  0  0  0
 74 76  1  0  0  0
 74145  1  0  0  0
 75 81  1  0  0  0
 76 82  1  0  0  0
 77 78  1  0  0  0
 77 79  1  0  0  0
 77146  1  0  0  0
 77147  1  0  0  0
 78 80  1  0  0  0
 78148  1  0  0  0
 78149  1  0  0  0
 79150  1  0  0  0
 79151  1  0  0  0
 80 82  1  0  0  0
 80152  1  0  0  0
 80153  1  0  0  0
 81154  1  0  0  0
M  ISO  4   1 100  68 101  79 101  81 100
M  END
> <chiral flag>
0

> <version>
0

> <s_m_source_file>
/data/baiqing/PycharmProjects/Reinvent-master-3.2/result/LINK_invent/BTK/process_docking_weight1_custom_sum_contain_oxygen_bond_distance_aromatic_linkinvent_7_9_3/rearranged_h_0002.sdf

> <i_m_source_file_index>
23

> <r_mmod_Potential_Energy-OPLS-2005>
12.3938570022583

> <r_mmod_Stretch_Energy-OPLS-2005>
53.158374786377

> <r_mmod_Bend_Energy-OPLS-2005>
125.004516601562

> <r_mmod_Torsional_Energy-OPLS-2005>
215.281326293945

> <r_mmod_Improper_Torsional_Energy-OPLS-2005>
4.95515584945679

> <r_mmod_Van_der_Waal_Energy-OPLS-2005>
147.654434204102

> <r_mmod_Electrostatic_Energy-OPLS-2005>
-362.478637695312

> <r_mmod_Solvation_Energy-OPLS-2005>
-207.331604003906

> <b_mmod_Minimization_Converged-OPLS-2005>
0

> <r_mmod_RMS_Derivative-OPLS-2005>
6.90671491622925

$$$$
23
                    3D
 Structure written by MMmdl.
181188  0  0  1  0            999 V2000
  -30.7287  -14.4739   20.5391 C   0  0  0  0  0  0
  -30.4054  -12.3135   19.4065 C   0  0  0  0  0  0
  -29.4802  -12.5028   18.1918 C   0  0  0  0  0  0
  -28.0029  -12.3496   18.6086 C   0  0  0  0  0  0
  -27.6422  -13.1889   19.8591 C   0  0  2  0  0  0
  -28.6938  -13.0362   20.9781 C   0  0  0  0  0  0
  -25.2512  -13.7931   20.5698 C   0  0  0  0  0  0
  -24.1748  -13.0304   20.9204 C   0  0  0  0  0  0
  -24.6322  -11.6788   20.8752 C   0  0  0  0  0  0
  -23.8991  -10.4215   21.0427 C   0  0  0  0  0  0
  -24.3581   -9.4128   21.9184 C   0  0  0  0  0  0
  -23.6260   -8.2168   22.0719 C   0  0  0  0  0  0
  -22.4229   -8.0240   21.3532 C   0  0  0  0  0  0
  -21.9842   -9.0216   20.4663 C   0  0  0  0  0  0
  -22.7160  -10.2101   20.3088 C   0  0  0  0  0  0
  -21.6815   -6.0733   22.5280 C   0  0  0  0  0  0
  -21.4004   -6.5629   23.8229 C   0  0  0  0  0  0
  -21.3643   -5.6765   24.9179 C   0  0  0  0  0  0
  -21.6029   -4.3021   24.7217 C   0  0  0  0  0  0
  -21.8830   -3.8138   23.4335 C   0  0  0  0  0  0
  -21.9187   -4.6970   22.3402 C   0  0  0  0  0  0
  -22.7808  -13.5206   21.1873 C   0  0  0  0  0  0
  -22.1698   -4.2190   21.0974 F   0  0  0  0  0  0
  -21.5581   -3.4484   25.7718 F   0  0  0  0  0  0
  -30.0138  -13.3259   20.3998 N   0  0  0  0  0  0
  -26.2914  -12.9122   20.3326 N   0  0  0  0  0  0
  -25.9235  -11.6317   20.5760 N   0  0  0  0  0  0
  -22.0492  -12.8320   22.0558 N   0  0  0  0  0  0
  -25.4310  -15.1569   20.4191 N   0  0  0  0  0  0
  -31.8966  -14.5751   20.1750 O   0  0  0  0  0  0
  -21.6581   -6.8868   21.4237 O   0  0  0  0  0  0
  -22.3538  -14.5534   20.6711 O   0  0  0  0  0  0
  -24.6080  -31.8718   23.2146 C   0  0  0  0  0  0
  -25.9007  -32.4858   23.8394 C   0  0  1  0  0  0
  -27.2595  -27.4973   20.0606 C   0  0  0  0  0  0
  -25.5905  -33.8654   24.2344 N   0  0  0  0  0  0
  -23.3931  -30.4926   21.5549 C   0  0  2  0  0  0
  -24.8402  -28.9592   20.1226 C   0  0  0  0  0  0
  -22.7361  -29.4679   22.5044 C   0  0  0  0  0  0
  -18.0263  -28.1354   22.8483 C   0  0  0  0  0  0
  -24.1493  -36.7311   23.2620 C   0  0  0  0  0  0
  -25.9135  -30.8532   21.3575 C   0  0  0  0  0  0
  -25.9961  -29.4895   20.7052 C   0  0  0  0  0  0
  -27.2037  -28.7646   20.6729 C   0  0  0  0  0  0
  -26.0849  -26.9673   19.4810 C   0  0  0  0  0  0
  -24.8762  -27.6914   19.5138 C   0  0  0  0  0  0
  -23.5982  -29.8190   20.1700 C   0  0  0  0  0  0
  -25.4113  -36.3130   24.0320 C   0  0  1  0  0  0
  -20.5848  -28.3674   23.1327 C   0  0  2  0  0  0
  -20.6781  -26.9420   22.5433 C   0  0  0  0  0  0
  -19.5781  -26.6383   21.5225 C   0  0  0  0  0  0
  -18.1935  -26.7908   22.1597 C   0  0  0  0  0  0
  -19.1502  -28.8829   23.2907 C   0  0  0  0  0  0
  -18.9441  -30.1439   23.8939 C   0  0  0  0  0  0
  -17.6443  -30.6573   24.0581 C   0  0  0  0  0  0
  -25.9022  -34.9495   23.5125 C   0  0  0  0  0  0
  -16.5340  -29.9095   23.6297 C   0  0  0  0  0  0
  -16.7264  -28.6501   23.0338 C   0  0  0  0  0  0
  -26.4469  -31.6635   25.0704 C   0  0  0  0  0  0
  -25.3739  -31.3778   26.1477 C   0  0  0  0  0  0
  -27.0246  -30.3057   24.6063 C   0  0  0  0  0  0
  -27.6075  -32.4338   25.7456 C   0  0  0  0  0  0
  -27.5587  -37.1804   24.8451 C   0  0  0  0  0  0
  -21.4106  -29.3048   22.3756 N   0  0  0  0  0  0
  -26.4293  -37.3809   23.9406 N   0  0  0  0  0  0
  -24.6563  -31.0837   22.1036 N   0  0  0  0  0  0
  -23.4154  -28.8194   23.3059 O   0  0  0  0  0  0
  -28.4846  -26.8631   20.0391 O   0  0  0  0  0  0
  -26.5597  -34.8941   22.4695 O   0  0  0  0  0  0
  -23.5302  -32.1493   23.7582 O   0  0  0  0  0  0
  -23.9438  -19.4341   21.1680 C   0  0  0  0  0  0
  -28.4355  -17.2964   21.3481 C   0  0  0  0  0  0
  -29.2995  -18.6767   18.7993 C   0  0  0  0  0  0
  -30.5211  -16.7084   18.0332 C   0  0  0  0  0  0
  -31.3924  -18.0518   19.9910 C   0  0  0  0  0  0
  -24.8155  -18.2007   21.3993 C   0  0  0  0  0  0
  -25.8269  -23.6769   21.9373 C   0  0  0  0  0  0
  -24.8008  -22.6052   21.5814 C   0  0  0  0  0  0
  -26.9196  -23.7218   20.8630 C   0  0  0  0  0  0
  -23.6640  -22.4443   22.6037 C   0  0  0  0  0  0
  -27.9903  -24.7746   21.1586 C   0  0  0  0  0  0
  -26.2911  -18.5367   21.7348 C   0  0  0  0  0  0
  -22.6955  -21.2935   22.2559 C   0  0  0  0  0  0
  -28.5435  -25.4533   19.8940 C   0  0  0  0  0  0
  -29.2979  -16.5476   20.3042 C   0  0  1  0  0  0
  -30.1291  -17.4736   19.3193 C   0  0  0  0  0  0
  -23.3798  -20.0013   22.2418 N   0  0  0  0  0  0
  -27.2371  -17.7431   20.9441 N   0  0  0  0  0  0
  -30.1026  -15.5485   21.0424 N   0  0  0  0  0  0
  -23.8114  -19.8821   20.0282 O   0  0  0  0  0  0
  -28.8553  -17.4768   22.4939 O   0  0  0  0  0  0
  -31.4498  -12.3998   19.1034 H   0  0  0  0  0  0
  -30.2972  -11.3095   19.8178 H   0  0  0  0  0  0
  -29.7252  -11.7797   17.4144 H   0  0  0  0  0  0
  -29.6457  -13.4917   17.7558 H   0  0  0  0  0  0
  -27.8100  -11.2931   18.8000 H   0  0  0  0  0  0
  -27.3544  -12.6318   17.7794 H   0  0  0  0  0  0
  -27.6493  -14.2167   19.5229 H   0  0  0  0  0  0
  -28.6856  -12.0210   21.3764 H   0  0  0  0  0  0
  -28.4671  -13.6921   21.8204 H   0  0  0  0  0  0
  -25.2738   -9.5560   22.4757 H   0  0  0  0  0  0
  -23.9980   -7.4525   22.7388 H   0  0  0  0  0  0
  -21.0738   -8.8721   19.9043 H   0  0  0  0  0  0
  -22.3554  -10.9663   19.6261 H   0  0  0  0  0  0
  -21.2039   -7.6147   23.9736 H   0  0  0  0  0  0
  -21.1459   -6.0499   25.9089 H   0  0  0  0  0  0
  -22.0643   -2.7608   23.2806 H   0  0  0  0  0  0
  -22.4145  -12.0079   22.5100 H   0  0  0  0  0  0
  -21.1240  -13.1557   22.2988 H   0  0  0  0  0  0
  -24.6939  -15.8207   20.6165 H   0  0  0  0  0  0
  -26.3281  -15.5800   20.2450 H   0  0  0  0  0  0
  -26.7077  -32.5610   23.1156 H   0  0  0  0  0  0
  -25.0092  -33.9832   25.0520 H   0  0  0  0  0  0
  -22.6812  -31.3098   21.4150 H   0  0  0  0  0  0
  -23.3745  -35.9644   23.3294 H   0  0  0  0  0  0
  -24.3560  -36.8929   22.2025 H   0  0  0  0  0  0
  -23.7245  -37.6514   23.6642 H   0  0  0  0  0  0
  -26.0142  -31.6203   20.5883 H   0  0  0  0  0  0
  -26.8054  -30.9144   21.9717 H   0  0  0  0  0  0
  -28.1020  -29.1801   21.1093 H   0  0  0  0  0  0
  -26.0884  -26.0147   18.9747 H   0  0  0  0  0  0
  -23.9918  -27.2798   19.0485 H   0  0  0  0  0  0
  -23.7018  -30.5948   19.4090 H   0  0  0  0  0  0
  -22.7255  -29.2331   19.8757 H   0  0  0  0  0  0
  -25.1289  -36.1982   25.0804 H   0  0  0  0  0  0
  -20.9953  -28.3284   24.1446 H   0  0  0  0  0  0
  -20.5666  -26.2285   23.3614 H   0  0  0  0  0  0
  -21.6667  -26.7468   22.1260 H   0  0  0  0  0  0
  -19.6977  -25.6292   21.1256 H   0  0  0  0  0  0
  -19.6756  -27.3180   20.6750 H   0  0  0  0  0  0
  -17.4195  -26.6614   21.4015 H   0  0  0  0  0  0
  -18.0363  -26.0044   22.8984 H   0  0  0  0  0  0
  -19.7901  -30.7235   24.2332 H   0  0  0  0  0  0
  -17.5012  -31.6252   24.5180 H   0  0  0  0  0  0
  -15.5352  -30.3025   23.7593 H   0  0  0  0  0  0
  -15.8662  -28.0839   22.7022 H   0  0  0  0  0  0
  -24.5873  -30.7182   25.7813 H   0  0  0  0  0  0
  -24.8978  -32.2954   26.4940 H   0  0  0  0  0  0
  -25.8063  -30.8922   27.0228 H   0  0  0  0  0  0
  -26.2761  -29.6868   24.1114 H   0  0  0  0  0  0
  -27.3970  -29.7277   25.4525 H   0  0  0  0  0  0
  -27.8630  -30.4318   23.9207 H   0  0  0  0  0  0
  -27.2715  -33.3613   26.2093 H   0  0  0  0  0  0
  -28.3841  -32.6938   25.0249 H   0  0  0  0  0  0
  -28.0798  -31.8425   26.5323 H   0  0  0  0  0  0
  -28.2617  -38.0096   24.7496 H   0  0  0  0  0  0
  -28.1068  -36.2622   24.6267 H   0  0  0  0  0  0
  -27.2296  -37.1450   25.8853 H   0  0  0  0  0  0
  -20.9282  -29.8787   21.6975 H   0  0  0  0  0  0
  -26.0188  -38.2876   24.1443 H   0  0  0  0  0  0
  -29.8499  -19.2591   18.0584 H   0  0  0  0  0  0
  -29.0327  -19.3808   19.5889 H   0  0  0  0  0  0
  -28.3801  -18.3505   18.3111 H   0  0  0  0  0  0
  -31.0533  -17.3577   17.3380 H   0  0  0  0  0  0
  -29.6400  -16.3361   17.5067 H   0  0  0  0  0  0
  -31.1789  -15.8629   18.2066 H   0  0  0  0  0  0
  -31.9232  -18.7262   19.3161 H   0  0  0  0  0  0
  -32.1013  -17.2758   20.2733 H   0  0  0  0  0  0
  -31.1470  -18.6217   20.8881 H   0  0  0  0  0  0
  -24.7591  -17.6459   20.4656 H   0  0  0  0  0  0
  -24.3786  -17.5580   22.1647 H   0  0  0  0  0  0
  -26.2654  -23.4724   22.9158 H   0  0  0  0  0  0
  -25.3395  -24.6524   22.0086 H   0  0  0  0  0  0
  -25.3528  -21.6738   21.4879 H   0  0  0  0  0  0
  -24.3739  -22.8122   20.5997 H   0  0  0  0  0  0
  -26.4342  -23.9310   19.9103 H   0  0  0  0  0  0
  -27.3965  -22.7463   20.7489 H   0  0  0  0  0  0
  -23.1029  -23.3769   22.6545 H   0  0  0  0  0  0
  -24.0762  -22.2912   23.6014 H   0  0  0  0  0  0
  -28.8093  -24.3298   21.7261 H   0  0  0  0  0  0
  -27.5661  -25.5254   21.8254 H   0  0  0  0  0  0
  -26.4520  -18.3950   22.8052 H   0  0  0  0  0  0
  -26.5126  -19.5874   21.5378 H   0  0  0  0  0  0
  -22.2140  -21.4898   21.2970 H   0  0  0  0  0  0
  -21.8886  -21.2518   22.9887 H   0  0  0  0  0  0
  -28.0647  -25.1237   18.9709 H   0  0  0  0  0  0
  -29.5955  -25.1907   19.7768 H   0  0  0  0  0  0
  -28.5905  -16.0201   19.6750 H   0  0  0  0  0  0
  -23.4991  -19.5406   23.1338 H   0  0  0  0  0  0
  -27.0024  -17.6023   19.9711 H   0  0  0  0  0  0
  -30.6892  -16.0436   21.6957 H   0  0  0  0  0  0
  1 25  1  0  0  0
  1 30  2  0  0  0
  1 89  1  0  0  0
  2  3  1  0  0  0
  2 25  1  0  0  0
  2 92  1  0  0  0
  2 93  1  0  0  0
  3  4  1  0  0  0
  3 94  1  0  0  0
  3 95  1  0  0  0
  4  5  1  0  0  0
  4 96  1  0  0  0
  4 97  1  0  0  0
  5  6  1  0  0  0
  5 26  1  0  0  0
  5 98  1  0  0  0
  6 25  1  0  0  0
  6 99  1  0  0  0
  6100  1  0  0  0
  7  8  2  0  0  0
  7 26  1  0  0  0
  7 29  1  0  0  0
  8  9  1  0  0  0
  8 22  1  0  0  0
  9 10  1  0  0  0
  9 27  2  0  0  0
 10 11  2  0  0  0
 10 15  1  0  0  0
 11 12  1  0  0  0
 11101  1  0  0  0
 12 13  2  0  0  0
 12102  1  0  0  0
 13 14  1  0  0  0
 13 31  1  0  0  0
 14 15  2  0  0  0
 14103  1  0  0  0
 15104  1  0  0  0
 16 17  2  0  0  0
 16 21  1  0  0  0
 16 31  1  0  0  0
 17 18  1  0  0  0
 17105  1  0  0  0
 18 19  2  0  0  0
 18106  1  0  0  0
 19 20  1  0  0  0
 19 24  1  0  0  0
 20 21  2  0  0  0
 20107  1  0  0  0
 21 23  1  0  0  0
 22 28  1  0  0  0
 22 32  2  0  0  0
 26 27  1  0  0  0
 28108  1  0  0  0
 28109  1  0  0  0
 29110  1  0  0  0
 29111  1  0  0  0
 33 34  1  0  0  0
 33 66  1  0  0  0
 33 70  2  0  0  0
 34 36  1  0  0  0
 34 59  1  0  0  0
 34112  1  0  0  0
 35 44  2  0  0  0
 35 45  1  0  0  0
 35 68  1  0  0  0
 36 56  1  0  0  0
 36113  1  0  0  0
 37 39  1  0  0  0
 37 47  1  0  0  0
 37 66  1  0  0  0
 37114  1  0  0  0
 38 43  2  0  0  0
 38 46  1  0  0  0
 38 47  1  0  0  0
 39 64  1  0  0  0
 39 67  2  0  0  0
 40 52  1  0  0  0
 40 53  2  0  0  0
 40 58  1  0  0  0
 41115  1  0  0  0
 41116  1  0  0  0
 41117  1  0  0  0
 41 48  1  0  0  0
 42 43  1  0  0  0
 42 66  1  0  0  0
 42118  1  0  0  0
 42119  1  0  0  0
 43 44  1  0  0  0
 44120  1  0  0  0
 45 46  2  0  0  0
 45121  1  0  0  0
 46122  1  0  0  0
 47123  1  0  0  0
 47124  1  0  0  0
 48 56  1  0  0  0
 48 65  1  0  0  0
 48125  1  0  0  0
 49 50  1  0  0  0
 49 53  1  0  0  0
 49 64  1  0  0  0
 49126  1  0  0  0
 50 51  1  0  0  0
 50127  1  0  0  0
 50128  1  0  0  0
 51 52  1  0  0  0
 51129  1  0  0  0
 51130  1  0  0  0
 52131  1  0  0  0
 52132  1  0  0  0
 53 54  1  0  0  0
 54 55  2  0  0  0
 54133  1  0  0  0
 55 57  1  0  0  0
 55134  1  0  0  0
 56 69  2  0  0  0
 57 58  2  0  0  0
 57135  1  0  0  0
 58136  1  0  0  0
 59 60  1  0  0  0
 59 61  1  0  0  0
 59 62  1  0  0  0
 60137  1  0  0  0
 60138  1  0  0  0
 60139  1  0  0  0
 61140  1  0  0  0
 61141  1  0  0  0
 61142  1  0  0  0
 62143  1  0  0  0
 62144  1  0  0  0
 62145  1  0  0  0
 63 65  1  0  0  0
 63146  1  0  0  0
 63147  1  0  0  0
 63148  1  0  0  0
 64149  1  0  0  0
 65150  1  0  0  0
 68 84  1  0  0  0
 71 76  1  0  0  0
 71 87  1  0  0  0
 71 90  2  0  0  0
 72 85  1  0  0  0
 72 88  1  0  0  0
 72 91  2  0  0  0
 73151  1  0  0  0
 73152  1  0  0  0
 73153  1  0  0  0
 73 86  1  0  0  0
 74 86  1  0  0  0
 74154  1  0  0  0
 74155  1  0  0  0
 74156  1  0  0  0
 75 86  1  0  0  0
 75157  1  0  0  0
 75158  1  0  0  0
 75159  1  0  0  0
 76 82  1  0  0  0
 76160  1  0  0  0
 76161  1  0  0  0
 77 78  1  0  0  0
 77 79  1  0  0  0
 77162  1  0  0  0
 77163  1  0  0  0
 78 80  1  0  0  0
 78164  1  0  0  0
 78165  1  0  0  0
 79 81  1  0  0  0
 79166  1  0  0  0
 79167  1  0  0  0
 80 83  1  0  0  0
 80168  1  0  0  0
 80169  1  0  0  0
 81 84  1  0  0  0
 81170  1  0  0  0
 81171  1  0  0  0
 82 88  1  0  0  0
 82172  1  0  0  0
 82173  1  0  0  0
 83 87  1  0  0  0
 83174  1  0  0  0
 83175  1  0  0  0
 84176  1  0  0  0
 84177  1  0  0  0
 85 86  1  0  0  0
 85 89  1  0  0  0
 85178  1  0  0  0
 87179  1  0  0  0
 88180  1  0  0  0
 89181  1  0  0  0
M  ISO  4   1 100  68 101  84 101  89 100
M  END
> <chiral flag>
0

> <version>
0

> <s_m_source_file>
/data/baiqing/PycharmProjects/Reinvent-master-3.2/result/LINK_invent/BTK/process_docking_weight1_custom_sum_contain_oxygen_bond_distance_aromatic_linkinvent_7_9_3/rearranged_h_0002.sdf

> <i_m_source_file_index>
24

> <r_mmod_Potential_Energy-OPLS-2005>
-140.207397460938

> <r_mmod_Stretch_Energy-OPLS-2005>
36.8295593261719

> <r_mmod_Bend_Energy-OPLS-2005>
130.099456787109

> <r_mmod_Torsional_Energy-OPLS-2005>
286.260375976562

> <r_mmod_Improper_Torsional_Energy-OPLS-2005>
6.45620203018188

> <r_mmod_Van_der_Waal_Energy-OPLS-2005>
136.422027587891

> <r_mmod_Electrostatic_Energy-OPLS-2005>
-521.015502929688

> <r_mmod_Solvation_Energy-OPLS-2005>
-234.575454711914

> <b_mmod_Minimization_Converged-OPLS-2005>
0

> <r_mmod_RMS_Derivative-OPLS-2005>
4.27586221694946

$$$$
24
                    3D
 Structure written by MMmdl.
144152  0  0  1  0            999 V2000
  -30.2491  -15.7690   20.3185 C   0  0  0  0  0  0
  -30.4165  -13.1824   19.5389 C   0  0  0  0  0  0
  -29.5561  -12.6883   18.3366 C   0  0  0  0  0  0
  -28.1400  -12.3025   18.7870 C   0  0  0  0  0  0
  -27.5914  -13.3204   19.8100 C   0  0  2  0  0  0
  -28.5996  -13.7101   20.9197 C   0  0  0  0  0  0
  -25.2302  -13.8299   20.5812 C   0  0  0  0  0  0
  -24.1705  -13.0432   20.9298 C   0  0  0  0  0  0
  -24.6425  -11.6949   20.8764 C   0  0  0  0  0  0
  -23.9129  -10.4292   21.0393 C   0  0  0  0  0  0
  -24.3660   -9.4205   21.9178 C   0  0  0  0  0  0
  -23.6316   -8.2248   22.0754 C   0  0  0  0  0  0
  -22.4296   -8.0290   21.3545 C   0  0  0  0  0  0
  -21.9945   -9.0266   20.4644 C   0  0  0  0  0  0
  -22.7293  -10.2135   20.3047 C   0  0  0  0  0  0
  -21.6860   -6.0742   22.5279 C   0  0  0  0  0  0
  -21.4020   -6.5644   23.8213 C   0  0  0  0  0  0
  -21.3660   -5.6795   24.9174 C   0  0  0  0  0  0
  -21.6043   -4.3057   24.7223 C   0  0  0  0  0  0
  -21.8818   -3.8151   23.4344 C   0  0  0  0  0  0
  -21.9195   -4.6969   22.3401 C   0  0  0  0  0  0
  -22.7713  -13.5153   21.1928 C   0  0  0  0  0  0
  -22.1662   -4.2154   21.0979 F   0  0  0  0  0  0
  -21.5627   -3.4540   25.7735 F   0  0  0  0  0  0
  -29.7500  -14.3765   20.2532 N   0  0  0  0  0  0
  -26.2766  -12.9654   20.3247 N   0  0  0  0  0  0
  -25.9376  -11.6711   20.5692 N   0  0  0  0  0  0
  -22.0381  -12.8128   22.0480 N   0  0  0  0  0  0
  -25.3868  -15.2043   20.4253 N   0  0  0  0  0  0
  -31.4896  -15.6885   20.1870 O   0  0  0  0  0  0
  -21.6650   -6.8891   21.4243 O   0  0  0  0  0  0
  -22.3385  -14.5450   20.6762 O   0  0  0  0  0  0
  -24.6936  -31.7881   23.1428 C   0  0  0  0  0  0
  -25.9467  -32.4408   23.8014 C   0  0  1  0  0  0
  -27.2314  -26.6000   20.2259 C   0  0  0  0  0  0
  -25.6003  -33.8239   24.1889 N   0  0  0  0  0  0
  -23.5248  -30.3852   21.4992 C   0  0  2  0  0  0
  -24.9837  -28.7043   20.1217 C   0  0  0  0  0  0
  -22.7812  -29.4252   22.4682 C   0  0  0  0  0  0
  -18.0345  -28.1427   22.8448 C   0  0  0  0  0  0
  -24.1496  -36.7128   23.2656 C   0  0  0  0  0  0
  -26.1099  -30.4873   21.4229 C   0  0  0  0  0  0
  -26.1749  -29.0406   20.7752 C   0  0  0  0  0  0
  -27.2793  -28.0201   20.7903 C   0  0  0  0  0  0
  -26.0052  -26.4991   19.5134 C   0  0  0  0  0  0
  -24.9440  -27.4606   19.4663 C   0  0  0  0  0  0
  -23.7849  -29.6724   20.1393 C   0  0  0  0  0  0
  -25.4150  -36.2860   24.0273 C   0  0  1  0  0  0
  -20.5986  -28.3792   23.1121 C   0  0  2  0  0  0
  -20.6806  -26.9441   22.5405 C   0  0  0  0  0  0
  -19.5784  -26.6367   21.5217 C   0  0  0  0  0  0
  -18.1967  -26.7952   22.1618 C   0  0  0  0  0  0
  -19.1614  -28.8936   23.2762 C   0  0  0  0  0  0
  -18.9518  -30.1517   23.8813 C   0  0  0  0  0  0
  -17.6507  -30.6607   24.0547 C   0  0  0  0  0  0
  -25.9137  -34.9253   23.4926 C   0  0  0  0  0  0
  -16.5395  -29.9086   23.6353 C   0  0  0  0  0  0
  -16.7324  -28.6509   23.0369 C   0  0  0  0  0  0
  -26.4611  -31.6488   25.0681 C   0  0  0  0  0  0
  -25.3648  -31.3836   26.1276 C   0  0  0  0  0  0
  -27.0562  -30.2813   24.6660 C   0  0  0  0  0  0
  -27.6036  -32.4377   25.7508 C   0  0  0  0  0  0
  -27.5560  -37.1721   24.8466 C   0  0  0  0  0  0
  -21.4449  -29.3019   22.3429 N   0  0  0  0  0  0
  -26.4267  -37.3633   23.9406 N   0  0  0  0  0  0
  -24.8007  -30.9224   22.0738 N   0  0  0  0  0  0
  -23.4206  -28.7870   23.3076 O   0  0  0  0  0  0
  -28.1813  -25.3340   20.2925 O   0  0  0  0  0  0
  -26.5793  -34.8851   22.4554 O   0  0  0  0  0  0
  -23.5932  -32.1003   23.6316 O   0  0  0  0  0  0
  -31.2233  -20.8510   20.4443 C   0  0  0  0  0  0
  -30.3278  -21.9742   20.3863 C   0  0  0  0  0  0
  -30.8973  -19.4510   20.4170 C   0  0  0  0  0  0
  -28.6498  -20.2656   20.2683 C   0  0  0  0  0  0
  -28.9175  -21.8849   20.2883 C   0  0  0  0  0  0
  -29.5860  -18.9200   20.3295 C   0  0  0  0  0  0
  -27.9553  -23.5403   20.1946 C   0  0  0  0  0  0
  -29.4678  -17.1584   20.3338 N   0  0  0  0  0  0
  -31.3972  -13.4683   19.1574 H   0  0  0  0  0  0
  -30.6150  -12.3654   20.2348 H   0  0  0  0  0  0
  -30.0382  -11.8449   17.8404 H   0  0  0  0  0  0
  -29.4933  -13.4857   17.5947 H   0  0  0  0  0  0
  -28.1920  -11.3161   19.2495 H   0  0  0  0  0  0
  -27.4721  -12.2092   17.9298 H   0  0  0  0  0  0
  -27.4353  -14.2232   19.2177 H   0  0  0  0  0  0
  -28.8922  -12.8505   21.5245 H   0  0  0  0  0  0
  -28.1402  -14.4228   21.6061 H   0  0  0  0  0  0
  -25.2799   -9.5677   22.4764 H   0  0  0  0  0  0
  -24.0015   -7.4641   22.7480 H   0  0  0  0  0  0
  -21.0874   -8.8796   19.8951 H   0  0  0  0  0  0
  -22.3752  -10.9677   19.6160 H   0  0  0  0  0  0
  -21.2015   -7.6152   23.9718 H   0  0  0  0  0  0
  -21.1481   -6.0525   25.9077 H   0  0  0  0  0  0
  -22.0595   -2.7612   23.2843 H   0  0  0  0  0  0
  -22.4028  -11.9810   22.4881 H   0  0  0  0  0  0
  -21.0984  -13.1116   22.2673 H   0  0  0  0  0  0
  -24.6121  -15.8494   20.5375 H   0  0  0  0  0  0
  -26.2233  -15.6482   20.0710 H   0  0  0  0  0  0
  -26.7560  -32.4853   23.0732 H   0  0  0  0  0  0
  -25.0040  -33.9259   24.9969 H   0  0  0  0  0  0
  -22.8560  -31.2251   21.3001 H   0  0  0  0  0  0
  -23.3778  -35.9436   23.3259 H   0  0  0  0  0  0
  -24.3559  -36.8857   22.2082 H   0  0  0  0  0  0
  -23.7237  -37.6279   23.6781 H   0  0  0  0  0  0
  -26.3235  -31.2052   20.6299 H   0  0  0  0  0  0
  -26.9566  -30.5591   22.0929 H   0  0  0  0  0  0
  -28.1740  -28.2884   21.3341 H   0  0  0  0  0  0
  -25.8210  -25.5639   19.0038 H   0  0  0  0  0  0
  -24.0480  -27.1923   18.9234 H   0  0  0  0  0  0
  -23.9691  -30.4280   19.3747 H   0  0  0  0  0  0
  -22.8876  -29.1444   19.8122 H   0  0  0  0  0  0
  -25.1366  -36.1607   25.0763 H   0  0  0  0  0  0
  -21.0064  -28.3426   24.1249 H   0  0  0  0  0  0
  -20.5660  -26.2419   23.3677 H   0  0  0  0  0  0
  -21.6666  -26.7367   22.1230 H   0  0  0  0  0  0
  -19.6938  -25.6255   21.1303 H   0  0  0  0  0  0
  -19.6730  -27.3129   20.6710 H   0  0  0  0  0  0
  -17.4236  -26.6693   21.4021 H   0  0  0  0  0  0
  -18.0352  -26.0116   22.9034 H   0  0  0  0  0  0
  -19.7994  -30.7354   24.2146 H   0  0  0  0  0  0
  -17.5057  -31.6278   24.5166 H   0  0  0  0  0  0
  -15.5392  -30.2961   23.7726 H   0  0  0  0  0  0
  -15.8725  -28.0800   22.7132 H   0  0  0  0  0  0
  -24.5864  -30.7155   25.7572 H   0  0  0  0  0  0
  -24.8806  -32.3067   26.4469 H   0  0  0  0  0  0
  -25.7799  -30.9150   27.0207 H   0  0  0  0  0  0
  -26.3300  -29.6394   24.1665 H   0  0  0  0  0  0
  -27.3958  -29.7305   25.5442 H   0  0  0  0  0  0
  -27.9292  -30.3914   24.0226 H   0  0  0  0  0  0
  -27.2557  -33.3759   26.1844 H   0  0  0  0  0  0
  -28.3970  -32.6810   25.0429 H   0  0  0  0  0  0
  -28.0570  -31.8672   26.5625 H   0  0  0  0  0  0
  -28.2540  -38.0050   24.7512 H   0  0  0  0  0  0
  -28.1093  -36.2570   24.6297 H   0  0  0  0  0  0
  -27.2273  -37.1358   25.8868 H   0  0  0  0  0  0
  -20.9779  -29.8658   21.6465 H   0  0  0  0  0  0
  -26.0084  -38.2675   24.1421 H   0  0  0  0  0  0
  -32.2755  -21.0887   20.5173 H   0  0  0  0  0  0
  -30.7626  -22.9641   20.4154 H   0  0  0  0  0  0
  -31.7198  -18.7513   20.4730 H   0  0  0  0  0  0
  -27.5975  -20.0310   20.1940 H   0  0  0  0  0  0
  -27.1705  -23.3778   20.9334 H   0  0  0  0  0  0
  -27.4334  -23.4350   19.2435 H   0  0  0  0  0  0
  -28.4908  -16.9030   20.3508 H   0  0  0  0  0  0
  1 25  1  0  0  0
  1 30  2  0  0  0
  1 78  1  0  0  0
  2  3  1  0  0  0
  2 25  1  0  0  0
  2 79  1  0  0  0
  2 80  1  0  0  0
  3  4  1  0  0  0
  3 81  1  0  0  0
  3 82  1  0  0  0
  4  5  1  0  0  0
  4 83  1  0  0  0
  4 84  1  0  0  0
  5  6  1  0  0  0
  5 26  1  0  0  0
  5 85  1  0  0  0
  6 25  1  0  0  0
  6 86  1  0  0  0
  6 87  1  0  0  0
  7  8  2  0  0  0
  7 26  1  0  0  0
  7 29  1  0  0  0
  8  9  1  0  0  0
  8 22  1  0  0  0
  9 10  1  0  0  0
  9 27  2  0  0  0
 10 11  2  0  0  0
 10 15  1  0  0  0
 11 12  1  0  0  0
 11 88  1  0  0  0
 12 13  2  0  0  0
 12 89  1  0  0  0
 13 14  1  0  0  0
 13 31  1  0  0  0
 14 15  2  0  0  0
 14 90  1  0  0  0
 15 91  1  0  0  0
 16 17  2  0  0  0
 16 21  1  0  0  0
 16 31  1  0  0  0
 17 18  1  0  0  0
 17 92  1  0  0  0
 18 19  2  0  0  0
 18 93  1  0  0  0
 19 20  1  0  0  0
 19 24  1  0  0  0
 20 21  2  0  0  0
 20 94  1  0  0  0
 21 23  1  0  0  0
 22 28  1  0  0  0
 22 32  2  0  0  0
 26 27  1  0  0  0
 28 95  1  0  0  0
 28 96  1  0  0  0
 29 97  1  0  0  0
 29 98  1  0  0  0
 33 34  1  0  0  0
 33 66  1  0  0  0
 33 70  2  0  0  0
 34 36  1  0  0  0
 34 59  1  0  0  0
 34 99  1  0  0  0
 35 44  2  0  0  0
 35 45  1  0  0  0
 35 68  1  0  0  0
 36 56  1  0  0  0
 36100  1  0  0  0
 37 39  1  0  0  0
 37 47  1  0  0  0
 37 66  1  0  0  0
 37101  1  0  0  0
 38 43  2  0  0  0
 38 46  1  0  0  0
 38 47  1  0  0  0
 39 64  1  0  0  0
 39 67  2  0  0  0
 40 52  1  0  0  0
 40 53  2  0  0  0
 40 58  1  0  0  0
 41102  1  0  0  0
 41103  1  0  0  0
 41104  1  0  0  0
 41 48  1  0  0  0
 42 43  1  0  0  0
 42 66  1  0  0  0
 42105  1  0  0  0
 42106  1  0  0  0
 43 44  1  0  0  0
 44107  1  0  0  0
 45 46  2  0  0  0
 45108  1  0  0  0
 46109  1  0  0  0
 47110  1  0  0  0
 47111  1  0  0  0
 48 56  1  0  0  0
 48 65  1  0  0  0
 48112  1  0  0  0
 49 50  1  0  0  0
 49 53  1  0  0  0
 49 64  1  0  0  0
 49113  1  0  0  0
 50 51  1  0  0  0
 50114  1  0  0  0
 50115  1  0  0  0
 51 52  1  0  0  0
 51116  1  0  0  0
 51117  1  0  0  0
 52118  1  0  0  0
 52119  1  0  0  0
 53 54  1  0  0  0
 54 55  2  0  0  0
 54120  1  0  0  0
 55 57  1  0  0  0
 55121  1  0  0  0
 56 69  2  0  0  0
 57 58  2  0  0  0
 57122  1  0  0  0
 58123  1  0  0  0
 59 60  1  0  0  0
 59 61  1  0  0  0
 59 62  1  0  0  0
 60124  1  0  0  0
 60125  1  0  0  0
 60126  1  0  0  0
 61127  1  0  0  0
 61128  1  0  0  0
 61129  1  0  0  0
 62130  1  0  0  0
 62131  1  0  0  0
 62132  1  0  0  0
 63 65  1  0  0  0
 63133  1  0  0  0
 63134  1  0  0  0
 63135  1  0  0  0
 64136  1  0  0  0
 65137  1  0  0  0
 68 77  1  0  0  0
 71 72  2  0  0  0
 71 73  1  0  0  0
 71138  1  0  0  0
 72 75  1  0  0  0
 72139  1  0  0  0
 73 76  2  0  0  0
 73140  1  0  0  0
 74 75  2  0  0  0
 74 76  1  0  0  0
 74141  1  0  0  0
 75 77  1  0  0  0
 76 78  1  0  0  0
 77142  1  0  0  0
 77143  1  0  0  0
 78144  1  0  0  0
M  ISO  4   1 100  68 101  77 101  78 100
M  END
> <chiral flag>
0

> <version>
0

> <s_m_source_file>
/data/baiqing/PycharmProjects/Reinvent-master-3.2/result/LINK_invent/BTK/process_docking_weight1_custom_sum_contain_oxygen_bond_distance_aromatic_linkinvent_7_9_3/rearranged_h_0002.sdf

> <i_m_source_file_index>
25

> <r_mmod_Potential_Energy-OPLS-2005>
2813.380859375

> <r_mmod_Stretch_Energy-OPLS-2005>
1256.92761230469

> <r_mmod_Bend_Energy-OPLS-2005>
641.894226074219

> <r_mmod_Torsional_Energy-OPLS-2005>
222.88850402832

> <r_mmod_Improper_Torsional_Energy-OPLS-2005>
4.12787246704102

> <r_mmod_Van_der_Waal_Energy-OPLS-2005>
126.438247680664

> <r_mmod_Electrostatic_Energy-OPLS-2005>
-346.341064453125

> <r_mmod_Solvation_Energy-OPLS-2005>
-213.760787963867

> <b_mmod_Minimization_Converged-OPLS-2005>
0

> <r_mmod_RMS_Derivative-OPLS-2005>
0.157229289412498

$$$$
25
                    3D
 Structure written by MMmdl.
150158  0  0  1  0            999 V2000
  -30.5022  -15.0390   20.4029 C   0  0  0  0  0  0
  -30.4349  -12.6476   19.5089 C   0  0  0  0  0  0
  -29.5214  -12.5341   18.2668 C   0  0  0  0  0  0
  -28.0606  -12.2970   18.6882 C   0  0  0  0  0  0
  -27.6193  -13.2514   19.8269 C   0  0  2  0  0  0
  -28.6552  -13.3309   20.9674 C   0  0  0  0  0  0
  -25.2400  -13.8192   20.5683 C   0  0  0  0  0  0
  -24.1746  -13.0410   20.9269 C   0  0  0  0  0  0
  -24.6380  -11.6901   20.8761 C   0  0  0  0  0  0
  -23.9078  -10.4269   21.0409 C   0  0  0  0  0  0
  -24.3633   -9.4188   21.9177 C   0  0  0  0  0  0
  -23.6308   -8.2222   22.0745 C   0  0  0  0  0  0
  -22.4291   -8.0264   21.3536 C   0  0  0  0  0  0
  -21.9922   -9.0232   20.4633 C   0  0  0  0  0  0
  -22.7246  -10.2107   20.3052 C   0  0  0  0  0  0
  -21.6853   -6.0739   22.5281 C   0  0  0  0  0  0
  -21.3996   -6.5648   23.8219 C   0  0  0  0  0  0
  -21.3651   -5.6800   24.9175 C   0  0  0  0  0  0
  -21.6046   -4.3060   24.7224 C   0  0  0  0  0  0
  -21.8831   -3.8150   23.4347 C   0  0  0  0  0  0
  -21.9190   -4.6971   22.3396 C   0  0  0  0  0  0
  -22.7761  -13.5163   21.1929 C   0  0  0  0  0  0
  -22.1658   -4.2158   21.0978 F   0  0  0  0  0  0
  -21.5638   -3.4544   25.7734 F   0  0  0  0  0  0
  -29.9226  -13.7629   20.3624 N   0  0  0  0  0  0
  -26.2826  -12.9429   20.3170 N   0  0  0  0  0  0
  -25.9304  -11.6561   20.5720 N   0  0  0  0  0  0
  -22.0444  -12.8101   22.0476 N   0  0  0  0  0  0
  -25.4003  -15.1894   20.4005 N   0  0  0  0  0  0
  -31.7187  -15.0745   20.1787 O   0  0  0  0  0  0
  -21.6647   -6.8864   21.4238 O   0  0  0  0  0  0
  -22.3418  -14.5462   20.6791 O   0  0  0  0  0  0
  -24.6482  -31.8401   23.1830 C   0  0  0  0  0  0
  -25.9233  -32.4675   23.8248 C   0  0  1  0  0  0
  -27.2314  -27.0913   20.1822 C   0  0  0  0  0  0
  -25.5953  -33.8482   24.2154 N   0  0  0  0  0  0
  -23.4532  -30.4543   21.5305 C   0  0  2  0  0  0
  -24.9069  -28.8555   20.1277 C   0  0  0  0  0  0
  -22.7588  -29.4555   22.4894 C   0  0  0  0  0  0
  -18.0345  -28.1365   22.8461 C   0  0  0  0  0  0
  -24.1484  -36.7220   23.2643 C   0  0  0  0  0  0
  -26.0111  -30.7008   21.3863 C   0  0  0  0  0  0
  -26.0884  -29.3045   20.7334 C   0  0  0  0  0  0
  -27.2541  -28.4414   20.7316 C   0  0  0  0  0  0
  -26.0183  -26.7420   19.5552 C   0  0  0  0  0  0
  -24.8827  -27.5849   19.5286 C   0  0  0  0  0  0
  -23.6835  -29.7613   20.1606 C   0  0  0  0  0  0
  -25.4132  -36.3021   24.0304 C   0  0  1  0  0  0
  -20.5934  -28.3747   23.1222 C   0  0  2  0  0  0
  -20.6850  -26.9456   22.5395 C   0  0  0  0  0  0
  -19.5850  -26.6406   21.5181 C   0  0  0  0  0  0
  -18.2029  -26.7909   22.1604 C   0  0  0  0  0  0
  -19.1576  -28.8890   23.2820 C   0  0  0  0  0  0
  -18.9461  -30.1498   23.8821 C   0  0  0  0  0  0
  -17.6445  -30.6580   24.0521 C   0  0  0  0  0  0
  -25.9090  -34.9398   23.5049 C   0  0  0  0  0  0
  -16.5356  -29.9023   23.6319 C   0  0  0  0  0  0
  -16.7313  -28.6438   23.0347 C   0  0  0  0  0  0
  -26.4526  -31.6576   25.0723 C   0  0  0  0  0  0
  -25.3658  -31.3790   26.1380 C   0  0  0  0  0  0
  -27.0435  -30.2972   24.6357 C   0  0  0  0  0  0
  -27.6034  -32.4388   25.7504 C   0  0  0  0  0  0
  -27.5578  -37.1770   24.8472 C   0  0  0  0  0  0
  -21.4281  -29.3050   22.3587 N   0  0  0  0  0  0
  -26.4299  -37.3741   23.9400 N   0  0  0  0  0  0
  -24.7236  -31.0216   22.0875 N   0  0  0  0  0  0
  -23.4196  -28.8154   23.3108 O   0  0  0  0  0  0
  -28.3051  -26.1145   20.1795 O   0  0  0  0  0  0
  -26.5686  -34.8914   22.4640 O   0  0  0  0  0  0
  -23.5589  -32.1291   23.7040 O   0  0  0  0  0  0
  -26.4975  -19.2561   20.1098 C   0  0  0  0  0  0
  -27.4675  -18.2293   20.1529 C   0  0  0  0  0  0
  -27.1458  -20.4423   20.2379 C   0  0  0  0  0  0
  -28.7308  -18.7413   20.3350 C   0  0  0  0  0  0
  -29.9300  -17.6505   20.4281 C   0  0  0  0  0  0
  -28.7591  -23.1672   19.8995 C   0  0  0  0  0  0
  -29.2703  -21.6459   20.5486 C   0  0  0  0  0  0
  -28.1745  -24.6046   20.6284 C   0  0  0  0  0  0
  -28.5207  -20.2593   20.3533 N   0  0  0  0  0  0
  -29.6910  -16.2272   20.4774 N   0  0  0  0  0  0
  -31.0843  -18.0919   20.4479 O   0  0  0  0  0  0
  -31.4632  -12.8228   19.1922 H   0  0  0  0  0  0
  -30.4469  -11.7091   20.0674 H   0  0  0  0  0  0
  -29.8622  -11.7271   17.6165 H   0  0  0  0  0  0
  -29.5876  -13.4522   17.6822 H   0  0  0  0  0  0
  -27.9843  -11.2640   19.0305 H   0  0  0  0  0  0
  -27.3940  -12.3848   17.8290 H   0  0  0  0  0  0
  -27.5668  -14.2418   19.3741 H   0  0  0  0  0  0
  -28.7579  -12.3724   21.4768 H   0  0  0  0  0  0
  -28.3332  -14.0511   21.7222 H   0  0  0  0  0  0
  -25.2778   -9.5689   22.4740 H   0  0  0  0  0  0
  -24.0037   -7.4619   22.7462 H   0  0  0  0  0  0
  -21.0858   -8.8734   19.8929 H   0  0  0  0  0  0
  -22.3694  -10.9643   19.6171 H   0  0  0  0  0  0
  -21.1972   -7.6157   23.9714 H   0  0  0  0  0  0
  -21.1461   -6.0529   25.9078 H   0  0  0  0  0  0
  -22.0615   -2.7619   23.2851 H   0  0  0  0  0  0
  -22.4113  -11.9744   22.4785 H   0  0  0  0  0  0
  -21.1060  -13.1057   22.2756 H   0  0  0  0  0  0
  -24.6141  -15.8240   20.4914 H   0  0  0  0  0  0
  -26.1736  -15.5913   19.8899 H   0  0  0  0  0  0
  -26.7318  -32.5265   23.0994 H   0  0  0  0  0  0
  -25.0045  -33.9573   25.0260 H   0  0  0  0  0  0
  -22.7572  -31.2796   21.3628 H   0  0  0  0  0  0
  -23.3775  -35.9526   23.3327 H   0  0  0  0  0  0
  -24.3547  -36.8840   22.2051 H   0  0  0  0  0  0
  -23.7216  -37.6404   23.6680 H   0  0  0  0  0  0
  -26.1747  -31.4545   20.6162 H   0  0  0  0  0  0
  -26.8752  -30.7524   22.0365 H   0  0  0  0  0  0
  -28.1632  -28.7868   21.2061 H   0  0  0  0  0  0
  -25.9357  -25.7675   19.0948 H   0  0  0  0  0  0
  -23.9721  -27.2225   19.0712 H   0  0  0  0  0  0
  -23.8163  -30.5164   19.3871 H   0  0  0  0  0  0
  -22.7992  -29.1950   19.8644 H   0  0  0  0  0  0
  -25.1338  -36.1847   25.0798 H   0  0  0  0  0  0
  -21.0006  -28.3370   24.1346 H   0  0  0  0  0  0
  -20.5758  -26.2366   23.3603 H   0  0  0  0  0  0
  -21.6728  -26.7489   22.1203 H   0  0  0  0  0  0
  -19.7071  -25.6331   21.1188 H   0  0  0  0  0  0
  -19.6767  -27.3228   20.6719 H   0  0  0  0  0  0
  -17.4292  -26.6582   21.4026 H   0  0  0  0  0  0
  -18.0514  -26.0049   22.9020 H   0  0  0  0  0  0
  -19.7920  -30.7367   24.2133 H   0  0  0  0  0  0
  -17.4957  -31.6256   24.5110 H   0  0  0  0  0  0
  -15.5342  -30.2869   23.7663 H   0  0  0  0  0  0
  -15.8733  -28.0708   22.7084 H   0  0  0  0  0  0
  -24.5817  -30.7195   25.7647 H   0  0  0  0  0  0
  -24.8859  -32.2977   26.4764 H   0  0  0  0  0  0
  -25.7857  -30.8942   27.0201 H   0  0  0  0  0  0
  -26.3093  -29.6660   24.1328 H   0  0  0  0  0  0
  -27.3998  -29.7327   25.4990 H   0  0  0  0  0  0
  -27.9021  -30.4220   23.9751 H   0  0  0  0  0  0
  -27.2604  -33.3706   26.2030 H   0  0  0  0  0  0
  -28.3847  -32.6943   25.0328 H   0  0  0  0  0  0
  -28.0711  -31.8563   26.5453 H   0  0  0  0  0  0
  -28.2620  -38.0048   24.7519 H   0  0  0  0  0  0
  -28.1059  -36.2574   24.6335 H   0  0  0  0  0  0
  -27.2281  -37.1470   25.8876 H   0  0  0  0  0  0
  -20.9545  -29.8637   21.6619 H   0  0  0  0  0  0
  -26.0169  -38.2817   24.1412 H   0  0  0  0  0  0
  -25.4259  -19.1404   20.0001 H   0  0  0  0  0  0
  -27.2351  -17.1798   20.0670 H   0  0  0  0  0  0
  -26.7172  -21.4370   20.2631 H   0  0  0  0  0  0
  -28.1063  -22.9491   19.0549 H   0  0  0  0  0  0
  -29.6675  -23.5191   19.4092 H   0  0  0  0  0  0
  -29.4272  -21.7758   21.6197 H   0  0  0  0  0  0
  -30.2795  -21.4836   20.1694 H   0  0  0  0  0  0
  -28.6410  -24.6097   21.6148 H   0  0  0  0  0  0
  -27.1221  -24.4371   20.8537 H   0  0  0  0  0  0
  -28.7107  -16.0154   20.5400 H   0  0  0  0  0  0
  1 25  1  0  0  0
  1 30  2  0  0  0
  1 80  1  0  0  0
  2  3  1  0  0  0
  2 25  1  0  0  0
  2 82  1  0  0  0
  2 83  1  0  0  0
  3  4  1  0  0  0
  3 84  1  0  0  0
  3 85  1  0  0  0
  4  5  1  0  0  0
  4 86  1  0  0  0
  4 87  1  0  0  0
  5  6  1  0  0  0
  5 26  1  0  0  0
  5 88  1  0  0  0
  6 25  1  0  0  0
  6 89  1  0  0  0
  6 90  1  0  0  0
  7  8  2  0  0  0
  7 26  1  0  0  0
  7 29  1  0  0  0
  8  9  1  0  0  0
  8 22  1  0  0  0
  9 10  1  0  0  0
  9 27  2  0  0  0
 10 11  2  0  0  0
 10 15  1  0  0  0
 11 12  1  0  0  0
 11 91  1  0  0  0
 12 13  2  0  0  0
 12 92  1  0  0  0
 13 14  1  0  0  0
 13 31  1  0  0  0
 14 15  2  0  0  0
 14 93  1  0  0  0
 15 94  1  0  0  0
 16 17  2  0  0  0
 16 21  1  0  0  0
 16 31  1  0  0  0
 17 18  1  0  0  0
 17 95  1  0  0  0
 18 19  2  0  0  0
 18 96  1  0  0  0
 19 20  1  0  0  0
 19 24  1  0  0  0
 20 21  2  0  0  0
 20 97  1  0  0  0
 21 23  1  0  0  0
 22 28  1  0  0  0
 22 32  2  0  0  0
 26 27  1  0  0  0
 28 98  1  0  0  0
 28 99  1  0  0  0
 29100  1  0  0  0
 29101  1  0  0  0
 33 34  1  0  0  0
 33 66  1  0  0  0
 33 70  2  0  0  0
 34 36  1  0  0  0
 34 59  1  0  0  0
 34102  1  0  0  0
 35 44  2  0  0  0
 35 45  1  0  0  0
 35 68  1  0  0  0
 36 56  1  0  0  0
 36103  1  0  0  0
 37 39  1  0  0  0
 37 47  1  0  0  0
 37 66  1  0  0  0
 37104  1  0  0  0
 38 43  2  0  0  0
 38 46  1  0  0  0
 38 47  1  0  0  0
 39 64  1  0  0  0
 39 67  2  0  0  0
 40 52  1  0  0  0
 40 53  2  0  0  0
 40 58  1  0  0  0
 41105  1  0  0  0
 41106  1  0  0  0
 41107  1  0  0  0
 41 48  1  0  0  0
 42 43  1  0  0  0
 42 66  1  0  0  0
 42108  1  0  0  0
 42109  1  0  0  0
 43 44  1  0  0  0
 44110  1  0  0  0
 45 46  2  0  0  0
 45111  1  0  0  0
 46112  1  0  0  0
 47113  1  0  0  0
 47114  1  0  0  0
 48 56  1  0  0  0
 48 65  1  0  0  0
 48115  1  0  0  0
 49 50  1  0  0  0
 49 53  1  0  0  0
 49 64  1  0  0  0
 49116  1  0  0  0
 50 51  1  0  0  0
 50117  1  0  0  0
 50118  1  0  0  0
 51 52  1  0  0  0
 51119  1  0  0  0
 51120  1  0  0  0
 52121  1  0  0  0
 52122  1  0  0  0
 53 54  1  0  0  0
 54 55  2  0  0  0
 54123  1  0  0  0
 55 57  1  0  0  0
 55124  1  0  0  0
 56 69  2  0  0  0
 57 58  2  0  0  0
 57125  1  0  0  0
 58126  1  0  0  0
 59 60  1  0  0  0
 59 61  1  0  0  0
 59 62  1  0  0  0
 60127  1  0  0  0
 60128  1  0  0  0
 60129  1  0  0  0
 61130  1  0  0  0
 61131  1  0  0  0
 61132  1  0  0  0
 62133  1  0  0  0
 62134  1  0  0  0
 62135  1  0  0  0
 63 65  1  0  0  0
 63136  1  0  0  0
 63137  1  0  0  0
 63138  1  0  0  0
 64139  1  0  0  0
 65140  1  0  0  0
 68 78  1  0  0  0
 71 72  1  0  0  0
 71 73  2  0  0  0
 71141  1  0  0  0
 72 74  2  0  0  0
 72142  1  0  0  0
 73 79  1  0  0  0
 73143  1  0  0  0
 74 75  1  0  0  0
 74 79  1  0  0  0
 75 80  1  0  0  0
 75 81  2  0  0  0
 76 77  1  0  0  0
 76 78  1  0  0  0
 76144  1  0  0  0
 76145  1  0  0  0
 77 79  1  0  0  0
 77146  1  0  0  0
 77147  1  0  0  0
 78148  1  0  0  0
 78149  1  0  0  0
 80150  1  0  0  0
M  ISO  4   1 100  68 101  78 101  80 100
M  END
> <chiral flag>
0

> <version>
0

> <s_m_source_file>
/data/baiqing/PycharmProjects/Reinvent-master-3.2/result/LINK_invent/BTK/process_docking_weight1_custom_sum_contain_oxygen_bond_distance_aromatic_linkinvent_7_9_3/rearranged_h_0002.sdf

> <i_m_source_file_index>
26

> <r_mmod_Potential_Energy-OPLS-2005>
693.776062011719

> <r_mmod_Stretch_Energy-OPLS-2005>
344.460906982422

> <r_mmod_Bend_Energy-OPLS-2005>
361.627838134766

> <r_mmod_Torsional_Energy-OPLS-2005>
254.947738647461

> <r_mmod_Improper_Torsional_Energy-OPLS-2005>
6.04550647735596

> <r_mmod_Van_der_Waal_Energy-OPLS-2005>
106.843307495117

> <r_mmod_Electrostatic_Energy-OPLS-2005>
-399.055999755859

> <r_mmod_Solvation_Energy-OPLS-2005>
-226.350952148438

> <b_mmod_Minimization_Converged-OPLS-2005>
0

> <r_mmod_RMS_Derivative-OPLS-2005>
4.18897724151611

$$$$
26
                    3D
 Structure written by MMmdl.
158166  0  0  1  0            999 V2000
  -30.6462  -14.5182   20.5726 C   0  0  0  0  0  0
  -30.4420  -12.3340   19.4232 C   0  0  0  0  0  0
  -29.5033  -12.5146   18.2094 C   0  0  0  0  0  0
  -28.0237  -12.3657   18.6200 C   0  0  0  0  0  0
  -27.6660  -13.1998   19.8785 C   0  0  2  0  0  0
  -28.7072  -12.9617   20.9954 C   0  0  0  0  0  0
  -25.2620  -13.8147   20.5673 C   0  0  0  0  0  0
  -24.1855  -13.0438   20.9160 C   0  0  0  0  0  0
  -24.6396  -11.6899   20.8725 C   0  0  0  0  0  0
  -23.9054  -10.4290   21.0397 C   0  0  0  0  0  0
  -24.3607   -9.4209   21.9178 C   0  0  0  0  0  0
  -23.6283   -8.2246   22.0756 C   0  0  0  0  0  0
  -22.4264   -8.0284   21.3544 C   0  0  0  0  0  0
  -21.9891   -9.0258   20.4648 C   0  0  0  0  0  0
  -22.7223  -10.2135   20.3054 C   0  0  0  0  0  0
  -21.6854   -6.0731   22.5276 C   0  0  0  0  0  0
  -21.4020   -6.5638   23.8211 C   0  0  0  0  0  0
  -21.3658   -5.6787   24.9170 C   0  0  0  0  0  0
  -21.6042   -4.3049   24.7221 C   0  0  0  0  0  0
  -21.8822   -3.8143   23.4343 C   0  0  0  0  0  0
  -21.9194   -4.6959   22.3399 C   0  0  0  0  0  0
  -22.7878  -13.5247   21.1822 C   0  0  0  0  0  0
  -22.1659   -4.2146   21.0974 F   0  0  0  0  0  0
  -21.5623   -3.4534   25.7734 F   0  0  0  0  0  0
  -30.0374  -13.3031   20.4547 N   0  0  0  0  0  0
  -26.3047  -12.9296   20.3363 N   0  0  0  0  0  0
  -25.9323  -11.6466   20.5755 N   0  0  0  0  0  0
  -22.0512  -12.8259   22.0388 N   0  0  0  0  0  0
  -25.4377  -15.1865   20.4110 N   0  0  0  0  0  0
  -31.7549  -14.7607   20.0843 O   0  0  0  0  0  0
  -21.6636   -6.8878   21.4240 O   0  0  0  0  0  0
  -22.3564  -14.5552   20.6667 O   0  0  0  0  0  0
  -24.6166  -31.8654   23.2074 C   0  0  0  0  0  0
  -25.9051  -32.4809   23.8375 C   0  0  1  0  0  0
  -27.2436  -27.4091   20.0879 C   0  0  0  0  0  0
  -25.5902  -33.8608   24.2309 N   0  0  0  0  0  0
  -23.4059  -30.4873   21.5485 C   0  0  2  0  0  0
  -24.8533  -28.9475   20.1143 C   0  0  0  0  0  0
  -22.7416  -29.4642   22.4980 C   0  0  0  0  0  0
  -18.0272  -28.1377   22.8490 C   0  0  0  0  0  0
  -24.1486  -36.7310   23.2635 C   0  0  0  0  0  0
  -25.9368  -30.8202   21.3655 C   0  0  0  0  0  0
  -26.0132  -29.4513   20.7139 C   0  0  0  0  0  0
  -27.2054  -28.6864   20.7037 C   0  0  0  0  0  0
  -26.0558  -26.9199   19.4954 C   0  0  0  0  0  0
  -24.8699  -27.6808   19.5053 C   0  0  0  0  0  0
  -23.6155  -29.8168   20.1641 C   0  0  0  0  0  0
  -25.4106  -36.3103   24.0335 C   0  0  1  0  0  0
  -20.5863  -28.3665   23.1312 C   0  0  2  0  0  0
  -20.6763  -26.9398   22.5419 C   0  0  0  0  0  0
  -19.5744  -26.6380   21.5213 C   0  0  0  0  0  0
  -18.1921  -26.7923   22.1620 C   0  0  0  0  0  0
  -19.1521  -28.8838   23.2898 C   0  0  0  0  0  0
  -18.9450  -30.1443   23.8909 C   0  0  0  0  0  0
  -17.6453  -30.6581   24.0566 C   0  0  0  0  0  0
  -25.9038  -34.9471   23.5121 C   0  0  0  0  0  0
  -16.5345  -29.9084   23.6327 C   0  0  0  0  0  0
  -16.7262  -28.6501   23.0349 C   0  0  0  0  0  0
  -26.4475  -31.6597   25.0710 C   0  0  0  0  0  0
  -25.3742  -31.3725   26.1467 C   0  0  0  0  0  0
  -27.0299  -30.3030   24.6105 C   0  0  0  0  0  0
  -27.6047  -32.4321   25.7469 C   0  0  0  0  0  0
  -27.5587  -37.1799   24.8457 C   0  0  0  0  0  0
  -21.4142  -29.3029   22.3719 N   0  0  0  0  0  0
  -26.4291  -37.3793   23.9415 N   0  0  0  0  0  0
  -24.6713  -31.0730   22.0987 N   0  0  0  0  0  0
  -23.4176  -28.8190   23.3037 O   0  0  0  0  0  0
  -28.4256  -26.6815   20.1105 O   0  0  0  0  0  0
  -26.5605  -34.8926   22.4686 O   0  0  0  0  0  0
  -23.5354  -32.1423   23.7455 O   0  0  0  0  0  0
  -30.6403  -17.7128   20.3405 C   0  0  0  0  0  0
  -30.3800  -19.1052   20.2419 C   0  0  0  0  0  0
  -28.6310  -17.4633   21.6529 C   0  0  0  0  0  0
  -29.7594  -16.8658   21.0521 C   0  0  0  0  0  0
  -29.2416  -19.7093   20.8491 C   0  0  0  0  0  0
  -28.3560  -18.8481   21.5708 C   0  0  0  0  0  0
  -26.8347  -20.5870   22.3614 C   0  0  0  0  0  0
  -28.4091  -24.1461   19.6694 C   0  0  0  0  0  0
  -29.5784  -23.4913   20.4654 C   0  0  0  0  0  0
  -28.6436  -25.6095   19.1688 C   0  0  0  0  0  0
  -29.8983  -21.9870   20.1770 C   0  0  0  0  0  0
  -29.8947  -15.4426   21.2132 N   0  0  0  0  0  0
  -27.1989  -19.2205   22.2317 O   0  0  0  0  0  0
  -28.9588  -21.0731   20.7574 O   0  0  0  0  0  0
  -31.4829  -12.4632   19.1209 H   0  0  0  0  0  0
  -30.3708  -11.3192   19.8165 H   0  0  0  0  0  0
  -29.7502  -11.7897   17.4324 H   0  0  0  0  0  0
  -29.6616  -13.5000   17.7676 H   0  0  0  0  0  0
  -27.8376  -11.3085   18.8129 H   0  0  0  0  0  0
  -27.3736  -12.6412   17.7889 H   0  0  0  0  0  0
  -27.7143  -14.2497   19.5899 H   0  0  0  0  0  0
  -28.6963  -11.9151   21.3024 H   0  0  0  0  0  0
  -28.4513  -13.5206   21.8964 H   0  0  0  0  0  0
  -25.2761   -9.5684   22.4741 H   0  0  0  0  0  0
  -23.9993   -7.4640   22.7479 H   0  0  0  0  0  0
  -21.0816   -8.8783   19.8958 H   0  0  0  0  0  0
  -22.3687  -10.9674   19.6158 H   0  0  0  0  0  0
  -21.2024   -7.6146   23.9713 H   0  0  0  0  0  0
  -21.1470   -6.0516   25.9071 H   0  0  0  0  0  0
  -22.0604   -2.7604   23.2846 H   0  0  0  0  0  0
  -22.4113  -11.9919   22.4783 H   0  0  0  0  0  0
  -21.1138  -13.1313   22.2594 H   0  0  0  0  0  0
  -24.6753  -15.8460   20.5240 H   0  0  0  0  0  0
  -26.2934  -15.6231   20.0930 H   0  0  0  0  0  0
  -26.7115  -32.5510   23.1128 H   0  0  0  0  0  0
  -25.0064  -33.9764   25.0464 H   0  0  0  0  0  0
  -22.6960  -31.3049   21.4074 H   0  0  0  0  0  0
  -23.3750  -35.9640   23.3288 H   0  0  0  0  0  0
  -24.3589  -36.8937   22.2053 H   0  0  0  0  0  0
  -23.7232  -37.6508   23.6656 H   0  0  0  0  0  0
  -26.0534  -31.5840   20.5952 H   0  0  0  0  0  0
  -26.8232  -30.8744   21.9857 H   0  0  0  0  0  0
  -28.1009  -29.0748   21.1689 H   0  0  0  0  0  0
  -26.0218  -25.9429   19.0361 H   0  0  0  0  0  0
  -23.9754  -27.2824   19.0465 H   0  0  0  0  0  0
  -23.7231  -30.5901   19.4027 H   0  0  0  0  0  0
  -22.7389  -29.2369   19.8696 H   0  0  0  0  0  0
  -25.1278  -36.1967   25.0827 H   0  0  0  0  0  0
  -20.9952  -28.3238   24.1433 H   0  0  0  0  0  0
  -20.5664  -26.2272   23.3607 H   0  0  0  0  0  0
  -21.6639  -26.7441   22.1218 H   0  0  0  0  0  0
  -19.6910  -25.6295   21.1232 H   0  0  0  0  0  0
  -19.6684  -27.3198   20.6751 H   0  0  0  0  0  0
  -17.4192  -26.6672   21.4020 H   0  0  0  0  0  0
  -18.0319  -26.0060   22.9009 H   0  0  0  0  0  0
  -19.7928  -30.7255   24.2283 H   0  0  0  0  0  0
  -17.5010  -31.6265   24.5163 H   0  0  0  0  0  0
  -15.5348  -30.2993   23.7642 H   0  0  0  0  0  0
  -15.8660  -28.0825   22.7059 H   0  0  0  0  0  0
  -24.5903  -30.7078   25.7821 H   0  0  0  0  0  0
  -24.8951  -32.2891   26.4915 H   0  0  0  0  0  0
  -25.8098  -30.8898   27.0223 H   0  0  0  0  0  0
  -26.2843  -29.6792   24.1162 H   0  0  0  0  0  0
  -27.4062  -29.7270   25.4569 H   0  0  0  0  0  0
  -27.8683  -30.4334   23.9259 H   0  0  0  0  0  0
  -27.2663  -33.3613   26.2064 H   0  0  0  0  0  0
  -28.3843  -32.6896   25.0287 H   0  0  0  0  0  0
  -28.0729  -31.8440   26.5371 H   0  0  0  0  0  0
  -28.2588  -38.0114   24.7541 H   0  0  0  0  0  0
  -28.1100  -36.2651   24.6227 H   0  0  0  0  0  0
  -27.2317  -37.1386   25.8862 H   0  0  0  0  0  0
  -20.9307  -29.8747   21.6936 H   0  0  0  0  0  0
  -26.0179  -38.2864   24.1439 H   0  0  0  0  0  0
  -31.5205  -17.3115   19.8581 H   0  0  0  0  0  0
  -31.0803  -19.7005   19.6751 H   0  0  0  0  0  0
  -27.9362  -16.8423   22.2004 H   0  0  0  0  0  0
  -26.5802  -21.0272   21.3967 H   0  0  0  0  0  0
  -27.6196  -21.1701   22.8447 H   0  0  0  0  0  0
  -25.9479  -20.6593   22.9906 H   0  0  0  0  0  0
  -27.4777  -24.0785   20.2322 H   0  0  0  0  0  0
  -28.2482  -23.5383   18.7785 H   0  0  0  0  0  0
  -29.4258  -23.6407   21.5349 H   0  0  0  0  0  0
  -30.4886  -24.0451   20.2335 H   0  0  0  0  0  0
  -28.0702  -25.7825   18.2579 H   0  0  0  0  0  0
  -29.6767  -25.6981   18.8315 H   0  0  0  0  0  0
  -30.8845  -21.7797   20.5951 H   0  0  0  0  0  0
  -29.9692  -21.8165   19.1020 H   0  0  0  0  0  0
  -29.1153  -15.0114   21.6856 H   0  0  0  0  0  0
  1 25  1  0  0  0
  1 30  2  0  0  0
  1 82  1  0  0  0
  2  3  1  0  0  0
  2 25  1  0  0  0
  2 85  1  0  0  0
  2 86  1  0  0  0
  3  4  1  0  0  0
  3 87  1  0  0  0
  3 88  1  0  0  0
  4  5  1  0  0  0
  4 89  1  0  0  0
  4 90  1  0  0  0
  5  6  1  0  0  0
  5 26  1  0  0  0
  5 91  1  0  0  0
  6 25  1  0  0  0
  6 92  1  0  0  0
  6 93  1  0  0  0
  7  8  2  0  0  0
  7 26  1  0  0  0
  7 29  1  0  0  0
  8  9  1  0  0  0
  8 22  1  0  0  0
  9 10  1  0  0  0
  9 27  2  0  0  0
 10 11  2  0  0  0
 10 15  1  0  0  0
 11 12  1  0  0  0
 11 94  1  0  0  0
 12 13  2  0  0  0
 12 95  1  0  0  0
 13 14  1  0  0  0
 13 31  1  0  0  0
 14 15  2  0  0  0
 14 96  1  0  0  0
 15 97  1  0  0  0
 16 17  2  0  0  0
 16 21  1  0  0  0
 16 31  1  0  0  0
 17 18  1  0  0  0
 17 98  1  0  0  0
 18 19  2  0  0  0
 18 99  1  0  0  0
 19 20  1  0  0  0
 19 24  1  0  0  0
 20 21  2  0  0  0
 20100  1  0  0  0
 21 23  1  0  0  0
 22 28  1  0  0  0
 22 32  2  0  0  0
 26 27  1  0  0  0
 28101  1  0  0  0
 28102  1  0  0  0
 29103  1  0  0  0
 29104  1  0  0  0
 33 34  1  0  0  0
 33 66  1  0  0  0
 33 70  2  0  0  0
 34 36  1  0  0  0
 34 59  1  0  0  0
 34105  1  0  0  0
 35 44  2  0  0  0
 35 45  1  0  0  0
 35 68  1  0  0  0
 36 56  1  0  0  0
 36106  1  0  0  0
 37 39  1  0  0  0
 37 47  1  0  0  0
 37 66  1  0  0  0
 37107  1  0  0  0
 38 43  2  0  0  0
 38 46  1  0  0  0
 38 47  1  0  0  0
 39 64  1  0  0  0
 39 67  2  0  0  0
 40 52  1  0  0  0
 40 53  2  0  0  0
 40 58  1  0  0  0
 41108  1  0  0  0
 41109  1  0  0  0
 41110  1  0  0  0
 41 48  1  0  0  0
 42 43  1  0  0  0
 42 66  1  0  0  0
 42111  1  0  0  0
 42112  1  0  0  0
 43 44  1  0  0  0
 44113  1  0  0  0
 45 46  2  0  0  0
 45114  1  0  0  0
 46115  1  0  0  0
 47116  1  0  0  0
 47117  1  0  0  0
 48 56  1  0  0  0
 48 65  1  0  0  0
 48118  1  0  0  0
 49 50  1  0  0  0
 49 53  1  0  0  0
 49 64  1  0  0  0
 49119  1  0  0  0
 50 51  1  0  0  0
 50120  1  0  0  0
 50121  1  0  0  0
 51 52  1  0  0  0
 51122  1  0  0  0
 51123  1  0  0  0
 52124  1  0  0  0
 52125  1  0  0  0
 53 54  1  0  0  0
 54 55  2  0  0  0
 54126  1  0  0  0
 55 57  1  0  0  0
 55127  1  0  0  0
 56 69  2  0  0  0
 57 58  2  0  0  0
 57128  1  0  0  0
 58129  1  0  0  0
 59 60  1  0  0  0
 59 61  1  0  0  0
 59 62  1  0  0  0
 60130  1  0  0  0
 60131  1  0  0  0
 60132  1  0  0  0
 61133  1  0  0  0
 61134  1  0  0  0
 61135  1  0  0  0
 62136  1  0  0  0
 62137  1  0  0  0
 62138  1  0  0  0
 63 65  1  0  0  0
 63139  1  0  0  0
 63140  1  0  0  0
 63141  1  0  0  0
 64142  1  0  0  0
 65143  1  0  0  0
 68 80  1  0  0  0
 71 72  2  0  0  0
 71 74  1  0  0  0
 71144  1  0  0  0
 72 75  1  0  0  0
 72145  1  0  0  0
 73 74  2  0  0  0
 73 76  1  0  0  0
 73146  1  0  0  0
 74 82  1  0  0  0
 75 76  2  0  0  0
 75 84  1  0  0  0
 76 83  1  0  0  0
 77 83  1  0  0  0
 77147  1  0  0  0
 77148  1  0  0  0
 77149  1  0  0  0
 78 79  1  0  0  0
 78 80  1  0  0  0
 78150  1  0  0  0
 78151  1  0  0  0
 79 81  1  0  0  0
 79152  1  0  0  0
 79153  1  0  0  0
 80154  1  0  0  0
 80155  1  0  0  0
 81 84  1  0  0  0
 81156  1  0  0  0
 81157  1  0  0  0
 82158  1  0  0  0
M  ISO  4   1 100  68 101  80 101  82 100
M  END
> <chiral flag>
0

> <version>
0

> <s_m_source_file>
/data/baiqing/PycharmProjects/Reinvent-master-3.2/result/LINK_invent/BTK/process_docking_weight1_custom_sum_contain_oxygen_bond_distance_aromatic_linkinvent_7_9_3/rearranged_h_0002.sdf

> <i_m_source_file_index>
27

> <r_mmod_Potential_Energy-OPLS-2005>
4.60142469406128

> <r_mmod_Stretch_Energy-OPLS-2005>
48.0437355041504

> <r_mmod_Bend_Energy-OPLS-2005>
149.834060668945

> <r_mmod_Torsional_Energy-OPLS-2005>
219.246276855469

> <r_mmod_Improper_Torsional_Energy-OPLS-2005>
3.4080023765564

> <r_mmod_Van_der_Waal_Energy-OPLS-2005>
158.802154541016

> <r_mmod_Electrostatic_Energy-OPLS-2005>
-381.925140380859

> <r_mmod_Solvation_Energy-OPLS-2005>
-210.446517944336

> <b_mmod_Minimization_Converged-OPLS-2005>
0

> <r_mmod_RMS_Derivative-OPLS-2005>
0.905892908573151

$$$$
27
                    3D
 Structure written by MMmdl.
158165  0  0  1  0            999 V2000
  -30.6955  -14.4749   20.4493 C   0  0  0  0  0  0
  -30.4268  -12.2819   19.4213 C   0  0  0  0  0  0
  -29.4936  -12.4541   18.2040 C   0  0  0  0  0  0
  -28.0147  -12.3310   18.6194 C   0  0  0  0  0  0
  -27.6561  -13.1971   19.8568 C   0  0  2  0  0  0
  -28.7070  -13.0372   20.9819 C   0  0  0  0  0  0
  -25.2617  -13.8174   20.5633 C   0  0  0  0  0  0
  -24.1833  -13.0467   20.9156 C   0  0  0  0  0  0
  -24.6376  -11.6937   20.8756 C   0  0  0  0  0  0
  -23.9037  -10.4324   21.0420 C   0  0  0  0  0  0
  -24.3608   -9.4241   21.9189 C   0  0  0  0  0  0
  -23.6302   -8.2275   22.0747 C   0  0  0  0  0  0
  -22.4290   -8.0308   21.3548 C   0  0  0  0  0  0
  -21.9914   -9.0267   20.4649 C   0  0  0  0  0  0
  -22.7219  -10.2159   20.3064 C   0  0  0  0  0  0
  -21.6857   -6.0768   22.5283 C   0  0  0  0  0  0
  -21.4002   -6.5646   23.8216 C   0  0  0  0  0  0
  -21.3655   -5.6793   24.9165 C   0  0  0  0  0  0
  -21.6030   -4.3058   24.7208 C   0  0  0  0  0  0
  -21.8831   -3.8160   23.4322 C   0  0  0  0  0  0
  -21.9180   -4.6987   22.3384 C   0  0  0  0  0  0
  -22.7875  -13.5271   21.1842 C   0  0  0  0  0  0
  -22.1662   -4.2170   21.0968 F   0  0  0  0  0  0
  -21.5624   -3.4536   25.7715 F   0  0  0  0  0  0
  -30.0330  -13.2963   20.4030 N   0  0  0  0  0  0
  -26.3015  -12.9295   20.3312 N   0  0  0  0  0  0
  -25.9302  -11.6481   20.5805 N   0  0  0  0  0  0
  -22.0508  -12.8244   22.0399 N   0  0  0  0  0  0
  -25.4411  -15.1882   20.4063 N   0  0  0  0  0  0
  -31.8911  -14.5981   20.1869 O   0  0  0  0  0  0
  -21.6654   -6.8917   21.4261 O   0  0  0  0  0  0
  -22.3558  -14.5577   20.6711 O   0  0  0  0  0  0
  -24.6133  -31.8712   23.2161 C   0  0  0  0  0  0
  -25.9032  -32.4845   23.8427 C   0  0  1  0  0  0
  -27.2276  -27.4634   20.0604 C   0  0  0  0  0  0
  -25.5894  -33.8652   24.2343 N   0  0  0  0  0  0
  -23.3972  -30.4970   21.5564 C   0  0  2  0  0  0
  -24.8353  -28.9686   20.1114 C   0  0  0  0  0  0
  -22.7394  -29.4682   22.5031 C   0  0  0  0  0  0
  -18.0289  -28.1365   22.8440 C   0  0  0  0  0  0
  -24.1484  -36.7328   23.2630 C   0  0  0  0  0  0
  -25.9265  -30.8337   21.3707 C   0  0  0  0  0  0
  -25.9944  -29.4739   20.7103 C   0  0  0  0  0  0
  -27.1905  -28.7280   20.6838 C   0  0  0  0  0  0
  -26.0466  -26.9706   19.4536 C   0  0  0  0  0  0
  -24.8530  -27.7133   19.4845 C   0  0  0  0  0  0
  -23.6000  -29.8346   20.1678 C   0  0  0  0  0  0
  -25.4102  -36.3135   24.0347 C   0  0  1  0  0  0
  -20.5862  -28.3673   23.1321 C   0  0  2  0  0  0
  -20.6836  -26.9429   22.5358 C   0  0  0  0  0  0
  -19.5835  -26.6407   21.5134 C   0  0  0  0  0  0
  -18.1982  -26.7943   22.1493 C   0  0  0  0  0  0
  -19.1510  -28.8831   23.2891 C   0  0  0  0  0  0
  -18.9424  -30.1442   23.8903 C   0  0  0  0  0  0
  -17.6422  -30.6577   24.0551 C   0  0  0  0  0  0
  -25.9042  -34.9500   23.5139 C   0  0  0  0  0  0
  -16.5333  -29.9042   23.6321 C   0  0  0  0  0  0
  -16.7262  -28.6468   23.0328 C   0  0  0  0  0  0
  -26.4448  -31.6649   25.0754 C   0  0  0  0  0  0
  -25.3698  -31.3776   26.1487 C   0  0  0  0  0  0
  -27.0248  -30.3092   24.6135 C   0  0  0  0  0  0
  -27.6027  -32.4360   25.7496 C   0  0  0  0  0  0
  -27.5589  -37.1807   24.8454 C   0  0  0  0  0  0
  -21.4124  -29.3021   22.3722 N   0  0  0  0  0  0
  -26.4291  -37.3807   23.9404 N   0  0  0  0  0  0
  -24.6648  -31.0805   22.1054 N   0  0  0  0  0  0
  -23.4156  -28.8256   23.3087 O   0  0  0  0  0  0
  -28.4289  -26.7882   20.0529 O   0  0  0  0  0  0
  -26.5596  -34.8936   22.4699 O   0  0  0  0  0  0
  -23.5342  -32.1469   23.7566 O   0  0  0  0  0  0
  -27.9401  -21.2290   21.7848 C   0  0  0  0  0  0
  -28.3129  -20.1772   20.7273 C   0  0  0  0  0  0
  -27.9053  -22.6672   21.2581 C   0  0  0  0  0  0
  -28.3611  -18.7689   21.3393 C   0  0  0  0  0  0
  -29.2535  -23.1695   20.6995 C   0  0  0  0  0  0
  -28.9035  -17.7155   20.3688 C   0  0  0  0  0  0
  -29.3715  -24.7035   20.7624 C   0  0  0  0  0  0
  -29.2256  -16.3832   21.0700 C   0  0  0  0  0  0
  -28.4304  -25.3925   19.7757 C   0  0  0  0  0  0
  -29.9198  -15.5149   20.1309 N   0  0  0  0  0  0
  -31.4670  -12.3909   19.1038 H   0  0  0  0  0  0
  -30.3416  -11.2851   19.8552 H   0  0  0  0  0  0
  -29.7320  -11.7060   17.4460 H   0  0  0  0  0  0
  -29.6673  -13.4271   17.7436 H   0  0  0  0  0  0
  -27.8132  -11.2806   18.8262 H   0  0  0  0  0  0
  -27.3671  -12.5966   17.7800 H   0  0  0  0  0  0
  -27.6742  -14.2320   19.5136 H   0  0  0  0  0  0
  -28.6710  -12.0366   21.4142 H   0  0  0  0  0  0
  -28.4983  -13.7239   21.8041 H   0  0  0  0  0  0
  -25.2776   -9.5706   22.4737 H   0  0  0  0  0  0
  -24.0008   -7.4659   22.7450 H   0  0  0  0  0  0
  -21.0843   -8.8782   19.8959 H   0  0  0  0  0  0
  -22.3678  -10.9691   19.6161 H   0  0  0  0  0  0
  -21.2020   -7.6169   23.9717 H   0  0  0  0  0  0
  -21.1455   -6.0532   25.9065 H   0  0  0  0  0  0
  -22.0616   -2.7628   23.2811 H   0  0  0  0  0  0
  -22.4120  -11.9875   22.4742 H   0  0  0  0  0  0
  -21.1159  -13.1305   22.2659 H   0  0  0  0  0  0
  -24.6964  -15.8620   20.5477 H   0  0  0  0  0  0
  -26.3102  -15.6162   20.1093 H   0  0  0  0  0  0
  -26.7091  -32.5533   23.1180 H   0  0  0  0  0  0
  -25.0010  -33.9839   25.0466 H   0  0  0  0  0  0
  -22.6829  -31.3125   21.4239 H   0  0  0  0  0  0
  -23.3759  -35.9646   23.3319 H   0  0  0  0  0  0
  -24.3577  -36.8900   22.2031 H   0  0  0  0  0  0
  -23.7217  -37.6536   23.6636 H   0  0  0  0  0  0
  -26.0391  -31.5974   20.6005 H   0  0  0  0  0  0
  -26.8164  -30.8803   21.9881 H   0  0  0  0  0  0
  -28.0885  -29.1220   21.1399 H   0  0  0  0  0  0
  -26.0189  -26.0343   18.9194 H   0  0  0  0  0  0
  -23.9663  -27.3272   19.0026 H   0  0  0  0  0  0
  -23.7013  -30.6102   19.4061 H   0  0  0  0  0  0
  -22.7234  -29.2463   19.8888 H   0  0  0  0  0  0
  -25.1289  -36.2018   25.0845 H   0  0  0  0  0  0
  -20.9926  -28.3216   24.1453 H   0  0  0  0  0  0
  -20.5819  -26.2228   23.3482 H   0  0  0  0  0  0
  -21.6706  -26.7543   22.1160 H   0  0  0  0  0  0
  -19.7037  -25.6344   21.1116 H   0  0  0  0  0  0
  -19.6829  -27.3233   20.6679 H   0  0  0  0  0  0
  -17.4322  -26.6756   21.3817 H   0  0  0  0  0  0
  -18.0317  -26.0030   22.8820 H   0  0  0  0  0  0
  -19.7882  -30.7288   24.2272 H   0  0  0  0  0  0
  -17.4944  -31.6268   24.5111 H   0  0  0  0  0  0
  -15.5326  -30.2919   23.7655 H   0  0  0  0  0  0
  -15.8673  -28.0788   22.7008 H   0  0  0  0  0  0
  -24.5858  -30.7145   25.7819 H   0  0  0  0  0  0
  -24.8903  -32.2940   26.4957 H   0  0  0  0  0  0
  -25.8032  -30.8919   27.0237 H   0  0  0  0  0  0
  -26.2789  -29.6882   24.1149 H   0  0  0  0  0  0
  -27.3944  -29.7331   25.4625 H   0  0  0  0  0  0
  -27.8685  -30.4404   23.9343 H   0  0  0  0  0  0
  -27.2670  -33.3636   26.2162 H   0  0  0  0  0  0
  -28.3807  -32.6950   25.0299 H   0  0  0  0  0  0
  -28.0746  -31.8419   26.5330 H   0  0  0  0  0  0
  -28.2624  -38.0087   24.7520 H   0  0  0  0  0  0
  -28.1088  -36.2627   24.6308 H   0  0  0  0  0  0
  -27.2320  -37.1493   25.8858 H   0  0  0  0  0  0
  -20.9296  -29.8670   21.6860 H   0  0  0  0  0  0
  -26.0222  -38.2906   24.1382 H   0  0  0  0  0  0
  -26.9589  -20.9907   22.2025 H   0  0  0  0  0  0
  -28.6409  -21.1757   22.6196 H   0  0  0  0  0  0
  -29.2872  -20.4174   20.2996 H   0  0  0  0  0  0
  -27.6011  -20.2006   19.8996 H   0  0  0  0  0  0
  -27.6020  -23.3066   22.0888 H   0  0  0  0  0  0
  -27.1179  -22.7698   20.5101 H   0  0  0  0  0  0
  -27.3649  -18.4788   21.6812 H   0  0  0  0  0  0
  -29.0106  -18.7879   22.2150 H   0  0  0  0  0  0
  -30.0771  -22.7402   21.2727 H   0  0  0  0  0  0
  -29.3840  -22.8249   19.6696 H   0  0  0  0  0  0
  -28.1840  -17.5480   19.5639 H   0  0  0  0  0  0
  -29.8044  -18.1086   19.8944 H   0  0  0  0  0  0
  -30.3942  -25.0189   20.5633 H   0  0  0  0  0  0
  -29.1440  -25.0448   21.7751 H   0  0  0  0  0  0
  -28.3062  -15.9254   21.4399 H   0  0  0  0  0  0
  -29.8655  -16.5660   21.9329 H   0  0  0  0  0  0
  -27.4514  -24.9387   19.9032 H   0  0  0  0  0  0
  -28.7567  -25.2145   18.7504 H   0  0  0  0  0  0
  -30.3669  -16.0540   19.4031 H   0  0  0  0  0  0
  1 25  1  0  0  0
  1 30  2  0  0  0
  1 80  1  0  0  0
  2  3  1  0  0  0
  2 25  1  0  0  0
  2 81  1  0  0  0
  2 82  1  0  0  0
  3  4  1  0  0  0
  3 83  1  0  0  0
  3 84  1  0  0  0
  4  5  1  0  0  0
  4 85  1  0  0  0
  4 86  1  0  0  0
  5  6  1  0  0  0
  5 26  1  0  0  0
  5 87  1  0  0  0
  6 25  1  0  0  0
  6 88  1  0  0  0
  6 89  1  0  0  0
  7  8  2  0  0  0
  7 26  1  0  0  0
  7 29  1  0  0  0
  8  9  1  0  0  0
  8 22  1  0  0  0
  9 10  1  0  0  0
  9 27  2  0  0  0
 10 11  2  0  0  0
 10 15  1  0  0  0
 11 12  1  0  0  0
 11 90  1  0  0  0
 12 13  2  0  0  0
 12 91  1  0  0  0
 13 14  1  0  0  0
 13 31  1  0  0  0
 14 15  2  0  0  0
 14 92  1  0  0  0
 15 93  1  0  0  0
 16 17  2  0  0  0
 16 21  1  0  0  0
 16 31  1  0  0  0
 17 18  1  0  0  0
 17 94  1  0  0  0
 18 19  2  0  0  0
 18 95  1  0  0  0
 19 20  1  0  0  0
 19 24  1  0  0  0
 20 21  2  0  0  0
 20 96  1  0  0  0
 21 23  1  0  0  0
 22 28  1  0  0  0
 22 32  2  0  0  0
 26 27  1  0  0  0
 28 97  1  0  0  0
 28 98  1  0  0  0
 29 99  1  0  0  0
 29100  1  0  0  0
 33 34  1  0  0  0
 33 66  1  0  0  0
 33 70  2  0  0  0
 34 36  1  0  0  0
 34 59  1  0  0  0
 34101  1  0  0  0
 35 44  2  0  0  0
 35 45  1  0  0  0
 35 68  1  0  0  0
 36 56  1  0  0  0
 36102  1  0  0  0
 37 39  1  0  0  0
 37 47  1  0  0  0
 37 66  1  0  0  0
 37103  1  0  0  0
 38 43  2  0  0  0
 38 46  1  0  0  0
 38 47  1  0  0  0
 39 64  1  0  0  0
 39 67  2  0  0  0
 40 52  1  0  0  0
 40 53  2  0  0  0
 40 58  1  0  0  0
 41104  1  0  0  0
 41105  1  0  0  0
 41106  1  0  0  0
 41 48  1  0  0  0
 42 43  1  0  0  0
 42 66  1  0  0  0
 42107  1  0  0  0
 42108  1  0  0  0
 43 44  1  0  0  0
 44109  1  0  0  0
 45 46  2  0  0  0
 45110  1  0  0  0
 46111  1  0  0  0
 47112  1  0  0  0
 47113  1  0  0  0
 48 56  1  0  0  0
 48 65  1  0  0  0
 48114  1  0  0  0
 49 50  1  0  0  0
 49 53  1  0  0  0
 49 64  1  0  0  0
 49115  1  0  0  0
 50 51  1  0  0  0
 50116  1  0  0  0
 50117  1  0  0  0
 51 52  1  0  0  0
 51118  1  0  0  0
 51119  1  0  0  0
 52120  1  0  0  0
 52121  1  0  0  0
 53 54  1  0  0  0
 54 55  2  0  0  0
 54122  1  0  0  0
 55 57  1  0  0  0
 55123  1  0  0  0
 56 69  2  0  0  0
 57 58  2  0  0  0
 57124  1  0  0  0
 58125  1  0  0  0
 59 60  1  0  0  0
 59 61  1  0  0  0
 59 62  1  0  0  0
 60126  1  0  0  0
 60127  1  0  0  0
 60128  1  0  0  0
 61129  1  0  0  0
 61130  1  0  0  0
 61131  1  0  0  0
 62132  1  0  0  0
 62133  1  0  0  0
 62134  1  0  0  0
 63 65  1  0  0  0
 63135  1  0  0  0
 63136  1  0  0  0
 63137  1  0  0  0
 64138  1  0  0  0
 65139  1  0  0  0
 68 79  1  0  0  0
 71 72  1  0  0  0
 71 73  1  0  0  0
 71140  1  0  0  0
 71141  1  0  0  0
 72 74  1  0  0  0
 72142  1  0  0  0
 72143  1  0  0  0
 73 75  1  0  0  0
 73144  1  0  0  0
 73145  1  0  0  0
 74 76  1  0  0  0
 74146  1  0  0  0
 74147  1  0  0  0
 75 77  1  0  0  0
 75148  1  0  0  0
 75149  1  0  0  0
 76 78  1  0  0  0
 76150  1  0  0  0
 76151  1  0  0  0
 77 79  1  0  0  0
 77152  1  0  0  0
 77153  1  0  0  0
 78 80  1  0  0  0
 78154  1  0  0  0
 78155  1  0  0  0
 79156  1  0  0  0
 79157  1  0  0  0
 80158  1  0  0  0
M  ISO  4   1 100  68 101  79 101  80 100
M  END
> <chiral flag>
0

> <version>
0

> <s_m_source_file>
/data/baiqing/PycharmProjects/Reinvent-master-3.2/result/LINK_invent/BTK/process_docking_weight1_custom_sum_contain_oxygen_bond_distance_aromatic_linkinvent_7_9_3/rearranged_h_0002.sdf

> <i_m_source_file_index>
28

> <r_mmod_Potential_Energy-OPLS-2005>
33.4706535339355

> <r_mmod_Stretch_Energy-OPLS-2005>
28.4060153961182

> <r_mmod_Bend_Energy-OPLS-2005>
101.859268188477

> <r_mmod_Torsional_Energy-OPLS-2005>
273.554534912109

> <r_mmod_Improper_Torsional_Energy-OPLS-2005>
27.026538848877

> <r_mmod_Van_der_Waal_Energy-OPLS-2005>
135.202743530273

> <r_mmod_Electrostatic_Energy-OPLS-2005>
-363.764373779297

> <r_mmod_Solvation_Energy-OPLS-2005>
-190.28337097168

> <b_mmod_Minimization_Converged-OPLS-2005>
0

> <r_mmod_RMS_Derivative-OPLS-2005>
4.91448545455933

$$$$
28
                    3D
 Structure written by MMmdl.
144152  0  0  1  0            999 V2000
  -30.3021  -15.5932   20.3329 C   0  0  0  0  0  0
  -30.4326  -13.0479   19.5373 C   0  0  0  0  0  0
  -29.5520  -12.6461   18.3194 C   0  0  0  0  0  0
  -28.1210  -12.2991   18.7600 C   0  0  0  0  0  0
  -27.5995  -13.3023   19.8140 C   0  0  2  0  0  0
  -28.6192  -13.6098   20.9351 C   0  0  0  0  0  0
  -25.2337  -13.8274   20.5781 C   0  0  0  0  0  0
  -24.1722  -13.0430   20.9285 C   0  0  0  0  0  0
  -24.6417  -11.6940   20.8764 C   0  0  0  0  0  0
  -23.9117  -10.4290   21.0399 C   0  0  0  0  0  0
  -24.3652   -9.4203   21.9181 C   0  0  0  0  0  0
  -23.6312   -8.2246   22.0754 C   0  0  0  0  0  0
  -22.4292   -8.0288   21.3546 C   0  0  0  0  0  0
  -21.9939   -9.0264   20.4645 C   0  0  0  0  0  0
  -22.7284  -10.2134   20.3051 C   0  0  0  0  0  0
  -21.6858   -6.0741   22.5279 C   0  0  0  0  0  0
  -21.4018   -6.5643   23.8213 C   0  0  0  0  0  0
  -21.3661   -5.6794   24.9174 C   0  0  0  0  0  0
  -21.6044   -4.3056   24.7224 C   0  0  0  0  0  0
  -21.8818   -3.8150   23.4344 C   0  0  0  0  0  0
  -21.9194   -4.6968   22.3402 C   0  0  0  0  0  0
  -22.7734  -13.5165   21.1921 C   0  0  0  0  0  0
  -22.1661   -4.2153   21.0979 F   0  0  0  0  0  0
  -21.5627   -3.4539   25.7736 F   0  0  0  0  0  0
  -29.8007  -14.2227   20.2856 N   0  0  0  0  0  0
  -26.2785  -12.9597   20.3223 N   0  0  0  0  0  0
  -25.9362  -11.6674   20.5699 N   0  0  0  0  0  0
  -22.0396  -12.8143   22.0473 N   0  0  0  0  0  0
  -25.3915  -15.2015   20.4212 N   0  0  0  0  0  0
  -31.5371  -15.5643   20.1684 O   0  0  0  0  0  0
  -21.6647   -6.8889   21.4243 O   0  0  0  0  0  0
  -22.3409  -14.5464   20.6757 O   0  0  0  0  0  0
  -24.6831  -31.8011   23.1526 C   0  0  0  0  0  0
  -25.9415  -32.4474   23.8070 C   0  0  1  0  0  0
  -27.2274  -26.7157   20.2118 C   0  0  0  0  0  0
  -25.5996  -33.8299   24.1956 N   0  0  0  0  0  0
  -23.5088  -30.4037   21.5064 C   0  0  2  0  0  0
  -24.9668  -28.7480   20.1182 C   0  0  0  0  0  0
  -22.7764  -29.4322   22.4715 C   0  0  0  0  0  0
  -18.0338  -28.1421   22.8455 C   0  0  0  0  0  0
  -24.1496  -36.7158   23.2652 C   0  0  0  0  0  0
  -26.0894  -30.5386   21.4154 C   0  0  0  0  0  0
  -26.1562  -29.1049   20.7648 C   0  0  0  0  0  0
  -27.2730  -28.1167   20.7789 C   0  0  0  0  0  0
  -26.0047  -26.5663   19.5091 C   0  0  0  0  0  0
  -24.9293  -27.5037   19.4667 C   0  0  0  0  0  0
  -23.7624  -29.7017   20.1415 C   0  0  0  0  0  0
  -25.4146  -36.2900   24.0282 C   0  0  1  0  0  0
  -20.5974  -28.3781   23.1142 C   0  0  2  0  0  0
  -20.6805  -26.9441   22.5403 C   0  0  0  0  0  0
  -19.5781  -26.6371   21.5216 C   0  0  0  0  0  0
  -18.1964  -26.7949   22.1619 C   0  0  0  0  0  0
  -19.1605  -28.8925   23.2779 C   0  0  0  0  0  0
  -18.9510  -30.1509   23.8825 C   0  0  0  0  0  0
  -17.6500  -30.6604   24.0550 C   0  0  0  0  0  0
  -25.9124  -34.9289   23.4955 C   0  0  0  0  0  0
  -16.5389  -29.9086   23.6350 C   0  0  0  0  0  0
  -16.7318  -28.6508   23.0366 C   0  0  0  0  0  0
  -26.4594  -31.6505   25.0689 C   0  0  0  0  0  0
  -25.3661  -31.3820   26.1304 C   0  0  0  0  0  0
  -27.0525  -30.2844   24.6583 C   0  0  0  0  0  0
  -27.6042  -32.4365   25.7508 C   0  0  0  0  0  0
  -27.5564  -37.1737   24.8466 C   0  0  0  0  0  0
  -21.4412  -29.3030   22.3464 N   0  0  0  0  0  0
  -26.4273  -37.3659   23.9406 N   0  0  0  0  0  0
  -24.7838  -30.9469   22.0774 N   0  0  0  0  0  0
  -23.4211  -28.7922   23.3056 O   0  0  0  0  0  0
  -28.1833  -25.4944   20.2808 O   0  0  0  0  0  0
  -26.5764  -34.8864   22.4572 O   0  0  0  0  0  0
  -23.5852  -32.1079   23.6486 O   0  0  0  0  0  0
  -29.2152  -21.2102   21.2850 C   0  0  0  0  0  0
  -28.4680  -20.9815   19.2114 C   0  0  0  0  0  0
  -29.5547  -19.7084   21.3189 C   0  0  0  0  0  0
  -28.7956  -19.4896   19.2463 C   0  0  0  0  0  0
  -28.6202  -22.0723   20.2165 C   0  0  0  0  0  0
  -29.3952  -18.6241   20.2984 C   0  0  0  0  0  0
  -27.8596  -23.7811   20.1605 C   0  0  0  0  0  0
  -29.4728  -16.9054   20.3744 N   0  0  0  0  0  0
  -31.4270  -13.3120   19.1754 H   0  0  0  0  0  0
  -30.5883  -12.1960   20.2015 H   0  0  0  0  0  0
  -29.9972  -11.8055   17.7855 H   0  0  0  0  0  0
  -29.5208  -13.4766   17.6126 H   0  0  0  0  0  0
  -28.1388  -11.2971   19.1903 H   0  0  0  0  0  0
  -27.4518  -12.2545   17.8999 H   0  0  0  0  0  0
  -27.4696  -14.2308   19.2564 H   0  0  0  0  0  0
  -28.8689  -12.7178   21.5116 H   0  0  0  0  0  0
  -28.1952  -14.3242   21.6424 H   0  0  0  0  0  0
  -25.2792   -9.5675   22.4765 H   0  0  0  0  0  0
  -24.0012   -7.4637   22.7479 H   0  0  0  0  0  0
  -21.0869   -8.8793   19.8951 H   0  0  0  0  0  0
  -22.3745  -10.9677   19.6162 H   0  0  0  0  0  0
  -21.2013   -7.6151   23.9718 H   0  0  0  0  0  0
  -21.1483   -6.0523   25.9077 H   0  0  0  0  0  0
  -22.0595   -2.7612   23.2843 H   0  0  0  0  0  0
  -22.4036  -11.9820   22.4872 H   0  0  0  0  0  0
  -21.1003  -13.1140   22.2670 H   0  0  0  0  0  0
  -24.6148  -15.8447   20.5307 H   0  0  0  0  0  0
  -26.2216  -15.6451   20.0524 H   0  0  0  0  0  0
  -26.7498  -32.4951   23.0785 H   0  0  0  0  0  0
  -25.0053  -33.9339   25.0048 H   0  0  0  0  0  0
  -22.8336  -31.2408   21.3174 H   0  0  0  0  0  0
  -23.3775  -35.9470   23.3267 H   0  0  0  0  0  0
  -24.3564  -36.8867   22.2076 H   0  0  0  0  0  0
  -23.7240  -37.6318   23.6760 H   0  0  0  0  0  0
  -26.2912  -31.2650   20.6272 H   0  0  0  0  0  0
  -26.9406  -30.6057   22.0807 H   0  0  0  0  0  0
  -28.1680  -28.3958   21.3169 H   0  0  0  0  0  0
  -25.8372  -25.6248   19.0063 H   0  0  0  0  0  0
  -24.0317  -27.2214   18.9338 H   0  0  0  0  0  0
  -23.9365  -30.4623   19.3796 H   0  0  0  0  0  0
  -22.8675  -29.1676   19.8174 H   0  0  0  0  0  0
  -25.1355  -36.1664   25.0772 H   0  0  0  0  0  0
  -21.0055  -28.3406   24.1269 H   0  0  0  0  0  0
  -20.5670  -26.2405   23.3665 H   0  0  0  0  0  0
  -21.6667  -26.7385   22.1221 H   0  0  0  0  0  0
  -19.6938  -25.6262   21.1294 H   0  0  0  0  0  0
  -19.6725  -27.3140   20.6714 H   0  0  0  0  0  0
  -17.4233  -26.6689   21.4023 H   0  0  0  0  0  0
  -18.0354  -26.0109   22.9033 H   0  0  0  0  0  0
  -19.7985  -30.7344   24.2163 H   0  0  0  0  0  0
  -17.5050  -31.6276   24.5167 H   0  0  0  0  0  0
  -15.5386  -30.2965   23.7716 H   0  0  0  0  0  0
  -15.8719  -28.0803   22.7123 H   0  0  0  0  0  0
  -24.5869  -30.7145   25.7603 H   0  0  0  0  0  0
  -24.8823  -32.3041   26.4534 H   0  0  0  0  0  0
  -25.7838  -30.9110   27.0211 H   0  0  0  0  0  0
  -26.3240  -29.6459   24.1575 H   0  0  0  0  0  0
  -27.3954  -29.7289   25.5322 H   0  0  0  0  0  0
  -27.9220  -30.3970   24.0106 H   0  0  0  0  0  0
  -27.2581  -33.3734   26.1884 H   0  0  0  0  0  0
  -28.3957  -32.6817   25.0414 H   0  0  0  0  0  0
  -28.0596  -31.8630   26.5592 H   0  0  0  0  0  0
  -28.2551  -38.0060   24.7511 H   0  0  0  0  0  0
  -28.1090  -36.2582   24.6297 H   0  0  0  0  0  0
  -27.2278  -37.1377   25.8867 H   0  0  0  0  0  0
  -20.9716  -29.8686   21.6531 H   0  0  0  0  0  0
  -26.0101  -38.2707   24.1416 H   0  0  0  0  0  0
  -29.3875  -21.7246   22.2200 H   0  0  0  0  0  0
  -27.9811  -21.2980   18.2995 H   0  0  0  0  0  0
  -29.9269  -19.3646   22.2737 H   0  0  0  0  0  0
  -28.4989  -18.9566   18.3538 H   0  0  0  0  0  0
  -27.0553  -23.6708   20.8879 H   0  0  0  0  0  0
  -27.3414  -23.7369   19.2027 H   0  0  0  0  0  0
  -28.5226  -16.5669   20.4124 H   0  0  0  0  0  0
  1 25  1  0  0  0
  1 30  2  0  0  0
  1 78  1  0  0  0
  2  3  1  0  0  0
  2 25  1  0  0  0
  2 79  1  0  0  0
  2 80  1  0  0  0
  3  4  1  0  0  0
  3 81  1  0  0  0
  3 82  1  0  0  0
  4  5  1  0  0  0
  4 83  1  0  0  0
  4 84  1  0  0  0
  5  6  1  0  0  0
  5 26  1  0  0  0
  5 85  1  0  0  0
  6 25  1  0  0  0
  6 86  1  0  0  0
  6 87  1  0  0  0
  7  8  2  0  0  0
  7 26  1  0  0  0
  7 29  1  0  0  0
  8  9  1  0  0  0
  8 22  1  0  0  0
  9 10  1  0  0  0
  9 27  2  0  0  0
 10 11  2  0  0  0
 10 15  1  0  0  0
 11 12  1  0  0  0
 11 88  1  0  0  0
 12 13  2  0  0  0
 12 89  1  0  0  0
 13 14  1  0  0  0
 13 31  1  0  0  0
 14 15  2  0  0  0
 14 90  1  0  0  0
 15 91  1  0  0  0
 16 17  2  0  0  0
 16 21  1  0  0  0
 16 31  1  0  0  0
 17 18  1  0  0  0
 17 92  1  0  0  0
 18 19  2  0  0  0
 18 93  1  0  0  0
 19 20  1  0  0  0
 19 24  1  0  0  0
 20 21  2  0  0  0
 20 94  1  0  0  0
 21 23  1  0  0  0
 22 28  1  0  0  0
 22 32  2  0  0  0
 26 27  1  0  0  0
 28 95  1  0  0  0
 28 96  1  0  0  0
 29 97  1  0  0  0
 29 98  1  0  0  0
 33 34  1  0  0  0
 33 66  1  0  0  0
 33 70  2  0  0  0
 34 36  1  0  0  0
 34 59  1  0  0  0
 34 99  1  0  0  0
 35 44  2  0  0  0
 35 45  1  0  0  0
 35 68  1  0  0  0
 36 56  1  0  0  0
 36100  1  0  0  0
 37 39  1  0  0  0
 37 47  1  0  0  0
 37 66  1  0  0  0
 37101  1  0  0  0
 38 43  2  0  0  0
 38 46  1  0  0  0
 38 47  1  0  0  0
 39 64  1  0  0  0
 39 67  2  0  0  0
 40 52  1  0  0  0
 40 53  2  0  0  0
 40 58  1  0  0  0
 41102  1  0  0  0
 41103  1  0  0  0
 41104  1  0  0  0
 41 48  1  0  0  0
 42 43  1  0  0  0
 42 66  1  0  0  0
 42105  1  0  0  0
 42106  1  0  0  0
 43 44  1  0  0  0
 44107  1  0  0  0
 45 46  2  0  0  0
 45108  1  0  0  0
 46109  1  0  0  0
 47110  1  0  0  0
 47111  1  0  0  0
 48 56  1  0  0  0
 48 65  1  0  0  0
 48112  1  0  0  0
 49 50  1  0  0  0
 49 53  1  0  0  0
 49 64  1  0  0  0
 49113  1  0  0  0
 50 51  1  0  0  0
 50114  1  0  0  0
 50115  1  0  0  0
 51 52  1  0  0  0
 51116  1  0  0  0
 51117  1  0  0  0
 52118  1  0  0  0
 52119  1  0  0  0
 53 54  1  0  0  0
 54 55  2  0  0  0
 54120  1  0  0  0
 55 57  1  0  0  0
 55121  1  0  0  0
 56 69  2  0  0  0
 57 58  2  0  0  0
 57122  1  0  0  0
 58123  1  0  0  0
 59 60  1  0  0  0
 59 61  1  0  0  0
 59 62  1  0  0  0
 60124  1  0  0  0
 60125  1  0  0  0
 60126  1  0  0  0
 61127  1  0  0  0
 61128  1  0  0  0
 61129  1  0  0  0
 62130  1  0  0  0
 62131  1  0  0  0
 62132  1  0  0  0
 63 65  1  0  0  0
 63133  1  0  0  0
 63134  1  0  0  0
 63135  1  0  0  0
 64136  1  0  0  0
 65137  1  0  0  0
 68 77  1  0  0  0
 71 73  2  0  0  0
 71 75  1  0  0  0
 71138  1  0  0  0
 72 74  1  0  0  0
 72 75  2  0  0  0
 72139  1  0  0  0
 73 76  1  0  0  0
 73140  1  0  0  0
 74 76  2  0  0  0
 74141  1  0  0  0
 75 77  1  0  0  0
 76 78  1  0  0  0
 77142  1  0  0  0
 77143  1  0  0  0
 78144  1  0  0  0
M  ISO  4   1 100  68 101  77 101  78 100
M  END
> <chiral flag>
0

> <version>
0

> <s_m_source_file>
/data/baiqing/PycharmProjects/Reinvent-master-3.2/result/LINK_invent/BTK/process_docking_weight1_custom_sum_contain_oxygen_bond_distance_aromatic_linkinvent_7_9_3/rearranged_h_0002.sdf

> <i_m_source_file_index>
29

> <r_mmod_Potential_Energy-OPLS-2005>
2267.25439453125

> <r_mmod_Stretch_Energy-OPLS-2005>
909.600280761719

> <r_mmod_Bend_Energy-OPLS-2005>
657.110290527344

> <r_mmod_Torsional_Energy-OPLS-2005>
259.846252441406

> <r_mmod_Improper_Torsional_Energy-OPLS-2005>
10.6979417800903

> <r_mmod_Van_der_Waal_Energy-OPLS-2005>
132.425323486328

> <r_mmod_Electrostatic_Energy-OPLS-2005>
-345.95654296875

> <r_mmod_Solvation_Energy-OPLS-2005>
-215.57307434082

> <b_mmod_Minimization_Converged-OPLS-2005>
0

> <r_mmod_RMS_Derivative-OPLS-2005>
0.113339096307755

$$$$
29
                    3D
 Structure written by MMmdl.
151159  0  0  1  0            999 V2000
  -30.5690  -14.9991   20.4206 C   0  0  0  0  0  0
  -30.4368  -12.6259   19.4795 C   0  0  0  0  0  0
  -29.5198  -12.5286   18.2395 C   0  0  0  0  0  0
  -28.0497  -12.3297   18.6560 C   0  0  0  0  0  0
  -27.6230  -13.2595   19.8207 C   0  0  2  0  0  0
  -28.6769  -13.3192   20.9500 C   0  0  0  0  0  0
  -25.2460  -13.8217   20.5735 C   0  0  0  0  0  0
  -24.1794  -13.0421   20.9239 C   0  0  0  0  0  0
  -24.6402  -11.6921   20.8738 C   0  0  0  0  0  0
  -23.9093  -10.4287   21.0377 C   0  0  0  0  0  0
  -24.3632   -9.4206   21.9158 C   0  0  0  0  0  0
  -23.6303   -8.2248   22.0739 C   0  0  0  0  0  0
  -22.4293   -8.0278   21.3542 C   0  0  0  0  0  0
  -21.9930   -9.0246   20.4630 C   0  0  0  0  0  0
  -22.7264  -10.2120   20.3028 C   0  0  0  0  0  0
  -21.6862   -6.0729   22.5291 C   0  0  0  0  0  0
  -21.4014   -6.5619   23.8214 C   0  0  0  0  0  0
  -21.3684   -5.6777   24.9176 C   0  0  0  0  0  0
  -21.6054   -4.3041   24.7233 C   0  0  0  0  0  0
  -21.8834   -3.8142   23.4351 C   0  0  0  0  0  0
  -21.9182   -4.6958   22.3409 C   0  0  0  0  0  0
  -22.7800  -13.5163   21.1869 C   0  0  0  0  0  0
  -22.1660   -4.2142   21.0975 F   0  0  0  0  0  0
  -21.5635   -3.4514   25.7742 F   0  0  0  0  0  0
  -29.9354  -13.7510   20.3271 N   0  0  0  0  0  0
  -26.2874  -12.9471   20.3195 N   0  0  0  0  0  0
  -25.9348  -11.6586   20.5727 N   0  0  0  0  0  0
  -22.0436  -12.8187   22.0421 N   0  0  0  0  0  0
  -25.4091  -15.1950   20.4207 N   0  0  0  0  0  0
  -31.7861  -14.9949   20.2082 O   0  0  0  0  0  0
  -21.6647   -6.8883   21.4261 O   0  0  0  0  0  0
  -22.3472  -14.5440   20.6651 O   0  0  0  0  0  0
  -24.6510  -31.8389   23.1851 C   0  0  0  0  0  0
  -25.9271  -32.4643   23.8269 C   0  0  1  0  0  0
  -27.2203  -27.0834   20.1637 C   0  0  0  0  0  0
  -25.6004  -33.8455   24.2225 N   0  0  0  0  0  0
  -23.4563  -30.4632   21.5272 C   0  0  2  0  0  0
  -24.9076  -28.8777   20.1114 C   0  0  0  0  0  0
  -22.7616  -29.4576   22.4802 C   0  0  0  0  0  0
  -18.0337  -28.1398   22.8471 C   0  0  0  0  0  0
  -24.1511  -36.7265   23.2642 C   0  0  0  0  0  0
  -26.0157  -30.6975   21.3898 C   0  0  0  0  0  0
  -26.0852  -29.3021   20.7396 C   0  0  0  0  0  0
  -27.2377  -28.4214   20.7494 C   0  0  0  0  0  0
  -26.0175  -26.7760   19.4900 C   0  0  0  0  0  0
  -24.8901  -27.6304   19.4727 C   0  0  0  0  0  0
  -23.6864  -29.7862   20.1500 C   0  0  0  0  0  0
  -25.4133  -36.3010   24.0323 C   0  0  1  0  0  0
  -20.5958  -28.3748   23.1199 C   0  0  2  0  0  0
  -20.6826  -26.9442   22.5396 C   0  0  0  0  0  0
  -19.5807  -26.6392   21.5200 C   0  0  0  0  0  0
  -18.1982  -26.7951   22.1597 C   0  0  0  0  0  0
  -19.1595  -28.8897   23.2832 C   0  0  0  0  0  0
  -18.9499  -30.1481   23.8885 C   0  0  0  0  0  0
  -17.6505  -30.6588   24.0564 C   0  0  0  0  0  0
  -25.9086  -34.9371   23.5090 C   0  0  0  0  0  0
  -16.5403  -29.9087   23.6310 C   0  0  0  0  0  0
  -16.7326  -28.6498   23.0339 C   0  0  0  0  0  0
  -26.4568  -31.6496   25.0689 C   0  0  0  0  0  0
  -25.3770  -31.3642   26.1390 C   0  0  0  0  0  0
  -27.0432  -30.2904   24.6222 C   0  0  0  0  0  0
  -27.6141  -32.4237   25.7468 C   0  0  0  0  0  0
  -27.5587  -37.1792   24.8464 C   0  0  0  0  0  0
  -21.4303  -29.3092   22.3536 N   0  0  0  0  0  0
  -26.4309  -37.3720   23.9398 N   0  0  0  0  0  0
  -24.7288  -31.0212   22.0903 N   0  0  0  0  0  0
  -23.4223  -28.8102   23.2969 O   0  0  0  0  0  0
  -28.2710  -26.0755   20.2164 O   0  0  0  0  0  0
  -26.5650  -34.8874   22.4648 O   0  0  0  0  0  0
  -23.5621  -32.1319   23.7049 O   0  0  0  0  0  0
  -29.9199  -18.9790   23.6024 C   0  0  0  0  0  0
  -30.9367  -18.0345   23.4256 C   0  0  0  0  0  0
  -29.2279  -19.4595   22.4776 C   0  0  0  0  0  0
  -31.0892  -17.3907   22.1864 C   0  0  0  0  0  0
  -29.4873  -18.9898   21.1658 C   0  0  0  0  0  0
  -30.2111  -17.6365   21.0938 C   0  0  0  0  0  0
  -29.4357  -20.3349   20.1761 C   0  0  0  0  0  0
  -27.9902  -24.5184   20.3028 C   0  0  0  0  0  0
  -29.0404  -23.1626   20.1838 C   0  0  0  0  0  0
  -29.8553  -16.2549   20.4785 N   0  0  0  0  0  0
  -28.7386  -21.6790   20.6079 O   0  0  0  0  0  0
  -31.4679  -12.7814   19.1622 H   0  0  0  0  0  0
  -30.4389  -11.6832   20.0332 H   0  0  0  0  0  0
  -29.8419  -11.7109   17.5905 H   0  0  0  0  0  0
  -29.6141  -13.4399   17.6507 H   0  0  0  0  0  0
  -27.9244  -11.2854   18.9464 H   0  0  0  0  0  0
  -27.3956  -12.4772   17.7935 H   0  0  0  0  0  0
  -27.5767  -14.2569   19.3817 H   0  0  0  0  0  0
  -28.7829  -12.3492   21.4367 H   0  0  0  0  0  0
  -28.3762  -14.0277   21.7228 H   0  0  0  0  0  0
  -25.2776   -9.5666   22.4721 H   0  0  0  0  0  0
  -24.0015   -7.4629   22.7445 H   0  0  0  0  0  0
  -21.0867   -8.8736   19.8923 H   0  0  0  0  0  0
  -22.3713  -10.9637   19.6110 H   0  0  0  0  0  0
  -21.2008   -7.6132   23.9741 H   0  0  0  0  0  0
  -21.1504   -6.0486   25.9084 H   0  0  0  0  0  0
  -22.0595   -2.7610   23.2842 H   0  0  0  0  0  0
  -22.4040  -11.9906   22.4917 H   0  0  0  0  0  0
  -21.1000  -13.1178   22.2486 H   0  0  0  0  0  0
  -24.6403  -15.8431   20.5566 H   0  0  0  0  0  0
  -26.2604  -15.6548   20.1258 H   0  0  0  0  0  0
  -26.7308  -32.5236   23.0985 H   0  0  0  0  0  0
  -25.0150  -33.9557   25.0367 H   0  0  0  0  0  0
  -22.7629  -31.2896   21.3638 H   0  0  0  0  0  0
  -23.3751  -35.9609   23.3285 H   0  0  0  0  0  0
  -24.3645  -36.8931   22.2070 H   0  0  0  0  0  0
  -23.7274  -37.6466   23.6696 H   0  0  0  0  0  0
  -26.1665  -31.4367   20.6016 H   0  0  0  0  0  0
  -26.8913  -30.7642   22.0262 H   0  0  0  0  0  0
  -28.1270  -28.7394   21.2788 H   0  0  0  0  0  0
  -25.9149  -25.8333   18.9723 H   0  0  0  0  0  0
  -23.9951  -27.3065   18.9618 H   0  0  0  0  0  0
  -23.8331  -30.5559   19.3930 H   0  0  0  0  0  0
  -22.7991  -29.2335   19.8342 H   0  0  0  0  0  0
  -25.1304  -36.1873   25.0821 H   0  0  0  0  0  0
  -21.0063  -28.3369   24.1308 H   0  0  0  0  0  0
  -20.5727  -26.2358   23.3633 H   0  0  0  0  0  0
  -21.6680  -26.7454   22.1184 H   0  0  0  0  0  0
  -19.6981  -25.6294   21.1258 H   0  0  0  0  0  0
  -19.6743  -27.3148   20.6715 H   0  0  0  0  0  0
  -17.4252  -26.6688   21.4011 H   0  0  0  0  0  0
  -18.0394  -26.0091   22.9012 H   0  0  0  0  0  0
  -19.7974  -30.7285   24.2251 H   0  0  0  0  0  0
  -17.5050  -31.6254   24.5167 H   0  0  0  0  0  0
  -15.5387  -30.2978   23.7648 H   0  0  0  0  0  0
  -15.8732  -28.0807   22.7070 H   0  0  0  0  0  0
  -24.6008  -30.6905   25.7718 H   0  0  0  0  0  0
  -24.8837  -32.2761   26.4779 H   0  0  0  0  0  0
  -25.8085  -30.8876   27.0202 H   0  0  0  0  0  0
  -26.3014  -29.6598   24.1286 H   0  0  0  0  0  0
  -27.4151  -29.7213   25.4752 H   0  0  0  0  0  0
  -27.8888  -30.4172   23.9454 H   0  0  0  0  0  0
  -27.2812  -33.3616   26.1952 H   0  0  0  0  0  0
  -28.4006  -32.6681   25.0301 H   0  0  0  0  0  0
  -28.0720  -31.8368   26.5448 H   0  0  0  0  0  0
  -28.2576  -38.0113   24.7512 H   0  0  0  0  0  0
  -28.1119  -36.2649   24.6295 H   0  0  0  0  0  0
  -27.2313  -37.1437   25.8866 H   0  0  0  0  0  0
  -20.9519  -29.8797   21.6702 H   0  0  0  0  0  0
  -26.0182  -38.2803   24.1351 H   0  0  0  0  0  0
  -29.7426  -19.4131   24.5789 H   0  0  0  0  0  0
  -31.5392  -17.7327   24.2703 H   0  0  0  0  0  0
  -28.6103  -20.3351   22.6358 H   0  0  0  0  0  0
  -31.7753  -16.5568   22.1841 H   0  0  0  0  0  0
  -29.0450  -20.0427   19.1989 H   0  0  0  0  0  0
  -30.4819  -20.5905   19.9925 H   0  0  0  0  0  0
  -27.4902  -24.4138   21.2684 H   0  0  0  0  0  0
  -27.2176  -24.2923   19.5702 H   0  0  0  0  0  0
  -29.9428  -23.4279   20.7375 H   0  0  0  0  0  0
  -29.3702  -23.1148   19.1437 H   0  0  0  0  0  0
  -28.8724  -16.1439   20.2789 H   0  0  0  0  0  0
  1 25  1  0  0  0
  1 30  2  0  0  0
  1 80  1  0  0  0
  2  3  1  0  0  0
  2 25  1  0  0  0
  2 82  1  0  0  0
  2 83  1  0  0  0
  3  4  1  0  0  0
  3 84  1  0  0  0
  3 85  1  0  0  0
  4  5  1  0  0  0
  4 86  1  0  0  0
  4 87  1  0  0  0
  5  6  1  0  0  0
  5 26  1  0  0  0
  5 88  1  0  0  0
  6 25  1  0  0  0
  6 89  1  0  0  0
  6 90  1  0  0  0
  7  8  2  0  0  0
  7 26  1  0  0  0
  7 29  1  0  0  0
  8  9  1  0  0  0
  8 22  1  0  0  0
  9 10  1  0  0  0
  9 27  2  0  0  0
 10 11  2  0  0  0
 10 15  1  0  0  0
 11 12  1  0  0  0
 11 91  1  0  0  0
 12 13  2  0  0  0
 12 92  1  0  0  0
 13 14  1  0  0  0
 13 31  1  0  0  0
 14 15  2  0  0  0
 14 93  1  0  0  0
 15 94  1  0  0  0
 16 17  2  0  0  0
 16 21  1  0  0  0
 16 31  1  0  0  0
 17 18  1  0  0  0
 17 95  1  0  0  0
 18 19  2  0  0  0
 18 96  1  0  0  0
 19 20  1  0  0  0
 19 24  1  0  0  0
 20 21  2  0  0  0
 20 97  1  0  0  0
 21 23  1  0  0  0
 22 28  1  0  0  0
 22 32  2  0  0  0
 26 27  1  0  0  0
 28 98  1  0  0  0
 28 99  1  0  0  0
 29100  1  0  0  0
 29101  1  0  0  0
 33 34  1  0  0  0
 33 66  1  0  0  0
 33 70  2  0  0  0
 34 36  1  0  0  0
 34 59  1  0  0  0
 34102  1  0  0  0
 35 44  2  0  0  0
 35 45  1  0  0  0
 35 68  1  0  0  0
 36 56  1  0  0  0
 36103  1  0  0  0
 37 39  1  0  0  0
 37 47  1  0  0  0
 37 66  1  0  0  0
 37104  1  0  0  0
 38 43  2  0  0  0
 38 46  1  0  0  0
 38 47  1  0  0  0
 39 64  1  0  0  0
 39 67  2  0  0  0
 40 52  1  0  0  0
 40 53  2  0  0  0
 40 58  1  0  0  0
 41105  1  0  0  0
 41106  1  0  0  0
 41107  1  0  0  0
 41 48  1  0  0  0
 42 43  1  0  0  0
 42 66  1  0  0  0
 42108  1  0  0  0
 42109  1  0  0  0
 43 44  1  0  0  0
 44110  1  0  0  0
 45 46  2  0  0  0
 45111  1  0  0  0
 46112  1  0  0  0
 47113  1  0  0  0
 47114  1  0  0  0
 48 56  1  0  0  0
 48 65  1  0  0  0
 48115  1  0  0  0
 49 50  1  0  0  0
 49 53  1  0  0  0
 49 64  1  0  0  0
 49116  1  0  0  0
 50 51  1  0  0  0
 50117  1  0  0  0
 50118  1  0  0  0
 51 52  1  0  0  0
 51119  1  0  0  0
 51120  1  0  0  0
 52121  1  0  0  0
 52122  1  0  0  0
 53 54  1  0  0  0
 54 55  2  0  0  0
 54123  1  0  0  0
 55 57  1  0  0  0
 55124  1  0  0  0
 56 69  2  0  0  0
 57 58  2  0  0  0
 57125  1  0  0  0
 58126  1  0  0  0
 59 60  1  0  0  0
 59 61  1  0  0  0
 59 62  1  0  0  0
 60127  1  0  0  0
 60128  1  0  0  0
 60129  1  0  0  0
 61130  1  0  0  0
 61131  1  0  0  0
 61132  1  0  0  0
 62133  1  0  0  0
 62134  1  0  0  0
 62135  1  0  0  0
 63 65  1  0  0  0
 63136  1  0  0  0
 63137  1  0  0  0
 63138  1  0  0  0
 64139  1  0  0  0
 65140  1  0  0  0
 68 78  1  0  0  0
 71 72  2  0  0  0
 71 73  1  0  0  0
 71141  1  0  0  0
 72 74  1  0  0  0
 72142  1  0  0  0
 73 75  2  0  0  0
 73143  1  0  0  0
 74 76  2  0  0  0
 74144  1  0  0  0
 75 76  1  0  0  0
 75 77  1  0  0  0
 76 80  1  0  0  0
 77 81  1  0  0  0
 77145  1  0  0  0
 77146  1  0  0  0
 78 79  1  0  0  0
 78147  1  0  0  0
 78148  1  0  0  0
 79 81  1  0  0  0
 79149  1  0  0  0
 79150  1  0  0  0
 80151  1  0  0  0
M  ISO  4   1 100  68 101  78 101  80 100
M  END
> <chiral flag>
0

> <version>
0

> <s_m_source_file>
/data/baiqing/PycharmProjects/Reinvent-master-3.2/result/LINK_invent/BTK/process_docking_weight1_custom_sum_contain_oxygen_bond_distance_aromatic_linkinvent_7_9_3/rearranged_h_0002.sdf

> <i_m_source_file_index>
30

> <r_mmod_Potential_Energy-OPLS-2005>
910.604431152344

> <r_mmod_Stretch_Energy-OPLS-2005>
356.877502441406

> <r_mmod_Bend_Energy-OPLS-2005>
332.336700439453

> <r_mmod_Torsional_Energy-OPLS-2005>
382.894378662109

> <r_mmod_Improper_Torsional_Energy-OPLS-2005>
21.7468872070312

> <r_mmod_Van_der_Waal_Energy-OPLS-2005>
138.633728027344

> <r_mmod_Electrostatic_Energy-OPLS-2005>
-344.294494628906

> <r_mmod_Solvation_Energy-OPLS-2005>
-209.287506103516

> <b_mmod_Minimization_Converged-OPLS-2005>
0

> <r_mmod_RMS_Derivative-OPLS-2005>
5.47818088531494

$$$$
30
                    3D
 Structure written by MMmdl.
144152  0  0  1  0            999 V2000
  -30.2491  -15.7690   20.3185 C   0  0  0  0  0  0
  -30.4165  -13.1824   19.5389 C   0  0  0  0  0  0
  -29.5561  -12.6883   18.3366 C   0  0  0  0  0  0
  -28.1400  -12.3025   18.7870 C   0  0  0  0  0  0
  -27.5914  -13.3204   19.8100 C   0  0  2  0  0  0
  -28.5996  -13.7101   20.9197 C   0  0  0  0  0  0
  -25.2302  -13.8299   20.5812 C   0  0  0  0  0  0
  -24.1705  -13.0432   20.9298 C   0  0  0  0  0  0
  -24.6425  -11.6949   20.8764 C   0  0  0  0  0  0
  -23.9129  -10.4292   21.0393 C   0  0  0  0  0  0
  -24.3660   -9.4205   21.9178 C   0  0  0  0  0  0
  -23.6316   -8.2248   22.0754 C   0  0  0  0  0  0
  -22.4296   -8.0290   21.3545 C   0  0  0  0  0  0
  -21.9945   -9.0266   20.4644 C   0  0  0  0  0  0
  -22.7293  -10.2135   20.3047 C   0  0  0  0  0  0
  -21.6860   -6.0742   22.5279 C   0  0  0  0  0  0
  -21.4020   -6.5644   23.8213 C   0  0  0  0  0  0
  -21.3660   -5.6795   24.9174 C   0  0  0  0  0  0
  -21.6043   -4.3057   24.7223 C   0  0  0  0  0  0
  -21.8818   -3.8151   23.4344 C   0  0  0  0  0  0
  -21.9195   -4.6969   22.3401 C   0  0  0  0  0  0
  -22.7713  -13.5153   21.1928 C   0  0  0  0  0  0
  -22.1662   -4.2154   21.0979 F   0  0  0  0  0  0
  -21.5627   -3.4540   25.7735 F   0  0  0  0  0  0
  -29.7500  -14.3765   20.2532 N   0  0  0  0  0  0
  -26.2766  -12.9654   20.3247 N   0  0  0  0  0  0
  -25.9376  -11.6711   20.5692 N   0  0  0  0  0  0
  -22.0381  -12.8128   22.0480 N   0  0  0  0  0  0
  -25.3868  -15.2043   20.4253 N   0  0  0  0  0  0
  -31.4896  -15.6885   20.1870 O   0  0  0  0  0  0
  -21.6650   -6.8891   21.4243 O   0  0  0  0  0  0
  -22.3385  -14.5450   20.6762 O   0  0  0  0  0  0
  -24.6936  -31.7881   23.1428 C   0  0  0  0  0  0
  -25.9467  -32.4408   23.8014 C   0  0  1  0  0  0
  -27.2314  -26.6000   20.2259 C   0  0  0  0  0  0
  -25.6003  -33.8239   24.1889 N   0  0  0  0  0  0
  -23.5248  -30.3852   21.4992 C   0  0  2  0  0  0
  -24.9837  -28.7043   20.1217 C   0  0  0  0  0  0
  -22.7812  -29.4252   22.4682 C   0  0  0  0  0  0
  -18.0345  -28.1427   22.8448 C   0  0  0  0  0  0
  -24.1496  -36.7128   23.2656 C   0  0  0  0  0  0
  -26.1099  -30.4873   21.4229 C   0  0  0  0  0  0
  -26.1749  -29.0406   20.7752 C   0  0  0  0  0  0
  -27.2793  -28.0201   20.7903 C   0  0  0  0  0  0
  -26.0052  -26.4991   19.5134 C   0  0  0  0  0  0
  -24.9440  -27.4606   19.4663 C   0  0  0  0  0  0
  -23.7849  -29.6724   20.1393 C   0  0  0  0  0  0
  -25.4150  -36.2860   24.0273 C   0  0  1  0  0  0
  -20.5986  -28.3792   23.1121 C   0  0  2  0  0  0
  -20.6806  -26.9441   22.5405 C   0  0  0  0  0  0
  -19.5784  -26.6367   21.5217 C   0  0  0  0  0  0
  -18.1967  -26.7952   22.1618 C   0  0  0  0  0  0
  -19.1614  -28.8936   23.2762 C   0  0  0  0  0  0
  -18.9518  -30.1517   23.8813 C   0  0  0  0  0  0
  -17.6507  -30.6607   24.0547 C   0  0  0  0  0  0
  -25.9137  -34.9253   23.4926 C   0  0  0  0  0  0
  -16.5395  -29.9086   23.6353 C   0  0  0  0  0  0
  -16.7324  -28.6509   23.0369 C   0  0  0  0  0  0
  -26.4611  -31.6488   25.0681 C   0  0  0  0  0  0
  -25.3648  -31.3836   26.1276 C   0  0  0  0  0  0
  -27.0562  -30.2813   24.6660 C   0  0  0  0  0  0
  -27.6036  -32.4377   25.7508 C   0  0  0  0  0  0
  -27.5560  -37.1721   24.8466 C   0  0  0  0  0  0
  -21.4449  -29.3019   22.3429 N   0  0  0  0  0  0
  -26.4267  -37.3633   23.9406 N   0  0  0  0  0  0
  -24.8007  -30.9224   22.0738 N   0  0  0  0  0  0
  -23.4206  -28.7870   23.3076 O   0  0  0  0  0  0
  -28.1813  -25.3340   20.2925 O   0  0  0  0  0  0
  -26.5793  -34.8851   22.4554 O   0  0  0  0  0  0
  -23.5932  -32.1003   23.6316 O   0  0  0  0  0  0
  -31.2233  -20.8510   20.4443 C   0  0  0  0  0  0
  -30.3278  -21.9742   20.3863 C   0  0  0  0  0  0
  -30.8973  -19.4510   20.4170 C   0  0  0  0  0  0
  -28.6498  -20.2656   20.2683 C   0  0  0  0  0  0
  -28.9175  -21.8849   20.2883 C   0  0  0  0  0  0
  -29.5860  -18.9200   20.3295 C   0  0  0  0  0  0
  -27.9553  -23.5403   20.1946 C   0  0  0  0  0  0
  -29.4678  -17.1584   20.3338 N   0  0  0  0  0  0
  -31.3972  -13.4683   19.1574 H   0  0  0  0  0  0
  -30.6150  -12.3654   20.2348 H   0  0  0  0  0  0
  -30.0382  -11.8449   17.8404 H   0  0  0  0  0  0
  -29.4933  -13.4857   17.5947 H   0  0  0  0  0  0
  -28.1920  -11.3161   19.2495 H   0  0  0  0  0  0
  -27.4721  -12.2092   17.9298 H   0  0  0  0  0  0
  -27.4353  -14.2232   19.2177 H   0  0  0  0  0  0
  -28.8922  -12.8505   21.5245 H   0  0  0  0  0  0
  -28.1402  -14.4228   21.6061 H   0  0  0  0  0  0
  -25.2799   -9.5677   22.4764 H   0  0  0  0  0  0
  -24.0015   -7.4641   22.7480 H   0  0  0  0  0  0
  -21.0874   -8.8796   19.8951 H   0  0  0  0  0  0
  -22.3752  -10.9677   19.6160 H   0  0  0  0  0  0
  -21.2015   -7.6152   23.9718 H   0  0  0  0  0  0
  -21.1481   -6.0525   25.9077 H   0  0  0  0  0  0
  -22.0595   -2.7612   23.2843 H   0  0  0  0  0  0
  -22.4028  -11.9810   22.4881 H   0  0  0  0  0  0
  -21.0984  -13.1116   22.2673 H   0  0  0  0  0  0
  -24.6121  -15.8494   20.5375 H   0  0  0  0  0  0
  -26.2233  -15.6482   20.0710 H   0  0  0  0  0  0
  -26.7560  -32.4853   23.0732 H   0  0  0  0  0  0
  -25.0040  -33.9259   24.9969 H   0  0  0  0  0  0
  -22.8560  -31.2251   21.3001 H   0  0  0  0  0  0
  -23.3778  -35.9436   23.3259 H   0  0  0  0  0  0
  -24.3559  -36.8857   22.2082 H   0  0  0  0  0  0
  -23.7237  -37.6279   23.6781 H   0  0  0  0  0  0
  -26.3235  -31.2052   20.6299 H   0  0  0  0  0  0
  -26.9566  -30.5591   22.0929 H   0  0  0  0  0  0
  -28.1740  -28.2884   21.3341 H   0  0  0  0  0  0
  -25.8210  -25.5639   19.0038 H   0  0  0  0  0  0
  -24.0480  -27.1923   18.9234 H   0  0  0  0  0  0
  -23.9691  -30.4280   19.3747 H   0  0  0  0  0  0
  -22.8876  -29.1444   19.8122 H   0  0  0  0  0  0
  -25.1366  -36.1607   25.0763 H   0  0  0  0  0  0
  -21.0064  -28.3426   24.1249 H   0  0  0  0  0  0
  -20.5660  -26.2419   23.3677 H   0  0  0  0  0  0
  -21.6666  -26.7367   22.1230 H   0  0  0  0  0  0
  -19.6938  -25.6255   21.1303 H   0  0  0  0  0  0
  -19.6730  -27.3129   20.6710 H   0  0  0  0  0  0
  -17.4236  -26.6693   21.4021 H   0  0  0  0  0  0
  -18.0352  -26.0116   22.9034 H   0  0  0  0  0  0
  -19.7994  -30.7354   24.2146 H   0  0  0  0  0  0
  -17.5057  -31.6278   24.5166 H   0  0  0  0  0  0
  -15.5392  -30.2961   23.7726 H   0  0  0  0  0  0
  -15.8725  -28.0800   22.7132 H   0  0  0  0  0  0
  -24.5864  -30.7155   25.7572 H   0  0  0  0  0  0
  -24.8806  -32.3067   26.4469 H   0  0  0  0  0  0
  -25.7799  -30.9150   27.0207 H   0  0  0  0  0  0
  -26.3300  -29.6394   24.1665 H   0  0  0  0  0  0
  -27.3958  -29.7305   25.5442 H   0  0  0  0  0  0
  -27.9292  -30.3914   24.0226 H   0  0  0  0  0  0
  -27.2557  -33.3759   26.1844 H   0  0  0  0  0  0
  -28.3970  -32.6810   25.0429 H   0  0  0  0  0  0
  -28.0570  -31.8672   26.5625 H   0  0  0  0  0  0
  -28.2540  -38.0050   24.7512 H   0  0  0  0  0  0
  -28.1093  -36.2570   24.6297 H   0  0  0  0  0  0
  -27.2273  -37.1358   25.8868 H   0  0  0  0  0  0
  -20.9779  -29.8658   21.6465 H   0  0  0  0  0  0
  -26.0084  -38.2675   24.1421 H   0  0  0  0  0  0
  -32.2755  -21.0887   20.5173 H   0  0  0  0  0  0
  -30.7626  -22.9641   20.4154 H   0  0  0  0  0  0
  -31.7198  -18.7513   20.4730 H   0  0  0  0  0  0
  -27.5975  -20.0310   20.1940 H   0  0  0  0  0  0
  -27.1705  -23.3778   20.9334 H   0  0  0  0  0  0
  -27.4334  -23.4350   19.2435 H   0  0  0  0  0  0
  -28.4908  -16.9030   20.3508 H   0  0  0  0  0  0
  1 25  1  0  0  0
  1 30  2  0  0  0
  1 78  1  0  0  0
  2  3  1  0  0  0
  2 25  1  0  0  0
  2 79  1  0  0  0
  2 80  1  0  0  0
  3  4  1  0  0  0
  3 81  1  0  0  0
  3 82  1  0  0  0
  4  5  1  0  0  0
  4 83  1  0  0  0
  4 84  1  0  0  0
  5  6  1  0  0  0
  5 26  1  0  0  0
  5 85  1  0  0  0
  6 25  1  0  0  0
  6 86  1  0  0  0
  6 87  1  0  0  0
  7  8  2  0  0  0
  7 26  1  0  0  0
  7 29  1  0  0  0
  8  9  1  0  0  0
  8 22  1  0  0  0
  9 10  1  0  0  0
  9 27  2  0  0  0
 10 11  2  0  0  0
 10 15  1  0  0  0
 11 12  1  0  0  0
 11 88  1  0  0  0
 12 13  2  0  0  0
 12 89  1  0  0  0
 13 14  1  0  0  0
 13 31  1  0  0  0
 14 15  2  0  0  0
 14 90  1  0  0  0
 15 91  1  0  0  0
 16 17  2  0  0  0
 16 21  1  0  0  0
 16 31  1  0  0  0
 17 18  1  0  0  0
 17 92  1  0  0  0
 18 19  2  0  0  0
 18 93  1  0  0  0
 19 20  1  0  0  0
 19 24  1  0  0  0
 20 21  2  0  0  0
 20 94  1  0  0  0
 21 23  1  0  0  0
 22 28  1  0  0  0
 22 32  2  0  0  0
 26 27  1  0  0  0
 28 95  1  0  0  0
 28 96  1  0  0  0
 29 97  1  0  0  0
 29 98  1  0  0  0
 33 34  1  0  0  0
 33 66  1  0  0  0
 33 70  2  0  0  0
 34 36  1  0  0  0
 34 59  1  0  0  0
 34 99  1  0  0  0
 35 44  2  0  0  0
 35 45  1  0  0  0
 35 68  1  0  0  0
 36 56  1  0  0  0
 36100  1  0  0  0
 37 39  1  0  0  0
 37 47  1  0  0  0
 37 66  1  0  0  0
 37101  1  0  0  0
 38 43  2  0  0  0
 38 46  1  0  0  0
 38 47  1  0  0  0
 39 64  1  0  0  0
 39 67  2  0  0  0
 40 52  1  0  0  0
 40 53  2  0  0  0
 40 58  1  0  0  0
 41102  1  0  0  0
 41103  1  0  0  0
 41104  1  0  0  0
 41 48  1  0  0  0
 42 43  1  0  0  0
 42 66  1  0  0  0
 42105  1  0  0  0
 42106  1  0  0  0
 43 44  1  0  0  0
 44107  1  0  0  0
 45 46  2  0  0  0
 45108  1  0  0  0
 46109  1  0  0  0
 47110  1  0  0  0
 47111  1  0  0  0
 48 56  1  0  0  0
 48 65  1  0  0  0
 48112  1  0  0  0
 49 50  1  0  0  0
 49 53  1  0  0  0
 49 64  1  0  0  0
 49113  1  0  0  0
 50 51  1  0  0  0
 50114  1  0  0  0
 50115  1  0  0  0
 51 52  1  0  0  0
 51116  1  0  0  0
 51117  1  0  0  0
 52118  1  0  0  0
 52119  1  0  0  0
 53 54  1  0  0  0
 54 55  2  0  0  0
 54120  1  0  0  0
 55 57  1  0  0  0
 55121  1  0  0  0
 56 69  2  0  0  0
 57 58  2  0  0  0
 57122  1  0  0  0
 58123  1  0  0  0
 59 60  1  0  0  0
 59 61  1  0  0  0
 59 62  1  0  0  0
 60124  1  0  0  0
 60125  1  0  0  0
 60126  1  0  0  0
 61127  1  0  0  0
 61128  1  0  0  0
 61129  1  0  0  0
 62130  1  0  0  0
 62131  1  0  0  0
 62132  1  0  0  0
 63 65  1  0  0  0
 63133  1  0  0  0
 63134  1  0  0  0
 63135  1  0  0  0
 64136  1  0  0  0
 65137  1  0  0  0
 68 77  1  0  0  0
 71 72  2  0  0  0
 71 73  1  0  0  0
 71138  1  0  0  0
 72 75  1  0  0  0
 72139  1  0  0  0
 73 76  2  0  0  0
 73140  1  0  0  0
 74 75  2  0  0  0
 74 76  1  0  0  0
 74141  1  0  0  0
 75 77  1  0  0  0
 76 78  1  0  0  0
 77142  1  0  0  0
 77143  1  0  0  0
 78144  1  0  0  0
M  ISO  4   1 100  68 101  77 101  78 100
M  END
> <chiral flag>
0

> <version>
0

> <s_m_source_file>
/data/baiqing/PycharmProjects/Reinvent-master-3.2/result/LINK_invent/BTK/process_docking_weight1_custom_sum_contain_oxygen_bond_distance_aromatic_linkinvent_7_9_3/rearranged_h_0002.sdf

> <i_m_source_file_index>
31

> <r_mmod_Potential_Energy-OPLS-2005>
2813.380859375

> <r_mmod_Stretch_Energy-OPLS-2005>
1256.92761230469

> <r_mmod_Bend_Energy-OPLS-2005>
641.894226074219

> <r_mmod_Torsional_Energy-OPLS-2005>
222.88850402832

> <r_mmod_Improper_Torsional_Energy-OPLS-2005>
4.12787246704102

> <r_mmod_Van_der_Waal_Energy-OPLS-2005>
126.438247680664

> <r_mmod_Electrostatic_Energy-OPLS-2005>
-346.341064453125

> <r_mmod_Solvation_Energy-OPLS-2005>
-213.760787963867

> <b_mmod_Minimization_Converged-OPLS-2005>
0

> <r_mmod_RMS_Derivative-OPLS-2005>
0.157229289412498

$$$$
31
                    3D
 Structure written by MMmdl.
144152  0  0  1  0            999 V2000
  -30.2527  -15.7856   20.3198 C   0  0  0  0  0  0
  -30.4129  -13.1956   19.5441 C   0  0  0  0  0  0
  -29.5557  -12.6952   18.3416 C   0  0  0  0  0  0
  -28.1429  -12.3029   18.7935 C   0  0  0  0  0  0
  -27.5911  -13.3230   19.8121 C   0  0  2  0  0  0
  -28.5962  -13.7228   20.9225 C   0  0  0  0  0  0
  -25.2298  -13.8303   20.5814 C   0  0  0  0  0  0
  -24.1703  -13.0433   20.9298 C   0  0  0  0  0  0
  -24.6427  -11.6953   20.8766 C   0  0  0  0  0  0
  -23.9132  -10.4295   21.0396 C   0  0  0  0  0  0
  -24.3665   -9.4205   21.9177 C   0  0  0  0  0  0
  -23.6321   -8.2248   22.0752 C   0  0  0  0  0  0
  -22.4300   -8.0290   21.3544 C   0  0  0  0  0  0
  -21.9950   -9.0267   20.4641 C   0  0  0  0  0  0
  -22.7298  -10.2135   20.3047 C   0  0  0  0  0  0
  -21.6861   -6.0744   22.5279 C   0  0  0  0  0  0
  -21.4020   -6.5645   23.8212 C   0  0  0  0  0  0
  -21.3662   -5.6796   24.9173 C   0  0  0  0  0  0
  -21.6043   -4.3058   24.7222 C   0  0  0  0  0  0
  -21.8819   -3.8153   23.4343 C   0  0  0  0  0  0
  -21.9195   -4.6971   22.3400 C   0  0  0  0  0  0
  -22.7713  -13.5153   21.1924 C   0  0  0  0  0  0
  -22.1662   -4.2156   21.0978 F   0  0  0  0  0  0
  -21.5628   -3.4540   25.7734 F   0  0  0  0  0  0
  -29.7463  -14.3930   20.2576 N   0  0  0  0  0  0
  -26.2765  -12.9664   20.3261 N   0  0  0  0  0  0
  -25.9380  -11.6718   20.5700 N   0  0  0  0  0  0
  -22.0382  -12.8128   22.0477 N   0  0  0  0  0  0
  -25.3869  -15.2046   20.4250 N   0  0  0  0  0  0
  -31.4904  -15.6923   20.1741 O   0  0  0  0  0  0
  -21.6652   -6.8893   21.4243 O   0  0  0  0  0  0
  -22.3383  -14.5448   20.6756 O   0  0  0  0  0  0
  -24.6937  -31.7875   23.1430 C   0  0  0  0  0  0
  -25.9469  -32.4403   23.8012 C   0  0  1  0  0  0
  -27.2288  -26.5847   20.2333 C   0  0  0  0  0  0
  -25.6006  -33.8236   24.1886 N   0  0  0  0  0  0
  -23.5253  -30.3838   21.4993 C   0  0  2  0  0  0
  -24.9848  -28.6999   20.1247 C   0  0  0  0  0  0
  -22.7811  -29.4246   22.4685 C   0  0  0  0  0  0
  -18.0345  -28.1429   22.8447 C   0  0  0  0  0  0
  -24.1498  -36.7127   23.2655 C   0  0  0  0  0  0
  -26.1101  -30.4789   21.4290 C   0  0  0  0  0  0
  -26.1729  -29.0293   20.7871 C   0  0  0  0  0  0
  -27.2721  -28.0017   20.8104 C   0  0  0  0  0  0
  -26.0126  -26.5021   19.4993 C   0  0  0  0  0  0
  -24.9500  -27.4625   19.4574 C   0  0  0  0  0  0
  -23.7872  -29.6700   20.1399 C   0  0  0  0  0  0
  -25.4153  -36.2859   24.0272 C   0  0  1  0  0  0
  -20.5983  -28.3794   23.1121 C   0  0  2  0  0  0
  -20.6808  -26.9443   22.5404 C   0  0  0  0  0  0
  -19.5785  -26.6368   21.5216 C   0  0  0  0  0  0
  -18.1967  -26.7953   22.1616 C   0  0  0  0  0  0
  -19.1613  -28.8938   23.2761 C   0  0  0  0  0  0
  -18.9517  -30.1518   23.8810 C   0  0  0  0  0  0
  -17.6506  -30.6607   24.0548 C   0  0  0  0  0  0
  -25.9140  -34.9252   23.4925 C   0  0  0  0  0  0
  -16.5395  -29.9087   23.6353 C   0  0  0  0  0  0
  -16.7323  -28.6512   23.0366 C   0  0  0  0  0  0
  -26.4613  -31.6485   25.0681 C   0  0  0  0  0  0
  -25.3644  -31.3836   26.1269 C   0  0  0  0  0  0
  -27.0565  -30.2808   24.6673 C   0  0  0  0  0  0
  -27.6042  -32.4373   25.7504 C   0  0  0  0  0  0
  -27.5560  -37.1725   24.8468 C   0  0  0  0  0  0
  -21.4449  -29.3019   22.3430 N   0  0  0  0  0  0
  -26.4271  -37.3630   23.9401 N   0  0  0  0  0  0
  -24.8008  -30.9200   22.0755 N   0  0  0  0  0  0
  -23.4201  -28.7862   23.3081 O   0  0  0  0  0  0
  -28.1916  -25.3215   20.2556 O   0  0  0  0  0  0
  -26.5793  -34.8849   22.4552 O   0  0  0  0  0  0
  -23.5933  -32.1009   23.6307 O   0  0  0  0  0  0
  -26.4561  -21.7447   20.6829 C   0  0  0  0  0  0
  -27.3400  -20.6155   20.5832 C   0  0  0  0  0  0
  -26.7780  -23.1412   20.5651 C   0  0  0  0  0  0
  -28.9950  -22.3129   20.2297 C   0  0  0  0  0  0
  -28.7344  -20.6932   20.3466 C   0  0  0  0  0  0
  -28.0707  -23.6695   20.3192 C   0  0  0  0  0  0
  -29.6842  -19.0215   20.2779 C   0  0  0  0  0  0
  -29.5054  -17.1968   20.3618 N   0  0  0  0  0  0
  -31.3932  -13.4800   19.1606 H   0  0  0  0  0  0
  -30.6132  -12.3812   20.2421 H   0  0  0  0  0  0
  -30.0429  -11.8536   17.8471 H   0  0  0  0  0  0
  -29.4885  -13.4916   17.5989 H   0  0  0  0  0  0
  -28.2013  -11.3192   19.2612 H   0  0  0  0  0  0
  -27.4750  -12.2013   17.9371 H   0  0  0  0  0  0
  -27.4325  -14.2228   19.2159 H   0  0  0  0  0  0
  -28.8920  -12.8680   21.5326 H   0  0  0  0  0  0
  -28.1320  -14.4366   21.6047 H   0  0  0  0  0  0
  -25.2802   -9.5679   22.4763 H   0  0  0  0  0  0
  -24.0018   -7.4643   22.7481 H   0  0  0  0  0  0
  -21.0878   -8.8799   19.8950 H   0  0  0  0  0  0
  -22.3757  -10.9678   19.6161 H   0  0  0  0  0  0
  -21.2014   -7.6153   23.9717 H   0  0  0  0  0  0
  -21.1483   -6.0525   25.9075 H   0  0  0  0  0  0
  -22.0595   -2.7615   23.2840 H   0  0  0  0  0  0
  -22.4033  -11.9812   22.4881 H   0  0  0  0  0  0
  -21.0983  -13.1114   22.2662 H   0  0  0  0  0  0
  -24.6129  -15.8508   20.5348 H   0  0  0  0  0  0
  -26.2258  -15.6471   20.0742 H   0  0  0  0  0  0
  -26.7558  -32.4845   23.0725 H   0  0  0  0  0  0
  -25.0049  -33.9257   24.9970 H   0  0  0  0  0  0
  -22.8571  -31.2239   21.2993 H   0  0  0  0  0  0
  -23.3777  -35.9439   23.3267 H   0  0  0  0  0  0
  -24.3556  -36.8846   22.2078 H   0  0  0  0  0  0
  -23.7246  -37.6284   23.6774 H   0  0  0  0  0  0
  -26.3247  -31.1924   20.6324 H   0  0  0  0  0  0
  -26.9572  -30.5543   22.0977 H   0  0  0  0  0  0
  -28.1651  -28.2655   21.3591 H   0  0  0  0  0  0
  -25.8391  -25.5791   18.9642 H   0  0  0  0  0  0
  -24.0607  -27.2021   18.8996 H   0  0  0  0  0  0
  -23.9731  -30.4249   19.3752 H   0  0  0  0  0  0
  -22.8900  -29.1425   19.8116 H   0  0  0  0  0  0
  -25.1371  -36.1606   25.0762 H   0  0  0  0  0  0
  -21.0059  -28.3426   24.1251 H   0  0  0  0  0  0
  -20.5662  -26.2421   23.3674 H   0  0  0  0  0  0
  -21.6670  -26.7371   22.1228 H   0  0  0  0  0  0
  -19.6942  -25.6256   21.1302 H   0  0  0  0  0  0
  -19.6733  -27.3132   20.6708 H   0  0  0  0  0  0
  -17.4238  -26.6690   21.4019 H   0  0  0  0  0  0
  -18.0355  -26.0117   22.9033 H   0  0  0  0  0  0
  -19.7994  -30.7356   24.2142 H   0  0  0  0  0  0
  -17.5058  -31.6278   24.5170 H   0  0  0  0  0  0
  -15.5392  -30.2964   23.7728 H   0  0  0  0  0  0
  -15.8723  -28.0804   22.7129 H   0  0  0  0  0  0
  -24.5865  -30.7154   25.7556 H   0  0  0  0  0  0
  -24.8796  -32.3068   26.4452 H   0  0  0  0  0  0
  -25.7787  -30.9150   27.0206 H   0  0  0  0  0  0
  -26.3306  -29.6384   24.1679 H   0  0  0  0  0  0
  -27.3954  -29.7305   25.5461 H   0  0  0  0  0  0
  -27.9304  -30.3902   24.0248 H   0  0  0  0  0  0
  -27.2570  -33.3759   26.1836 H   0  0  0  0  0  0
  -28.3975  -32.6799   25.0420 H   0  0  0  0  0  0
  -28.0577  -31.8668   26.5619 H   0  0  0  0  0  0
  -28.2551  -38.0042   24.7496 H   0  0  0  0  0  0
  -28.1081  -36.2562   24.6327 H   0  0  0  0  0  0
  -27.2268  -37.1395   25.8869 H   0  0  0  0  0  0
  -20.9779  -29.8656   21.6462 H   0  0  0  0  0  0
  -26.0090  -38.2677   24.1399 H   0  0  0  0  0  0
  -25.4173  -21.5156   20.8775 H   0  0  0  0  0  0
  -26.9082  -19.6312   20.7051 H   0  0  0  0  0  0
  -25.9665  -23.8445   20.6853 H   0  0  0  0  0  0
  -30.0360  -22.5452   20.0533 H   0  0  0  0  0  0
  -30.4530  -19.1893   21.0326 H   0  0  0  0  0  0
  -30.2297  -19.1328   19.3405 H   0  0  0  0  0  0
  -28.5205  -16.9901   20.4480 H   0  0  0  0  0  0
  1 25  1  0  0  0
  1 30  2  0  0  0
  1 78  1  0  0  0
  2  3  1  0  0  0
  2 25  1  0  0  0
  2 79  1  0  0  0
  2 80  1  0  0  0
  3  4  1  0  0  0
  3 81  1  0  0  0
  3 82  1  0  0  0
  4  5  1  0  0  0
  4 83  1  0  0  0
  4 84  1  0  0  0
  5  6  1  0  0  0
  5 26  1  0  0  0
  5 85  1  0  0  0
  6 25  1  0  0  0
  6 86  1  0  0  0
  6 87  1  0  0  0
  7  8  2  0  0  0
  7 26  1  0  0  0
  7 29  1  0  0  0
  8  9  1  0  0  0
  8 22  1  0  0  0
  9 10  1  0  0  0
  9 27  2  0  0  0
 10 11  2  0  0  0
 10 15  1  0  0  0
 11 12  1  0  0  0
 11 88  1  0  0  0
 12 13  2  0  0  0
 12 89  1  0  0  0
 13 14  1  0  0  0
 13 31  1  0  0  0
 14 15  2  0  0  0
 14 90  1  0  0  0
 15 91  1  0  0  0
 16 17  2  0  0  0
 16 21  1  0  0  0
 16 31  1  0  0  0
 17 18  1  0  0  0
 17 92  1  0  0  0
 18 19  2  0  0  0
 18 93  1  0  0  0
 19 20  1  0  0  0
 19 24  1  0  0  0
 20 21  2  0  0  0
 20 94  1  0  0  0
 21 23  1  0  0  0
 22 28  1  0  0  0
 22 32  2  0  0  0
 26 27  1  0  0  0
 28 95  1  0  0  0
 28 96  1  0  0  0
 29 97  1  0  0  0
 29 98  1  0  0  0
 33 34  1  0  0  0
 33 66  1  0  0  0
 33 70  2  0  0  0
 34 36  1  0  0  0
 34 59  1  0  0  0
 34 99  1  0  0  0
 35 44  2  0  0  0
 35 45  1  0  0  0
 35 68  1  0  0  0
 36 56  1  0  0  0
 36100  1  0  0  0
 37 39  1  0  0  0
 37 47  1  0  0  0
 37 66  1  0  0  0
 37101  1  0  0  0
 38 43  2  0  0  0
 38 46  1  0  0  0
 38 47  1  0  0  0
 39 64  1  0  0  0
 39 67  2  0  0  0
 40 52  1  0  0  0
 40 53  2  0  0  0
 40 58  1  0  0  0
 41102  1  0  0  0
 41103  1  0  0  0
 41104  1  0  0  0
 41 48  1  0  0  0
 42 43  1  0  0  0
 42 66  1  0  0  0
 42105  1  0  0  0
 42106  1  0  0  0
 43 44  1  0  0  0
 44107  1  0  0  0
 45 46  2  0  0  0
 45108  1  0  0  0
 46109  1  0  0  0
 47110  1  0  0  0
 47111  1  0  0  0
 48 56  1  0  0  0
 48 65  1  0  0  0
 48112  1  0  0  0
 49 50  1  0  0  0
 49 53  1  0  0  0
 49 64  1  0  0  0
 49113  1  0  0  0
 50 51  1  0  0  0
 50114  1  0  0  0
 50115  1  0  0  0
 51 52  1  0  0  0
 51116  1  0  0  0
 51117  1  0  0  0
 52118  1  0  0  0
 52119  1  0  0  0
 53 54  1  0  0  0
 54 55  2  0  0  0
 54120  1  0  0  0
 55 57  1  0  0  0
 55121  1  0  0  0
 56 69  2  0  0  0
 57 58  2  0  0  0
 57122  1  0  0  0
 58123  1  0  0  0
 59 60  1  0  0  0
 59 61  1  0  0  0
 59 62  1  0  0  0
 60124  1  0  0  0
 60125  1  0  0  0
 60126  1  0  0  0
 61127  1  0  0  0
 61128  1  0  0  0
 61129  1  0  0  0
 62130  1  0  0  0
 62131  1  0  0  0
 62132  1  0  0  0
 63 65  1  0  0  0
 63133  1  0  0  0
 63134  1  0  0  0
 63135  1  0  0  0
 64136  1  0  0  0
 65137  1  0  0  0
 68 76  1  0  0  0
 71 72  2  0  0  0
 71 73  1  0  0  0
 71138  1  0  0  0
 72 75  1  0  0  0
 72139  1  0  0  0
 73 76  2  0  0  0
 73140  1  0  0  0
 74 75  2  0  0  0
 74 76  1  0  0  0
 74141  1  0  0  0
 75 77  1  0  0  0
 77 78  1  0  0  0
 77142  1  0  0  0
 77143  1  0  0  0
 78144  1  0  0  0
M  ISO  4   1 100  68 101  76 101  78 100
M  END
> <chiral flag>
0

> <version>
0

> <s_m_source_file>
/data/baiqing/PycharmProjects/Reinvent-master-3.2/result/LINK_invent/BTK/process_docking_weight1_custom_sum_contain_oxygen_bond_distance_aromatic_linkinvent_7_9_3/rearranged_h_0002.sdf

> <i_m_source_file_index>
32

> <r_mmod_Potential_Energy-OPLS-2005>
2769.08959960938

> <r_mmod_Stretch_Energy-OPLS-2005>
1243.04919433594

> <r_mmod_Bend_Energy-OPLS-2005>
646.241638183594

> <r_mmod_Torsional_Energy-OPLS-2005>
201.411758422852

> <r_mmod_Improper_Torsional_Energy-OPLS-2005>
3.7339494228363

> <r_mmod_Van_der_Waal_Energy-OPLS-2005>
127.41130065918

> <r_mmod_Electrostatic_Energy-OPLS-2005>
-376.12548828125

> <r_mmod_Solvation_Energy-OPLS-2005>
-220.923278808594

> <b_mmod_Minimization_Converged-OPLS-2005>
0

> <r_mmod_RMS_Derivative-OPLS-2005>
0.552049160003662

$$$$
32
                    3D
 Structure written by MMmdl.
154162  0  0  1  0            999 V2000
  -30.6213  -14.6271   20.5098 C   0  0  0  0  0  0
  -30.4410  -12.3855   19.4486 C   0  0  0  0  0  0
  -29.5075  -12.5077   18.2227 C   0  0  0  0  0  0
  -28.0303  -12.3466   18.6352 C   0  0  0  0  0  0
  -27.6565  -13.2129   19.8671 C   0  0  2  0  0  0
  -28.7011  -13.0517   20.9952 C   0  0  0  0  0  0
  -25.2580  -13.8165   20.5688 C   0  0  0  0  0  0
  -24.1839  -13.0439   20.9194 C   0  0  0  0  0  0
  -24.6398  -11.6906   20.8746 C   0  0  0  0  0  0
  -23.9063  -10.4293   21.0411 C   0  0  0  0  0  0
  -24.3618   -9.4207   21.9186 C   0  0  0  0  0  0
  -23.6294   -8.2242   22.0753 C   0  0  0  0  0  0
  -22.4275   -8.0283   21.3546 C   0  0  0  0  0  0
  -21.9911   -9.0255   20.4647 C   0  0  0  0  0  0
  -22.7238  -10.2135   20.3057 C   0  0  0  0  0  0
  -21.6851   -6.0738   22.5280 C   0  0  0  0  0  0
  -21.4012   -6.5643   23.8214 C   0  0  0  0  0  0
  -21.3659   -5.6793   24.9176 C   0  0  0  0  0  0
  -21.6043   -4.3056   24.7225 C   0  0  0  0  0  0
  -21.8820   -3.8150   23.4345 C   0  0  0  0  0  0
  -21.9193   -4.6967   22.3403 C   0  0  0  0  0  0
  -22.7861  -13.5236   21.1856 C   0  0  0  0  0  0
  -22.1662   -4.2154   21.0980 F   0  0  0  0  0  0
  -21.5629   -3.4538   25.7736 F   0  0  0  0  0  0
  -30.0190  -13.3978   20.4368 N   0  0  0  0  0  0
  -26.3007  -12.9337   20.3335 N   0  0  0  0  0  0
  -25.9327  -11.6495   20.5765 N   0  0  0  0  0  0
  -22.0499  -12.8228   22.0411 N   0  0  0  0  0  0
  -25.4303  -15.1882   20.4089 N   0  0  0  0  0  0
  -31.7757  -14.8014   20.1079 O   0  0  0  0  0  0
  -21.6638   -6.8879   21.4242 O   0  0  0  0  0  0
  -22.3550  -14.5545   20.6706 O   0  0  0  0  0  0
  -24.6246  -31.8612   23.2045 C   0  0  0  0  0  0
  -25.9097  -32.4787   23.8370 C   0  0  1  0  0  0
  -27.2223  -27.3283   20.1153 C   0  0  0  0  0  0
  -25.5925  -33.8589   24.2300 N   0  0  0  0  0  0
  -23.4182  -30.4863   21.5461 C   0  0  2  0  0  0
  -24.8646  -28.9443   20.1119 C   0  0  0  0  0  0
  -22.7472  -29.4635   22.4937 C   0  0  0  0  0  0
  -18.0292  -28.1377   22.8484 C   0  0  0  0  0  0
  -24.1491  -36.7289   23.2640 C   0  0  0  0  0  0
  -25.9593  -30.7936   21.3767 C   0  0  0  0  0  0
  -26.0332  -29.4222   20.7189 C   0  0  0  0  0  0
  -27.2160  -28.6253   20.7125 C   0  0  0  0  0  0
  -26.0357  -26.9115   19.4696 C   0  0  0  0  0  0
  -24.8674  -27.6936   19.4782 C   0  0  0  0  0  0
  -23.6327  -29.8234   20.1607 C   0  0  0  0  0  0
  -25.4115  -36.3087   24.0336 C   0  0  1  0  0  0
  -20.5892  -28.3681   23.1278 C   0  0  2  0  0  0
  -20.6782  -26.9407   22.5403 C   0  0  0  0  0  0
  -19.5760  -26.6377   21.5203 C   0  0  0  0  0  0
  -18.1940  -26.7923   22.1614 C   0  0  0  0  0  0
  -19.1545  -28.8843   23.2878 C   0  0  0  0  0  0
  -18.9469  -30.1446   23.8891 C   0  0  0  0  0  0
  -17.6470  -30.6580   24.0560 C   0  0  0  0  0  0
  -25.9046  -34.9455   23.5115 C   0  0  0  0  0  0
  -16.5359  -29.9080   23.6328 C   0  0  0  0  0  0
  -16.7279  -28.6498   23.0347 C   0  0  0  0  0  0
  -26.4489  -31.6593   25.0733 C   0  0  0  0  0  0
  -25.3729  -31.3724   26.1464 C   0  0  0  0  0  0
  -27.0341  -30.3027   24.6173 C   0  0  0  0  0  0
  -27.6055  -32.4320   25.7495 C   0  0  0  0  0  0
  -27.5581  -37.1802   24.8468 C   0  0  0  0  0  0
  -21.4187  -29.3042   22.3677 N   0  0  0  0  0  0
  -26.4294  -37.3779   23.9410 N   0  0  0  0  0  0
  -24.6859  -31.0637   22.0991 N   0  0  0  0  0  0
  -23.4201  -28.8175   23.3011 O   0  0  0  0  0  0
  -28.3375  -26.4783   20.1418 O   0  0  0  0  0  0
  -26.5607  -34.8918   22.4675 O   0  0  0  0  0  0
  -23.5411  -32.1405   23.7378 O   0  0  0  0  0  0
  -30.9266  -17.8507   20.2018 C   0  0  0  0  0  0
  -30.8488  -19.2686   20.0680 C   0  0  0  0  0  0
  -28.7210  -17.8673   21.1405 C   0  0  0  0  0  0
  -28.6320  -19.2897   21.0079 C   0  0  0  0  0  0
  -29.8522  -17.1053   20.7449 C   0  0  0  0  0  0
  -29.7188  -20.0427   20.4550 C   0  0  0  0  0  0
  -27.3362  -19.9310   21.4781 C   0  0  0  0  0  0
  -29.1941  -23.9568   20.1819 C   0  0  0  0  0  0
  -28.0922  -25.0573   20.4854 C   0  0  0  0  0  0
  -28.8155  -22.4519   20.5453 C   0  0  0  0  0  0
  -29.8099  -15.6526   20.9151 N   0  0  0  0  0  0
  -29.8276  -21.4398   20.2390 O   0  0  0  0  0  0
  -31.4815  -12.5139   19.1453 H   0  0  0  0  0  0
  -30.3785  -11.3860   19.8816 H   0  0  0  0  0  0
  -29.7692  -11.7590   17.4739 H   0  0  0  0  0  0
  -29.6508  -13.4788   17.7459 H   0  0  0  0  0  0
  -27.8651  -11.2928   18.8626 H   0  0  0  0  0  0
  -27.3747  -12.5806   17.7956 H   0  0  0  0  0  0
  -27.6800  -14.2507   19.5341 H   0  0  0  0  0  0
  -28.7101  -12.0245   21.3627 H   0  0  0  0  0  0
  -28.4455  -13.6688   21.8577 H   0  0  0  0  0  0
  -25.2763   -9.5681   22.4761 H   0  0  0  0  0  0
  -24.0005   -7.4629   22.7468 H   0  0  0  0  0  0
  -21.0844   -8.8773   19.8950 H   0  0  0  0  0  0
  -22.3699  -10.9675   19.6168 H   0  0  0  0  0  0
  -21.2003   -7.6150   23.9720 H   0  0  0  0  0  0
  -21.1480   -6.0522   25.9078 H   0  0  0  0  0  0
  -22.0600   -2.7612   23.2842 H   0  0  0  0  0  0
  -22.4112  -11.9886   22.4794 H   0  0  0  0  0  0
  -21.1118  -13.1256   22.2617 H   0  0  0  0  0  0
  -24.6594  -15.8400   20.5062 H   0  0  0  0  0  0
  -26.2712  -15.6219   20.0503 H   0  0  0  0  0  0
  -26.7164  -32.5458   23.1119 H   0  0  0  0  0  0
  -25.0103  -33.9745   25.0467 H   0  0  0  0  0  0
  -22.7117  -31.3069   21.4049 H   0  0  0  0  0  0
  -23.3755  -35.9618   23.3302 H   0  0  0  0  0  0
  -24.3591  -36.8901   22.2055 H   0  0  0  0  0  0
  -23.7241  -37.6493   23.6654 H   0  0  0  0  0  0
  -26.0941  -31.5591   20.6113 H   0  0  0  0  0  0
  -26.8383  -30.8390   22.0077 H   0  0  0  0  0  0
  -28.1124  -28.9870   21.1967 H   0  0  0  0  0  0
  -25.9883  -25.9730   18.9389 H   0  0  0  0  0  0
  -23.9766  -27.3278   18.9858 H   0  0  0  0  0  0
  -23.7523  -30.6005   19.4048 H   0  0  0  0  0  0
  -22.7524  -29.2533   19.8571 H   0  0  0  0  0  0
  -25.1298  -36.1939   25.0830 H   0  0  0  0  0  0
  -20.9986  -28.3245   24.1396 H   0  0  0  0  0  0
  -20.5679  -26.2292   23.3602 H   0  0  0  0  0  0
  -21.6653  -26.7436   22.1199 H   0  0  0  0  0  0
  -19.6923  -25.6287   21.1234 H   0  0  0  0  0  0
  -19.6693  -27.3186   20.6732 H   0  0  0  0  0  0
  -17.4213  -26.6659   21.4016 H   0  0  0  0  0  0
  -18.0343  -26.0069   22.9014 H   0  0  0  0  0  0
  -19.7948  -30.7262   24.2252 H   0  0  0  0  0  0
  -17.5030  -31.6263   24.5158 H   0  0  0  0  0  0
  -15.5362  -30.2980   23.7661 H   0  0  0  0  0  0
  -15.8679  -28.0817   22.7058 H   0  0  0  0  0  0
  -24.5904  -30.7072   25.7796 H   0  0  0  0  0  0
  -24.8919  -32.2888   26.4891 H   0  0  0  0  0  0
  -25.8060  -30.8905   27.0238 H   0  0  0  0  0  0
  -26.2924  -29.6768   24.1201 H   0  0  0  0  0  0
  -27.4069  -29.7286   25.4664 H   0  0  0  0  0  0
  -27.8773  -30.4336   23.9388 H   0  0  0  0  0  0
  -27.2679  -33.3623   26.2074 H   0  0  0  0  0  0
  -28.3861  -32.6867   25.0315 H   0  0  0  0  0  0
  -28.0724  -31.8442   26.5408 H   0  0  0  0  0  0
  -28.2599  -38.0098   24.7517 H   0  0  0  0  0  0
  -28.1079  -36.2632   24.6293 H   0  0  0  0  0  0
  -27.2303  -37.1449   25.8872 H   0  0  0  0  0  0
  -20.9357  -29.8775   21.6902 H   0  0  0  0  0  0
  -26.0174  -38.2854   24.1407 H   0  0  0  0  0  0
  -31.8272  -17.3502   19.8760 H   0  0  0  0  0  0
  -31.6993  -19.7836   19.6447 H   0  0  0  0  0  0
  -27.8769  -17.3384   21.5610 H   0  0  0  0  0  0
  -26.6440  -19.1860   21.8713 H   0  0  0  0  0  0
  -26.8213  -20.4256   20.6561 H   0  0  0  0  0  0
  -27.5159  -20.6403   22.2842 H   0  0  0  0  0  0
  -30.1099  -24.2260   20.7081 H   0  0  0  0  0  0
  -29.4370  -24.0011   19.1203 H   0  0  0  0  0  0
  -27.8834  -25.0333   21.5555 H   0  0  0  0  0  0
  -27.1846  -24.6847   20.0185 H   0  0  0  0  0  0
  -27.9017  -22.2050   20.0075 H   0  0  0  0  0  0
  -28.5972  -22.4168   21.6113 H   0  0  0  0  0  0
  -28.9350  -15.3089   21.2800 H   0  0  0  0  0  0
  1 25  1  0  0  0
  1 30  2  0  0  0
  1 81  1  0  0  0
  2  3  1  0  0  0
  2 25  1  0  0  0
  2 83  1  0  0  0
  2 84  1  0  0  0
  3  4  1  0  0  0
  3 85  1  0  0  0
  3 86  1  0  0  0
  4  5  1  0  0  0
  4 87  1  0  0  0
  4 88  1  0  0  0
  5  6  1  0  0  0
  5 26  1  0  0  0
  5 89  1  0  0  0
  6 25  1  0  0  0
  6 90  1  0  0  0
  6 91  1  0  0  0
  7  8  2  0  0  0
  7 26  1  0  0  0
  7 29  1  0  0  0
  8  9  1  0  0  0
  8 22  1  0  0  0
  9 10  1  0  0  0
  9 27  2  0  0  0
 10 11  2  0  0  0
 10 15  1  0  0  0
 11 12  1  0  0  0
 11 92  1  0  0  0
 12 13  2  0  0  0
 12 93  1  0  0  0
 13 14  1  0  0  0
 13 31  1  0  0  0
 14 15  2  0  0  0
 14 94  1  0  0  0
 15 95  1  0  0  0
 16 17  2  0  0  0
 16 21  1  0  0  0
 16 31  1  0  0  0
 17 18  1  0  0  0
 17 96  1  0  0  0
 18 19  2  0  0  0
 18 97  1  0  0  0
 19 20  1  0  0  0
 19 24  1  0  0  0
 20 21  2  0  0  0
 20 98  1  0  0  0
 21 23  1  0  0  0
 22 28  1  0  0  0
 22 32  2  0  0  0
 26 27  1  0  0  0
 28 99  1  0  0  0
 28100  1  0  0  0
 29101  1  0  0  0
 29102  1  0  0  0
 33 34  1  0  0  0
 33 66  1  0  0  0
 33 70  2  0  0  0
 34 36  1  0  0  0
 34 59  1  0  0  0
 34103  1  0  0  0
 35 44  2  0  0  0
 35 45  1  0  0  0
 35 68  1  0  0  0
 36 56  1  0  0  0
 36104  1  0  0  0
 37 39  1  0  0  0
 37 47  1  0  0  0
 37 66  1  0  0  0
 37105  1  0  0  0
 38 43  2  0  0  0
 38 46  1  0  0  0
 38 47  1  0  0  0
 39 64  1  0  0  0
 39 67  2  0  0  0
 40 52  1  0  0  0
 40 53  2  0  0  0
 40 58  1  0  0  0
 41106  1  0  0  0
 41107  1  0  0  0
 41108  1  0  0  0
 41 48  1  0  0  0
 42 43  1  0  0  0
 42 66  1  0  0  0
 42109  1  0  0  0
 42110  1  0  0  0
 43 44  1  0  0  0
 44111  1  0  0  0
 45 46  2  0  0  0
 45112  1  0  0  0
 46113  1  0  0  0
 47114  1  0  0  0
 47115  1  0  0  0
 48 56  1  0  0  0
 48 65  1  0  0  0
 48116  1  0  0  0
 49 50  1  0  0  0
 49 53  1  0  0  0
 49 64  1  0  0  0
 49117  1  0  0  0
 50 51  1  0  0  0
 50118  1  0  0  0
 50119  1  0  0  0
 51 52  1  0  0  0
 51120  1  0  0  0
 51121  1  0  0  0
 52122  1  0  0  0
 52123  1  0  0  0
 53 54  1  0  0  0
 54 55  2  0  0  0
 54124  1  0  0  0
 55 57  1  0  0  0
 55125  1  0  0  0
 56 69  2  0  0  0
 57 58  2  0  0  0
 57126  1  0  0  0
 58127  1  0  0  0
 59 60  1  0  0  0
 59 61  1  0  0  0
 59 62  1  0  0  0
 60128  1  0  0  0
 60129  1  0  0  0
 60130  1  0  0  0
 61131  1  0  0  0
 61132  1  0  0  0
 61133  1  0  0  0
 62134  1  0  0  0
 62135  1  0  0  0
 62136  1  0  0  0
 63 65  1  0  0  0
 63137  1  0  0  0
 63138  1  0  0  0
 63139  1  0  0  0
 64140  1  0  0  0
 65141  1  0  0  0
 68 79  1  0  0  0
 71 72  2  0  0  0
 71 75  1  0  0  0
 71142  1  0  0  0
 72 76  1  0  0  0
 72143  1  0  0  0
 73 74  1  0  0  0
 73 75  2  0  0  0
 73144  1  0  0  0
 74 76  2  0  0  0
 74 77  1  0  0  0
 75 81  1  0  0  0
 76 82  1  0  0  0
 77145  1  0  0  0
 77146  1  0  0  0
 77147  1  0  0  0
 78 79  1  0  0  0
 78 80  1  0  0  0
 78148  1  0  0  0
 78149  1  0  0  0
 79150  1  0  0  0
 79151  1  0  0  0
 80 82  1  0  0  0
 80152  1  0  0  0
 80153  1  0  0  0
 81154  1  0  0  0
M  ISO  4   1 100  68 101  79 101  81 100
M  END
> <chiral flag>
0

> <version>
0

> <s_m_source_file>
/data/baiqing/PycharmProjects/Reinvent-master-3.2/result/LINK_invent/BTK/process_docking_weight1_custom_sum_contain_oxygen_bond_distance_aromatic_linkinvent_7_9_3/rearranged_h_0002.sdf

> <i_m_source_file_index>
33

> <r_mmod_Potential_Energy-OPLS-2005>
50.58642578125

> <r_mmod_Stretch_Energy-OPLS-2005>
77.116455078125

> <r_mmod_Bend_Energy-OPLS-2005>
161.402847290039

> <r_mmod_Torsional_Energy-OPLS-2005>
217.915832519531

> <r_mmod_Improper_Torsional_Energy-OPLS-2005>
3.7882080078125

> <r_mmod_Van_der_Waal_Energy-OPLS-2005>
149.665542602539

> <r_mmod_Electrostatic_Energy-OPLS-2005>
-391.825958251953

> <r_mmod_Solvation_Energy-OPLS-2005>
-211.656326293945

> <b_mmod_Minimization_Converged-OPLS-2005>
0

> <r_mmod_RMS_Derivative-OPLS-2005>
0.548246562480927

$$$$
33
                    3D
 Structure written by MMmdl.
160168  0  0  1  0            999 V2000
  -30.7802  -14.3419   20.6948 C   0  0  0  0  0  0
  -30.4135  -12.2815   19.3923 C   0  0  0  0  0  0
  -29.4822  -12.5284   18.1919 C   0  0  0  0  0  0
  -28.0067  -12.3842   18.6084 C   0  0  0  0  0  0
  -27.6670  -13.2028   19.8812 C   0  0  2  0  0  0
  -28.7037  -12.9389   20.9958 C   0  0  0  0  0  0
  -25.2605  -13.8161   20.5682 C   0  0  0  0  0  0
  -24.1846  -13.0441   20.9164 C   0  0  0  0  0  0
  -24.6393  -11.6906   20.8722 C   0  0  0  0  0  0
  -23.9054  -10.4291   21.0394 C   0  0  0  0  0  0
  -24.3608   -9.4212   21.9177 C   0  0  0  0  0  0
  -23.6288   -8.2246   22.0750 C   0  0  0  0  0  0
  -22.4272   -8.0279   21.3540 C   0  0  0  0  0  0
  -21.9902   -9.0249   20.4642 C   0  0  0  0  0  0
  -22.7227  -10.2130   20.3046 C   0  0  0  0  0  0
  -21.6853   -6.0735   22.5278 C   0  0  0  0  0  0
  -21.4016   -6.5641   23.8211 C   0  0  0  0  0  0
  -21.3657   -5.6790   24.9175 C   0  0  0  0  0  0
  -21.6044   -4.3050   24.7224 C   0  0  0  0  0  0
  -21.8819   -3.8144   23.4343 C   0  0  0  0  0  0
  -21.9195   -4.6963   22.3403 C   0  0  0  0  0  0
  -22.7868  -13.5242   21.1834 C   0  0  0  0  0  0
  -22.1661   -4.2149   21.0977 F   0  0  0  0  0  0
  -21.5628   -3.4534   25.7738 F   0  0  0  0  0  0
  -30.0501  -13.2220   20.4615 N   0  0  0  0  0  0
  -26.3047  -12.9326   20.3386 N   0  0  0  0  0  0
  -25.9320  -11.6485   20.5754 N   0  0  0  0  0  0
  -22.0503  -12.8228   22.0387 N   0  0  0  0  0  0
  -25.4353  -15.1876   20.4099 N   0  0  0  0  0  0
  -31.7941  -14.6364   20.0544 O   0  0  0  0  0  0
  -21.6639   -6.8878   21.4239 O   0  0  0  0  0  0
  -22.3551  -14.5557   20.6700 O   0  0  0  0  0  0
  -24.6100  -31.8706   23.2120 C   0  0  0  0  0  0
  -25.9011  -32.4838   23.8403 C   0  0  1  0  0  0
  -27.2420  -27.4807   20.0778 C   0  0  0  0  0  0
  -25.5892  -33.8635   24.2351 N   0  0  0  0  0  0
  -23.3964  -30.4934   21.5511 C   0  0  2  0  0  0
  -24.8444  -28.9608   20.1172 C   0  0  0  0  0  0
  -22.7388  -29.4669   22.4993 C   0  0  0  0  0  0
  -18.0276  -28.1370   22.8485 C   0  0  0  0  0  0
  -24.1484  -36.7313   23.2633 C   0  0  0  0  0  0
  -25.9200  -30.8465   21.3604 C   0  0  0  0  0  0
  -25.9995  -29.4816   20.7141 C   0  0  0  0  0  0
  -27.2003  -28.7418   20.7039 C   0  0  0  0  0  0
  -26.0706  -26.9528   19.4974 C   0  0  0  0  0  0
  -24.8711  -27.6901   19.5134 C   0  0  0  0  0  0
  -23.6038  -29.8231   20.1662 C   0  0  0  0  0  0
  -25.4100  -36.3118   24.0347 C   0  0  1  0  0  0
  -20.5864  -28.3654   23.1319 C   0  0  2  0  0  0
  -20.6773  -26.9397   22.5410 C   0  0  0  0  0  0
  -19.5758  -26.6382   21.5202 C   0  0  0  0  0  0
  -18.1933  -26.7920   22.1610 C   0  0  0  0  0  0
  -19.1525  -28.8827   23.2902 C   0  0  0  0  0  0
  -18.9453  -30.1437   23.8909 C   0  0  0  0  0  0
  -17.6458  -30.6576   24.0567 C   0  0  0  0  0  0
  -25.9024  -34.9487   23.5141 C   0  0  0  0  0  0
  -16.5348  -29.9080   23.6326 C   0  0  0  0  0  0
  -16.7267  -28.6500   23.0337 C   0  0  0  0  0  0
  -26.4461  -31.6598   25.0713 C   0  0  0  0  0  0
  -25.3747  -31.3703   26.1480 C   0  0  0  0  0  0
  -27.0275  -30.3046   24.6048 C   0  0  0  0  0  0
  -27.6058  -32.4297   25.7467 C   0  0  0  0  0  0
  -27.5591  -37.1806   24.8460 C   0  0  0  0  0  0
  -21.4123  -29.3026   22.3727 N   0  0  0  0  0  0
  -26.4289  -37.3805   23.9426 N   0  0  0  0  0  0
  -24.6603  -31.0834   22.1007 N   0  0  0  0  0  0
  -23.4178  -28.8217   23.3025 O   0  0  0  0  0  0
  -28.4169  -26.7761   20.0467 O   0  0  0  0  0  0
  -26.5573  -34.8938   22.4692 O   0  0  0  0  0  0
  -23.5303  -32.1450   23.7531 O   0  0  0  0  0  0
  -29.3072  -17.8825   20.9627 C   0  0  0  0  0  0
  -31.6825  -18.1122   20.4555 C   0  0  0  0  0  0
  -29.0115  -18.8976   20.0326 C   0  0  0  0  0  0
  -31.3858  -19.1247   19.5226 C   0  0  0  0  0  0
  -30.6437  -17.4843   21.1746 C   0  0  0  0  0  0
  -30.0488  -19.5148   19.3043 C   0  0  0  0  0  0
  -30.9560  -16.3519   22.1378 C   0  0  0  0  0  0
  -29.7238  -20.6054   18.3051 C   0  0  0  0  0  0
  -28.8546  -25.4332   18.0464 C   0  0  0  0  0  0
  -29.3382  -24.2233   18.8582 C   0  0  0  0  0  0
  -29.0730  -26.7644   18.7815 C   0  0  0  0  0  0
  -29.2065  -22.9023   18.0954 C   0  0  0  0  0  0
  -30.3506  -15.0965   21.7120 N   0  0  0  0  0  0
  -29.6569  -21.8664   18.9504 O   0  0  0  0  0  0
  -31.4575  -12.3770   19.0881 H   0  0  0  0  0  0
  -30.3065  -11.2575   19.7536 H   0  0  0  0  0  0
  -29.7131  -11.8294   17.3868 H   0  0  0  0  0  0
  -29.6551  -13.5280   17.7899 H   0  0  0  0  0  0
  -27.8107  -11.3256   18.7831 H   0  0  0  0  0  0
  -27.3542  -12.6813   17.7866 H   0  0  0  0  0  0
  -27.7273  -14.2583   19.6132 H   0  0  0  0  0  0
  -28.6602  -11.8958   21.3109 H   0  0  0  0  0  0
  -28.4504  -13.5169   21.8847 H   0  0  0  0  0  0
  -25.2756   -9.5698   22.4748 H   0  0  0  0  0  0
  -24.0005   -7.4639   22.7467 H   0  0  0  0  0  0
  -21.0836   -8.8757   19.8943 H   0  0  0  0  0  0
  -22.3682  -10.9664   19.6149 H   0  0  0  0  0  0
  -21.2005   -7.6146   23.9720 H   0  0  0  0  0  0
  -21.1478   -6.0516   25.9078 H   0  0  0  0  0  0
  -22.0600   -2.7606   23.2841 H   0  0  0  0  0  0
  -22.4103  -11.9872   22.4757 H   0  0  0  0  0  0
  -21.1121  -13.1249   22.2591 H   0  0  0  0  0  0
  -24.6756  -15.8500   20.5237 H   0  0  0  0  0  0
  -26.2986  -15.6222   20.1067 H   0  0  0  0  0  0
  -26.7076  -32.5572   23.1168 H   0  0  0  0  0  0
  -25.0116  -33.9804   25.0545 H   0  0  0  0  0  0
  -22.6835  -31.3090   21.4112 H   0  0  0  0  0  0
  -23.3764  -35.9627   23.3266 H   0  0  0  0  0  0
  -24.3602  -36.8942   22.2054 H   0  0  0  0  0  0
  -23.7206  -37.6503   23.6648 H   0  0  0  0  0  0
  -26.0225  -31.6112   20.5893 H   0  0  0  0  0  0
  -26.8115  -30.9051   21.9724 H   0  0  0  0  0  0
  -28.0963  -29.1414   21.1584 H   0  0  0  0  0  0
  -26.0816  -25.9752   19.0388 H   0  0  0  0  0  0
  -23.9806  -27.2772   19.0602 H   0  0  0  0  0  0
  -23.7070  -30.5976   19.4056 H   0  0  0  0  0  0
  -22.7300  -29.2391   19.8726 H   0  0  0  0  0  0
  -25.1267  -36.1984   25.0838 H   0  0  0  0  0  0
  -20.9953  -28.3213   24.1441 H   0  0  0  0  0  0
  -20.5684  -26.2260   23.3585 H   0  0  0  0  0  0
  -21.6647  -26.7450   22.1195 H   0  0  0  0  0  0
  -19.6929  -25.6297   21.1227 H   0  0  0  0  0  0
  -19.6710  -27.3201   20.6741 H   0  0  0  0  0  0
  -17.4209  -26.6671   21.4001 H   0  0  0  0  0  0
  -18.0331  -26.0049   22.8990 H   0  0  0  0  0  0
  -19.7936  -30.7248   24.2276 H   0  0  0  0  0  0
  -17.5020  -31.6265   24.5156 H   0  0  0  0  0  0
  -15.5352  -30.2993   23.7636 H   0  0  0  0  0  0
  -15.8667  -28.0828   22.7031 H   0  0  0  0  0  0
  -24.5904  -30.7061   25.7826 H   0  0  0  0  0  0
  -24.8962  -32.2861   26.4958 H   0  0  0  0  0  0
  -25.8111  -30.8852   27.0221 H   0  0  0  0  0  0
  -26.2798  -29.6812   24.1129 H   0  0  0  0  0  0
  -27.4095  -29.7263   25.4472 H   0  0  0  0  0  0
  -27.8613  -30.4373   23.9149 H   0  0  0  0  0  0
  -27.2715  -33.3618   26.2033 H   0  0  0  0  0  0
  -28.3884  -32.6807   25.0293 H   0  0  0  0  0  0
  -28.0705  -31.8416   26.5390 H   0  0  0  0  0  0
  -28.2572  -38.0141   24.7559 H   0  0  0  0  0  0
  -28.1121  -36.2675   24.6204 H   0  0  0  0  0  0
  -27.2330  -37.1359   25.8868 H   0  0  0  0  0  0
  -20.9273  -29.8732   21.6945 H   0  0  0  0  0  0
  -26.0177  -38.2873   24.1469 H   0  0  0  0  0  0
  -28.5060  -17.4046   21.5092 H   0  0  0  0  0  0
  -32.7095  -17.8075   20.6037 H   0  0  0  0  0  0
  -27.9853  -19.2011   19.8763 H   0  0  0  0  0  0
  -32.1874  -19.5984   18.9721 H   0  0  0  0  0  0
  -30.5740  -16.6104   23.1260 H   0  0  0  0  0  0
  -32.0346  -16.2270   22.2502 H   0  0  0  0  0  0
  -28.7735  -20.3725   17.8207 H   0  0  0  0  0  0
  -30.4849  -20.6254   17.5222 H   0  0  0  0  0  0
  -27.8041  -25.3105   17.7859 H   0  0  0  0  0  0
  -29.3937  -25.4686   17.0989 H   0  0  0  0  0  0
  -28.7719  -24.1598   19.7883 H   0  0  0  0  0  0
  -30.3811  -24.3685   19.1421 H   0  0  0  0  0  0
  -28.7546  -27.5988   18.1527 H   0  0  0  0  0  0
  -30.1390  -26.9131   18.9566 H   0  0  0  0  0  0
  -29.8021  -22.9332   17.1812 H   0  0  0  0  0  0
  -28.1674  -22.7257   17.8111 H   0  0  0  0  0  0
  -29.5328  -14.7806   22.2108 H   0  0  0  0  0  0
  1 25  1  0  0  0
  1 30  2  0  0  0
  1 83  1  0  0  0
  2  3  1  0  0  0
  2 25  1  0  0  0
  2 85  1  0  0  0
  2 86  1  0  0  0
  3  4  1  0  0  0
  3 87  1  0  0  0
  3 88  1  0  0  0
  4  5  1  0  0  0
  4 89  1  0  0  0
  4 90  1  0  0  0
  5  6  1  0  0  0
  5 26  1  0  0  0
  5 91  1  0  0  0
  6 25  1  0  0  0
  6 92  1  0  0  0
  6 93  1  0  0  0
  7  8  2  0  0  0
  7 26  1  0  0  0
  7 29  1  0  0  0
  8  9  1  0  0  0
  8 22  1  0  0  0
  9 10  1  0  0  0
  9 27  2  0  0  0
 10 11  2  0  0  0
 10 15  1  0  0  0
 11 12  1  0  0  0
 11 94  1  0  0  0
 12 13  2  0  0  0
 12 95  1  0  0  0
 13 14  1  0  0  0
 13 31  1  0  0  0
 14 15  2  0  0  0
 14 96  1  0  0  0
 15 97  1  0  0  0
 16 17  2  0  0  0
 16 21  1  0  0  0
 16 31  1  0  0  0
 17 18  1  0  0  0
 17 98  1  0  0  0
 18 19  2  0  0  0
 18 99  1  0  0  0
 19 20  1  0  0  0
 19 24  1  0  0  0
 20 21  2  0  0  0
 20100  1  0  0  0
 21 23  1  0  0  0
 22 28  1  0  0  0
 22 32  2  0  0  0
 26 27  1  0  0  0
 28101  1  0  0  0
 28102  1  0  0  0
 29103  1  0  0  0
 29104  1  0  0  0
 33 34  1  0  0  0
 33 66  1  0  0  0
 33 70  2  0  0  0
 34 36  1  0  0  0
 34 59  1  0  0  0
 34105  1  0  0  0
 35 44  2  0  0  0
 35 45  1  0  0  0
 35 68  1  0  0  0
 36 56  1  0  0  0
 36106  1  0  0  0
 37 39  1  0  0  0
 37 47  1  0  0  0
 37 66  1  0  0  0
 37107  1  0  0  0
 38 43  2  0  0  0
 38 46  1  0  0  0
 38 47  1  0  0  0
 39 64  1  0  0  0
 39 67  2  0  0  0
 40 52  1  0  0  0
 40 53  2  0  0  0
 40 58  1  0  0  0
 41108  1  0  0  0
 41109  1  0  0  0
 41110  1  0  0  0
 41 48  1  0  0  0
 42 43  1  0  0  0
 42 66  1  0  0  0
 42111  1  0  0  0
 42112  1  0  0  0
 43 44  1  0  0  0
 44113  1  0  0  0
 45 46  2  0  0  0
 45114  1  0  0  0
 46115  1  0  0  0
 47116  1  0  0  0
 47117  1  0  0  0
 48 56  1  0  0  0
 48 65  1  0  0  0
 48118  1  0  0  0
 49 50  1  0  0  0
 49 53  1  0  0  0
 49 64  1  0  0  0
 49119  1  0  0  0
 50 51  1  0  0  0
 50120  1  0  0  0
 50121  1  0  0  0
 51 52  1  0  0  0
 51122  1  0  0  0
 51123  1  0  0  0
 52124  1  0  0  0
 52125  1  0  0  0
 53 54  1  0  0  0
 54 55  2  0  0  0
 54126  1  0  0  0
 55 57  1  0  0  0
 55127  1  0  0  0
 56 69  2  0  0  0
 57 58  2  0  0  0
 57128  1  0  0  0
 58129  1  0  0  0
 59 60  1  0  0  0
 59 61  1  0  0  0
 59 62  1  0  0  0
 60130  1  0  0  0
 60131  1  0  0  0
 60132  1  0  0  0
 61133  1  0  0  0
 61134  1  0  0  0
 61135  1  0  0  0
 62136  1  0  0  0
 62137  1  0  0  0
 62138  1  0  0  0
 63 65  1  0  0  0
 63139  1  0  0  0
 63140  1  0  0  0
 63141  1  0  0  0
 64142  1  0  0  0
 65143  1  0  0  0
 68 81  1  0  0  0
 71 73  2  0  0  0
 71 75  1  0  0  0
 71144  1  0  0  0
 72 74  1  0  0  0
 72 75  2  0  0  0
 72145  1  0  0  0
 73 76  1  0  0  0
 73146  1  0  0  0
 74 76  2  0  0  0
 74147  1  0  0  0
 75 77  1  0  0  0
 76 78  1  0  0  0
 77 83  1  0  0  0
 77148  1  0  0  0
 77149  1  0  0  0
 78 84  1  0  0  0
 78150  1  0  0  0
 78151  1  0  0  0
 79 80  1  0  0  0
 79 81  1  0  0  0
 79152  1  0  0  0
 79153  1  0  0  0
 80 82  1  0  0  0
 80154  1  0  0  0
 80155  1  0  0  0
 81156  1  0  0  0
 81157  1  0  0  0
 82 84  1  0  0  0
 82158  1  0  0  0
 82159  1  0  0  0
 83160  1  0  0  0
M  ISO  4   1 100  68 101  81 101  83 100
M  END
> <chiral flag>
0

> <version>
0

> <s_m_source_file>
/data/baiqing/PycharmProjects/Reinvent-master-3.2/result/LINK_invent/BTK/process_docking_weight1_custom_sum_contain_oxygen_bond_distance_aromatic_linkinvent_7_9_3/rearranged_h_0002.sdf

> <i_m_source_file_index>
34

> <r_mmod_Potential_Energy-OPLS-2005>
-126.915184020996

> <r_mmod_Stretch_Energy-OPLS-2005>
29.9808826446533

> <r_mmod_Bend_Energy-OPLS-2005>
81.0206832885742

> <r_mmod_Torsional_Energy-OPLS-2005>
223.488647460938

> <r_mmod_Improper_Torsional_Energy-OPLS-2005>
1.78447878360748

> <r_mmod_Van_der_Waal_Energy-OPLS-2005>
148.1005859375

> <r_mmod_Electrostatic_Energy-OPLS-2005>
-401.197509765625

> <r_mmod_Solvation_Energy-OPLS-2005>
-216.584716796875

> <b_mmod_Minimization_Converged-OPLS-2005>
0

> <r_mmod_RMS_Derivative-OPLS-2005>
1.0300532579422

$$$$
34
                    3D
 Structure written by MMmdl.
151159  0  0  1  0            999 V2000
  -30.5167  -15.0292   20.3793 C   0  0  0  0  0  0
  -30.4433  -12.6392   19.5072 C   0  0  0  0  0  0
  -29.5261  -12.5403   18.2652 C   0  0  0  0  0  0
  -28.0698  -12.2955   18.6946 C   0  0  0  0  0  0
  -27.6345  -13.2492   19.8370 C   0  0  2  0  0  0
  -28.6733  -13.3306   20.9775 C   0  0  0  0  0  0
  -25.2550  -13.8238   20.5697 C   0  0  0  0  0  0
  -24.1859  -13.0458   20.9198 C   0  0  0  0  0  0
  -24.6470  -11.6933   20.8780 C   0  0  0  0  0  0
  -23.9153  -10.4305   21.0426 C   0  0  0  0  0  0
  -24.3686   -9.4210   21.9202 C   0  0  0  0  0  0
  -23.6336   -8.2250   22.0755 C   0  0  0  0  0  0
  -22.4333   -8.0307   21.3542 C   0  0  0  0  0  0
  -21.9979   -9.0292   20.4658 C   0  0  0  0  0  0
  -22.7322  -10.2158   20.3078 C   0  0  0  0  0  0
  -21.6881   -6.0782   22.5302 C   0  0  0  0  0  0
  -21.4011   -6.5664   23.8237 C   0  0  0  0  0  0
  -21.3636   -5.6805   24.9183 C   0  0  0  0  0  0
  -21.6043   -4.3075   24.7243 C   0  0  0  0  0  0
  -21.8818   -3.8180   23.4357 C   0  0  0  0  0  0
  -21.9191   -4.7001   22.3421 C   0  0  0  0  0  0
  -22.7890  -13.5250   21.1796 C   0  0  0  0  0  0
  -22.1671   -4.2189   21.1002 F   0  0  0  0  0  0
  -21.5591   -3.4542   25.7742 F   0  0  0  0  0  0
  -29.9431  -13.7520   20.3715 N   0  0  0  0  0  0
  -26.2966  -12.9451   20.3299 N   0  0  0  0  0  0
  -25.9423  -11.6594   20.5827 N   0  0  0  0  0  0
  -22.0524  -12.8269   22.0370 N   0  0  0  0  0  0
  -25.4211  -15.1961   20.4053 N   0  0  0  0  0  0
  -31.7158  -15.0895   20.0778 O   0  0  0  0  0  0
  -21.6668   -6.8917   21.4269 O   0  0  0  0  0  0
  -22.3573  -14.5533   20.6589 O   0  0  0  0  0  0
  -24.6472  -31.8374   23.1829 C   0  0  0  0  0  0
  -25.9195  -32.4663   23.8252 C   0  0  1  0  0  0
  -27.2299  -27.0797   20.1619 C   0  0  0  0  0  0
  -25.5911  -33.8471   24.2156 N   0  0  0  0  0  0
  -23.4570  -30.4509   21.5316 C   0  0  2  0  0  0
  -24.9112  -28.8657   20.1219 C   0  0  0  0  0  0
  -22.7563  -29.4469   22.4866 C   0  0  0  0  0  0
  -18.0256  -28.1400   22.8429 C   0  0  0  0  0  0
  -24.1491  -36.7220   23.2662 C   0  0  0  0  0  0
  -26.0193  -30.6926   21.3944 C   0  0  0  0  0  0
  -26.0923  -29.2993   20.7363 C   0  0  0  0  0  0
  -27.2511  -28.4242   20.7353 C   0  0  0  0  0  0
  -26.0169  -26.7589   19.5168 C   0  0  0  0  0  0
  -24.8881  -27.6076   19.5026 C   0  0  0  0  0  0
  -23.6914  -29.7738   20.1572 C   0  0  0  0  0  0
  -25.4131  -36.3033   24.0348 C   0  0  1  0  0  0
  -20.5877  -28.3708   23.1254 C   0  0  2  0  0  0
  -20.6762  -26.9412   22.5428 C   0  0  0  0  0  0
  -19.5762  -26.6362   21.5211 C   0  0  0  0  0  0
  -18.1922  -26.7927   22.1596 C   0  0  0  0  0  0
  -19.1517  -28.8869   23.2826 C   0  0  0  0  0  0
  -18.9466  -30.1464   23.8854 C   0  0  0  0  0  0
  -17.6474  -30.6608   24.0554 C   0  0  0  0  0  0
  -25.9095  -34.9408   23.5096 C   0  0  0  0  0  0
  -16.5342  -29.9116   23.6362 C   0  0  0  0  0  0
  -16.7249  -28.6535   23.0347 C   0  0  0  0  0  0
  -26.4520  -31.6536   25.0707 C   0  0  0  0  0  0
  -25.3653  -31.3680   26.1344 C   0  0  0  0  0  0
  -27.0430  -30.2949   24.6315 C   0  0  0  0  0  0
  -27.6097  -32.4289   25.7431 C   0  0  0  0  0  0
  -27.5588  -37.1739   24.8478 C   0  0  0  0  0  0
  -21.4249  -29.3037   22.3630 N   0  0  0  0  0  0
  -26.4292  -37.3757   23.9438 N   0  0  0  0  0  0
  -24.7290  -31.0134   22.0914 N   0  0  0  0  0  0
  -23.4162  -28.8031   23.3056 O   0  0  0  0  0  0
  -28.2790  -26.0712   20.2235 O   0  0  0  0  0  0
  -26.5730  -34.8907   22.4689 O   0  0  0  0  0  0
  -23.5571  -32.1306   23.6969 O   0  0  0  0  0  0
  -28.3228  -20.5387   23.5585 C   0  0  0  0  0  0
  -28.5352  -21.1903   22.3431 C   0  0  0  0  0  0
  -28.5799  -19.1812   23.6503 C   0  0  0  0  0  0
  -29.2852  -19.0356   21.2496 C   0  0  0  0  0  0
  -28.9950  -20.5653   21.1480 C   0  0  0  0  0  0
  -29.0608  -18.4691   22.5488 C   0  0  0  0  0  0
  -29.8593  -17.8089   20.2571 C   0  0  0  0  0  0
  -28.0286  -24.5121   20.0660 C   0  0  0  0  0  0
  -29.1163  -23.1936   20.3021 C   0  0  0  0  0  0
  -29.7181  -16.2131   20.5114 N   0  0  0  0  0  0
  -29.0022  -21.6065   20.1013 O   0  0  0  0  0  0
  -29.3072  -17.1667   22.8102 F   0  0  0  0  0  0
  -31.4769  -12.8022   19.1926 H   0  0  0  0  0  0
  -30.4419  -11.6966   20.0549 H   0  0  0  0  0  0
  -29.8627  -11.7397   17.6056 H   0  0  0  0  0  0
  -29.5852  -13.4658   17.6890 H   0  0  0  0  0  0
  -27.9947  -11.2593   19.0270 H   0  0  0  0  0  0
  -27.4001  -12.3830   17.8401 H   0  0  0  0  0  0
  -27.5835  -14.2379   19.3799 H   0  0  0  0  0  0
  -28.7838  -12.3771   21.4934 H   0  0  0  0  0  0
  -28.3560  -14.0514   21.7326 H   0  0  0  0  0  0
  -25.2812   -9.5680   22.4798 H   0  0  0  0  0  0
  -24.0028   -7.4663   22.7496 H   0  0  0  0  0  0
  -21.0880   -8.8863   19.8993 H   0  0  0  0  0  0
  -22.3787  -10.9728   19.6211 H   0  0  0  0  0  0
  -21.2015   -7.6177   23.9759 H   0  0  0  0  0  0
  -21.1436   -6.0528   25.9088 H   0  0  0  0  0  0
  -22.0610   -2.7649   23.2870 H   0  0  0  0  0  0
  -22.4131  -11.9941   22.4801 H   0  0  0  0  0  0
  -21.1163  -13.1336   22.2537 H   0  0  0  0  0  0
  -24.6346  -15.8349   20.4513 H   0  0  0  0  0  0
  -26.2638  -15.6395   20.0621 H   0  0  0  0  0  0
  -26.7233  -32.5259   23.0956 H   0  0  0  0  0  0
  -24.9925  -33.9564   25.0212 H   0  0  0  0  0  0
  -22.7645  -31.2787   21.3591 H   0  0  0  0  0  0
  -23.3821  -35.9480   23.3321 H   0  0  0  0  0  0
  -24.3579  -36.8863   22.2080 H   0  0  0  0  0  0
  -23.7160  -37.6383   23.6689 H   0  0  0  0  0  0
  -26.1850  -31.4447   20.6222 H   0  0  0  0  0  0
  -26.8858  -30.7410   22.0430 H   0  0  0  0  0  0
  -28.1483  -28.7472   21.2461 H   0  0  0  0  0  0
  -25.9078  -25.7939   19.0472 H   0  0  0  0  0  0
  -23.9801  -27.2606   19.0302 H   0  0  0  0  0  0
  -23.8449  -30.5448   19.4024 H   0  0  0  0  0  0
  -22.8089  -29.2217   19.8345 H   0  0  0  0  0  0
  -25.1291  -36.1904   25.0848 H   0  0  0  0  0  0
  -20.9900  -28.3280   24.1401 H   0  0  0  0  0  0
  -20.5647  -26.2285   23.3612 H   0  0  0  0  0  0
  -21.6626  -26.7414   22.1226 H   0  0  0  0  0  0
  -19.6967  -25.6266   21.1274 H   0  0  0  0  0  0
  -19.6783  -27.3144   20.6724 H   0  0  0  0  0  0
  -17.4193  -26.6633   21.4018 H   0  0  0  0  0  0
  -18.0347  -26.0097   22.9020 H   0  0  0  0  0  0
  -19.7954  -30.7268   24.2227 H   0  0  0  0  0  0
  -17.5045  -31.6291   24.5130 H   0  0  0  0  0  0
  -15.5362  -30.3021   23.7728 H   0  0  0  0  0  0
  -15.8617  -28.0866   22.7111 H   0  0  0  0  0  0
  -24.5879  -30.7022   25.7552 H   0  0  0  0  0  0
  -24.8770  -32.2834   26.4704 H   0  0  0  0  0  0
  -25.7858  -30.8827   27.0158 H   0  0  0  0  0  0
  -26.3082  -29.6611   24.1337 H   0  0  0  0  0  0
  -27.4111  -29.7298   25.4885 H   0  0  0  0  0  0
  -27.8942  -30.4241   23.9630 H   0  0  0  0  0  0
  -27.2792  -33.3669   26.1893 H   0  0  0  0  0  0
  -28.3906  -32.6702   25.0200 H   0  0  0  0  0  0
  -28.0763  -31.8472   26.5390 H   0  0  0  0  0  0
  -28.2568  -38.0071   24.7572 H   0  0  0  0  0  0
  -28.1123  -36.2599   24.6245 H   0  0  0  0  0  0
  -27.2305  -37.1309   25.8881 H   0  0  0  0  0  0
  -20.9457  -29.8776   21.6837 H   0  0  0  0  0  0
  -26.0201  -38.2839   24.1474 H   0  0  0  0  0  0
  -27.9495  -21.0818   24.4169 H   0  0  0  0  0  0
  -28.2683  -22.2344   22.3748 H   0  0  0  0  0  0
  -28.4066  -18.6637   24.5816 H   0  0  0  0  0  0
  -29.4549  -17.9956   19.2619 H   0  0  0  0  0  0
  -30.9309  -17.9824   20.1542 H   0  0  0  0  0  0
  -27.1504  -24.3008   20.6791 H   0  0  0  0  0  0
  -27.6722  -24.4053   19.0406 H   0  0  0  0  0  0
  -29.6284  -23.3721   21.2466 H   0  0  0  0  0  0
  -29.9017  -23.4271   19.5807 H   0  0  0  0  0  0
  -28.7978  -15.9738   20.8497 H   0  0  0  0  0  0
  1 25  1  0  0  0
  1 30  2  0  0  0
  1 80  1  0  0  0
  2  3  1  0  0  0
  2 25  1  0  0  0
  2 83  1  0  0  0
  2 84  1  0  0  0
  3  4  1  0  0  0
  3 85  1  0  0  0
  3 86  1  0  0  0
  4  5  1  0  0  0
  4 87  1  0  0  0
  4 88  1  0  0  0
  5  6  1  0  0  0
  5 26  1  0  0  0
  5 89  1  0  0  0
  6 25  1  0  0  0
  6 90  1  0  0  0
  6 91  1  0  0  0
  7  8  2  0  0  0
  7 26  1  0  0  0
  7 29  1  0  0  0
  8  9  1  0  0  0
  8 22  1  0  0  0
  9 10  1  0  0  0
  9 27  2  0  0  0
 10 11  2  0  0  0
 10 15  1  0  0  0
 11 12  1  0  0  0
 11 92  1  0  0  0
 12 13  2  0  0  0
 12 93  1  0  0  0
 13 14  1  0  0  0
 13 31  1  0  0  0
 14 15  2  0  0  0
 14 94  1  0  0  0
 15 95  1  0  0  0
 16 17  2  0  0  0
 16 21  1  0  0  0
 16 31  1  0  0  0
 17 18  1  0  0  0
 17 96  1  0  0  0
 18 19  2  0  0  0
 18 97  1  0  0  0
 19 20  1  0  0  0
 19 24  1  0  0  0
 20 21  2  0  0  0
 20 98  1  0  0  0
 21 23  1  0  0  0
 22 28  1  0  0  0
 22 32  2  0  0  0
 26 27  1  0  0  0
 28 99  1  0  0  0
 28100  1  0  0  0
 29101  1  0  0  0
 29102  1  0  0  0
 33 34  1  0  0  0
 33 66  1  0  0  0
 33 70  2  0  0  0
 34 36  1  0  0  0
 34 59  1  0  0  0
 34103  1  0  0  0
 35 44  2  0  0  0
 35 45  1  0  0  0
 35 68  1  0  0  0
 36 56  1  0  0  0
 36104  1  0  0  0
 37 39  1  0  0  0
 37 47  1  0  0  0
 37 66  1  0  0  0
 37105  1  0  0  0
 38 43  2  0  0  0
 38 46  1  0  0  0
 38 47  1  0  0  0
 39 64  1  0  0  0
 39 67  2  0  0  0
 40 52  1  0  0  0
 40 53  2  0  0  0
 40 58  1  0  0  0
 41106  1  0  0  0
 41107  1  0  0  0
 41108  1  0  0  0
 41 48  1  0  0  0
 42 43  1  0  0  0
 42 66  1  0  0  0
 42109  1  0  0  0
 42110  1  0  0  0
 43 44  1  0  0  0
 44111  1  0  0  0
 45 46  2  0  0  0
 45112  1  0  0  0
 46113  1  0  0  0
 47114  1  0  0  0
 47115  1  0  0  0
 48 56  1  0  0  0
 48 65  1  0  0  0
 48116  1  0  0  0
 49 50  1  0  0  0
 49 53  1  0  0  0
 49 64  1  0  0  0
 49117  1  0  0  0
 50 51  1  0  0  0
 50118  1  0  0  0
 50119  1  0  0  0
 51 52  1  0  0  0
 51120  1  0  0  0
 51121  1  0  0  0
 52122  1  0  0  0
 52123  1  0  0  0
 53 54  1  0  0  0
 54 55  2  0  0  0
 54124  1  0  0  0
 55 57  1  0  0  0
 55125  1  0  0  0
 56 69  2  0  0  0
 57 58  2  0  0  0
 57126  1  0  0  0
 58127  1  0  0  0
 59 60  1  0  0  0
 59 61  1  0  0  0
 59 62  1  0  0  0
 60128  1  0  0  0
 60129  1  0  0  0
 60130  1  0  0  0
 61131  1  0  0  0
 61132  1  0  0  0
 61133  1  0  0  0
 62134  1  0  0  0
 62135  1  0  0  0
 62136  1  0  0  0
 63 65  1  0  0  0
 63137  1  0  0  0
 63138  1  0  0  0
 63139  1  0  0  0
 64140  1  0  0  0
 65141  1  0  0  0
 68 78  1  0  0  0
 71 72  2  0  0  0
 71 73  1  0  0  0
 71142  1  0  0  0
 72 75  1  0  0  0
 72143  1  0  0  0
 73 76  2  0  0  0
 73144  1  0  0  0
 74 75  2  0  0  0
 74 76  1  0  0  0
 74 77  1  0  0  0
 75 81  1  0  0  0
 76 82  1  0  0  0
 77 80  1  0  0  0
 77145  1  0  0  0
 77146  1  0  0  0
 78 79  1  0  0  0
 78147  1  0  0  0
 78148  1  0  0  0
 79 81  1  0  0  0
 79149  1  0  0  0
 79150  1  0  0  0
 80151  1  0  0  0
M  ISO  4   1 100  68 101  78 101  80 100
M  END
> <chiral flag>
0

> <version>
0

> <s_m_source_file>
/data/baiqing/PycharmProjects/Reinvent-master-3.2/result/LINK_invent/BTK/process_docking_weight1_custom_sum_contain_oxygen_bond_distance_aromatic_linkinvent_7_9_3/rearranged_h_0002.sdf

> <i_m_source_file_index>
35

> <r_mmod_Potential_Energy-OPLS-2005>
799.4208984375

> <r_mmod_Stretch_Energy-OPLS-2005>
386.780090332031

> <r_mmod_Bend_Energy-OPLS-2005>
379.029449462891

> <r_mmod_Torsional_Energy-OPLS-2005>
205.640258789062

> <r_mmod_Improper_Torsional_Energy-OPLS-2005>
5.0266056060791

> <r_mmod_Van_der_Waal_Energy-OPLS-2005>
149.161254882812

> <r_mmod_Electrostatic_Energy-OPLS-2005>
-363.608245849609

> <r_mmod_Solvation_Energy-OPLS-2005>
-213.069778442383

> <b_mmod_Minimization_Converged-OPLS-2005>
0

> <r_mmod_RMS_Derivative-OPLS-2005>
4.85352993011475

$$$$
35
                    3D
 Structure written by MMmdl.
156163  0  0  1  0            999 V2000
  -30.6898  -14.4363   20.5605 C   0  0  0  0  0  0
  -30.4299  -12.2787   19.4187 C   0  0  0  0  0  0
  -29.4984  -12.4853   18.2067 C   0  0  0  0  0  0
  -28.0186  -12.3482   18.6192 C   0  0  0  0  0  0
  -27.6649  -13.1933   19.8730 C   0  0  2  0  0  0
  -28.7067  -12.9504   20.9920 C   0  0  0  0  0  0
  -25.2611  -13.8146   20.5647 C   0  0  0  0  0  0
  -24.1851  -13.0434   20.9164 C   0  0  0  0  0  0
  -24.6385  -11.6891   20.8728 C   0  0  0  0  0  0
  -23.9051  -10.4281   21.0398 C   0  0  0  0  0  0
  -24.3612   -9.4194   21.9168 C   0  0  0  0  0  0
  -23.6282   -8.2236   22.0745 C   0  0  0  0  0  0
  -22.4262   -8.0287   21.3543 C   0  0  0  0  0  0
  -21.9901   -9.0256   20.4639 C   0  0  0  0  0  0
  -22.7233  -10.2128   20.3035 C   0  0  0  0  0  0
  -21.6841   -6.0731   22.5278 C   0  0  0  0  0  0
  -21.4010   -6.5632   23.8217 C   0  0  0  0  0  0
  -21.3661   -5.6783   24.9179 C   0  0  0  0  0  0
  -21.6043   -4.3046   24.7226 C   0  0  0  0  0  0
  -21.8820   -3.8139   23.4350 C   0  0  0  0  0  0
  -21.9195   -4.6958   22.3406 C   0  0  0  0  0  0
  -22.7869  -13.5236   21.1842 C   0  0  0  0  0  0
  -22.1654   -4.2148   21.0978 F   0  0  0  0  0  0
  -21.5642   -3.4525   25.7736 F   0  0  0  0  0  0
  -30.0409  -13.2518   20.4447 N   0  0  0  0  0  0
  -26.3023  -12.9278   20.3319 N   0  0  0  0  0  0
  -25.9296  -11.6456   20.5745 N   0  0  0  0  0  0
  -22.0507  -12.8232   22.0408 N   0  0  0  0  0  0
  -25.4352  -15.1864   20.4074 N   0  0  0  0  0  0
  -31.8145  -14.6469   20.0980 O   0  0  0  0  0  0
  -21.6628   -6.8882   21.4242 O   0  0  0  0  0  0
  -22.3552  -14.5544   20.6696 O   0  0  0  0  0  0
  -24.6116  -31.8712   23.2117 C   0  0  0  0  0  0
  -25.9037  -32.4831   23.8393 C   0  0  1  0  0  0
  -27.2333  -27.4704   20.0959 C   0  0  0  0  0  0
  -25.5900  -33.8615   24.2333 N   0  0  0  0  0  0
  -23.3949  -30.4976   21.5531 C   0  0  2  0  0  0
  -24.8393  -28.9675   20.1162 C   0  0  0  0  0  0
  -22.7367  -29.4681   22.5004 C   0  0  0  0  0  0
  -18.0265  -28.1431   22.8472 C   0  0  0  0  0  0
  -24.1485  -36.7348   23.2640 C   0  0  0  0  0  0
  -25.9198  -30.8528   21.3538 C   0  0  0  0  0  0
  -25.9987  -29.4871   20.7091 C   0  0  0  0  0  0
  -27.1984  -28.7453   20.6951 C   0  0  0  0  0  0
  -26.0581  -26.9598   19.4965 C   0  0  0  0  0  0
  -24.8641  -27.7018   19.5064 C   0  0  0  0  0  0
  -23.6008  -29.8339   20.1671 C   0  0  0  0  0  0
  -25.4105  -36.3127   24.0339 C   0  0  1  0  0  0
  -20.5844  -28.3664   23.1360 C   0  0  2  0  0  0
  -20.6725  -26.9406   22.5404 C   0  0  0  0  0  0
  -19.5760  -26.6441   21.5117 C   0  0  0  0  0  0
  -18.1889  -26.8056   22.1476 C   0  0  0  0  0  0
  -19.1517  -28.8876   23.2918 C   0  0  0  0  0  0
  -18.9476  -30.1469   23.8941 C   0  0  0  0  0  0
  -17.6499  -30.6629   24.0650 C   0  0  0  0  0  0
  -25.9045  -34.9481   23.5139 C   0  0  0  0  0  0
  -16.5374  -29.9150   23.6403 C   0  0  0  0  0  0
  -16.7255  -28.6583   23.0362 C   0  0  0  0  0  0
  -26.4475  -31.6597   25.0689 C   0  0  0  0  0  0
  -25.3762  -31.3682   26.1449 C   0  0  0  0  0  0
  -27.0283  -30.3051   24.5997 C   0  0  0  0  0  0
  -27.6057  -32.4306   25.7463 C   0  0  0  0  0  0
  -27.5573  -37.1835   24.8469 C   0  0  0  0  0  0
  -21.4098  -29.3077   22.3820 N   0  0  0  0  0  0
  -26.4289  -37.3810   23.9402 N   0  0  0  0  0  0
  -24.6607  -31.0864   22.0996 N   0  0  0  0  0  0
  -23.4178  -28.8147   23.2957 O   0  0  0  0  0  0
  -28.4118  -26.7606   20.1049 O   0  0  0  0  0  0
  -26.5609  -34.8947   22.4699 O   0  0  0  0  0  0
  -23.5331  -32.1421   23.7578 O   0  0  0  0  0  0
  -27.7752  -21.1596   19.7178 C   0  0  0  0  0  0
  -28.1254  -19.7525   19.2300 C   0  0  0  0  0  0
  -29.2685  -19.0758   20.0189 C   0  0  0  0  0  0
  -29.0385  -17.5668   20.2032 C   0  0  0  0  0  0
  -28.3519  -24.5072   19.1244 C   0  0  0  0  0  0
  -30.2041  -16.8625   20.9239 C   0  0  0  0  0  0
  -27.2068  -23.4763   19.0241 C   0  0  0  0  0  0
  -28.3028  -25.3690   20.4009 C   0  0  0  0  0  0
  -27.6902  -22.1194   18.7901 N   0  0  0  0  0  0
  -29.9367  -15.4317   21.0530 N   0  0  0  0  0  0
  -27.5490  -21.3674   20.9137 O   0  0  0  0  0  0
  -31.4737  -12.3802   19.1185 H   0  0  0  0  0  0
  -30.3378  -11.2651   19.8109 H   0  0  0  0  0  0
  -29.7359  -11.7605   17.4240 H   0  0  0  0  0  0
  -29.6692  -13.4717   17.7750 H   0  0  0  0  0  0
  -27.8321  -11.2925   18.8236 H   0  0  0  0  0  0
  -27.3675  -12.6143   17.7878 H   0  0  0  0  0  0
  -27.7170  -14.2409   19.5755 H   0  0  0  0  0  0
  -28.6759  -11.9077   21.3136 H   0  0  0  0  0  0
  -28.4730  -13.5332   21.8861 H   0  0  0  0  0  0
  -25.2765   -9.5666   22.4734 H   0  0  0  0  0  0
  -23.9999   -7.4619   22.7455 H   0  0  0  0  0  0
  -21.0835   -8.8762   19.8935 H   0  0  0  0  0  0
  -22.3696  -10.9661   19.6135 H   0  0  0  0  0  0
  -21.1984   -7.6131   23.9728 H   0  0  0  0  0  0
  -21.1488   -6.0500   25.9087 H   0  0  0  0  0  0
  -22.0605   -2.7598   23.2840 H   0  0  0  0  0  0
  -22.4116  -11.9883   22.4793 H   0  0  0  0  0  0
  -21.1131  -13.1262   22.2616 H   0  0  0  0  0  0
  -24.6676  -15.8426   20.5136 H   0  0  0  0  0  0
  -26.2902  -15.6264   20.0890 H   0  0  0  0  0  0
  -26.7099  -32.5579   23.1164 H   0  0  0  0  0  0
  -25.0000  -33.9754   25.0444 H   0  0  0  0  0  0
  -22.6810  -31.3111   21.4158 H   0  0  0  0  0  0
  -23.3733  -35.9703   23.3326 H   0  0  0  0  0  0
  -24.3586  -36.8937   22.2054 H   0  0  0  0  0  0
  -23.7272  -37.6572   23.6639 H   0  0  0  0  0  0
  -26.0136  -31.6174   20.5810 H   0  0  0  0  0  0
  -26.8216  -30.9225   21.9507 H   0  0  0  0  0  0
  -28.0932  -29.1441   21.1506 H   0  0  0  0  0  0
  -26.0533  -25.9934   19.0203 H   0  0  0  0  0  0
  -23.9746  -27.2969   19.0439 H   0  0  0  0  0  0
  -23.7063  -30.6109   19.4074 H   0  0  0  0  0  0
  -22.7240  -29.2535   19.8741 H   0  0  0  0  0  0
  -25.1274  -36.1975   25.0831 H   0  0  0  0  0  0
  -20.9937  -28.3173   24.1470 H   0  0  0  0  0  0
  -20.5460  -26.2321   23.3613 H   0  0  0  0  0  0
  -21.6652  -26.7375   22.1365 H   0  0  0  0  0  0
  -19.6892  -25.6363   21.1101 H   0  0  0  0  0  0
  -19.6789  -27.3326   20.6703 H   0  0  0  0  0  0
  -17.4203  -26.6965   21.3815 H   0  0  0  0  0  0
  -18.0212  -26.0128   22.8778 H   0  0  0  0  0  0
  -19.7962  -30.7284   24.2306 H   0  0  0  0  0  0
  -17.5103  -31.6294   24.5287 H   0  0  0  0  0  0
  -15.5389  -30.3063   23.7836 H   0  0  0  0  0  0
  -15.8632  -28.0969   22.6998 H   0  0  0  0  0  0
  -24.5919  -30.7041   25.7783 H   0  0  0  0  0  0
  -24.8974  -32.2838   26.4931 H   0  0  0  0  0  0
  -25.8126  -30.8810   27.0182 H   0  0  0  0  0  0
  -26.2776  -29.6820   24.1111 H   0  0  0  0  0  0
  -27.4157  -29.7240   25.4382 H   0  0  0  0  0  0
  -27.8567  -30.4382   23.9036 H   0  0  0  0  0  0
  -27.2656  -33.3577   26.2103 H   0  0  0  0  0  0
  -28.3848  -32.6937   25.0289 H   0  0  0  0  0  0
  -28.0776  -31.8399   26.5332 H   0  0  0  0  0  0
  -28.2617  -38.0105   24.7473 H   0  0  0  0  0  0
  -28.1028  -36.2632   24.6326 H   0  0  0  0  0  0
  -27.2289  -37.1534   25.8874 H   0  0  0  0  0  0
  -20.9231  -29.8925   21.7184 H   0  0  0  0  0  0
  -26.0179  -38.2886   24.1387 H   0  0  0  0  0  0
  -28.3760  -19.7677   18.1676 H   0  0  0  0  0  0
  -27.2156  -19.1585   19.3200 H   0  0  0  0  0  0
  -29.4038  -19.5368   20.9981 H   0  0  0  0  0  0
  -30.2022  -19.2384   19.4786 H   0  0  0  0  0  0
  -28.8817  -17.1090   19.2231 H   0  0  0  0  0  0
  -28.1136  -17.4191   20.7645 H   0  0  0  0  0  0
  -28.3105  -25.1576   18.2497 H   0  0  0  0  0  0
  -29.3272  -24.0244   19.0613 H   0  0  0  0  0  0
  -30.3578  -17.2871   21.9178 H   0  0  0  0  0  0
  -31.1239  -17.0471   20.3670 H   0  0  0  0  0  0
  -26.5588  -23.7407   18.1883 H   0  0  0  0  0  0
  -26.5513  -23.5016   19.8959 H   0  0  0  0  0  0
  -29.1385  -25.0980   21.0473 H   0  0  0  0  0  0
  -27.4123  -25.1770   21.0033 H   0  0  0  0  0  0
  -27.8993  -21.8616   17.8350 H   0  0  0  0  0  0
  -29.0338  -15.1643   21.4154 H   0  0  0  0  0  0
  1 25  1  0  0  0
  1 30  2  0  0  0
  1 80  1  0  0  0
  2  3  1  0  0  0
  2 25  1  0  0  0
  2 82  1  0  0  0
  2 83  1  0  0  0
  3  4  1  0  0  0
  3 84  1  0  0  0
  3 85  1  0  0  0
  4  5  1  0  0  0
  4 86  1  0  0  0
  4 87  1  0  0  0
  5  6  1  0  0  0
  5 26  1  0  0  0
  5 88  1  0  0  0
  6 25  1  0  0  0
  6 89  1  0  0  0
  6 90  1  0  0  0
  7  8  2  0  0  0
  7 26  1  0  0  0
  7 29  1  0  0  0
  8  9  1  0  0  0
  8 22  1  0  0  0
  9 10  1  0  0  0
  9 27  2  0  0  0
 10 11  2  0  0  0
 10 15  1  0  0  0
 11 12  1  0  0  0
 11 91  1  0  0  0
 12 13  2  0  0  0
 12 92  1  0  0  0
 13 14  1  0  0  0
 13 31  1  0  0  0
 14 15  2  0  0  0
 14 93  1  0  0  0
 15 94  1  0  0  0
 16 17  2  0  0  0
 16 21  1  0  0  0
 16 31  1  0  0  0
 17 18  1  0  0  0
 17 95  1  0  0  0
 18 19  2  0  0  0
 18 96  1  0  0  0
 19 20  1  0  0  0
 19 24  1  0  0  0
 20 21  2  0  0  0
 20 97  1  0  0  0
 21 23  1  0  0  0
 22 28  1  0  0  0
 22 32  2  0  0  0
 26 27  1  0  0  0
 28 98  1  0  0  0
 28 99  1  0  0  0
 29100  1  0  0  0
 29101  1  0  0  0
 33 34  1  0  0  0
 33 66  1  0  0  0
 33 70  2  0  0  0
 34 36  1  0  0  0
 34 59  1  0  0  0
 34102  1  0  0  0
 35 44  2  0  0  0
 35 45  1  0  0  0
 35 68  1  0  0  0
 36 56  1  0  0  0
 36103  1  0  0  0
 37 39  1  0  0  0
 37 47  1  0  0  0
 37 66  1  0  0  0
 37104  1  0  0  0
 38 43  2  0  0  0
 38 46  1  0  0  0
 38 47  1  0  0  0
 39 64  1  0  0  0
 39 67  2  0  0  0
 40 52  1  0  0  0
 40 53  2  0  0  0
 40 58  1  0  0  0
 41105  1  0  0  0
 41106  1  0  0  0
 41107  1  0  0  0
 41 48  1  0  0  0
 42 43  1  0  0  0
 42 66  1  0  0  0
 42108  1  0  0  0
 42109  1  0  0  0
 43 44  1  0  0  0
 44110  1  0  0  0
 45 46  2  0  0  0
 45111  1  0  0  0
 46112  1  0  0  0
 47113  1  0  0  0
 47114  1  0  0  0
 48 56  1  0  0  0
 48 65  1  0  0  0
 48115  1  0  0  0
 49 50  1  0  0  0
 49 53  1  0  0  0
 49 64  1  0  0  0
 49116  1  0  0  0
 50 51  1  0  0  0
 50117  1  0  0  0
 50118  1  0  0  0
 51 52  1  0  0  0
 51119  1  0  0  0
 51120  1  0  0  0
 52121  1  0  0  0
 52122  1  0  0  0
 53 54  1  0  0  0
 54 55  2  0  0  0
 54123  1  0  0  0
 55 57  1  0  0  0
 55124  1  0  0  0
 56 69  2  0  0  0
 57 58  2  0  0  0
 57125  1  0  0  0
 58126  1  0  0  0
 59 60  1  0  0  0
 59 61  1  0  0  0
 59 62  1  0  0  0
 60127  1  0  0  0
 60128  1  0  0  0
 60129  1  0  0  0
 61130  1  0  0  0
 61131  1  0  0  0
 61132  1  0  0  0
 62133  1  0  0  0
 62134  1  0  0  0
 62135  1  0  0  0
 63 65  1  0  0  0
 63136  1  0  0  0
 63137  1  0  0  0
 63138  1  0  0  0
 64139  1  0  0  0
 65140  1  0  0  0
 68 78  1  0  0  0
 71 72  1  0  0  0
 71 79  1  0  0  0
 71 81  2  0  0  0
 72 73  1  0  0  0
 72141  1  0  0  0
 72142  1  0  0  0
 73 74  1  0  0  0
 73143  1  0  0  0
 73144  1  0  0  0
 74 76  1  0  0  0
 74145  1  0  0  0
 74146  1  0  0  0
 75 77  1  0  0  0
 75 78  1  0  0  0
 75147  1  0  0  0
 75148  1  0  0  0
 76 80  1  0  0  0
 76149  1  0  0  0
 76150  1  0  0  0
 77 79  1  0  0  0
 77151  1  0  0  0
 77152  1  0  0  0
 78153  1  0  0  0
 78154  1  0  0  0
 79155  1  0  0  0
 80156  1  0  0  0
M  ISO  4   1 100  68 101  78 101  80 100
M  END
> <chiral flag>
0

> <version>
0

> <s_m_source_file>
/data/baiqing/PycharmProjects/Reinvent-master-3.2/result/LINK_invent/BTK/process_docking_weight1_custom_sum_contain_oxygen_bond_distance_aromatic_linkinvent_7_9_3/rearranged_h_0002.sdf

> <i_m_source_file_index>
36

> <r_mmod_Potential_Energy-OPLS-2005>
-141.026870727539

> <r_mmod_Stretch_Energy-OPLS-2005>
30.241231918335

> <r_mmod_Bend_Energy-OPLS-2005>
88.5860900878906

> <r_mmod_Torsional_Energy-OPLS-2005>
232.561981201172

> <r_mmod_Improper_Torsional_Energy-OPLS-2005>
4.64617824554443

> <r_mmod_Van_der_Waal_Energy-OPLS-2005>
140.013381958008

> <r_mmod_Electrostatic_Energy-OPLS-2005>
-410.406066894531

> <r_mmod_Solvation_Energy-OPLS-2005>
-237.227966308594

> <b_mmod_Minimization_Converged-OPLS-2005>
0

> <r_mmod_RMS_Derivative-OPLS-2005>
4.27421426773071

$$$$
36
                    3D
 Structure written by MMmdl.
151159  0  0  1  0            999 V2000
  -30.6224  -14.7233   20.4518 C   0  0  0  0  0  0
  -30.4290  -12.4358   19.4838 C   0  0  0  0  0  0
  -29.5126  -12.5074   18.2423 C   0  0  0  0  0  0
  -28.0370  -12.3373   18.6506 C   0  0  0  0  0  0
  -27.6451  -13.2333   19.8561 C   0  0  2  0  0  0
  -28.6868  -13.1584   20.9949 C   0  0  0  0  0  0
  -25.2517  -13.8205   20.5699 C   0  0  0  0  0  0
  -24.1806  -13.0448   20.9202 C   0  0  0  0  0  0
  -24.6398  -11.6925   20.8745 C   0  0  0  0  0  0
  -23.9074  -10.4299   21.0406 C   0  0  0  0  0  0
  -24.3625   -9.4212   21.9182 C   0  0  0  0  0  0
  -23.6300   -8.2247   22.0753 C   0  0  0  0  0  0
  -22.4280   -8.0285   21.3545 C   0  0  0  0  0  0
  -21.9916   -9.0260   20.4647 C   0  0  0  0  0  0
  -22.7246  -10.2138   20.3055 C   0  0  0  0  0  0
  -21.6854   -6.0739   22.5279 C   0  0  0  0  0  0
  -21.4016   -6.5643   23.8213 C   0  0  0  0  0  0
  -21.3660   -5.6794   24.9175 C   0  0  0  0  0  0
  -21.6043   -4.3056   24.7225 C   0  0  0  0  0  0
  -21.8819   -3.8150   23.4345 C   0  0  0  0  0  0
  -21.9193   -4.6967   22.3402 C   0  0  0  0  0  0
  -22.7825  -13.5227   21.1862 C   0  0  0  0  0  0
  -22.1661   -4.2153   21.0979 F   0  0  0  0  0  0
  -21.5628   -3.4540   25.7737 F   0  0  0  0  0  0
  -29.9953  -13.4978   20.4221 N   0  0  0  0  0  0
  -26.2951  -12.9417   20.3300 N   0  0  0  0  0  0
  -25.9331  -11.6556   20.5758 N   0  0  0  0  0  0
  -22.0473  -12.8216   22.0421 N   0  0  0  0  0  0
  -25.4212  -15.1930   20.4123 N   0  0  0  0  0  0
  -31.8047  -14.8083   20.1066 O   0  0  0  0  0  0
  -21.6643   -6.8883   21.4241 O   0  0  0  0  0  0
  -22.3507  -14.5530   20.6706 O   0  0  0  0  0  0
  -24.6308  -31.8559   23.2000 C   0  0  0  0  0  0
  -25.9137  -32.4758   23.8340 C   0  0  1  0  0  0
  -27.2160  -27.2631   20.1265 C   0  0  0  0  0  0
  -25.5935  -33.8560   24.2261 N   0  0  0  0  0  0
  -23.4272  -30.4799   21.5431 C   0  0  2  0  0  0
  -24.8741  -28.9316   20.1071 C   0  0  0  0  0  0
  -22.7502  -29.4604   22.4911 C   0  0  0  0  0  0
  -18.0293  -28.1387   22.8482 C   0  0  0  0  0  0
  -24.1490  -36.7285   23.2639 C   0  0  0  0  0  0
  -25.9735  -30.7680   21.3821 C   0  0  0  0  0  0
  -26.0445  -29.3916   20.7231 C   0  0  0  0  0  0
  -27.2160  -28.5681   20.7264 C   0  0  0  0  0  0
  -26.0281  -26.8855   19.4577 C   0  0  0  0  0  0
  -24.8714  -27.6867   19.4631 C   0  0  0  0  0  0
  -23.6450  -29.8176   20.1576 C   0  0  0  0  0  0
  -25.4117  -36.3071   24.0326 C   0  0  1  0  0  0
  -20.5896  -28.3699   23.1268 C   0  0  2  0  0  0
  -20.6781  -26.9417   22.5408 C   0  0  0  0  0  0
  -19.5756  -26.6383   21.5213 C   0  0  0  0  0  0
  -18.1936  -26.7929   22.1624 C   0  0  0  0  0  0
  -19.1546  -28.8860   23.2870 C   0  0  0  0  0  0
  -18.9466  -30.1461   23.8889 C   0  0  0  0  0  0
  -17.6465  -30.6588   24.0562 C   0  0  0  0  0  0
  -25.9057  -34.9440   23.5096 C   0  0  0  0  0  0
  -16.5357  -29.9085   23.6331 C   0  0  0  0  0  0
  -16.7279  -28.6503   23.0351 C   0  0  0  0  0  0
  -26.4504  -31.6582   25.0729 C   0  0  0  0  0  0
  -25.3723  -31.3732   26.1446 C   0  0  0  0  0  0
  -27.0358  -30.2999   24.6222 C   0  0  0  0  0  0
  -27.6057  -32.4324   25.7501 C   0  0  0  0  0  0
  -27.5579  -37.1799   24.8465 C   0  0  0  0  0  0
  -21.4210  -29.3044   22.3655 N   0  0  0  0  0  0
  -26.4292  -37.3769   23.9406 N   0  0  0  0  0  0
  -24.6961  -31.0526   22.0979 N   0  0  0  0  0  0
  -23.4203  -28.8140   23.3006 O   0  0  0  0  0  0
  -28.3041  -26.3605   20.2156 O   0  0  0  0  0  0
  -26.5629  -34.8914   22.4664 O   0  0  0  0  0  0
  -23.5458  -32.1382   23.7294 O   0  0  0  0  0  0
  -30.8089  -18.7098   18.3596 C   0  0  0  0  0  0
  -30.3002  -19.8644   18.9868 C   0  0  0  0  0  0
  -30.6802  -17.4335   18.9453 C   0  0  0  0  0  0
  -29.5047  -18.4558   20.8087 C   0  0  0  0  0  0
  -29.6349  -19.7862   20.2251 C   0  0  0  0  0  0
  -30.0318  -17.2460   20.1896 C   0  0  0  0  0  0
  -29.1923  -21.1526   20.9076 C   0  0  0  0  0  0
  -28.0958  -24.8958   19.9268 C   0  0  0  0  0  0
  -28.9466  -23.7130   20.6290 C   0  0  0  0  0  0
  -29.8733  -15.8631   20.7162 N   0  0  0  0  0  0
  -28.8927  -22.3357   20.0531 O   0  0  0  0  0  0
  -31.4734  -12.5436   19.1862 H   0  0  0  0  0  0
  -30.3576  -11.4570   19.9608 H   0  0  0  0  0  0
  -29.7923  -11.7386   17.5209 H   0  0  0  0  0  0
  -29.6476  -13.4653   17.7372 H   0  0  0  0  0  0
  -27.8877  -11.2880   18.9076 H   0  0  0  0  0  0
  -27.3828  -12.5377   17.8013 H   0  0  0  0  0  0
  -27.6441  -14.2574   19.4819 H   0  0  0  0  0  0
  -28.7114  -12.1600   21.4340 H   0  0  0  0  0  0
  -28.4242  -13.8406   21.8048 H   0  0  0  0  0  0
  -25.2770   -9.5689   22.4757 H   0  0  0  0  0  0
  -24.0010   -7.4638   22.7470 H   0  0  0  0  0  0
  -21.0847   -8.8779   19.8953 H   0  0  0  0  0  0
  -22.3703  -10.9679   19.6165 H   0  0  0  0  0  0
  -21.2011   -7.6151   23.9718 H   0  0  0  0  0  0
  -21.1481   -6.0524   25.9078 H   0  0  0  0  0  0
  -22.0597   -2.7612   23.2843 H   0  0  0  0  0  0
  -22.4097  -11.9886   22.4818 H   0  0  0  0  0  0
  -21.1088  -13.1235   22.2622 H   0  0  0  0  0  0
  -24.6538  -15.8472   20.5218 H   0  0  0  0  0  0
  -26.2702  -15.6326   20.0798 H   0  0  0  0  0  0
  -26.7201  -32.5407   23.1079 H   0  0  0  0  0  0
  -25.0079  -33.9699   25.0405 H   0  0  0  0  0  0
  -22.7232  -31.3022   21.3992 H   0  0  0  0  0  0
  -23.3752  -35.9618   23.3301 H   0  0  0  0  0  0
  -24.3581  -36.8909   22.2054 H   0  0  0  0  0  0
  -23.7244  -37.6485   23.6666 H   0  0  0  0  0  0
  -26.1143  -31.5289   20.6130 H   0  0  0  0  0  0
  -26.8506  -30.8152   22.0159 H   0  0  0  0  0  0
  -28.1075  -28.9107   21.2327 H   0  0  0  0  0  0
  -25.9558  -25.9476   18.9285 H   0  0  0  0  0  0
  -23.9795  -27.3348   18.9629 H   0  0  0  0  0  0
  -23.7694  -30.5957   19.4037 H   0  0  0  0  0  0
  -22.7633  -29.2516   19.8517 H   0  0  0  0  0  0
  -25.1299  -36.1920   25.0819 H   0  0  0  0  0  0
  -20.9989  -28.3281   24.1389 H   0  0  0  0  0  0
  -20.5684  -26.2311   23.3614 H   0  0  0  0  0  0
  -21.6649  -26.7443   22.1200 H   0  0  0  0  0  0
  -19.6918  -25.6292   21.1247 H   0  0  0  0  0  0
  -19.6691  -27.3190   20.6739 H   0  0  0  0  0  0
  -17.4206  -26.6674   21.4027 H   0  0  0  0  0  0
  -18.0337  -26.0075   22.9024 H   0  0  0  0  0  0
  -19.7942  -30.7280   24.2254 H   0  0  0  0  0  0
  -17.5019  -31.6266   24.5167 H   0  0  0  0  0  0
  -15.5356  -30.2984   23.7659 H   0  0  0  0  0  0
  -15.8680  -28.0821   22.7067 H   0  0  0  0  0  0
  -24.5904  -30.7077   25.7772 H   0  0  0  0  0  0
  -24.8907  -32.2901   26.4854 H   0  0  0  0  0  0
  -25.8034  -30.8921   27.0234 H   0  0  0  0  0  0
  -26.2949  -29.6738   24.1237 H   0  0  0  0  0  0
  -27.4029  -29.7269   25.4747 H   0  0  0  0  0  0
  -27.8830  -30.4274   23.9480 H   0  0  0  0  0  0
  -27.2667  -33.3631   26.2064 H   0  0  0  0  0  0
  -28.3874  -32.6873   25.0333 H   0  0  0  0  0  0
  -28.0719  -31.8459   26.5429 H   0  0  0  0  0  0
  -28.2596  -38.0096   24.7508 H   0  0  0  0  0  0
  -28.1073  -36.2626   24.6297 H   0  0  0  0  0  0
  -27.2295  -37.1455   25.8868 H   0  0  0  0  0  0
  -20.9397  -29.8770   21.6861 H   0  0  0  0  0  0
  -26.0170  -38.2844   24.1403 H   0  0  0  0  0  0
  -31.3135  -18.8049   17.4082 H   0  0  0  0  0  0
  -30.4377  -20.8278   18.5150 H   0  0  0  0  0  0
  -31.0817  -16.5905   18.4009 H   0  0  0  0  0  0
  -29.0028  -18.3695   21.7621 H   0  0  0  0  0  0
  -30.0008  -21.4297   21.5856 H   0  0  0  0  0  0
  -28.3241  -20.9608   21.5390 H   0  0  0  0  0  0
  -27.0639  -24.6284   20.1498 H   0  0  0  0  0  0
  -28.2073  -24.7858   18.8478 H   0  0  0  0  0  0
  -28.6383  -23.6582   21.6737 H   0  0  0  0  0  0
  -29.9972  -24.0040   20.6478 H   0  0  0  0  0  0
  -29.0031  -15.6846   21.1953 H   0  0  0  0  0  0
  1 25  1  0  0  0
  1 30  2  0  0  0
  1 80  1  0  0  0
  2  3  1  0  0  0
  2 25  1  0  0  0
  2 82  1  0  0  0
  2 83  1  0  0  0
  3  4  1  0  0  0
  3 84  1  0  0  0
  3 85  1  0  0  0
  4  5  1  0  0  0
  4 86  1  0  0  0
  4 87  1  0  0  0
  5  6  1  0  0  0
  5 26  1  0  0  0
  5 88  1  0  0  0
  6 25  1  0  0  0
  6 89  1  0  0  0
  6 90  1  0  0  0
  7  8  2  0  0  0
  7 26  1  0  0  0
  7 29  1  0  0  0
  8  9  1  0  0  0
  8 22  1  0  0  0
  9 10  1  0  0  0
  9 27  2  0  0  0
 10 11  2  0  0  0
 10 15  1  0  0  0
 11 12  1  0  0  0
 11 91  1  0  0  0
 12 13  2  0  0  0
 12 92  1  0  0  0
 13 14  1  0  0  0
 13 31  1  0  0  0
 14 15  2  0  0  0
 14 93  1  0  0  0
 15 94  1  0  0  0
 16 17  2  0  0  0
 16 21  1  0  0  0
 16 31  1  0  0  0
 17 18  1  0  0  0
 17 95  1  0  0  0
 18 19  2  0  0  0
 18 96  1  0  0  0
 19 20  1  0  0  0
 19 24  1  0  0  0
 20 21  2  0  0  0
 20 97  1  0  0  0
 21 23  1  0  0  0
 22 28  1  0  0  0
 22 32  2  0  0  0
 26 27  1  0  0  0
 28 98  1  0  0  0
 28 99  1  0  0  0
 29100  1  0  0  0
 29101  1  0  0  0
 33 34  1  0  0  0
 33 66  1  0  0  0
 33 70  2  0  0  0
 34 36  1  0  0  0
 34 59  1  0  0  0
 34102  1  0  0  0
 35 44  2  0  0  0
 35 45  1  0  0  0
 35 68  1  0  0  0
 36 56  1  0  0  0
 36103  1  0  0  0
 37 39  1  0  0  0
 37 47  1  0  0  0
 37 66  1  0  0  0
 37104  1  0  0  0
 38 43  2  0  0  0
 38 46  1  0  0  0
 38 47  1  0  0  0
 39 64  1  0  0  0
 39 67  2  0  0  0
 40 52  1  0  0  0
 40 53  2  0  0  0
 40 58  1  0  0  0
 41105  1  0  0  0
 41106  1  0  0  0
 41107  1  0  0  0
 41 48  1  0  0  0
 42 43  1  0  0  0
 42 66  1  0  0  0
 42108  1  0  0  0
 42109  1  0  0  0
 43 44  1  0  0  0
 44110  1  0  0  0
 45 46  2  0  0  0
 45111  1  0  0  0
 46112  1  0  0  0
 47113  1  0  0  0
 47114  1  0  0  0
 48 56  1  0  0  0
 48 65  1  0  0  0
 48115  1  0  0  0
 49 50  1  0  0  0
 49 53  1  0  0  0
 49 64  1  0  0  0
 49116  1  0  0  0
 50 51  1  0  0  0
 50117  1  0  0  0
 50118  1  0  0  0
 51 52  1  0  0  0
 51119  1  0  0  0
 51120  1  0  0  0
 52121  1  0  0  0
 52122  1  0  0  0
 53 54  1  0  0  0
 54 55  2  0  0  0
 54123  1  0  0  0
 55 57  1  0  0  0
 55124  1  0  0  0
 56 69  2  0  0  0
 57 58  2  0  0  0
 57125  1  0  0  0
 58126  1  0  0  0
 59 60  1  0  0  0
 59 61  1  0  0  0
 59 62  1  0  0  0
 60127  1  0  0  0
 60128  1  0  0  0
 60129  1  0  0  0
 61130  1  0  0  0
 61131  1  0  0  0
 61132  1  0  0  0
 62133  1  0  0  0
 62134  1  0  0  0
 62135  1  0  0  0
 63 65  1  0  0  0
 63136  1  0  0  0
 63137  1  0  0  0
 63138  1  0  0  0
 64139  1  0  0  0
 65140  1  0  0  0
 68 78  1  0  0  0
 71 72  2  0  0  0
 71 73  1  0  0  0
 71141  1  0  0  0
 72 75  1  0  0  0
 72142  1  0  0  0
 73 76  2  0  0  0
 73143  1  0  0  0
 74 75  2  0  0  0
 74 76  1  0  0  0
 74144  1  0  0  0
 75 77  1  0  0  0
 76 80  1  0  0  0
 77 81  1  0  0  0
 77145  1  0  0  0
 77146  1  0  0  0
 78 79  1  0  0  0
 78147  1  0  0  0
 78148  1  0  0  0
 79 81  1  0  0  0
 79149  1  0  0  0
 79150  1  0  0  0
 80151  1  0  0  0
M  ISO  4   1 100  68 101  78 101  80 100
M  END
> <chiral flag>
0

> <version>
0

> <s_m_source_file>
/data/baiqing/PycharmProjects/Reinvent-master-3.2/result/LINK_invent/BTK/process_docking_weight1_custom_sum_contain_oxygen_bond_distance_aromatic_linkinvent_7_9_3/rearranged_h_0002.sdf

> <i_m_source_file_index>
37

> <r_mmod_Potential_Energy-OPLS-2005>
180.189956665039

> <r_mmod_Stretch_Energy-OPLS-2005>
121.842063903809

> <r_mmod_Bend_Energy-OPLS-2005>
155.261901855469

> <r_mmod_Torsional_Energy-OPLS-2005>
235.331909179688

> <r_mmod_Improper_Torsional_Energy-OPLS-2005>
4.30407476425171

> <r_mmod_Van_der_Waal_Energy-OPLS-2005>
143.683441162109

> <r_mmod_Electrostatic_Energy-OPLS-2005>
-350.973907470703

> <r_mmod_Solvation_Energy-OPLS-2005>
-210.853988647461

> <b_mmod_Minimization_Converged-OPLS-2005>
0

> <r_mmod_RMS_Derivative-OPLS-2005>
0.272529244422913

$$$$
37
                    3D
 Structure written by MMmdl.
158166  0  0  1  0            999 V2000
  -30.5165  -14.9286   20.4306 C   0  0  0  0  0  0
  -30.4523  -12.5742   19.4939 C   0  0  0  0  0  0
  -29.5278  -12.5322   18.2538 C   0  0  0  0  0  0
  -28.0560  -12.3255   18.6644 C   0  0  0  0  0  0
  -27.6344  -13.2426   19.8422 C   0  0  2  0  0  0
  -28.6784  -13.2374   20.9798 C   0  0  0  0  0  0
  -25.2475  -13.8204   20.5688 C   0  0  0  0  0  0
  -24.1790  -13.0434   20.9218 C   0  0  0  0  0  0
  -24.6405  -11.6917   20.8749 C   0  0  0  0  0  0
  -23.9086  -10.4291   21.0408 C   0  0  0  0  0  0
  -24.3630   -9.4207   21.9188 C   0  0  0  0  0  0
  -23.6301   -8.2245   22.0755 C   0  0  0  0  0  0
  -22.4282   -8.0287   21.3548 C   0  0  0  0  0  0
  -21.9922   -9.0264   20.4651 C   0  0  0  0  0  0
  -22.7258  -10.2140   20.3062 C   0  0  0  0  0  0
  -21.6859   -6.0743   22.5283 C   0  0  0  0  0  0
  -21.4015   -6.5644   23.8217 C   0  0  0  0  0  0
  -21.3654   -5.6795   24.9177 C   0  0  0  0  0  0
  -21.6043   -4.3058   24.7225 C   0  0  0  0  0  0
  -21.8818   -3.8153   23.4343 C   0  0  0  0  0  0
  -21.9188   -4.6970   22.3401 C   0  0  0  0  0  0
  -22.7812  -13.5211   21.1871 C   0  0  0  0  0  0
  -22.1663   -4.2158   21.0976 F   0  0  0  0  0  0
  -21.5623   -3.4537   25.7734 F   0  0  0  0  0  0
  -29.9594  -13.6535   20.3920 N   0  0  0  0  0  0
  -26.2904  -12.9429   20.3233 N   0  0  0  0  0  0
  -25.9336  -11.6567   20.5724 N   0  0  0  0  0  0
  -22.0452  -12.8209   22.0427 N   0  0  0  0  0  0
  -25.4107  -15.1937   20.4097 N   0  0  0  0  0  0
  -31.7139  -15.0473   20.1502 O   0  0  0  0  0  0
  -21.6643   -6.8889   21.4247 O   0  0  0  0  0  0
  -22.3498  -14.5518   20.6712 O   0  0  0  0  0  0
  -24.6424  -31.8447   23.1876 C   0  0  0  0  0  0
  -25.9200  -32.4697   23.8271 C   0  0  1  0  0  0
  -27.2262  -27.1523   20.1642 C   0  0  0  0  0  0
  -25.5947  -33.8502   24.2192 N   0  0  0  0  0  0
  -23.4457  -30.4628   21.5322 C   0  0  2  0  0  0
  -24.8975  -28.8849   20.1155 C   0  0  0  0  0  0
  -22.7555  -29.4555   22.4855 C   0  0  0  0  0  0
  -18.0303  -28.1390   22.8481 C   0  0  0  0  0  0
  -24.1488  -36.7263   23.2643 C   0  0  0  0  0  0
  -25.9996  -30.7246   21.3831 C   0  0  0  0  0  0
  -26.0736  -29.3351   20.7297 C   0  0  0  0  0  0
  -27.2419  -28.4871   20.7314 C   0  0  0  0  0  0
  -26.0254  -26.7924   19.5186 C   0  0  0  0  0  0
  -24.8852  -27.6258   19.4939 C   0  0  0  0  0  0
  -23.6728  -29.7863   20.1537 C   0  0  0  0  0  0
  -25.4119  -36.3036   24.0318 C   0  0  1  0  0  0
  -20.5915  -28.3718   23.1235 C   0  0  2  0  0  0
  -20.6781  -26.9419   22.5403 C   0  0  0  0  0  0
  -19.5757  -26.6375   21.5211 C   0  0  0  0  0  0
  -18.1941  -26.7928   22.1626 C   0  0  0  0  0  0
  -19.1560  -28.8870   23.2851 C   0  0  0  0  0  0
  -18.9478  -30.1467   23.8873 C   0  0  0  0  0  0
  -17.6475  -30.6586   24.0561 C   0  0  0  0  0  0
  -25.9071  -34.9409   23.5066 C   0  0  0  0  0  0
  -16.5366  -29.9081   23.6335 C   0  0  0  0  0  0
  -16.7288  -28.6499   23.0355 C   0  0  0  0  0  0
  -26.4519  -31.6560   25.0712 C   0  0  0  0  0  0
  -25.3700  -31.3763   26.1408 C   0  0  0  0  0  0
  -27.0388  -30.2954   24.6296 C   0  0  0  0  0  0
  -27.6039  -32.4330   25.7507 C   0  0  0  0  0  0
  -27.5575  -37.1789   24.8463 C   0  0  0  0  0  0
  -21.4248  -29.3049   22.3604 N   0  0  0  0  0  0
  -26.4285  -37.3746   23.9408 N   0  0  0  0  0  0
  -24.7153  -31.0322   22.0893 N   0  0  0  0  0  0
  -23.4205  -28.8107   23.3006 O   0  0  0  0  0  0
  -28.2974  -26.1939   20.1732 O   0  0  0  0  0  0
  -26.5659  -34.8907   22.4646 O   0  0  0  0  0  0
  -23.5548  -32.1312   23.7108 O   0  0  0  0  0  0
  -30.2077  -18.4102   21.5028 C   0  0  0  0  0  0
  -30.0081  -19.8459   21.5866 C   0  0  0  0  0  0
  -28.7958  -19.8370   19.5778 C   0  0  0  0  0  0
  -28.9715  -18.3852   19.4798 C   0  0  0  0  0  0
  -29.6889  -17.5772   20.4595 C   0  0  0  0  0  0
  -29.2815  -20.6551   20.6478 C   0  0  0  0  0  0
  -28.2968  -17.7313   18.3066 C   0  0  0  0  0  0
  -28.7054  -23.2743   20.0217 C   0  0  0  0  0  0
  -28.0882  -24.7241   20.6314 C   0  0  0  0  0  0
  -28.5657  -16.1126   16.4403 C   0  0  0  0  0  0
  -29.6429  -16.0405   20.5515 N   0  0  0  0  0  0
  -29.0321  -16.8593   17.6080 N   0  0  0  0  0  0
  -28.2799  -16.8529   15.1979 N   0  3  0  0  0  0
  -27.1500  -18.0460   17.9786 O   0  0  0  0  0  0
  -29.0548  -22.0779   20.9216 O   0  0  0  0  0  0
  -31.4840  -12.7468   19.1838 H   0  0  0  0  0  0
  -30.4536  -11.6143   20.0126 H   0  0  0  0  0  0
  -29.8444  -11.7412   17.5727 H   0  0  0  0  0  0
  -29.6238  -13.4656   17.7000 H   0  0  0  0  0  0
  -27.9394  -11.2807   18.9539 H   0  0  0  0  0  0
  -27.3970  -12.4787   17.8087 H   0  0  0  0  0  0
  -27.6047  -14.2510   19.4298 H   0  0  0  0  0  0
  -28.7580  -12.2489   21.4348 H   0  0  0  0  0  0
  -28.3809  -13.9183   21.7791 H   0  0  0  0  0  0
  -25.2778   -9.5679   22.4760 H   0  0  0  0  0  0
  -24.0013   -7.4633   22.7472 H   0  0  0  0  0  0
  -21.0854   -8.8789   19.8956 H   0  0  0  0  0  0
  -22.3723  -10.9680   19.6168 H   0  0  0  0  0  0
  -21.2020   -7.6153   23.9725 H   0  0  0  0  0  0
  -21.1473   -6.0522   25.9079 H   0  0  0  0  0  0
  -22.0601   -2.7616   23.2837 H   0  0  0  0  0  0
  -22.4068  -11.9878   22.4835 H   0  0  0  0  0  0
  -21.1069  -13.1240   22.2616 H   0  0  0  0  0  0
  -24.6316  -15.8338   20.5194 H   0  0  0  0  0  0
  -26.2366  -15.6435   20.0410 H   0  0  0  0  0  0
  -26.7268  -32.5312   23.1005 H   0  0  0  0  0  0
  -25.0059  -33.9608   25.0316 H   0  0  0  0  0  0
  -22.7484  -31.2884   21.3759 H   0  0  0  0  0  0
  -23.3750  -35.9595   23.3293 H   0  0  0  0  0  0
  -24.3576  -36.8907   22.2061 H   0  0  0  0  0  0
  -23.7242  -37.6456   23.6685 H   0  0  0  0  0  0
  -26.1533  -31.4773   20.6088 H   0  0  0  0  0  0
  -26.8700  -30.7768   22.0253 H   0  0  0  0  0  0
  -28.1426  -28.8340   21.2177 H   0  0  0  0  0  0
  -25.9575  -25.8265   19.0384 H   0  0  0  0  0  0
  -23.9882  -27.2756   19.0019 H   0  0  0  0  0  0
  -23.8088  -30.5581   19.3953 H   0  0  0  0  0  0
  -22.7879  -29.2268   19.8454 H   0  0  0  0  0  0
  -25.1305  -36.1866   25.0809 H   0  0  0  0  0  0
  -21.0017  -28.3310   24.1355 H   0  0  0  0  0  0
  -20.5668  -26.2334   23.3623 H   0  0  0  0  0  0
  -21.6648  -26.7415   22.1213 H   0  0  0  0  0  0
  -19.6918  -25.6281   21.1253 H   0  0  0  0  0  0
  -19.6694  -27.3172   20.6732 H   0  0  0  0  0  0
  -17.4209  -26.6674   21.4029 H   0  0  0  0  0  0
  -18.0343  -26.0069   22.9023 H   0  0  0  0  0  0
  -19.7953  -30.7288   24.2229 H   0  0  0  0  0  0
  -17.5027  -31.6265   24.5167 H   0  0  0  0  0  0
  -15.5364  -30.2978   23.7659 H   0  0  0  0  0  0
  -15.8689  -28.0809   22.7078 H   0  0  0  0  0  0
  -24.5864  -30.7130   25.7729 H   0  0  0  0  0  0
  -24.8909  -32.2957   26.4783 H   0  0  0  0  0  0
  -25.7972  -30.8961   27.0219 H   0  0  0  0  0  0
  -26.3014  -29.6673   24.1284 H   0  0  0  0  0  0
  -27.3977  -29.7257   25.4879 H   0  0  0  0  0  0
  -27.8927  -30.4186   23.9631 H   0  0  0  0  0  0
  -27.2613  -33.3637   26.2043 H   0  0  0  0  0  0
  -28.3876  -32.6884   25.0362 H   0  0  0  0  0  0
  -28.0679  -31.8489   26.5465 H   0  0  0  0  0  0
  -28.2583  -38.0093   24.7505 H   0  0  0  0  0  0
  -28.1077  -36.2622   24.6288 H   0  0  0  0  0  0
  -27.2296  -37.1438   25.8867 H   0  0  0  0  0  0
  -20.9449  -29.8775   21.6798 H   0  0  0  0  0  0
  -26.0154  -38.2817   24.1398 H   0  0  0  0  0  0
  -30.7309  -17.9329   22.3193 H   0  0  0  0  0  0
  -30.4169  -20.3461   22.4532 H   0  0  0  0  0  0
  -28.2130  -20.3288   18.8109 H   0  0  0  0  0  0
  -29.6347  -23.5197   19.5076 H   0  0  0  0  0  0
  -28.0337  -22.9223   19.2386 H   0  0  0  0  0  0
  -28.4621  -24.7574   21.6546 H   0  0  0  0  0  0
  -27.0182  -24.5663   20.7652 H   0  0  0  0  0  0
  -27.6687  -15.5558   16.7201 H   0  0  0  0  0  0
  -29.3195  -15.3593   16.2091 H   0  0  0  0  0  0
  -28.7050  -15.7003   20.6980 H   0  0  0  0  0  0
  -29.9752  -16.6866   17.9268 H   0  0  0  0  0  0
  -27.5465  -17.5245   15.3405 H   0  0  0  0  0  0
  -27.9772  -16.2127   14.4851 H   0  0  0  0  0  0
  -29.0990  -17.3255   14.8608 H   0  0  0  0  0  0
  1 25  1  0  0  0
  1 30  2  0  0  0
  1 81  1  0  0  0
  2  3  1  0  0  0
  2 25  1  0  0  0
  2 86  1  0  0  0
  2 87  1  0  0  0
  3  4  1  0  0  0
  3 88  1  0  0  0
  3 89  1  0  0  0
  4  5  1  0  0  0
  4 90  1  0  0  0
  4 91  1  0  0  0
  5  6  1  0  0  0
  5 26  1  0  0  0
  5 92  1  0  0  0
  6 25  1  0  0  0
  6 93  1  0  0  0
  6 94  1  0  0  0
  7  8  2  0  0  0
  7 26  1  0  0  0
  7 29  1  0  0  0
  8  9  1  0  0  0
  8 22  1  0  0  0
  9 10  1  0  0  0
  9 27  2  0  0  0
 10 11  2  0  0  0
 10 15  1  0  0  0
 11 12  1  0  0  0
 11 95  1  0  0  0
 12 13  2  0  0  0
 12 96  1  0  0  0
 13 14  1  0  0  0
 13 31  1  0  0  0
 14 15  2  0  0  0
 14 97  1  0  0  0
 15 98  1  0  0  0
 16 17  2  0  0  0
 16 21  1  0  0  0
 16 31  1  0  0  0
 17 18  1  0  0  0
 17 99  1  0  0  0
 18 19  2  0  0  0
 18100  1  0  0  0
 19 20  1  0  0  0
 19 24  1  0  0  0
 20 21  2  0  0  0
 20101  1  0  0  0
 21 23  1  0  0  0
 22 28  1  0  0  0
 22 32  2  0  0  0
 26 27  1  0  0  0
 28102  1  0  0  0
 28103  1  0  0  0
 29104  1  0  0  0
 29105  1  0  0  0
 33 34  1  0  0  0
 33 66  1  0  0  0
 33 70  2  0  0  0
 34 36  1  0  0  0
 34 59  1  0  0  0
 34106  1  0  0  0
 35 44  2  0  0  0
 35 45  1  0  0  0
 35 68  1  0  0  0
 36 56  1  0  0  0
 36107  1  0  0  0
 37 39  1  0  0  0
 37 47  1  0  0  0
 37 66  1  0  0  0
 37108  1  0  0  0
 38 43  2  0  0  0
 38 46  1  0  0  0
 38 47  1  0  0  0
 39 64  1  0  0  0
 39 67  2  0  0  0
 40 52  1  0  0  0
 40 53  2  0  0  0
 40 58  1  0  0  0
 41109  1  0  0  0
 41110  1  0  0  0
 41111  1  0  0  0
 41 48  1  0  0  0
 42 43  1  0  0  0
 42 66  1  0  0  0
 42112  1  0  0  0
 42113  1  0  0  0
 43 44  1  0  0  0
 44114  1  0  0  0
 45 46  2  0  0  0
 45115  1  0  0  0
 46116  1  0  0  0
 47117  1  0  0  0
 47118  1  0  0  0
 48 56  1  0  0  0
 48 65  1  0  0  0
 48119  1  0  0  0
 49 50  1  0  0  0
 49 53  1  0  0  0
 49 64  1  0  0  0
 49120  1  0  0  0
 50 51  1  0  0  0
 50121  1  0  0  0
 50122  1  0  0  0
 51 52  1  0  0  0
 51123  1  0  0  0
 51124  1  0  0  0
 52125  1  0  0  0
 52126  1  0  0  0
 53 54  1  0  0  0
 54 55  2  0  0  0
 54127  1  0  0  0
 55 57  1  0  0  0
 55128  1  0  0  0
 56 69  2  0  0  0
 57 58  2  0  0  0
 57129  1  0  0  0
 58130  1  0  0  0
 59 60  1  0  0  0
 59 61  1  0  0  0
 59 62  1  0  0  0
 60131  1  0  0  0
 60132  1  0  0  0
 60133  1  0  0  0
 61134  1  0  0  0
 61135  1  0  0  0
 61136  1  0  0  0
 62137  1  0  0  0
 62138  1  0  0  0
 62139  1  0  0  0
 63 65  1  0  0  0
 63140  1  0  0  0
 63141  1  0  0  0
 63142  1  0  0  0
 64143  1  0  0  0
 65144  1  0  0  0
 68 79  1  0  0  0
 71 72  2  0  0  0
 71 75  1  0  0  0
 71145  1  0  0  0
 72 76  1  0  0  0
 72146  1  0  0  0
 73 74  1  0  0  0
 73 76  2  0  0  0
 73147  1  0  0  0
 74 75  2  0  0  0
 74 77  1  0  0  0
 75 81  1  0  0  0
 76 85  1  0  0  0
 77 82  1  0  0  0
 77 84  2  0  0  0
 78 79  1  0  0  0
 78 85  1  0  0  0
 78148  1  0  0  0
 78149  1  0  0  0
 79150  1  0  0  0
 79151  1  0  0  0
 80 82  1  0  0  0
 80 83  1  0  0  0
 80152  1  0  0  0
 80153  1  0  0  0
 81154  1  0  0  0
 82155  1  0  0  0
 83156  1  0  0  0
 83157  1  0  0  0
 83158  1  0  0  0
M  CHG  1  83   1
M  ISO  4   1 100  68 101  79 101  81 100
M  END
> <chiral flag>
0

> <version>
0

> <s_m_source_file>
/data/baiqing/PycharmProjects/Reinvent-master-3.2/result/LINK_invent/BTK/process_docking_weight1_custom_sum_contain_oxygen_bond_distance_aromatic_linkinvent_7_9_3/rearranged_h_0002.sdf

> <i_m_source_file_index>
38

> <r_mmod_Potential_Energy-OPLS-2005>
192.990386962891

> <r_mmod_Stretch_Energy-OPLS-2005>
226.453277587891

> <r_mmod_Bend_Energy-OPLS-2005>
280.563629150391

> <r_mmod_Torsional_Energy-OPLS-2005>
275.692077636719

> <r_mmod_Improper_Torsional_Energy-OPLS-2005>
8.31764984130859

> <r_mmod_Van_der_Waal_Energy-OPLS-2005>
119.617416381836

> <r_mmod_Electrostatic_Energy-OPLS-2005>
-355.423614501953

> <r_mmod_Solvation_Energy-OPLS-2005>
-538.829528808594

> <b_mmod_Minimization_Converged-OPLS-2005>
0

> <r_mmod_RMS_Derivative-OPLS-2005>
1.04680109024048

$$$$
38
                    3D
 Structure written by MMmdl.
143150  0  0  1  0            999 V2000
  -30.3355  -15.5533   20.3377 C   0  0  0  0  0  0
  -30.4278  -13.0206   19.5356 C   0  0  0  0  0  0
  -29.5464  -12.6353   18.3151 C   0  0  0  0  0  0
  -28.1142  -12.2965   18.7563 C   0  0  0  0  0  0
  -27.5983  -13.2998   19.8136 C   0  0  2  0  0  0
  -28.6188  -13.6020   20.9348 C   0  0  0  0  0  0
  -25.2335  -13.8272   20.5783 C   0  0  0  0  0  0
  -24.1716  -13.0431   20.9280 C   0  0  0  0  0  0
  -24.6407  -11.6939   20.8763 C   0  0  0  0  0  0
  -23.9108  -10.4290   21.0398 C   0  0  0  0  0  0
  -24.3646   -9.4204   21.9179 C   0  0  0  0  0  0
  -23.6308   -8.2245   22.0753 C   0  0  0  0  0  0
  -22.4289   -8.0285   21.3544 C   0  0  0  0  0  0
  -21.9934   -9.0259   20.4644 C   0  0  0  0  0  0
  -22.7275  -10.2132   20.3050 C   0  0  0  0  0  0
  -21.6858   -6.0738   22.5278 C   0  0  0  0  0  0
  -21.4019   -6.5642   23.8212 C   0  0  0  0  0  0
  -21.3660   -5.6794   24.9173 C   0  0  0  0  0  0
  -21.6043   -4.3057   24.7224 C   0  0  0  0  0  0
  -21.8819   -3.8148   23.4345 C   0  0  0  0  0  0
  -21.9194   -4.6965   22.3402 C   0  0  0  0  0  0
  -22.7731  -13.5167   21.1917 C   0  0  0  0  0  0
  -22.1662   -4.2150   21.0979 F   0  0  0  0  0  0
  -21.5626   -3.4540   25.7737 F   0  0  0  0  0  0
  -29.8047  -14.1993   20.2827 N   0  0  0  0  0  0
  -26.2777  -12.9589   20.3227 N   0  0  0  0  0  0
  -25.9352  -11.6669   20.5705 N   0  0  0  0  0  0
  -22.0396  -12.8145   22.0471 N   0  0  0  0  0  0
  -25.3934  -15.2012   20.4226 N   0  0  0  0  0  0
  -31.5687  -15.5024   20.1771 O   0  0  0  0  0  0
  -21.6647   -6.8885   21.4242 O   0  0  0  0  0  0
  -22.3406  -14.5465   20.6752 O   0  0  0  0  0  0
  -24.6800  -31.8038   23.1543 C   0  0  0  0  0  0
  -25.9399  -32.4487   23.8074 C   0  0  1  0  0  0
  -27.2247  -26.7418   20.2123 C   0  0  0  0  0  0
  -25.5993  -33.8310   24.1966 N   0  0  0  0  0  0
  -23.5038  -30.4073   21.5074 C   0  0  2  0  0  0
  -24.9602  -28.7545   20.1181 C   0  0  0  0  0  0
  -22.7746  -29.4338   22.4723 C   0  0  0  0  0  0
  -18.0336  -28.1422   22.8456 C   0  0  0  0  0  0
  -24.1495  -36.7162   23.2653 C   0  0  0  0  0  0
  -26.0826  -30.5501   21.4119 C   0  0  0  0  0  0
  -26.1487  -29.1190   20.7619 C   0  0  0  0  0  0
  -27.2682  -28.1399   20.7756 C   0  0  0  0  0  0
  -26.0029  -26.5744   19.5148 C   0  0  0  0  0  0
  -24.9238  -27.5069   19.4714 C   0  0  0  0  0  0
  -23.7552  -29.7060   20.1417 C   0  0  0  0  0  0
  -25.4144  -36.2907   24.0285 C   0  0  1  0  0  0
  -20.5969  -28.3778   23.1151 C   0  0  2  0  0  0
  -20.6806  -26.9441   22.5404 C   0  0  0  0  0  0
  -19.5783  -26.6372   21.5218 C   0  0  0  0  0  0
  -18.1963  -26.7949   22.1618 C   0  0  0  0  0  0
  -19.1601  -28.8923   23.2785 C   0  0  0  0  0  0
  -18.9509  -30.1507   23.8830 C   0  0  0  0  0  0
  -17.6500  -30.6605   24.0552 C   0  0  0  0  0  0
  -25.9122  -34.9297   23.4960 C   0  0  0  0  0  0
  -16.5389  -29.9089   23.6351 C   0  0  0  0  0  0
  -16.7316  -28.6511   23.0366 C   0  0  0  0  0  0
  -26.4590  -31.6507   25.0681 C   0  0  0  0  0  0
  -25.3664  -31.3815   26.1302 C   0  0  0  0  0  0
  -27.0517  -30.2851   24.6551 C   0  0  0  0  0  0
  -27.6045  -32.4359   25.7497 C   0  0  0  0  0  0
  -27.5563  -37.1737   24.8467 C   0  0  0  0  0  0
  -21.4398  -29.3031   22.3473 N   0  0  0  0  0  0
  -26.4272  -37.3665   23.9408 N   0  0  0  0  0  0
  -24.7786  -30.9523   22.0774 N   0  0  0  0  0  0
  -23.4209  -28.7935   23.3052 O   0  0  0  0  0  0
  -28.2041  -25.5512   20.2801 O   0  0  0  0  0  0
  -26.5758  -34.8869   22.4574 O   0  0  0  0  0  0
  -23.5828  -32.1094   23.6523 O   0  0  0  0  0  0
  -28.7651  -20.2674   20.2904 C   0  0  0  0  0  0
  -29.0007  -22.1779   20.3080 C   0  0  0  0  0  0
  -29.8051  -18.6520   20.3467 C   0  0  0  0  0  0
  -28.0034  -23.8204   20.2032 C   0  0  0  0  0  0
  -29.5782  -16.9027   20.3825 N   0  0  0  0  0  0
  -31.4268  -13.2705   19.1767 H   0  0  0  0  0  0
  -30.5690  -12.1647   20.1980 H   0  0  0  0  0  0
  -29.9845  -11.7945   17.7757 H   0  0  0  0  0  0
  -29.5210  -13.4708   17.6137 H   0  0  0  0  0  0
  -28.1271  -11.2932   19.1840 H   0  0  0  0  0  0
  -27.4439  -12.2569   17.8969 H   0  0  0  0  0  0
  -27.4709  -14.2301   19.2582 H   0  0  0  0  0  0
  -28.8604  -12.7103   21.5153 H   0  0  0  0  0  0
  -28.2012  -14.3242   21.6380 H   0  0  0  0  0  0
  -25.2785   -9.5679   22.4764 H   0  0  0  0  0  0
  -24.0009   -7.4638   22.7481 H   0  0  0  0  0  0
  -21.0862   -8.8785   19.8952 H   0  0  0  0  0  0
  -22.3730  -10.9673   19.6163 H   0  0  0  0  0  0
  -21.2015   -7.6151   23.9715 H   0  0  0  0  0  0
  -21.1481   -6.0525   25.9076 H   0  0  0  0  0  0
  -22.0596   -2.7611   23.2846 H   0  0  0  0  0  0
  -22.4039  -11.9821   22.4865 H   0  0  0  0  0  0
  -21.1004  -13.1141   22.2671 H   0  0  0  0  0  0
  -24.6207  -15.8487   20.5359 H   0  0  0  0  0  0
  -26.2324  -15.6443   20.0726 H   0  0  0  0  0  0
  -26.7477  -32.4971   23.0784 H   0  0  0  0  0  0
  -25.0059  -33.9354   25.0062 H   0  0  0  0  0  0
  -22.8274  -31.2439   21.3201 H   0  0  0  0  0  0
  -23.3774  -35.9475   23.3272 H   0  0  0  0  0  0
  -24.3562  -36.8864   22.2076 H   0  0  0  0  0  0
  -23.7238  -37.6325   23.6753 H   0  0  0  0  0  0
  -26.2810  -31.2776   20.6238 H   0  0  0  0  0  0
  -26.9354  -30.6164   22.0750 H   0  0  0  0  0  0
  -28.1647  -28.4248   21.3080 H   0  0  0  0  0  0
  -25.8443  -25.6278   19.0182 H   0  0  0  0  0  0
  -24.0252  -27.2191   18.9430 H   0  0  0  0  0  0
  -23.9278  -30.4668   19.3796 H   0  0  0  0  0  0
  -22.8607  -29.1707   19.8189 H   0  0  0  0  0  0
  -25.1351  -36.1675   25.0775 H   0  0  0  0  0  0
  -21.0052  -28.3402   24.1277 H   0  0  0  0  0  0
  -20.5676  -26.2401   23.3662 H   0  0  0  0  0  0
  -21.6667  -26.7393   22.1218 H   0  0  0  0  0  0
  -19.6942  -25.6265   21.1292 H   0  0  0  0  0  0
  -19.6728  -27.3145   20.6718 H   0  0  0  0  0  0
  -17.4233  -26.6692   21.4021 H   0  0  0  0  0  0
  -18.0352  -26.0108   22.9031 H   0  0  0  0  0  0
  -19.7986  -30.7339   24.2170 H   0  0  0  0  0  0
  -17.5053  -31.6279   24.5166 H   0  0  0  0  0  0
  -15.5388  -30.2971   23.7716 H   0  0  0  0  0  0
  -15.8715  -28.0809   22.7122 H   0  0  0  0  0  0
  -24.5873  -30.7140   25.7600 H   0  0  0  0  0  0
  -24.8826  -32.3036   26.4537 H   0  0  0  0  0  0
  -25.7846  -30.9101   27.0204 H   0  0  0  0  0  0
  -26.3228  -29.6473   24.1543 H   0  0  0  0  0  0
  -27.3966  -29.7288   25.5278 H   0  0  0  0  0  0
  -27.9198  -30.3989   24.0055 H   0  0  0  0  0  0
  -27.2593  -33.3729   26.1879 H   0  0  0  0  0  0
  -28.3955  -32.6809   25.0396 H   0  0  0  0  0  0
  -28.0603  -31.8616   26.5574 H   0  0  0  0  0  0
  -28.2553  -38.0057   24.7511 H   0  0  0  0  0  0
  -28.1085  -36.2580   24.6299 H   0  0  0  0  0  0
  -27.2276  -37.1380   25.8868 H   0  0  0  0  0  0
  -20.9695  -29.8687   21.6544 H   0  0  0  0  0  0
  -26.0103  -38.2714   24.1421 H   0  0  0  0  0  0
  -28.1541  -20.1192   19.3998 H   0  0  0  0  0  0
  -28.0571  -20.1169   21.1057 H   0  0  0  0  0  0
  -29.7448  -22.3205   19.5244 H   0  0  0  0  0  0
  -29.5730  -22.3235   21.2244 H   0  0  0  0  0  0
  -30.4440  -18.8018   21.2176 H   0  0  0  0  0  0
  -30.4945  -18.7676   19.5099 H   0  0  0  0  0  0
  -27.2299  -23.6732   20.9571 H   0  0  0  0  0  0
  -27.4624  -23.7113   19.2633 H   0  0  0  0  0  0
  -28.5926  -16.6942   20.4591 H   0  0  0  0  0  0
  1 25  1  0  0  0
  1 30  2  0  0  0
  1 75  1  0  0  0
  2  3  1  0  0  0
  2 25  1  0  0  0
  2 76  1  0  0  0
  2 77  1  0  0  0
  3  4  1  0  0  0
  3 78  1  0  0  0
  3 79  1  0  0  0
  4  5  1  0  0  0
  4 80  1  0  0  0
  4 81  1  0  0  0
  5  6  1  0  0  0
  5 26  1  0  0  0
  5 82  1  0  0  0
  6 25  1  0  0  0
  6 83  1  0  0  0
  6 84  1  0  0  0
  7  8  2  0  0  0
  7 26  1  0  0  0
  7 29  1  0  0  0
  8  9  1  0  0  0
  8 22  1  0  0  0
  9 10  1  0  0  0
  9 27  2  0  0  0
 10 11  2  0  0  0
 10 15  1  0  0  0
 11 12  1  0  0  0
 11 85  1  0  0  0
 12 13  2  0  0  0
 12 86  1  0  0  0
 13 14  1  0  0  0
 13 31  1  0  0  0
 14 15  2  0  0  0
 14 87  1  0  0  0
 15 88  1  0  0  0
 16 17  2  0  0  0
 16 21  1  0  0  0
 16 31  1  0  0  0
 17 18  1  0  0  0
 17 89  1  0  0  0
 18 19  2  0  0  0
 18 90  1  0  0  0
 19 20  1  0  0  0
 19 24  1  0  0  0
 20 21  2  0  0  0
 20 91  1  0  0  0
 21 23  1  0  0  0
 22 28  1  0  0  0
 22 32  2  0  0  0
 26 27  1  0  0  0
 28 92  1  0  0  0
 28 93  1  0  0  0
 29 94  1  0  0  0
 29 95  1  0  0  0
 33 34  1  0  0  0
 33 66  1  0  0  0
 33 70  2  0  0  0
 34 36  1  0  0  0
 34 59  1  0  0  0
 34 96  1  0  0  0
 35 44  2  0  0  0
 35 45  1  0  0  0
 35 68  1  0  0  0
 36 56  1  0  0  0
 36 97  1  0  0  0
 37 39  1  0  0  0
 37 47  1  0  0  0
 37 66  1  0  0  0
 37 98  1  0  0  0
 38 43  2  0  0  0
 38 46  1  0  0  0
 38 47  1  0  0  0
 39 64  1  0  0  0
 39 67  2  0  0  0
 40 52  1  0  0  0
 40 53  2  0  0  0
 40 58  1  0  0  0
 41 99  1  0  0  0
 41100  1  0  0  0
 41101  1  0  0  0
 41 48  1  0  0  0
 42 43  1  0  0  0
 42 66  1  0  0  0
 42102  1  0  0  0
 42103  1  0  0  0
 43 44  1  0  0  0
 44104  1  0  0  0
 45 46  2  0  0  0
 45105  1  0  0  0
 46106  1  0  0  0
 47107  1  0  0  0
 47108  1  0  0  0
 48 56  1  0  0  0
 48 65  1  0  0  0
 48109  1  0  0  0
 49 50  1  0  0  0
 49 53  1  0  0  0
 49 64  1  0  0  0
 49110  1  0  0  0
 50 51  1  0  0  0
 50111  1  0  0  0
 50112  1  0  0  0
 51 52  1  0  0  0
 51113  1  0  0  0
 51114  1  0  0  0
 52115  1  0  0  0
 52116  1  0  0  0
 53 54  1  0  0  0
 54 55  2  0  0  0
 54117  1  0  0  0
 55 57  1  0  0  0
 55118  1  0  0  0
 56 69  2  0  0  0
 57 58  2  0  0  0
 57119  1  0  0  0
 58120  1  0  0  0
 59 60  1  0  0  0
 59 61  1  0  0  0
 59 62  1  0  0  0
 60121  1  0  0  0
 60122  1  0  0  0
 60123  1  0  0  0
 61124  1  0  0  0
 61125  1  0  0  0
 61126  1  0  0  0
 62127  1  0  0  0
 62128  1  0  0  0
 62129  1  0  0  0
 63 65  1  0  0  0
 63130  1  0  0  0
 63131  1  0  0  0
 63132  1  0  0  0
 64133  1  0  0  0
 65134  1  0  0  0
 68 74  1  0  0  0
 71 72  1  0  0  0
 71 73  1  0  0  0
 71135  1  0  0  0
 71136  1  0  0  0
 72 74  1  0  0  0
 72137  1  0  0  0
 72138  1  0  0  0
 73 75  1  0  0  0
 73139  1  0  0  0
 73140  1  0  0  0
 74141  1  0  0  0
 74142  1  0  0  0
 75143  1  0  0  0
M  ISO  4   1 100  68 101  74 101  75 100
M  END
> <chiral flag>
0

> <version>
0

> <s_m_source_file>
/data/baiqing/PycharmProjects/Reinvent-master-3.2/result/LINK_invent/BTK/process_docking_weight1_custom_sum_contain_oxygen_bond_distance_aromatic_linkinvent_7_9_3/rearranged_h_0002.sdf

> <i_m_source_file_index>
39

> <r_mmod_Potential_Energy-OPLS-2005>
2236.59155273438

> <r_mmod_Stretch_Energy-OPLS-2005>
1088.18041992188

> <r_mmod_Bend_Energy-OPLS-2005>
600.093139648438

> <r_mmod_Torsional_Energy-OPLS-2005>
206.369812011719

> <r_mmod_Improper_Torsional_Energy-OPLS-2005>
3.66827178001404

> <r_mmod_Van_der_Waal_Energy-OPLS-2005>
110.215888977051

> <r_mmod_Electrostatic_Energy-OPLS-2005>
-352.887237548828

> <r_mmod_Solvation_Energy-OPLS-2005>
-215.827575683594

> <b_mmod_Minimization_Converged-OPLS-2005>
0

> <r_mmod_RMS_Derivative-OPLS-2005>
0.268112510442734

$$$$
39
                    3D
 Structure written by MMmdl.
167174  0  0  1  0            999 V2000
  -30.7541  -14.3664   20.6580 C   0  0  0  0  0  0
  -30.4147  -12.2778   19.3986 C   0  0  0  0  0  0
  -29.4842  -12.5190   18.1946 C   0  0  0  0  0  0
  -28.0074  -12.3790   18.6100 C   0  0  0  0  0  0
  -27.6656  -13.2008   19.8806 C   0  0  2  0  0  0
  -28.7023  -12.9370   20.9956 C   0  0  0  0  0  0
  -25.2608  -13.8166   20.5667 C   0  0  0  0  0  0
  -24.1840  -13.0442   20.9165 C   0  0  0  0  0  0
  -24.6383  -11.6909   20.8732 C   0  0  0  0  0  0
  -23.9050  -10.4291   21.0402 C   0  0  0  0  0  0
  -24.3607   -9.4206   21.9178 C   0  0  0  0  0  0
  -23.6283   -8.2241   22.0750 C   0  0  0  0  0  0
  -22.4268   -8.0283   21.3542 C   0  0  0  0  0  0
  -21.9899   -9.0254   20.4648 C   0  0  0  0  0  0
  -22.7222  -10.2132   20.3051 C   0  0  0  0  0  0
  -21.6857   -6.0735   22.5277 C   0  0  0  0  0  0
  -21.4011   -6.5640   23.8208 C   0  0  0  0  0  0
  -21.3660   -5.6792   24.9174 C   0  0  0  0  0  0
  -21.6044   -4.3054   24.7225 C   0  0  0  0  0  0
  -21.8820   -3.8146   23.4347 C   0  0  0  0  0  0
  -21.9190   -4.6963   22.3404 C   0  0  0  0  0  0
  -22.7870  -13.5251   21.1838 C   0  0  0  0  0  0
  -22.1661   -4.2150   21.0981 F   0  0  0  0  0  0
  -21.5630   -3.4536   25.7737 F   0  0  0  0  0  0
  -30.0454  -13.2270   20.4579 N   0  0  0  0  0  0
  -26.3036  -12.9314   20.3374 N   0  0  0  0  0  0
  -25.9308  -11.6483   20.5767 N   0  0  0  0  0  0
  -22.0507  -12.8241   22.0397 N   0  0  0  0  0  0
  -25.4356  -15.1870   20.4091 N   0  0  0  0  0  0
  -31.8092  -14.6238   20.0705 O   0  0  0  0  0  0
  -21.6638   -6.8879   21.4238 O   0  0  0  0  0  0
  -22.3552  -14.5550   20.6690 O   0  0  0  0  0  0
  -24.6105  -31.8715   23.2142 C   0  0  0  0  0  0
  -25.9023  -32.4830   23.8407 C   0  0  1  0  0  0
  -27.2352  -27.4825   20.0804 C   0  0  0  0  0  0
  -25.5905  -33.8619   24.2333 N   0  0  0  0  0  0
  -23.3943  -30.4951   21.5521 C   0  0  2  0  0  0
  -24.8418  -28.9636   20.1152 C   0  0  0  0  0  0
  -22.7378  -29.4677   22.5012 C   0  0  0  0  0  0
  -18.0265  -28.1343   22.8507 C   0  0  0  0  0  0
  -24.1491  -36.7330   23.2626 C   0  0  0  0  0  0
  -25.9162  -30.8484   21.3610 C   0  0  0  0  0  0
  -25.9967  -29.4825   20.7164 C   0  0  0  0  0  0
  -27.1970  -28.7441   20.7095 C   0  0  0  0  0  0
  -26.0761  -26.9750   19.4612 C   0  0  0  0  0  0
  -24.8734  -27.7049   19.4900 C   0  0  0  0  0  0
  -23.6001  -29.8243   20.1660 C   0  0  0  0  0  0
  -25.4111  -36.3112   24.0330 C   0  0  1  0  0  0
  -20.5854  -28.3651   23.1321 C   0  0  2  0  0  0
  -20.6775  -26.9411   22.5387 C   0  0  0  0  0  0
  -19.5736  -26.6384   21.5207 C   0  0  0  0  0  0
  -18.1934  -26.7875   22.1661 C   0  0  0  0  0  0
  -19.1507  -28.8817   23.2915 C   0  0  0  0  0  0
  -18.9426  -30.1439   23.8900 C   0  0  0  0  0  0
  -17.6427  -30.6578   24.0532 C   0  0  0  0  0  0
  -25.9033  -34.9474   23.5117 C   0  0  0  0  0  0
  -16.5327  -29.9060   23.6308 C   0  0  0  0  0  0
  -16.7251  -28.6467   23.0350 C   0  0  0  0  0  0
  -26.4474  -31.6580   25.0699 C   0  0  0  0  0  0
  -25.3778  -31.3705   26.1475 C   0  0  0  0  0  0
  -27.0255  -30.3011   24.6014 C   0  0  0  0  0  0
  -27.6050  -32.4305   25.7460 C   0  0  0  0  0  0
  -27.5593  -37.1814   24.8465 C   0  0  0  0  0  0
  -21.4119  -29.3043   22.3758 N   0  0  0  0  0  0
  -26.4298  -37.3800   23.9412 N   0  0  0  0  0  0
  -24.6573  -31.0860   22.1016 N   0  0  0  0  0  0
  -23.4174  -28.8228   23.3043 O   0  0  0  0  0  0
  -28.3954  -26.7601   20.0179 O   0  0  0  0  0  0
  -26.5581  -34.8921   22.4669 O   0  0  0  0  0  0
  -23.5326  -32.1451   23.7584 O   0  0  0  0  0  0
  -27.1839  -20.5051   19.5382 C   0  0  0  0  0  0
  -24.6066  -23.2182   21.3355 C   0  0  0  0  0  0
  -25.7185  -20.9396   19.5620 C   0  0  0  0  0  0
  -24.1486  -21.7587   21.1834 C   0  0  0  0  0  0
  -29.0136  -17.8820   20.4529 C   0  0  0  0  0  0
  -30.4953  -17.5521   20.6816 C   0  0  0  0  0  0
  -27.8645  -24.6310   21.1208 C   0  0  0  0  0  0
  -28.7934  -18.6673   19.1494 C   0  0  0  0  0  0
  -30.7379  -16.5578   21.8329 C   0  0  0  0  0  0
  -26.5606  -24.6606   21.9428 C   0  0  0  0  0  0
  -28.6602  -25.9507   21.1581 C   0  0  0  0  0  0
  -27.4618  -19.2633   19.1219 N   0  0  0  0  0  0
  -25.8462  -23.3951   21.8125 N   0  0  0  0  0  0
  -30.2130  -15.2300   21.5261 N   0  0  0  0  0  0
  -28.0539  -21.2846   19.9339 O   0  0  0  0  0  0
  -23.8629  -24.1468   21.0159 O   0  0  0  0  0  0
  -25.2675  -20.9094   20.9170 O   0  0  0  0  0  0
  -31.4587  -12.3733   19.0950 H   0  0  0  0  0  0
  -30.3083  -11.2559   19.7658 H   0  0  0  0  0  0
  -29.7152  -11.8159   17.3932 H   0  0  0  0  0  0
  -29.6587  -13.5164   17.7874 H   0  0  0  0  0  0
  -27.8117  -11.3213   18.7907 H   0  0  0  0  0  0
  -27.3551  -12.6719   17.7865 H   0  0  0  0  0  0
  -27.7265  -14.2553   19.6105 H   0  0  0  0  0  0
  -28.6622  -11.8921   21.3077 H   0  0  0  0  0  0
  -28.4551  -13.5089   21.8905 H   0  0  0  0  0  0
  -25.2757   -9.5692   22.4747 H   0  0  0  0  0  0
  -24.0006   -7.4636   22.7462 H   0  0  0  0  0  0
  -21.0833   -8.8769   19.8956 H   0  0  0  0  0  0
  -22.3680  -10.9672   19.6163 H   0  0  0  0  0  0
  -21.2005   -7.6148   23.9716 H   0  0  0  0  0  0
  -21.1483   -6.0521   25.9077 H   0  0  0  0  0  0
  -22.0599   -2.7609   23.2844 H   0  0  0  0  0  0
  -22.4126  -11.9905   22.4785 H   0  0  0  0  0  0
  -21.1133  -13.1283   22.2618 H   0  0  0  0  0  0
  -24.6766  -15.8494   20.5257 H   0  0  0  0  0  0
  -26.3009  -15.6207   20.1135 H   0  0  0  0  0  0
  -26.7090  -32.5568   23.1183 H   0  0  0  0  0  0
  -25.0110  -33.9779   25.0507 H   0  0  0  0  0  0
  -22.6824  -31.3113   21.4176 H   0  0  0  0  0  0
  -23.3741  -35.9680   23.3296 H   0  0  0  0  0  0
  -24.3597  -36.8931   22.2046 H   0  0  0  0  0  0
  -23.7258  -37.6542   23.6629 H   0  0  0  0  0  0
  -26.0182  -31.6146   20.5904 H   0  0  0  0  0  0
  -26.8076  -30.9066   21.9735 H   0  0  0  0  0  0
  -28.0891  -29.1451   21.1709 H   0  0  0  0  0  0
  -26.1060  -26.0151   18.9650 H   0  0  0  0  0  0
  -23.9888  -27.3017   19.0163 H   0  0  0  0  0  0
  -23.7046  -30.5972   19.4039 H   0  0  0  0  0  0
  -22.7248  -29.2394   19.8755 H   0  0  0  0  0  0
  -25.1291  -36.1971   25.0825 H   0  0  0  0  0  0
  -20.9942  -28.3185   24.1446 H   0  0  0  0  0  0
  -20.5700  -26.2271   23.3578 H   0  0  0  0  0  0
  -21.6641  -26.7473   22.1166 H   0  0  0  0  0  0
  -19.6926  -25.6310   21.1209 H   0  0  0  0  0  0
  -19.6621  -27.3234   20.6759 H   0  0  0  0  0  0
  -17.4173  -26.6578   21.4114 H   0  0  0  0  0  0
  -18.0384  -26.0024   22.9077 H   0  0  0  0  0  0
  -19.7896  -30.7273   24.2257 H   0  0  0  0  0  0
  -17.4968  -31.6266   24.5114 H   0  0  0  0  0  0
  -15.5329  -30.2972   23.7594 H   0  0  0  0  0  0
  -15.8641  -28.0796   22.7056 H   0  0  0  0  0  0
  -24.5937  -30.7036   25.7864 H   0  0  0  0  0  0
  -24.8995  -32.2875   26.4926 H   0  0  0  0  0  0
  -25.8176  -30.8900   27.0219 H   0  0  0  0  0  0
  -26.2733  -29.6811   24.1101 H   0  0  0  0  0  0
  -27.4065  -29.7204   25.4429 H   0  0  0  0  0  0
  -27.8573  -30.4331   23.9087 H   0  0  0  0  0  0
  -27.2627  -33.3581   26.2071 H   0  0  0  0  0  0
  -28.3833  -32.6903   25.0270 H   0  0  0  0  0  0
  -28.0729  -31.8403   26.5354 H   0  0  0  0  0  0
  -28.2615  -38.0106   24.7501 H   0  0  0  0  0  0
  -28.1067  -36.2631   24.6286 H   0  0  0  0  0  0
  -27.2304  -37.1476   25.8864 H   0  0  0  0  0  0
  -20.9276  -29.8789   21.7006 H   0  0  0  0  0  0
  -26.0179  -38.2872   24.1416 H   0  0  0  0  0  0
  -25.0993  -20.2813   18.9501 H   0  0  0  0  0  0
  -25.6601  -21.9391   19.1261 H   0  0  0  0  0  0
  -23.3864  -21.6675   20.4075 H   0  0  0  0  0  0
  -23.6881  -21.4467   22.1212 H   0  0  0  0  0  0
  -28.6565  -18.4581   21.3080 H   0  0  0  0  0  0
  -28.4165  -16.9691   20.4241 H   0  0  0  0  0  0
  -31.0328  -18.4774   20.8935 H   0  0  0  0  0  0
  -30.9332  -17.1668   19.7599 H   0  0  0  0  0  0
  -27.6633  -24.3531   20.0828 H   0  0  0  0  0  0
  -28.5029  -23.8417   21.5208 H   0  0  0  0  0  0
  -28.9086  -18.0050   18.2891 H   0  0  0  0  0  0
  -29.5571  -19.4405   19.0382 H   0  0  0  0  0  0
  -30.2687  -16.9210   22.7480 H   0  0  0  0  0  0
  -31.8064  -16.4849   22.0450 H   0  0  0  0  0  0
  -25.9288  -25.4976   21.6473 H   0  0  0  0  0  0
  -26.7895  -24.8220   22.9968 H   0  0  0  0  0  0
  -29.7274  -25.7253   21.1361 H   0  0  0  0  0  0
  -28.4833  -26.4963   22.0859 H   0  0  0  0  0  0
  -26.6916  -18.6846   18.8104 H   0  0  0  0  0  0
  -26.3486  -22.5472   22.0448 H   0  0  0  0  0  0
  -29.3605  -14.9450   21.9849 H   0  0  0  0  0  0
  1 25  1  0  0  0
  1 30  2  0  0  0
  1 84  1  0  0  0
  2  3  1  0  0  0
  2 25  1  0  0  0
  2 88  1  0  0  0
  2 89  1  0  0  0
  3  4  1  0  0  0
  3 90  1  0  0  0
  3 91  1  0  0  0
  4  5  1  0  0  0
  4 92  1  0  0  0
  4 93  1  0  0  0
  5  6  1  0  0  0
  5 26  1  0  0  0
  5 94  1  0  0  0
  6 25  1  0  0  0
  6 95  1  0  0  0
  6 96  1  0  0  0
  7  8  2  0  0  0
  7 26  1  0  0  0
  7 29  1  0  0  0
  8  9  1  0  0  0
  8 22  1  0  0  0
  9 10  1  0  0  0
  9 27  2  0  0  0
 10 11  2  0  0  0
 10 15  1  0  0  0
 11 12  1  0  0  0
 11 97  1  0  0  0
 12 13  2  0  0  0
 12 98  1  0  0  0
 13 14  1  0  0  0
 13 31  1  0  0  0
 14 15  2  0  0  0
 14 99  1  0  0  0
 15100  1  0  0  0
 16 17  2  0  0  0
 16 21  1  0  0  0
 16 31  1  0  0  0
 17 18  1  0  0  0
 17101  1  0  0  0
 18 19  2  0  0  0
 18102  1  0  0  0
 19 20  1  0  0  0
 19 24  1  0  0  0
 20 21  2  0  0  0
 20103  1  0  0  0
 21 23  1  0  0  0
 22 28  1  0  0  0
 22 32  2  0  0  0
 26 27  1  0  0  0
 28104  1  0  0  0
 28105  1  0  0  0
 29106  1  0  0  0
 29107  1  0  0  0
 33 34  1  0  0  0
 33 66  1  0  0  0
 33 70  2  0  0  0
 34 36  1  0  0  0
 34 59  1  0  0  0
 34108  1  0  0  0
 35 44  2  0  0  0
 35 45  1  0  0  0
 35 68  1  0  0  0
 36 56  1  0  0  0
 36109  1  0  0  0
 37 39  1  0  0  0
 37 47  1  0  0  0
 37 66  1  0  0  0
 37110  1  0  0  0
 38 43  2  0  0  0
 38 46  1  0  0  0
 38 47  1  0  0  0
 39 64  1  0  0  0
 39 67  2  0  0  0
 40 52  1  0  0  0
 40 53  2  0  0  0
 40 58  1  0  0  0
 41111  1  0  0  0
 41112  1  0  0  0
 41113  1  0  0  0
 41 48  1  0  0  0
 42 43  1  0  0  0
 42 66  1  0  0  0
 42114  1  0  0  0
 42115  1  0  0  0
 43 44  1  0  0  0
 44116  1  0  0  0
 45 46  2  0  0  0
 45117  1  0  0  0
 46118  1  0  0  0
 47119  1  0  0  0
 47120  1  0  0  0
 48 56  1  0  0  0
 48 65  1  0  0  0
 48121  1  0  0  0
 49 50  1  0  0  0
 49 53  1  0  0  0
 49 64  1  0  0  0
 49122  1  0  0  0
 50 51  1  0  0  0
 50123  1  0  0  0
 50124  1  0  0  0
 51 52  1  0  0  0
 51125  1  0  0  0
 51126  1  0  0  0
 52127  1  0  0  0
 52128  1  0  0  0
 53 54  1  0  0  0
 54 55  2  0  0  0
 54129  1  0  0  0
 55 57  1  0  0  0
 55130  1  0  0  0
 56 69  2  0  0  0
 57 58  2  0  0  0
 57131  1  0  0  0
 58132  1  0  0  0
 59 60  1  0  0  0
 59 61  1  0  0  0
 59 62  1  0  0  0
 60133  1  0  0  0
 60134  1  0  0  0
 60135  1  0  0  0
 61136  1  0  0  0
 61137  1  0  0  0
 61138  1  0  0  0
 62139  1  0  0  0
 62140  1  0  0  0
 62141  1  0  0  0
 63 65  1  0  0  0
 63142  1  0  0  0
 63143  1  0  0  0
 63144  1  0  0  0
 64145  1  0  0  0
 65146  1  0  0  0
 68 81  1  0  0  0
 71 73  1  0  0  0
 71 82  1  0  0  0
 71 85  2  0  0  0
 72 74  1  0  0  0
 72 83  1  0  0  0
 72 86  2  0  0  0
 73 87  1  0  0  0
 73147  1  0  0  0
 73148  1  0  0  0
 74 87  1  0  0  0
 74149  1  0  0  0
 74150  1  0  0  0
 75 76  1  0  0  0
 75 78  1  0  0  0
 75151  1  0  0  0
 75152  1  0  0  0
 76 79  1  0  0  0
 76153  1  0  0  0
 76154  1  0  0  0
 77 80  1  0  0  0
 77 81  1  0  0  0
 77155  1  0  0  0
 77156  1  0  0  0
 78 82  1  0  0  0
 78157  1  0  0  0
 78158  1  0  0  0
 79 84  1  0  0  0
 79159  1  0  0  0
 79160  1  0  0  0
 80 83  1  0  0  0
 80161  1  0  0  0
 80162  1  0  0  0
 81163  1  0  0  0
 81164  1  0  0  0
 82165  1  0  0  0
 83166  1  0  0  0
 84167  1  0  0  0
M  ISO  4   1 100  68 101  81 101  84 100
M  END
> <chiral flag>
0

> <version>
0

> <s_m_source_file>
/data/baiqing/PycharmProjects/Reinvent-master-3.2/result/LINK_invent/BTK/process_docking_weight1_custom_sum_contain_oxygen_bond_distance_aromatic_linkinvent_7_9_3/rearranged_h_0002.sdf

> <i_m_source_file_index>
40

> <r_mmod_Potential_Energy-OPLS-2005>
-195.610168457031

> <r_mmod_Stretch_Energy-OPLS-2005>
30.5485229492188

> <r_mmod_Bend_Energy-OPLS-2005>
89.1215591430664

> <r_mmod_Torsional_Energy-OPLS-2005>
228.990921020508

> <r_mmod_Improper_Torsional_Energy-OPLS-2005>
2.01549196243286

> <r_mmod_Van_der_Waal_Energy-OPLS-2005>
123.926704406738

> <r_mmod_Electrostatic_Energy-OPLS-2005>
-420.775665283203

> <r_mmod_Solvation_Energy-OPLS-2005>
-255.827896118164

> <b_mmod_Minimization_Converged-OPLS-2005>
0

> <r_mmod_RMS_Derivative-OPLS-2005>
2.17489552497864

$$$$
40
                    3D
 Structure written by MMmdl.
149156  0  0  1  0            999 V2000
  -30.6489  -14.6855   20.4725 C   0  0  0  0  0  0
  -30.4337  -12.3909   19.4831 C   0  0  0  0  0  0
  -29.5172  -12.4995   18.2439 C   0  0  0  0  0  0
  -28.0372  -12.3446   18.6470 C   0  0  0  0  0  0
  -27.6480  -13.2327   19.8596 C   0  0  2  0  0  0
  -28.6801  -13.1306   21.0019 C   0  0  0  0  0  0
  -25.2522  -13.8210   20.5703 C   0  0  0  0  0  0
  -24.1809  -13.0456   20.9198 C   0  0  0  0  0  0
  -24.6396  -11.6929   20.8744 C   0  0  0  0  0  0
  -23.9074  -10.4304   21.0405 C   0  0  0  0  0  0
  -24.3621   -9.4216   21.9184 C   0  0  0  0  0  0
  -23.6301   -8.2250   22.0754 C   0  0  0  0  0  0
  -22.4277   -8.0286   21.3549 C   0  0  0  0  0  0
  -21.9918   -9.0260   20.4649 C   0  0  0  0  0  0
  -22.7248  -10.2139   20.3061 C   0  0  0  0  0  0
  -21.6853   -6.0745   22.5286 C   0  0  0  0  0  0
  -21.4011   -6.5645   23.8219 C   0  0  0  0  0  0
  -21.3668   -5.6791   24.9177 C   0  0  0  0  0  0
  -21.6046   -4.3056   24.7221 C   0  0  0  0  0  0
  -21.8818   -3.8157   23.4344 C   0  0  0  0  0  0
  -21.9191   -4.6978   22.3401 C   0  0  0  0  0  0
  -22.7830  -13.5230   21.1871 C   0  0  0  0  0  0
  -22.1660   -4.2165   21.0980 F   0  0  0  0  0  0
  -21.5632   -3.4537   25.7736 F   0  0  0  0  0  0
  -30.0033  -13.4230   20.4459 N   0  0  0  0  0  0
  -26.2957  -12.9424   20.3294 N   0  0  0  0  0  0
  -25.9324  -11.6559   20.5738 N   0  0  0  0  0  0
  -22.0471  -12.8223   22.0425 N   0  0  0  0  0  0
  -25.4225  -15.1936   20.4171 N   0  0  0  0  0  0
  -31.7996  -14.8516   20.0641 O   0  0  0  0  0  0
  -21.6642   -6.8889   21.4246 O   0  0  0  0  0  0
  -22.3508  -14.5539   20.6725 O   0  0  0  0  0  0
  -24.6298  -31.8572   23.2020 C   0  0  0  0  0  0
  -25.9131  -32.4767   23.8355 C   0  0  1  0  0  0
  -27.2148  -27.2856   20.1235 C   0  0  0  0  0  0
  -25.5931  -33.8569   24.2274 N   0  0  0  0  0  0
  -23.4249  -30.4816   21.5455 C   0  0  2  0  0  0
  -24.8698  -28.9389   20.1092 C   0  0  0  0  0  0
  -22.7498  -29.4603   22.4930 C   0  0  0  0  0  0
  -18.0296  -28.1371   22.8483 C   0  0  0  0  0  0
  -24.1485  -36.7287   23.2638 C   0  0  0  0  0  0
  -25.9700  -30.7786   21.3787 C   0  0  0  0  0  0
  -26.0420  -29.4053   20.7175 C   0  0  0  0  0  0
  -27.2178  -28.5916   20.7138 C   0  0  0  0  0  0
  -26.0208  -26.8895   19.4748 C   0  0  0  0  0  0
  -24.8638  -27.6885   19.4772 C   0  0  0  0  0  0
  -23.6398  -29.8215   20.1597 C   0  0  0  0  0  0
  -25.4112  -36.3077   24.0327 C   0  0  1  0  0  0
  -20.5896  -28.3678   23.1273 C   0  0  2  0  0  0
  -20.6784  -26.9401   22.5403 C   0  0  0  0  0  0
  -19.5766  -26.6376   21.5201 C   0  0  0  0  0  0
  -18.1945  -26.7916   22.1617 C   0  0  0  0  0  0
  -19.1546  -28.8844   23.2870 C   0  0  0  0  0  0
  -18.9463  -30.1445   23.8892 C   0  0  0  0  0  0
  -17.6465  -30.6579   24.0556 C   0  0  0  0  0  0
  -25.9052  -34.9446   23.5102 C   0  0  0  0  0  0
  -16.5357  -29.9072   23.6330 C   0  0  0  0  0  0
  -16.7279  -28.6487   23.0355 C   0  0  0  0  0  0
  -26.4498  -31.6596   25.0744 C   0  0  0  0  0  0
  -25.3726  -31.3742   26.1470 C   0  0  0  0  0  0
  -27.0343  -30.3017   24.6229 C   0  0  0  0  0  0
  -27.6053  -32.4339   25.7518 C   0  0  0  0  0  0
  -27.5576  -37.1799   24.8465 C   0  0  0  0  0  0
  -21.4207  -29.3033   22.3679 N   0  0  0  0  0  0
  -26.4287  -37.3777   23.9409 N   0  0  0  0  0  0
  -24.6939  -31.0560   22.0984 N   0  0  0  0  0  0
  -23.4213  -28.8131   23.3008 O   0  0  0  0  0  0
  -28.3090  -26.3974   20.2053 O   0  0  0  0  0  0
  -26.5625  -34.8915   22.4672 O   0  0  0  0  0  0
  -23.5451  -32.1375   23.7332 O   0  0  0  0  0  0
  -29.0274  -23.7909   20.5402 C   0  0  0  0  0  0
  -28.7768  -22.2755   20.0501 C   0  0  0  0  0  0
  -28.0668  -24.9410   19.9659 C   0  0  0  0  0  0
  -29.4249  -21.0266   20.8263 C   0  0  0  0  0  0
  -29.9212  -17.1090   20.1642 C   0  0  0  0  0  0
  -29.7048  -18.4840   20.9667 C   0  0  0  0  0  0
  -29.7970  -15.7801   20.8133 O   0  0  0  0  0  0
  -29.3346  -19.6934   20.1911 O   0  0  0  0  0  0
  -31.4782  -12.5121   19.1925 H   0  0  0  0  0  0
  -30.3597  -11.4012   19.9354 H   0  0  0  0  0  0
  -29.7864  -11.7377   17.5110 H   0  0  0  0  0  0
  -29.6667  -13.4625   17.7548 H   0  0  0  0  0  0
  -27.8728  -11.2949   18.8917 H   0  0  0  0  0  0
  -27.3896  -12.5625   17.7965 H   0  0  0  0  0  0
  -27.6595  -14.2632   19.5041 H   0  0  0  0  0  0
  -28.6740  -12.1313   21.4378 H   0  0  0  0  0  0
  -28.4323  -13.8200   21.8108 H   0  0  0  0  0  0
  -25.2764   -9.5696   22.4756 H   0  0  0  0  0  0
  -24.0021   -7.4635   22.7461 H   0  0  0  0  0  0
  -21.0854   -8.8772   19.8946 H   0  0  0  0  0  0
  -22.3700  -10.9675   19.6170 H   0  0  0  0  0  0
  -21.1992   -7.6149   23.9731 H   0  0  0  0  0  0
  -21.1498   -6.0516   25.9080 H   0  0  0  0  0  0
  -22.0591   -2.7622   23.2835 H   0  0  0  0  0  0
  -22.4078  -11.9886   22.4826 H   0  0  0  0  0  0
  -21.1088  -13.1258   22.2619 H   0  0  0  0  0  0
  -24.6633  -15.8543   20.5433 H   0  0  0  0  0  0
  -26.2880  -15.6344   20.1313 H   0  0  0  0  0  0
  -26.7202  -32.5417   23.1100 H   0  0  0  0  0  0
  -25.0081  -33.9711   25.0421 H   0  0  0  0  0  0
  -22.7197  -31.3035   21.4034 H   0  0  0  0  0  0
  -23.3750  -35.9618   23.3303 H   0  0  0  0  0  0
  -24.3572  -36.8909   22.2052 H   0  0  0  0  0  0
  -23.7238  -37.6488   23.6660 H   0  0  0  0  0  0
  -26.1082  -31.5410   20.6106 H   0  0  0  0  0  0
  -26.8485  -30.8245   22.0109 H   0  0  0  0  0  0
  -28.1142  -28.9417   21.2058 H   0  0  0  0  0  0
  -25.9418  -25.9365   18.9727 H   0  0  0  0  0  0
  -23.9682  -27.3278   18.9910 H   0  0  0  0  0  0
  -23.7627  -30.5991   19.4049 H   0  0  0  0  0  0
  -22.7596  -29.2523   19.8554 H   0  0  0  0  0  0
  -25.1293  -36.1930   25.0820 H   0  0  0  0  0  0
  -20.9973  -28.3246   24.1400 H   0  0  0  0  0  0
  -20.5688  -26.2281   23.3601 H   0  0  0  0  0  0
  -21.6653  -26.7432   22.1199 H   0  0  0  0  0  0
  -19.6926  -25.6287   21.1233 H   0  0  0  0  0  0
  -19.6705  -27.3186   20.6734 H   0  0  0  0  0  0
  -17.4212  -26.6652   21.4021 H   0  0  0  0  0  0
  -18.0354  -26.0061   22.9019 H   0  0  0  0  0  0
  -19.7936  -30.7254   24.2268 H   0  0  0  0  0  0
  -17.5019  -31.6260   24.5153 H   0  0  0  0  0  0
  -15.5358  -30.2973   23.7653 H   0  0  0  0  0  0
  -15.8679  -28.0800   22.7082 H   0  0  0  0  0  0
  -24.5904  -30.7086   25.7798 H   0  0  0  0  0  0
  -24.8910  -32.2906   26.4890 H   0  0  0  0  0  0
  -25.8044  -30.8925   27.0254 H   0  0  0  0  0  0
  -26.2928  -29.6775   24.1230 H   0  0  0  0  0  0
  -27.3995  -29.7271   25.4751 H   0  0  0  0  0  0
  -27.8818  -30.4288   23.9493 H   0  0  0  0  0  0
  -27.2663  -33.3642   26.2091 H   0  0  0  0  0  0
  -28.3867  -32.6904   25.0352 H   0  0  0  0  0  0
  -28.0727  -31.8478   26.5442 H   0  0  0  0  0  0
  -28.2596  -38.0095   24.7513 H   0  0  0  0  0  0
  -28.1070  -36.2624   24.6290 H   0  0  0  0  0  0
  -27.2291  -37.1450   25.8868 H   0  0  0  0  0  0
  -20.9392  -29.8759   21.6890 H   0  0  0  0  0  0
  -26.0166  -38.2851   24.1419 H   0  0  0  0  0  0
  -30.0595  -24.0548   20.3074 H   0  0  0  0  0  0
  -28.9612  -23.8142   21.6283 H   0  0  0  0  0  0
  -27.6994  -22.1104   20.0148 H   0  0  0  0  0  0
  -29.1054  -22.2213   19.0119 H   0  0  0  0  0  0
  -27.0859  -24.6872   20.3702 H   0  0  0  0  0  0
  -27.9944  -24.8080   18.8857 H   0  0  0  0  0  0
  -28.9651  -20.9629   21.8144 H   0  0  0  0  0  0
  -30.4817  -21.2347   21.0011 H   0  0  0  0  0  0
  -30.8767  -17.1694   19.6425 H   0  0  0  0  0  0
  -29.1746  -17.0918   19.3694 H   0  0  0  0  0  0
  -30.6151  -18.6955   21.5296 H   0  0  0  0  0  0
  -28.9209  -18.3341   21.7095 H   0  0  0  0  0  0
  1 25  1  0  0  0
  1 30  2  0  0  0
  1 77  1  0  0  0
  2  3  1  0  0  0
  2 25  1  0  0  0
  2 79  1  0  0  0
  2 80  1  0  0  0
  3  4  1  0  0  0
  3 81  1  0  0  0
  3 82  1  0  0  0
  4  5  1  0  0  0
  4 83  1  0  0  0
  4 84  1  0  0  0
  5  6  1  0  0  0
  5 26  1  0  0  0
  5 85  1  0  0  0
  6 25  1  0  0  0
  6 86  1  0  0  0
  6 87  1  0  0  0
  7  8  2  0  0  0
  7 26  1  0  0  0
  7 29  1  0  0  0
  8  9  1  0  0  0
  8 22  1  0  0  0
  9 10  1  0  0  0
  9 27  2  0  0  0
 10 11  2  0  0  0
 10 15  1  0  0  0
 11 12  1  0  0  0
 11 88  1  0  0  0
 12 13  2  0  0  0
 12 89  1  0  0  0
 13 14  1  0  0  0
 13 31  1  0  0  0
 14 15  2  0  0  0
 14 90  1  0  0  0
 15 91  1  0  0  0
 16 17  2  0  0  0
 16 21  1  0  0  0
 16 31  1  0  0  0
 17 18  1  0  0  0
 17 92  1  0  0  0
 18 19  2  0  0  0
 18 93  1  0  0  0
 19 20  1  0  0  0
 19 24  1  0  0  0
 20 21  2  0  0  0
 20 94  1  0  0  0
 21 23  1  0  0  0
 22 28  1  0  0  0
 22 32  2  0  0  0
 26 27  1  0  0  0
 28 95  1  0  0  0
 28 96  1  0  0  0
 29 97  1  0  0  0
 29 98  1  0  0  0
 33 34  1  0  0  0
 33 66  1  0  0  0
 33 70  2  0  0  0
 34 36  1  0  0  0
 34 59  1  0  0  0
 34 99  1  0  0  0
 35 44  2  0  0  0
 35 45  1  0  0  0
 35 68  1  0  0  0
 36 56  1  0  0  0
 36100  1  0  0  0
 37 39  1  0  0  0
 37 47  1  0  0  0
 37 66  1  0  0  0
 37101  1  0  0  0
 38 43  2  0  0  0
 38 46  1  0  0  0
 38 47  1  0  0  0
 39 64  1  0  0  0
 39 67  2  0  0  0
 40 52  1  0  0  0
 40 53  2  0  0  0
 40 58  1  0  0  0
 41102  1  0  0  0
 41103  1  0  0  0
 41104  1  0  0  0
 41 48  1  0  0  0
 42 43  1  0  0  0
 42 66  1  0  0  0
 42105  1  0  0  0
 42106  1  0  0  0
 43 44  1  0  0  0
 44107  1  0  0  0
 45 46  2  0  0  0
 45108  1  0  0  0
 46109  1  0  0  0
 47110  1  0  0  0
 47111  1  0  0  0
 48 56  1  0  0  0
 48 65  1  0  0  0
 48112  1  0  0  0
 49 50  1  0  0  0
 49 53  1  0  0  0
 49 64  1  0  0  0
 49113  1  0  0  0
 50 51  1  0  0  0
 50114  1  0  0  0
 50115  1  0  0  0
 51 52  1  0  0  0
 51116  1  0  0  0
 51117  1  0  0  0
 52118  1  0  0  0
 52119  1  0  0  0
 53 54  1  0  0  0
 54 55  2  0  0  0
 54120  1  0  0  0
 55 57  1  0  0  0
 55121  1  0  0  0
 56 69  2  0  0  0
 57 58  2  0  0  0
 57122  1  0  0  0
 58123  1  0  0  0
 59 60  1  0  0  0
 59 61  1  0  0  0
 59 62  1  0  0  0
 60124  1  0  0  0
 60125  1  0  0  0
 60126  1  0  0  0
 61127  1  0  0  0
 61128  1  0  0  0
 61129  1  0  0  0
 62130  1  0  0  0
 62131  1  0  0  0
 62132  1  0  0  0
 63 65  1  0  0  0
 63133  1  0  0  0
 63134  1  0  0  0
 63135  1  0  0  0
 64136  1  0  0  0
 65137  1  0  0  0
 68 73  1  0  0  0
 71 72  1  0  0  0
 71 73  1  0  0  0
 71138  1  0  0  0
 71139  1  0  0  0
 72 74  1  0  0  0
 72140  1  0  0  0
 72141  1  0  0  0
 73142  1  0  0  0
 73143  1  0  0  0
 74 78  1  0  0  0
 74144  1  0  0  0
 74145  1  0  0  0
 75 76  1  0  0  0
 75 77  1  0  0  0
 75146  1  0  0  0
 75147  1  0  0  0
 76 78  1  0  0  0
 76148  1  0  0  0
 76149  1  0  0  0
M  ISO  4   1 100  68 101  73 101  77 100
M  END
> <chiral flag>
0

> <version>
0

> <s_m_source_file>
/data/baiqing/PycharmProjects/Reinvent-master-3.2/result/LINK_invent/BTK/process_docking_weight1_custom_sum_contain_oxygen_bond_distance_aromatic_linkinvent_7_9_3/rearranged_h_0002.sdf

> <i_m_source_file_index>
41

> <r_mmod_Potential_Energy-OPLS-2005>
90.5141677856445

> <r_mmod_Stretch_Energy-OPLS-2005>
107.234436035156

> <r_mmod_Bend_Energy-OPLS-2005>
151.484832763672

> <r_mmod_Torsional_Energy-OPLS-2005>
177.245071411133

> <r_mmod_Improper_Torsional_Energy-OPLS-2005>
4.31499290466309

> <r_mmod_Van_der_Waal_Energy-OPLS-2005>
123.900367736816

> <r_mmod_Electrostatic_Energy-OPLS-2005>
-345.496734619141

> <r_mmod_Solvation_Energy-OPLS-2005>
-193.910125732422

> <b_mmod_Minimization_Converged-OPLS-2005>
0

> <r_mmod_RMS_Derivative-OPLS-2005>
1.45265758037567

$$$$
41
                    3D
 Structure written by MMmdl.
140147  0  0  1  0            999 V2000
  -30.1611  -16.0041   20.3080 C   0  0  0  0  0  0
  -30.3940  -13.3709   19.5193 C   0  0  0  0  0  0
  -29.5602  -12.7495   18.3505 C   0  0  0  0  0  0
  -28.1679  -12.3098   18.8207 C   0  0  0  0  0  0
  -27.5837  -13.3431   19.8035 C   0  0  2  0  0  0
  -28.5794  -13.8362   20.8889 C   0  0  0  0  0  0
  -25.2278  -13.8329   20.5856 C   0  0  0  0  0  0
  -24.1700  -13.0433   20.9315 C   0  0  0  0  0  0
  -24.6450  -11.6960   20.8763 C   0  0  0  0  0  0
  -23.9156  -10.4295   21.0384 C   0  0  0  0  0  0
  -24.3676   -9.4207   21.9173 C   0  0  0  0  0  0
  -23.6326   -8.2253   22.0753 C   0  0  0  0  0  0
  -22.4305   -8.0296   21.3544 C   0  0  0  0  0  0
  -21.9960   -9.0273   20.4641 C   0  0  0  0  0  0
  -22.7315  -10.2138   20.3042 C   0  0  0  0  0  0
  -21.6863   -6.0747   22.5279 C   0  0  0  0  0  0
  -21.4022   -6.5646   23.8213 C   0  0  0  0  0  0
  -21.3661   -5.6796   24.9173 C   0  0  0  0  0  0
  -21.6044   -4.3059   24.7222 C   0  0  0  0  0  0
  -21.8818   -3.8153   23.4342 C   0  0  0  0  0  0
  -21.9196   -4.6972   22.3400 C   0  0  0  0  0  0
  -22.7702  -13.5137   21.1934 C   0  0  0  0  0  0
  -22.1662   -4.2158   21.0977 F   0  0  0  0  0  0
  -21.5626   -3.4540   25.7734 F   0  0  0  0  0  0
  -29.6775  -14.5802   20.1919 N   0  0  0  0  0  0
  -26.2769  -12.9729   20.3291 N   0  0  0  0  0  0
  -25.9412  -11.6758   20.5682 N   0  0  0  0  0  0
  -22.0374  -12.8106   22.0483 N   0  0  0  0  0  0
  -25.3817  -15.2078   20.4306 N   0  0  0  0  0  0
  -31.4087  -15.8722   20.2822 O   0  0  0  0  0  0
  -21.6655   -6.8899   21.4244 O   0  0  0  0  0  0
  -22.3368  -14.5432   20.6768 O   0  0  0  0  0  0
  -24.7122  -31.7741   23.1306 C   0  0  0  0  0  0
  -25.9575  -32.4339   23.7956 C   0  0  1  0  0  0
  -27.2357  -26.4414   20.2493 C   0  0  0  0  0  0
  -25.6043  -33.8173   24.1821 N   0  0  0  0  0  0
  -23.5502  -30.3697   21.4913 C   0  0  2  0  0  0
  -25.0042  -28.6446   20.1367 C   0  0  0  0  0  0
  -22.7896  -29.4343   22.4700 C   0  0  0  0  0  0
  -18.0162  -28.1569   22.8214 C   0  0  0  0  0  0
  -24.1498  -36.7093   23.2657 C   0  0  0  0  0  0
  -26.1405  -30.4200   21.4324 C   0  0  0  0  0  0
  -26.2010  -28.9529   20.7936 C   0  0  0  0  0  0
  -27.2917  -27.8910   20.8024 C   0  0  0  0  0  0
  -25.9991  -26.4075   19.5352 C   0  0  0  0  0  0
  -24.9575  -27.3998   19.4818 C   0  0  0  0  0  0
  -23.8153  -29.6344   20.1422 C   0  0  0  0  0  0
  -25.4158  -36.2817   24.0263 C   0  0  1  0  0  0
  -20.6073  -28.3875   23.0881 C   0  0  2  0  0  0
  -20.7786  -26.9756   22.4608 C   0  0  0  0  0  0
  -19.5498  -26.4216   21.7088 C   0  0  0  0  0  0
  -18.1097  -26.8638   22.0237 C   0  0  0  0  0  0
  -19.1588  -28.8842   23.2637 C   0  0  0  0  0  0
  -18.9570  -30.1345   23.8911 C   0  0  0  0  0  0
  -17.6624  -30.6560   24.0765 C   0  0  0  0  0  0
  -25.9160  -34.9216   23.4892 C   0  0  0  0  0  0
  -16.5419  -29.9202   23.6574 C   0  0  0  0  0  0
  -16.7219  -28.6723   23.0397 C   0  0  0  0  0  0
  -26.4648  -31.6466   25.0680 C   0  0  0  0  0  0
  -25.3637  -31.3855   26.1238 C   0  0  0  0  0  0
  -27.0614  -30.2776   24.6755 C   0  0  0  0  0  0
  -27.6047  -32.4377   25.7524 C   0  0  0  0  0  0
  -27.5558  -37.1705   24.8467 C   0  0  0  0  0  0
  -21.4495  -29.3435   22.3578 N   0  0  0  0  0  0
  -26.4262  -37.3606   23.9409 N   0  0  0  0  0  0
  -24.8283  -30.8941   22.0696 N   0  0  0  0  0  0
  -23.4210  -28.7802   23.3033 O   0  0  0  0  0  0
  -28.1967  -25.1262   20.2226 O   0  0  0  0  0  0
  -26.5824  -34.8842   22.4527 O   0  0  0  0  0  0
  -23.6085  -32.0940   23.6097 O   0  0  0  0  0  0
  -28.7705  -21.2825   19.9969 C   0  0  0  0  0  0
  -29.3625  -19.3536   20.6014 C   0  0  0  0  0  0
  -28.2110  -23.2498   20.5175 C   0  0  0  0  0  0
  -29.4079  -17.4693   20.2741 N   0  0  0  0  0  0
  -31.3466  -13.7011   19.1035 H   0  0  0  0  0  0
  -30.6640  -12.6081   20.2520 H   0  0  0  0  0  0
  -30.0920  -11.9085   17.9034 H   0  0  0  0  0  0
  -29.4512  -13.4961   17.5625 H   0  0  0  0  0  0
  -28.2677  -11.3481   19.3257 H   0  0  0  0  0  0
  -27.5014  -12.1499   17.9722 H   0  0  0  0  0  0
  -27.3925  -14.2099   19.1687 H   0  0  0  0  0  0
  -28.9347  -13.0208   21.5211 H   0  0  0  0  0  0
  -28.0774  -14.5353   21.5592 H   0  0  0  0  0  0
  -25.2813   -9.5677   22.4762 H   0  0  0  0  0  0
  -24.0020   -7.4647   22.7483 H   0  0  0  0  0  0
  -21.0888   -8.8807   19.8948 H   0  0  0  0  0  0
  -22.3776  -10.9680   19.6153 H   0  0  0  0  0  0
  -21.2018   -7.6155   23.9719 H   0  0  0  0  0  0
  -21.1482   -6.0525   25.9077 H   0  0  0  0  0  0
  -22.0594   -2.7615   23.2840 H   0  0  0  0  0  0
  -22.4027  -11.9789   22.4882 H   0  0  0  0  0  0
  -21.0974  -13.1085   22.2674 H   0  0  0  0  0  0
  -24.6092  -15.8546   20.5480 H   0  0  0  0  0  0
  -26.2271  -15.6547   20.1017 H   0  0  0  0  0  0
  -26.7689  -32.4750   23.0689 H   0  0  0  0  0  0
  -25.0068  -33.9166   24.9896 H   0  0  0  0  0  0
  -22.8946  -31.2157   21.2742 H   0  0  0  0  0  0
  -23.3788  -35.9392   23.3244 H   0  0  0  0  0  0
  -24.3558  -36.8846   22.2087 H   0  0  0  0  0  0
  -23.7232  -37.6231   23.6804 H   0  0  0  0  0  0
  -26.3681  -31.1235   20.6306 H   0  0  0  0  0  0
  -26.9832  -30.5006   22.1060 H   0  0  0  0  0  0
  -28.1975  -28.1537   21.3305 H   0  0  0  0  0  0
  -25.7911  -25.4872   19.0076 H   0  0  0  0  0  0
  -24.0632  -27.1495   18.9276 H   0  0  0  0  0  0
  -24.0136  -30.3783   19.3698 H   0  0  0  0  0  0
  -22.9130  -29.1146   19.8155 H   0  0  0  0  0  0
  -25.1379  -36.1542   25.0751 H   0  0  0  0  0  0
  -20.9993  -28.3319   24.1064 H   0  0  0  0  0  0
  -21.1583  -26.3040   23.2422 H   0  0  0  0  0  0
  -21.6163  -26.9721   21.7601 H   0  0  0  0  0  0
  -19.3880  -26.0269   22.7114 H   0  0  0  0  0  0
  -19.6128  -27.3462   21.1307 H   0  0  0  0  0  0
  -17.5815  -27.0283   21.0810 H   0  0  0  0  0  0
  -17.5017  -26.0951   22.5175 H   0  0  0  0  0  0
  -19.8097  -30.7074   24.2302 H   0  0  0  0  0  0
  -17.5302  -31.6181   24.5523 H   0  0  0  0  0  0
  -15.5460  -30.3152   23.8048 H   0  0  0  0  0  0
  -15.8546  -28.1225   22.6995 H   0  0  0  0  0  0
  -24.5858  -30.7178   25.7514 H   0  0  0  0  0  0
  -24.8793  -32.3100   26.4389 H   0  0  0  0  0  0
  -25.7743  -30.9184   27.0198 H   0  0  0  0  0  0
  -26.3378  -29.6321   24.1770 H   0  0  0  0  0  0
  -27.3966  -29.7315   25.5583 H   0  0  0  0  0  0
  -27.9387  -30.3845   24.0374 H   0  0  0  0  0  0
  -27.2557  -33.3779   26.1808 H   0  0  0  0  0  0
  -28.4013  -32.6778   25.0469 H   0  0  0  0  0  0
  -28.0543  -31.8704   26.5683 H   0  0  0  0  0  0
  -28.2525  -38.0046   24.7520 H   0  0  0  0  0  0
  -28.1104  -36.2565   24.6288 H   0  0  0  0  0  0
  -27.2271  -37.1326   25.8867 H   0  0  0  0  0  0
  -20.9859  -29.9264   21.6745 H   0  0  0  0  0  0
  -26.0065  -38.2641   24.1431 H   0  0  0  0  0  0
  -27.9479  -21.0312   19.3274 H   0  0  0  0  0  0
  -29.5799  -21.5046   19.3014 H   0  0  0  0  0  0
  -28.8623  -19.3135   21.5693 H   0  0  0  0  0  0
  -30.4044  -19.5229   20.8749 H   0  0  0  0  0  0
  -28.6621  -23.2870   21.5090 H   0  0  0  0  0  0
  -27.1534  -23.1048   20.7380 H   0  0  0  0  0  0
  -28.4467  -17.2150   20.0887 H   0  0  0  0  0  0
  1 25  1  0  0  0
  1 30  2  0  0  0
  1 74  1  0  0  0
  2  3  1  0  0  0
  2 25  1  0  0  0
  2 75  1  0  0  0
  2 76  1  0  0  0
  3  4  1  0  0  0
  3 77  1  0  0  0
  3 78  1  0  0  0
  4  5  1  0  0  0
  4 79  1  0  0  0
  4 80  1  0  0  0
  5  6  1  0  0  0
  5 26  1  0  0  0
  5 81  1  0  0  0
  6 25  1  0  0  0
  6 82  1  0  0  0
  6 83  1  0  0  0
  7  8  2  0  0  0
  7 26  1  0  0  0
  7 29  1  0  0  0
  8  9  1  0  0  0
  8 22  1  0  0  0
  9 10  1  0  0  0
  9 27  2  0  0  0
 10 11  2  0  0  0
 10 15  1  0  0  0
 11 12  1  0  0  0
 11 84  1  0  0  0
 12 13  2  0  0  0
 12 85  1  0  0  0
 13 14  1  0  0  0
 13 31  1  0  0  0
 14 15  2  0  0  0
 14 86  1  0  0  0
 15 87  1  0  0  0
 16 17  2  0  0  0
 16 21  1  0  0  0
 16 31  1  0  0  0
 17 18  1  0  0  0
 17 88  1  0  0  0
 18 19  2  0  0  0
 18 89  1  0  0  0
 19 20  1  0  0  0
 19 24  1  0  0  0
 20 21  2  0  0  0
 20 90  1  0  0  0
 21 23  1  0  0  0
 22 28  1  0  0  0
 22 32  2  0  0  0
 26 27  1  0  0  0
 28 91  1  0  0  0
 28 92  1  0  0  0
 29 93  1  0  0  0
 29 94  1  0  0  0
 33 34  1  0  0  0
 33 66  1  0  0  0
 33 70  2  0  0  0
 34 36  1  0  0  0
 34 59  1  0  0  0
 34 95  1  0  0  0
 35 44  2  0  0  0
 35 45  1  0  0  0
 35 68  1  0  0  0
 36 56  1  0  0  0
 36 96  1  0  0  0
 37 39  1  0  0  0
 37 47  1  0  0  0
 37 66  1  0  0  0
 37 97  1  0  0  0
 38 43  2  0  0  0
 38 46  1  0  0  0
 38 47  1  0  0  0
 39 64  1  0  0  0
 39 67  2  0  0  0
 40 52  1  0  0  0
 40 53  2  0  0  0
 40 58  1  0  0  0
 41 98  1  0  0  0
 41 99  1  0  0  0
 41100  1  0  0  0
 41 48  1  0  0  0
 42 43  1  0  0  0
 42 66  1  0  0  0
 42101  1  0  0  0
 42102  1  0  0  0
 43 44  1  0  0  0
 44103  1  0  0  0
 45 46  2  0  0  0
 45104  1  0  0  0
 46105  1  0  0  0
 47106  1  0  0  0
 47107  1  0  0  0
 48 56  1  0  0  0
 48 65  1  0  0  0
 48108  1  0  0  0
 49 50  1  0  0  0
 49 53  1  0  0  0
 49 64  1  0  0  0
 49109  1  0  0  0
 50 51  1  0  0  0
 50110  1  0  0  0
 50111  1  0  0  0
 51 52  1  0  0  0
 51112  1  0  0  0
 51113  1  0  0  0
 52114  1  0  0  0
 52115  1  0  0  0
 53 54  1  0  0  0
 54 55  2  0  0  0
 54116  1  0  0  0
 55 57  1  0  0  0
 55117  1  0  0  0
 56 69  2  0  0  0
 57 58  2  0  0  0
 57118  1  0  0  0
 58119  1  0  0  0
 59 60  1  0  0  0
 59 61  1  0  0  0
 59 62  1  0  0  0
 60120  1  0  0  0
 60121  1  0  0  0
 60122  1  0  0  0
 61123  1  0  0  0
 61124  1  0  0  0
 61125  1  0  0  0
 62126  1  0  0  0
 62127  1  0  0  0
 62128  1  0  0  0
 63 65  1  0  0  0
 63129  1  0  0  0
 63130  1  0  0  0
 63131  1  0  0  0
 64132  1  0  0  0
 65133  1  0  0  0
 68 73  1  0  0  0
 71 72  1  0  0  0
 71 73  1  0  0  0
 71134  1  0  0  0
 71135  1  0  0  0
 72 74  1  0  0  0
 72136  1  0  0  0
 72137  1  0  0  0
 73138  1  0  0  0
 73139  1  0  0  0
 74140  1  0  0  0
M  ISO  4   1 100  68 101  73 101  74 100
M  END
> <chiral flag>
0

> <version>
0

> <s_m_source_file>
/data/baiqing/PycharmProjects/Reinvent-master-3.2/result/LINK_invent/BTK/process_docking_weight1_custom_sum_contain_oxygen_bond_distance_aromatic_linkinvent_7_9_3/rearranged_h_0002.sdf

> <i_m_source_file_index>
42

> <r_mmod_Potential_Energy-OPLS-2005>
4439.1796875

> <r_mmod_Stretch_Energy-OPLS-2005>
1928.78686523438

> <r_mmod_Bend_Energy-OPLS-2005>
1134.07287597656

> <r_mmod_Torsional_Energy-OPLS-2005>
253.740341186523

> <r_mmod_Improper_Torsional_Energy-OPLS-2005>
5.21059560775757

> <r_mmod_Van_der_Waal_Energy-OPLS-2005>
136.971328735352

> <r_mmod_Electrostatic_Energy-OPLS-2005>
-343.119842529297

> <r_mmod_Solvation_Energy-OPLS-2005>
-223.109710693359

> <b_mmod_Minimization_Converged-OPLS-2005>
0

> <r_mmod_RMS_Derivative-OPLS-2005>
0.0710311159491539

$$$$
42
                    3D
 Structure written by MMmdl.
154162  0  0  1  0            999 V2000
  -30.6781  -14.5756   20.5067 C   0  0  0  0  0  0
  -30.4152  -12.3573   19.4332 C   0  0  0  0  0  0
  -29.4939  -12.4998   18.2041 C   0  0  0  0  0  0
  -28.0149  -12.3559   18.6179 C   0  0  0  0  0  0
  -27.6484  -13.2221   19.8552 C   0  0  2  0  0  0
  -28.6947  -13.0852   20.9818 C   0  0  0  0  0  0
  -25.2557  -13.8187   20.5691 C   0  0  0  0  0  0
  -24.1836  -13.0432   20.9210 C   0  0  0  0  0  0
  -24.6412  -11.6908   20.8749 C   0  0  0  0  0  0
  -23.9088  -10.4285   21.0421 C   0  0  0  0  0  0
  -24.3630   -9.4199   21.9202 C   0  0  0  0  0  0
  -23.6305   -8.2234   22.0763 C   0  0  0  0  0  0
  -22.4288   -8.0284   21.3557 C   0  0  0  0  0  0
  -21.9929   -9.0263   20.4659 C   0  0  0  0  0  0
  -22.7266  -10.2138   20.3065 C   0  0  0  0  0  0
  -21.6853   -6.0741   22.5292 C   0  0  0  0  0  0
  -21.4014   -6.5638   23.8232 C   0  0  0  0  0  0
  -21.3663   -5.6794   24.9188 C   0  0  0  0  0  0
  -21.6030   -4.3059   24.7241 C   0  0  0  0  0  0
  -21.8819   -3.8147   23.4365 C   0  0  0  0  0  0
  -21.9196   -4.6962   22.3416 C   0  0  0  0  0  0
  -22.7861  -13.5230   21.1868 C   0  0  0  0  0  0
  -22.1665   -4.2141   21.1001 F   0  0  0  0  0  0
  -21.5624   -3.4545   25.7759 F   0  0  0  0  0  0
  -30.0079  -13.3913   20.4004 N   0  0  0  0  0  0
  -26.2973  -12.9378   20.3296 N   0  0  0  0  0  0
  -25.9339  -11.6523   20.5749 N   0  0  0  0  0  0
  -22.0508  -12.8213   22.0416 N   0  0  0  0  0  0
  -25.4257  -15.1906   20.4108 N   0  0  0  0  0  0
  -31.8576  -14.6825   20.1604 O   0  0  0  0  0  0
  -21.6650   -6.8881   21.4258 O   0  0  0  0  0  0
  -22.3555  -14.5548   20.6734 O   0  0  0  0  0  0
  -24.6206  -31.8612   23.2067 C   0  0  0  0  0  0
  -25.9070  -32.4784   23.8375 C   0  0  1  0  0  0
  -27.2150  -27.3711   20.1120 C   0  0  0  0  0  0
  -25.5893  -33.8585   24.2305 N   0  0  0  0  0  0
  -23.4122  -30.4837   21.5505 C   0  0  2  0  0  0
  -24.8562  -28.9476   20.1092 C   0  0  0  0  0  0
  -22.7456  -29.4598   22.4987 C   0  0  0  0  0  0
  -18.0276  -28.1374   22.8475 C   0  0  0  0  0  0
  -24.1492  -36.7295   23.2646 C   0  0  0  0  0  0
  -25.9466  -30.8129   21.3664 C   0  0  0  0  0  0
  -26.0229  -29.4443   20.7082 C   0  0  0  0  0  0
  -27.2112  -28.6652   20.6981 C   0  0  0  0  0  0
  -26.0332  -26.9055   19.5029 C   0  0  0  0  0  0
  -24.8596  -27.6825   19.4980 C   0  0  0  0  0  0
  -23.6221  -29.8215   20.1631 C   0  0  0  0  0  0
  -25.4110  -36.3081   24.0338 C   0  0  1  0  0  0
  -20.5869  -28.3641   23.1322 C   0  0  2  0  0  0
  -20.6767  -26.9375   22.5419 C   0  0  0  0  0  0
  -19.5752  -26.6379   21.5217 C   0  0  0  0  0  0
  -18.1927  -26.7919   22.1622 C   0  0  0  0  0  0
  -19.1526  -28.8833   23.2878 C   0  0  0  0  0  0
  -18.9458  -30.1448   23.8877 C   0  0  0  0  0  0
  -17.6449  -30.6582   24.0562 C   0  0  0  0  0  0
  -25.9033  -34.9449   23.5129 C   0  0  0  0  0  0
  -16.5340  -29.9072   23.6332 C   0  0  0  0  0  0
  -16.7251  -28.6497   23.0332 C   0  0  0  0  0  0
  -26.4475  -31.6586   25.0726 C   0  0  0  0  0  0
  -25.3713  -31.3720   26.1460 C   0  0  0  0  0  0
  -27.0326  -30.3023   24.6145 C   0  0  0  0  0  0
  -27.6052  -32.4318   25.7477 C   0  0  0  0  0  0
  -27.5582  -37.1792   24.8469 C   0  0  0  0  0  0
  -21.4171  -29.3007   22.3740 N   0  0  0  0  0  0
  -26.4294  -37.3769   23.9420 N   0  0  0  0  0  0
  -24.6791  -31.0669   22.0995 N   0  0  0  0  0  0
  -23.4204  -28.8154   23.3058 O   0  0  0  0  0  0
  -28.3313  -26.5469   20.1228 O   0  0  0  0  0  0
  -26.5607  -34.8901   22.4696 O   0  0  0  0  0  0
  -23.5374  -32.1411   23.7417 O   0  0  0  0  0  0
  -31.9303  -18.2364   22.6464 C   0  0  0  0  0  0
  -31.4598  -19.4508   22.1221 C   0  0  0  0  0  0
  -31.4144  -17.0185   22.1811 C   0  0  0  0  0  0
  -29.9044  -18.2400   20.6862 C   0  0  0  0  0  0
  -30.4391  -19.4914   21.1455 C   0  0  0  0  0  0
  -30.4136  -16.9868   21.1845 C   0  0  0  0  0  0
  -30.0703  -20.8799   20.6235 C   0  0  0  0  0  0
  -28.5533  -23.9338   20.1674 C   0  0  0  0  0  0
  -28.4109  -22.7123   21.1503 C   0  0  0  0  0  0
  -28.1794  -25.2974   20.8630 C   0  0  0  0  0  0
  -29.9287  -15.6886   20.7656 N   0  0  0  0  0  0
  -28.8037  -21.3259   20.7480 N   0  0  0  0  0  0
  -30.9748  -21.6397   20.2668 O   0  0  0  0  0  0
  -31.4629  -12.4414   19.1403 H   0  0  0  0  0  0
  -30.3067  -11.3648   19.8762 H   0  0  0  0  0  0
  -29.7449  -11.7489   17.4548 H   0  0  0  0  0  0
  -29.6508  -13.4701   17.7291 H   0  0  0  0  0  0
  -27.8339  -11.3028   18.8352 H   0  0  0  0  0  0
  -27.3649  -12.6079   17.7786 H   0  0  0  0  0  0
  -27.6656  -14.2582   19.5159 H   0  0  0  0  0  0
  -28.6901  -12.0737   21.3906 H   0  0  0  0  0  0
  -28.4607  -13.7511   21.8147 H   0  0  0  0  0  0
  -25.2774   -9.5656   22.4788 H   0  0  0  0  0  0
  -24.0008   -7.4611   22.7472 H   0  0  0  0  0  0
  -21.0858   -8.8793   19.8962 H   0  0  0  0  0  0
  -22.3744  -10.9680   19.6164 H   0  0  0  0  0  0
  -21.2006   -7.6147   23.9725 H   0  0  0  0  0  0
  -21.1489   -6.0533   25.9091 H   0  0  0  0  0  0
  -22.0593   -2.7608   23.2885 H   0  0  0  0  0  0
  -22.4145  -11.9859   22.4757 H   0  0  0  0  0  0
  -21.1126  -13.1230   22.2635 H   0  0  0  0  0  0
  -24.6556  -15.8422   20.5168 H   0  0  0  0  0  0
  -26.2667  -15.6308   20.0613 H   0  0  0  0  0  0
  -26.7141  -32.5468   23.1124 H   0  0  0  0  0  0
  -25.0013  -33.9720   25.0434 H   0  0  0  0  0  0
  -22.7039  -31.3031   21.4143 H   0  0  0  0  0  0
  -23.3732  -35.9646   23.3319 H   0  0  0  0  0  0
  -24.3590  -36.8910   22.2062 H   0  0  0  0  0  0
  -23.7248  -37.6502   23.6655 H   0  0  0  0  0  0
  -26.0654  -31.5832   20.6023 H   0  0  0  0  0  0
  -26.8303  -30.8621   21.9922 H   0  0  0  0  0  0
  -28.1144  -29.0392   21.1636 H   0  0  0  0  0  0
  -26.0176  -25.9280   19.0430 H   0  0  0  0  0  0
  -23.9627  -27.3031   19.0263 H   0  0  0  0  0  0
  -23.7289  -30.6026   19.4105 H   0  0  0  0  0  0
  -22.7423  -29.2477   19.8635 H   0  0  0  0  0  0
  -25.1282  -36.1967   25.0826 H   0  0  0  0  0  0
  -20.9933  -28.3201   24.1454 H   0  0  0  0  0  0
  -20.5721  -26.2221   23.3599 H   0  0  0  0  0  0
  -21.6632  -26.7452   22.1194 H   0  0  0  0  0  0
  -19.6919  -25.6301   21.1229 H   0  0  0  0  0  0
  -19.6715  -27.3202   20.6764 H   0  0  0  0  0  0
  -17.4199  -26.6661   21.4007 H   0  0  0  0  0  0
  -18.0316  -26.0070   22.9027 H   0  0  0  0  0  0
  -19.7935  -30.7277   24.2228 H   0  0  0  0  0  0
  -17.5003  -31.6264   24.5153 H   0  0  0  0  0  0
  -15.5330  -30.2957   23.7700 H   0  0  0  0  0  0
  -15.8657  -28.0840   22.7015 H   0  0  0  0  0  0
  -24.5902  -30.7052   25.7795 H   0  0  0  0  0  0
  -24.8856  -32.2877   26.4843 H   0  0  0  0  0  0
  -25.8026  -30.8941   27.0269 H   0  0  0  0  0  0
  -26.2904  -29.6764   24.1172 H   0  0  0  0  0  0
  -27.4057  -29.7277   25.4631 H   0  0  0  0  0  0
  -27.8748  -30.4328   23.9347 H   0  0  0  0  0  0
  -27.2687  -33.3634   26.2044 H   0  0  0  0  0  0
  -28.3851  -32.6846   25.0288 H   0  0  0  0  0  0
  -28.0720  -31.8441   26.5404 H   0  0  0  0  0  0
  -28.2581  -38.0099   24.7501 H   0  0  0  0  0  0
  -28.1085  -36.2621   24.6304 H   0  0  0  0  0  0
  -27.2291  -37.1452   25.8866 H   0  0  0  0  0  0
  -20.9352  -29.8705   21.6936 H   0  0  0  0  0  0
  -26.0188  -38.2852   24.1415 H   0  0  0  0  0  0
  -32.6973  -18.2389   23.4088 H   0  0  0  0  0  0
  -31.8955  -20.3721   22.4824 H   0  0  0  0  0  0
  -31.8026  -16.1058   22.6108 H   0  0  0  0  0  0
  -29.1470  -18.2461   19.9149 H   0  0  0  0  0  0
  -27.9114  -23.7848   19.3003 H   0  0  0  0  0  0
  -29.5751  -23.9903   19.7924 H   0  0  0  0  0  0
  -27.3619  -22.6542   21.4492 H   0  0  0  0  0  0
  -28.9525  -22.9459   22.0680 H   0  0  0  0  0  0
  -28.8144  -25.4042   21.7424 H   0  0  0  0  0  0
  -27.1707  -25.2021   21.2715 H   0  0  0  0  0  0
  -28.9287  -15.5615   20.7467 H   0  0  0  0  0  0
  -28.1315  -20.6064   20.9841 H   0  0  0  0  0  0
  1 25  1  0  0  0
  1 30  2  0  0  0
  1 81  1  0  0  0
  2  3  1  0  0  0
  2 25  1  0  0  0
  2 84  1  0  0  0
  2 85  1  0  0  0
  3  4  1  0  0  0
  3 86  1  0  0  0
  3 87  1  0  0  0
  4  5  1  0  0  0
  4 88  1  0  0  0
  4 89  1  0  0  0
  5  6  1  0  0  0
  5 26  1  0  0  0
  5 90  1  0  0  0
  6 25  1  0  0  0
  6 91  1  0  0  0
  6 92  1  0  0  0
  7  8  2  0  0  0
  7 26  1  0  0  0
  7 29  1  0  0  0
  8  9  1  0  0  0
  8 22  1  0  0  0
  9 10  1  0  0  0
  9 27  2  0  0  0
 10 11  2  0  0  0
 10 15  1  0  0  0
 11 12  1  0  0  0
 11 93  1  0  0  0
 12 13  2  0  0  0
 12 94  1  0  0  0
 13 14  1  0  0  0
 13 31  1  0  0  0
 14 15  2  0  0  0
 14 95  1  0  0  0
 15 96  1  0  0  0
 16 17  2  0  0  0
 16 21  1  0  0  0
 16 31  1  0  0  0
 17 18  1  0  0  0
 17 97  1  0  0  0
 18 19  2  0  0  0
 18 98  1  0  0  0
 19 20  1  0  0  0
 19 24  1  0  0  0
 20 21  2  0  0  0
 20 99  1  0  0  0
 21 23  1  0  0  0
 22 28  1  0  0  0
 22 32  2  0  0  0
 26 27  1  0  0  0
 28100  1  0  0  0
 28101  1  0  0  0
 29102  1  0  0  0
 29103  1  0  0  0
 33 34  1  0  0  0
 33 66  1  0  0  0
 33 70  2  0  0  0
 34 36  1  0  0  0
 34 59  1  0  0  0
 34104  1  0  0  0
 35 44  2  0  0  0
 35 45  1  0  0  0
 35 68  1  0  0  0
 36 56  1  0  0  0
 36105  1  0  0  0
 37 39  1  0  0  0
 37 47  1  0  0  0
 37 66  1  0  0  0
 37106  1  0  0  0
 38 43  2  0  0  0
 38 46  1  0  0  0
 38 47  1  0  0  0
 39 64  1  0  0  0
 39 67  2  0  0  0
 40 52  1  0  0  0
 40 53  2  0  0  0
 40 58  1  0  0  0
 41107  1  0  0  0
 41108  1  0  0  0
 41109  1  0  0  0
 41 48  1  0  0  0
 42 43  1  0  0  0
 42 66  1  0  0  0
 42110  1  0  0  0
 42111  1  0  0  0
 43 44  1  0  0  0
 44112  1  0  0  0
 45 46  2  0  0  0
 45113  1  0  0  0
 46114  1  0  0  0
 47115  1  0  0  0
 47116  1  0  0  0
 48 56  1  0  0  0
 48 65  1  0  0  0
 48117  1  0  0  0
 49 50  1  0  0  0
 49 53  1  0  0  0
 49 64  1  0  0  0
 49118  1  0  0  0
 50 51  1  0  0  0
 50119  1  0  0  0
 50120  1  0  0  0
 51 52  1  0  0  0
 51121  1  0  0  0
 51122  1  0  0  0
 52123  1  0  0  0
 52124  1  0  0  0
 53 54  1  0  0  0
 54 55  2  0  0  0
 54125  1  0  0  0
 55 57  1  0  0  0
 55126  1  0  0  0
 56 69  2  0  0  0
 57 58  2  0  0  0
 57127  1  0  0  0
 58128  1  0  0  0
 59 60  1  0  0  0
 59 61  1  0  0  0
 59 62  1  0  0  0
 60129  1  0  0  0
 60130  1  0  0  0
 60131  1  0  0  0
 61132  1  0  0  0
 61133  1  0  0  0
 61134  1  0  0  0
 62135  1  0  0  0
 62136  1  0  0  0
 62137  1  0  0  0
 63 65  1  0  0  0
 63138  1  0  0  0
 63139  1  0  0  0
 63140  1  0  0  0
 64141  1  0  0  0
 65142  1  0  0  0
 68 80  1  0  0  0
 71 72  2  0  0  0
 71 73  1  0  0  0
 71143  1  0  0  0
 72 75  1  0  0  0
 72144  1  0  0  0
 73 76  2  0  0  0
 73145  1  0  0  0
 74 75  2  0  0  0
 74 76  1  0  0  0
 74146  1  0  0  0
 75 77  1  0  0  0
 76 81  1  0  0  0
 77 82  1  0  0  0
 77 83  2  0  0  0
 78 79  1  0  0  0
 78 80  1  0  0  0
 78147  1  0  0  0
 78148  1  0  0  0
 79 82  1  0  0  0
 79149  1  0  0  0
 79150  1  0  0  0
 80151  1  0  0  0
 80152  1  0  0  0
 81153  1  0  0  0
 82154  1  0  0  0
M  ISO  4   1 100  68 101  80 101  81 100
M  END
> <chiral flag>
0

> <version>
0

> <s_m_source_file>
/data/baiqing/PycharmProjects/Reinvent-master-3.2/result/LINK_invent/BTK/process_docking_weight1_custom_sum_contain_oxygen_bond_distance_aromatic_linkinvent_7_9_3/rearranged_h_0002.sdf

> <i_m_source_file_index>
43

> <r_mmod_Potential_Energy-OPLS-2005>
-6.84075784683228

> <r_mmod_Stretch_Energy-OPLS-2005>
57.7708206176758

> <r_mmod_Bend_Energy-OPLS-2005>
122.469619750977

> <r_mmod_Torsional_Energy-OPLS-2005>
278.912048339844

> <r_mmod_Improper_Torsional_Energy-OPLS-2005>
10.5075798034668

> <r_mmod_Van_der_Waal_Energy-OPLS-2005>
143.249465942383

> <r_mmod_Electrostatic_Energy-OPLS-2005>
-409.116546630859

> <r_mmod_Solvation_Energy-OPLS-2005>
-243.69189453125

> <b_mmod_Minimization_Converged-OPLS-2005>
0

> <r_mmod_RMS_Derivative-OPLS-2005>
3.05263543128967

$$$$
43
                    3D
 Structure written by MMmdl.
154162  0  0  1  0            999 V2000
  -30.6923  -14.4278   20.6154 C   0  0  0  0  0  0
  -30.4280  -12.2927   19.4138 C   0  0  0  0  0  0
  -29.4954  -12.5183   18.2049 C   0  0  0  0  0  0
  -28.0176  -12.3724   18.6173 C   0  0  0  0  0  0
  -27.6690  -13.1971   19.8842 C   0  0  2  0  0  0
  -28.7046  -12.9318   21.0006 C   0  0  0  0  0  0
  -25.2616  -13.8145   20.5684 C   0  0  0  0  0  0
  -24.1843  -13.0439   20.9161 C   0  0  0  0  0  0
  -24.6382  -11.6900   20.8713 C   0  0  0  0  0  0
  -23.9041  -10.4284   21.0381 C   0  0  0  0  0  0
  -24.3595   -9.4210   21.9166 C   0  0  0  0  0  0
  -23.6280   -8.2247   22.0743 C   0  0  0  0  0  0
  -22.4260   -8.0275   21.3544 C   0  0  0  0  0  0
  -21.9890   -9.0240   20.4638 C   0  0  0  0  0  0
  -22.7211  -10.2123   20.3037 C   0  0  0  0  0  0
  -21.6850   -6.0720   22.5271 C   0  0  0  0  0  0
  -21.4010   -6.5626   23.8202 C   0  0  0  0  0  0
  -21.3666   -5.6786   24.9173 C   0  0  0  0  0  0
  -21.6053   -4.3049   24.7229 C   0  0  0  0  0  0
  -21.8821   -3.8134   23.4353 C   0  0  0  0  0  0
  -21.9195   -4.6948   22.3402 C   0  0  0  0  0  0
  -22.7867  -13.5239   21.1847 C   0  0  0  0  0  0
  -22.1658   -4.2131   21.0980 F   0  0  0  0  0  0
  -21.5645   -3.4539   25.7749 F   0  0  0  0  0  0
  -30.0473  -13.2402   20.4719 N   0  0  0  0  0  0
  -26.3051  -12.9300   20.3390 N   0  0  0  0  0  0
  -25.9307  -11.6468   20.5753 N   0  0  0  0  0  0
  -22.0509  -12.8208   22.0395 N   0  0  0  0  0  0
  -25.4379  -15.1853   20.4094 N   0  0  0  0  0  0
  -31.7567  -14.6985   20.0489 O   0  0  0  0  0  0
  -21.6641   -6.8864   21.4231 O   0  0  0  0  0  0
  -22.3544  -14.5553   20.6719 O   0  0  0  0  0  0
  -24.6145  -31.8686   23.2097 C   0  0  0  0  0  0
  -25.9037  -32.4828   23.8396 C   0  0  1  0  0  0
  -27.2391  -27.4494   20.0984 C   0  0  0  0  0  0
  -25.5889  -33.8621   24.2328 N   0  0  0  0  0  0
  -23.4000  -30.4934   21.5517 C   0  0  2  0  0  0
  -24.8475  -28.9555   20.1164 C   0  0  0  0  0  0
  -22.7376  -29.4696   22.4996 C   0  0  0  0  0  0
  -18.0286  -28.1370   22.8501 C   0  0  0  0  0  0
  -24.1472  -36.7334   23.2644 C   0  0  0  0  0  0
  -25.9266  -30.8390   21.3575 C   0  0  0  0  0  0
  -26.0070  -29.4745   20.7058 C   0  0  0  0  0  0
  -27.2085  -28.7316   20.6885 C   0  0  0  0  0  0
  -26.0640  -26.9370   19.5053 C   0  0  0  0  0  0
  -24.8705  -27.6851   19.5116 C   0  0  0  0  0  0
  -23.6086  -29.8233   20.1653 C   0  0  0  0  0  0
  -25.4095  -36.3125   24.0337 C   0  0  1  0  0  0
  -20.5858  -28.3688   23.1305 C   0  0  2  0  0  0
  -20.6778  -26.9422   22.5384 C   0  0  0  0  0  0
  -19.5725  -26.6368   21.5229 C   0  0  0  0  0  0
  -18.1939  -26.7902   22.1678 C   0  0  0  0  0  0
  -19.1522  -28.8840   23.2904 C   0  0  0  0  0  0
  -18.9464  -30.1450   23.8910 C   0  0  0  0  0  0
  -17.6463  -30.6590   24.0569 C   0  0  0  0  0  0
  -25.9028  -34.9481   23.5136 C   0  0  0  0  0  0
  -16.5356  -29.9094   23.6321 C   0  0  0  0  0  0
  -16.7278  -28.6511   23.0345 C   0  0  0  0  0  0
  -26.4467  -31.6610   25.0723 C   0  0  0  0  0  0
  -25.3737  -31.3707   26.1482 C   0  0  0  0  0  0
  -27.0312  -30.3053   24.6095 C   0  0  0  0  0  0
  -27.6029  -32.4337   25.7498 C   0  0  0  0  0  0
  -27.5581  -37.1813   24.8468 C   0  0  0  0  0  0
  -21.4103  -29.3088   22.3733 N   0  0  0  0  0  0
  -26.4291  -37.3804   23.9407 N   0  0  0  0  0  0
  -24.6664  -31.0791   22.0993 N   0  0  0  0  0  0
  -23.4157  -28.8220   23.3020 O   0  0  0  0  0  0
  -28.4067  -26.7197   20.0993 O   0  0  0  0  0  0
  -26.5593  -34.8922   22.4707 O   0  0  0  0  0  0
  -23.5345  -32.1445   23.7500 O   0  0  0  0  0  0
  -29.0264  -18.3837   19.5035 C   0  0  0  0  0  0
  -28.9710  -18.8447   21.8918 C   0  0  0  0  0  0
  -29.5285  -17.0908   19.7630 C   0  0  0  0  0  0
  -29.4644  -17.5496   22.1529 C   0  0  0  0  0  0
  -28.7234  -19.2637   20.5660 C   0  0  0  0  0  0
  -29.7332  -16.6553   21.0953 C   0  0  0  0  0  0
  -28.8631  -21.7983   19.9422 C   0  0  0  0  0  0
  -27.9919  -20.5821   20.3071 C   0  0  0  0  0  0
  -28.7514  -24.3044   19.6924 C   0  0  0  0  0  0
  -28.3103  -25.4089   20.6738 C   0  0  0  0  0  0
  -30.0735  -15.3107   21.4154 N   0  0  0  0  0  0
  -28.2829  -22.9908   20.1426 N   0  0  0  0  0  0
  -29.9885  -21.6754   19.4529 O   0  0  0  0  0  0
  -31.4713  -12.4015   19.1143 H   0  0  0  0  0  0
  -30.3326  -11.2710   19.7836 H   0  0  0  0  0  0
  -29.7341  -11.8111   17.4096 H   0  0  0  0  0  0
  -29.6638  -13.5122   17.7867 H   0  0  0  0  0  0
  -27.8281  -11.3146   18.8024 H   0  0  0  0  0  0
  -27.3638  -12.6563   17.7916 H   0  0  0  0  0  0
  -27.7287  -14.2512   19.6110 H   0  0  0  0  0  0
  -28.6719  -11.8826   21.3004 H   0  0  0  0  0  0
  -28.4515  -13.4885   21.9029 H   0  0  0  0  0  0
  -25.2742   -9.5702   22.4736 H   0  0  0  0  0  0
  -24.0002   -7.4636   22.7453 H   0  0  0  0  0  0
  -21.0831   -8.8748   19.8928 H   0  0  0  0  0  0
  -22.3664  -10.9657   19.6141 H   0  0  0  0  0  0
  -21.1990   -7.6131   23.9705 H   0  0  0  0  0  0
  -21.1492   -6.0515   25.9078 H   0  0  0  0  0  0
  -22.0595   -2.7596   23.2862 H   0  0  0  0  0  0
  -22.4133  -11.9859   22.4748 H   0  0  0  0  0  0
  -21.1127  -13.1215   22.2619 H   0  0  0  0  0  0
  -24.6796  -15.8486   20.5284 H   0  0  0  0  0  0
  -26.3096  -15.6205   20.1316 H   0  0  0  0  0  0
  -26.7103  -32.5530   23.1160 H   0  0  0  0  0  0
  -25.0022  -33.9798   25.0459 H   0  0  0  0  0  0
  -22.6923  -31.3133   21.4128 H   0  0  0  0  0  0
  -23.3712  -35.9692   23.3327 H   0  0  0  0  0  0
  -24.3566  -36.8942   22.2059 H   0  0  0  0  0  0
  -23.7245  -37.6545   23.6645 H   0  0  0  0  0  0
  -26.0383  -31.6048   20.5888 H   0  0  0  0  0  0
  -26.8148  -30.8927   21.9751 H   0  0  0  0  0  0
  -28.1055  -29.1315   21.1412 H   0  0  0  0  0  0
  -26.0700  -25.9611   19.0394 H   0  0  0  0  0  0
  -23.9790  -27.2785   19.0535 H   0  0  0  0  0  0
  -23.7226  -30.6025   19.4094 H   0  0  0  0  0  0
  -22.7307  -29.2512   19.8630 H   0  0  0  0  0  0
  -25.1254  -36.1998   25.0828 H   0  0  0  0  0  0
  -20.9947  -28.3246   24.1415 H   0  0  0  0  0  0
  -20.5752  -26.2278   23.3564 H   0  0  0  0  0  0
  -21.6636  -26.7513   22.1128 H   0  0  0  0  0  0
  -19.6886  -25.6276   21.1272 H   0  0  0  0  0  0
  -19.6604  -27.3155   20.6738 H   0  0  0  0  0  0
  -17.4152  -26.6581   21.4142 H   0  0  0  0  0  0
  -18.0421  -26.0089   22.9133 H   0  0  0  0  0  0
  -19.7958  -30.7254   24.2244 H   0  0  0  0  0  0
  -17.5034  -31.6286   24.5138 H   0  0  0  0  0  0
  -15.5356  -30.3003   23.7616 H   0  0  0  0  0  0
  -15.8687  -28.0831   22.7036 H   0  0  0  0  0  0
  -24.5874  -30.7093   25.7829 H   0  0  0  0  0  0
  -24.8962  -32.2860   26.4979 H   0  0  0  0  0  0
  -25.8106  -30.8838   27.0217 H   0  0  0  0  0  0
  -26.2855  -29.6792   24.1173 H   0  0  0  0  0  0
  -27.4111  -29.7309   25.4558 H   0  0  0  0  0  0
  -27.8675  -30.4369   23.9224 H   0  0  0  0  0  0
  -27.2632  -33.3601   26.2132 H   0  0  0  0  0  0
  -28.3832  -32.6965   25.0338 H   0  0  0  0  0  0
  -28.0717  -31.8430   26.5376 H   0  0  0  0  0  0
  -28.2600  -38.0096   24.7479 H   0  0  0  0  0  0
  -28.1055  -36.2622   24.6310 H   0  0  0  0  0  0
  -27.2297  -37.1517   25.8872 H   0  0  0  0  0  0
  -20.9245  -29.8876   21.7012 H   0  0  0  0  0  0
  -26.0185  -38.2892   24.1386 H   0  0  0  0  0  0
  -28.8228  -18.6763   18.4818 H   0  0  0  0  0  0
  -28.7311  -19.4963   22.7216 H   0  0  0  0  0  0
  -29.6926  -16.4238   18.9282 H   0  0  0  0  0  0
  -29.5974  -17.2374   23.1793 H   0  0  0  0  0  0
  -27.3933  -20.8268   21.1852 H   0  0  0  0  0  0
  -27.2787  -20.4263   19.4967 H   0  0  0  0  0  0
  -29.8342  -24.3303   19.5624 H   0  0  0  0  0  0
  -28.3115  -24.4906   18.7126 H   0  0  0  0  0  0
  -27.3059  -25.1972   21.0442 H   0  0  0  0  0  0
  -28.9528  -25.3789   21.5538 H   0  0  0  0  0  0
  -29.4716  -14.8865   22.1057 H   0  0  0  0  0  0
  -27.3705  -22.9731   20.5795 H   0  0  0  0  0  0
  1 25  1  0  0  0
  1 30  2  0  0  0
  1 81  1  0  0  0
  2  3  1  0  0  0
  2 25  1  0  0  0
  2 84  1  0  0  0
  2 85  1  0  0  0
  3  4  1  0  0  0
  3 86  1  0  0  0
  3 87  1  0  0  0
  4  5  1  0  0  0
  4 88  1  0  0  0
  4 89  1  0  0  0
  5  6  1  0  0  0
  5 26  1  0  0  0
  5 90  1  0  0  0
  6 25  1  0  0  0
  6 91  1  0  0  0
  6 92  1  0  0  0
  7  8  2  0  0  0
  7 26  1  0  0  0
  7 29  1  0  0  0
  8  9  1  0  0  0
  8 22  1  0  0  0
  9 10  1  0  0  0
  9 27  2  0  0  0
 10 11  2  0  0  0
 10 15  1  0  0  0
 11 12  1  0  0  0
 11 93  1  0  0  0
 12 13  2  0  0  0
 12 94  1  0  0  0
 13 14  1  0  0  0
 13 31  1  0  0  0
 14 15  2  0  0  0
 14 95  1  0  0  0
 15 96  1  0  0  0
 16 17  2  0  0  0
 16 21  1  0  0  0
 16 31  1  0  0  0
 17 18  1  0  0  0
 17 97  1  0  0  0
 18 19  2  0  0  0
 18 98  1  0  0  0
 19 20  1  0  0  0
 19 24  1  0  0  0
 20 21  2  0  0  0
 20 99  1  0  0  0
 21 23  1  0  0  0
 22 28  1  0  0  0
 22 32  2  0  0  0
 26 27  1  0  0  0
 28100  1  0  0  0
 28101  1  0  0  0
 29102  1  0  0  0
 29103  1  0  0  0
 33 34  1  0  0  0
 33 66  1  0  0  0
 33 70  2  0  0  0
 34 36  1  0  0  0
 34 59  1  0  0  0
 34104  1  0  0  0
 35 44  2  0  0  0
 35 45  1  0  0  0
 35 68  1  0  0  0
 36 56  1  0  0  0
 36105  1  0  0  0
 37 39  1  0  0  0
 37 47  1  0  0  0
 37 66  1  0  0  0
 37106  1  0  0  0
 38 43  2  0  0  0
 38 46  1  0  0  0
 38 47  1  0  0  0
 39 64  1  0  0  0
 39 67  2  0  0  0
 40 52  1  0  0  0
 40 53  2  0  0  0
 40 58  1  0  0  0
 41107  1  0  0  0
 41108  1  0  0  0
 41109  1  0  0  0
 41 48  1  0  0  0
 42 43  1  0  0  0
 42 66  1  0  0  0
 42110  1  0  0  0
 42111  1  0  0  0
 43 44  1  0  0  0
 44112  1  0  0  0
 45 46  2  0  0  0
 45113  1  0  0  0
 46114  1  0  0  0
 47115  1  0  0  0
 47116  1  0  0  0
 48 56  1  0  0  0
 48 65  1  0  0  0
 48117  1  0  0  0
 49 50  1  0  0  0
 49 53  1  0  0  0
 49 64  1  0  0  0
 49118  1  0  0  0
 50 51  1  0  0  0
 50119  1  0  0  0
 50120  1  0  0  0
 51 52  1  0  0  0
 51121  1  0  0  0
 51122  1  0  0  0
 52123  1  0  0  0
 52124  1  0  0  0
 53 54  1  0  0  0
 54 55  2  0  0  0
 54125  1  0  0  0
 55 57  1  0  0  0
 55126  1  0  0  0
 56 69  2  0  0  0
 57 58  2  0  0  0
 57127  1  0  0  0
 58128  1  0  0  0
 59 60  1  0  0  0
 59 61  1  0  0  0
 59 62  1  0  0  0
 60129  1  0  0  0
 60130  1  0  0  0
 60131  1  0  0  0
 61132  1  0  0  0
 61133  1  0  0  0
 61134  1  0  0  0
 62135  1  0  0  0
 62136  1  0  0  0
 62137  1  0  0  0
 63 65  1  0  0  0
 63138  1  0  0  0
 63139  1  0  0  0
 63140  1  0  0  0
 64141  1  0  0  0
 65142  1  0  0  0
 68 80  1  0  0  0
 71 73  2  0  0  0
 71 75  1  0  0  0
 71143  1  0  0  0
 72 74  1  0  0  0
 72 75  2  0  0  0
 72144  1  0  0  0
 73 76  1  0  0  0
 73145  1  0  0  0
 74 76  2  0  0  0
 74146  1  0  0  0
 75 78  1  0  0  0
 76 81  1  0  0  0
 77 78  1  0  0  0
 77 82  1  0  0  0
 77 83  2  0  0  0
 78147  1  0  0  0
 78148  1  0  0  0
 79 80  1  0  0  0
 79 82  1  0  0  0
 79149  1  0  0  0
 79150  1  0  0  0
 80151  1  0  0  0
 80152  1  0  0  0
 81153  1  0  0  0
 82154  1  0  0  0
M  ISO  4   1 100  68 101  80 101  81 100
M  END
> <chiral flag>
0

> <version>
0

> <s_m_source_file>
/data/baiqing/PycharmProjects/Reinvent-master-3.2/result/LINK_invent/BTK/process_docking_weight1_custom_sum_contain_oxygen_bond_distance_aromatic_linkinvent_7_9_3/rearranged_h_0002.sdf

> <i_m_source_file_index>
44

> <r_mmod_Potential_Energy-OPLS-2005>
-91.2955474853516

> <r_mmod_Stretch_Energy-OPLS-2005>
34.1947135925293

> <r_mmod_Bend_Energy-OPLS-2005>
93.9327163696289

> <r_mmod_Torsional_Energy-OPLS-2005>
252.314575195312

> <r_mmod_Improper_Torsional_Energy-OPLS-2005>
5.21283864974976

> <r_mmod_Van_der_Waal_Energy-OPLS-2005>
148.587341308594

> <r_mmod_Electrostatic_Energy-OPLS-2005>
-387.410400390625

> <r_mmod_Solvation_Energy-OPLS-2005>
-247.35612487793

> <b_mmod_Minimization_Converged-OPLS-2005>
0

> <r_mmod_RMS_Derivative-OPLS-2005>
2.49856638908386

$$$$
44
                    3D
 Structure written by MMmdl.
140147  0  0  1  0            999 V2000
  -30.1611  -16.0041   20.3080 C   0  0  0  0  0  0
  -30.3940  -13.3709   19.5193 C   0  0  0  0  0  0
  -29.5602  -12.7495   18.3505 C   0  0  0  0  0  0
  -28.1679  -12.3098   18.8207 C   0  0  0  0  0  0
  -27.5837  -13.3431   19.8035 C   0  0  2  0  0  0
  -28.5794  -13.8362   20.8889 C   0  0  0  0  0  0
  -25.2278  -13.8329   20.5856 C   0  0  0  0  0  0
  -24.1700  -13.0433   20.9315 C   0  0  0  0  0  0
  -24.6450  -11.6960   20.8763 C   0  0  0  0  0  0
  -23.9156  -10.4295   21.0384 C   0  0  0  0  0  0
  -24.3676   -9.4207   21.9173 C   0  0  0  0  0  0
  -23.6326   -8.2253   22.0753 C   0  0  0  0  0  0
  -22.4305   -8.0296   21.3544 C   0  0  0  0  0  0
  -21.9960   -9.0273   20.4641 C   0  0  0  0  0  0
  -22.7315  -10.2138   20.3042 C   0  0  0  0  0  0
  -21.6863   -6.0747   22.5279 C   0  0  0  0  0  0
  -21.4022   -6.5646   23.8213 C   0  0  0  0  0  0
  -21.3661   -5.6796   24.9173 C   0  0  0  0  0  0
  -21.6044   -4.3059   24.7222 C   0  0  0  0  0  0
  -21.8818   -3.8153   23.4342 C   0  0  0  0  0  0
  -21.9196   -4.6972   22.3400 C   0  0  0  0  0  0
  -22.7702  -13.5137   21.1934 C   0  0  0  0  0  0
  -22.1662   -4.2158   21.0977 F   0  0  0  0  0  0
  -21.5626   -3.4540   25.7734 F   0  0  0  0  0  0
  -29.6775  -14.5802   20.1919 N   0  0  0  0  0  0
  -26.2769  -12.9729   20.3291 N   0  0  0  0  0  0
  -25.9412  -11.6758   20.5682 N   0  0  0  0  0  0
  -22.0374  -12.8106   22.0483 N   0  0  0  0  0  0
  -25.3817  -15.2078   20.4306 N   0  0  0  0  0  0
  -31.4087  -15.8722   20.2822 O   0  0  0  0  0  0
  -21.6655   -6.8899   21.4244 O   0  0  0  0  0  0
  -22.3368  -14.5432   20.6768 O   0  0  0  0  0  0
  -24.7122  -31.7741   23.1306 C   0  0  0  0  0  0
  -25.9575  -32.4339   23.7956 C   0  0  1  0  0  0
  -27.2357  -26.4414   20.2493 C   0  0  0  0  0  0
  -25.6043  -33.8173   24.1821 N   0  0  0  0  0  0
  -23.5502  -30.3697   21.4913 C   0  0  2  0  0  0
  -25.0042  -28.6446   20.1367 C   0  0  0  0  0  0
  -22.7896  -29.4343   22.4700 C   0  0  0  0  0  0
  -18.0162  -28.1569   22.8214 C   0  0  0  0  0  0
  -24.1498  -36.7093   23.2657 C   0  0  0  0  0  0
  -26.1405  -30.4200   21.4324 C   0  0  0  0  0  0
  -26.2010  -28.9529   20.7936 C   0  0  0  0  0  0
  -27.2917  -27.8910   20.8024 C   0  0  0  0  0  0
  -25.9991  -26.4075   19.5352 C   0  0  0  0  0  0
  -24.9575  -27.3998   19.4818 C   0  0  0  0  0  0
  -23.8153  -29.6344   20.1422 C   0  0  0  0  0  0
  -25.4158  -36.2817   24.0263 C   0  0  1  0  0  0
  -20.6073  -28.3875   23.0881 C   0  0  2  0  0  0
  -20.7786  -26.9756   22.4608 C   0  0  0  0  0  0
  -19.5498  -26.4216   21.7088 C   0  0  0  0  0  0
  -18.1097  -26.8638   22.0237 C   0  0  0  0  0  0
  -19.1588  -28.8842   23.2637 C   0  0  0  0  0  0
  -18.9570  -30.1345   23.8911 C   0  0  0  0  0  0
  -17.6624  -30.6560   24.0765 C   0  0  0  0  0  0
  -25.9160  -34.9216   23.4892 C   0  0  0  0  0  0
  -16.5419  -29.9202   23.6574 C   0  0  0  0  0  0
  -16.7219  -28.6723   23.0397 C   0  0  0  0  0  0
  -26.4648  -31.6466   25.0680 C   0  0  0  0  0  0
  -25.3637  -31.3855   26.1238 C   0  0  0  0  0  0
  -27.0614  -30.2776   24.6755 C   0  0  0  0  0  0
  -27.6047  -32.4377   25.7524 C   0  0  0  0  0  0
  -27.5558  -37.1705   24.8467 C   0  0  0  0  0  0
  -21.4495  -29.3435   22.3578 N   0  0  0  0  0  0
  -26.4262  -37.3606   23.9409 N   0  0  0  0  0  0
  -24.8283  -30.8941   22.0696 N   0  0  0  0  0  0
  -23.4210  -28.7802   23.3033 O   0  0  0  0  0  0
  -28.1967  -25.1262   20.2226 O   0  0  0  0  0  0
  -26.5824  -34.8842   22.4527 O   0  0  0  0  0  0
  -23.6085  -32.0940   23.6097 O   0  0  0  0  0  0
  -28.7705  -21.2825   19.9969 C   0  0  0  0  0  0
  -29.3625  -19.3536   20.6014 C   0  0  0  0  0  0
  -28.2110  -23.2498   20.5175 C   0  0  0  0  0  0
  -29.4079  -17.4693   20.2741 N   0  0  0  0  0  0
  -31.3466  -13.7011   19.1035 H   0  0  0  0  0  0
  -30.6640  -12.6081   20.2520 H   0  0  0  0  0  0
  -30.0920  -11.9085   17.9034 H   0  0  0  0  0  0
  -29.4512  -13.4961   17.5625 H   0  0  0  0  0  0
  -28.2677  -11.3481   19.3257 H   0  0  0  0  0  0
  -27.5014  -12.1499   17.9722 H   0  0  0  0  0  0
  -27.3925  -14.2099   19.1687 H   0  0  0  0  0  0
  -28.9347  -13.0208   21.5211 H   0  0  0  0  0  0
  -28.0774  -14.5353   21.5592 H   0  0  0  0  0  0
  -25.2813   -9.5677   22.4762 H   0  0  0  0  0  0
  -24.0020   -7.4647   22.7483 H   0  0  0  0  0  0
  -21.0888   -8.8807   19.8948 H   0  0  0  0  0  0
  -22.3776  -10.9680   19.6153 H   0  0  0  0  0  0
  -21.2018   -7.6155   23.9719 H   0  0  0  0  0  0
  -21.1482   -6.0525   25.9077 H   0  0  0  0  0  0
  -22.0594   -2.7615   23.2840 H   0  0  0  0  0  0
  -22.4027  -11.9789   22.4882 H   0  0  0  0  0  0
  -21.0974  -13.1085   22.2674 H   0  0  0  0  0  0
  -24.6092  -15.8546   20.5480 H   0  0  0  0  0  0
  -26.2271  -15.6547   20.1017 H   0  0  0  0  0  0
  -26.7689  -32.4750   23.0689 H   0  0  0  0  0  0
  -25.0068  -33.9166   24.9896 H   0  0  0  0  0  0
  -22.8946  -31.2157   21.2742 H   0  0  0  0  0  0
  -23.3788  -35.9392   23.3244 H   0  0  0  0  0  0
  -24.3558  -36.8846   22.2087 H   0  0  0  0  0  0
  -23.7232  -37.6231   23.6804 H   0  0  0  0  0  0
  -26.3681  -31.1235   20.6306 H   0  0  0  0  0  0
  -26.9832  -30.5006   22.1060 H   0  0  0  0  0  0
  -28.1975  -28.1537   21.3305 H   0  0  0  0  0  0
  -25.7911  -25.4872   19.0076 H   0  0  0  0  0  0
  -24.0632  -27.1495   18.9276 H   0  0  0  0  0  0
  -24.0136  -30.3783   19.3698 H   0  0  0  0  0  0
  -22.9130  -29.1146   19.8155 H   0  0  0  0  0  0
  -25.1379  -36.1542   25.0751 H   0  0  0  0  0  0
  -20.9993  -28.3319   24.1064 H   0  0  0  0  0  0
  -21.1583  -26.3040   23.2422 H   0  0  0  0  0  0
  -21.6163  -26.9721   21.7601 H   0  0  0  0  0  0
  -19.3880  -26.0269   22.7114 H   0  0  0  0  0  0
  -19.6128  -27.3462   21.1307 H   0  0  0  0  0  0
  -17.5815  -27.0283   21.0810 H   0  0  0  0  0  0
  -17.5017  -26.0951   22.5175 H   0  0  0  0  0  0
  -19.8097  -30.7074   24.2302 H   0  0  0  0  0  0
  -17.5302  -31.6181   24.5523 H   0  0  0  0  0  0
  -15.5460  -30.3152   23.8048 H   0  0  0  0  0  0
  -15.8546  -28.1225   22.6995 H   0  0  0  0  0  0
  -24.5858  -30.7178   25.7514 H   0  0  0  0  0  0
  -24.8793  -32.3100   26.4389 H   0  0  0  0  0  0
  -25.7743  -30.9184   27.0198 H   0  0  0  0  0  0
  -26.3378  -29.6321   24.1770 H   0  0  0  0  0  0
  -27.3966  -29.7315   25.5583 H   0  0  0  0  0  0
  -27.9387  -30.3845   24.0374 H   0  0  0  0  0  0
  -27.2557  -33.3779   26.1808 H   0  0  0  0  0  0
  -28.4013  -32.6778   25.0469 H   0  0  0  0  0  0
  -28.0543  -31.8704   26.5683 H   0  0  0  0  0  0
  -28.2525  -38.0046   24.7520 H   0  0  0  0  0  0
  -28.1104  -36.2565   24.6288 H   0  0  0  0  0  0
  -27.2271  -37.1326   25.8867 H   0  0  0  0  0  0
  -20.9859  -29.9264   21.6745 H   0  0  0  0  0  0
  -26.0065  -38.2641   24.1431 H   0  0  0  0  0  0
  -27.9479  -21.0312   19.3274 H   0  0  0  0  0  0
  -29.5799  -21.5046   19.3014 H   0  0  0  0  0  0
  -28.8623  -19.3135   21.5693 H   0  0  0  0  0  0
  -30.4044  -19.5229   20.8749 H   0  0  0  0  0  0
  -28.6621  -23.2870   21.5090 H   0  0  0  0  0  0
  -27.1534  -23.1048   20.7380 H   0  0  0  0  0  0
  -28.4467  -17.2150   20.0887 H   0  0  0  0  0  0
  1 25  1  0  0  0
  1 30  2  0  0  0
  1 74  1  0  0  0
  2  3  1  0  0  0
  2 25  1  0  0  0
  2 75  1  0  0  0
  2 76  1  0  0  0
  3  4  1  0  0  0
  3 77  1  0  0  0
  3 78  1  0  0  0
  4  5  1  0  0  0
  4 79  1  0  0  0
  4 80  1  0  0  0
  5  6  1  0  0  0
  5 26  1  0  0  0
  5 81  1  0  0  0
  6 25  1  0  0  0
  6 82  1  0  0  0
  6 83  1  0  0  0
  7  8  2  0  0  0
  7 26  1  0  0  0
  7 29  1  0  0  0
  8  9  1  0  0  0
  8 22  1  0  0  0
  9 10  1  0  0  0
  9 27  2  0  0  0
 10 11  2  0  0  0
 10 15  1  0  0  0
 11 12  1  0  0  0
 11 84  1  0  0  0
 12 13  2  0  0  0
 12 85  1  0  0  0
 13 14  1  0  0  0
 13 31  1  0  0  0
 14 15  2  0  0  0
 14 86  1  0  0  0
 15 87  1  0  0  0
 16 17  2  0  0  0
 16 21  1  0  0  0
 16 31  1  0  0  0
 17 18  1  0  0  0
 17 88  1  0  0  0
 18 19  2  0  0  0
 18 89  1  0  0  0
 19 20  1  0  0  0
 19 24  1  0  0  0
 20 21  2  0  0  0
 20 90  1  0  0  0
 21 23  1  0  0  0
 22 28  1  0  0  0
 22 32  2  0  0  0
 26 27  1  0  0  0
 28 91  1  0  0  0
 28 92  1  0  0  0
 29 93  1  0  0  0
 29 94  1  0  0  0
 33 34  1  0  0  0
 33 66  1  0  0  0
 33 70  2  0  0  0
 34 36  1  0  0  0
 34 59  1  0  0  0
 34 95  1  0  0  0
 35 44  2  0  0  0
 35 45  1  0  0  0
 35 68  1  0  0  0
 36 56  1  0  0  0
 36 96  1  0  0  0
 37 39  1  0  0  0
 37 47  1  0  0  0
 37 66  1  0  0  0
 37 97  1  0  0  0
 38 43  2  0  0  0
 38 46  1  0  0  0
 38 47  1  0  0  0
 39 64  1  0  0  0
 39 67  2  0  0  0
 40 52  1  0  0  0
 40 53  2  0  0  0
 40 58  1  0  0  0
 41 98  1  0  0  0
 41 99  1  0  0  0
 41100  1  0  0  0
 41 48  1  0  0  0
 42 43  1  0  0  0
 42 66  1  0  0  0
 42101  1  0  0  0
 42102  1  0  0  0
 43 44  1  0  0  0
 44103  1  0  0  0
 45 46  2  0  0  0
 45104  1  0  0  0
 46105  1  0  0  0
 47106  1  0  0  0
 47107  1  0  0  0
 48 56  1  0  0  0
 48 65  1  0  0  0
 48108  1  0  0  0
 49 50  1  0  0  0
 49 53  1  0  0  0
 49 64  1  0  0  0
 49109  1  0  0  0
 50 51  1  0  0  0
 50110  1  0  0  0
 50111  1  0  0  0
 51 52  1  0  0  0
 51112  1  0  0  0
 51113  1  0  0  0
 52114  1  0  0  0
 52115  1  0  0  0
 53 54  1  0  0  0
 54 55  2  0  0  0
 54116  1  0  0  0
 55 57  1  0  0  0
 55117  1  0  0  0
 56 69  2  0  0  0
 57 58  2  0  0  0
 57118  1  0  0  0
 58119  1  0  0  0
 59 60  1  0  0  0
 59 61  1  0  0  0
 59 62  1  0  0  0
 60120  1  0  0  0
 60121  1  0  0  0
 60122  1  0  0  0
 61123  1  0  0  0
 61124  1  0  0  0
 61125  1  0  0  0
 62126  1  0  0  0
 62127  1  0  0  0
 62128  1  0  0  0
 63 65  1  0  0  0
 63129  1  0  0  0
 63130  1  0  0  0
 63131  1  0  0  0
 64132  1  0  0  0
 65133  1  0  0  0
 68 73  1  0  0  0
 71 72  1  0  0  0
 71 73  1  0  0  0
 71134  1  0  0  0
 71135  1  0  0  0
 72 74  1  0  0  0
 72136  1  0  0  0
 72137  1  0  0  0
 73138  1  0  0  0
 73139  1  0  0  0
 74140  1  0  0  0
M  ISO  4   1 100  68 101  73 101  74 100
M  END
> <chiral flag>
0

> <version>
0

> <s_m_source_file>
/data/baiqing/PycharmProjects/Reinvent-master-3.2/result/LINK_invent/BTK/process_docking_weight1_custom_sum_contain_oxygen_bond_distance_aromatic_linkinvent_7_9_3/rearranged_h_0002.sdf

> <i_m_source_file_index>
45

> <r_mmod_Potential_Energy-OPLS-2005>
4439.1796875

> <r_mmod_Stretch_Energy-OPLS-2005>
1928.78686523438

> <r_mmod_Bend_Energy-OPLS-2005>
1134.07287597656

> <r_mmod_Torsional_Energy-OPLS-2005>
253.740341186523

> <r_mmod_Improper_Torsional_Energy-OPLS-2005>
5.21059560775757

> <r_mmod_Van_der_Waal_Energy-OPLS-2005>
136.971328735352

> <r_mmod_Electrostatic_Energy-OPLS-2005>
-343.119842529297

> <r_mmod_Solvation_Energy-OPLS-2005>
-223.109710693359

> <b_mmod_Minimization_Converged-OPLS-2005>
0

> <r_mmod_RMS_Derivative-OPLS-2005>
0.0710311159491539

$$$$
45
                    3D
 Structure written by MMmdl.
163170  0  0  1  0            999 V2000
  -30.6155  -14.6506   20.5108 C   0  0  0  0  0  0
  -30.4389  -12.3969   19.4584 C   0  0  0  0  0  0
  -29.5101  -12.5051   18.2281 C   0  0  0  0  0  0
  -28.0334  -12.3356   18.6378 C   0  0  0  0  0  0
  -27.6517  -13.2140   19.8579 C   0  0  2  0  0  0
  -28.6955  -13.0873   20.9902 C   0  0  0  0  0  0
  -25.2572  -13.8166   20.5683 C   0  0  0  0  0  0
  -24.1831  -13.0436   20.9184 C   0  0  0  0  0  0
  -24.6391  -11.6906   20.8734 C   0  0  0  0  0  0
  -23.9056  -10.4292   21.0404 C   0  0  0  0  0  0
  -24.3610   -9.4209   21.9182 C   0  0  0  0  0  0
  -23.6288   -8.2243   22.0754 C   0  0  0  0  0  0
  -22.4270   -8.0279   21.3544 C   0  0  0  0  0  0
  -21.9905   -9.0251   20.4644 C   0  0  0  0  0  0
  -22.7229  -10.2132   20.3055 C   0  0  0  0  0  0
  -21.6850   -6.0736   22.5280 C   0  0  0  0  0  0
  -21.4013   -6.5641   23.8214 C   0  0  0  0  0  0
  -21.3661   -5.6793   24.9174 C   0  0  0  0  0  0
  -21.6044   -4.3056   24.7226 C   0  0  0  0  0  0
  -21.8820   -3.8145   23.4348 C   0  0  0  0  0  0
  -21.9193   -4.6962   22.3403 C   0  0  0  0  0  0
  -22.7856  -13.5233   21.1855 C   0  0  0  0  0  0
  -22.1661   -4.2149   21.0981 F   0  0  0  0  0  0
  -21.5628   -3.4538   25.7738 F   0  0  0  0  0  0
  -30.0114  -13.4219   20.4315 N   0  0  0  0  0  0
  -26.2986  -12.9336   20.3295 N   0  0  0  0  0  0
  -25.9317  -11.6496   20.5742 N   0  0  0  0  0  0
  -22.0497  -12.8223   22.0409 N   0  0  0  0  0  0
  -25.4315  -15.1883   20.4113 N   0  0  0  0  0  0
  -31.7711  -14.8008   20.1026 O   0  0  0  0  0  0
  -21.6636   -6.8875   21.4239 O   0  0  0  0  0  0
  -22.3543  -14.5543   20.6710 O   0  0  0  0  0  0
  -24.6248  -31.8598   23.2021 C   0  0  0  0  0  0
  -25.9099  -32.4777   23.8353 C   0  0  1  0  0  0
  -27.2292  -27.3281   20.1273 C   0  0  0  0  0  0
  -25.5915  -33.8576   24.2280 N   0  0  0  0  0  0
  -23.4190  -30.4809   21.5447 C   0  0  2  0  0  0
  -24.8678  -28.9313   20.1156 C   0  0  0  0  0  0
  -22.7468  -29.4617   22.4950 C   0  0  0  0  0  0
  -18.0286  -28.1374   22.8488 C   0  0  0  0  0  0
  -24.1491  -36.7301   23.2640 C   0  0  0  0  0  0
  -25.9579  -30.7946   21.3704 C   0  0  0  0  0  0
  -26.0351  -29.4205   20.7166 C   0  0  0  0  0  0
  -27.2223  -28.6316   20.7085 C   0  0  0  0  0  0
  -26.0434  -26.8832   19.5069 C   0  0  0  0  0  0
  -24.8725  -27.6675   19.5017 C   0  0  0  0  0  0
  -23.6340  -29.8101   20.1619 C   0  0  0  0  0  0
  -25.4114  -36.3083   24.0328 C   0  0  1  0  0  0
  -20.5884  -28.3679   23.1289 C   0  0  2  0  0  0
  -20.6773  -26.9404   22.5413 C   0  0  0  0  0  0
  -19.5750  -26.6379   21.5212 C   0  0  0  0  0  0
  -18.1927  -26.7921   22.1621 C   0  0  0  0  0  0
  -19.1537  -28.8844   23.2882 C   0  0  0  0  0  0
  -18.9459  -30.1450   23.8892 C   0  0  0  0  0  0
  -17.6459  -30.6581   24.0558 C   0  0  0  0  0  0
  -25.9048  -34.9450   23.5107 C   0  0  0  0  0  0
  -16.5351  -29.9077   23.6325 C   0  0  0  0  0  0
  -16.7274  -28.6494   23.0349 C   0  0  0  0  0  0
  -26.4492  -31.6583   25.0718 C   0  0  0  0  0  0
  -25.3726  -31.3709   26.1445 C   0  0  0  0  0  0
  -27.0338  -30.3009   24.6163 C   0  0  0  0  0  0
  -27.6049  -32.4322   25.7487 C   0  0  0  0  0  0
  -27.5585  -37.1801   24.8462 C   0  0  0  0  0  0
  -21.4184  -29.3034   22.3686 N   0  0  0  0  0  0
  -26.4294  -37.3776   23.9407 N   0  0  0  0  0  0
  -24.6858  -31.0617   22.0965 N   0  0  0  0  0  0
  -23.4191  -28.8164   23.3035 O   0  0  0  0  0  0
  -28.3494  -26.4906   20.1289 O   0  0  0  0  0  0
  -26.5620  -34.8914   22.4676 O   0  0  0  0  0  0
  -23.5414  -32.1393   23.7353 O   0  0  0  0  0  0
  -30.9135  -20.2559   21.8744 C   0  0  0  0  0  0
  -32.0707  -18.9480   25.4171 C   0  0  0  0  0  0
  -29.8126  -15.9358   20.9851 C   0  0  0  0  0  0
  -31.0900  -19.3120   23.0829 C   0  0  0  0  0  0
  -31.9703  -19.8901   24.2096 C   0  0  0  0  0  0
  -30.2577  -17.3842   20.4733 C   0  0  0  0  0  0
  -28.9170  -22.5080   20.8175 C   0  0  0  0  0  0
  -28.8160  -23.8691   19.9834 C   0  0  0  0  0  0
  -29.3165  -18.6310   20.8480 C   0  0  0  0  0  0
  -29.4505  -21.1710   20.1038 C   0  0  0  0  0  0
  -28.2011  -25.1429   20.7202 C   0  0  0  0  0  0
  -29.9202  -20.0177   20.9768 N   0  0  0  0  0  0
  -31.6433  -21.2497   21.7927 O   0  0  0  0  0  0
  -31.4805  -12.5206   19.1577 H   0  0  0  0  0  0
  -30.3725  -11.4037   19.9054 H   0  0  0  0  0  0
  -29.7798  -11.7540   17.4847 H   0  0  0  0  0  0
  -29.6489  -13.4753   17.7484 H   0  0  0  0  0  0
  -27.8754  -11.2834   18.8770 H   0  0  0  0  0  0
  -27.3789  -12.5564   17.7940 H   0  0  0  0  0  0
  -27.6630  -14.2425   19.5005 H   0  0  0  0  0  0
  -28.7063  -12.0731   21.3915 H   0  0  0  0  0  0
  -28.4411  -13.7378   21.8280 H   0  0  0  0  0  0
  -25.2754   -9.5688   22.4756 H   0  0  0  0  0  0
  -23.9999   -7.4637   22.7473 H   0  0  0  0  0  0
  -21.0837   -8.8765   19.8946 H   0  0  0  0  0  0
  -22.3682  -10.9672   19.6165 H   0  0  0  0  0  0
  -21.2005   -7.6152   23.9715 H   0  0  0  0  0  0
  -21.1483   -6.0524   25.9077 H   0  0  0  0  0  0
  -22.0597   -2.7606   23.2848 H   0  0  0  0  0  0
  -22.4111  -11.9877   22.4788 H   0  0  0  0  0  0
  -21.1117  -13.1253   22.2621 H   0  0  0  0  0  0
  -24.6715  -15.8497   20.5280 H   0  0  0  0  0  0
  -26.2902  -15.6237   20.0995 H   0  0  0  0  0  0
  -26.7166  -32.5455   23.1104 H   0  0  0  0  0  0
  -25.0043  -33.9721   25.0411 H   0  0  0  0  0  0
  -22.7124  -31.3006   21.3993 H   0  0  0  0  0  0
  -23.3749  -35.9639   23.3297 H   0  0  0  0  0  0
  -24.3582  -36.8934   22.2057 H   0  0  0  0  0  0
  -23.7248  -37.6500   23.6670 H   0  0  0  0  0  0
  -26.0850  -31.5570   20.6008 H   0  0  0  0  0  0
  -26.8393  -30.8473   21.9976 H   0  0  0  0  0  0
  -28.1226  -29.0050   21.1766 H   0  0  0  0  0  0
  -26.0207  -25.9132   19.0305 H   0  0  0  0  0  0
  -23.9776  -27.2867   19.0291 H   0  0  0  0  0  0
  -23.7504  -30.5832   19.4016 H   0  0  0  0  0  0
  -22.7551  -29.2357   19.8639 H   0  0  0  0  0  0
  -25.1292  -36.1936   25.0820 H   0  0  0  0  0  0
  -20.9975  -28.3255   24.1411 H   0  0  0  0  0  0
  -20.5672  -26.2290   23.3611 H   0  0  0  0  0  0
  -21.6644  -26.7432   22.1212 H   0  0  0  0  0  0
  -19.6909  -25.6290   21.1241 H   0  0  0  0  0  0
  -19.6685  -27.3190   20.6741 H   0  0  0  0  0  0
  -17.4202  -26.6678   21.4016 H   0  0  0  0  0  0
  -18.0316  -26.0056   22.9007 H   0  0  0  0  0  0
  -19.7935  -30.7265   24.2259 H   0  0  0  0  0  0
  -17.5013  -31.6260   24.5161 H   0  0  0  0  0  0
  -15.5349  -30.2974   23.7650 H   0  0  0  0  0  0
  -15.8676  -28.0810   22.7062 H   0  0  0  0  0  0
  -24.5919  -30.7037   25.7776 H   0  0  0  0  0  0
  -24.8889  -32.2865   26.4854 H   0  0  0  0  0  0
  -25.8057  -30.8905   27.0227 H   0  0  0  0  0  0
  -26.2911  -29.6750   24.1202 H   0  0  0  0  0  0
  -27.4061  -29.7270   25.4660 H   0  0  0  0  0  0
  -27.8769  -30.4304   23.9372 H   0  0  0  0  0  0
  -27.2661  -33.3628   26.2054 H   0  0  0  0  0  0
  -28.3860  -32.6875   25.0312 H   0  0  0  0  0  0
  -28.0716  -31.8453   26.5410 H   0  0  0  0  0  0
  -28.2592  -38.0109   24.7516 H   0  0  0  0  0  0
  -28.1091  -36.2637   24.6277 H   0  0  0  0  0  0
  -27.2301  -37.1439   25.8865 H   0  0  0  0  0  0
  -20.9360  -29.8759   21.6898 H   0  0  0  0  0  0
  -26.0177  -38.2852   24.1404 H   0  0  0  0  0  0
  -32.7167  -19.3683   26.1887 H   0  0  0  0  0  0
  -32.4850  -17.9805   25.1313 H   0  0  0  0  0  0
  -31.0919  -18.7730   25.8651 H   0  0  0  0  0  0
  -28.7683  -15.8086   20.7065 H   0  0  0  0  0  0
  -29.8266  -15.9337   22.0751 H   0  0  0  0  0  0
  -31.5263  -18.3704   22.7588 H   0  0  0  0  0  0
  -30.1072  -19.0846   23.4957 H   0  0  0  0  0  0
  -32.9739  -20.0860   23.8283 H   0  0  0  0  0  0
  -31.5717  -20.8521   24.5358 H   0  0  0  0  0  0
  -30.3369  -17.3491   19.3860 H   0  0  0  0  0  0
  -31.2805  -17.5561   20.8011 H   0  0  0  0  0  0
  -27.9332  -22.2892   21.2339 H   0  0  0  0  0  0
  -29.5408  -22.7282   21.6833 H   0  0  0  0  0  0
  -28.2387  -23.6871   19.0764 H   0  0  0  0  0  0
  -29.8196  -24.1269   19.6446 H   0  0  0  0  0  0
  -28.8098  -18.4096   21.7876 H   0  0  0  0  0  0
  -28.5047  -18.6685   20.1214 H   0  0  0  0  0  0
  -30.2928  -21.4413   19.4647 H   0  0  0  0  0  0
  -28.6835  -20.8151   19.4160 H   0  0  0  0  0  0
  -28.6765  -25.2101   21.6993 H   0  0  0  0  0  0
  -27.1542  -24.9322   20.9426 H   0  0  0  0  0  0
  1 25  1  0  0  0
  1 30  2  0  0  0
  1 73  1  0  0  0
  2  3  1  0  0  0
  2 25  1  0  0  0
  2 84  1  0  0  0
  2 85  1  0  0  0
  3  4  1  0  0  0
  3 86  1  0  0  0
  3 87  1  0  0  0
  4  5  1  0  0  0
  4 88  1  0  0  0
  4 89  1  0  0  0
  5  6  1  0  0  0
  5 26  1  0  0  0
  5 90  1  0  0  0
  6 25  1  0  0  0
  6 91  1  0  0  0
  6 92  1  0  0  0
  7  8  2  0  0  0
  7 26  1  0  0  0
  7 29  1  0  0  0
  8  9  1  0  0  0
  8 22  1  0  0  0
  9 10  1  0  0  0
  9 27  2  0  0  0
 10 11  2  0  0  0
 10 15  1  0  0  0
 11 12  1  0  0  0
 11 93  1  0  0  0
 12 13  2  0  0  0
 12 94  1  0  0  0
 13 14  1  0  0  0
 13 31  1  0  0  0
 14 15  2  0  0  0
 14 95  1  0  0  0
 15 96  1  0  0  0
 16 17  2  0  0  0
 16 21  1  0  0  0
 16 31  1  0  0  0
 17 18  1  0  0  0
 17 97  1  0  0  0
 18 19  2  0  0  0
 18 98  1  0  0  0
 19 20  1  0  0  0
 19 24  1  0  0  0
 20 21  2  0  0  0
 20 99  1  0  0  0
 21 23  1  0  0  0
 22 28  1  0  0  0
 22 32  2  0  0  0
 26 27  1  0  0  0
 28100  1  0  0  0
 28101  1  0  0  0
 29102  1  0  0  0
 29103  1  0  0  0
 33 34  1  0  0  0
 33 66  1  0  0  0
 33 70  2  0  0  0
 34 36  1  0  0  0
 34 59  1  0  0  0
 34104  1  0  0  0
 35 44  2  0  0  0
 35 45  1  0  0  0
 35 68  1  0  0  0
 36 56  1  0  0  0
 36105  1  0  0  0
 37 39  1  0  0  0
 37 47  1  0  0  0
 37 66  1  0  0  0
 37106  1  0  0  0
 38 43  2  0  0  0
 38 46  1  0  0  0
 38 47  1  0  0  0
 39 64  1  0  0  0
 39 67  2  0  0  0
 40 52  1  0  0  0
 40 53  2  0  0  0
 40 58  1  0  0  0
 41107  1  0  0  0
 41108  1  0  0  0
 41109  1  0  0  0
 41 48  1  0  0  0
 42 43  1  0  0  0
 42 66  1  0  0  0
 42110  1  0  0  0
 42111  1  0  0  0
 43 44  1  0  0  0
 44112  1  0  0  0
 45 46  2  0  0  0
 45113  1  0  0  0
 46114  1  0  0  0
 47115  1  0  0  0
 47116  1  0  0  0
 48 56  1  0  0  0
 48 65  1  0  0  0
 48117  1  0  0  0
 49 50  1  0  0  0
 49 53  1  0  0  0
 49 64  1  0  0  0
 49118  1  0  0  0
 50 51  1  0  0  0
 50119  1  0  0  0
 50120  1  0  0  0
 51 52  1  0  0  0
 51121  1  0  0  0
 51122  1  0  0  0
 52123  1  0  0  0
 52124  1  0  0  0
 53 54  1  0  0  0
 54 55  2  0  0  0
 54125  1  0  0  0
 55 57  1  0  0  0
 55126  1  0  0  0
 56 69  2  0  0  0
 57 58  2  0  0  0
 57127  1  0  0  0
 58128  1  0  0  0
 59 60  1  0  0  0
 59 61  1  0  0  0
 59 62  1  0  0  0
 60129  1  0  0  0
 60130  1  0  0  0
 60131  1  0  0  0
 61132  1  0  0  0
 61133  1  0  0  0
 61134  1  0  0  0
 62135  1  0  0  0
 62136  1  0  0  0
 62137  1  0  0  0
 63 65  1  0  0  0
 63138  1  0  0  0
 63139  1  0  0  0
 63140  1  0  0  0
 64141  1  0  0  0
 65142  1  0  0  0
 68 81  1  0  0  0
 71 74  1  0  0  0
 71 82  1  0  0  0
 71 83  2  0  0  0
 72 75  1  0  0  0
 72143  1  0  0  0
 72144  1  0  0  0
 72145  1  0  0  0
 73 76  1  0  0  0
 73146  1  0  0  0
 73147  1  0  0  0
 74 75  1  0  0  0
 74148  1  0  0  0
 74149  1  0  0  0
 75150  1  0  0  0
 75151  1  0  0  0
 76 79  1  0  0  0
 76152  1  0  0  0
 76153  1  0  0  0
 77 78  1  0  0  0
 77 80  1  0  0  0
 77154  1  0  0  0
 77155  1  0  0  0
 78 81  1  0  0  0
 78156  1  0  0  0
 78157  1  0  0  0
 79 82  1  0  0  0
 79158  1  0  0  0
 79159  1  0  0  0
 80 82  1  0  0  0
 80160  1  0  0  0
 80161  1  0  0  0
 81162  1  0  0  0
 81163  1  0  0  0
M  ISO  4   1 100  68 101  73 100  81 101
M  END
> <chiral flag>
0

> <version>
0

> <s_m_source_file>
/data/baiqing/PycharmProjects/Reinvent-master-3.2/result/LINK_invent/BTK/process_docking_weight1_custom_sum_contain_oxygen_bond_distance_aromatic_linkinvent_7_9_3/rearranged_h_0002.sdf

> <i_m_source_file_index>
46

> <r_mmod_Potential_Energy-OPLS-2005>
131.963424682617

> <r_mmod_Stretch_Energy-OPLS-2005>
93.8811264038086

> <r_mmod_Bend_Energy-OPLS-2005>
134.468200683594

> <r_mmod_Torsional_Energy-OPLS-2005>
227.536193847656

> <r_mmod_Improper_Torsional_Energy-OPLS-2005>
3.31294918060303

> <r_mmod_Van_der_Waal_Energy-OPLS-2005>
128.841812133789

> <r_mmod_Electrostatic_Energy-OPLS-2005>
-291.221374511719

> <r_mmod_Solvation_Energy-OPLS-2005>
-211.899795532227

> <b_mmod_Minimization_Converged-OPLS-2005>
0

> <r_mmod_RMS_Derivative-OPLS-2005>
0.569756925106049

$$$$
46
                    3D
 Structure written by MMmdl.
155163  0  0  1  0            999 V2000
  -30.6616  -14.5645   20.5163 C   0  0  0  0  0  0
  -30.4354  -12.3478   19.4404 C   0  0  0  0  0  0
  -29.5082  -12.5140   18.2170 C   0  0  0  0  0  0
  -28.0277  -12.3650   18.6252 C   0  0  0  0  0  0
  -27.6610  -13.2145   19.8718 C   0  0  2  0  0  0
  -28.7077  -13.0327   20.9974 C   0  0  0  0  0  0
  -25.2584  -13.8153   20.5661 C   0  0  0  0  0  0
  -24.1847  -13.0433   20.9181 C   0  0  0  0  0  0
  -24.6409  -11.6901   20.8746 C   0  0  0  0  0  0
  -23.9078  -10.4292   21.0417 C   0  0  0  0  0  0
  -24.3621   -9.4202   21.9192 C   0  0  0  0  0  0
  -23.6290   -8.2243   22.0756 C   0  0  0  0  0  0
  -22.4269   -8.0287   21.3560 C   0  0  0  0  0  0
  -21.9911   -9.0263   20.4656 C   0  0  0  0  0  0
  -22.7251  -10.2137   20.3065 C   0  0  0  0  0  0
  -21.6852   -6.0736   22.5276 C   0  0  0  0  0  0
  -21.4016   -6.5630   23.8214 C   0  0  0  0  0  0
  -21.3662   -5.6783   24.9173 C   0  0  0  0  0  0
  -21.6040   -4.3048   24.7218 C   0  0  0  0  0  0
  -21.8817   -3.8144   23.4337 C   0  0  0  0  0  0
  -21.9192   -4.6965   22.3397 C   0  0  0  0  0  0
  -22.7868  -13.5245   21.1829 C   0  0  0  0  0  0
  -22.1658   -4.2151   21.0976 F   0  0  0  0  0  0
  -21.5635   -3.4527   25.7730 F   0  0  0  0  0  0
  -30.0338  -13.3523   20.4395 N   0  0  0  0  0  0
  -26.3032  -12.9340   20.3352 N   0  0  0  0  0  0
  -25.9348  -11.6494   20.5774 N   0  0  0  0  0  0
  -22.0494  -12.8262   22.0389 N   0  0  0  0  0  0
  -25.4281  -15.1862   20.4017 N   0  0  0  0  0  0
  -31.8100  -14.7372   20.1009 O   0  0  0  0  0  0
  -21.6639   -6.8881   21.4243 O   0  0  0  0  0  0
  -22.3572  -14.5556   20.6680 O   0  0  0  0  0  0
  -24.6221  -31.8627   23.2064 C   0  0  0  0  0  0
  -25.9087  -32.4797   23.8387 C   0  0  1  0  0  0
  -27.2337  -27.3742   20.1102 C   0  0  0  0  0  0
  -25.5918  -33.8592   24.2319 N   0  0  0  0  0  0
  -23.4140  -30.4859   21.5468 C   0  0  2  0  0  0
  -24.8626  -28.9472   20.1132 C   0  0  0  0  0  0
  -22.7463  -29.4629   22.4954 C   0  0  0  0  0  0
  -18.0290  -28.1385   22.8482 C   0  0  0  0  0  0
  -24.1488  -36.7302   23.2633 C   0  0  0  0  0  0
  -25.9498  -30.8101   21.3696 C   0  0  0  0  0  0
  -26.0264  -29.4398   20.7170 C   0  0  0  0  0  0
  -27.2158  -28.6629   20.7090 C   0  0  0  0  0  0
  -26.0541  -26.9248   19.4738 C   0  0  0  0  0  0
  -24.8754  -27.6919   19.4841 C   0  0  0  0  0  0
  -23.6276  -29.8200   20.1615 C   0  0  0  0  0  0
  -25.4103  -36.3094   24.0338 C   0  0  1  0  0  0
  -20.5883  -28.3670   23.1297 C   0  0  2  0  0  0
  -20.6772  -26.9395   22.5413 C   0  0  0  0  0  0
  -19.5746  -26.6382   21.5211 C   0  0  0  0  0  0
  -18.1924  -26.7932   22.1624 C   0  0  0  0  0  0
  -19.1538  -28.8851   23.2888 C   0  0  0  0  0  0
  -18.9462  -30.1459   23.8893 C   0  0  0  0  0  0
  -17.6454  -30.6587   24.0568 C   0  0  0  0  0  0
  -25.9028  -34.9459   23.5125 C   0  0  0  0  0  0
  -16.5348  -29.9081   23.6330 C   0  0  0  0  0  0
  -16.7273  -28.6512   23.0330 C   0  0  0  0  0  0
  -26.4487  -31.6579   25.0732 C   0  0  0  0  0  0
  -25.3740  -31.3702   26.1483 C   0  0  0  0  0  0
  -27.0300  -30.3009   24.6126 C   0  0  0  0  0  0
  -27.6066  -32.4290   25.7491 C   0  0  0  0  0  0
  -27.5581  -37.1805   24.8462 C   0  0  0  0  0  0
  -21.4179  -29.3031   22.3707 N   0  0  0  0  0  0
  -26.4289  -37.3779   23.9410 N   0  0  0  0  0  0
  -24.6804  -31.0684   22.0990 N   0  0  0  0  0  0
  -23.4211  -28.8147   23.3002 O   0  0  0  0  0  0
  -28.3738  -26.5755   20.1251 O   0  0  0  0  0  0
  -26.5585  -34.8917   22.4685 O   0  0  0  0  0  0
  -23.5394  -32.1407   23.7414 O   0  0  0  0  0  0
  -28.7174  -17.6649   20.3139 C   0  0  0  0  0  0
  -31.1195  -17.7759   20.6022 C   0  0  0  0  0  0
  -28.6856  -19.0407   19.9692 C   0  0  0  0  0  0
  -31.0826  -19.1646   20.2870 C   0  0  0  0  0  0
  -29.9322  -16.9977   20.6084 C   0  0  0  0  0  0
  -29.8667  -19.8172   19.9586 C   0  0  0  0  0  0
  -27.6509  -22.3048   20.7135 C   0  0  0  0  0  0
  -29.2232  -24.1425   19.9769 C   0  0  0  0  0  0
  -28.2046  -25.1904   20.5649 C   0  0  0  0  0  0
  -29.8771  -15.5902   20.9365 N   0  0  0  0  0  0
  -29.0248  -22.6754   20.3266 N   0  0  0  0  0  0
  -31.2624  -22.0084   19.2240 O   0  0  0  0  0  0
  -29.0932  -21.5190   18.0224 O   0  0  0  0  0  0
  -29.8687  -21.5367   19.2735 S   0  0  0  0  0  0
  -31.4825  -12.4457   19.1448 H   0  0  0  0  0  0
  -30.3387  -11.3452   19.8577 H   0  0  0  0  0  0
  -29.7602  -11.7824   17.4486 H   0  0  0  0  0  0
  -29.6674  -13.4952   17.7659 H   0  0  0  0  0  0
  -27.8450  -11.3101   18.8330 H   0  0  0  0  0  0
  -27.3792  -12.6286   17.7885 H   0  0  0  0  0  0
  -27.6903  -14.2564   19.5531 H   0  0  0  0  0  0
  -28.6977  -12.0057   21.3654 H   0  0  0  0  0  0
  -28.4652  -13.6531   21.8620 H   0  0  0  0  0  0
  -25.2759   -9.5675   22.4775 H   0  0  0  0  0  0
  -23.9992   -7.4634   22.7479 H   0  0  0  0  0  0
  -21.0842   -8.8798   19.8968 H   0  0  0  0  0  0
  -22.3716  -10.9681   19.6181 H   0  0  0  0  0  0
  -21.2010   -7.6139   23.9708 H   0  0  0  0  0  0
  -21.1494   -6.0519   25.9075 H   0  0  0  0  0  0
  -22.0599   -2.7610   23.2835 H   0  0  0  0  0  0
  -22.4066  -11.9912   22.4800 H   0  0  0  0  0  0
  -21.1131  -13.1351   22.2585 H   0  0  0  0  0  0
  -24.6526  -15.8355   20.4761 H   0  0  0  0  0  0
  -26.2581  -15.6078   20.0079 H   0  0  0  0  0  0
  -26.7150  -32.5491   23.1134 H   0  0  0  0  0  0
  -25.0134  -33.9748   25.0512 H   0  0  0  0  0  0
  -22.7045  -31.3034   21.4040 H   0  0  0  0  0  0
  -23.3747  -35.9640   23.3301 H   0  0  0  0  0  0
  -24.3591  -36.8912   22.2049 H   0  0  0  0  0  0
  -23.7249  -37.6509   23.6646 H   0  0  0  0  0  0
  -26.0705  -31.5720   20.5979 H   0  0  0  0  0  0
  -26.8344  -30.8639   21.9921 H   0  0  0  0  0  0
  -28.1121  -29.0360   21.1847 H   0  0  0  0  0  0
  -26.0336  -25.9753   18.9571 H   0  0  0  0  0  0
  -23.9868  -27.3145   18.9963 H   0  0  0  0  0  0
  -23.7421  -30.5941   19.4008 H   0  0  0  0  0  0
  -22.7506  -29.2431   19.8639 H   0  0  0  0  0  0
  -25.1279  -36.1958   25.0832 H   0  0  0  0  0  0
  -20.9979  -28.3239   24.1417 H   0  0  0  0  0  0
  -20.5668  -26.2271   23.3604 H   0  0  0  0  0  0
  -21.6644  -26.7426   22.1211 H   0  0  0  0  0  0
  -19.6893  -25.6294   21.1242 H   0  0  0  0  0  0
  -19.6687  -27.3196   20.6742 H   0  0  0  0  0  0
  -17.4195  -26.6691   21.4025 H   0  0  0  0  0  0
  -18.0312  -26.0084   22.9029 H   0  0  0  0  0  0
  -19.7932  -30.7292   24.2245 H   0  0  0  0  0  0
  -17.5004  -31.6260   24.5175 H   0  0  0  0  0  0
  -15.5343  -30.2968   23.7655 H   0  0  0  0  0  0
  -15.8686  -28.0839   22.7007 H   0  0  0  0  0  0
  -24.5923  -30.7027   25.7843 H   0  0  0  0  0  0
  -24.8921  -32.2861   26.4916 H   0  0  0  0  0  0
  -25.8107  -30.8903   27.0251 H   0  0  0  0  0  0
  -26.2849  -29.6786   24.1164 H   0  0  0  0  0  0
  -27.4030  -29.7235   25.4590 H   0  0  0  0  0  0
  -27.8707  -30.4306   23.9307 H   0  0  0  0  0  0
  -27.2709  -33.3594   26.2084 H   0  0  0  0  0  0
  -28.3875  -32.6838   25.0314 H   0  0  0  0  0  0
  -28.0733  -31.8402   26.5399 H   0  0  0  0  0  0
  -28.2589  -38.0105   24.7512 H   0  0  0  0  0  0
  -28.1081  -36.2642   24.6276 H   0  0  0  0  0  0
  -27.2313  -37.1452   25.8867 H   0  0  0  0  0  0
  -20.9340  -29.8777   21.6949 H   0  0  0  0  0  0
  -26.0178  -38.2859   24.1405 H   0  0  0  0  0  0
  -27.7888  -17.1126   20.3093 H   0  0  0  0  0  0
  -32.0726  -17.3167   20.8259 H   0  0  0  0  0  0
  -27.7514  -19.4924   19.6709 H   0  0  0  0  0  0
  -32.0050  -19.7260   20.2470 H   0  0  0  0  0  0
  -27.2837  -22.9189   21.5357 H   0  0  0  0  0  0
  -27.6165  -21.2793   21.0749 H   0  0  0  0  0  0
  -26.9723  -22.3925   19.8629 H   0  0  0  0  0  0
  -30.2371  -24.4268   20.2603 H   0  0  0  0  0  0
  -29.1918  -24.2308   18.8899 H   0  0  0  0  0  0
  -28.2904  -25.1876   21.6528 H   0  0  0  0  0  0
  -27.1970  -24.8441   20.3536 H   0  0  0  0  0  0
  -28.9784  -15.2687   21.2606 H   0  0  0  0  0  0
  1 25  1  0  0  0
  1 30  2  0  0  0
  1 80  1  0  0  0
  2  3  1  0  0  0
  2 25  1  0  0  0
  2 85  1  0  0  0
  2 86  1  0  0  0
  3  4  1  0  0  0
  3 87  1  0  0  0
  3 88  1  0  0  0
  4  5  1  0  0  0
  4 89  1  0  0  0
  4 90  1  0  0  0
  5  6  1  0  0  0
  5 26  1  0  0  0
  5 91  1  0  0  0
  6 25  1  0  0  0
  6 92  1  0  0  0
  6 93  1  0  0  0
  7  8  2  0  0  0
  7 26  1  0  0  0
  7 29  1  0  0  0
  8  9  1  0  0  0
  8 22  1  0  0  0
  9 10  1  0  0  0
  9 27  2  0  0  0
 10 11  2  0  0  0
 10 15  1  0  0  0
 11 12  1  0  0  0
 11 94  1  0  0  0
 12 13  2  0  0  0
 12 95  1  0  0  0
 13 14  1  0  0  0
 13 31  1  0  0  0
 14 15  2  0  0  0
 14 96  1  0  0  0
 15 97  1  0  0  0
 16 17  2  0  0  0
 16 21  1  0  0  0
 16 31  1  0  0  0
 17 18  1  0  0  0
 17 98  1  0  0  0
 18 19  2  0  0  0
 18 99  1  0  0  0
 19 20  1  0  0  0
 19 24  1  0  0  0
 20 21  2  0  0  0
 20100  1  0  0  0
 21 23  1  0  0  0
 22 28  1  0  0  0
 22 32  2  0  0  0
 26 27  1  0  0  0
 28101  1  0  0  0
 28102  1  0  0  0
 29103  1  0  0  0
 29104  1  0  0  0
 33 34  1  0  0  0
 33 66  1  0  0  0
 33 70  2  0  0  0
 34 36  1  0  0  0
 34 59  1  0  0  0
 34105  1  0  0  0
 35 44  2  0  0  0
 35 45  1  0  0  0
 35 68  1  0  0  0
 36 56  1  0  0  0
 36106  1  0  0  0
 37 39  1  0  0  0
 37 47  1  0  0  0
 37 66  1  0  0  0
 37107  1  0  0  0
 38 43  2  0  0  0
 38 46  1  0  0  0
 38 47  1  0  0  0
 39 64  1  0  0  0
 39 67  2  0  0  0
 40 52  1  0  0  0
 40 53  2  0  0  0
 40 58  1  0  0  0
 41108  1  0  0  0
 41109  1  0  0  0
 41110  1  0  0  0
 41 48  1  0  0  0
 42 43  1  0  0  0
 42 66  1  0  0  0
 42111  1  0  0  0
 42112  1  0  0  0
 43 44  1  0  0  0
 44113  1  0  0  0
 45 46  2  0  0  0
 45114  1  0  0  0
 46115  1  0  0  0
 47116  1  0  0  0
 47117  1  0  0  0
 48 56  1  0  0  0
 48 65  1  0  0  0
 48118  1  0  0  0
 49 50  1  0  0  0
 49 53  1  0  0  0
 49 64  1  0  0  0
 49119  1  0  0  0
 50 51  1  0  0  0
 50120  1  0  0  0
 50121  1  0  0  0
 51 52  1  0  0  0
 51122  1  0  0  0
 51123  1  0  0  0
 52124  1  0  0  0
 52125  1  0  0  0
 53 54  1  0  0  0
 54 55  2  0  0  0
 54126  1  0  0  0
 55 57  1  0  0  0
 55127  1  0  0  0
 56 69  2  0  0  0
 57 58  2  0  0  0
 57128  1  0  0  0
 58129  1  0  0  0
 59 60  1  0  0  0
 59 61  1  0  0  0
 59 62  1  0  0  0
 60130  1  0  0  0
 60131  1  0  0  0
 60132  1  0  0  0
 61133  1  0  0  0
 61134  1  0  0  0
 61135  1  0  0  0
 62136  1  0  0  0
 62137  1  0  0  0
 62138  1  0  0  0
 63 65  1  0  0  0
 63139  1  0  0  0
 63140  1  0  0  0
 63141  1  0  0  0
 64142  1  0  0  0
 65143  1  0  0  0
 68 79  1  0  0  0
 71 73  2  0  0  0
 71 75  1  0  0  0
 71144  1  0  0  0
 72 74  1  0  0  0
 72 75  2  0  0  0
 72145  1  0  0  0
 73 76  1  0  0  0
 73146  1  0  0  0
 74 76  2  0  0  0
 74147  1  0  0  0
 75 80  1  0  0  0
 76 84  1  0  0  0
 77 81  1  0  0  0
 77148  1  0  0  0
 77149  1  0  0  0
 77150  1  0  0  0
 78 79  1  0  0  0
 78 81  1  0  0  0
 78151  1  0  0  0
 78152  1  0  0  0
 79153  1  0  0  0
 79154  1  0  0  0
 80155  1  0  0  0
 81 84  1  0  0  0
 82 84  2  0  0  0
 83 84  2  0  0  0
M  ISO  4   1 100  68 101  79 101  80 100
M  END
> <chiral flag>
0

> <version>
0

> <s_m_source_file>
/data/baiqing/PycharmProjects/Reinvent-master-3.2/result/LINK_invent/BTK/process_docking_weight1_custom_sum_contain_oxygen_bond_distance_aromatic_linkinvent_7_9_3/rearranged_h_0002.sdf

> <i_m_source_file_index>
47

> <r_mmod_Potential_Energy-OPLS-2005>
-69.4627151489258

> <r_mmod_Stretch_Energy-OPLS-2005>
59.8816566467285

> <r_mmod_Bend_Energy-OPLS-2005>
123.822731018066

> <r_mmod_Torsional_Energy-OPLS-2005>
225.051635742188

> <r_mmod_Improper_Torsional_Energy-OPLS-2005>
9.96087646484375

> <r_mmod_Van_der_Waal_Energy-OPLS-2005>
144.175872802734

> <r_mmod_Electrostatic_Energy-OPLS-2005>
-400.823394775391

> <r_mmod_Solvation_Energy-OPLS-2005>
-258.513366699219

> <b_mmod_Minimization_Converged-OPLS-2005>
0

> <r_mmod_RMS_Derivative-OPLS-2005>
1.93190133571625

$$$$
47
                    3D
 Structure written by MMmdl.
144151  0  0  1  0            999 V2000
  -30.4369  -15.2511   20.3767 C   0  0  0  0  0  0
  -30.4407  -12.8036   19.5103 C   0  0  0  0  0  0
  -29.5321  -12.5695   18.2777 C   0  0  0  0  0  0
  -28.0806  -12.2958   18.7105 C   0  0  0  0  0  0
  -27.6107  -13.2711   19.8186 C   0  0  2  0  0  0
  -28.6480  -13.4407   20.9474 C   0  0  0  0  0  0
  -25.2393  -13.8238   20.5742 C   0  0  0  0  0  0
  -24.1743  -13.0431   20.9260 C   0  0  0  0  0  0
  -24.6395  -11.6928   20.8764 C   0  0  0  0  0  0
  -23.9090  -10.4290   21.0409 C   0  0  0  0  0  0
  -24.3635   -9.4203   21.9186 C   0  0  0  0  0  0
  -23.6303   -8.2241   22.0755 C   0  0  0  0  0  0
  -22.4284   -8.0282   21.3545 C   0  0  0  0  0  0
  -21.9926   -9.0257   20.4646 C   0  0  0  0  0  0
  -22.7261  -10.2132   20.3056 C   0  0  0  0  0  0
  -21.6855   -6.0737   22.5279 C   0  0  0  0  0  0
  -21.4016   -6.5641   23.8212 C   0  0  0  0  0  0
  -21.3660   -5.6793   24.9174 C   0  0  0  0  0  0
  -21.6044   -4.3056   24.7225 C   0  0  0  0  0  0
  -21.8819   -3.8148   23.4346 C   0  0  0  0  0  0
  -21.9193   -4.6965   22.3402 C   0  0  0  0  0  0
  -22.7761  -13.5187   21.1906 C   0  0  0  0  0  0
  -22.1661   -4.2150   21.0980 F   0  0  0  0  0  0
  -21.5628   -3.4540   25.7737 F   0  0  0  0  0  0
  -29.8748  -13.9472   20.3118 N   0  0  0  0  0  0
  -26.2814  -12.9504   20.3207 N   0  0  0  0  0  0
  -25.9329  -11.6614   20.5719 N   0  0  0  0  0  0
  -22.0419  -12.8169   22.0460 N   0  0  0  0  0  0
  -25.4019  -15.1973   20.4173 N   0  0  0  0  0  0
  -31.6652  -15.2598   20.2187 O   0  0  0  0  0  0
  -21.6644   -6.8882   21.4242 O   0  0  0  0  0  0
  -22.3441  -14.5488   20.6746 O   0  0  0  0  0  0
  -24.6622  -31.8245   23.1706 C   0  0  0  0  0  0
  -25.9306  -32.4593   23.8170 C   0  0  1  0  0  0
  -27.2187  -26.9359   20.1919 C   0  0  0  0  0  0
  -25.5976  -33.8406   24.2077 N   0  0  0  0  0  0
  -23.4761  -30.4358   21.5204 C   0  0  2  0  0  0
  -24.9283  -28.8193   20.1193 C   0  0  0  0  0  0
  -22.7660  -29.4449   22.4794 C   0  0  0  0  0  0
  -18.0321  -28.1408   22.8468 C   0  0  0  0  0  0
  -24.1493  -36.7209   23.2648 C   0  0  0  0  0  0
  -26.0446  -30.6350   21.3978 C   0  0  0  0  0  0
  -26.1136  -29.2235   20.7468 C   0  0  0  0  0  0
  -27.2569  -28.3054   20.7517 C   0  0  0  0  0  0
  -26.0019  -26.6767   19.5243 C   0  0  0  0  0  0
  -24.8966  -27.5655   19.4877 C   0  0  0  0  0  0
  -23.7155  -29.7482   20.1484 C   0  0  0  0  0  0
  -25.4134  -36.2970   24.0300 C   0  0  1  0  0  0
  -20.5944  -28.3752   23.1192 C   0  0  2  0  0  0
  -20.6798  -26.9435   22.5403 C   0  0  0  0  0  0
  -19.5772  -26.6378   21.5214 C   0  0  0  0  0  0
  -18.1954  -26.7942   22.1623 C   0  0  0  0  0  0
  -19.1582  -28.8901   23.2817 C   0  0  0  0  0  0
  -18.9493  -30.1491   23.8852 C   0  0  0  0  0  0
  -17.6486  -30.6598   24.0556 C   0  0  0  0  0  0
  -25.9098  -34.9353   23.5010 C   0  0  0  0  0  0
  -16.5376  -29.9085   23.6343 C   0  0  0  0  0  0
  -16.7303  -28.6506   23.0363 C   0  0  0  0  0  0
  -26.4559  -31.6536   25.0696 C   0  0  0  0  0  0
  -25.3687  -31.3784   26.1354 C   0  0  0  0  0  0
  -27.0455  -30.2904   24.6421 C   0  0  0  0  0  0
  -27.6050  -32.4345   25.7500 C   0  0  0  0  0  0
  -27.5569  -37.1762   24.8467 C   0  0  0  0  0  0
  -21.4331  -29.3044   22.3542 N   0  0  0  0  0  0
  -26.4280  -37.3705   23.9407 N   0  0  0  0  0  0
  -24.7491  -30.9919   22.0835 N   0  0  0  0  0  0
  -23.4211  -28.8021   23.3034 O   0  0  0  0  0  0
  -28.2432  -25.8546   20.1976 O   0  0  0  0  0  0
  -26.5710  -34.8888   22.4606 O   0  0  0  0  0  0
  -23.5694  -32.1209   23.6807 O   0  0  0  0  0  0
  -29.9032  -18.1505   20.6487 C   0  0  0  0  0  0
  -29.0916  -19.6523   20.0641 C   0  0  0  0  0  0
  -28.0410  -24.2465   20.5108 C   0  0  0  0  0  0
  -28.7182  -22.6665   19.9472 C   0  0  0  0  0  0
  -29.6593  -16.5123   20.4191 N   0  0  0  0  0  0
  -28.9892  -21.1936   20.6301 O   0  0  0  0  0  0
  -31.4561  -13.0183   19.1742 H   0  0  0  0  0  0
  -30.5160  -11.9000   20.1175 H   0  0  0  0  0  0
  -29.9090  -11.7401   17.6776 H   0  0  0  0  0  0
  -29.5601  -13.4510   17.6352 H   0  0  0  0  0  0
  -28.0368  -11.2719   19.0838 H   0  0  0  0  0  0
  -27.4101  -12.3372   17.8514 H   0  0  0  0  0  0
  -27.5259  -14.2383   19.3215 H   0  0  0  0  0  0
  -28.8185  -12.5046   21.4812 H   0  0  0  0  0  0
  -28.2924  -14.1615   21.6855 H   0  0  0  0  0  0
  -25.2776   -9.5679   22.4767 H   0  0  0  0  0  0
  -24.0007   -7.4633   22.7477 H   0  0  0  0  0  0
  -21.0856   -8.8780   19.8952 H   0  0  0  0  0  0
  -22.3719  -10.9674   19.6169 H   0  0  0  0  0  0
  -21.2009   -7.6149   23.9716 H   0  0  0  0  0  0
  -21.1482   -6.0524   25.9077 H   0  0  0  0  0  0
  -22.0597   -2.7610   23.2846 H   0  0  0  0  0  0
  -22.4051  -11.9839   22.4851 H   0  0  0  0  0  0
  -21.1031  -13.1176   22.2665 H   0  0  0  0  0  0
  -24.6298  -15.8453   20.5309 H   0  0  0  0  0  0
  -26.2396  -15.6403   20.0642 H   0  0  0  0  0  0
  -26.7377  -32.5137   23.0887 H   0  0  0  0  0  0
  -25.0070  -33.9485   25.0192 H   0  0  0  0  0  0
  -22.7891  -31.2670   21.3485 H   0  0  0  0  0  0
  -23.3765  -35.9530   23.3283 H   0  0  0  0  0  0
  -24.3569  -36.8881   22.2067 H   0  0  0  0  0  0
  -23.7242  -37.6387   23.6720 H   0  0  0  0  0  0
  -26.2213  -31.3747   20.6158 H   0  0  0  0  0  0
  -26.9062  -30.6947   22.0510 H   0  0  0  0  0  0
  -28.1614  -28.6200   21.2530 H   0  0  0  0  0  0
  -25.8841  -25.7202   19.0350 H   0  0  0  0  0  0
  -23.9962  -27.2498   18.9788 H   0  0  0  0  0  0
  -23.8728  -30.5146   19.3885 H   0  0  0  0  0  0
  -22.8250  -29.2028   19.8311 H   0  0  0  0  0  0
  -25.1332  -36.1767   25.0791 H   0  0  0  0  0  0
  -21.0032  -28.3358   24.1316 H   0  0  0  0  0  0
  -20.5680  -26.2370   23.3642 H   0  0  0  0  0  0
  -21.6662  -26.7414   22.1208 H   0  0  0  0  0  0
  -19.6931  -25.6277   21.1274 H   0  0  0  0  0  0
  -19.6710  -27.3164   20.6724 H   0  0  0  0  0  0
  -17.4222  -26.6685   21.4027 H   0  0  0  0  0  0
  -18.0350  -26.0095   22.9030 H   0  0  0  0  0  0
  -19.7968  -30.7320   24.2201 H   0  0  0  0  0  0
  -17.5037  -31.6274   24.5166 H   0  0  0  0  0  0
  -15.5375  -30.2973   23.7693 H   0  0  0  0  0  0
  -15.8704  -28.0808   22.7105 H   0  0  0  0  0  0
  -24.5885  -30.7117   25.7664 H   0  0  0  0  0  0
  -24.8859  -32.2984   26.4657 H   0  0  0  0  0  0
  -25.7920  -30.9033   27.0213 H   0  0  0  0  0  0
  -26.3120  -29.6580   24.1408 H   0  0  0  0  0  0
  -27.3971  -29.7268   25.5074 H   0  0  0  0  0  0
  -27.9066  -30.4088   23.9841 H   0  0  0  0  0  0
  -27.2619  -33.3690   26.1952 H   0  0  0  0  0  0
  -28.3927  -32.6835   25.0377 H   0  0  0  0  0  0
  -28.0645  -31.8555   26.5522 H   0  0  0  0  0  0
  -28.2572  -38.0071   24.7508 H   0  0  0  0  0  0
  -28.1079  -36.2597   24.6302 H   0  0  0  0  0  0
  -27.2284  -37.1414   25.8869 H   0  0  0  0  0  0
  -20.9586  -29.8729   21.6666 H   0  0  0  0  0  0
  -26.0128  -38.2764   24.1412 H   0  0  0  0  0  0
  -29.8343  -18.2328   21.7336 H   0  0  0  0  0  0
  -30.9655  -18.2990   20.4516 H   0  0  0  0  0  0
  -28.0459  -19.3727   19.9349 H   0  0  0  0  0  0
  -29.4521  -19.7769   19.0427 H   0  0  0  0  0  0
  -28.2693  -24.2286   21.5764 H   0  0  0  0  0  0
  -26.9610  -24.1021   20.4918 H   0  0  0  0  0  0
  -29.7032  -22.9230   19.5574 H   0  0  0  0  0  0
  -28.1449  -22.4326   19.0499 H   0  0  0  0  0  0
  -28.6725  -16.2975   20.4101 H   0  0  0  0  0  0
  1 25  1  0  0  0
  1 30  2  0  0  0
  1 75  1  0  0  0
  2  3  1  0  0  0
  2 25  1  0  0  0
  2 77  1  0  0  0
  2 78  1  0  0  0
  3  4  1  0  0  0
  3 79  1  0  0  0
  3 80  1  0  0  0
  4  5  1  0  0  0
  4 81  1  0  0  0
  4 82  1  0  0  0
  5  6  1  0  0  0
  5 26  1  0  0  0
  5 83  1  0  0  0
  6 25  1  0  0  0
  6 84  1  0  0  0
  6 85  1  0  0  0
  7  8  2  0  0  0
  7 26  1  0  0  0
  7 29  1  0  0  0
  8  9  1  0  0  0
  8 22  1  0  0  0
  9 10  1  0  0  0
  9 27  2  0  0  0
 10 11  2  0  0  0
 10 15  1  0  0  0
 11 12  1  0  0  0
 11 86  1  0  0  0
 12 13  2  0  0  0
 12 87  1  0  0  0
 13 14  1  0  0  0
 13 31  1  0  0  0
 14 15  2  0  0  0
 14 88  1  0  0  0
 15 89  1  0  0  0
 16 17  2  0  0  0
 16 21  1  0  0  0
 16 31  1  0  0  0
 17 18  1  0  0  0
 17 90  1  0  0  0
 18 19  2  0  0  0
 18 91  1  0  0  0
 19 20  1  0  0  0
 19 24  1  0  0  0
 20 21  2  0  0  0
 20 92  1  0  0  0
 21 23  1  0  0  0
 22 28  1  0  0  0
 22 32  2  0  0  0
 26 27  1  0  0  0
 28 93  1  0  0  0
 28 94  1  0  0  0
 29 95  1  0  0  0
 29 96  1  0  0  0
 33 34  1  0  0  0
 33 66  1  0  0  0
 33 70  2  0  0  0
 34 36  1  0  0  0
 34 59  1  0  0  0
 34 97  1  0  0  0
 35 44  2  0  0  0
 35 45  1  0  0  0
 35 68  1  0  0  0
 36 56  1  0  0  0
 36 98  1  0  0  0
 37 39  1  0  0  0
 37 47  1  0  0  0
 37 66  1  0  0  0
 37 99  1  0  0  0
 38 43  2  0  0  0
 38 46  1  0  0  0
 38 47  1  0  0  0
 39 64  1  0  0  0
 39 67  2  0  0  0
 40 52  1  0  0  0
 40 53  2  0  0  0
 40 58  1  0  0  0
 41100  1  0  0  0
 41101  1  0  0  0
 41102  1  0  0  0
 41 48  1  0  0  0
 42 43  1  0  0  0
 42 66  1  0  0  0
 42103  1  0  0  0
 42104  1  0  0  0
 43 44  1  0  0  0
 44105  1  0  0  0
 45 46  2  0  0  0
 45106  1  0  0  0
 46107  1  0  0  0
 47108  1  0  0  0
 47109  1  0  0  0
 48 56  1  0  0  0
 48 65  1  0  0  0
 48110  1  0  0  0
 49 50  1  0  0  0
 49 53  1  0  0  0
 49 64  1  0  0  0
 49111  1  0  0  0
 50 51  1  0  0  0
 50112  1  0  0  0
 50113  1  0  0  0
 51 52  1  0  0  0
 51114  1  0  0  0
 51115  1  0  0  0
 52116  1  0  0  0
 52117  1  0  0  0
 53 54  1  0  0  0
 54 55  2  0  0  0
 54118  1  0  0  0
 55 57  1  0  0  0
 55119  1  0  0  0
 56 69  2  0  0  0
 57 58  2  0  0  0
 57120  1  0  0  0
 58121  1  0  0  0
 59 60  1  0  0  0
 59 61  1  0  0  0
 59 62  1  0  0  0
 60122  1  0  0  0
 60123  1  0  0  0
 60124  1  0  0  0
 61125  1  0  0  0
 61126  1  0  0  0
 61127  1  0  0  0
 62128  1  0  0  0
 62129  1  0  0  0
 62130  1  0  0  0
 63 65  1  0  0  0
 63131  1  0  0  0
 63132  1  0  0  0
 63133  1  0  0  0
 64134  1  0  0  0
 65135  1  0  0  0
 68 73  1  0  0  0
 71 72  1  0  0  0
 71 75  1  0  0  0
 71136  1  0  0  0
 71137  1  0  0  0
 72 76  1  0  0  0
 72138  1  0  0  0
 72139  1  0  0  0
 73 74  1  0  0  0
 73140  1  0  0  0
 73141  1  0  0  0
 74 76  1  0  0  0
 74142  1  0  0  0
 74143  1  0  0  0
 75144  1  0  0  0
M  ISO  4   1 100  68 101  73 101  75 100
M  END
> <chiral flag>
0

> <version>
0

> <s_m_source_file>
/data/baiqing/PycharmProjects/Reinvent-master-3.2/result/LINK_invent/BTK/process_docking_weight1_custom_sum_contain_oxygen_bond_distance_aromatic_linkinvent_7_9_3/rearranged_h_0002.sdf

> <i_m_source_file_index>
48

> <r_mmod_Potential_Energy-OPLS-2005>
1272.39196777344

> <r_mmod_Stretch_Energy-OPLS-2005>
620.559265136719

> <r_mmod_Bend_Energy-OPLS-2005>
470.408538818359

> <r_mmod_Torsional_Energy-OPLS-2005>
228.680725097656

> <r_mmod_Improper_Torsional_Energy-OPLS-2005>
4.08042764663696

> <r_mmod_Van_der_Waal_Energy-OPLS-2005>
109.728851318359

> <r_mmod_Electrostatic_Energy-OPLS-2005>
-380.777038574219

> <r_mmod_Solvation_Energy-OPLS-2005>
-221.878372192383

> <b_mmod_Minimization_Converged-OPLS-2005>
0

> <r_mmod_RMS_Derivative-OPLS-2005>
0.0835052877664566

$$$$
48
                    3D
 Structure written by MMmdl.
147155  0  0  1  0            999 V2000
  -30.5102  -14.9011   20.4573 C   0  0  0  0  0  0
  -30.4540  -12.5569   19.4935 C   0  0  0  0  0  0
  -29.5281  -12.5455   18.2522 C   0  0  0  0  0  0
  -28.0570  -12.3333   18.6613 C   0  0  0  0  0  0
  -27.6415  -13.2363   19.8519 C   0  0  2  0  0  0
  -28.6840  -13.1966   20.9909 C   0  0  0  0  0  0
  -25.2514  -13.8178   20.5688 C   0  0  0  0  0  0
  -24.1804  -13.0428   20.9195 C   0  0  0  0  0  0
  -24.6398  -11.6905   20.8728 C   0  0  0  0  0  0
  -23.9065  -10.4289   21.0392 C   0  0  0  0  0  0
  -24.3610   -9.4209   21.9176 C   0  0  0  0  0  0
  -23.6290   -8.2243   22.0753 C   0  0  0  0  0  0
  -22.4272   -8.0279   21.3547 C   0  0  0  0  0  0
  -21.9907   -9.0248   20.4645 C   0  0  0  0  0  0
  -22.7233  -10.2131   20.3049 C   0  0  0  0  0  0
  -21.6860   -6.0734   22.5278 C   0  0  0  0  0  0
  -21.4013   -6.5634   23.8211 C   0  0  0  0  0  0
  -21.3662   -5.6785   24.9172 C   0  0  0  0  0  0
  -21.6050   -4.3051   24.7221 C   0  0  0  0  0  0
  -21.8817   -3.8143   23.4344 C   0  0  0  0  0  0
  -21.9191   -4.6960   22.3400 C   0  0  0  0  0  0
  -22.7825  -13.5223   21.1848 C   0  0  0  0  0  0
  -22.1661   -4.2145   21.0979 F   0  0  0  0  0  0
  -21.5634   -3.4535   25.7735 F   0  0  0  0  0  0
  -29.9705  -13.6195   20.4169 N   0  0  0  0  0  0
  -26.2937  -12.9392   20.3260 N   0  0  0  0  0  0
  -25.9336  -11.6534   20.5721 N   0  0  0  0  0  0
  -22.0463  -12.8232   22.0409 N   0  0  0  0  0  0
  -25.4192  -15.1902   20.4085 N   0  0  0  0  0  0
  -31.6882  -15.0519   20.1102 O   0  0  0  0  0  0
  -21.6648   -6.8873   21.4241 O   0  0  0  0  0  0
  -22.3522  -14.5534   20.6695 O   0  0  0  0  0  0
  -24.6429  -31.8462   23.1915 C   0  0  0  0  0  0
  -25.9208  -32.4708   23.8298 C   0  0  1  0  0  0
  -27.2156  -27.1488   20.1583 C   0  0  0  0  0  0
  -25.5973  -33.8520   24.2213 N   0  0  0  0  0  0
  -23.4471  -30.4666   21.5364 C   0  0  2  0  0  0
  -24.8990  -28.8997   20.1109 C   0  0  0  0  0  0
  -22.7569  -29.4559   22.4866 C   0  0  0  0  0  0
  -18.0304  -28.1400   22.8478 C   0  0  0  0  0  0
  -24.1494  -36.7251   23.2639 C   0  0  0  0  0  0
  -26.0037  -30.7225   21.3933 C   0  0  0  0  0  0
  -26.0756  -29.3349   20.7372 C   0  0  0  0  0  0
  -27.2371  -28.4739   20.7503 C   0  0  0  0  0  0
  -26.0203  -26.8245   19.4782 C   0  0  0  0  0  0
  -24.8830  -27.6563   19.4651 C   0  0  0  0  0  0
  -23.6750  -29.7998   20.1543 C   0  0  0  0  0  0
  -25.4127  -36.3039   24.0317 C   0  0  1  0  0  0
  -20.5919  -28.3726   23.1238 C   0  0  2  0  0  0
  -20.6787  -26.9430   22.5410 C   0  0  0  0  0  0
  -19.5761  -26.6384   21.5219 C   0  0  0  0  0  0
  -18.1940  -26.7940   22.1622 C   0  0  0  0  0  0
  -19.1563  -28.8883   23.2849 C   0  0  0  0  0  0
  -18.9478  -30.1478   23.8866 C   0  0  0  0  0  0
  -17.6474  -30.6594   24.0561 C   0  0  0  0  0  0
  -25.9079  -34.9419   23.5068 C   0  0  0  0  0  0
  -16.5365  -29.9082   23.6340 C   0  0  0  0  0  0
  -16.7291  -28.6507   23.0356 C   0  0  0  0  0  0
  -26.4525  -31.6575   25.0738 C   0  0  0  0  0  0
  -25.3705  -31.3772   26.1433 C   0  0  0  0  0  0
  -27.0382  -30.2963   24.6333 C   0  0  0  0  0  0
  -27.6064  -32.4333   25.7514 C   0  0  0  0  0  0
  -27.5577  -37.1785   24.8457 C   0  0  0  0  0  0
  -21.4263  -29.3052   22.3612 N   0  0  0  0  0  0
  -26.4282  -37.3758   23.9412 N   0  0  0  0  0  0
  -24.7174  -31.0331   22.0951 N   0  0  0  0  0  0
  -23.4215  -28.8105   23.3016 O   0  0  0  0  0  0
  -28.2298  -26.1235   20.1995 O   0  0  0  0  0  0
  -26.5651  -34.8910   22.4637 O   0  0  0  0  0  0
  -23.5551  -32.1341   23.7136 O   0  0  0  0  0  0
  -28.0804  -19.5386   21.1508 C   0  0  0  0  0  0
  -30.1602  -19.9400   20.1407 C   0  0  0  0  0  0
  -28.3508  -18.1209   21.1701 C   0  0  0  0  0  0
  -30.4435  -18.4977   20.1615 C   0  0  0  0  0  0
  -28.9515  -20.5554   20.6402 C   0  0  0  0  0  0
  -29.5419  -17.4984   20.6821 C   0  0  0  0  0  0
  -28.4511  -22.0801   20.7096 C   0  0  0  0  0  0
  -28.7911  -23.4020   20.3218 C   0  0  0  0  0  0
  -27.8954  -24.6848   20.6410 C   0  0  0  0  0  0
  -29.6395  -15.9723   20.7581 N   0  0  0  0  0  0
  -26.8528  -24.5042   21.2763 O   0  0  0  0  0  0
  -31.4880  -12.7277   19.1888 H   0  0  0  0  0  0
  -30.4469  -11.5847   19.9888 H   0  0  0  0  0  0
  -29.8406  -11.7696   17.5519 H   0  0  0  0  0  0
  -29.6243  -13.4933   17.7191 H   0  0  0  0  0  0
  -27.9392  -11.2848   18.9375 H   0  0  0  0  0  0
  -27.3971  -12.5007   17.8087 H   0  0  0  0  0  0
  -27.6247  -14.2531   19.4593 H   0  0  0  0  0  0
  -28.7582  -12.1938   21.4146 H   0  0  0  0  0  0
  -28.3867  -13.8488   21.8131 H   0  0  0  0  0  0
  -25.2750   -9.5696   22.4759 H   0  0  0  0  0  0
  -24.0000   -7.4641   22.7479 H   0  0  0  0  0  0
  -21.0835   -8.8752   19.8960 H   0  0  0  0  0  0
  -22.3670  -10.9662   19.6161 H   0  0  0  0  0  0
  -21.2004   -7.6143   23.9717 H   0  0  0  0  0  0
  -21.1491   -6.0516   25.9076 H   0  0  0  0  0  0
  -22.0597   -2.7608   23.2841 H   0  0  0  0  0  0
  -22.4062  -11.9894   22.4813 H   0  0  0  0  0  0
  -21.1087  -13.1278   22.2602 H   0  0  0  0  0  0
  -24.6396  -15.8331   20.4946 H   0  0  0  0  0  0
  -26.2461  -15.6247   20.0207 H   0  0  0  0  0  0
  -26.7282  -32.5314   23.1036 H   0  0  0  0  0  0
  -25.0124  -33.9645   25.0359 H   0  0  0  0  0  0
  -22.7506  -31.2938   21.3828 H   0  0  0  0  0  0
  -23.3772  -35.9567   23.3285 H   0  0  0  0  0  0
  -24.3583  -36.8898   22.2059 H   0  0  0  0  0  0
  -23.7235  -37.6438   23.6683 H   0  0  0  0  0  0
  -26.1634  -31.4782   20.6235 H   0  0  0  0  0  0
  -26.8727  -30.7691   22.0377 H   0  0  0  0  0  0
  -28.1308  -28.7977   21.2642 H   0  0  0  0  0  0
  -25.9389  -25.8686   18.9807 H   0  0  0  0  0  0
  -23.9887  -27.3196   18.9589 H   0  0  0  0  0  0
  -23.8121  -30.5770   19.4014 H   0  0  0  0  0  0
  -22.7906  -29.2425   19.8398 H   0  0  0  0  0  0
  -25.1318  -36.1862   25.0810 H   0  0  0  0  0  0
  -21.0014  -28.3312   24.1356 H   0  0  0  0  0  0
  -20.5687  -26.2340   23.3633 H   0  0  0  0  0  0
  -21.6655  -26.7438   22.1200 H   0  0  0  0  0  0
  -19.6919  -25.6287   21.1268 H   0  0  0  0  0  0
  -19.6698  -27.3176   20.6742 H   0  0  0  0  0  0
  -17.4220  -26.6708   21.4014 H   0  0  0  0  0  0
  -18.0318  -26.0075   22.9011 H   0  0  0  0  0  0
  -19.7952  -30.7307   24.2219 H   0  0  0  0  0  0
  -17.5024  -31.6268   24.5169 H   0  0  0  0  0  0
  -15.5360  -30.2976   23.7682 H   0  0  0  0  0  0
  -15.8692  -28.0818   22.7086 H   0  0  0  0  0  0
  -24.5896  -30.7103   25.7762 H   0  0  0  0  0  0
  -24.8872  -32.2950   26.4792 H   0  0  0  0  0  0
  -25.7981  -30.8999   27.0255 H   0  0  0  0  0  0
  -26.2996  -29.6694   24.1323 H   0  0  0  0  0  0
  -27.3955  -29.7269   25.4923 H   0  0  0  0  0  0
  -27.8929  -30.4191   23.9680 H   0  0  0  0  0  0
  -27.2670  -33.3653   26.2052 H   0  0  0  0  0  0
  -28.3893  -32.6866   25.0351 H   0  0  0  0  0  0
  -28.0712  -31.8481   26.5463 H   0  0  0  0  0  0
  -28.2583  -38.0097   24.7533 H   0  0  0  0  0  0
  -28.1088  -36.2631   24.6240 H   0  0  0  0  0  0
  -27.2301  -37.1377   25.8860 H   0  0  0  0  0  0
  -20.9480  -29.8762   21.6782 H   0  0  0  0  0  0
  -26.0145  -38.2820   24.1436 H   0  0  0  0  0  0
  -27.1285  -19.8491   21.5595 H   0  0  0  0  0  0
  -30.9148  -20.5918   19.7240 H   0  0  0  0  0  0
  -27.5800  -17.4871   21.5861 H   0  0  0  0  0  0
  -31.3864  -18.1636   19.7519 H   0  0  0  0  0  0
  -27.5165  -22.0938   21.2530 H   0  0  0  0  0  0
  -29.7016  -23.5740   19.7685 H   0  0  0  0  0  0
  -28.7736  -15.5715   21.0844 H   0  0  0  0  0  0
  1 25  1  0  0  0
  1 30  2  0  0  0
  1 80  1  0  0  0
  2  3  1  0  0  0
  2 25  1  0  0  0
  2 82  1  0  0  0
  2 83  1  0  0  0
  3  4  1  0  0  0
  3 84  1  0  0  0
  3 85  1  0  0  0
  4  5  1  0  0  0
  4 86  1  0  0  0
  4 87  1  0  0  0
  5  6  1  0  0  0
  5 26  1  0  0  0
  5 88  1  0  0  0
  6 25  1  0  0  0
  6 89  1  0  0  0
  6 90  1  0  0  0
  7  8  2  0  0  0
  7 26  1  0  0  0
  7 29  1  0  0  0
  8  9  1  0  0  0
  8 22  1  0  0  0
  9 10  1  0  0  0
  9 27  2  0  0  0
 10 11  2  0  0  0
 10 15  1  0  0  0
 11 12  1  0  0  0
 11 91  1  0  0  0
 12 13  2  0  0  0
 12 92  1  0  0  0
 13 14  1  0  0  0
 13 31  1  0  0  0
 14 15  2  0  0  0
 14 93  1  0  0  0
 15 94  1  0  0  0
 16 17  2  0  0  0
 16 21  1  0  0  0
 16 31  1  0  0  0
 17 18  1  0  0  0
 17 95  1  0  0  0
 18 19  2  0  0  0
 18 96  1  0  0  0
 19 20  1  0  0  0
 19 24  1  0  0  0
 20 21  2  0  0  0
 20 97  1  0  0  0
 21 23  1  0  0  0
 22 28  1  0  0  0
 22 32  2  0  0  0
 26 27  1  0  0  0
 28 98  1  0  0  0
 28 99  1  0  0  0
 29100  1  0  0  0
 29101  1  0  0  0
 33 34  1  0  0  0
 33 66  1  0  0  0
 33 70  2  0  0  0
 34 36  1  0  0  0
 34 59  1  0  0  0
 34102  1  0  0  0
 35 44  2  0  0  0
 35 45  1  0  0  0
 35 68  1  0  0  0
 36 56  1  0  0  0
 36103  1  0  0  0
 37 39  1  0  0  0
 37 47  1  0  0  0
 37 66  1  0  0  0
 37104  1  0  0  0
 38 43  2  0  0  0
 38 46  1  0  0  0
 38 47  1  0  0  0
 39 64  1  0  0  0
 39 67  2  0  0  0
 40 52  1  0  0  0
 40 53  2  0  0  0
 40 58  1  0  0  0
 41105  1  0  0  0
 41106  1  0  0  0
 41107  1  0  0  0
 41 48  1  0  0  0
 42 43  1  0  0  0
 42 66  1  0  0  0
 42108  1  0  0  0
 42109  1  0  0  0
 43 44  1  0  0  0
 44110  1  0  0  0
 45 46  2  0  0  0
 45111  1  0  0  0
 46112  1  0  0  0
 47113  1  0  0  0
 47114  1  0  0  0
 48 56  1  0  0  0
 48 65  1  0  0  0
 48115  1  0  0  0
 49 50  1  0  0  0
 49 53  1  0  0  0
 49 64  1  0  0  0
 49116  1  0  0  0
 50 51  1  0  0  0
 50117  1  0  0  0
 50118  1  0  0  0
 51 52  1  0  0  0
 51119  1  0  0  0
 51120  1  0  0  0
 52121  1  0  0  0
 52122  1  0  0  0
 53 54  1  0  0  0
 54 55  2  0  0  0
 54123  1  0  0  0
 55 57  1  0  0  0
 55124  1  0  0  0
 56 69  2  0  0  0
 57 58  2  0  0  0
 57125  1  0  0  0
 58126  1  0  0  0
 59 60  1  0  0  0
 59 61  1  0  0  0
 59 62  1  0  0  0
 60127  1  0  0  0
 60128  1  0  0  0
 60129  1  0  0  0
 61130  1  0  0  0
 61131  1  0  0  0
 61132  1  0  0  0
 62133  1  0  0  0
 62134  1  0  0  0
 62135  1  0  0  0
 63 65  1  0  0  0
 63136  1  0  0  0
 63137  1  0  0  0
 63138  1  0  0  0
 64139  1  0  0  0
 65140  1  0  0  0
 68 79  1  0  0  0
 71 73  2  0  0  0
 71 75  1  0  0  0
 71141  1  0  0  0
 72 74  1  0  0  0
 72 75  2  0  0  0
 72142  1  0  0  0
 73 76  1  0  0  0
 73143  1  0  0  0
 74 76  2  0  0  0
 74144  1  0  0  0
 75 77  1  0  0  0
 76 80  1  0  0  0
 77 78  2  0  0  0
 77145  1  0  0  0
 78 79  1  0  0  0
 78146  1  0  0  0
 79 81  2  0  0  0
 80147  1  0  0  0
M  ISO  4   1 100  68 101  79 101  80 100
M  END
> <chiral flag>
0

> <version>
0

> <s_m_source_file>
/data/baiqing/PycharmProjects/Reinvent-master-3.2/result/LINK_invent/BTK/process_docking_weight1_custom_sum_contain_oxygen_bond_distance_aromatic_linkinvent_7_9_3/rearranged_h_0002.sdf

> <i_m_source_file_index>
49

> <r_mmod_Potential_Energy-OPLS-2005>
438.759887695312

> <r_mmod_Stretch_Energy-OPLS-2005>
230.090744018555

> <r_mmod_Bend_Energy-OPLS-2005>
267.321716308594

> <r_mmod_Torsional_Energy-OPLS-2005>
213.849304199219

> <r_mmod_Improper_Torsional_Energy-OPLS-2005>
3.61965084075928

> <r_mmod_Van_der_Waal_Energy-OPLS-2005>
135.041961669922

> <r_mmod_Electrostatic_Energy-OPLS-2005>
-370.99462890625

> <r_mmod_Solvation_Energy-OPLS-2005>
-217.117935180664

> <b_mmod_Minimization_Converged-OPLS-2005>
0

> <r_mmod_RMS_Derivative-OPLS-2005>
1.52681422233582

$$$$
49
                    3D
 Structure written by MMmdl.
144152  0  0  1  0            999 V2000
  -30.2527  -15.7856   20.3198 C   0  0  0  0  0  0
  -30.4129  -13.1956   19.5441 C   0  0  0  0  0  0
  -29.5557  -12.6952   18.3416 C   0  0  0  0  0  0
  -28.1429  -12.3029   18.7935 C   0  0  0  0  0  0
  -27.5911  -13.3230   19.8121 C   0  0  2  0  0  0
  -28.5962  -13.7228   20.9225 C   0  0  0  0  0  0
  -25.2298  -13.8303   20.5814 C   0  0  0  0  0  0
  -24.1703  -13.0433   20.9298 C   0  0  0  0  0  0
  -24.6427  -11.6953   20.8766 C   0  0  0  0  0  0
  -23.9132  -10.4295   21.0396 C   0  0  0  0  0  0
  -24.3665   -9.4205   21.9177 C   0  0  0  0  0  0
  -23.6321   -8.2248   22.0752 C   0  0  0  0  0  0
  -22.4300   -8.0290   21.3544 C   0  0  0  0  0  0
  -21.9950   -9.0267   20.4641 C   0  0  0  0  0  0
  -22.7298  -10.2135   20.3047 C   0  0  0  0  0  0
  -21.6861   -6.0744   22.5279 C   0  0  0  0  0  0
  -21.4020   -6.5645   23.8212 C   0  0  0  0  0  0
  -21.3662   -5.6796   24.9173 C   0  0  0  0  0  0
  -21.6043   -4.3058   24.7222 C   0  0  0  0  0  0
  -21.8819   -3.8153   23.4343 C   0  0  0  0  0  0
  -21.9195   -4.6971   22.3400 C   0  0  0  0  0  0
  -22.7713  -13.5153   21.1924 C   0  0  0  0  0  0
  -22.1662   -4.2156   21.0978 F   0  0  0  0  0  0
  -21.5628   -3.4540   25.7734 F   0  0  0  0  0  0
  -29.7463  -14.3930   20.2576 N   0  0  0  0  0  0
  -26.2765  -12.9664   20.3261 N   0  0  0  0  0  0
  -25.9380  -11.6718   20.5700 N   0  0  0  0  0  0
  -22.0382  -12.8128   22.0477 N   0  0  0  0  0  0
  -25.3869  -15.2046   20.4250 N   0  0  0  0  0  0
  -31.4904  -15.6923   20.1741 O   0  0  0  0  0  0
  -21.6652   -6.8893   21.4243 O   0  0  0  0  0  0
  -22.3383  -14.5448   20.6756 O   0  0  0  0  0  0
  -24.6937  -31.7875   23.1430 C   0  0  0  0  0  0
  -25.9469  -32.4403   23.8012 C   0  0  1  0  0  0
  -27.2288  -26.5847   20.2333 C   0  0  0  0  0  0
  -25.6006  -33.8236   24.1886 N   0  0  0  0  0  0
  -23.5253  -30.3838   21.4993 C   0  0  2  0  0  0
  -24.9848  -28.6999   20.1247 C   0  0  0  0  0  0
  -22.7811  -29.4246   22.4685 C   0  0  0  0  0  0
  -18.0345  -28.1429   22.8447 C   0  0  0  0  0  0
  -24.1498  -36.7127   23.2655 C   0  0  0  0  0  0
  -26.1101  -30.4789   21.4290 C   0  0  0  0  0  0
  -26.1729  -29.0293   20.7871 C   0  0  0  0  0  0
  -27.2721  -28.0017   20.8104 C   0  0  0  0  0  0
  -26.0126  -26.5021   19.4993 C   0  0  0  0  0  0
  -24.9500  -27.4625   19.4574 C   0  0  0  0  0  0
  -23.7872  -29.6700   20.1399 C   0  0  0  0  0  0
  -25.4153  -36.2859   24.0272 C   0  0  1  0  0  0
  -20.5983  -28.3794   23.1121 C   0  0  2  0  0  0
  -20.6808  -26.9443   22.5404 C   0  0  0  0  0  0
  -19.5785  -26.6368   21.5216 C   0  0  0  0  0  0
  -18.1967  -26.7953   22.1616 C   0  0  0  0  0  0
  -19.1613  -28.8938   23.2761 C   0  0  0  0  0  0
  -18.9517  -30.1518   23.8810 C   0  0  0  0  0  0
  -17.6506  -30.6607   24.0548 C   0  0  0  0  0  0
  -25.9140  -34.9252   23.4925 C   0  0  0  0  0  0
  -16.5395  -29.9087   23.6353 C   0  0  0  0  0  0
  -16.7323  -28.6512   23.0366 C   0  0  0  0  0  0
  -26.4613  -31.6485   25.0681 C   0  0  0  0  0  0
  -25.3644  -31.3836   26.1269 C   0  0  0  0  0  0
  -27.0565  -30.2808   24.6673 C   0  0  0  0  0  0
  -27.6042  -32.4373   25.7504 C   0  0  0  0  0  0
  -27.5560  -37.1725   24.8468 C   0  0  0  0  0  0
  -21.4449  -29.3019   22.3430 N   0  0  0  0  0  0
  -26.4271  -37.3630   23.9401 N   0  0  0  0  0  0
  -24.8008  -30.9200   22.0755 N   0  0  0  0  0  0
  -23.4201  -28.7862   23.3081 O   0  0  0  0  0  0
  -28.1916  -25.3215   20.2556 O   0  0  0  0  0  0
  -26.5793  -34.8849   22.4552 O   0  0  0  0  0  0
  -23.5933  -32.1009   23.6307 O   0  0  0  0  0  0
  -26.4561  -21.7447   20.6829 C   0  0  0  0  0  0
  -27.3400  -20.6155   20.5832 C   0  0  0  0  0  0
  -26.7780  -23.1412   20.5651 C   0  0  0  0  0  0
  -28.9950  -22.3129   20.2297 C   0  0  0  0  0  0
  -28.7344  -20.6932   20.3466 C   0  0  0  0  0  0
  -28.0707  -23.6695   20.3192 C   0  0  0  0  0  0
  -29.6842  -19.0215   20.2779 C   0  0  0  0  0  0
  -29.5054  -17.1968   20.3618 N   0  0  0  0  0  0
  -31.3932  -13.4800   19.1606 H   0  0  0  0  0  0
  -30.6132  -12.3812   20.2421 H   0  0  0  0  0  0
  -30.0429  -11.8536   17.8471 H   0  0  0  0  0  0
  -29.4885  -13.4916   17.5989 H   0  0  0  0  0  0
  -28.2013  -11.3192   19.2612 H   0  0  0  0  0  0
  -27.4750  -12.2013   17.9371 H   0  0  0  0  0  0
  -27.4325  -14.2228   19.2159 H   0  0  0  0  0  0
  -28.8920  -12.8680   21.5326 H   0  0  0  0  0  0
  -28.1320  -14.4366   21.6047 H   0  0  0  0  0  0
  -25.2802   -9.5679   22.4763 H   0  0  0  0  0  0
  -24.0018   -7.4643   22.7481 H   0  0  0  0  0  0
  -21.0878   -8.8799   19.8950 H   0  0  0  0  0  0
  -22.3757  -10.9678   19.6161 H   0  0  0  0  0  0
  -21.2014   -7.6153   23.9717 H   0  0  0  0  0  0
  -21.1483   -6.0525   25.9075 H   0  0  0  0  0  0
  -22.0595   -2.7615   23.2840 H   0  0  0  0  0  0
  -22.4033  -11.9812   22.4881 H   0  0  0  0  0  0
  -21.0983  -13.1114   22.2662 H   0  0  0  0  0  0
  -24.6129  -15.8508   20.5348 H   0  0  0  0  0  0
  -26.2258  -15.6471   20.0742 H   0  0  0  0  0  0
  -26.7558  -32.4845   23.0725 H   0  0  0  0  0  0
  -25.0049  -33.9257   24.9970 H   0  0  0  0  0  0
  -22.8571  -31.2239   21.2993 H   0  0  0  0  0  0
  -23.3777  -35.9439   23.3267 H   0  0  0  0  0  0
  -24.3556  -36.8846   22.2078 H   0  0  0  0  0  0
  -23.7246  -37.6284   23.6774 H   0  0  0  0  0  0
  -26.3247  -31.1924   20.6324 H   0  0  0  0  0  0
  -26.9572  -30.5543   22.0977 H   0  0  0  0  0  0
  -28.1651  -28.2655   21.3591 H   0  0  0  0  0  0
  -25.8391  -25.5791   18.9642 H   0  0  0  0  0  0
  -24.0607  -27.2021   18.8996 H   0  0  0  0  0  0
  -23.9731  -30.4249   19.3752 H   0  0  0  0  0  0
  -22.8900  -29.1425   19.8116 H   0  0  0  0  0  0
  -25.1371  -36.1606   25.0762 H   0  0  0  0  0  0
  -21.0059  -28.3426   24.1251 H   0  0  0  0  0  0
  -20.5662  -26.2421   23.3674 H   0  0  0  0  0  0
  -21.6670  -26.7371   22.1228 H   0  0  0  0  0  0
  -19.6942  -25.6256   21.1302 H   0  0  0  0  0  0
  -19.6733  -27.3132   20.6708 H   0  0  0  0  0  0
  -17.4238  -26.6690   21.4019 H   0  0  0  0  0  0
  -18.0355  -26.0117   22.9033 H   0  0  0  0  0  0
  -19.7994  -30.7356   24.2142 H   0  0  0  0  0  0
  -17.5058  -31.6278   24.5170 H   0  0  0  0  0  0
  -15.5392  -30.2964   23.7728 H   0  0  0  0  0  0
  -15.8723  -28.0804   22.7129 H   0  0  0  0  0  0
  -24.5865  -30.7154   25.7556 H   0  0  0  0  0  0
  -24.8796  -32.3068   26.4452 H   0  0  0  0  0  0
  -25.7787  -30.9150   27.0206 H   0  0  0  0  0  0
  -26.3306  -29.6384   24.1679 H   0  0  0  0  0  0
  -27.3954  -29.7305   25.5461 H   0  0  0  0  0  0
  -27.9304  -30.3902   24.0248 H   0  0  0  0  0  0
  -27.2570  -33.3759   26.1836 H   0  0  0  0  0  0
  -28.3975  -32.6799   25.0420 H   0  0  0  0  0  0
  -28.0577  -31.8668   26.5619 H   0  0  0  0  0  0
  -28.2551  -38.0042   24.7496 H   0  0  0  0  0  0
  -28.1081  -36.2562   24.6327 H   0  0  0  0  0  0
  -27.2268  -37.1395   25.8869 H   0  0  0  0  0  0
  -20.9779  -29.8656   21.6462 H   0  0  0  0  0  0
  -26.0090  -38.2677   24.1399 H   0  0  0  0  0  0
  -25.4173  -21.5156   20.8775 H   0  0  0  0  0  0
  -26.9082  -19.6312   20.7051 H   0  0  0  0  0  0
  -25.9665  -23.8445   20.6853 H   0  0  0  0  0  0
  -30.0360  -22.5452   20.0533 H   0  0  0  0  0  0
  -30.4530  -19.1893   21.0326 H   0  0  0  0  0  0
  -30.2297  -19.1328   19.3405 H   0  0  0  0  0  0
  -28.5205  -16.9901   20.4480 H   0  0  0  0  0  0
  1 25  1  0  0  0
  1 30  2  0  0  0
  1 78  1  0  0  0
  2  3  1  0  0  0
  2 25  1  0  0  0
  2 79  1  0  0  0
  2 80  1  0  0  0
  3  4  1  0  0  0
  3 81  1  0  0  0
  3 82  1  0  0  0
  4  5  1  0  0  0
  4 83  1  0  0  0
  4 84  1  0  0  0
  5  6  1  0  0  0
  5 26  1  0  0  0
  5 85  1  0  0  0
  6 25  1  0  0  0
  6 86  1  0  0  0
  6 87  1  0  0  0
  7  8  2  0  0  0
  7 26  1  0  0  0
  7 29  1  0  0  0
  8  9  1  0  0  0
  8 22  1  0  0  0
  9 10  1  0  0  0
  9 27  2  0  0  0
 10 11  2  0  0  0
 10 15  1  0  0  0
 11 12  1  0  0  0
 11 88  1  0  0  0
 12 13  2  0  0  0
 12 89  1  0  0  0
 13 14  1  0  0  0
 13 31  1  0  0  0
 14 15  2  0  0  0
 14 90  1  0  0  0
 15 91  1  0  0  0
 16 17  2  0  0  0
 16 21  1  0  0  0
 16 31  1  0  0  0
 17 18  1  0  0  0
 17 92  1  0  0  0
 18 19  2  0  0  0
 18 93  1  0  0  0
 19 20  1  0  0  0
 19 24  1  0  0  0
 20 21  2  0  0  0
 20 94  1  0  0  0
 21 23  1  0  0  0
 22 28  1  0  0  0
 22 32  2  0  0  0
 26 27  1  0  0  0
 28 95  1  0  0  0
 28 96  1  0  0  0
 29 97  1  0  0  0
 29 98  1  0  0  0
 33 34  1  0  0  0
 33 66  1  0  0  0
 33 70  2  0  0  0
 34 36  1  0  0  0
 34 59  1  0  0  0
 34 99  1  0  0  0
 35 44  2  0  0  0
 35 45  1  0  0  0
 35 68  1  0  0  0
 36 56  1  0  0  0
 36100  1  0  0  0
 37 39  1  0  0  0
 37 47  1  0  0  0
 37 66  1  0  0  0
 37101  1  0  0  0
 38 43  2  0  0  0
 38 46  1  0  0  0
 38 47  1  0  0  0
 39 64  1  0  0  0
 39 67  2  0  0  0
 40 52  1  0  0  0
 40 53  2  0  0  0
 40 58  1  0  0  0
 41102  1  0  0  0
 41103  1  0  0  0
 41104  1  0  0  0
 41 48  1  0  0  0
 42 43  1  0  0  0
 42 66  1  0  0  0
 42105  1  0  0  0
 42106  1  0  0  0
 43 44  1  0  0  0
 44107  1  0  0  0
 45 46  2  0  0  0
 45108  1  0  0  0
 46109  1  0  0  0
 47110  1  0  0  0
 47111  1  0  0  0
 48 56  1  0  0  0
 48 65  1  0  0  0
 48112  1  0  0  0
 49 50  1  0  0  0
 49 53  1  0  0  0
 49 64  1  0  0  0
 49113  1  0  0  0
 50 51  1  0  0  0
 50114  1  0  0  0
 50115  1  0  0  0
 51 52  1  0  0  0
 51116  1  0  0  0
 51117  1  0  0  0
 52118  1  0  0  0
 52119  1  0  0  0
 53 54  1  0  0  0
 54 55  2  0  0  0
 54120  1  0  0  0
 55 57  1  0  0  0
 55121  1  0  0  0
 56 69  2  0  0  0
 57 58  2  0  0  0
 57122  1  0  0  0
 58123  1  0  0  0
 59 60  1  0  0  0
 59 61  1  0  0  0
 59 62  1  0  0  0
 60124  1  0  0  0
 60125  1  0  0  0
 60126  1  0  0  0
 61127  1  0  0  0
 61128  1  0  0  0
 61129  1  0  0  0
 62130  1  0  0  0
 62131  1  0  0  0
 62132  1  0  0  0
 63 65  1  0  0  0
 63133  1  0  0  0
 63134  1  0  0  0
 63135  1  0  0  0
 64136  1  0  0  0
 65137  1  0  0  0
 68 76  1  0  0  0
 71 72  2  0  0  0
 71 73  1  0  0  0
 71138  1  0  0  0
 72 75  1  0  0  0
 72139  1  0  0  0
 73 76  2  0  0  0
 73140  1  0  0  0
 74 75  2  0  0  0
 74 76  1  0  0  0
 74141  1  0  0  0
 75 77  1  0  0  0
 77 78  1  0  0  0
 77142  1  0  0  0
 77143  1  0  0  0
 78144  1  0  0  0
M  ISO  4   1 100  68 101  76 101  78 100
M  END
> <chiral flag>
0

> <version>
0

> <s_m_source_file>
/data/baiqing/PycharmProjects/Reinvent-master-3.2/result/LINK_invent/BTK/process_docking_weight1_custom_sum_contain_oxygen_bond_distance_aromatic_linkinvent_7_9_3/rearranged_h_0002.sdf

> <i_m_source_file_index>
50

> <r_mmod_Potential_Energy-OPLS-2005>
2769.08959960938

> <r_mmod_Stretch_Energy-OPLS-2005>
1243.04919433594

> <r_mmod_Bend_Energy-OPLS-2005>
646.241638183594

> <r_mmod_Torsional_Energy-OPLS-2005>
201.411758422852

> <r_mmod_Improper_Torsional_Energy-OPLS-2005>
3.7339494228363

> <r_mmod_Van_der_Waal_Energy-OPLS-2005>
127.41130065918

> <r_mmod_Electrostatic_Energy-OPLS-2005>
-376.12548828125

> <r_mmod_Solvation_Energy-OPLS-2005>
-220.923278808594

> <b_mmod_Minimization_Converged-OPLS-2005>
0

> <r_mmod_RMS_Derivative-OPLS-2005>
0.552049160003662

$$$$
50
                    3D
 Structure written by MMmdl.
154162  0  0  1  0            999 V2000
  -30.7504  -14.4424   20.6531 C   0  0  0  0  0  0
  -30.4158  -12.3243   19.4160 C   0  0  0  0  0  0
  -29.4891  -12.5254   18.2028 C   0  0  0  0  0  0
  -28.0133  -12.3756   18.6163 C   0  0  0  0  0  0
  -27.6601  -13.2132   19.8739 C   0  0  2  0  0  0
  -28.6999  -13.0004   20.9969 C   0  0  0  0  0  0
  -25.2523  -13.8156   20.5607 C   0  0  0  0  0  0
  -24.1814  -13.0433   20.9187 C   0  0  0  0  0  0
  -24.6392  -11.6903   20.8753 C   0  0  0  0  0  0
  -23.9067  -10.4293   21.0409 C   0  0  0  0  0  0
  -24.3617   -9.4205   21.9184 C   0  0  0  0  0  0
  -23.6288   -8.2242   22.0762 C   0  0  0  0  0  0
  -22.4271   -8.0282   21.3549 C   0  0  0  0  0  0
  -21.9906   -9.0259   20.4654 C   0  0  0  0  0  0
  -22.7239  -10.2134   20.3058 C   0  0  0  0  0  0
  -21.6847   -6.0730   22.5279 C   0  0  0  0  0  0
  -21.4013   -6.5635   23.8214 C   0  0  0  0  0  0
  -21.3658   -5.6789   24.9175 C   0  0  0  0  0  0
  -21.6039   -4.3054   24.7224 C   0  0  0  0  0  0
  -21.8820   -3.8141   23.4349 C   0  0  0  0  0  0
  -21.9196   -4.6956   22.3402 C   0  0  0  0  0  0
  -22.7834  -13.5225   21.1850 C   0  0  0  0  0  0
  -22.1661   -4.2144   21.0978 F   0  0  0  0  0  0
  -21.5628   -3.4536   25.7739 F   0  0  0  0  0  0
  -30.0353  -13.2986   20.4546 N   0  0  0  0  0  0
  -26.3005  -12.9359   20.3342 N   0  0  0  0  0  0
  -25.9323  -11.6513   20.5770 N   0  0  0  0  0  0
  -22.0467  -12.8230   22.0406 N   0  0  0  0  0  0
  -25.4138  -15.1854   20.3835 N   0  0  0  0  0  0
  -31.8015  -14.6813   20.0535 O   0  0  0  0  0  0
  -21.6638   -6.8875   21.4242 O   0  0  0  0  0  0
  -22.3513  -14.5522   20.6690 O   0  0  0  0  0  0
  -24.6155  -31.8672   23.2079 C   0  0  0  0  0  0
  -25.9039  -32.4817   23.8376 C   0  0  1  0  0  0
  -27.2335  -27.4283   20.1030 C   0  0  0  0  0  0
  -25.5890  -33.8617   24.2300 N   0  0  0  0  0  0
  -23.4039  -30.4912   21.5481 C   0  0  2  0  0  0
  -24.8519  -28.9524   20.1159 C   0  0  0  0  0  0
  -22.7420  -29.4669   22.4986 C   0  0  0  0  0  0
  -18.0284  -28.1384   22.8498 C   0  0  0  0  0  0
  -24.1488  -36.7318   23.2642 C   0  0  0  0  0  0
  -25.9331  -30.8329   21.3596 C   0  0  0  0  0  0
  -26.0128  -29.4651   20.7108 C   0  0  0  0  0  0
  -27.2100  -28.7107   20.7001 C   0  0  0  0  0  0
  -26.0603  -26.9289   19.5042 C   0  0  0  0  0  0
  -24.8706  -27.6836   19.5082 C   0  0  0  0  0  0
  -23.6129  -29.8200   20.1634 C   0  0  0  0  0  0
  -25.4110  -36.3109   24.0333 C   0  0  1  0  0  0
  -20.5877  -28.3672   23.1318 C   0  0  2  0  0  0
  -20.6779  -26.9410   22.5421 C   0  0  0  0  0  0
  -19.5749  -26.6402   21.5220 C   0  0  0  0  0  0
  -18.1925  -26.7934   22.1629 C   0  0  0  0  0  0
  -19.1535  -28.8843   23.2908 C   0  0  0  0  0  0
  -18.9461  -30.1455   23.8912 C   0  0  0  0  0  0
  -17.6463  -30.6588   24.0574 C   0  0  0  0  0  0
  -25.9036  -34.9478   23.5115 C   0  0  0  0  0  0
  -16.5352  -29.9092   23.6332 C   0  0  0  0  0  0
  -16.7274  -28.6511   23.0342 C   0  0  0  0  0  0
  -26.4462  -31.6607   25.0716 C   0  0  0  0  0  0
  -25.3727  -31.3729   26.1469 C   0  0  0  0  0  0
  -27.0274  -30.3045   24.6082 C   0  0  0  0  0  0
  -27.6034  -32.4331   25.7472 C   0  0  0  0  0  0
  -27.5578  -37.1816   24.8468 C   0  0  0  0  0  0
  -21.4149  -29.3034   22.3719 N   0  0  0  0  0  0
  -26.4293  -37.3798   23.9410 N   0  0  0  0  0  0
  -24.6694  -31.0782   22.0972 N   0  0  0  0  0  0
  -23.4196  -28.8228   23.3039 O   0  0  0  0  0  0
  -28.3763  -26.6588   20.0952 O   0  0  0  0  0  0
  -26.5614  -34.8929   22.4688 O   0  0  0  0  0  0
  -23.5346  -32.1409   23.7484 O   0  0  0  0  0  0
  -30.0917  -19.0019   21.4397 C   0  0  0  0  0  0
  -30.6357  -17.6941   21.4436 C   0  0  0  0  0  0
  -28.3999  -16.7575   21.4424 C   0  0  0  0  0  0
  -28.6901  -19.2109   21.4689 C   0  0  0  0  0  0
  -29.7955  -16.5559   21.4584 C   0  0  0  0  0  0
  -27.8517  -18.0628   21.4439 C   0  0  0  0  0  0
  -28.1103  -20.5970   21.6973 C   0  0  0  0  0  0
  -28.5479  -24.1564   20.4530 C   0  0  0  0  0  0
  -28.4643  -23.0637   21.5562 C   0  0  0  0  0  0
  -28.3758  -25.5827   21.0521 C   0  0  0  0  0  0
  -30.3531  -15.2524   21.6511 N   0  0  0  0  0  0
  -28.7141  -21.6664   21.1320 N   0  0  0  0  0  0
  -27.1231  -20.7319   22.4256 O   0  0  0  0  0  0
  -26.5023  -18.1885   21.4608 F   0  0  0  0  0  0
  -31.4594  -12.4208   19.1119 H   0  0  0  0  0  0
  -30.3170  -11.3098   19.8065 H   0  0  0  0  0  0
  -29.7340  -11.8072   17.4192 H   0  0  0  0  0  0
  -29.6551  -13.5150   17.7731 H   0  0  0  0  0  0
  -27.8280  -11.3183   18.8089 H   0  0  0  0  0  0
  -27.3616  -12.6513   17.7867 H   0  0  0  0  0  0
  -27.7039  -14.2616   19.5785 H   0  0  0  0  0  0
  -28.6729  -11.9677   21.3470 H   0  0  0  0  0  0
  -28.4509  -13.6100   21.8654 H   0  0  0  0  0  0
  -25.2765   -9.5676   22.4754 H   0  0  0  0  0  0
  -24.0001   -7.4628   22.7474 H   0  0  0  0  0  0
  -21.0842   -8.8775   19.8954 H   0  0  0  0  0  0
  -22.3701  -10.9675   19.6165 H   0  0  0  0  0  0
  -21.2000   -7.6142   23.9716 H   0  0  0  0  0  0
  -21.1481   -6.0517   25.9078 H   0  0  0  0  0  0
  -22.0602   -2.7605   23.2851 H   0  0  0  0  0  0
  -22.4101  -11.9922   22.4849 H   0  0  0  0  0  0
  -21.1088  -13.1270   22.2615 H   0  0  0  0  0  0
  -24.6428  -15.8351   20.4903 H   0  0  0  0  0  0
  -26.2473  -15.6237   20.0161 H   0  0  0  0  0  0
  -26.7114  -32.5523   23.1144 H   0  0  0  0  0  0
  -25.0040  -33.9770   25.0442 H   0  0  0  0  0  0
  -22.6952  -31.3095   21.4066 H   0  0  0  0  0  0
  -23.3734  -35.9666   23.3320 H   0  0  0  0  0  0
  -24.3589  -36.8927   22.2055 H   0  0  0  0  0  0
  -23.7254  -37.6535   23.6647 H   0  0  0  0  0  0
  -26.0461  -31.5986   20.5897 H   0  0  0  0  0  0
  -26.8215  -30.8895   21.9764 H   0  0  0  0  0  0
  -28.1069  -29.1017   21.1610 H   0  0  0  0  0  0
  -26.0689  -25.9538   19.0378 H   0  0  0  0  0  0
  -23.9785  -27.2835   19.0457 H   0  0  0  0  0  0
  -23.7231  -30.5939   19.4031 H   0  0  0  0  0  0
  -22.7354  -29.2434   19.8648 H   0  0  0  0  0  0
  -25.1287  -36.1969   25.0826 H   0  0  0  0  0  0
  -20.9976  -28.3237   24.1437 H   0  0  0  0  0  0
  -20.5706  -26.2272   23.3602 H   0  0  0  0  0  0
  -21.6639  -26.7471   22.1190 H   0  0  0  0  0  0
  -19.6908  -25.6324   21.1225 H   0  0  0  0  0  0
  -19.6676  -27.3234   20.6762 H   0  0  0  0  0  0
  -17.4202  -26.6708   21.4024 H   0  0  0  0  0  0
  -18.0305  -26.0068   22.9011 H   0  0  0  0  0  0
  -19.7938  -30.7274   24.2271 H   0  0  0  0  0  0
  -17.5015  -31.6261   24.5186 H   0  0  0  0  0  0
  -15.5350  -30.2994   23.7642 H   0  0  0  0  0  0
  -15.8679  -28.0841   22.7024 H   0  0  0  0  0  0
  -24.5873  -30.7105   25.7804 H   0  0  0  0  0  0
  -24.8946  -32.2899   26.4929 H   0  0  0  0  0  0
  -25.8076  -30.8879   27.0216 H   0  0  0  0  0  0
  -26.2801  -29.6841   24.1114 H   0  0  0  0  0  0
  -27.4025  -29.7254   25.4529 H   0  0  0  0  0  0
  -27.8648  -30.4365   23.9228 H   0  0  0  0  0  0
  -27.2638  -33.3619   26.2071 H   0  0  0  0  0  0
  -28.3817  -32.6930   25.0288 H   0  0  0  0  0  0
  -28.0719  -31.8452   26.5375 H   0  0  0  0  0  0
  -28.2607  -38.0103   24.7502 H   0  0  0  0  0  0
  -28.1062  -36.2637   24.6295 H   0  0  0  0  0  0
  -27.2305  -37.1471   25.8876 H   0  0  0  0  0  0
  -20.9309  -29.8743   21.6929 H   0  0  0  0  0  0
  -26.0179  -38.2876   24.1405 H   0  0  0  0  0  0
  -30.7643  -19.8466   21.4829 H   0  0  0  0  0  0
  -31.7104  -17.5721   21.4757 H   0  0  0  0  0  0
  -27.7339  -15.9110   21.4984 H   0  0  0  0  0  0
  -27.7765  -23.9794   19.7043 H   0  0  0  0  0  0
  -29.5039  -24.0956   19.9327 H   0  0  0  0  0  0
  -27.4854  -23.1484   22.0304 H   0  0  0  0  0  0
  -29.1875  -23.2931   22.3402 H   0  0  0  0  0  0
  -29.1982  -25.7731   21.7436 H   0  0  0  0  0  0
  -27.4728  -25.6074   21.6650 H   0  0  0  0  0  0
  -31.1295  -15.3143   22.2930 H   0  0  0  0  0  0
  -29.5026  -21.4884   20.5254 H   0  0  0  0  0  0
  1 25  1  0  0  0
  1 30  2  0  0  0
  1 81  1  0  0  0
  2  3  1  0  0  0
  2 25  1  0  0  0
  2 85  1  0  0  0
  2 86  1  0  0  0
  3  4  1  0  0  0
  3 87  1  0  0  0
  3 88  1  0  0  0
  4  5  1  0  0  0
  4 89  1  0  0  0
  4 90  1  0  0  0
  5  6  1  0  0  0
  5 26  1  0  0  0
  5 91  1  0  0  0
  6 25  1  0  0  0
  6 92  1  0  0  0
  6 93  1  0  0  0
  7  8  2  0  0  0
  7 26  1  0  0  0
  7 29  1  0  0  0
  8  9  1  0  0  0
  8 22  1  0  0  0
  9 10  1  0  0  0
  9 27  2  0  0  0
 10 11  2  0  0  0
 10 15  1  0  0  0
 11 12  1  0  0  0
 11 94  1  0  0  0
 12 13  2  0  0  0
 12 95  1  0  0  0
 13 14  1  0  0  0
 13 31  1  0  0  0
 14 15  2  0  0  0
 14 96  1  0  0  0
 15 97  1  0  0  0
 16 17  2  0  0  0
 16 21  1  0  0  0
 16 31  1  0  0  0
 17 18  1  0  0  0
 17 98  1  0  0  0
 18 19  2  0  0  0
 18 99  1  0  0  0
 19 20  1  0  0  0
 19 24  1  0  0  0
 20 21  2  0  0  0
 20100  1  0  0  0
 21 23  1  0  0  0
 22 28  1  0  0  0
 22 32  2  0  0  0
 26 27  1  0  0  0
 28101  1  0  0  0
 28102  1  0  0  0
 29103  1  0  0  0
 29104  1  0  0  0
 33 34  1  0  0  0
 33 66  1  0  0  0
 33 70  2  0  0  0
 34 36  1  0  0  0
 34 59  1  0  0  0
 34105  1  0  0  0
 35 44  2  0  0  0
 35 45  1  0  0  0
 35 68  1  0  0  0
 36 56  1  0  0  0
 36106  1  0  0  0
 37 39  1  0  0  0
 37 47  1  0  0  0
 37 66  1  0  0  0
 37107  1  0  0  0
 38 43  2  0  0  0
 38 46  1  0  0  0
 38 47  1  0  0  0
 39 64  1  0  0  0
 39 67  2  0  0  0
 40 52  1  0  0  0
 40 53  2  0  0  0
 40 58  1  0  0  0
 41108  1  0  0  0
 41109  1  0  0  0
 41110  1  0  0  0
 41 48  1  0  0  0
 42 43  1  0  0  0
 42 66  1  0  0  0
 42111  1  0  0  0
 42112  1  0  0  0
 43 44  1  0  0  0
 44113  1  0  0  0
 45 46  2  0  0  0
 45114  1  0  0  0
 46115  1  0  0  0
 47116  1  0  0  0
 47117  1  0  0  0
 48 56  1  0  0  0
 48 65  1  0  0  0
 48118  1  0  0  0
 49 50  1  0  0  0
 49 53  1  0  0  0
 49 64  1  0  0  0
 49119  1  0  0  0
 50 51  1  0  0  0
 50120  1  0  0  0
 50121  1  0  0  0
 51 52  1  0  0  0
 51122  1  0  0  0
 51123  1  0  0  0
 52124  1  0  0  0
 52125  1  0  0  0
 53 54  1  0  0  0
 54 55  2  0  0  0
 54126  1  0  0  0
 55 57  1  0  0  0
 55127  1  0  0  0
 56 69  2  0  0  0
 57 58  2  0  0  0
 57128  1  0  0  0
 58129  1  0  0  0
 59 60  1  0  0  0
 59 61  1  0  0  0
 59 62  1  0  0  0
 60130  1  0  0  0
 60131  1  0  0  0
 60132  1  0  0  0
 61133  1  0  0  0
 61134  1  0  0  0
 61135  1  0  0  0
 62136  1  0  0  0
 62137  1  0  0  0
 62138  1  0  0  0
 63 65  1  0  0  0
 63139  1  0  0  0
 63140  1  0  0  0
 63141  1  0  0  0
 64142  1  0  0  0
 65143  1  0  0  0
 68 80  1  0  0  0
 71 72  2  0  0  0
 71 74  1  0  0  0
 71144  1  0  0  0
 72 75  1  0  0  0
 72145  1  0  0  0
 73 75  2  0  0  0
 73 76  1  0  0  0
 73146  1  0  0  0
 74 76  2  0  0  0
 74 77  1  0  0  0
 75 81  1  0  0  0
 76 84  1  0  0  0
 77 82  1  0  0  0
 77 83  2  0  0  0
 78 79  1  0  0  0
 78 80  1  0  0  0
 78147  1  0  0  0
 78148  1  0  0  0
 79 82  1  0  0  0
 79149  1  0  0  0
 79150  1  0  0  0
 80151  1  0  0  0
 80152  1  0  0  0
 81153  1  0  0  0
 82154  1  0  0  0
M  ISO  4   1 100  68 101  80 101  81 100
M  END
> <chiral flag>
0

> <version>
0

> <s_m_source_file>
/data/baiqing/PycharmProjects/Reinvent-master-3.2/result/LINK_invent/BTK/process_docking_weight1_custom_sum_contain_oxygen_bond_distance_aromatic_linkinvent_7_9_3/rearranged_h_0002.sdf

> <i_m_source_file_index>
51

> <r_mmod_Potential_Energy-OPLS-2005>
21.9414215087891

> <r_mmod_Stretch_Energy-OPLS-2005>
40.9112396240234

> <r_mmod_Bend_Energy-OPLS-2005>
106.40217590332

> <r_mmod_Torsional_Energy-OPLS-2005>
307.336486816406

> <r_mmod_Improper_Torsional_Energy-OPLS-2005>
10.3106174468994

> <r_mmod_Van_der_Waal_Energy-OPLS-2005>
141.815414428711

> <r_mmod_Electrostatic_Energy-OPLS-2005>
-371.860229492188

> <r_mmod_Solvation_Energy-OPLS-2005>
-224.117111206055

> <b_mmod_Minimization_Converged-OPLS-2005>
0

> <r_mmod_RMS_Derivative-OPLS-2005>
1.62689161300659

$$$$
51
                    3D
 Structure written by MMmdl.
142149  0  0  1  0            999 V2000
  -30.3890  -15.5111   20.3278 C   0  0  0  0  0  0
  -30.4294  -12.9525   19.5664 C   0  0  0  0  0  0
  -29.5540  -12.6186   18.3269 C   0  0  0  0  0  0
  -28.1112  -12.2983   18.7499 C   0  0  0  0  0  0
  -27.5911  -13.3031   19.8058 C   0  0  2  0  0  0
  -28.5907  -13.5968   20.9421 C   0  0  0  0  0  0
  -25.2302  -13.8294   20.5752 C   0  0  0  0  0  0
  -24.1689  -13.0445   20.9254 C   0  0  0  0  0  0
  -24.6383  -11.6952   20.8738 C   0  0  0  0  0  0
  -23.9097  -10.4298   21.0392 C   0  0  0  0  0  0
  -24.3643   -9.4215   21.9175 C   0  0  0  0  0  0
  -23.6311   -8.2252   22.0752 C   0  0  0  0  0  0
  -22.4290   -8.0287   21.3545 C   0  0  0  0  0  0
  -21.9930   -9.0258   20.4644 C   0  0  0  0  0  0
  -22.7264  -10.2133   20.3047 C   0  0  0  0  0  0
  -21.6860   -6.0740   22.5280 C   0  0  0  0  0  0
  -21.4020   -6.5642   23.8213 C   0  0  0  0  0  0
  -21.3661   -5.6794   24.9174 C   0  0  0  0  0  0
  -21.6044   -4.3056   24.7224 C   0  0  0  0  0  0
  -21.8818   -3.8149   23.4345 C   0  0  0  0  0  0
  -21.9195   -4.6966   22.3402 C   0  0  0  0  0  0
  -22.7710  -13.5177   21.1919 C   0  0  0  0  0  0
  -22.1662   -4.2152   21.0980 F   0  0  0  0  0  0
  -21.5627   -3.4539   25.7737 F   0  0  0  0  0  0
  -29.8170  -14.1204   20.3229 N   0  0  0  0  0  0
  -26.2712  -12.9607   20.3126 N   0  0  0  0  0  0
  -25.9313  -11.6686   20.5642 N   0  0  0  0  0  0
  -22.0389  -12.8147   22.0478 N   0  0  0  0  0  0
  -25.3953  -15.2038   20.4268 N   0  0  0  0  0  0
  -31.6119  -15.4976   20.1176 O   0  0  0  0  0  0
  -21.6650   -6.8885   21.4243 O   0  0  0  0  0  0
  -22.3379  -14.5477   20.6766 O   0  0  0  0  0  0
  -24.6773  -31.8071   23.1569 C   0  0  0  0  0  0
  -25.9385  -32.4503   23.8091 C   0  0  1  0  0  0
  -27.2217  -26.7704   20.2102 C   0  0  0  0  0  0
  -25.5990  -33.8325   24.1984 N   0  0  0  0  0  0
  -23.4998  -30.4118   21.5095 C   0  0  2  0  0  0
  -24.9554  -28.7652   20.1175 C   0  0  0  0  0  0
  -22.7736  -29.4354   22.4734 C   0  0  0  0  0  0
  -18.0333  -28.1417   22.8459 C   0  0  0  0  0  0
  -24.1495  -36.7169   23.2651 C   0  0  0  0  0  0
  -26.0770  -30.5630   21.4101 C   0  0  0  0  0  0
  -26.1433  -29.1350   20.7595 C   0  0  0  0  0  0
  -27.2655  -28.1641   20.7729 C   0  0  0  0  0  0
  -26.0014  -26.5905   19.5149 C   0  0  0  0  0  0
  -24.9193  -27.5174   19.4719 C   0  0  0  0  0  0
  -23.7493  -29.7132   20.1425 C   0  0  0  0  0  0
  -25.4142  -36.2916   24.0287 C   0  0  1  0  0  0
  -20.5966  -28.3773   23.1157 C   0  0  2  0  0  0
  -20.6803  -26.9439   22.5403 C   0  0  0  0  0  0
  -19.5778  -26.6373   21.5215 C   0  0  0  0  0  0
  -18.1961  -26.7946   22.1620 C   0  0  0  0  0  0
  -19.1598  -28.8918   23.2790 C   0  0  0  0  0  0
  -18.9505  -30.1504   23.8833 C   0  0  0  0  0  0
  -17.6496  -30.6602   24.0551 C   0  0  0  0  0  0
  -25.9118  -34.9304   23.4968 C   0  0  0  0  0  0
  -16.5386  -29.9085   23.6348 C   0  0  0  0  0  0
  -16.7314  -28.6507   23.0366 C   0  0  0  0  0  0
  -26.4585  -31.6511   25.0686 C   0  0  0  0  0  0
  -25.3668  -31.3807   26.1313 C   0  0  0  0  0  0
  -27.0509  -30.2858   24.6536 C   0  0  0  0  0  0
  -27.6044  -32.4358   25.7503 C   0  0  0  0  0  0
  -27.5567  -37.1740   24.8465 C   0  0  0  0  0  0
  -21.4390  -29.3033   22.3486 N   0  0  0  0  0  0
  -26.4273  -37.3671   23.9409 N   0  0  0  0  0  0
  -24.7742  -30.9585   22.0784 N   0  0  0  0  0  0
  -23.4211  -28.7947   23.3048 O   0  0  0  0  0  0
  -28.2032  -25.5924   20.2788 O   0  0  0  0  0  0
  -26.5751  -34.8870   22.4580 O   0  0  0  0  0  0
  -23.5809  -32.1112   23.6567 O   0  0  0  0  0  0
  -28.9804  -22.2543   20.3095 C   0  0  0  0  0  0
  -28.7124  -20.3669   20.3176 C   0  0  0  0  0  0
  -27.9862  -23.8779   20.2114 C   0  0  0  0  0  0
  -29.7030  -18.7369   20.3494 C   0  0  0  0  0  0
  -29.4448  -17.0336   20.4354 O   0  0  0  0  0  0
  -31.4423  -13.1868   19.2368 H   0  0  0  0  0  0
  -30.5280  -12.0812   20.2161 H   0  0  0  0  0  0
  -29.9794  -11.7813   17.7721 H   0  0  0  0  0  0
  -29.5533  -13.4711   17.6460 H   0  0  0  0  0  0
  -28.1061  -11.2920   19.1704 H   0  0  0  0  0  0
  -27.4516  -12.2728   17.8817 H   0  0  0  0  0  0
  -27.4720  -14.2369   19.2543 H   0  0  0  0  0  0
  -28.7869  -12.7077   21.5432 H   0  0  0  0  0  0
  -28.1843  -14.3500   21.6190 H   0  0  0  0  0  0
  -25.2784   -9.5695   22.4755 H   0  0  0  0  0  0
  -24.0016   -7.4647   22.7476 H   0  0  0  0  0  0
  -21.0859   -8.8779   19.8952 H   0  0  0  0  0  0
  -22.3718  -10.9671   19.6157 H   0  0  0  0  0  0
  -21.2015   -7.6151   23.9717 H   0  0  0  0  0  0
  -21.1482   -6.0524   25.9077 H   0  0  0  0  0  0
  -22.0596   -2.7611   23.2845 H   0  0  0  0  0  0
  -22.4038  -11.9819   22.4860 H   0  0  0  0  0  0
  -21.0999  -13.1141   22.2696 H   0  0  0  0  0  0
  -24.6350  -15.8612   20.5631 H   0  0  0  0  0  0
  -26.2583  -15.6491   20.1391 H   0  0  0  0  0  0
  -26.7462  -32.4995   23.0804 H   0  0  0  0  0  0
  -25.0059  -33.9375   25.0084 H   0  0  0  0  0  0
  -22.8214  -31.2473   21.3250 H   0  0  0  0  0  0
  -23.3775  -35.9479   23.3262 H   0  0  0  0  0  0
  -24.3566  -36.8878   22.2075 H   0  0  0  0  0  0
  -23.7234  -37.6328   23.6755 H   0  0  0  0  0  0
  -26.2728  -31.2927   20.6233 H   0  0  0  0  0  0
  -26.9307  -30.6278   22.0725 H   0  0  0  0  0  0
  -28.1626  -28.4519   21.3027 H   0  0  0  0  0  0
  -25.8474  -25.6424   19.0201 H   0  0  0  0  0  0
  -24.0205  -27.2264   18.9456 H   0  0  0  0  0  0
  -23.9193  -30.4751   19.3809 H   0  0  0  0  0  0
  -22.8553  -29.1764   19.8205 H   0  0  0  0  0  0
  -25.1348  -36.1687   25.0776 H   0  0  0  0  0  0
  -21.0049  -28.3392   24.1282 H   0  0  0  0  0  0
  -20.5671  -26.2395   23.3658 H   0  0  0  0  0  0
  -21.6665  -26.7391   22.1218 H   0  0  0  0  0  0
  -19.6936  -25.6266   21.1288 H   0  0  0  0  0  0
  -19.6720  -27.3147   20.6717 H   0  0  0  0  0  0
  -17.4230  -26.6688   21.4024 H   0  0  0  0  0  0
  -18.0352  -26.0104   22.9031 H   0  0  0  0  0  0
  -19.7980  -30.7337   24.2174 H   0  0  0  0  0  0
  -17.5046  -31.6275   24.5166 H   0  0  0  0  0  0
  -15.5383  -30.2966   23.7709 H   0  0  0  0  0  0
  -15.8715  -28.0803   22.7118 H   0  0  0  0  0  0
  -24.5876  -30.7133   25.7615 H   0  0  0  0  0  0
  -24.8832  -32.3022   26.4562 H   0  0  0  0  0  0
  -25.7862  -30.9087   27.0207 H   0  0  0  0  0  0
  -26.3212  -29.6489   24.1526 H   0  0  0  0  0  0
  -27.3961  -29.7282   25.5252 H   0  0  0  0  0  0
  -27.9182  -30.4001   24.0032 H   0  0  0  0  0  0
  -27.2589  -33.3722   26.1897 H   0  0  0  0  0  0
  -28.3949  -32.6820   25.0402 H   0  0  0  0  0  0
  -28.0607  -31.8610   26.5571 H   0  0  0  0  0  0
  -28.2550  -38.0067   24.7521 H   0  0  0  0  0  0
  -28.1097  -36.2591   24.6282 H   0  0  0  0  0  0
  -27.2283  -37.1363   25.8867 H   0  0  0  0  0  0
  -20.9680  -29.8698   21.6568 H   0  0  0  0  0  0
  -26.0105  -38.2720   24.1427 H   0  0  0  0  0  0
  -29.7065  -22.3819   19.5066 H   0  0  0  0  0  0
  -29.5752  -22.4043   21.2106 H   0  0  0  0  0  0
  -28.0645  -20.2219   19.4532 H   0  0  0  0  0  0
  -28.0354  -20.2373   21.1620 H   0  0  0  0  0  0
  -27.2217  -23.7361   20.9754 H   0  0  0  0  0  0
  -27.4341  -23.7657   19.2783 H   0  0  0  0  0  0
  -30.3406  -18.8160   19.4689 H   0  0  0  0  0  0
  -30.3964  -18.8875   21.1767 H   0  0  0  0  0  0
  1 25  1  0  0  0
  1 30  2  0  0  0
  1 75  1  0  0  0
  2  3  1  0  0  0
  2 25  1  0  0  0
  2 76  1  0  0  0
  2 77  1  0  0  0
  3  4  1  0  0  0
  3 78  1  0  0  0
  3 79  1  0  0  0
  4  5  1  0  0  0
  4 80  1  0  0  0
  4 81  1  0  0  0
  5  6  1  0  0  0
  5 26  1  0  0  0
  5 82  1  0  0  0
  6 25  1  0  0  0
  6 83  1  0  0  0
  6 84  1  0  0  0
  7  8  2  0  0  0
  7 26  1  0  0  0
  7 29  1  0  0  0
  8  9  1  0  0  0
  8 22  1  0  0  0
  9 10  1  0  0  0
  9 27  2  0  0  0
 10 11  2  0  0  0
 10 15  1  0  0  0
 11 12  1  0  0  0
 11 85  1  0  0  0
 12 13  2  0  0  0
 12 86  1  0  0  0
 13 14  1  0  0  0
 13 31  1  0  0  0
 14 15  2  0  0  0
 14 87  1  0  0  0
 15 88  1  0  0  0
 16 17  2  0  0  0
 16 21  1  0  0  0
 16 31  1  0  0  0
 17 18  1  0  0  0
 17 89  1  0  0  0
 18 19  2  0  0  0
 18 90  1  0  0  0
 19 20  1  0  0  0
 19 24  1  0  0  0
 20 21  2  0  0  0
 20 91  1  0  0  0
 21 23  1  0  0  0
 22 28  1  0  0  0
 22 32  2  0  0  0
 26 27  1  0  0  0
 28 92  1  0  0  0
 28 93  1  0  0  0
 29 94  1  0  0  0
 29 95  1  0  0  0
 33 34  1  0  0  0
 33 66  1  0  0  0
 33 70  2  0  0  0
 34 36  1  0  0  0
 34 59  1  0  0  0
 34 96  1  0  0  0
 35 44  2  0  0  0
 35 45  1  0  0  0
 35 68  1  0  0  0
 36 56  1  0  0  0
 36 97  1  0  0  0
 37 39  1  0  0  0
 37 47  1  0  0  0
 37 66  1  0  0  0
 37 98  1  0  0  0
 38 43  2  0  0  0
 38 46  1  0  0  0
 38 47  1  0  0  0
 39 64  1  0  0  0
 39 67  2  0  0  0
 40 52  1  0  0  0
 40 53  2  0  0  0
 40 58  1  0  0  0
 41 99  1  0  0  0
 41100  1  0  0  0
 41101  1  0  0  0
 41 48  1  0  0  0
 42 43  1  0  0  0
 42 66  1  0  0  0
 42102  1  0  0  0
 42103  1  0  0  0
 43 44  1  0  0  0
 44104  1  0  0  0
 45 46  2  0  0  0
 45105  1  0  0  0
 46106  1  0  0  0
 47107  1  0  0  0
 47108  1  0  0  0
 48 56  1  0  0  0
 48 65  1  0  0  0
 48109  1  0  0  0
 49 50  1  0  0  0
 49 53  1  0  0  0
 49 64  1  0  0  0
 49110  1  0  0  0
 50 51  1  0  0  0
 50111  1  0  0  0
 50112  1  0  0  0
 51 52  1  0  0  0
 51113  1  0  0  0
 51114  1  0  0  0
 52115  1  0  0  0
 52116  1  0  0  0
 53 54  1  0  0  0
 54 55  2  0  0  0
 54117  1  0  0  0
 55 57  1  0  0  0
 55118  1  0  0  0
 56 69  2  0  0  0
 57 58  2  0  0  0
 57119  1  0  0  0
 58120  1  0  0  0
 59 60  1  0  0  0
 59 61  1  0  0  0
 59 62  1  0  0  0
 60121  1  0  0  0
 60122  1  0  0  0
 60123  1  0  0  0
 61124  1  0  0  0
 61125  1  0  0  0
 61126  1  0  0  0
 62127  1  0  0  0
 62128  1  0  0  0
 62129  1  0  0  0
 63 65  1  0  0  0
 63130  1  0  0  0
 63131  1  0  0  0
 63132  1  0  0  0
 64133  1  0  0  0
 65134  1  0  0  0
 68 73  1  0  0  0
 71 72  1  0  0  0
 71 73  1  0  0  0
 71135  1  0  0  0
 71136  1  0  0  0
 72 74  1  0  0  0
 72137  1  0  0  0
 72138  1  0  0  0
 73139  1  0  0  0
 73140  1  0  0  0
 74 75  1  0  0  0
 74141  1  0  0  0
 74142  1  0  0  0
M  ISO  4   1 100  68 101  73 101  75 100
M  END
> <chiral flag>
0

> <version>
0

> <s_m_source_file>
/data/baiqing/PycharmProjects/Reinvent-master-3.2/result/LINK_invent/BTK/process_docking_weight1_custom_sum_contain_oxygen_bond_distance_aromatic_linkinvent_7_9_3/rearranged_h_0002.sdf

> <i_m_source_file_index>
52

> <r_mmod_Potential_Energy-OPLS-2005>
2205.33056640625

> <r_mmod_Stretch_Energy-OPLS-2005>
1112.28552246094

> <r_mmod_Bend_Energy-OPLS-2005>
588.332763671875

> <r_mmod_Torsional_Energy-OPLS-2005>
175.097625732422

> <r_mmod_Improper_Torsional_Energy-OPLS-2005>
2.61027979850769

> <r_mmod_Van_der_Waal_Energy-OPLS-2005>
109.182518005371

> <r_mmod_Electrostatic_Energy-OPLS-2005>
-319.815063476562

> <r_mmod_Solvation_Energy-OPLS-2005>
-193.124298095703

> <b_mmod_Minimization_Converged-OPLS-2005>
1

> <r_mmod_RMS_Derivative-OPLS-2005>
0.0338250584900379

$$$$
52
                    3D
 Structure written by MMmdl.
136143  0  0  1  0            999 V2000
  -30.0547  -16.4460   20.2582 C   0  0  0  0  0  0
  -30.3444  -13.6555   19.5669 C   0  0  0  0  0  0
  -29.5809  -12.8853   18.4207 C   0  0  0  0  0  0
  -28.2217  -12.3612   18.8918 C   0  0  0  0  0  0
  -27.5631  -13.4089   19.8053 C   0  0  2  0  0  0
  -28.4871  -14.0783   20.8756 C   0  0  0  0  0  0
  -25.2124  -13.8445   20.5879 C   0  0  0  0  0  0
  -24.1631  -13.0454   20.9323 C   0  0  0  0  0  0
  -24.6478  -11.7012   20.8735 C   0  0  0  0  0  0
  -23.9208  -10.4312   21.0352 C   0  0  0  0  0  0
  -24.3712   -9.4224   21.9154 C   0  0  0  0  0  0
  -23.6350   -8.2274   22.0747 C   0  0  0  0  0  0
  -22.4327   -8.0310   21.3544 C   0  0  0  0  0  0
  -21.9989   -9.0286   20.4636 C   0  0  0  0  0  0
  -22.7356  -10.2146   20.3023 C   0  0  0  0  0  0
  -21.6873   -6.0757   22.5279 C   0  0  0  0  0  0
  -21.4030   -6.5652   23.8214 C   0  0  0  0  0  0
  -21.3664   -5.6799   24.9172 C   0  0  0  0  0  0
  -21.6043   -4.3062   24.7220 C   0  0  0  0  0  0
  -21.8817   -3.8158   23.4339 C   0  0  0  0  0  0
  -21.9199   -4.6980   22.3398 C   0  0  0  0  0  0
  -22.7623  -13.5099   21.1948 C   0  0  0  0  0  0
  -22.1663   -4.2164   21.0975 F   0  0  0  0  0  0
  -21.5624   -3.4542   25.7730 F   0  0  0  0  0  0
  -29.5648  -14.8881   20.1934 N   0  0  0  0  0  0
  -26.2690  -12.9979   20.3316 N   0  0  0  0  0  0
  -25.9458  -11.6933   20.5620 N   0  0  0  0  0  0
  -22.0330  -12.8049   22.0506 N   0  0  0  0  0  0
  -25.3551  -15.2209   20.4332 N   0  0  0  0  0  0
  -31.3003  -16.2597   20.1575 O   0  0  0  0  0  0
  -21.6670   -6.8914   21.4248 O   0  0  0  0  0  0
  -22.3263  -14.5387   20.6788 O   0  0  0  0  0  0
  -24.7357  -31.7341   23.1059 C   0  0  0  0  0  0
  -25.9670  -32.4148   23.7810 C   0  0  1  0  0  0
  -27.2554  -26.1545   20.2647 C   0  0  0  0  0  0
  -25.6019  -33.8005   24.1636 N   0  0  0  0  0  0
  -23.5864  -30.3096   21.4734 C   0  0  2  0  0  0
  -25.0488  -28.5320   20.1367 C   0  0  0  0  0  0
  -22.7997  -29.3962   22.4572 C   0  0  0  0  0  0
  -18.0371  -28.1449   22.8427 C   0  0  0  0  0  0
  -24.1496  -36.7016   23.2667 C   0  0  0  0  0  0
  -26.1849  -30.2853   21.4529 C   0  0  0  0  0  0
  -26.2453  -28.7877   20.8145 C   0  0  0  0  0  0
  -27.3043  -27.6477   20.8288 C   0  0  0  0  0  0
  -26.0211  -26.2482   19.5206 C   0  0  0  0  0  0
  -25.0086  -27.2921   19.4634 C   0  0  0  0  0  0
  -23.8699  -29.5528   20.1341 C   0  0  0  0  0  0
  -25.4166  -36.2710   24.0243 C   0  0  1  0  0  0
  -20.6030  -28.3829   23.1046 C   0  0  2  0  0  0
  -20.6807  -26.9438   22.5415 C   0  0  0  0  0  0
  -19.5794  -26.6351   21.5223 C   0  0  0  0  0  0
  -18.1976  -26.7965   22.1609 C   0  0  0  0  0  0
  -19.1650  -28.8976   23.2700 C   0  0  0  0  0  0
  -18.9547  -30.1546   23.8768 C   0  0  0  0  0  0
  -17.6531  -30.6617   24.0538 C   0  0  0  0  0  0
  -25.9179  -34.9115   23.4820 C   0  0  0  0  0  0
  -16.5417  -29.9089   23.6364 C   0  0  0  0  0  0
  -16.7348  -28.6515   23.0376 C   0  0  0  0  0  0
  -26.4679  -31.6422   25.0657 C   0  0  0  0  0  0
  -25.3605  -31.3885   26.1171 C   0  0  0  0  0  0
  -27.0702  -30.2710   24.6944 C   0  0  0  0  0  0
  -27.6020  -32.4417   25.7503 C   0  0  0  0  0  0
  -27.5548  -37.1658   24.8464 C   0  0  0  0  0  0
  -21.4597  -29.2964   22.3307 N   0  0  0  0  0  0
  -26.4245  -37.3533   23.9412 N   0  0  0  0  0  0
  -24.8663  -30.8232   22.0623 N   0  0  0  0  0  0
  -23.4182  -28.7660   23.3173 O   0  0  0  0  0  0
  -28.1678  -24.6999   20.3196 O   0  0  0  0  0  0
  -26.5902  -34.8802   22.4495 O   0  0  0  0  0  0
  -23.6262  -32.0669   23.5664 O   0  0  0  0  0  0
  -28.1629  -22.6483   20.2373 C   0  0  0  0  0  0
  -29.1091  -20.5560   20.2925 C   0  0  0  0  0  0
  -29.0728  -18.5061   20.3040 O   0  0  0  0  0  0
  -31.2793  -14.0166   19.1378 H   0  0  0  0  0  0
  -30.6607  -12.9592   20.3459 H   0  0  0  0  0  0
  -30.1896  -12.0655   18.0370 H   0  0  0  0  0  0
  -29.4281  -13.5693   17.5846 H   0  0  0  0  0  0
  -28.3815  -11.4407   19.4547 H   0  0  0  0  0  0
  -27.5814  -12.1081   18.0457 H   0  0  0  0  0  0
  -27.3265  -14.2135   19.1067 H   0  0  0  0  0  0
  -28.8858  -13.3440   21.5777 H   0  0  0  0  0  0
  -27.9070  -14.7721   21.4846 H   0  0  0  0  0  0
  -25.2846   -9.5695   22.4747 H   0  0  0  0  0  0
  -24.0041   -7.4673   22.7486 H   0  0  0  0  0  0
  -21.0914   -8.8825   19.8947 H   0  0  0  0  0  0
  -22.3812  -10.9684   19.6133 H   0  0  0  0  0  0
  -21.2030   -7.6161   23.9723 H   0  0  0  0  0  0
  -21.1485   -6.0527   25.9076 H   0  0  0  0  0  0
  -22.0589   -2.7620   23.2834 H   0  0  0  0  0  0
  -22.4016  -11.9744   22.4901 H   0  0  0  0  0  0
  -21.0923  -13.0998   22.2709 H   0  0  0  0  0  0
  -24.5800  -15.8636   20.5550 H   0  0  0  0  0  0
  -26.2054  -15.6770   20.1269 H   0  0  0  0  0  0
  -26.7818  -32.4511   23.0570 H   0  0  0  0  0  0
  -24.9980  -33.8948   24.9669 H   0  0  0  0  0  0
  -22.9439  -31.1599   21.2351 H   0  0  0  0  0  0
  -23.3793  -35.9306   23.3221 H   0  0  0  0  0  0
  -24.3548  -36.8822   22.2104 H   0  0  0  0  0  0
  -23.7225  -37.6129   23.6862 H   0  0  0  0  0  0
  -26.4415  -30.9714   20.6448 H   0  0  0  0  0  0
  -27.0177  -30.3722   22.1369 H   0  0  0  0  0  0
  -28.1948  -27.8773   21.3966 H   0  0  0  0  0  0
  -25.7671  -25.3538   18.9693 H   0  0  0  0  0  0
  -24.1239  -27.0740   18.8809 H   0  0  0  0  0  0
  -24.0885  -30.2879   19.3588 H   0  0  0  0  0  0
  -22.9643  -29.0451   19.7982 H   0  0  0  0  0  0
  -25.1401  -36.1390   25.0729 H   0  0  0  0  0  0
  -21.0090  -28.3493   24.1183 H   0  0  0  0  0  0
  -20.5619  -26.2468   23.3725 H   0  0  0  0  0  0
  -21.6665  -26.7295   22.1268 H   0  0  0  0  0  0
  -19.6940  -25.6228   21.1334 H   0  0  0  0  0  0
  -19.6756  -27.3093   20.6701 H   0  0  0  0  0  0
  -17.4250  -26.6713   21.4007 H   0  0  0  0  0  0
  -18.0342  -26.0138   22.9031 H   0  0  0  0  0  0
  -19.8024  -30.7391   24.2084 H   0  0  0  0  0  0
  -17.5081  -31.6283   24.5167 H   0  0  0  0  0  0
  -15.5413  -30.2952   23.7763 H   0  0  0  0  0  0
  -15.8748  -28.0793   22.7164 H   0  0  0  0  0  0
  -24.5850  -30.7181   25.7447 H   0  0  0  0  0  0
  -24.8737  -32.3150   26.4225 H   0  0  0  0  0  0
  -25.7657  -30.9283   27.0191 H   0  0  0  0  0  0
  -26.3513  -29.6145   24.2036 H   0  0  0  0  0  0
  -27.4018  -29.7386   25.5869 H   0  0  0  0  0  0
  -27.9529  -30.3726   24.0630 H   0  0  0  0  0  0
  -27.2489  -33.3854   26.1674 H   0  0  0  0  0  0
  -28.4028  -32.6764   25.0478 H   0  0  0  0  0  0
  -28.0471  -31.8833   26.5748 H   0  0  0  0  0  0
  -28.2488  -38.0022   24.7530 H   0  0  0  0  0  0
  -28.1119  -36.2537   24.6267 H   0  0  0  0  0  0
  -27.2264  -37.1249   25.8865 H   0  0  0  0  0  0
  -21.0034  -29.8530   21.6213 H   0  0  0  0  0  0
  -26.0021  -38.2552   24.1448 H   0  0  0  0  0  0
  -27.4076  -22.4986   21.0086 H   0  0  0  0  0  0
  -27.6029  -22.5536   19.3072 H   0  0  0  0  0  0
  -29.8290  -20.6743   19.4829 H   0  0  0  0  0  0
  -29.7129  -20.6754   21.1918 H   0  0  0  0  0  0
  1 25  1  0  0  0
  1 30  2  0  0  0
  1 73  1  0  0  0
  2  3  1  0  0  0
  2 25  1  0  0  0
  2 74  1  0  0  0
  2 75  1  0  0  0
  3  4  1  0  0  0
  3 76  1  0  0  0
  3 77  1  0  0  0
  4  5  1  0  0  0
  4 78  1  0  0  0
  4 79  1  0  0  0
  5  6  1  0  0  0
  5 26  1  0  0  0
  5 80  1  0  0  0
  6 25  1  0  0  0
  6 81  1  0  0  0
  6 82  1  0  0  0
  7  8  2  0  0  0
  7 26  1  0  0  0
  7 29  1  0  0  0
  8  9  1  0  0  0
  8 22  1  0  0  0
  9 10  1  0  0  0
  9 27  2  0  0  0
 10 11  2  0  0  0
 10 15  1  0  0  0
 11 12  1  0  0  0
 11 83  1  0  0  0
 12 13  2  0  0  0
 12 84  1  0  0  0
 13 14  1  0  0  0
 13 31  1  0  0  0
 14 15  2  0  0  0
 14 85  1  0  0  0
 15 86  1  0  0  0
 16 17  2  0  0  0
 16 21  1  0  0  0
 16 31  1  0  0  0
 17 18  1  0  0  0
 17 87  1  0  0  0
 18 19  2  0  0  0
 18 88  1  0  0  0
 19 20  1  0  0  0
 19 24  1  0  0  0
 20 21  2  0  0  0
 20 89  1  0  0  0
 21 23  1  0  0  0
 22 28  1  0  0  0
 22 32  2  0  0  0
 26 27  1  0  0  0
 28 90  1  0  0  0
 28 91  1  0  0  0
 29 92  1  0  0  0
 29 93  1  0  0  0
 33 34  1  0  0  0
 33 66  1  0  0  0
 33 70  2  0  0  0
 34 36  1  0  0  0
 34 59  1  0  0  0
 34 94  1  0  0  0
 35 44  2  0  0  0
 35 45  1  0  0  0
 35 68  1  0  0  0
 36 56  1  0  0  0
 36 95  1  0  0  0
 37 39  1  0  0  0
 37 47  1  0  0  0
 37 66  1  0  0  0
 37 96  1  0  0  0
 38 43  2  0  0  0
 38 46  1  0  0  0
 38 47  1  0  0  0
 39 64  1  0  0  0
 39 67  2  0  0  0
 40 52  1  0  0  0
 40 53  2  0  0  0
 40 58  1  0  0  0
 41 97  1  0  0  0
 41 98  1  0  0  0
 41 99  1  0  0  0
 41 48  1  0  0  0
 42 43  1  0  0  0
 42 66  1  0  0  0
 42100  1  0  0  0
 42101  1  0  0  0
 43 44  1  0  0  0
 44102  1  0  0  0
 45 46  2  0  0  0
 45103  1  0  0  0
 46104  1  0  0  0
 47105  1  0  0  0
 47106  1  0  0  0
 48 56  1  0  0  0
 48 65  1  0  0  0
 48107  1  0  0  0
 49 50  1  0  0  0
 49 53  1  0  0  0
 49 64  1  0  0  0
 49108  1  0  0  0
 50 51  1  0  0  0
 50109  1  0  0  0
 50110  1  0  0  0
 51 52  1  0  0  0
 51111  1  0  0  0
 51112  1  0  0  0
 52113  1  0  0  0
 52114  1  0  0  0
 53 54  1  0  0  0
 54 55  2  0  0  0
 54115  1  0  0  0
 55 57  1  0  0  0
 55116  1  0  0  0
 56 69  2  0  0  0
 57 58  2  0  0  0
 57117  1  0  0  0
 58118  1  0  0  0
 59 60  1  0  0  0
 59 61  1  0  0  0
 59 62  1  0  0  0
 60119  1  0  0  0
 60120  1  0  0  0
 60121  1  0  0  0
 61122  1  0  0  0
 61123  1  0  0  0
 61124  1  0  0  0
 62125  1  0  0  0
 62126  1  0  0  0
 62127  1  0  0  0
 63 65  1  0  0  0
 63128  1  0  0  0
 63129  1  0  0  0
 63130  1  0  0  0
 64131  1  0  0  0
 65132  1  0  0  0
 68 71  1  0  0  0
 71 72  1  0  0  0
 71133  1  0  0  0
 71134  1  0  0  0
 72 73  1  0  0  0
 72135  1  0  0  0
 72136  1  0  0  0
M  ISO  4   1 100  68 101  71 101  73 100
M  END
> <chiral flag>
0

> <version>
0

> <s_m_source_file>
/data/baiqing/PycharmProjects/Reinvent-master-3.2/result/LINK_invent/BTK/process_docking_weight1_custom_sum_contain_oxygen_bond_distance_aromatic_linkinvent_7_9_3/rearranged_h_0002.sdf

> <i_m_source_file_index>
53

> <r_mmod_Potential_Energy-OPLS-2005>
6478.73583984375

> <r_mmod_Stretch_Energy-OPLS-2005>
3177.73461914062

> <r_mmod_Bend_Energy-OPLS-2005>
1063.67736816406

> <r_mmod_Torsional_Energy-OPLS-2005>
189.976089477539

> <r_mmod_Improper_Torsional_Energy-OPLS-2005>
3.2452130317688

> <r_mmod_Van_der_Waal_Energy-OPLS-2005>
117.621681213379

> <r_mmod_Electrostatic_Energy-OPLS-2005>
-321.906036376953

> <r_mmod_Solvation_Energy-OPLS-2005>
-209.133285522461

> <b_mmod_Minimization_Converged-OPLS-2005>
1

> <r_mmod_RMS_Derivative-OPLS-2005>
0.0454980842769146

$$$$
53
                    3D
 Structure written by MMmdl.
151158  0  0  1  0            999 V2000
  -30.6377  -14.6606   20.4990 C   0  0  0  0  0  0
  -30.4379  -12.4111   19.4449 C   0  0  0  0  0  0
  -29.5049  -12.5033   18.2176 C   0  0  0  0  0  0
  -28.0293  -12.3371   18.6350 C   0  0  0  0  0  0
  -27.6494  -13.2182   19.8533 C   0  0  2  0  0  0
  -28.6980  -13.1021   20.9817 C   0  0  0  0  0  0
  -25.2546  -13.8181   20.5698 C   0  0  0  0  0  0
  -24.1812  -13.0428   20.9200 C   0  0  0  0  0  0
  -24.6393  -11.6914   20.8740 C   0  0  0  0  0  0
  -23.9073  -10.4288   21.0409 C   0  0  0  0  0  0
  -24.3618   -9.4207   21.9192 C   0  0  0  0  0  0
  -23.6292   -8.2234   22.0752 C   0  0  0  0  0  0
  -22.4272   -8.0286   21.3548 C   0  0  0  0  0  0
  -21.9916   -9.0263   20.4640 C   0  0  0  0  0  0
  -22.7243  -10.2146   20.3062 C   0  0  0  0  0  0
  -21.6851   -6.0736   22.5280 C   0  0  0  0  0  0
  -21.4008   -6.5637   23.8214 C   0  0  0  0  0  0
  -21.3670   -5.6791   24.9175 C   0  0  0  0  0  0
  -21.6034   -4.3053   24.7224 C   0  0  0  0  0  0
  -21.8823   -3.8151   23.4344 C   0  0  0  0  0  0
  -21.9190   -4.6960   22.3403 C   0  0  0  0  0  0
  -22.7841  -13.5226   21.1864 C   0  0  0  0  0  0
  -22.1659   -4.2149   21.0979 F   0  0  0  0  0  0
  -21.5632   -3.4541   25.7739 F   0  0  0  0  0  0
  -30.0058  -13.4475   20.4025 N   0  0  0  0  0  0
  -26.2970  -12.9363   20.3293 N   0  0  0  0  0  0
  -25.9322  -11.6521   20.5769 N   0  0  0  0  0  0
  -22.0485  -12.8224   22.0420 N   0  0  0  0  0  0
  -25.4244  -15.1895   20.4103 N   0  0  0  0  0  0
  -31.8221  -14.7935   20.1864 O   0  0  0  0  0  0
  -21.6636   -6.8885   21.4250 O   0  0  0  0  0  0
  -22.3535  -14.5529   20.6715 O   0  0  0  0  0  0
  -24.6288  -31.8606   23.2020 C   0  0  0  0  0  0
  -25.9116  -32.4784   23.8373 C   0  0  1  0  0  0
  -27.2247  -27.2890   20.1066 C   0  0  0  0  0  0
  -25.5914  -33.8582   24.2293 N   0  0  0  0  0  0
  -23.4270  -30.4856   21.5423 C   0  0  2  0  0  0
  -24.8767  -28.9495   20.1121 C   0  0  0  0  0  0
  -22.7518  -29.4622   22.4891 C   0  0  0  0  0  0
  -18.0296  -28.1397   22.8482 C   0  0  0  0  0  0
  -24.1490  -36.7284   23.2640 C   0  0  0  0  0  0
  -25.9747  -30.7847   21.3818 C   0  0  0  0  0  0
  -26.0488  -29.4116   20.7198 C   0  0  0  0  0  0
  -27.2233  -28.5918   20.7116 C   0  0  0  0  0  0
  -26.0091  -26.8952   19.4952 C   0  0  0  0  0  0
  -24.8595  -27.6977   19.4925 C   0  0  0  0  0  0
  -23.6467  -29.8259   20.1572 C   0  0  0  0  0  0
  -25.4112  -36.3076   24.0334 C   0  0  1  0  0  0
  -20.5899  -28.3707   23.1261 C   0  0  2  0  0  0
  -20.6775  -26.9416   22.5403 C   0  0  0  0  0  0
  -19.5747  -26.6390   21.5213 C   0  0  0  0  0  0
  -18.1930  -26.7940   22.1631 C   0  0  0  0  0  0
  -19.1544  -28.8870   23.2870 C   0  0  0  0  0  0
  -18.9470  -30.1466   23.8893 C   0  0  0  0  0  0
  -17.6467  -30.6594   24.0562 C   0  0  0  0  0  0
  -25.9045  -34.9448   23.5114 C   0  0  0  0  0  0
  -16.5359  -29.9088   23.6329 C   0  0  0  0  0  0
  -16.7280  -28.6507   23.0347 C   0  0  0  0  0  0
  -26.4491  -31.6589   25.0749 C   0  0  0  0  0  0
  -25.3714  -31.3738   26.1465 C   0  0  0  0  0  0
  -27.0347  -30.3008   24.6239 C   0  0  0  0  0  0
  -27.6052  -32.4329   25.7506 C   0  0  0  0  0  0
  -27.5579  -37.1801   24.8465 C   0  0  0  0  0  0
  -21.4225  -29.3058   22.3644 N   0  0  0  0  0  0
  -26.4293  -37.3775   23.9401 N   0  0  0  0  0  0
  -24.6955  -31.0605   22.0990 N   0  0  0  0  0  0
  -23.4218  -28.8145   23.2977 O   0  0  0  0  0  0
  -28.3284  -26.4028   20.1991 O   0  0  0  0  0  0
  -26.5611  -34.8911   22.4685 O   0  0  0  0  0  0
  -23.5428  -32.1383   23.7304 O   0  0  0  0  0  0
  -28.3523  -25.0296   19.6976 C   0  0  0  0  0  0
  -29.2818  -23.9706   20.4131 C   0  0  0  0  0  0
  -28.7556  -22.4560   20.5841 C   0  0  0  0  0  0
  -29.6352  -21.1881   20.1421 C   0  0  0  0  0  0
  -29.4328  -19.7889   20.9062 C   0  0  0  0  0  0
  -29.8575  -18.3977   20.2247 C   0  0  0  0  0  0
  -30.2018  -17.1607   21.1821 C   0  0  0  0  0  0
  -29.8495  -15.7451   20.7857 N   0  0  0  0  0  0
  -27.7287  -24.6381   18.7086 O   0  0  0  0  0  0
  -31.4769  -12.5421   19.1388 H   0  0  0  0  0  0
  -30.3817  -11.4220   19.9026 H   0  0  0  0  0  0
  -29.7744  -11.7413   17.4835 H   0  0  0  0  0  0
  -29.6391  -13.4673   17.7249 H   0  0  0  0  0  0
  -27.8770  -11.2863   18.8820 H   0  0  0  0  0  0
  -27.3707  -12.5529   17.7921 H   0  0  0  0  0  0
  -27.6594  -14.2488   19.4974 H   0  0  0  0  0  0
  -28.7173  -12.0907   21.3911 H   0  0  0  0  0  0
  -28.4455  -13.7570   21.8168 H   0  0  0  0  0  0
  -25.2769   -9.5676   22.4761 H   0  0  0  0  0  0
  -23.9998   -7.4636   22.7474 H   0  0  0  0  0  0
  -21.0842   -8.8784   19.8954 H   0  0  0  0  0  0
  -22.3708  -10.9681   19.6162 H   0  0  0  0  0  0
  -21.2004   -7.6148   23.9721 H   0  0  0  0  0  0
  -21.1481   -6.0517   25.9076 H   0  0  0  0  0  0
  -22.0594   -2.7614   23.2845 H   0  0  0  0  0  0
  -22.4096  -11.9889   22.4805 H   0  0  0  0  0  0
  -21.1110  -13.1265   22.2610 H   0  0  0  0  0  0
  -24.6561  -15.8422   20.5196 H   0  0  0  0  0  0
  -26.2686  -15.6336   20.0721 H   0  0  0  0  0  0
  -26.7200  -32.5457   23.1133 H   0  0  0  0  0  0
  -25.0067  -33.9742   25.0438 H   0  0  0  0  0  0
  -22.7213  -31.3054   21.3935 H   0  0  0  0  0  0
  -23.3759  -35.9616   23.3302 H   0  0  0  0  0  0
  -24.3579  -36.8899   22.2054 H   0  0  0  0  0  0
  -23.7233  -37.6487   23.6659 H   0  0  0  0  0  0
  -26.1118  -31.5522   20.6176 H   0  0  0  0  0  0
  -26.8505  -30.8303   22.0165 H   0  0  0  0  0  0
  -28.1181  -28.9364   21.2109 H   0  0  0  0  0  0
  -25.8755  -25.9357   19.0313 H   0  0  0  0  0  0
  -23.9558  -27.3339   19.0234 H   0  0  0  0  0  0
  -23.7676  -30.5982   19.3962 H   0  0  0  0  0  0
  -22.7705  -29.2499   19.8527 H   0  0  0  0  0  0
  -25.1292  -36.1945   25.0832 H   0  0  0  0  0  0
  -20.9999  -28.3284   24.1380 H   0  0  0  0  0  0
  -20.5677  -26.2320   23.3607 H   0  0  0  0  0  0
  -21.6644  -26.7442   22.1192 H   0  0  0  0  0  0
  -19.6905  -25.6301   21.1239 H   0  0  0  0  0  0
  -19.6679  -27.3204   20.6738 H   0  0  0  0  0  0
  -17.4194  -26.6680   21.4032 H   0  0  0  0  0  0
  -18.0333  -26.0084   22.9032 H   0  0  0  0  0  0
  -19.7940  -30.7281   24.2260 H   0  0  0  0  0  0
  -17.5020  -31.6270   24.5174 H   0  0  0  0  0  0
  -15.5351  -30.2997   23.7659 H   0  0  0  0  0  0
  -15.8675  -28.0831   22.7067 H   0  0  0  0  0  0
  -24.5899  -30.7078   25.7781 H   0  0  0  0  0  0
  -24.8897  -32.2917   26.4864 H   0  0  0  0  0  0
  -25.8028  -30.8934   27.0256 H   0  0  0  0  0  0
  -26.2951  -29.6750   24.1237 H   0  0  0  0  0  0
  -27.3989  -29.7275   25.4771 H   0  0  0  0  0  0
  -27.8844  -30.4268   23.9522 H   0  0  0  0  0  0
  -27.2674  -33.3636   26.2078 H   0  0  0  0  0  0
  -28.3866  -32.6878   25.0333 H   0  0  0  0  0  0
  -28.0731  -31.8465   26.5426 H   0  0  0  0  0  0
  -28.2599  -38.0095   24.7507 H   0  0  0  0  0  0
  -28.1073  -36.2625   24.6305 H   0  0  0  0  0  0
  -27.2295  -37.1461   25.8870 H   0  0  0  0  0  0
  -20.9398  -29.8793   21.6865 H   0  0  0  0  0  0
  -26.0173  -38.2858   24.1403 H   0  0  0  0  0  0
  -30.2186  -23.9483   19.8602 H   0  0  0  0  0  0
  -29.5351  -24.3652   21.3963 H   0  0  0  0  0  0
  -27.7857  -22.3699   20.0925 H   0  0  0  0  0  0
  -28.5298  -22.3383   21.6433 H   0  0  0  0  0  0
  -30.6896  -21.4544   20.2197 H   0  0  0  0  0  0
  -29.4614  -21.0193   19.0804 H   0  0  0  0  0  0
  -29.9490  -19.8648   21.8649 H   0  0  0  0  0  0
  -28.3793  -19.6970   21.1717 H   0  0  0  0  0  0
  -29.0588  -18.1058   19.5397 H   0  0  0  0  0  0
  -30.7273  -18.5701   19.5897 H   0  0  0  0  0  0
  -29.6833  -17.3227   22.1275 H   0  0  0  0  0  0
  -31.2620  -17.1985   21.4383 H   0  0  0  0  0  0
  -28.8772  -15.5077   20.9126 H   0  0  0  0  0  0
  1 25  1  0  0  0
  1 30  2  0  0  0
  1 78  1  0  0  0
  2  3  1  0  0  0
  2 25  1  0  0  0
  2 80  1  0  0  0
  2 81  1  0  0  0
  3  4  1  0  0  0
  3 82  1  0  0  0
  3 83  1  0  0  0
  4  5  1  0  0  0
  4 84  1  0  0  0
  4 85  1  0  0  0
  5  6  1  0  0  0
  5 26  1  0  0  0
  5 86  1  0  0  0
  6 25  1  0  0  0
  6 87  1  0  0  0
  6 88  1  0  0  0
  7  8  2  0  0  0
  7 26  1  0  0  0
  7 29  1  0  0  0
  8  9  1  0  0  0
  8 22  1  0  0  0
  9 10  1  0  0  0
  9 27  2  0  0  0
 10 11  2  0  0  0
 10 15  1  0  0  0
 11 12  1  0  0  0
 11 89  1  0  0  0
 12 13  2  0  0  0
 12 90  1  0  0  0
 13 14  1  0  0  0
 13 31  1  0  0  0
 14 15  2  0  0  0
 14 91  1  0  0  0
 15 92  1  0  0  0
 16 17  2  0  0  0
 16 21  1  0  0  0
 16 31  1  0  0  0
 17 18  1  0  0  0
 17 93  1  0  0  0
 18 19  2  0  0  0
 18 94  1  0  0  0
 19 20  1  0  0  0
 19 24  1  0  0  0
 20 21  2  0  0  0
 20 95  1  0  0  0
 21 23  1  0  0  0
 22 28  1  0  0  0
 22 32  2  0  0  0
 26 27  1  0  0  0
 28 96  1  0  0  0
 28 97  1  0  0  0
 29 98  1  0  0  0
 29 99  1  0  0  0
 33 34  1  0  0  0
 33 66  1  0  0  0
 33 70  2  0  0  0
 34 36  1  0  0  0
 34 59  1  0  0  0
 34100  1  0  0  0
 35 44  2  0  0  0
 35 45  1  0  0  0
 35 68  1  0  0  0
 36 56  1  0  0  0
 36101  1  0  0  0
 37 39  1  0  0  0
 37 47  1  0  0  0
 37 66  1  0  0  0
 37102  1  0  0  0
 38 43  2  0  0  0
 38 46  1  0  0  0
 38 47  1  0  0  0
 39 64  1  0  0  0
 39 67  2  0  0  0
 40 52  1  0  0  0
 40 53  2  0  0  0
 40 58  1  0  0  0
 41103  1  0  0  0
 41104  1  0  0  0
 41105  1  0  0  0
 41 48  1  0  0  0
 42 43  1  0  0  0
 42 66  1  0  0  0
 42106  1  0  0  0
 42107  1  0  0  0
 43 44  1  0  0  0
 44108  1  0  0  0
 45 46  2  0  0  0
 45109  1  0  0  0
 46110  1  0  0  0
 47111  1  0  0  0
 47112  1  0  0  0
 48 56  1  0  0  0
 48 65  1  0  0  0
 48113  1  0  0  0
 49 50  1  0  0  0
 49 53  1  0  0  0
 49 64  1  0  0  0
 49114  1  0  0  0
 50 51  1  0  0  0
 50115  1  0  0  0
 50116  1  0  0  0
 51 52  1  0  0  0
 51117  1  0  0  0
 51118  1  0  0  0
 52119  1  0  0  0
 52120  1  0  0  0
 53 54  1  0  0  0
 54 55  2  0  0  0
 54121  1  0  0  0
 55 57  1  0  0  0
 55122  1  0  0  0
 56 69  2  0  0  0
 57 58  2  0  0  0
 57123  1  0  0  0
 58124  1  0  0  0
 59 60  1  0  0  0
 59 61  1  0  0  0
 59 62  1  0  0  0
 60125  1  0  0  0
 60126  1  0  0  0
 60127  1  0  0  0
 61128  1  0  0  0
 61129  1  0  0  0
 61130  1  0  0  0
 62131  1  0  0  0
 62132  1  0  0  0
 62133  1  0  0  0
 63 65  1  0  0  0
 63134  1  0  0  0
 63135  1  0  0  0
 63136  1  0  0  0
 64137  1  0  0  0
 65138  1  0  0  0
 68 71  1  0  0  0
 71 72  1  0  0  0
 71 79  2  0  0  0
 72 73  1  0  0  0
 72139  1  0  0  0
 72140  1  0  0  0
 73 74  1  0  0  0
 73141  1  0  0  0
 73142  1  0  0  0
 74 75  1  0  0  0
 74143  1  0  0  0
 74144  1  0  0  0
 75 76  1  0  0  0
 75145  1  0  0  0
 75146  1  0  0  0
 76 77  1  0  0  0
 76147  1  0  0  0
 76148  1  0  0  0
 77 78  1  0  0  0
 77149  1  0  0  0
 77150  1  0  0  0
 78151  1  0  0  0
M  ISO  4   1 100  68 101  71 101  78 100
M  END
> <chiral flag>
0

> <version>
0

> <s_m_source_file>
/data/baiqing/PycharmProjects/Reinvent-master-3.2/result/LINK_invent/BTK/process_docking_weight1_custom_sum_contain_oxygen_bond_distance_aromatic_linkinvent_7_9_3/rearranged_h_0002.sdf

> <i_m_source_file_index>
54

> <r_mmod_Potential_Energy-OPLS-2005>
126.801826477051

> <r_mmod_Stretch_Energy-OPLS-2005>
105.012145996094

> <r_mmod_Bend_Energy-OPLS-2005>
153.415573120117

> <r_mmod_Torsional_Energy-OPLS-2005>
228.86164855957

> <r_mmod_Improper_Torsional_Energy-OPLS-2005>
4.45526123046875

> <r_mmod_Van_der_Waal_Energy-OPLS-2005>
129.238128662109

> <r_mmod_Electrostatic_Energy-OPLS-2005>
-349.454803466797

> <r_mmod_Solvation_Energy-OPLS-2005>
-207.447448730469

> <b_mmod_Minimization_Converged-OPLS-2005>
0

> <r_mmod_RMS_Derivative-OPLS-2005>
3.75309705734253

$$$$
54
                    3D
 Structure written by MMmdl.
151159  0  0  1  0            999 V2000
  -30.6108  -14.7369   20.4652 C   0  0  0  0  0  0
  -30.4303  -12.4501   19.4613 C   0  0  0  0  0  0
  -29.5092  -12.5150   18.2240 C   0  0  0  0  0  0
  -28.0329  -12.3463   18.6355 C   0  0  0  0  0  0
  -27.6403  -13.2328   19.8479 C   0  0  2  0  0  0
  -28.6879  -13.1550   20.9795 C   0  0  0  0  0  0
  -25.2497  -13.8193   20.5689 C   0  0  0  0  0  0
  -24.1799  -13.0435   20.9206 C   0  0  0  0  0  0
  -24.6398  -11.6912   20.8753 C   0  0  0  0  0  0
  -23.9079  -10.4292   21.0417 C   0  0  0  0  0  0
  -24.3631   -9.4201   21.9188 C   0  0  0  0  0  0
  -23.6308   -8.2234   22.0757 C   0  0  0  0  0  0
  -22.4287   -8.0274   21.3552 C   0  0  0  0  0  0
  -21.9919   -9.0249   20.4646 C   0  0  0  0  0  0
  -22.7255  -10.2131   20.3059 C   0  0  0  0  0  0
  -21.6853   -6.0736   22.5291 C   0  0  0  0  0  0
  -21.4009   -6.5644   23.8224 C   0  0  0  0  0  0
  -21.3658   -5.6798   24.9187 C   0  0  0  0  0  0
  -21.6049   -4.3060   24.7238 C   0  0  0  0  0  0
  -21.8812   -3.8151   23.4357 C   0  0  0  0  0  0
  -21.9192   -4.6964   22.3413 C   0  0  0  0  0  0
  -22.7822  -13.5209   21.1871 C   0  0  0  0  0  0
  -22.1660   -4.2154   21.0987 F   0  0  0  0  0  0
  -21.5634   -3.4535   25.7747 F   0  0  0  0  0  0
  -29.9861  -13.5116   20.3939 N   0  0  0  0  0  0
  -26.2928  -12.9409   20.3266 N   0  0  0  0  0  0
  -25.9322  -11.6549   20.5736 N   0  0  0  0  0  0
  -22.0474  -12.8197   22.0424 N   0  0  0  0  0  0
  -25.4157  -15.1922   20.4071 N   0  0  0  0  0  0
  -31.8076  -14.8217   20.1744 O   0  0  0  0  0  0
  -21.6643   -6.8875   21.4250 O   0  0  0  0  0  0
  -22.3494  -14.5514   20.6713 O   0  0  0  0  0  0
  -24.6315  -31.8538   23.1952 C   0  0  0  0  0  0
  -25.9134  -32.4755   23.8306 C   0  0  1  0  0  0
  -27.2287  -27.2612   20.1419 C   0  0  0  0  0  0
  -25.5939  -33.8555   24.2243 N   0  0  0  0  0  0
  -23.4291  -30.4712   21.5394 C   0  0  2  0  0  0
  -24.8790  -28.9083   20.1172 C   0  0  0  0  0  0
  -22.7498  -29.4577   22.4918 C   0  0  0  0  0  0
  -18.0293  -28.1377   22.8474 C   0  0  0  0  0  0
  -24.1498  -36.7275   23.2638 C   0  0  0  0  0  0
  -25.9726  -30.7677   21.3723 C   0  0  0  0  0  0
  -26.0492  -29.3862   20.7216 C   0  0  0  0  0  0
  -27.2298  -28.5767   20.7163 C   0  0  0  0  0  0
  -26.0371  -26.8408   19.5176 C   0  0  0  0  0  0
  -24.8772  -27.6437   19.5044 C   0  0  0  0  0  0
  -23.6486  -29.7954   20.1592 C   0  0  0  0  0  0
  -25.4130  -36.3070   24.0322 C   0  0  1  0  0  0
  -20.5895  -28.3681   23.1277 C   0  0  2  0  0  0
  -20.6776  -26.9398   22.5411 C   0  0  0  0  0  0
  -19.5758  -26.6371   21.5208 C   0  0  0  0  0  0
  -18.1939  -26.7920   22.1614 C   0  0  0  0  0  0
  -19.1545  -28.8847   23.2870 C   0  0  0  0  0  0
  -18.9463  -30.1452   23.8879 C   0  0  0  0  0  0
  -17.6460  -30.6579   24.0551 C   0  0  0  0  0  0
  -25.9065  -34.9440   23.5084 C   0  0  0  0  0  0
  -16.5352  -29.9068   23.6332 C   0  0  0  0  0  0
  -16.7278  -28.6489   23.0348 C   0  0  0  0  0  0
  -26.4508  -31.6573   25.0691 C   0  0  0  0  0  0
  -25.3734  -31.3693   26.1406 C   0  0  0  0  0  0
  -27.0353  -30.3002   24.6146 C   0  0  0  0  0  0
  -27.6080  -32.4289   25.7468 C   0  0  0  0  0  0
  -27.5587  -37.1795   24.8465 C   0  0  0  0  0  0
  -21.4208  -29.3024   22.3661 N   0  0  0  0  0  0
  -26.4302  -37.3769   23.9402 N   0  0  0  0  0  0
  -24.6966  -31.0491   22.0930 N   0  0  0  0  0  0
  -23.4192  -28.8132   23.3031 O   0  0  0  0  0  0
  -28.3401  -26.3923   20.1368 O   0  0  0  0  0  0
  -26.5625  -34.8916   22.4647 O   0  0  0  0  0  0
  -23.5464  -32.1355   23.7252 O   0  0  0  0  0  0
  -31.7791  -19.0248   21.4916 C   0  0  0  0  0  0
  -30.9240  -20.0860   21.1258 C   0  0  0  0  0  0
  -31.4139  -17.6752   21.3042 C   0  0  0  0  0  0
  -29.2982  -18.4344   20.3830 C   0  0  0  0  0  0
  -29.6543  -19.8424   20.5589 C   0  0  0  0  0  0
  -30.1678  -17.3164   20.7420 C   0  0  0  0  0  0
  -28.8016  -21.0522   20.0523 C   0  0  0  0  0  0
  -28.6137  -23.6754   19.8142 C   0  0  0  0  0  0
  -28.2221  -24.9919   20.6795 C   0  0  0  0  0  0
  -29.8175  -15.8731   20.6119 N   0  0  0  0  0  0
  -29.0181  -22.3527   20.4874 N   0  0  0  0  0  0
  -27.9350  -20.8296   19.2054 O   0  0  0  0  0  0
  -31.4735  -12.5690   19.1619 H   0  0  0  0  0  0
  -30.3648  -11.4709   19.9378 H   0  0  0  0  0  0
  -29.7881  -11.7484   17.4993 H   0  0  0  0  0  0
  -29.6415  -13.4735   17.7201 H   0  0  0  0  0  0
  -27.8719  -11.2961   18.8783 H   0  0  0  0  0  0
  -27.3838  -12.5621   17.7867 H   0  0  0  0  0  0
  -27.6343  -14.2572   19.4763 H   0  0  0  0  0  0
  -28.7234  -12.1530   21.4088 H   0  0  0  0  0  0
  -28.4304  -13.8300   21.7973 H   0  0  0  0  0  0
  -25.2778   -9.5679   22.4754 H   0  0  0  0  0  0
  -24.0027   -7.4621   22.7469 H   0  0  0  0  0  0
  -21.0851   -8.8759   19.8945 H   0  0  0  0  0  0
  -22.3709  -10.9664   19.6167 H   0  0  0  0  0  0
  -21.1989   -7.6152   23.9724 H   0  0  0  0  0  0
  -21.1498   -6.0534   25.9092 H   0  0  0  0  0  0
  -22.0594   -2.7611   23.2865 H   0  0  0  0  0  0
  -22.4094  -11.9875   22.4840 H   0  0  0  0  0  0
  -21.1078  -13.1208   22.2609 H   0  0  0  0  0  0
  -24.6384  -15.8380   20.4950 H   0  0  0  0  0  0
  -26.2490  -15.6312   20.0384 H   0  0  0  0  0  0
  -26.7189  -32.5406   23.1038 H   0  0  0  0  0  0
  -25.0109  -33.9690   25.0405 H   0  0  0  0  0  0
  -22.7261  -31.2934   21.3884 H   0  0  0  0  0  0
  -23.3772  -35.9594   23.3299 H   0  0  0  0  0  0
  -24.3585  -36.8899   22.2052 H   0  0  0  0  0  0
  -23.7236  -37.6470   23.6662 H   0  0  0  0  0  0
  -26.1057  -31.5241   20.5978 H   0  0  0  0  0  0
  -26.8520  -30.8228   22.0025 H   0  0  0  0  0  0
  -28.1319  -28.9413   21.1874 H   0  0  0  0  0  0
  -26.0012  -25.8700   19.0429 H   0  0  0  0  0  0
  -23.9804  -27.2713   19.0285 H   0  0  0  0  0  0
  -23.7736  -30.5666   19.3978 H   0  0  0  0  0  0
  -22.7672  -29.2260   19.8576 H   0  0  0  0  0  0
  -25.1319  -36.1918   25.0813 H   0  0  0  0  0  0
  -20.9990  -28.3253   24.1398 H   0  0  0  0  0  0
  -20.5676  -26.2283   23.3604 H   0  0  0  0  0  0
  -21.6645  -26.7416   22.1213 H   0  0  0  0  0  0
  -19.6923  -25.6281   21.1239 H   0  0  0  0  0  0
  -19.6719  -27.3175   20.6734 H   0  0  0  0  0  0
  -17.4214  -26.6663   21.4011 H   0  0  0  0  0  0
  -18.0344  -26.0066   22.9016 H   0  0  0  0  0  0
  -19.7936  -30.7273   24.2245 H   0  0  0  0  0  0
  -17.5010  -31.6268   24.5136 H   0  0  0  0  0  0
  -15.5347  -30.2953   23.7676 H   0  0  0  0  0  0
  -15.8682  -28.0803   22.7063 H   0  0  0  0  0  0
  -24.5932  -30.7032   25.7706 H   0  0  0  0  0  0
  -24.8901  -32.2843   26.4835 H   0  0  0  0  0  0
  -25.8059  -30.8859   27.0173 H   0  0  0  0  0  0
  -26.2914  -29.6746   24.1204 H   0  0  0  0  0  0
  -27.4087  -29.7277   25.4641 H   0  0  0  0  0  0
  -27.8767  -30.4297   23.9341 H   0  0  0  0  0  0
  -27.2724  -33.3599   26.2043 H   0  0  0  0  0  0
  -28.3902  -32.6818   25.0302 H   0  0  0  0  0  0
  -28.0726  -31.8398   26.5381 H   0  0  0  0  0  0
  -28.2605  -38.0097   24.7528 H   0  0  0  0  0  0
  -28.1088  -36.2626   24.6286 H   0  0  0  0  0  0
  -27.2295  -37.1434   25.8866 H   0  0  0  0  0  0
  -20.9392  -29.8734   21.6857 H   0  0  0  0  0  0
  -26.0185  -38.2843   24.1411 H   0  0  0  0  0  0
  -32.7464  -19.2518   21.9194 H   0  0  0  0  0  0
  -31.2726  -21.1003   21.2636 H   0  0  0  0  0  0
  -32.1187  -16.9140   21.6116 H   0  0  0  0  0  0
  -28.3384  -18.2134   19.9354 H   0  0  0  0  0  0
  -29.4737  -23.9441   19.1997 H   0  0  0  0  0  0
  -27.8079  -23.4825   19.1046 H   0  0  0  0  0  0
  -28.8750  -24.9913   21.5525 H   0  0  0  0  0  0
  -27.2218  -24.8475   21.0893 H   0  0  0  0  0  0
  -28.8304  -15.6720   20.6284 H   0  0  0  0  0  0
  -29.6825  -22.4432   21.2434 H   0  0  0  0  0  0
  1 25  1  0  0  0
  1 30  2  0  0  0
  1 80  1  0  0  0
  2  3  1  0  0  0
  2 25  1  0  0  0
  2 83  1  0  0  0
  2 84  1  0  0  0
  3  4  1  0  0  0
  3 85  1  0  0  0
  3 86  1  0  0  0
  4  5  1  0  0  0
  4 87  1  0  0  0
  4 88  1  0  0  0
  5  6  1  0  0  0
  5 26  1  0  0  0
  5 89  1  0  0  0
  6 25  1  0  0  0
  6 90  1  0  0  0
  6 91  1  0  0  0
  7  8  2  0  0  0
  7 26  1  0  0  0
  7 29  1  0  0  0
  8  9  1  0  0  0
  8 22  1  0  0  0
  9 10  1  0  0  0
  9 27  2  0  0  0
 10 11  2  0  0  0
 10 15  1  0  0  0
 11 12  1  0  0  0
 11 92  1  0  0  0
 12 13  2  0  0  0
 12 93  1  0  0  0
 13 14  1  0  0  0
 13 31  1  0  0  0
 14 15  2  0  0  0
 14 94  1  0  0  0
 15 95  1  0  0  0
 16 17  2  0  0  0
 16 21  1  0  0  0
 16 31  1  0  0  0
 17 18  1  0  0  0
 17 96  1  0  0  0
 18 19  2  0  0  0
 18 97  1  0  0  0
 19 20  1  0  0  0
 19 24  1  0  0  0
 20 21  2  0  0  0
 20 98  1  0  0  0
 21 23  1  0  0  0
 22 28  1  0  0  0
 22 32  2  0  0  0
 26 27  1  0  0  0
 28 99  1  0  0  0
 28100  1  0  0  0
 29101  1  0  0  0
 29102  1  0  0  0
 33 34  1  0  0  0
 33 66  1  0  0  0
 33 70  2  0  0  0
 34 36  1  0  0  0
 34 59  1  0  0  0
 34103  1  0  0  0
 35 44  2  0  0  0
 35 45  1  0  0  0
 35 68  1  0  0  0
 36 56  1  0  0  0
 36104  1  0  0  0
 37 39  1  0  0  0
 37 47  1  0  0  0
 37 66  1  0  0  0
 37105  1  0  0  0
 38 43  2  0  0  0
 38 46  1  0  0  0
 38 47  1  0  0  0
 39 64  1  0  0  0
 39 67  2  0  0  0
 40 52  1  0  0  0
 40 53  2  0  0  0
 40 58  1  0  0  0
 41106  1  0  0  0
 41107  1  0  0  0
 41108  1  0  0  0
 41 48  1  0  0  0
 42 43  1  0  0  0
 42 66  1  0  0  0
 42109  1  0  0  0
 42110  1  0  0  0
 43 44  1  0  0  0
 44111  1  0  0  0
 45 46  2  0  0  0
 45112  1  0  0  0
 46113  1  0  0  0
 47114  1  0  0  0
 47115  1  0  0  0
 48 56  1  0  0  0
 48 65  1  0  0  0
 48116  1  0  0  0
 49 50  1  0  0  0
 49 53  1  0  0  0
 49 64  1  0  0  0
 49117  1  0  0  0
 50 51  1  0  0  0
 50118  1  0  0  0
 50119  1  0  0  0
 51 52  1  0  0  0
 51120  1  0  0  0
 51121  1  0  0  0
 52122  1  0  0  0
 52123  1  0  0  0
 53 54  1  0  0  0
 54 55  2  0  0  0
 54124  1  0  0  0
 55 57  1  0  0  0
 55125  1  0  0  0
 56 69  2  0  0  0
 57 58  2  0  0  0
 57126  1  0  0  0
 58127  1  0  0  0
 59 60  1  0  0  0
 59 61  1  0  0  0
 59 62  1  0  0  0
 60128  1  0  0  0
 60129  1  0  0  0
 60130  1  0  0  0
 61131  1  0  0  0
 61132  1  0  0  0
 61133  1  0  0  0
 62134  1  0  0  0
 62135  1  0  0  0
 62136  1  0  0  0
 63 65  1  0  0  0
 63137  1  0  0  0
 63138  1  0  0  0
 63139  1  0  0  0
 64140  1  0  0  0
 65141  1  0  0  0
 68 79  1  0  0  0
 71 72  2  0  0  0
 71 73  1  0  0  0
 71142  1  0  0  0
 72 75  1  0  0  0
 72143  1  0  0  0
 73 76  2  0  0  0
 73144  1  0  0  0
 74 75  2  0  0  0
 74 76  1  0  0  0
 74145  1  0  0  0
 75 77  1  0  0  0
 76 80  1  0  0  0
 77 81  1  0  0  0
 77 82  2  0  0  0
 78 79  1  0  0  0
 78 81  1  0  0  0
 78146  1  0  0  0
 78147  1  0  0  0
 79148  1  0  0  0
 79149  1  0  0  0
 80150  1  0  0  0
 81151  1  0  0  0
M  ISO  4   1 100  68 101  79 101  80 100
M  END
> <chiral flag>
0

> <version>
0

> <s_m_source_file>
/data/baiqing/PycharmProjects/Reinvent-master-3.2/result/LINK_invent/BTK/process_docking_weight1_custom_sum_contain_oxygen_bond_distance_aromatic_linkinvent_7_9_3/rearranged_h_0002.sdf

> <i_m_source_file_index>
55

> <r_mmod_Potential_Energy-OPLS-2005>
78.586296081543

> <r_mmod_Stretch_Energy-OPLS-2005>
125.418853759766

> <r_mmod_Bend_Energy-OPLS-2005>
158.979034423828

> <r_mmod_Torsional_Energy-OPLS-2005>
249.130096435547

> <r_mmod_Improper_Torsional_Energy-OPLS-2005>
6.98363304138184

> <r_mmod_Van_der_Waal_Energy-OPLS-2005>
135.837265014648

> <r_mmod_Electrostatic_Energy-OPLS-2005>
-442.598510742188

> <r_mmod_Solvation_Energy-OPLS-2005>
-235.281036376953

> <b_mmod_Minimization_Converged-OPLS-2005>
0

> <r_mmod_RMS_Derivative-OPLS-2005>
1.91622853279114

$$$$
55
                    3D
 Structure written by MMmdl.
180187  0  0  1  0            999 V2000
  -30.8739  -14.2176   20.7979 C   0  0  0  0  0  0
  -30.4054  -12.2811   19.3580 C   0  0  0  0  0  0
  -29.4656  -12.5461   18.1750 C   0  0  0  0  0  0
  -27.9990  -12.3869   18.6068 C   0  0  0  0  0  0
  -27.6697  -13.2068   19.8808 C   0  0  2  0  0  0
  -28.7105  -12.9624   20.9975 C   0  0  0  0  0  0
  -25.2620  -13.8172   20.5691 C   0  0  0  0  0  0
  -24.1861  -13.0449   20.9163 C   0  0  0  0  0  0
  -24.6410  -11.6917   20.8732 C   0  0  0  0  0  0
  -23.9080  -10.4304   21.0408 C   0  0  0  0  0  0
  -24.3629   -9.4218   21.9183 C   0  0  0  0  0  0
  -23.6298   -8.2252   22.0759 C   0  0  0  0  0  0
  -22.4278   -8.0285   21.3545 C   0  0  0  0  0  0
  -21.9920   -9.0267   20.4646 C   0  0  0  0  0  0
  -22.7260  -10.2144   20.3055 C   0  0  0  0  0  0
  -21.6852   -6.0743   22.5284 C   0  0  0  0  0  0
  -21.4018   -6.5643   23.8222 C   0  0  0  0  0  0
  -21.3656   -5.6792   24.9173 C   0  0  0  0  0  0
  -21.6044   -4.3060   24.7223 C   0  0  0  0  0  0
  -21.8818   -3.8153   23.4347 C   0  0  0  0  0  0
  -21.9196   -4.6971   22.3399 C   0  0  0  0  0  0
  -22.7877  -13.5246   21.1826 C   0  0  0  0  0  0
  -22.1663   -4.2151   21.0980 F   0  0  0  0  0  0
  -21.5624   -3.4544   25.7738 F   0  0  0  0  0  0
  -30.0645  -13.1888   20.4598 N   0  0  0  0  0  0
  -26.3080  -12.9347   20.3416 N   0  0  0  0  0  0
  -25.9340  -11.6511   20.5783 N   0  0  0  0  0  0
  -22.0507  -12.8228   22.0371 N   0  0  0  0  0  0
  -25.4341  -15.1885   20.4092 N   0  0  0  0  0  0
  -31.7274  -14.7010   20.0438 O   0  0  0  0  0  0
  -21.6644   -6.8882   21.4239 O   0  0  0  0  0  0
  -22.3564  -14.5553   20.6685 O   0  0  0  0  0  0
  -24.6106  -31.8682   23.2130 C   0  0  0  0  0  0
  -25.9001  -32.4819   23.8407 C   0  0  1  0  0  0
  -27.2457  -27.4686   20.0722 C   0  0  0  0  0  0
  -25.5854  -33.8616   24.2321 N   0  0  0  0  0  0
  -23.3953  -30.4873   21.5555 C   0  0  2  0  0  0
  -24.8425  -28.9544   20.1183 C   0  0  0  0  0  0
  -22.7376  -29.4595   22.5036 C   0  0  0  0  0  0
  -18.0264  -28.1316   22.8493 C   0  0  0  0  0  0
  -24.1486  -36.7312   23.2625 C   0  0  0  0  0  0
  -25.9211  -30.8353   21.3678 C   0  0  0  0  0  0
  -25.9988  -29.4717   20.7163 C   0  0  0  0  0  0
  -27.1977  -28.7308   20.6982 C   0  0  0  0  0  0
  -26.0676  -26.9459   19.4899 C   0  0  0  0  0  0
  -24.8686  -27.6849   19.5136 C   0  0  0  0  0  0
  -23.6025  -29.8185   20.1694 C   0  0  0  0  0  0
  -25.4098  -36.3091   24.0333 C   0  0  1  0  0  0
  -20.5840  -28.3570   23.1335 C   0  0  2  0  0  0
  -20.6735  -26.9302   22.5425 C   0  0  0  0  0  0
  -19.5726  -26.6320   21.5195 C   0  0  0  0  0  0
  -18.1900  -26.7875   22.1602 C   0  0  0  0  0  0
  -19.1514  -28.8767   23.2907 C   0  0  0  0  0  0
  -18.9446  -30.1392   23.8879 C   0  0  0  0  0  0
  -17.6442  -30.6526   24.0566 C   0  0  0  0  0  0
  -25.9012  -34.9457   23.5127 C   0  0  0  0  0  0
  -16.5324  -29.9027   23.6327 C   0  0  0  0  0  0
  -16.7255  -28.6453   23.0327 C   0  0  0  0  0  0
  -26.4448  -31.6605   25.0727 C   0  0  0  0  0  0
  -25.3733  -31.3719   26.1498 C   0  0  0  0  0  0
  -27.0291  -30.3048   24.6078 C   0  0  0  0  0  0
  -27.5992  -32.4361   25.7500 C   0  0  0  0  0  0
  -27.5585  -37.1787   24.8451 C   0  0  0  0  0  0
  -21.4106  -29.2964   22.3781 N   0  0  0  0  0  0
  -26.4280  -37.3784   23.9418 N   0  0  0  0  0  0
  -24.6601  -31.0770   22.1046 N   0  0  0  0  0  0
  -23.4169  -28.8149   23.3063 O   0  0  0  0  0  0
  -28.4584  -26.8173   20.0641 O   0  0  0  0  0  0
  -26.5568  -34.8913   22.4686 O   0  0  0  0  0  0
  -23.5298  -32.1414   23.7519 O   0  0  0  0  0  0
  -27.3664  -20.4791   24.4447 C   0  0  0  0  0  0
  -27.5252  -21.4985   23.3209 C   0  0  0  0  0  0
  -28.0254  -20.8270   22.0311 C   0  0  0  0  0  0
  -28.3332  -21.8431   20.9263 C   0  0  0  0  0  0
  -28.8352  -21.1755   19.6357 C   0  0  0  0  0  0
  -29.2224  -22.2017   18.5634 C   0  0  0  0  0  0
  -30.5617  -22.9040   18.8497 C   0  0  0  0  0  0
  -30.0437  -17.9283   24.8499 C   0  0  0  0  0  0
  -30.3754  -16.5113   24.3556 C   0  0  0  0  0  0
  -30.6644  -24.3208   18.2611 C   0  0  0  0  0  0
  -28.8269  -17.9692   25.7913 C   0  0  0  0  0  0
  -31.5283  -16.5221   23.3383 C   0  0  0  0  0  0
  -30.1666  -25.4368   19.2023 C   0  0  0  0  0  0
  -28.5284  -19.3738   26.3545 C   0  0  0  0  0  0
  -31.9519  -15.1283   22.8563 C   0  0  0  0  0  0
  -28.6479  -25.6793   19.2310 C   0  0  0  0  0  0
  -28.3885  -20.3743   25.3019 N   0  0  0  0  0  0
  -30.8895  -14.4474   22.1166 N   0  0  0  0  0  0
  -26.3506  -19.7849   24.5166 O   0  0  0  0  0  0
  -31.4458  -12.3876   19.0430 H   0  0  0  0  0  0
  -30.3033  -11.2488   19.6998 H   0  0  0  0  0  0
  -29.6881  -11.8613   17.3558 H   0  0  0  0  0  0
  -29.6312  -13.5540   17.7900 H   0  0  0  0  0  0
  -27.8121  -11.3266   18.7857 H   0  0  0  0  0  0
  -27.3356  -12.6802   17.7925 H   0  0  0  0  0  0
  -27.7270  -14.2604   19.6057 H   0  0  0  0  0  0
  -28.6420  -11.9388   21.3696 H   0  0  0  0  0  0
  -28.4840  -13.6133   21.8430 H   0  0  0  0  0  0
  -25.2765   -9.5686   22.4762 H   0  0  0  0  0  0
  -24.0005   -7.4642   22.7482 H   0  0  0  0  0  0
  -21.0844   -8.8781   19.8949 H   0  0  0  0  0  0
  -22.3710  -10.9679   19.6160 H   0  0  0  0  0  0
  -21.2014   -7.6152   23.9716 H   0  0  0  0  0  0
  -21.1477   -6.0526   25.9073 H   0  0  0  0  0  0
  -22.0602   -2.7614   23.2847 H   0  0  0  0  0  0
  -22.4120  -11.9866   22.4736 H   0  0  0  0  0  0
  -21.1137  -13.1249   22.2584 H   0  0  0  0  0  0
  -24.6747  -15.8504   20.5230 H   0  0  0  0  0  0
  -26.3011  -15.6272   20.1205 H   0  0  0  0  0  0
  -26.7057  -32.5554   23.1161 H   0  0  0  0  0  0
  -25.0049  -33.9795   25.0488 H   0  0  0  0  0  0
  -22.6814  -31.3016   21.4199 H   0  0  0  0  0  0
  -23.3734  -35.9655   23.3279 H   0  0  0  0  0  0
  -24.3564  -36.8935   22.2031 H   0  0  0  0  0  0
  -23.7261  -37.6515   23.6681 H   0  0  0  0  0  0
  -26.0291  -31.6033   20.6018 H   0  0  0  0  0  0
  -26.8084  -30.8884   21.9863 H   0  0  0  0  0  0
  -28.0955  -29.1318   21.1516 H   0  0  0  0  0  0
  -26.0601  -25.9751   19.0165 H   0  0  0  0  0  0
  -23.9771  -27.2760   19.0594 H   0  0  0  0  0  0
  -23.7085  -30.5949   19.4095 H   0  0  0  0  0  0
  -22.7281  -29.2344   19.8765 H   0  0  0  0  0  0
  -25.1285  -36.1949   25.0826 H   0  0  0  0  0  0
  -20.9910  -28.3102   24.1464 H   0  0  0  0  0  0
  -20.5584  -26.2153   23.3589 H   0  0  0  0  0  0
  -21.6612  -26.7321   22.1241 H   0  0  0  0  0  0
  -19.6864  -25.6241   21.1191 H   0  0  0  0  0  0
  -19.6678  -27.3161   20.6748 H   0  0  0  0  0  0
  -17.4173  -26.6612   21.3998 H   0  0  0  0  0  0
  -18.0302  -25.9995   22.8981 H   0  0  0  0  0  0
  -19.7924  -30.7234   24.2181 H   0  0  0  0  0  0
  -17.4999  -31.6217   24.5155 H   0  0  0  0  0  0
  -15.5334  -30.2923   23.7647 H   0  0  0  0  0  0
  -15.8657  -28.0801   22.6977 H   0  0  0  0  0  0
  -24.5909  -30.7034   25.7900 H   0  0  0  0  0  0
  -24.8935  -32.2895   26.4909 H   0  0  0  0  0  0
  -25.8100  -30.8956   27.0284 H   0  0  0  0  0  0
  -26.2828  -29.6807   24.1145 H   0  0  0  0  0  0
  -27.4093  -29.7262   25.4507 H   0  0  0  0  0  0
  -27.8678  -30.4358   23.9227 H   0  0  0  0  0  0
  -27.2562  -33.3691   26.1975 H   0  0  0  0  0  0
  -28.3870  -32.6837   25.0387 H   0  0  0  0  0  0
  -28.0593  -31.8569   26.5512 H   0  0  0  0  0  0
  -28.2555  -38.0120   24.7538 H   0  0  0  0  0  0
  -28.1115  -36.2640   24.6251 H   0  0  0  0  0  0
  -27.2307  -37.1440   25.8849 H   0  0  0  0  0  0
  -20.9222  -29.8763   21.7101 H   0  0  0  0  0  0
  -26.0151  -38.2856   24.1433 H   0  0  0  0  0  0
  -28.2216  -22.2784   23.6323 H   0  0  0  0  0  0
  -26.5659  -21.9872   23.1434 H   0  0  0  0  0  0
  -27.2783  -20.1143   21.6778 H   0  0  0  0  0  0
  -28.9280  -20.2501   22.2417 H   0  0  0  0  0  0
  -29.0733  -22.5541   21.2958 H   0  0  0  0  0  0
  -27.4374  -22.4282   20.7135 H   0  0  0  0  0  0
  -28.0469  -20.5314   19.2431 H   0  0  0  0  0  0
  -29.6798  -20.5164   19.8474 H   0  0  0  0  0  0
  -28.4152  -22.9228   18.4489 H   0  0  0  0  0  0
  -29.3006  -21.6980   17.5992 H   0  0  0  0  0  0
  -31.3584  -22.2837   18.4358 H   0  0  0  0  0  0
  -30.7710  -22.9490   19.9188 H   0  0  0  0  0  0
  -29.8556  -18.5643   23.9836 H   0  0  0  0  0  0
  -30.9119  -18.3513   25.3579 H   0  0  0  0  0  0
  -29.4892  -16.0638   23.9048 H   0  0  0  0  0  0
  -30.6414  -15.8838   25.2086 H   0  0  0  0  0  0
  -30.1710  -24.3807   17.2892 H   0  0  0  0  0  0
  -31.7206  -24.5127   18.0664 H   0  0  0  0  0  0
  -28.9839  -17.2832   26.6248 H   0  0  0  0  0  0
  -27.9475  -17.5977   25.2622 H   0  0  0  0  0  0
  -32.3944  -17.0067   23.7907 H   0  0  0  0  0  0
  -31.2576  -17.1356   22.4784 H   0  0  0  0  0  0
  -30.6390  -26.3670   18.8844 H   0  0  0  0  0  0
  -30.5267  -25.2584   20.2165 H   0  0  0  0  0  0
  -29.3492  -19.6870   27.0031 H   0  0  0  0  0  0
  -27.6334  -19.3566   26.9790 H   0  0  0  0  0  0
  -32.2309  -14.5082   23.7097 H   0  0  0  0  0  0
  -32.8554  -15.2129   22.2496 H   0  0  0  0  0  0
  -28.1227  -24.8223   19.6517 H   0  0  0  0  0  0
  -28.2741  -25.8593   18.2200 H   0  0  0  0  0  0
  -29.1692  -21.0064   25.1734 H   0  0  0  0  0  0
  -30.2196  -13.9218   22.6614 H   0  0  0  0  0  0
  1 25  1  0  0  0
  1 30  2  0  0  0
  1 88  1  0  0  0
  2  3  1  0  0  0
  2 25  1  0  0  0
  2 90  1  0  0  0
  2 91  1  0  0  0
  3  4  1  0  0  0
  3 92  1  0  0  0
  3 93  1  0  0  0
  4  5  1  0  0  0
  4 94  1  0  0  0
  4 95  1  0  0  0
  5  6  1  0  0  0
  5 26  1  0  0  0
  5 96  1  0  0  0
  6 25  1  0  0  0
  6 97  1  0  0  0
  6 98  1  0  0  0
  7  8  2  0  0  0
  7 26  1  0  0  0
  7 29  1  0  0  0
  8  9  1  0  0  0
  8 22  1  0  0  0
  9 10  1  0  0  0
  9 27  2  0  0  0
 10 11  2  0  0  0
 10 15  1  0  0  0
 11 12  1  0  0  0
 11 99  1  0  0  0
 12 13  2  0  0  0
 12100  1  0  0  0
 13 14  1  0  0  0
 13 31  1  0  0  0
 14 15  2  0  0  0
 14101  1  0  0  0
 15102  1  0  0  0
 16 17  2  0  0  0
 16 21  1  0  0  0
 16 31  1  0  0  0
 17 18  1  0  0  0
 17103  1  0  0  0
 18 19  2  0  0  0
 18104  1  0  0  0
 19 20  1  0  0  0
 19 24  1  0  0  0
 20 21  2  0  0  0
 20105  1  0  0  0
 21 23  1  0  0  0
 22 28  1  0  0  0
 22 32  2  0  0  0
 26 27  1  0  0  0
 28106  1  0  0  0
 28107  1  0  0  0
 29108  1  0  0  0
 29109  1  0  0  0
 33 34  1  0  0  0
 33 66  1  0  0  0
 33 70  2  0  0  0
 34 36  1  0  0  0
 34 59  1  0  0  0
 34110  1  0  0  0
 35 44  2  0  0  0
 35 45  1  0  0  0
 35 68  1  0  0  0
 36 56  1  0  0  0
 36111  1  0  0  0
 37 39  1  0  0  0
 37 47  1  0  0  0
 37 66  1  0  0  0
 37112  1  0  0  0
 38 43  2  0  0  0
 38 46  1  0  0  0
 38 47  1  0  0  0
 39 64  1  0  0  0
 39 67  2  0  0  0
 40 52  1  0  0  0
 40 53  2  0  0  0
 40 58  1  0  0  0
 41113  1  0  0  0
 41114  1  0  0  0
 41115  1  0  0  0
 41 48  1  0  0  0
 42 43  1  0  0  0
 42 66  1  0  0  0
 42116  1  0  0  0
 42117  1  0  0  0
 43 44  1  0  0  0
 44118  1  0  0  0
 45 46  2  0  0  0
 45119  1  0  0  0
 46120  1  0  0  0
 47121  1  0  0  0
 47122  1  0  0  0
 48 56  1  0  0  0
 48 65  1  0  0  0
 48123  1  0  0  0
 49 50  1  0  0  0
 49 53  1  0  0  0
 49 64  1  0  0  0
 49124  1  0  0  0
 50 51  1  0  0  0
 50125  1  0  0  0
 50126  1  0  0  0
 51 52  1  0  0  0
 51127  1  0  0  0
 51128  1  0  0  0
 52129  1  0  0  0
 52130  1  0  0  0
 53 54  1  0  0  0
 54 55  2  0  0  0
 54131  1  0  0  0
 55 57  1  0  0  0
 55132  1  0  0  0
 56 69  2  0  0  0
 57 58  2  0  0  0
 57133  1  0  0  0
 58134  1  0  0  0
 59 60  1  0  0  0
 59 61  1  0  0  0
 59 62  1  0  0  0
 60135  1  0  0  0
 60136  1  0  0  0
 60137  1  0  0  0
 61138  1  0  0  0
 61139  1  0  0  0
 61140  1  0  0  0
 62141  1  0  0  0
 62142  1  0  0  0
 62143  1  0  0  0
 63 65  1  0  0  0
 63144  1  0  0  0
 63145  1  0  0  0
 63146  1  0  0  0
 64147  1  0  0  0
 65148  1  0  0  0
 68 86  1  0  0  0
 71 72  1  0  0  0
 71 87  1  0  0  0
 71 89  2  0  0  0
 72 73  1  0  0  0
 72149  1  0  0  0
 72150  1  0  0  0
 73 74  1  0  0  0
 73151  1  0  0  0
 73152  1  0  0  0
 74 75  1  0  0  0
 74153  1  0  0  0
 74154  1  0  0  0
 75 76  1  0  0  0
 75155  1  0  0  0
 75156  1  0  0  0
 76 77  1  0  0  0
 76157  1  0  0  0
 76158  1  0  0  0
 77 80  1  0  0  0
 77159  1  0  0  0
 77160  1  0  0  0
 78 79  1  0  0  0
 78 81  1  0  0  0
 78161  1  0  0  0
 78162  1  0  0  0
 79 82  1  0  0  0
 79163  1  0  0  0
 79164  1  0  0  0
 80 83  1  0  0  0
 80165  1  0  0  0
 80166  1  0  0  0
 81 84  1  0  0  0
 81167  1  0  0  0
 81168  1  0  0  0
 82 85  1  0  0  0
 82169  1  0  0  0
 82170  1  0  0  0
 83 86  1  0  0  0
 83171  1  0  0  0
 83172  1  0  0  0
 84 87  1  0  0  0
 84173  1  0  0  0
 84174  1  0  0  0
 85 88  1  0  0  0
 85175  1  0  0  0
 85176  1  0  0  0
 86177  1  0  0  0
 86178  1  0  0  0
 87179  1  0  0  0
 88180  1  0  0  0
M  ISO  4   1 100  68 101  86 101  88 100
M  END
> <chiral flag>
0

> <version>
0

> <s_m_source_file>
/data/baiqing/PycharmProjects/Reinvent-master-3.2/result/LINK_invent/BTK/process_docking_weight1_custom_sum_contain_oxygen_bond_distance_aromatic_linkinvent_7_9_3/rearranged_h_0002.sdf

> <i_m_source_file_index>
56

> <r_mmod_Potential_Energy-OPLS-2005>
-135.624633789062

> <r_mmod_Stretch_Energy-OPLS-2005>
29.8021469116211

> <r_mmod_Bend_Energy-OPLS-2005>
97.2664260864258

> <r_mmod_Torsional_Energy-OPLS-2005>
231.531555175781

> <r_mmod_Improper_Torsional_Energy-OPLS-2005>
7.64714002609253

> <r_mmod_Van_der_Waal_Energy-OPLS-2005>
126.057006835938

> <r_mmod_Electrostatic_Energy-OPLS-2005>
-416.853332519531

> <r_mmod_Solvation_Energy-OPLS-2005>
-224.382537841797

> <b_mmod_Minimization_Converged-OPLS-2005>
0

> <r_mmod_RMS_Derivative-OPLS-2005>
3.24770498275757

$$$$
56
                    3D
 Structure written by MMmdl.
137144  0  0  1  0            999 V2000
  -29.9622  -16.5635   20.2664 C   0  0  0  0  0  0
  -30.3146  -13.7964   19.5233 C   0  0  0  0  0  0
  -29.5702  -12.9451   18.4142 C   0  0  0  0  0  0
  -28.2376  -12.3814   18.9086 C   0  0  0  0  0  0
  -27.5746  -13.4257   19.8177 C   0  0  2  0  0  0
  -28.5152  -14.1357   20.8613 C   0  0  0  0  0  0
  -25.2174  -13.8479   20.5951 C   0  0  0  0  0  0
  -24.1675  -13.0467   20.9341 C   0  0  0  0  0  0
  -24.6541  -11.7031   20.8745 C   0  0  0  0  0  0
  -23.9255  -10.4321   21.0342 C   0  0  0  0  0  0
  -24.3739   -9.4228   21.9149 C   0  0  0  0  0  0
  -23.6364   -8.2283   22.0747 C   0  0  0  0  0  0
  -22.4340   -8.0323   21.3544 C   0  0  0  0  0  0
  -22.0014   -9.0304   20.4634 C   0  0  0  0  0  0
  -22.7395  -10.2158   20.3018 C   0  0  0  0  0  0
  -21.6878   -6.0765   22.5277 C   0  0  0  0  0  0
  -21.4033   -6.5657   23.8214 C   0  0  0  0  0  0
  -21.3665   -5.6802   24.9171 C   0  0  0  0  0  0
  -21.6043   -4.3064   24.7217 C   0  0  0  0  0  0
  -21.8816   -3.8163   23.4335 C   0  0  0  0  0  0
  -21.9200   -4.6987   22.3396 C   0  0  0  0  0  0
  -22.7650  -13.5092   21.1938 C   0  0  0  0  0  0
  -22.1663   -4.2170   21.0973 F   0  0  0  0  0  0
  -21.5624   -3.4543   25.7727 F   0  0  0  0  0  0
  -29.5188  -15.0444   20.1465 N   0  0  0  0  0  0
  -26.2805  -13.0063   20.3476 N   0  0  0  0  0  0
  -25.9548  -11.6990   20.5678 N   0  0  0  0  0  0
  -22.0351  -12.8040   22.0489 N   0  0  0  0  0  0
  -25.3555  -15.2242   20.4383 N   0  0  0  0  0  0
  -31.2063  -16.3142   20.2293 O   0  0  0  0  0  0
  -21.6677   -6.8928   21.4248 O   0  0  0  0  0  0
  -22.3283  -14.5375   20.6771 O   0  0  0  0  0  0
  -24.7449  -31.7216   23.0979 C   0  0  0  0  0  0
  -25.9712  -32.4091   23.7768 C   0  0  1  0  0  0
  -27.2626  -26.0606   20.2671 C   0  0  0  0  0  0
  -25.6018  -33.7953   24.1581 N   0  0  0  0  0  0
  -23.5996  -30.2922   21.4680 C   0  0  2  0  0  0
  -25.0624  -28.4936   20.1392 C   0  0  0  0  0  0
  -22.8035  -29.3895   22.4550 C   0  0  0  0  0  0
  -18.0376  -28.1454   22.8421 C   0  0  0  0  0  0
  -24.1496  -36.6992   23.2671 C   0  0  0  0  0  0
  -26.1999  -30.2411   21.4589 C   0  0  0  0  0  0
  -26.2597  -28.7329   20.8212 C   0  0  0  0  0  0
  -27.3097  -27.5690   20.8335 C   0  0  0  0  0  0
  -26.0272  -26.1946   19.5192 C   0  0  0  0  0  0
  -25.0234  -27.2541   19.4619 C   0  0  0  0  0  0
  -23.8874  -29.5253   20.1333 C   0  0  0  0  0  0
  -25.4170  -36.2677   24.0236 C   0  0  1  0  0  0
  -20.6038  -28.3836   23.1031 C   0  0  2  0  0  0
  -20.6806  -26.9436   22.5420 C   0  0  0  0  0  0
  -19.5796  -26.6348   21.5224 C   0  0  0  0  0  0
  -18.1977  -26.7969   22.1607 C   0  0  0  0  0  0
  -19.1657  -28.8984   23.2686 C   0  0  0  0  0  0
  -18.9553  -30.1552   23.8759 C   0  0  0  0  0  0
  -17.6536  -30.6619   24.0537 C   0  0  0  0  0  0
  -25.9187  -34.9084   23.4798 C   0  0  0  0  0  0
  -16.5422  -29.9090   23.6366 C   0  0  0  0  0  0
  -16.7352  -28.6518   23.0376 C   0  0  0  0  0  0
  -26.4693  -31.6408   25.0652 C   0  0  0  0  0  0
  -25.3596  -31.3898   26.1149 C   0  0  0  0  0  0
  -27.0730  -30.2690   24.7003 C   0  0  0  0  0  0
  -27.6017  -32.4426   25.7501 C   0  0  0  0  0  0
  -27.5543  -37.1648   24.8466 C   0  0  0  0  0  0
  -21.4628  -29.2949   22.3282 N   0  0  0  0  0  0
  -26.4242  -37.3509   23.9408 N   0  0  0  0  0  0
  -24.8802  -30.8007   22.0600 N   0  0  0  0  0  0
  -23.4175  -28.7613   23.3197 O   0  0  0  0  0  0
  -28.1668  -24.5661   20.3212 O   0  0  0  0  0  0
  -26.5925  -34.8791   22.4483 O   0  0  0  0  0  0
  -23.6336  -32.0588   23.5524 O   0  0  0  0  0  0
  -29.2006  -20.3375   20.3201 C   0  0  0  0  0  0
  -28.2004  -22.4649   20.2188 C   0  0  0  0  0  0
  -29.3170  -18.2279   20.2702 N   0  0  0  0  0  0
  -31.2155  -14.1817   19.0448 H   0  0  0  0  0  0
  -30.7050  -13.1434   20.3066 H   0  0  0  0  0  0
  -30.2109  -12.1390   18.0541 H   0  0  0  0  0  0
  -29.3823  -13.5901   17.5547 H   0  0  0  0  0  0
  -28.4305  -11.4738   19.4819 H   0  0  0  0  0  0
  -27.5913  -12.1016   18.0755 H   0  0  0  0  0  0
  -27.3204  -14.2160   19.1091 H   0  0  0  0  0  0
  -28.9720  -13.4238   21.5512 H   0  0  0  0  0  0
  -27.9168  -14.7884   21.4973 H   0  0  0  0  0  0
  -25.2871   -9.5690   22.4748 H   0  0  0  0  0  0
  -24.0047   -7.4683   22.7489 H   0  0  0  0  0  0
  -21.0938   -8.8851   19.8945 H   0  0  0  0  0  0
  -22.3854  -10.9697   19.6127 H   0  0  0  0  0  0
  -21.2035   -7.6165   23.9725 H   0  0  0  0  0  0
  -21.1486   -6.0529   25.9075 H   0  0  0  0  0  0
  -22.0587   -2.7625   23.2829 H   0  0  0  0  0  0
  -22.4039  -11.9742   22.4895 H   0  0  0  0  0  0
  -21.0937  -13.0980   22.2674 H   0  0  0  0  0  0
  -24.5768  -15.8638   20.5540 H   0  0  0  0  0  0
  -26.2060  -15.6839   20.1380 H   0  0  0  0  0  0
  -26.7876  -32.4443   23.0543 H   0  0  0  0  0  0
  -24.9961  -33.8879   24.9601 H   0  0  0  0  0  0
  -22.9629  -31.1444   21.2211 H   0  0  0  0  0  0
  -23.3792  -35.9283   23.3224 H   0  0  0  0  0  0
  -24.3542  -36.8804   22.2107 H   0  0  0  0  0  0
  -23.7229  -37.6104   23.6874 H   0  0  0  0  0  0
  -26.4659  -30.9211   20.6487 H   0  0  0  0  0  0
  -27.0298  -30.3291   22.1459 H   0  0  0  0  0  0
  -28.1985  -27.7908   21.4071 H   0  0  0  0  0  0
  -25.7596  -25.3099   18.9588 H   0  0  0  0  0  0
  -24.1415  -27.0455   18.8719 H   0  0  0  0  0  0
  -24.1127  -30.2559   19.3556 H   0  0  0  0  0  0
  -22.9802  -29.0216   19.7958 H   0  0  0  0  0  0
  -25.1411  -36.1346   25.0723 H   0  0  0  0  0  0
  -21.0093  -28.3507   24.1170 H   0  0  0  0  0  0
  -20.5606  -26.2478   23.3738 H   0  0  0  0  0  0
  -21.6663  -26.7276   22.1281 H   0  0  0  0  0  0
  -19.6940  -25.6222   21.1342 H   0  0  0  0  0  0
  -19.6763  -27.3084   20.6699 H   0  0  0  0  0  0
  -17.4253  -26.6718   21.4002 H   0  0  0  0  0  0
  -18.0338  -26.0144   22.9029 H   0  0  0  0  0  0
  -19.8031  -30.7398   24.2071 H   0  0  0  0  0  0
  -17.5087  -31.6284   24.5168 H   0  0  0  0  0  0
  -15.5417  -30.2952   23.7771 H   0  0  0  0  0  0
  -15.8752  -28.0794   22.7169 H   0  0  0  0  0  0
  -24.5845  -30.7190   25.7424 H   0  0  0  0  0  0
  -24.8725  -32.3171   26.4173 H   0  0  0  0  0  0
  -25.7627  -30.9316   27.0189 H   0  0  0  0  0  0
  -26.3552  -29.6093   24.2123 H   0  0  0  0  0  0
  -27.4038  -29.7408   25.5956 H   0  0  0  0  0  0
  -27.9570  -30.3690   24.0706 H   0  0  0  0  0  0
  -27.2476  -33.3875   26.1635 H   0  0  0  0  0  0
  -28.4042  -32.6752   25.0488 H   0  0  0  0  0  0
  -28.0450  -31.8868   26.5774 H   0  0  0  0  0  0
  -28.2488  -38.0006   24.7515 H   0  0  0  0  0  0
  -28.1107  -36.2518   24.6291 H   0  0  0  0  0  0
  -27.2256  -37.1265   25.8866 H   0  0  0  0  0  0
  -21.0089  -29.8498   21.6159 H   0  0  0  0  0  0
  -26.0011  -38.2526   24.1435 H   0  0  0  0  0  0
  -30.0015  -20.5173   19.6027 H   0  0  0  0  0  0
  -29.6902  -20.4553   21.2869 H   0  0  0  0  0  0
  -27.7199  -22.3753   19.2446 H   0  0  0  0  0  0
  -27.3860  -22.2933   20.9225 H   0  0  0  0  0  0
  -30.3181  -18.3884   20.2986 H   0  0  0  0  0  0
  1 25  1  0  0  0
  1 30  2  0  0  0
  1 73  1  0  0  0
  2  3  1  0  0  0
  2 25  1  0  0  0
  2 74  1  0  0  0
  2 75  1  0  0  0
  3  4  1  0  0  0
  3 76  1  0  0  0
  3 77  1  0  0  0
  4  5  1  0  0  0
  4 78  1  0  0  0
  4 79  1  0  0  0
  5  6  1  0  0  0
  5 26  1  0  0  0
  5 80  1  0  0  0
  6 25  1  0  0  0
  6 81  1  0  0  0
  6 82  1  0  0  0
  7  8  2  0  0  0
  7 26  1  0  0  0
  7 29  1  0  0  0
  8  9  1  0  0  0
  8 22  1  0  0  0
  9 10  1  0  0  0
  9 27  2  0  0  0
 10 11  2  0  0  0
 10 15  1  0  0  0
 11 12  1  0  0  0
 11 83  1  0  0  0
 12 13  2  0  0  0
 12 84  1  0  0  0
 13 14  1  0  0  0
 13 31  1  0  0  0
 14 15  2  0  0  0
 14 85  1  0  0  0
 15 86  1  0  0  0
 16 17  2  0  0  0
 16 21  1  0  0  0
 16 31  1  0  0  0
 17 18  1  0  0  0
 17 87  1  0  0  0
 18 19  2  0  0  0
 18 88  1  0  0  0
 19 20  1  0  0  0
 19 24  1  0  0  0
 20 21  2  0  0  0
 20 89  1  0  0  0
 21 23  1  0  0  0
 22 28  1  0  0  0
 22 32  2  0  0  0
 26 27  1  0  0  0
 28 90  1  0  0  0
 28 91  1  0  0  0
 29 92  1  0  0  0
 29 93  1  0  0  0
 33 34  1  0  0  0
 33 66  1  0  0  0
 33 70  2  0  0  0
 34 36  1  0  0  0
 34 59  1  0  0  0
 34 94  1  0  0  0
 35 44  2  0  0  0
 35 45  1  0  0  0
 35 68  1  0  0  0
 36 56  1  0  0  0
 36 95  1  0  0  0
 37 39  1  0  0  0
 37 47  1  0  0  0
 37 66  1  0  0  0
 37 96  1  0  0  0
 38 43  2  0  0  0
 38 46  1  0  0  0
 38 47  1  0  0  0
 39 64  1  0  0  0
 39 67  2  0  0  0
 40 52  1  0  0  0
 40 53  2  0  0  0
 40 58  1  0  0  0
 41 97  1  0  0  0
 41 98  1  0  0  0
 41 99  1  0  0  0
 41 48  1  0  0  0
 42 43  1  0  0  0
 42 66  1  0  0  0
 42100  1  0  0  0
 42101  1  0  0  0
 43 44  1  0  0  0
 44102  1  0  0  0
 45 46  2  0  0  0
 45103  1  0  0  0
 46104  1  0  0  0
 47105  1  0  0  0
 47106  1  0  0  0
 48 56  1  0  0  0
 48 65  1  0  0  0
 48107  1  0  0  0
 49 50  1  0  0  0
 49 53  1  0  0  0
 49 64  1  0  0  0
 49108  1  0  0  0
 50 51  1  0  0  0
 50109  1  0  0  0
 50110  1  0  0  0
 51 52  1  0  0  0
 51111  1  0  0  0
 51112  1  0  0  0
 52113  1  0  0  0
 52114  1  0  0  0
 53 54  1  0  0  0
 54 55  2  0  0  0
 54115  1  0  0  0
 55 57  1  0  0  0
 55116  1  0  0  0
 56 69  2  0  0  0
 57 58  2  0  0  0
 57117  1  0  0  0
 58118  1  0  0  0
 59 60  1  0  0  0
 59 61  1  0  0  0
 59 62  1  0  0  0
 60119  1  0  0  0
 60120  1  0  0  0
 60121  1  0  0  0
 61122  1  0  0  0
 61123  1  0  0  0
 61124  1  0  0  0
 62125  1  0  0  0
 62126  1  0  0  0
 62127  1  0  0  0
 63 65  1  0  0  0
 63128  1  0  0  0
 63129  1  0  0  0
 63130  1  0  0  0
 64131  1  0  0  0
 65132  1  0  0  0
 68 72  1  0  0  0
 71 72  1  0  0  0
 71 73  1  0  0  0
 71133  1  0  0  0
 71134  1  0  0  0
 72135  1  0  0  0
 72136  1  0  0  0
 73137  1  0  0  0
M  ISO  4   1 100  68 101  72 101  73 100
M  END
> <chiral flag>
0

> <version>
0

> <s_m_source_file>
/data/baiqing/PycharmProjects/Reinvent-master-3.2/result/LINK_invent/BTK/process_docking_weight1_custom_sum_contain_oxygen_bond_distance_aromatic_linkinvent_7_9_3/rearranged_h_0002.sdf

> <i_m_source_file_index>
57

> <r_mmod_Potential_Energy-OPLS-2005>
6948.9697265625

> <r_mmod_Stretch_Energy-OPLS-2005>
3136.46411132812

> <r_mmod_Bend_Energy-OPLS-2005>
1268.50207519531

> <r_mmod_Torsional_Energy-OPLS-2005>
217.324829101562

> <r_mmod_Improper_Torsional_Energy-OPLS-2005>
4.82364273071289

> <r_mmod_Van_der_Waal_Energy-OPLS-2005>
120.95548248291

> <r_mmod_Electrostatic_Energy-OPLS-2005>
-391.247985839844

> <r_mmod_Solvation_Energy-OPLS-2005>
-221.174652099609

> <b_mmod_Minimization_Converged-OPLS-2005>
1

> <r_mmod_RMS_Derivative-OPLS-2005>
0.042349461466074

$$$$
57
                    3D
 Structure written by MMmdl.
149157  0  0  1  0            999 V2000
  -30.5142  -15.0782   20.3501 C   0  0  0  0  0  0
  -30.4387  -12.6619   19.5051 C   0  0  0  0  0  0
  -29.5272  -12.4979   18.2670 C   0  0  0  0  0  0
  -28.0628  -12.2753   18.6958 C   0  0  0  0  0  0
  -27.6126  -13.2358   19.8274 C   0  0  2  0  0  0
  -28.6619  -13.3726   20.9504 C   0  0  0  0  0  0
  -25.2454  -13.8164   20.5795 C   0  0  0  0  0  0
  -24.1754  -13.0407   20.9261 C   0  0  0  0  0  0
  -24.6355  -11.6888   20.8789 C   0  0  0  0  0  0
  -23.9042  -10.4281   21.0431 C   0  0  0  0  0  0
  -24.3607   -9.4200   21.9196 C   0  0  0  0  0  0
  -23.6289   -8.2233   22.0754 C   0  0  0  0  0  0
  -22.4271   -8.0274   21.3545 C   0  0  0  0  0  0
  -21.9904   -9.0247   20.4649 C   0  0  0  0  0  0
  -22.7224  -10.2130   20.3068 C   0  0  0  0  0  0
  -21.6849   -6.0734   22.5281 C   0  0  0  0  0  0
  -21.4011   -6.5636   23.8214 C   0  0  0  0  0  0
  -21.3661   -5.6789   24.9176 C   0  0  0  0  0  0
  -21.6044   -4.3053   24.7229 C   0  0  0  0  0  0
  -21.8821   -3.8143   23.4349 C   0  0  0  0  0  0
  -21.9197   -4.6962   22.3405 C   0  0  0  0  0  0
  -22.7785  -13.5205   21.1891 C   0  0  0  0  0  0
  -22.1667   -4.2152   21.0984 F   0  0  0  0  0  0
  -21.5629   -3.4533   25.7739 F   0  0  0  0  0  0
  -29.9128  -13.8065   20.3107 N   0  0  0  0  0  0
  -26.2834  -12.9345   20.3305 N   0  0  0  0  0  0
  -25.9283  -11.6499   20.5792 N   0  0  0  0  0  0
  -22.0426  -12.8222   22.0458 N   0  0  0  0  0  0
  -25.4128  -15.1904   20.4285 N   0  0  0  0  0  0
  -31.7477  -15.0748   20.2504 O   0  0  0  0  0  0
  -21.6629   -6.8877   21.4244 O   0  0  0  0  0  0
  -22.3497  -14.5506   20.6704 O   0  0  0  0  0  0
  -24.6497  -31.8390   23.1878 C   0  0  0  0  0  0
  -25.9231  -32.4686   23.8292 C   0  0  1  0  0  0
  -27.2116  -27.0688   20.1531 C   0  0  0  0  0  0
  -25.5948  -33.8497   24.2183 N   0  0  0  0  0  0
  -23.4593  -30.4582   21.5336 C   0  0  2  0  0  0
  -24.9116  -28.8827   20.1071 C   0  0  0  0  0  0
  -22.7615  -29.4509   22.4830 C   0  0  0  0  0  0
  -18.0307  -28.1406   22.8472 C   0  0  0  0  0  0
  -24.1487  -36.7253   23.2639 C   0  0  0  0  0  0
  -26.0227  -30.6874   21.4037 C   0  0  0  0  0  0
  -26.0906  -29.2942   20.7415 C   0  0  0  0  0  0
  -27.2394  -28.4031   20.7511 C   0  0  0  0  0  0
  -26.0109  -26.7905   19.4596 C   0  0  0  0  0  0
  -24.8898  -27.6475   19.4462 C   0  0  0  0  0  0
  -23.6920  -29.7930   20.1520 C   0  0  0  0  0  0
  -25.4122  -36.3029   24.0310 C   0  0  1  0  0  0
  -20.5928  -28.3732   23.1212 C   0  0  2  0  0  0
  -20.6788  -26.9421   22.5404 C   0  0  0  0  0  0
  -19.5766  -26.6379   21.5210 C   0  0  0  0  0  0
  -18.1947  -26.7940   22.1624 C   0  0  0  0  0  0
  -19.1569  -28.8887   23.2835 C   0  0  0  0  0  0
  -18.9480  -30.1475   23.8870 C   0  0  0  0  0  0
  -17.6473  -30.6590   24.0557 C   0  0  0  0  0  0
  -25.9069  -34.9401   23.5059 C   0  0  0  0  0  0
  -16.5363  -29.9082   23.6335 C   0  0  0  0  0  0
  -16.7290  -28.6508   23.0351 C   0  0  0  0  0  0
  -26.4509  -31.6585   25.0773 C   0  0  0  0  0  0
  -25.3652  -31.3845   26.1447 C   0  0  0  0  0  0
  -27.0363  -30.2957   24.6430 C   0  0  0  0  0  0
  -27.6039  -32.4359   25.7546 C   0  0  0  0  0  0
  -27.5571  -37.1799   24.8468 C   0  0  0  0  0  0
  -21.4295  -29.3041   22.3579 N   0  0  0  0  0  0
  -26.4294  -37.3736   23.9391 N   0  0  0  0  0  0
  -24.7308  -31.0179   22.0956 N   0  0  0  0  0  0
  -23.4224  -28.8034   23.2993 O   0  0  0  0  0  0
  -28.2145  -26.0090   20.2411 O   0  0  0  0  0  0
  -26.5664  -34.8890   22.4643 O   0  0  0  0  0  0
  -23.5587  -32.1300   23.7030 O   0  0  0  0  0  0
  -28.9594  -21.9059   20.3745 C   0  0  0  0  0  0
  -28.5896  -23.1217   20.2324 C   0  0  0  0  0  0
  -31.1339  -19.2868   22.2146 C   0  0  0  0  0  0
  -30.4882  -20.4591   21.7537 C   0  0  0  0  0  0
  -30.8873  -17.9997   21.6830 C   0  0  0  0  0  0
  -29.2875  -19.0676   20.1923 C   0  0  0  0  0  0
  -29.5304  -20.4577   20.7168 C   0  0  0  0  0  0
  -29.9601  -17.7846   20.6425 C   0  0  0  0  0  0
  -28.9216  -16.3112   18.9399 C   0  0  0  0  0  0
  -27.8369  -24.5090   19.9068 C   0  0  0  0  0  0
  -29.7673  -16.3178   20.1382 N   0  0  0  0  0  0
  -31.4701  -12.8272   19.1897 H   0  0  0  0  0  0
  -30.4512  -11.7455   20.0983 H   0  0  0  0  0  0
  -29.8679  -11.6578   17.6612 H   0  0  0  0  0  0
  -29.6034  -13.3774   17.6283 H   0  0  0  0  0  0
  -27.9870  -11.2463   19.0484 H   0  0  0  0  0  0
  -27.3958  -12.3527   17.8365 H   0  0  0  0  0  0
  -27.5129  -14.1998   19.3460 H   0  0  0  0  0  0
  -28.7910  -12.4358   21.4944 H   0  0  0  0  0  0
  -28.3399  -14.1187   21.6794 H   0  0  0  0  0  0
  -25.2753   -9.5684   22.4775 H   0  0  0  0  0  0
  -24.0005   -7.4624   22.7469 H   0  0  0  0  0  0
  -21.0833   -8.8772   19.8955 H   0  0  0  0  0  0
  -22.3683  -10.9679   19.6188 H   0  0  0  0  0  0
  -21.1992   -7.6143   23.9723 H   0  0  0  0  0  0
  -21.1481   -6.0513   25.9081 H   0  0  0  0  0  0
  -22.0596   -2.7607   23.2840 H   0  0  0  0  0  0
  -22.4047  -11.9911   22.4897 H   0  0  0  0  0  0
  -21.1043  -13.1263   22.2624 H   0  0  0  0  0  0
  -24.6490  -15.8432   20.5697 H   0  0  0  0  0  0
  -26.2741  -15.6410   20.1492 H   0  0  0  0  0  0
  -26.7303  -32.5257   23.1019 H   0  0  0  0  0  0
  -25.0061  -33.9618   25.0308 H   0  0  0  0  0  0
  -22.7652  -31.2867   21.3783 H   0  0  0  0  0  0
  -23.3740  -35.9595   23.3325 H   0  0  0  0  0  0
  -24.3563  -36.8866   22.2048 H   0  0  0  0  0  0
  -23.7257  -37.6463   23.6664 H   0  0  0  0  0  0
  -26.1915  -31.4376   20.6303 H   0  0  0  0  0  0
  -26.8890  -30.7370   22.0524 H   0  0  0  0  0  0
  -28.1289  -28.7067   21.2862 H   0  0  0  0  0  0
  -25.8918  -25.8583   18.9304 H   0  0  0  0  0  0
  -23.9983  -27.3351   18.9192 H   0  0  0  0  0  0
  -23.8363  -30.5738   19.4044 H   0  0  0  0  0  0
  -22.8053  -29.2433   19.8320 H   0  0  0  0  0  0
  -25.1311  -36.1878   25.0804 H   0  0  0  0  0  0
  -21.0020  -28.3330   24.1333 H   0  0  0  0  0  0
  -20.5671  -26.2338   23.3637 H   0  0  0  0  0  0
  -21.6653  -26.7409   22.1205 H   0  0  0  0  0  0
  -19.6924  -25.6281   21.1266 H   0  0  0  0  0  0
  -19.6712  -27.3168   20.6729 H   0  0  0  0  0  0
  -17.4208  -26.6664   21.4036 H   0  0  0  0  0  0
  -18.0358  -26.0103   22.9049 H   0  0  0  0  0  0
  -19.7948  -30.7304   24.2243 H   0  0  0  0  0  0
  -17.5013  -31.6271   24.5158 H   0  0  0  0  0  0
  -15.5359  -30.2968   23.7676 H   0  0  0  0  0  0
  -15.8699  -28.0818   22.7071 H   0  0  0  0  0  0
  -24.5820  -30.7202   25.7777 H   0  0  0  0  0  0
  -24.8840  -32.3054   26.4754 H   0  0  0  0  0  0
  -25.7877  -30.9100   27.0312 H   0  0  0  0  0  0
  -26.3004  -29.6695   24.1372 H   0  0  0  0  0  0
  -27.3841  -29.7263   25.5056 H   0  0  0  0  0  0
  -27.8977  -30.4146   23.9856 H   0  0  0  0  0  0
  -27.2632  -33.3677   26.2066 H   0  0  0  0  0  0
  -28.3873  -32.6893   25.0396 H   0  0  0  0  0  0
  -28.0678  -31.8531   26.5511 H   0  0  0  0  0  0
  -28.2609  -38.0070   24.7448 H   0  0  0  0  0  0
  -28.1046  -36.2596   24.6381 H   0  0  0  0  0  0
  -27.2284  -37.1552   25.8872 H   0  0  0  0  0  0
  -20.9514  -29.8764   21.6761 H   0  0  0  0  0  0
  -26.0169  -38.2815   24.1359 H   0  0  0  0  0  0
  -31.8564  -19.3813   23.0132 H   0  0  0  0  0  0
  -30.7496  -21.3972   22.2251 H   0  0  0  0  0  0
  -31.4373  -17.1661   22.0968 H   0  0  0  0  0  0
  -28.5495  -18.9899   19.4079 H   0  0  0  0  0  0
  -27.8797  -16.4946   19.2035 H   0  0  0  0  0  0
  -28.9809  -15.3996   18.3501 H   0  0  0  0  0  0
  -29.2331  -17.1001   18.2547 H   0  0  0  0  0  0
  -26.8443  -24.3413   20.3260 H   0  0  0  0  0  0
  -27.7044  -24.4751   18.8244 H   0  0  0  0  0  0
  1 25  1  0  0  0
  1 30  2  0  0  0
  1 81  1  0  0  0
  2  3  1  0  0  0
  2 25  1  0  0  0
  2 82  1  0  0  0
  2 83  1  0  0  0
  3  4  1  0  0  0
  3 84  1  0  0  0
  3 85  1  0  0  0
  4  5  1  0  0  0
  4 86  1  0  0  0
  4 87  1  0  0  0
  5  6  1  0  0  0
  5 26  1  0  0  0
  5 88  1  0  0  0
  6 25  1  0  0  0
  6 89  1  0  0  0
  6 90  1  0  0  0
  7  8  2  0  0  0
  7 26  1  0  0  0
  7 29  1  0  0  0
  8  9  1  0  0  0
  8 22  1  0  0  0
  9 10  1  0  0  0
  9 27  2  0  0  0
 10 11  2  0  0  0
 10 15  1  0  0  0
 11 12  1  0  0  0
 11 91  1  0  0  0
 12 13  2  0  0  0
 12 92  1  0  0  0
 13 14  1  0  0  0
 13 31  1  0  0  0
 14 15  2  0  0  0
 14 93  1  0  0  0
 15 94  1  0  0  0
 16 17  2  0  0  0
 16 21  1  0  0  0
 16 31  1  0  0  0
 17 18  1  0  0  0
 17 95  1  0  0  0
 18 19  2  0  0  0
 18 96  1  0  0  0
 19 20  1  0  0  0
 19 24  1  0  0  0
 20 21  2  0  0  0
 20 97  1  0  0  0
 21 23  1  0  0  0
 22 28  1  0  0  0
 22 32  2  0  0  0
 26 27  1  0  0  0
 28 98  1  0  0  0
 28 99  1  0  0  0
 29100  1  0  0  0
 29101  1  0  0  0
 33 34  1  0  0  0
 33 66  1  0  0  0
 33 70  2  0  0  0
 34 36  1  0  0  0
 34 59  1  0  0  0
 34102  1  0  0  0
 35 44  2  0  0  0
 35 45  1  0  0  0
 35 68  1  0  0  0
 36 56  1  0  0  0
 36103  1  0  0  0
 37 39  1  0  0  0
 37 47  1  0  0  0
 37 66  1  0  0  0
 37104  1  0  0  0
 38 43  2  0  0  0
 38 46  1  0  0  0
 38 47  1  0  0  0
 39 64  1  0  0  0
 39 67  2  0  0  0
 40 52  1  0  0  0
 40 53  2  0  0  0
 40 58  1  0  0  0
 41105  1  0  0  0
 41106  1  0  0  0
 41107  1  0  0  0
 41 48  1  0  0  0
 42 43  1  0  0  0
 42 66  1  0  0  0
 42108  1  0  0  0
 42109  1  0  0  0
 43 44  1  0  0  0
 44110  1  0  0  0
 45 46  2  0  0  0
 45111  1  0  0  0
 46112  1  0  0  0
 47113  1  0  0  0
 47114  1  0  0  0
 48 56  1  0  0  0
 48 65  1  0  0  0
 48115  1  0  0  0
 49 50  1  0  0  0
 49 53  1  0  0  0
 49 64  1  0  0  0
 49116  1  0  0  0
 50 51  1  0  0  0
 50117  1  0  0  0
 50118  1  0  0  0
 51 52  1  0  0  0
 51119  1  0  0  0
 51120  1  0  0  0
 52121  1  0  0  0
 52122  1  0  0  0
 53 54  1  0  0  0
 54 55  2  0  0  0
 54123  1  0  0  0
 55 57  1  0  0  0
 55124  1  0  0  0
 56 69  2  0  0  0
 57 58  2  0  0  0
 57125  1  0  0  0
 58126  1  0  0  0
 59 60  1  0  0  0
 59 61  1  0  0  0
 59 62  1  0  0  0
 60127  1  0  0  0
 60128  1  0  0  0
 60129  1  0  0  0
 61130  1  0  0  0
 61131  1  0  0  0
 61132  1  0  0  0
 62133  1  0  0  0
 62134  1  0  0  0
 62135  1  0  0  0
 63 65  1  0  0  0
 63136  1  0  0  0
 63137  1  0  0  0
 63138  1  0  0  0
 64139  1  0  0  0
 65140  1  0  0  0
 68 80  1  0  0  0
 71 72  3  0  0  0
 71 77  1  0  0  0
 72 80  1  0  0  0
 73 74  2  0  0  0
 73 75  1  0  0  0
 73141  1  0  0  0
 74 77  1  0  0  0
 74142  1  0  0  0
 75 78  2  0  0  0
 75143  1  0  0  0
 76 77  2  0  0  0
 76 78  1  0  0  0
 76144  1  0  0  0
 78 81  1  0  0  0
 79 81  1  0  0  0
 79145  1  0  0  0
 79146  1  0  0  0
 79147  1  0  0  0
 80148  1  0  0  0
 80149  1  0  0  0
M  ISO  4   1 100  68 101  80 101  81 100
M  END
> <chiral flag>
0

> <version>
0

> <s_m_source_file>
/data/baiqing/PycharmProjects/Reinvent-master-3.2/result/LINK_invent/BTK/process_docking_weight1_custom_sum_contain_oxygen_bond_distance_aromatic_linkinvent_7_9_3/rearranged_h_0002.sdf

> <i_m_source_file_index>
58

> <r_mmod_Potential_Energy-OPLS-2005>
844.917724609375

> <r_mmod_Stretch_Energy-OPLS-2005>
319.073394775391

> <r_mmod_Bend_Energy-OPLS-2005>
278.76123046875

> <r_mmod_Torsional_Energy-OPLS-2005>
280.311828613281

> <r_mmod_Improper_Torsional_Energy-OPLS-2005>
10.4995985031128

> <r_mmod_Van_der_Waal_Energy-OPLS-2005>
139.393249511719

> <r_mmod_Electrostatic_Energy-OPLS-2005>
-277.499786376953

> <r_mmod_Solvation_Energy-OPLS-2005>
-195.119979858398

> <b_mmod_Minimization_Converged-OPLS-2005>
0

> <r_mmod_RMS_Derivative-OPLS-2005>
2.00957107543945

$$$$
58
                    3D
 Structure written by MMmdl.
157165  0  0  1  0            999 V2000
  -30.8088  -14.4059   20.6146 C   0  0  0  0  0  0
  -30.4021  -12.2901   19.4311 C   0  0  0  0  0  0
  -29.4850  -12.4966   18.2122 C   0  0  0  0  0  0
  -28.0134  -12.3557   18.6339 C   0  0  0  0  0  0
  -27.6643  -13.2149   19.8788 C   0  0  2  0  0  0
  -28.7082  -13.0354   21.0088 C   0  0  0  0  0  0
  -25.2597  -13.8184   20.5697 C   0  0  0  0  0  0
  -24.1841  -13.0438   20.9175 C   0  0  0  0  0  0
  -24.6413  -11.6919   20.8752 C   0  0  0  0  0  0
  -23.9078  -10.4289   21.0412 C   0  0  0  0  0  0
  -24.3623   -9.4198   21.9192 C   0  0  0  0  0  0
  -23.6284   -8.2235   22.0762 C   0  0  0  0  0  0
  -22.4271   -8.0278   21.3544 C   0  0  0  0  0  0
  -21.9918   -9.0261   20.4646 C   0  0  0  0  0  0
  -22.7255  -10.2131   20.3054 C   0  0  0  0  0  0
  -21.6853   -6.0728   22.5271 C   0  0  0  0  0  0
  -21.4013   -6.5636   23.8206 C   0  0  0  0  0  0
  -21.3657   -5.6790   24.9169 C   0  0  0  0  0  0
  -21.6042   -4.3050   24.7227 C   0  0  0  0  0  0
  -21.8825   -3.8143   23.4350 C   0  0  0  0  0  0
  -21.9195   -4.6954   22.3398 C   0  0  0  0  0  0
  -22.7857  -13.5230   21.1813 C   0  0  0  0  0  0
  -22.1662   -4.2131   21.0976 F   0  0  0  0  0  0
  -21.5633   -3.4542   25.7745 F   0  0  0  0  0  0
  -30.0489  -13.2880   20.4552 N   0  0  0  0  0  0
  -26.3047  -12.9375   20.3419 N   0  0  0  0  0  0
  -25.9344  -11.6532   20.5821 N   0  0  0  0  0  0
  -22.0511  -12.8216   22.0374 N   0  0  0  0  0  0
  -25.4325  -15.1893   20.4098 N   0  0  0  0  0  0
  -31.8359  -14.5855   19.9581 O   0  0  0  0  0  0
  -21.6644   -6.8871   21.4229 O   0  0  0  0  0  0
  -22.3543  -14.5536   20.6666 O   0  0  0  0  0  0
  -24.6125  -31.8699   23.2146 C   0  0  0  0  0  0
  -25.9044  -32.4835   23.8409 C   0  0  1  0  0  0
  -27.2351  -27.4529   20.0909 C   0  0  0  0  0  0
  -25.5924  -33.8638   24.2353 N   0  0  0  0  0  0
  -23.3993  -30.4907   21.5545 C   0  0  2  0  0  0
  -24.8442  -28.9625   20.1136 C   0  0  0  0  0  0
  -22.7401  -29.4621   22.5021 C   0  0  0  0  0  0
  -18.0252  -28.1348   22.8484 C   0  0  0  0  0  0
  -24.1487  -36.7313   23.2642 C   0  0  0  0  0  0
  -25.9242  -30.8392   21.3642 C   0  0  0  0  0  0
  -26.0002  -29.4737   20.7143 C   0  0  0  0  0  0
  -27.1964  -28.7238   20.7032 C   0  0  0  0  0  0
  -26.0616  -26.9551   19.4762 C   0  0  0  0  0  0
  -24.8675  -27.7010   19.4942 C   0  0  0  0  0  0
  -23.6083  -29.8307   20.1647 C   0  0  0  0  0  0
  -25.4111  -36.3130   24.0340 C   0  0  1  0  0  0
  -20.5846  -28.3634   23.1327 C   0  0  2  0  0  0
  -20.6761  -26.9372   22.5413 C   0  0  0  0  0  0
  -19.5743  -26.6382   21.5197 C   0  0  0  0  0  0
  -18.1916  -26.7904   22.1596 C   0  0  0  0  0  0
  -19.1504  -28.8814   23.2895 C   0  0  0  0  0  0
  -18.9438  -30.1426   23.8897 C   0  0  0  0  0  0
  -17.6449  -30.6577   24.0540 C   0  0  0  0  0  0
  -25.9035  -34.9502   23.5141 C   0  0  0  0  0  0
  -16.5342  -29.9073   23.6306 C   0  0  0  0  0  0
  -16.7245  -28.6489   23.0322 C   0  0  0  0  0  0
  -26.4506  -31.6607   25.0714 C   0  0  0  0  0  0
  -25.3781  -31.3662   26.1460 C   0  0  0  0  0  0
  -27.0294  -30.3055   24.6012 C   0  0  0  0  0  0
  -27.6073  -32.4346   25.7488 C   0  0  0  0  0  0
  -27.5585  -37.1821   24.8467 C   0  0  0  0  0  0
  -21.4130  -29.3014   22.3773 N   0  0  0  0  0  0
  -26.4304  -37.3812   23.9406 N   0  0  0  0  0  0
  -24.6628  -31.0800   22.1051 N   0  0  0  0  0  0
  -23.4186  -28.8182   23.3059 O   0  0  0  0  0  0
  -28.4347  -26.7750   20.0987 O   0  0  0  0  0  0
  -26.5578  -34.8959   22.4688 O   0  0  0  0  0  0
  -23.5322  -32.1485   23.7553 O   0  0  0  0  0  0
  -33.1949  -17.7682   22.1885 C   0  0  0  0  0  0
  -32.4706  -18.9632   22.3344 C   0  0  0  0  0  0
  -32.5136  -16.5657   21.9320 C   0  0  0  0  0  0
  -30.3787  -17.7390   22.0107 C   0  0  0  0  0  0
  -31.0607  -18.9596   22.2375 C   0  0  0  0  0  0
  -31.1002  -16.5382   21.8138 C   0  0  0  0  0  0
  -30.3009  -20.2389   22.4257 C   0  0  0  0  0  0
  -29.7560  -23.3208   20.7806 C   0  0  0  0  0  0
  -29.3020  -24.7594   21.0662 C   0  0  0  0  0  0
  -30.4329  -22.6936   22.0083 C   0  0  0  0  0  0
  -28.4578  -25.3576   19.9337 C   0  0  0  0  0  0
  -30.3982  -15.3283   21.5080 N   0  0  0  0  0  0
  -30.8111  -21.3010   21.7882 N   0  0  0  0  0  0
  -29.2904  -20.2810   23.1282 O   0  0  0  0  0  0
  -31.4492  -12.3427   19.1267 H   0  0  0  0  0  0
  -30.2735  -11.2892   19.8429 H   0  0  0  0  0  0
  -29.7223  -11.7637   17.4391 H   0  0  0  0  0  0
  -29.6573  -13.4796   17.7713 H   0  0  0  0  0  0
  -27.8352  -11.3013   18.8513 H   0  0  0  0  0  0
  -27.3551  -12.6085   17.8013 H   0  0  0  0  0  0
  -27.7008  -14.2561   19.5594 H   0  0  0  0  0  0
  -28.6701  -12.0203   21.4053 H   0  0  0  0  0  0
  -28.4692  -13.6891   21.8474 H   0  0  0  0  0  0
  -25.2764   -9.5665   22.4775 H   0  0  0  0  0  0
  -23.9985   -7.4631   22.7492 H   0  0  0  0  0  0
  -21.0852   -8.8784   19.8954 H   0  0  0  0  0  0
  -22.3726  -10.9671   19.6162 H   0  0  0  0  0  0
  -21.2005   -7.6147   23.9694 H   0  0  0  0  0  0
  -21.1474   -6.0531   25.9069 H   0  0  0  0  0  0
  -22.0610   -2.7601   23.2862 H   0  0  0  0  0  0
  -22.4136  -11.9866   22.4733 H   0  0  0  0  0  0
  -21.1122  -13.1232   22.2580 H   0  0  0  0  0  0
  -24.6713  -15.8512   20.5138 H   0  0  0  0  0  0
  -26.2959  -15.6246   20.1073 H   0  0  0  0  0  0
  -26.7112  -32.5560   23.1163 H   0  0  0  0  0  0
  -25.0133  -33.9789   25.0534 H   0  0  0  0  0  0
  -22.6888  -31.3069   21.4189 H   0  0  0  0  0  0
  -23.3758  -35.9635   23.3307 H   0  0  0  0  0  0
  -24.3584  -36.8915   22.2057 H   0  0  0  0  0  0
  -23.7235  -37.6522   23.6636 H   0  0  0  0  0  0
  -26.0282  -31.6035   20.5933 H   0  0  0  0  0  0
  -26.8164  -30.8998   21.9741 H   0  0  0  0  0  0
  -28.0944  -29.1155   21.1639 H   0  0  0  0  0  0
  -26.0478  -26.0100   18.9534 H   0  0  0  0  0  0
  -23.9805  -27.3059   19.0175 H   0  0  0  0  0  0
  -23.7275  -30.6125   19.4138 H   0  0  0  0  0  0
  -22.7304  -29.2588   19.8588 H   0  0  0  0  0  0
  -25.1278  -36.2012   25.0829 H   0  0  0  0  0  0
  -20.9907  -28.3205   24.1450 H   0  0  0  0  0  0
  -20.5710  -26.2219   23.3596 H   0  0  0  0  0  0
  -21.6629  -26.7470   22.1162 H   0  0  0  0  0  0
  -19.6913  -25.6307   21.1191 H   0  0  0  0  0  0
  -19.6676  -27.3225   20.6754 H   0  0  0  0  0  0
  -17.4184  -26.6649   21.3987 H   0  0  0  0  0  0
  -18.0281  -26.0045   22.8979 H   0  0  0  0  0  0
  -19.7935  -30.7206   24.2287 H   0  0  0  0  0  0
  -17.5021  -31.6248   24.5165 H   0  0  0  0  0  0
  -15.5347  -30.2971   23.7671 H   0  0  0  0  0  0
  -15.8632  -28.0838   22.7018 H   0  0  0  0  0  0
  -24.5967  -30.6996   25.7798 H   0  0  0  0  0  0
  -24.8951  -32.2782   26.4972 H   0  0  0  0  0  0
  -25.8169  -30.8804   27.0177 H   0  0  0  0  0  0
  -26.2752  -29.6845   24.1156 H   0  0  0  0  0  0
  -27.4171  -29.7280   25.4412 H   0  0  0  0  0  0
  -27.8567  -30.4367   23.9034 H   0  0  0  0  0  0
  -27.2652  -33.3636   26.2066 H   0  0  0  0  0  0
  -28.3886  -32.6938   25.0327 H   0  0  0  0  0  0
  -28.0723  -31.8467   26.5408 H   0  0  0  0  0  0
  -28.2613  -38.0128   24.7538 H   0  0  0  0  0  0
  -28.1084  -36.2643   24.6265 H   0  0  0  0  0  0
  -27.2281  -37.1452   25.8877 H   0  0  0  0  0  0
  -20.9329  -29.8735   21.6973 H   0  0  0  0  0  0
  -26.0193  -38.2888   24.1422 H   0  0  0  0  0  0
  -34.2746  -17.7719   22.2683 H   0  0  0  0  0  0
  -33.0064  -19.8811   22.5395 H   0  0  0  0  0  0
  -33.1010  -15.6642   21.8178 H   0  0  0  0  0  0
  -29.2985  -17.7456   21.9511 H   0  0  0  0  0  0
  -30.4465  -23.3280   19.9353 H   0  0  0  0  0  0
  -28.9024  -22.7156   20.4745 H   0  0  0  0  0  0
  -30.1807  -25.3773   21.2504 H   0  0  0  0  0  0
  -28.7207  -24.7870   21.9893 H   0  0  0  0  0  0
  -29.7888  -22.7863   22.8842 H   0  0  0  0  0  0
  -31.3375  -23.2527   22.2464 H   0  0  0  0  0  0
  -27.4810  -24.8751   19.9710 H   0  0  0  0  0  0
  -28.9013  -25.1326   18.9626 H   0  0  0  0  0  0
  -29.4852  -15.1974   21.9148 H   0  0  0  0  0  0
  -31.5896  -21.1199   21.1674 H   0  0  0  0  0  0
  1 25  1  0  0  0
  1 30  2  0  0  0
  1 82  1  0  0  0
  2  3  1  0  0  0
  2 25  1  0  0  0
  2 85  1  0  0  0
  2 86  1  0  0  0
  3  4  1  0  0  0
  3 87  1  0  0  0
  3 88  1  0  0  0
  4  5  1  0  0  0
  4 89  1  0  0  0
  4 90  1  0  0  0
  5  6  1  0  0  0
  5 26  1  0  0  0
  5 91  1  0  0  0
  6 25  1  0  0  0
  6 92  1  0  0  0
  6 93  1  0  0  0
  7  8  2  0  0  0
  7 26  1  0  0  0
  7 29  1  0  0  0
  8  9  1  0  0  0
  8 22  1  0  0  0
  9 10  1  0  0  0
  9 27  2  0  0  0
 10 11  2  0  0  0
 10 15  1  0  0  0
 11 12  1  0  0  0
 11 94  1  0  0  0
 12 13  2  0  0  0
 12 95  1  0  0  0
 13 14  1  0  0  0
 13 31  1  0  0  0
 14 15  2  0  0  0
 14 96  1  0  0  0
 15 97  1  0  0  0
 16 17  2  0  0  0
 16 21  1  0  0  0
 16 31  1  0  0  0
 17 18  1  0  0  0
 17 98  1  0  0  0
 18 19  2  0  0  0
 18 99  1  0  0  0
 19 20  1  0  0  0
 19 24  1  0  0  0
 20 21  2  0  0  0
 20100  1  0  0  0
 21 23  1  0  0  0
 22 28  1  0  0  0
 22 32  2  0  0  0
 26 27  1  0  0  0
 28101  1  0  0  0
 28102  1  0  0  0
 29103  1  0  0  0
 29104  1  0  0  0
 33 34  1  0  0  0
 33 66  1  0  0  0
 33 70  2  0  0  0
 34 36  1  0  0  0
 34 59  1  0  0  0
 34105  1  0  0  0
 35 44  2  0  0  0
 35 45  1  0  0  0
 35 68  1  0  0  0
 36 56  1  0  0  0
 36106  1  0  0  0
 37 39  1  0  0  0
 37 47  1  0  0  0
 37 66  1  0  0  0
 37107  1  0  0  0
 38 43  2  0  0  0
 38 46  1  0  0  0
 38 47  1  0  0  0
 39 64  1  0  0  0
 39 67  2  0  0  0
 40 52  1  0  0  0
 40 53  2  0  0  0
 40 58  1  0  0  0
 41108  1  0  0  0
 41109  1  0  0  0
 41110  1  0  0  0
 41 48  1  0  0  0
 42 43  1  0  0  0
 42 66  1  0  0  0
 42111  1  0  0  0
 42112  1  0  0  0
 43 44  1  0  0  0
 44113  1  0  0  0
 45 46  2  0  0  0
 45114  1  0  0  0
 46115  1  0  0  0
 47116  1  0  0  0
 47117  1  0  0  0
 48 56  1  0  0  0
 48 65  1  0  0  0
 48118  1  0  0  0
 49 50  1  0  0  0
 49 53  1  0  0  0
 49 64  1  0  0  0
 49119  1  0  0  0
 50 51  1  0  0  0
 50120  1  0  0  0
 50121  1  0  0  0
 51 52  1  0  0  0
 51122  1  0  0  0
 51123  1  0  0  0
 52124  1  0  0  0
 52125  1  0  0  0
 53 54  1  0  0  0
 54 55  2  0  0  0
 54126  1  0  0  0
 55 57  1  0  0  0
 55127  1  0  0  0
 56 69  2  0  0  0
 57 58  2  0  0  0
 57128  1  0  0  0
 58129  1  0  0  0
 59 60  1  0  0  0
 59 61  1  0  0  0
 59 62  1  0  0  0
 60130  1  0  0  0
 60131  1  0  0  0
 60132  1  0  0  0
 61133  1  0  0  0
 61134  1  0  0  0
 61135  1  0  0  0
 62136  1  0  0  0
 62137  1  0  0  0
 62138  1  0  0  0
 63 65  1  0  0  0
 63139  1  0  0  0
 63140  1  0  0  0
 63141  1  0  0  0
 64142  1  0  0  0
 65143  1  0  0  0
 68 81  1  0  0  0
 71 72  2  0  0  0
 71 73  1  0  0  0
 71144  1  0  0  0
 72 75  1  0  0  0
 72145  1  0  0  0
 73 76  2  0  0  0
 73146  1  0  0  0
 74 75  2  0  0  0
 74 76  1  0  0  0
 74147  1  0  0  0
 75 77  1  0  0  0
 76 82  1  0  0  0
 77 83  1  0  0  0
 77 84  2  0  0  0
 78 79  1  0  0  0
 78 80  1  0  0  0
 78148  1  0  0  0
 78149  1  0  0  0
 79 81  1  0  0  0
 79150  1  0  0  0
 79151  1  0  0  0
 80 83  1  0  0  0
 80152  1  0  0  0
 80153  1  0  0  0
 81154  1  0  0  0
 81155  1  0  0  0
 82156  1  0  0  0
 83157  1  0  0  0
M  ISO  4   1 100  68 101  81 101  82 100
M  END
> <chiral flag>
0

> <version>
0

> <s_m_source_file>
/data/baiqing/PycharmProjects/Reinvent-master-3.2/result/LINK_invent/BTK/process_docking_weight1_custom_sum_contain_oxygen_bond_distance_aromatic_linkinvent_7_9_3/rearranged_h_0002.sdf

> <i_m_source_file_index>
59

> <r_mmod_Potential_Energy-OPLS-2005>
-120.534523010254

> <r_mmod_Stretch_Energy-OPLS-2005>
34.2773170471191

> <r_mmod_Bend_Energy-OPLS-2005>
97.4316787719727

> <r_mmod_Torsional_Energy-OPLS-2005>
228.261764526367

> <r_mmod_Improper_Torsional_Energy-OPLS-2005>
1.94049167633057

> <r_mmod_Van_der_Waal_Energy-OPLS-2005>
166.155792236328

> <r_mmod_Electrostatic_Energy-OPLS-2005>
-432.180847167969

> <r_mmod_Solvation_Energy-OPLS-2005>
-228.631439208984

> <b_mmod_Minimization_Converged-OPLS-2005>
0

> <r_mmod_RMS_Derivative-OPLS-2005>
3.67431449890137

$$$$
59
                    3D
 Structure written by MMmdl.
143150  0  0  1  0            999 V2000
  -30.3355  -15.5533   20.3377 C   0  0  0  0  0  0
  -30.4278  -13.0206   19.5356 C   0  0  0  0  0  0
  -29.5464  -12.6353   18.3151 C   0  0  0  0  0  0
  -28.1142  -12.2965   18.7563 C   0  0  0  0  0  0
  -27.5983  -13.2998   19.8136 C   0  0  2  0  0  0
  -28.6188  -13.6020   20.9348 C   0  0  0  0  0  0
  -25.2335  -13.8272   20.5783 C   0  0  0  0  0  0
  -24.1716  -13.0431   20.9280 C   0  0  0  0  0  0
  -24.6407  -11.6939   20.8763 C   0  0  0  0  0  0
  -23.9108  -10.4290   21.0398 C   0  0  0  0  0  0
  -24.3646   -9.4204   21.9179 C   0  0  0  0  0  0
  -23.6308   -8.2245   22.0753 C   0  0  0  0  0  0
  -22.4289   -8.0285   21.3544 C   0  0  0  0  0  0
  -21.9934   -9.0259   20.4644 C   0  0  0  0  0  0
  -22.7275  -10.2132   20.3050 C   0  0  0  0  0  0
  -21.6858   -6.0738   22.5278 C   0  0  0  0  0  0
  -21.4019   -6.5642   23.8212 C   0  0  0  0  0  0
  -21.3660   -5.6794   24.9173 C   0  0  0  0  0  0
  -21.6043   -4.3057   24.7224 C   0  0  0  0  0  0
  -21.8819   -3.8148   23.4345 C   0  0  0  0  0  0
  -21.9194   -4.6965   22.3402 C   0  0  0  0  0  0
  -22.7731  -13.5167   21.1917 C   0  0  0  0  0  0
  -22.1662   -4.2150   21.0979 F   0  0  0  0  0  0
  -21.5626   -3.4540   25.7737 F   0  0  0  0  0  0
  -29.8047  -14.1993   20.2827 N   0  0  0  0  0  0
  -26.2777  -12.9589   20.3227 N   0  0  0  0  0  0
  -25.9352  -11.6669   20.5705 N   0  0  0  0  0  0
  -22.0396  -12.8145   22.0471 N   0  0  0  0  0  0
  -25.3934  -15.2012   20.4226 N   0  0  0  0  0  0
  -31.5687  -15.5024   20.1771 O   0  0  0  0  0  0
  -21.6647   -6.8885   21.4242 O   0  0  0  0  0  0
  -22.3406  -14.5465   20.6752 O   0  0  0  0  0  0
  -24.6800  -31.8038   23.1543 C   0  0  0  0  0  0
  -25.9399  -32.4487   23.8074 C   0  0  1  0  0  0
  -27.2247  -26.7418   20.2123 C   0  0  0  0  0  0
  -25.5993  -33.8310   24.1966 N   0  0  0  0  0  0
  -23.5038  -30.4073   21.5074 C   0  0  2  0  0  0
  -24.9602  -28.7545   20.1181 C   0  0  0  0  0  0
  -22.7746  -29.4338   22.4723 C   0  0  0  0  0  0
  -18.0336  -28.1422   22.8456 C   0  0  0  0  0  0
  -24.1495  -36.7162   23.2653 C   0  0  0  0  0  0
  -26.0826  -30.5501   21.4119 C   0  0  0  0  0  0
  -26.1487  -29.1190   20.7619 C   0  0  0  0  0  0
  -27.2682  -28.1399   20.7756 C   0  0  0  0  0  0
  -26.0029  -26.5744   19.5148 C   0  0  0  0  0  0
  -24.9238  -27.5069   19.4714 C   0  0  0  0  0  0
  -23.7552  -29.7060   20.1417 C   0  0  0  0  0  0
  -25.4144  -36.2907   24.0285 C   0  0  1  0  0  0
  -20.5969  -28.3778   23.1151 C   0  0  2  0  0  0
  -20.6806  -26.9441   22.5404 C   0  0  0  0  0  0
  -19.5783  -26.6372   21.5218 C   0  0  0  0  0  0
  -18.1963  -26.7949   22.1618 C   0  0  0  0  0  0
  -19.1601  -28.8923   23.2785 C   0  0  0  0  0  0
  -18.9509  -30.1507   23.8830 C   0  0  0  0  0  0
  -17.6500  -30.6605   24.0552 C   0  0  0  0  0  0
  -25.9122  -34.9297   23.4960 C   0  0  0  0  0  0
  -16.5389  -29.9089   23.6351 C   0  0  0  0  0  0
  -16.7316  -28.6511   23.0366 C   0  0  0  0  0  0
  -26.4590  -31.6507   25.0681 C   0  0  0  0  0  0
  -25.3664  -31.3815   26.1302 C   0  0  0  0  0  0
  -27.0517  -30.2851   24.6551 C   0  0  0  0  0  0
  -27.6045  -32.4359   25.7497 C   0  0  0  0  0  0
  -27.5563  -37.1737   24.8467 C   0  0  0  0  0  0
  -21.4398  -29.3031   22.3473 N   0  0  0  0  0  0
  -26.4272  -37.3665   23.9408 N   0  0  0  0  0  0
  -24.7786  -30.9523   22.0774 N   0  0  0  0  0  0
  -23.4209  -28.7935   23.3052 O   0  0  0  0  0  0
  -28.2041  -25.5512   20.2801 O   0  0  0  0  0  0
  -26.5758  -34.8869   22.4574 O   0  0  0  0  0  0
  -23.5828  -32.1094   23.6523 O   0  0  0  0  0  0
  -28.7651  -20.2674   20.2904 C   0  0  0  0  0  0
  -29.0007  -22.1779   20.3080 C   0  0  0  0  0  0
  -29.8051  -18.6520   20.3467 C   0  0  0  0  0  0
  -28.0034  -23.8204   20.2032 C   0  0  0  0  0  0
  -29.5782  -16.9027   20.3825 N   0  0  0  0  0  0
  -31.4268  -13.2705   19.1767 H   0  0  0  0  0  0
  -30.5690  -12.1647   20.1980 H   0  0  0  0  0  0
  -29.9845  -11.7945   17.7757 H   0  0  0  0  0  0
  -29.5210  -13.4708   17.6137 H   0  0  0  0  0  0
  -28.1271  -11.2932   19.1840 H   0  0  0  0  0  0
  -27.4439  -12.2569   17.8969 H   0  0  0  0  0  0
  -27.4709  -14.2301   19.2582 H   0  0  0  0  0  0
  -28.8604  -12.7103   21.5153 H   0  0  0  0  0  0
  -28.2012  -14.3242   21.6380 H   0  0  0  0  0  0
  -25.2785   -9.5679   22.4764 H   0  0  0  0  0  0
  -24.0009   -7.4638   22.7481 H   0  0  0  0  0  0
  -21.0862   -8.8785   19.8952 H   0  0  0  0  0  0
  -22.3730  -10.9673   19.6163 H   0  0  0  0  0  0
  -21.2015   -7.6151   23.9715 H   0  0  0  0  0  0
  -21.1481   -6.0525   25.9076 H   0  0  0  0  0  0
  -22.0596   -2.7611   23.2846 H   0  0  0  0  0  0
  -22.4039  -11.9821   22.4865 H   0  0  0  0  0  0
  -21.1004  -13.1141   22.2671 H   0  0  0  0  0  0
  -24.6207  -15.8487   20.5359 H   0  0  0  0  0  0
  -26.2324  -15.6443   20.0726 H   0  0  0  0  0  0
  -26.7477  -32.4971   23.0784 H   0  0  0  0  0  0
  -25.0059  -33.9354   25.0062 H   0  0  0  0  0  0
  -22.8274  -31.2439   21.3201 H   0  0  0  0  0  0
  -23.3774  -35.9475   23.3272 H   0  0  0  0  0  0
  -24.3562  -36.8864   22.2076 H   0  0  0  0  0  0
  -23.7238  -37.6325   23.6753 H   0  0  0  0  0  0
  -26.2810  -31.2776   20.6238 H   0  0  0  0  0  0
  -26.9354  -30.6164   22.0750 H   0  0  0  0  0  0
  -28.1647  -28.4248   21.3080 H   0  0  0  0  0  0
  -25.8443  -25.6278   19.0182 H   0  0  0  0  0  0
  -24.0252  -27.2191   18.9430 H   0  0  0  0  0  0
  -23.9278  -30.4668   19.3796 H   0  0  0  0  0  0
  -22.8607  -29.1707   19.8189 H   0  0  0  0  0  0
  -25.1351  -36.1675   25.0775 H   0  0  0  0  0  0
  -21.0052  -28.3402   24.1277 H   0  0  0  0  0  0
  -20.5676  -26.2401   23.3662 H   0  0  0  0  0  0
  -21.6667  -26.7393   22.1218 H   0  0  0  0  0  0
  -19.6942  -25.6265   21.1292 H   0  0  0  0  0  0
  -19.6728  -27.3145   20.6718 H   0  0  0  0  0  0
  -17.4233  -26.6692   21.4021 H   0  0  0  0  0  0
  -18.0352  -26.0108   22.9031 H   0  0  0  0  0  0
  -19.7986  -30.7339   24.2170 H   0  0  0  0  0  0
  -17.5053  -31.6279   24.5166 H   0  0  0  0  0  0
  -15.5388  -30.2971   23.7716 H   0  0  0  0  0  0
  -15.8715  -28.0809   22.7122 H   0  0  0  0  0  0
  -24.5873  -30.7140   25.7600 H   0  0  0  0  0  0
  -24.8826  -32.3036   26.4537 H   0  0  0  0  0  0
  -25.7846  -30.9101   27.0204 H   0  0  0  0  0  0
  -26.3228  -29.6473   24.1543 H   0  0  0  0  0  0
  -27.3966  -29.7288   25.5278 H   0  0  0  0  0  0
  -27.9198  -30.3989   24.0055 H   0  0  0  0  0  0
  -27.2593  -33.3729   26.1879 H   0  0  0  0  0  0
  -28.3955  -32.6809   25.0396 H   0  0  0  0  0  0
  -28.0603  -31.8616   26.5574 H   0  0  0  0  0  0
  -28.2553  -38.0057   24.7511 H   0  0  0  0  0  0
  -28.1085  -36.2580   24.6299 H   0  0  0  0  0  0
  -27.2276  -37.1380   25.8868 H   0  0  0  0  0  0
  -20.9695  -29.8687   21.6544 H   0  0  0  0  0  0
  -26.0103  -38.2714   24.1421 H   0  0  0  0  0  0
  -28.1541  -20.1192   19.3998 H   0  0  0  0  0  0
  -28.0571  -20.1169   21.1057 H   0  0  0  0  0  0
  -29.7448  -22.3205   19.5244 H   0  0  0  0  0  0
  -29.5730  -22.3235   21.2244 H   0  0  0  0  0  0
  -30.4440  -18.8018   21.2176 H   0  0  0  0  0  0
  -30.4945  -18.7676   19.5099 H   0  0  0  0  0  0
  -27.2299  -23.6732   20.9571 H   0  0  0  0  0  0
  -27.4624  -23.7113   19.2633 H   0  0  0  0  0  0
  -28.5926  -16.6942   20.4591 H   0  0  0  0  0  0
  1 25  1  0  0  0
  1 30  2  0  0  0
  1 75  1  0  0  0
  2  3  1  0  0  0
  2 25  1  0  0  0
  2 76  1  0  0  0
  2 77  1  0  0  0
  3  4  1  0  0  0
  3 78  1  0  0  0
  3 79  1  0  0  0
  4  5  1  0  0  0
  4 80  1  0  0  0
  4 81  1  0  0  0
  5  6  1  0  0  0
  5 26  1  0  0  0
  5 82  1  0  0  0
  6 25  1  0  0  0
  6 83  1  0  0  0
  6 84  1  0  0  0
  7  8  2  0  0  0
  7 26  1  0  0  0
  7 29  1  0  0  0
  8  9  1  0  0  0
  8 22  1  0  0  0
  9 10  1  0  0  0
  9 27  2  0  0  0
 10 11  2  0  0  0
 10 15  1  0  0  0
 11 12  1  0  0  0
 11 85  1  0  0  0
 12 13  2  0  0  0
 12 86  1  0  0  0
 13 14  1  0  0  0
 13 31  1  0  0  0
 14 15  2  0  0  0
 14 87  1  0  0  0
 15 88  1  0  0  0
 16 17  2  0  0  0
 16 21  1  0  0  0
 16 31  1  0  0  0
 17 18  1  0  0  0
 17 89  1  0  0  0
 18 19  2  0  0  0
 18 90  1  0  0  0
 19 20  1  0  0  0
 19 24  1  0  0  0
 20 21  2  0  0  0
 20 91  1  0  0  0
 21 23  1  0  0  0
 22 28  1  0  0  0
 22 32  2  0  0  0
 26 27  1  0  0  0
 28 92  1  0  0  0
 28 93  1  0  0  0
 29 94  1  0  0  0
 29 95  1  0  0  0
 33 34  1  0  0  0
 33 66  1  0  0  0
 33 70  2  0  0  0
 34 36  1  0  0  0
 34 59  1  0  0  0
 34 96  1  0  0  0
 35 44  2  0  0  0
 35 45  1  0  0  0
 35 68  1  0  0  0
 36 56  1  0  0  0
 36 97  1  0  0  0
 37 39  1  0  0  0
 37 47  1  0  0  0
 37 66  1  0  0  0
 37 98  1  0  0  0
 38 43  2  0  0  0
 38 46  1  0  0  0
 38 47  1  0  0  0
 39 64  1  0  0  0
 39 67  2  0  0  0
 40 52  1  0  0  0
 40 53  2  0  0  0
 40 58  1  0  0  0
 41 99  1  0  0  0
 41100  1  0  0  0
 41101  1  0  0  0
 41 48  1  0  0  0
 42 43  1  0  0  0
 42 66  1  0  0  0
 42102  1  0  0  0
 42103  1  0  0  0
 43 44  1  0  0  0
 44104  1  0  0  0
 45 46  2  0  0  0
 45105  1  0  0  0
 46106  1  0  0  0
 47107  1  0  0  0
 47108  1  0  0  0
 48 56  1  0  0  0
 48 65  1  0  0  0
 48109  1  0  0  0
 49 50  1  0  0  0
 49 53  1  0  0  0
 49 64  1  0  0  0
 49110  1  0  0  0
 50 51  1  0  0  0
 50111  1  0  0  0
 50112  1  0  0  0
 51 52  1  0  0  0
 51113  1  0  0  0
 51114  1  0  0  0
 52115  1  0  0  0
 52116  1  0  0  0
 53 54  1  0  0  0
 54 55  2  0  0  0
 54117  1  0  0  0
 55 57  1  0  0  0
 55118  1  0  0  0
 56 69  2  0  0  0
 57 58  2  0  0  0
 57119  1  0  0  0
 58120  1  0  0  0
 59 60  1  0  0  0
 59 61  1  0  0  0
 59 62  1  0  0  0
 60121  1  0  0  0
 60122  1  0  0  0
 60123  1  0  0  0
 61124  1  0  0  0
 61125  1  0  0  0
 61126  1  0  0  0
 62127  1  0  0  0
 62128  1  0  0  0
 62129  1  0  0  0
 63 65  1  0  0  0
 63130  1  0  0  0
 63131  1  0  0  0
 63132  1  0  0  0
 64133  1  0  0  0
 65134  1  0  0  0
 68 74  1  0  0  0
 71 72  1  0  0  0
 71 73  1  0  0  0
 71135  1  0  0  0
 71136  1  0  0  0
 72 74  1  0  0  0
 72137  1  0  0  0
 72138  1  0  0  0
 73 75  1  0  0  0
 73139  1  0  0  0
 73140  1  0  0  0
 74141  1  0  0  0
 74142  1  0  0  0
 75143  1  0  0  0
M  ISO  4   1 100  68 101  74 101  75 100
M  END
> <chiral flag>
0

> <version>
0

> <s_m_source_file>
/data/baiqing/PycharmProjects/Reinvent-master-3.2/result/LINK_invent/BTK/process_docking_weight1_custom_sum_contain_oxygen_bond_distance_aromatic_linkinvent_7_9_3/rearranged_h_0002.sdf

> <i_m_source_file_index>
60

> <r_mmod_Potential_Energy-OPLS-2005>
2236.59155273438

> <r_mmod_Stretch_Energy-OPLS-2005>
1088.18041992188

> <r_mmod_Bend_Energy-OPLS-2005>
600.093139648438

> <r_mmod_Torsional_Energy-OPLS-2005>
206.369812011719

> <r_mmod_Improper_Torsional_Energy-OPLS-2005>
3.66827178001404

> <r_mmod_Van_der_Waal_Energy-OPLS-2005>
110.215888977051

> <r_mmod_Electrostatic_Energy-OPLS-2005>
-352.887237548828

> <r_mmod_Solvation_Energy-OPLS-2005>
-215.827575683594

> <b_mmod_Minimization_Converged-OPLS-2005>
0

> <r_mmod_RMS_Derivative-OPLS-2005>
0.268112510442734

$$$$
60
                    3D
 Structure written by MMmdl.
151159  0  0  1  0            999 V2000
  -30.5668  -14.9484   20.4296 C   0  0  0  0  0  0
  -30.4526  -12.5880   19.4970 C   0  0  0  0  0  0
  -29.5243  -12.5417   18.2594 C   0  0  0  0  0  0
  -28.0570  -12.3254   18.6776 C   0  0  0  0  0  0
  -27.6308  -13.2481   19.8492 C   0  0  2  0  0  0
  -28.6876  -13.2696   20.9812 C   0  0  0  0  0  0
  -25.2149  -13.7842   20.5529 C   0  0  0  0  0  0
  -24.1617  -13.0115   20.9278 C   0  0  0  0  0  0
  -24.6399  -11.6704   20.8841 C   0  0  0  0  0  0
  -23.9101  -10.4122   21.0444 C   0  0  0  0  0  0
  -24.3630   -9.4057   21.9229 C   0  0  0  0  0  0
  -23.6267   -8.2127   22.0778 C   0  0  0  0  0  0
  -22.4252   -8.0213   21.3550 C   0  0  0  0  0  0
  -21.9910   -9.0190   20.4649 C   0  0  0  0  0  0
  -22.7280  -10.2032   20.3067 C   0  0  0  0  0  0
  -21.6820   -6.0705   22.5285 C   0  0  0  0  0  0
  -21.3991   -6.5619   23.8216 C   0  0  0  0  0  0
  -21.3652   -5.6779   24.9182 C   0  0  0  0  0  0
  -21.6045   -4.3042   24.7235 C   0  0  0  0  0  0
  -21.8820   -3.8129   23.4357 C   0  0  0  0  0  0
  -21.9182   -4.6940   22.3410 C   0  0  0  0  0  0
  -22.7647  -13.4942   21.1913 C   0  0  0  0  0  0
  -22.1657   -4.2130   21.0987 F   0  0  0  0  0  0
  -21.5634   -3.4530   25.7750 F   0  0  0  0  0  0
  -29.9764  -13.6810   20.3914 N   0  0  0  0  0  0
  -26.2852  -12.9329   20.3318 N   0  0  0  0  0  0
  -25.9376  -11.6447   20.5890 N   0  0  0  0  0  0
  -22.0319  -12.8002   22.0531 N   0  0  0  0  0  0
  -25.2998  -15.1399   20.3453 N   0  0  0  0  0  0
  -31.7559  -15.0431   20.1123 O   0  0  0  0  0  0
  -21.6590   -6.8838   21.4246 O   0  0  0  0  0  0
  -22.3336  -14.5261   20.6758 O   0  0  0  0  0  0
  -24.6401  -31.8463   23.1896 C   0  0  0  0  0  0
  -25.9182  -32.4710   23.8282 C   0  0  1  0  0  0
  -27.2481  -27.1804   20.1443 C   0  0  0  0  0  0
  -25.5940  -33.8514   24.2201 N   0  0  0  0  0  0
  -23.4440  -30.4632   21.5340 C   0  0  2  0  0  0
  -24.8996  -28.8931   20.1131 C   0  0  0  0  0  0
  -22.7556  -29.4552   22.4874 C   0  0  0  0  0  0
  -18.0302  -28.1394   22.8477 C   0  0  0  0  0  0
  -24.1491  -36.7265   23.2643 C   0  0  0  0  0  0
  -25.9964  -30.7338   21.3827 C   0  0  0  0  0  0
  -26.0739  -29.3476   20.7258 C   0  0  0  0  0  0
  -27.2464  -28.5080   20.7238 C   0  0  0  0  0  0
  -26.0416  -26.8134   19.5025 C   0  0  0  0  0  0
  -24.8939  -27.6367   19.4879 C   0  0  0  0  0  0
  -23.6708  -29.7880   20.1549 C   0  0  0  0  0  0
  -25.4122  -36.3042   24.0317 C   0  0  1  0  0  0
  -20.5912  -28.3716   23.1245 C   0  0  2  0  0  0
  -20.6787  -26.9423   22.5406 C   0  0  0  0  0  0
  -19.5762  -26.6382   21.5212 C   0  0  0  0  0  0
  -18.1943  -26.7933   22.1623 C   0  0  0  0  0  0
  -19.1558  -28.8874   23.2853 C   0  0  0  0  0  0
  -18.9475  -30.1470   23.8877 C   0  0  0  0  0  0
  -17.6472  -30.6591   24.0560 C   0  0  0  0  0  0
  -25.9068  -34.9415   23.5068 C   0  0  0  0  0  0
  -16.5364  -29.9084   23.6335 C   0  0  0  0  0  0
  -16.7287  -28.6504   23.0354 C   0  0  0  0  0  0
  -26.4518  -31.6569   25.0712 C   0  0  0  0  0  0
  -25.3712  -31.3745   26.1412 C   0  0  0  0  0  0
  -27.0385  -30.2972   24.6268 C   0  0  0  0  0  0
  -27.6050  -32.4332   25.7498 C   0  0  0  0  0  0
  -27.5576  -37.1789   24.8465 C   0  0  0  0  0  0
  -21.4251  -29.3044   22.3621 N   0  0  0  0  0  0
  -26.4288  -37.3751   23.9406 N   0  0  0  0  0  0
  -24.7127  -31.0346   22.0913 N   0  0  0  0  0  0
  -23.4207  -28.8105   23.3023 O   0  0  0  0  0  0
  -28.3380  -26.2425   20.2070 O   0  0  0  0  0  0
  -26.5655  -34.8908   22.4647 O   0  0  0  0  0  0
  -23.5526  -32.1321   23.7134 O   0  0  0  0  0  0
  -30.7151  -18.6328   20.4241 C   0  0  0  0  0  0
  -30.4588  -20.0840   20.3451 C   0  0  0  0  0  0
  -28.1575  -19.6689   20.4726 C   0  0  0  0  0  0
  -28.3937  -18.2540   20.5633 C   0  0  0  0  0  0
  -29.6854  -17.6192   20.5365 C   0  0  0  0  0  0
  -29.1408  -20.6779   20.3591 C   0  0  0  0  0  0
  -28.1100  -24.7226   20.0536 C   0  0  0  0  0  0
  -29.1676  -23.4436   20.3089 C   0  0  0  0  0  0
  -27.1676  -17.3841   20.6187 C   0  0  0  0  0  0
  -29.7455  -16.0763   20.6688 N   0  0  0  0  0  0
  -28.6057  -22.0314   20.2331 O   0  0  0  0  0  0
  -26.0185  -18.0545   20.7283 F   0  0  0  0  0  0
  -27.1661  -16.7161   19.4644 F   0  0  0  0  0  0
  -27.2669  -16.5436   21.6507 F   0  0  0  0  0  0
  -31.4848  -12.7456   19.1805 H   0  0  0  0  0  0
  -30.4461  -11.6321   20.0232 H   0  0  0  0  0  0
  -29.8394  -11.7500   17.5784 H   0  0  0  0  0  0
  -29.6113  -13.4764   17.7032 H   0  0  0  0  0  0
  -27.9523  -11.2820   18.9771 H   0  0  0  0  0  0
  -27.3936  -12.4650   17.8233 H   0  0  0  0  0  0
  -27.5870  -14.2519   19.4302 H   0  0  0  0  0  0
  -28.7721  -12.2893   21.4524 H   0  0  0  0  0  0
  -28.3877  -13.9601   21.7708 H   0  0  0  0  0  0
  -25.2765   -9.5519   22.4822 H   0  0  0  0  0  0
  -23.9942   -7.4506   22.7500 H   0  0  0  0  0  0
  -21.0840   -8.8735   19.8950 H   0  0  0  0  0  0
  -22.3776  -10.9591   19.6179 H   0  0  0  0  0  0
  -21.1978   -7.6127   23.9714 H   0  0  0  0  0  0
  -21.1477   -6.0511   25.9085 H   0  0  0  0  0  0
  -22.0610   -2.7592   23.2864 H   0  0  0  0  0  0
  -22.3943  -11.9681   22.4942 H   0  0  0  0  0  0
  -21.0954  -13.1061   22.2762 H   0  0  0  0  0  0
  -24.4933  -15.7446   20.4414 H   0  0  0  0  0  0
  -26.0950  -15.6055   19.9232 H   0  0  0  0  0  0
  -26.7251  -32.5337   23.1020 H   0  0  0  0  0  0
  -25.0064  -33.9634   25.0333 H   0  0  0  0  0  0
  -22.7448  -31.2873   21.3779 H   0  0  0  0  0  0
  -23.3754  -35.9596   23.3296 H   0  0  0  0  0  0
  -24.3576  -36.8905   22.2059 H   0  0  0  0  0  0
  -23.7246  -37.6459   23.6684 H   0  0  0  0  0  0
  -26.1454  -31.4898   20.6106 H   0  0  0  0  0  0
  -26.8685  -30.7862   22.0228 H   0  0  0  0  0  0
  -28.1422  -28.8560   21.2188 H   0  0  0  0  0  0
  -25.9540  -25.8532   19.0176 H   0  0  0  0  0  0
  -23.9969  -27.2811   18.9996 H   0  0  0  0  0  0
  -23.8020  -30.5603   19.3962 H   0  0  0  0  0  0
  -22.7885  -29.2237   19.8475 H   0  0  0  0  0  0
  -25.1310  -36.1873   25.0810 H   0  0  0  0  0  0
  -21.0001  -28.3303   24.1367 H   0  0  0  0  0  0
  -20.5682  -26.2329   23.3622 H   0  0  0  0  0  0
  -21.6654  -26.7432   22.1205 H   0  0  0  0  0  0
  -19.6924  -25.6287   21.1255 H   0  0  0  0  0  0
  -19.6700  -27.3181   20.6733 H   0  0  0  0  0  0
  -17.4212  -26.6675   21.4027 H   0  0  0  0  0  0
  -18.0344  -26.0081   22.9025 H   0  0  0  0  0  0
  -19.7951  -30.7291   24.2238 H   0  0  0  0  0  0
  -17.5026  -31.6270   24.5165 H   0  0  0  0  0  0
  -15.5363  -30.2980   23.7671 H   0  0  0  0  0  0
  -15.8687  -28.0816   22.7080 H   0  0  0  0  0  0
  -24.5893  -30.7092   25.7731 H   0  0  0  0  0  0
  -24.8899  -32.2924   26.4798 H   0  0  0  0  0  0
  -25.8002  -30.8942   27.0215 H   0  0  0  0  0  0
  -26.2997  -29.6696   24.1272 H   0  0  0  0  0  0
  -27.4011  -29.7267   25.4829 H   0  0  0  0  0  0
  -27.8896  -30.4222   23.9571 H   0  0  0  0  0  0
  -27.2641  -33.3646   26.2031 H   0  0  0  0  0  0
  -28.3884  -32.6871   25.0345 H   0  0  0  0  0  0
  -28.0691  -31.8488   26.5452 H   0  0  0  0  0  0
  -28.2588  -38.0090   24.7507 H   0  0  0  0  0  0
  -28.1076  -36.2619   24.6297 H   0  0  0  0  0  0
  -27.2292  -37.1443   25.8867 H   0  0  0  0  0  0
  -20.9462  -29.8751   21.6794 H   0  0  0  0  0  0
  -26.0157  -38.2820   24.1405 H   0  0  0  0  0  0
  -31.7443  -18.3039   20.4015 H   0  0  0  0  0  0
  -31.3105  -20.7434   20.2537 H   0  0  0  0  0  0
  -27.1358  -20.0164   20.4750 H   0  0  0  0  0  0
  -27.2479  -24.5071   20.6858 H   0  0  0  0  0  0
  -27.7537  -24.5843   19.0331 H   0  0  0  0  0  0
  -29.6124  -23.5576   21.2976 H   0  0  0  0  0  0
  -29.9916  -23.5173   19.5991 H   0  0  0  0  0  0
  -28.8336  -15.7212   20.9216 H   0  0  0  0  0  0
  1 25  1  0  0  0
  1 30  2  0  0  0
  1 80  1  0  0  0
  2  3  1  0  0  0
  2 25  1  0  0  0
  2 85  1  0  0  0
  2 86  1  0  0  0
  3  4  1  0  0  0
  3 87  1  0  0  0
  3 88  1  0  0  0
  4  5  1  0  0  0
  4 89  1  0  0  0
  4 90  1  0  0  0
  5  6  1  0  0  0
  5 26  1  0  0  0
  5 91  1  0  0  0
  6 25  1  0  0  0
  6 92  1  0  0  0
  6 93  1  0  0  0
  7  8  2  0  0  0
  7 26  1  0  0  0
  7 29  1  0  0  0
  8  9  1  0  0  0
  8 22  1  0  0  0
  9 10  1  0  0  0
  9 27  2  0  0  0
 10 11  2  0  0  0
 10 15  1  0  0  0
 11 12  1  0  0  0
 11 94  1  0  0  0
 12 13  2  0  0  0
 12 95  1  0  0  0
 13 14  1  0  0  0
 13 31  1  0  0  0
 14 15  2  0  0  0
 14 96  1  0  0  0
 15 97  1  0  0  0
 16 17  2  0  0  0
 16 21  1  0  0  0
 16 31  1  0  0  0
 17 18  1  0  0  0
 17 98  1  0  0  0
 18 19  2  0  0  0
 18 99  1  0  0  0
 19 20  1  0  0  0
 19 24  1  0  0  0
 20 21  2  0  0  0
 20100  1  0  0  0
 21 23  1  0  0  0
 22 28  1  0  0  0
 22 32  2  0  0  0
 26 27  1  0  0  0
 28101  1  0  0  0
 28102  1  0  0  0
 29103  1  0  0  0
 29104  1  0  0  0
 33 34  1  0  0  0
 33 66  1  0  0  0
 33 70  2  0  0  0
 34 36  1  0  0  0
 34 59  1  0  0  0
 34105  1  0  0  0
 35 44  2  0  0  0
 35 45  1  0  0  0
 35 68  1  0  0  0
 36 56  1  0  0  0
 36106  1  0  0  0
 37 39  1  0  0  0
 37 47  1  0  0  0
 37 66  1  0  0  0
 37107  1  0  0  0
 38 43  2  0  0  0
 38 46  1  0  0  0
 38 47  1  0  0  0
 39 64  1  0  0  0
 39 67  2  0  0  0
 40 52  1  0  0  0
 40 53  2  0  0  0
 40 58  1  0  0  0
 41108  1  0  0  0
 41109  1  0  0  0
 41110  1  0  0  0
 41 48  1  0  0  0
 42 43  1  0  0  0
 42 66  1  0  0  0
 42111  1  0  0  0
 42112  1  0  0  0
 43 44  1  0  0  0
 44113  1  0  0  0
 45 46  2  0  0  0
 45114  1  0  0  0
 46115  1  0  0  0
 47116  1  0  0  0
 47117  1  0  0  0
 48 56  1  0  0  0
 48 65  1  0  0  0
 48118  1  0  0  0
 49 50  1  0  0  0
 49 53  1  0  0  0
 49 64  1  0  0  0
 49119  1  0  0  0
 50 51  1  0  0  0
 50120  1  0  0  0
 50121  1  0  0  0
 51 52  1  0  0  0
 51122  1  0  0  0
 51123  1  0  0  0
 52124  1  0  0  0
 52125  1  0  0  0
 53 54  1  0  0  0
 54 55  2  0  0  0
 54126  1  0  0  0
 55 57  1  0  0  0
 55127  1  0  0  0
 56 69  2  0  0  0
 57 58  2  0  0  0
 57128  1  0  0  0
 58129  1  0  0  0
 59 60  1  0  0  0
 59 61  1  0  0  0
 59 62  1  0  0  0
 60130  1  0  0  0
 60131  1  0  0  0
 60132  1  0  0  0
 61133  1  0  0  0
 61134  1  0  0  0
 61135  1  0  0  0
 62136  1  0  0  0
 62137  1  0  0  0
 62138  1  0  0  0
 63 65  1  0  0  0
 63139  1  0  0  0
 63140  1  0  0  0
 63141  1  0  0  0
 64142  1  0  0  0
 65143  1  0  0  0
 68 77  1  0  0  0
 71 72  2  0  0  0
 71 75  1  0  0  0
 71144  1  0  0  0
 72 76  1  0  0  0
 72145  1  0  0  0
 73 74  1  0  0  0
 73 76  2  0  0  0
 73146  1  0  0  0
 74 75  2  0  0  0
 74 79  1  0  0  0
 75 80  1  0  0  0
 76 81  1  0  0  0
 77 78  1  0  0  0
 77147  1  0  0  0
 77148  1  0  0  0
 78 81  1  0  0  0
 78149  1  0  0  0
 78150  1  0  0  0
 79 82  1  0  0  0
 79 83  1  0  0  0
 79 84  1  0  0  0
 80151  1  0  0  0
M  ISO  4   1 100  68 101  77 101  80 100
M  END
> <chiral flag>
0

> <version>
0

> <s_m_source_file>
/data/baiqing/PycharmProjects/Reinvent-master-3.2/result/LINK_invent/BTK/process_docking_weight1_custom_sum_contain_oxygen_bond_distance_aromatic_linkinvent_7_9_3/rearranged_h_0002.sdf

> <i_m_source_file_index>
61

> <r_mmod_Potential_Energy-OPLS-2005>
538.246337890625

> <r_mmod_Stretch_Energy-OPLS-2005>
216.128479003906

> <r_mmod_Bend_Energy-OPLS-2005>
325.98876953125

> <r_mmod_Torsional_Energy-OPLS-2005>
211.893157958984

> <r_mmod_Improper_Torsional_Energy-OPLS-2005>
4.37540292739868

> <r_mmod_Van_der_Waal_Energy-OPLS-2005>
155.447189331055

> <r_mmod_Electrostatic_Energy-OPLS-2005>
-352.946258544922

> <r_mmod_Solvation_Energy-OPLS-2005>
-196.763809204102

> <b_mmod_Minimization_Converged-OPLS-2005>
0

> <r_mmod_RMS_Derivative-OPLS-2005>
0.219836577773094

$$$$
61
                    3D
 Structure written by MMmdl.
141149  0  0  1  0            999 V2000
  -30.0996  -16.1278   20.2933 C   0  0  0  0  0  0
  -30.3832  -13.4557   19.5445 C   0  0  0  0  0  0
  -29.5696  -12.7948   18.3771 C   0  0  0  0  0  0
  -28.1854  -12.3278   18.8420 C   0  0  0  0  0  0
  -27.5827  -13.3611   19.8112 C   0  0  2  0  0  0
  -28.5622  -13.8923   20.8994 C   0  0  0  0  0  0
  -25.2245  -13.8357   20.5865 C   0  0  0  0  0  0
  -24.1689  -13.0438   20.9319 C   0  0  0  0  0  0
  -24.6462  -11.6972   20.8754 C   0  0  0  0  0  0
  -23.9169  -10.4299   21.0373 C   0  0  0  0  0  0
  -24.3683   -9.4212   21.9167 C   0  0  0  0  0  0
  -23.6331   -8.2259   22.0753 C   0  0  0  0  0  0
  -22.4310   -8.0298   21.3547 C   0  0  0  0  0  0
  -21.9965   -9.0272   20.4641 C   0  0  0  0  0  0
  -22.7323  -10.2138   20.3037 C   0  0  0  0  0  0
  -21.6863   -6.0749   22.5279 C   0  0  0  0  0  0
  -21.4021   -6.5648   23.8213 C   0  0  0  0  0  0
  -21.3666   -5.6796   24.9172 C   0  0  0  0  0  0
  -21.6044   -4.3058   24.7219 C   0  0  0  0  0  0
  -21.8817   -3.8155   23.4339 C   0  0  0  0  0  0
  -21.9196   -4.6974   22.3397 C   0  0  0  0  0  0
  -22.7687  -13.5129   21.1931 C   0  0  0  0  0  0
  -22.1664   -4.2159   21.0974 F   0  0  0  0  0  0
  -21.5628   -3.4539   25.7732 F   0  0  0  0  0  0
  -29.6522  -14.6704   20.2170 N   0  0  0  0  0  0
  -26.2765  -12.9795   20.3316 N   0  0  0  0  0  0
  -25.9436  -11.6806   20.5676 N   0  0  0  0  0  0
  -22.0364  -12.8097   22.0484 N   0  0  0  0  0  0
  -25.3740  -15.2107   20.4305 N   0  0  0  0  0  0
  -31.3470  -16.0009   20.1853 O   0  0  0  0  0  0
  -21.6658   -6.8903   21.4246 O   0  0  0  0  0  0
  -22.3347  -14.5416   20.6758 O   0  0  0  0  0  0
  -24.7147  -31.7601   23.1231 C   0  0  0  0  0  0
  -25.9565  -32.4273   23.7902 C   0  0  1  0  0  0
  -27.2411  -26.3562   20.2530 C   0  0  0  0  0  0
  -25.6001  -33.8119   24.1750 N   0  0  0  0  0  0
  -23.5566  -30.3453   21.4856 C   0  0  2  0  0  0
  -25.0164  -28.6102   20.1314 C   0  0  0  0  0  0
  -22.7905  -29.4094   22.4624 C   0  0  0  0  0  0
  -18.0356  -28.1437   22.8437 C   0  0  0  0  0  0
  -24.1501  -36.7082   23.2668 C   0  0  0  0  0  0
  -26.1487  -30.3764   21.4420 C   0  0  0  0  0  0
  -26.2080  -28.9009   20.8041 C   0  0  0  0  0  0
  -27.2841  -27.8129   20.8239 C   0  0  0  0  0  0
  -26.0167  -26.3654   19.5087 C   0  0  0  0  0  0
  -24.9800  -27.3714   19.4593 C   0  0  0  0  0  0
  -23.8300  -29.6091   20.1365 C   0  0  0  0  0  0
  -25.4169  -36.2789   24.0255 C   0  0  1  0  0  0
  -20.6007  -28.3810   23.1083 C   0  0  2  0  0  0
  -20.6807  -26.9438   22.5414 C   0  0  0  0  0  0
  -19.5789  -26.6357   21.5225 C   0  0  0  0  0  0
  -18.1968  -26.7959   22.1612 C   0  0  0  0  0  0
  -19.1629  -28.8956   23.2733 C   0  0  0  0  0  0
  -18.9530  -30.1532   23.8794 C   0  0  0  0  0  0
  -17.6516  -30.6612   24.0543 C   0  0  0  0  0  0
  -25.9156  -34.9182   23.4868 C   0  0  0  0  0  0
  -16.5404  -29.9088   23.6357 C   0  0  0  0  0  0
  -16.7334  -28.6513   23.0371 C   0  0  0  0  0  0
  -26.4638  -31.6462   25.0672 C   0  0  0  0  0  0
  -25.3607  -31.3859   26.1213 C   0  0  0  0  0  0
  -27.0643  -30.2773   24.6824 C   0  0  0  0  0  0
  -27.6007  -32.4417   25.7520 C   0  0  0  0  0  0
  -27.5540  -37.1728   24.8486 C   0  0  0  0  0  0
  -21.4524  -29.2991   22.3368 N   0  0  0  0  0  0
  -26.4284  -37.3568   23.9365 N   0  0  0  0  0  0
  -24.8344  -30.8695   22.0684 N   0  0  0  0  0  0
  -23.4191  -28.7753   23.3124 O   0  0  0  0  0  0
  -28.2116  -25.0178   20.2791 O   0  0  0  0  0  0
  -26.5849  -34.8821   22.4520 O   0  0  0  0  0  0
  -23.6097  -32.0834   23.5976 O   0  0  0  0  0  0
  -27.8539  -20.4015   20.2893 C   0  0  0  0  0  0
  -29.9276  -20.7736   20.2908 C   0  0  0  0  0  0
  -27.5458  -21.9724   20.2784 C   0  0  0  0  0  0
  -29.6166  -22.3428   20.2816 C   0  0  0  0  0  0
  -29.0980  -19.4718   20.2969 C   0  0  0  0  0  0
  -28.3753  -23.2749   20.2716 C   0  0  0  0  0  0
  -29.2921  -17.5943   20.3134 N   0  0  0  0  0  0
  -31.3311  -13.7934   19.1249 H   0  0  0  0  0  0
  -30.6705  -12.7078   20.2857 H   0  0  0  0  0  0
  -30.1256  -11.9610   17.9465 H   0  0  0  0  0  0
  -29.4494  -13.5270   17.5771 H   0  0  0  0  0  0
  -28.3016  -11.3740   19.3587 H   0  0  0  0  0  0
  -27.5262  -12.1465   17.9919 H   0  0  0  0  0  0
  -27.3825  -14.2170   19.1644 H   0  0  0  0  0  0
  -28.9318  -13.0918   21.5423 H   0  0  0  0  0  0
  -28.0358  -14.5789   21.5634 H   0  0  0  0  0  0
  -25.2821   -9.5683   22.4758 H   0  0  0  0  0  0
  -24.0025   -7.4656   22.7486 H   0  0  0  0  0  0
  -21.0895   -8.8805   19.8951 H   0  0  0  0  0  0
  -22.3780  -10.9677   19.6148 H   0  0  0  0  0  0
  -21.2017   -7.6156   23.9718 H   0  0  0  0  0  0
  -21.1490   -6.0526   25.9075 H   0  0  0  0  0  0
  -22.0589   -2.7617   23.2831 H   0  0  0  0  0  0
  -22.4022  -11.9785   22.4892 H   0  0  0  0  0  0
  -21.0962  -13.1075   22.2674 H   0  0  0  0  0  0
  -24.5949  -15.8513   20.5382 H   0  0  0  0  0  0
  -26.2098  -15.6569   20.0781 H   0  0  0  0  0  0
  -26.7685  -32.4663   23.0638 H   0  0  0  0  0  0
  -24.9993  -33.9100   24.9802 H   0  0  0  0  0  0
  -22.9021  -31.1913   21.2657 H   0  0  0  0  0  0
  -23.3742  -35.9441   23.3374 H   0  0  0  0  0  0
  -24.3519  -36.8715   22.2071 H   0  0  0  0  0  0
  -23.7322  -37.6292   23.6744 H   0  0  0  0  0  0
  -26.3855  -31.0740   20.6379 H   0  0  0  0  0  0
  -26.9883  -30.4591   22.1188 H   0  0  0  0  0  0
  -28.1784  -28.0601   21.3779 H   0  0  0  0  0  0
  -25.8044  -25.4574   18.9621 H   0  0  0  0  0  0
  -24.0936  -27.1355   18.8860 H   0  0  0  0  0  0
  -24.0356  -30.3537   19.3665 H   0  0  0  0  0  0
  -22.9277  -29.0941   19.8030 H   0  0  0  0  0  0
  -25.1411  -36.1524   25.0751 H   0  0  0  0  0  0
  -21.0073  -28.3463   24.1218 H   0  0  0  0  0  0
  -20.5637  -26.2445   23.3707 H   0  0  0  0  0  0
  -21.6667  -26.7330   22.1256 H   0  0  0  0  0  0
  -19.6941  -25.6237   21.1326 H   0  0  0  0  0  0
  -19.6747  -27.3107   20.6708 H   0  0  0  0  0  0
  -17.4245  -26.6704   21.4009 H   0  0  0  0  0  0
  -18.0340  -26.0130   22.9031 H   0  0  0  0  0  0
  -19.8008  -30.7368   24.2125 H   0  0  0  0  0  0
  -17.5067  -31.6281   24.5164 H   0  0  0  0  0  0
  -15.5400  -30.2957   23.7741 H   0  0  0  0  0  0
  -15.8735  -28.0797   22.7144 H   0  0  0  0  0  0
  -24.5907  -30.7077   25.7514 H   0  0  0  0  0  0
  -24.8662  -32.3090   26.4247 H   0  0  0  0  0  0
  -25.7713  -30.9314   27.0239 H   0  0  0  0  0  0
  -26.3429  -29.6270   24.1870 H   0  0  0  0  0  0
  -27.3992  -29.7365   25.5687 H   0  0  0  0  0  0
  -27.9429  -30.3834   24.0461 H   0  0  0  0  0  0
  -27.2488  -33.3825   26.1763 H   0  0  0  0  0  0
  -28.3987  -32.6813   25.0480 H   0  0  0  0  0  0
  -28.0494  -31.8786   26.5714 H   0  0  0  0  0  0
  -28.2600  -37.9970   24.7386 H   0  0  0  0  0  0
  -28.0989  -36.2482   24.6520 H   0  0  0  0  0  0
  -27.2218  -37.1608   25.8881 H   0  0  0  0  0  0
  -20.9907  -29.8597   21.6342 H   0  0  0  0  0  0
  -26.0093  -38.2628   24.1276 H   0  0  0  0  0  0
  -26.9376  -19.8287   20.2921 H   0  0  0  0  0  0
  -30.9898  -20.5739   20.2960 H   0  0  0  0  0  0
  -26.4844  -22.1755   20.2789 H   0  0  0  0  0  0
  -30.5307  -22.9191   20.2872 H   0  0  0  0  0  0
  -28.3439  -17.2471   20.3493 H   0  0  0  0  0  0
  1 25  1  0  0  0
  1 30  2  0  0  0
  1 77  1  0  0  0
  2  3  1  0  0  0
  2 25  1  0  0  0
  2 78  1  0  0  0
  2 79  1  0  0  0
  3  4  1  0  0  0
  3 80  1  0  0  0
  3 81  1  0  0  0
  4  5  1  0  0  0
  4 82  1  0  0  0
  4 83  1  0  0  0
  5  6  1  0  0  0
  5 26  1  0  0  0
  5 84  1  0  0  0
  6 25  1  0  0  0
  6 85  1  0  0  0
  6 86  1  0  0  0
  7  8  2  0  0  0
  7 26  1  0  0  0
  7 29  1  0  0  0
  8  9  1  0  0  0
  8 22  1  0  0  0
  9 10  1  0  0  0
  9 27  2  0  0  0
 10 11  2  0  0  0
 10 15  1  0  0  0
 11 12  1  0  0  0
 11 87  1  0  0  0
 12 13  2  0  0  0
 12 88  1  0  0  0
 13 14  1  0  0  0
 13 31  1  0  0  0
 14 15  2  0  0  0
 14 89  1  0  0  0
 15 90  1  0  0  0
 16 17  2  0  0  0
 16 21  1  0  0  0
 16 31  1  0  0  0
 17 18  1  0  0  0
 17 91  1  0  0  0
 18 19  2  0  0  0
 18 92  1  0  0  0
 19 20  1  0  0  0
 19 24  1  0  0  0
 20 21  2  0  0  0
 20 93  1  0  0  0
 21 23  1  0  0  0
 22 28  1  0  0  0
 22 32  2  0  0  0
 26 27  1  0  0  0
 28 94  1  0  0  0
 28 95  1  0  0  0
 29 96  1  0  0  0
 29 97  1  0  0  0
 33 34  1  0  0  0
 33 66  1  0  0  0
 33 70  2  0  0  0
 34 36  1  0  0  0
 34 59  1  0  0  0
 34 98  1  0  0  0
 35 44  2  0  0  0
 35 45  1  0  0  0
 35 68  1  0  0  0
 36 56  1  0  0  0
 36 99  1  0  0  0
 37 39  1  0  0  0
 37 47  1  0  0  0
 37 66  1  0  0  0
 37100  1  0  0  0
 38 43  2  0  0  0
 38 46  1  0  0  0
 38 47  1  0  0  0
 39 64  1  0  0  0
 39 67  2  0  0  0
 40 52  1  0  0  0
 40 53  2  0  0  0
 40 58  1  0  0  0
 41101  1  0  0  0
 41102  1  0  0  0
 41103  1  0  0  0
 41 48  1  0  0  0
 42 43  1  0  0  0
 42 66  1  0  0  0
 42104  1  0  0  0
 42105  1  0  0  0
 43 44  1  0  0  0
 44106  1  0  0  0
 45 46  2  0  0  0
 45107  1  0  0  0
 46108  1  0  0  0
 47109  1  0  0  0
 47110  1  0  0  0
 48 56  1  0  0  0
 48 65  1  0  0  0
 48111  1  0  0  0
 49 50  1  0  0  0
 49 53  1  0  0  0
 49 64  1  0  0  0
 49112  1  0  0  0
 50 51  1  0  0  0
 50113  1  0  0  0
 50114  1  0  0  0
 51 52  1  0  0  0
 51115  1  0  0  0
 51116  1  0  0  0
 52117  1  0  0  0
 52118  1  0  0  0
 53 54  1  0  0  0
 54 55  2  0  0  0
 54119  1  0  0  0
 55 57  1  0  0  0
 55120  1  0  0  0
 56 69  2  0  0  0
 57 58  2  0  0  0
 57121  1  0  0  0
 58122  1  0  0  0
 59 60  1  0  0  0
 59 61  1  0  0  0
 59 62  1  0  0  0
 60123  1  0  0  0
 60124  1  0  0  0
 60125  1  0  0  0
 61126  1  0  0  0
 61127  1  0  0  0
 61128  1  0  0  0
 62129  1  0  0  0
 62130  1  0  0  0
 62131  1  0  0  0
 63 65  1  0  0  0
 63132  1  0  0  0
 63133  1  0  0  0
 63134  1  0  0  0
 64135  1  0  0  0
 65136  1  0  0  0
 68 76  1  0  0  0
 71 73  2  0  0  0
 71 75  1  0  0  0
 71137  1  0  0  0
 72 74  1  0  0  0
 72 75  2  0  0  0
 72138  1  0  0  0
 73 76  1  0  0  0
 73139  1  0  0  0
 74 76  2  0  0  0
 74140  1  0  0  0
 75 77  1  0  0  0
 77141  1  0  0  0
M  ISO  4   1 100  68 101  76 101  77 100
M  END
> <chiral flag>
0

> <version>
0

> <s_m_source_file>
/data/baiqing/PycharmProjects/Reinvent-master-3.2/result/LINK_invent/BTK/process_docking_weight1_custom_sum_contain_oxygen_bond_distance_aromatic_linkinvent_7_9_3/rearranged_h_0002.sdf

> <i_m_source_file_index>
62

> <r_mmod_Potential_Energy-OPLS-2005>
4197.39111328125

> <r_mmod_Stretch_Energy-OPLS-2005>
1611.42260742188

> <r_mmod_Bend_Energy-OPLS-2005>
1018.25030517578

> <r_mmod_Torsional_Energy-OPLS-2005>
213.763397216797

> <r_mmod_Improper_Torsional_Energy-OPLS-2005>
4.01581335067749

> <r_mmod_Van_der_Waal_Energy-OPLS-2005>
144.880767822266

> <r_mmod_Electrostatic_Energy-OPLS-2005>
-354.25341796875

> <r_mmod_Solvation_Energy-OPLS-2005>
-218.535690307617

> <b_mmod_Minimization_Converged-OPLS-2005>
0

> <r_mmod_RMS_Derivative-OPLS-2005>
0.799303591251373

$$$$
62
                    3D
 Structure written by MMmdl.
144152  0  0  1  0            999 V2000
  -30.2491  -15.7690   20.3185 C   0  0  0  0  0  0
  -30.4165  -13.1824   19.5389 C   0  0  0  0  0  0
  -29.5561  -12.6883   18.3366 C   0  0  0  0  0  0
  -28.1400  -12.3025   18.7870 C   0  0  0  0  0  0
  -27.5914  -13.3204   19.8100 C   0  0  2  0  0  0
  -28.5996  -13.7101   20.9197 C   0  0  0  0  0  0
  -25.2302  -13.8299   20.5812 C   0  0  0  0  0  0
  -24.1705  -13.0432   20.9298 C   0  0  0  0  0  0
  -24.6425  -11.6949   20.8764 C   0  0  0  0  0  0
  -23.9129  -10.4292   21.0393 C   0  0  0  0  0  0
  -24.3660   -9.4205   21.9178 C   0  0  0  0  0  0
  -23.6316   -8.2248   22.0754 C   0  0  0  0  0  0
  -22.4296   -8.0290   21.3545 C   0  0  0  0  0  0
  -21.9945   -9.0266   20.4644 C   0  0  0  0  0  0
  -22.7293  -10.2135   20.3047 C   0  0  0  0  0  0
  -21.6860   -6.0742   22.5279 C   0  0  0  0  0  0
  -21.4020   -6.5644   23.8213 C   0  0  0  0  0  0
  -21.3660   -5.6795   24.9174 C   0  0  0  0  0  0
  -21.6043   -4.3057   24.7223 C   0  0  0  0  0  0
  -21.8818   -3.8151   23.4344 C   0  0  0  0  0  0
  -21.9195   -4.6969   22.3401 C   0  0  0  0  0  0
  -22.7713  -13.5153   21.1928 C   0  0  0  0  0  0
  -22.1662   -4.2154   21.0979 F   0  0  0  0  0  0
  -21.5627   -3.4540   25.7735 F   0  0  0  0  0  0
  -29.7500  -14.3765   20.2532 N   0  0  0  0  0  0
  -26.2766  -12.9654   20.3247 N   0  0  0  0  0  0
  -25.9376  -11.6711   20.5692 N   0  0  0  0  0  0
  -22.0381  -12.8128   22.0480 N   0  0  0  0  0  0
  -25.3868  -15.2043   20.4253 N   0  0  0  0  0  0
  -31.4896  -15.6885   20.1870 O   0  0  0  0  0  0
  -21.6650   -6.8891   21.4243 O   0  0  0  0  0  0
  -22.3385  -14.5450   20.6762 O   0  0  0  0  0  0
  -24.6936  -31.7881   23.1428 C   0  0  0  0  0  0
  -25.9467  -32.4408   23.8014 C   0  0  1  0  0  0
  -27.2314  -26.6000   20.2259 C   0  0  0  0  0  0
  -25.6003  -33.8239   24.1889 N   0  0  0  0  0  0
  -23.5248  -30.3852   21.4992 C   0  0  2  0  0  0
  -24.9837  -28.7043   20.1217 C   0  0  0  0  0  0
  -22.7812  -29.4252   22.4682 C   0  0  0  0  0  0
  -18.0345  -28.1427   22.8448 C   0  0  0  0  0  0
  -24.1496  -36.7128   23.2656 C   0  0  0  0  0  0
  -26.1099  -30.4873   21.4229 C   0  0  0  0  0  0
  -26.1749  -29.0406   20.7752 C   0  0  0  0  0  0
  -27.2793  -28.0201   20.7903 C   0  0  0  0  0  0
  -26.0052  -26.4991   19.5134 C   0  0  0  0  0  0
  -24.9440  -27.4606   19.4663 C   0  0  0  0  0  0
  -23.7849  -29.6724   20.1393 C   0  0  0  0  0  0
  -25.4150  -36.2860   24.0273 C   0  0  1  0  0  0
  -20.5986  -28.3792   23.1121 C   0  0  2  0  0  0
  -20.6806  -26.9441   22.5405 C   0  0  0  0  0  0
  -19.5784  -26.6367   21.5217 C   0  0  0  0  0  0
  -18.1967  -26.7952   22.1618 C   0  0  0  0  0  0
  -19.1614  -28.8936   23.2762 C   0  0  0  0  0  0
  -18.9518  -30.1517   23.8813 C   0  0  0  0  0  0
  -17.6507  -30.6607   24.0547 C   0  0  0  0  0  0
  -25.9137  -34.9253   23.4926 C   0  0  0  0  0  0
  -16.5395  -29.9086   23.6353 C   0  0  0  0  0  0
  -16.7324  -28.6509   23.0369 C   0  0  0  0  0  0
  -26.4611  -31.6488   25.0681 C   0  0  0  0  0  0
  -25.3648  -31.3836   26.1276 C   0  0  0  0  0  0
  -27.0562  -30.2813   24.6660 C   0  0  0  0  0  0
  -27.6036  -32.4377   25.7508 C   0  0  0  0  0  0
  -27.5560  -37.1721   24.8466 C   0  0  0  0  0  0
  -21.4449  -29.3019   22.3429 N   0  0  0  0  0  0
  -26.4267  -37.3633   23.9406 N   0  0  0  0  0  0
  -24.8007  -30.9224   22.0738 N   0  0  0  0  0  0
  -23.4206  -28.7870   23.3076 O   0  0  0  0  0  0
  -28.1813  -25.3340   20.2925 O   0  0  0  0  0  0
  -26.5793  -34.8851   22.4554 O   0  0  0  0  0  0
  -23.5932  -32.1003   23.6316 O   0  0  0  0  0  0
  -31.2233  -20.8510   20.4443 C   0  0  0  0  0  0
  -30.3278  -21.9742   20.3863 C   0  0  0  0  0  0
  -30.8973  -19.4510   20.4170 C   0  0  0  0  0  0
  -28.6498  -20.2656   20.2683 C   0  0  0  0  0  0
  -28.9175  -21.8849   20.2883 C   0  0  0  0  0  0
  -29.5860  -18.9200   20.3295 C   0  0  0  0  0  0
  -27.9553  -23.5403   20.1946 C   0  0  0  0  0  0
  -29.4678  -17.1584   20.3338 N   0  0  0  0  0  0
  -31.3972  -13.4683   19.1574 H   0  0  0  0  0  0
  -30.6150  -12.3654   20.2348 H   0  0  0  0  0  0
  -30.0382  -11.8449   17.8404 H   0  0  0  0  0  0
  -29.4933  -13.4857   17.5947 H   0  0  0  0  0  0
  -28.1920  -11.3161   19.2495 H   0  0  0  0  0  0
  -27.4721  -12.2092   17.9298 H   0  0  0  0  0  0
  -27.4353  -14.2232   19.2177 H   0  0  0  0  0  0
  -28.8922  -12.8505   21.5245 H   0  0  0  0  0  0
  -28.1402  -14.4228   21.6061 H   0  0  0  0  0  0
  -25.2799   -9.5677   22.4764 H   0  0  0  0  0  0
  -24.0015   -7.4641   22.7480 H   0  0  0  0  0  0
  -21.0874   -8.8796   19.8951 H   0  0  0  0  0  0
  -22.3752  -10.9677   19.6160 H   0  0  0  0  0  0
  -21.2015   -7.6152   23.9718 H   0  0  0  0  0  0
  -21.1481   -6.0525   25.9077 H   0  0  0  0  0  0
  -22.0595   -2.7612   23.2843 H   0  0  0  0  0  0
  -22.4028  -11.9810   22.4881 H   0  0  0  0  0  0
  -21.0984  -13.1116   22.2673 H   0  0  0  0  0  0
  -24.6121  -15.8494   20.5375 H   0  0  0  0  0  0
  -26.2233  -15.6482   20.0710 H   0  0  0  0  0  0
  -26.7560  -32.4853   23.0732 H   0  0  0  0  0  0
  -25.0040  -33.9259   24.9969 H   0  0  0  0  0  0
  -22.8560  -31.2251   21.3001 H   0  0  0  0  0  0
  -23.3778  -35.9436   23.3259 H   0  0  0  0  0  0
  -24.3559  -36.8857   22.2082 H   0  0  0  0  0  0
  -23.7237  -37.6279   23.6781 H   0  0  0  0  0  0
  -26.3235  -31.2052   20.6299 H   0  0  0  0  0  0
  -26.9566  -30.5591   22.0929 H   0  0  0  0  0  0
  -28.1740  -28.2884   21.3341 H   0  0  0  0  0  0
  -25.8210  -25.5639   19.0038 H   0  0  0  0  0  0
  -24.0480  -27.1923   18.9234 H   0  0  0  0  0  0
  -23.9691  -30.4280   19.3747 H   0  0  0  0  0  0
  -22.8876  -29.1444   19.8122 H   0  0  0  0  0  0
  -25.1366  -36.1607   25.0763 H   0  0  0  0  0  0
  -21.0064  -28.3426   24.1249 H   0  0  0  0  0  0
  -20.5660  -26.2419   23.3677 H   0  0  0  0  0  0
  -21.6666  -26.7367   22.1230 H   0  0  0  0  0  0
  -19.6938  -25.6255   21.1303 H   0  0  0  0  0  0
  -19.6730  -27.3129   20.6710 H   0  0  0  0  0  0
  -17.4236  -26.6693   21.4021 H   0  0  0  0  0  0
  -18.0352  -26.0116   22.9034 H   0  0  0  0  0  0
  -19.7994  -30.7354   24.2146 H   0  0  0  0  0  0
  -17.5057  -31.6278   24.5166 H   0  0  0  0  0  0
  -15.5392  -30.2961   23.7726 H   0  0  0  0  0  0
  -15.8725  -28.0800   22.7132 H   0  0  0  0  0  0
  -24.5864  -30.7155   25.7572 H   0  0  0  0  0  0
  -24.8806  -32.3067   26.4469 H   0  0  0  0  0  0
  -25.7799  -30.9150   27.0207 H   0  0  0  0  0  0
  -26.3300  -29.6394   24.1665 H   0  0  0  0  0  0
  -27.3958  -29.7305   25.5442 H   0  0  0  0  0  0
  -27.9292  -30.3914   24.0226 H   0  0  0  0  0  0
  -27.2557  -33.3759   26.1844 H   0  0  0  0  0  0
  -28.3970  -32.6810   25.0429 H   0  0  0  0  0  0
  -28.0570  -31.8672   26.5625 H   0  0  0  0  0  0
  -28.2540  -38.0050   24.7512 H   0  0  0  0  0  0
  -28.1093  -36.2570   24.6297 H   0  0  0  0  0  0
  -27.2273  -37.1358   25.8868 H   0  0  0  0  0  0
  -20.9779  -29.8658   21.6465 H   0  0  0  0  0  0
  -26.0084  -38.2675   24.1421 H   0  0  0  0  0  0
  -32.2755  -21.0887   20.5173 H   0  0  0  0  0  0
  -30.7626  -22.9641   20.4154 H   0  0  0  0  0  0
  -31.7198  -18.7513   20.4730 H   0  0  0  0  0  0
  -27.5975  -20.0310   20.1940 H   0  0  0  0  0  0
  -27.1705  -23.3778   20.9334 H   0  0  0  0  0  0
  -27.4334  -23.4350   19.2435 H   0  0  0  0  0  0
  -28.4908  -16.9030   20.3508 H   0  0  0  0  0  0
  1 25  1  0  0  0
  1 30  2  0  0  0
  1 78  1  0  0  0
  2  3  1  0  0  0
  2 25  1  0  0  0
  2 79  1  0  0  0
  2 80  1  0  0  0
  3  4  1  0  0  0
  3 81  1  0  0  0
  3 82  1  0  0  0
  4  5  1  0  0  0
  4 83  1  0  0  0
  4 84  1  0  0  0
  5  6  1  0  0  0
  5 26  1  0  0  0
  5 85  1  0  0  0
  6 25  1  0  0  0
  6 86  1  0  0  0
  6 87  1  0  0  0
  7  8  2  0  0  0
  7 26  1  0  0  0
  7 29  1  0  0  0
  8  9  1  0  0  0
  8 22  1  0  0  0
  9 10  1  0  0  0
  9 27  2  0  0  0
 10 11  2  0  0  0
 10 15  1  0  0  0
 11 12  1  0  0  0
 11 88  1  0  0  0
 12 13  2  0  0  0
 12 89  1  0  0  0
 13 14  1  0  0  0
 13 31  1  0  0  0
 14 15  2  0  0  0
 14 90  1  0  0  0
 15 91  1  0  0  0
 16 17  2  0  0  0
 16 21  1  0  0  0
 16 31  1  0  0  0
 17 18  1  0  0  0
 17 92  1  0  0  0
 18 19  2  0  0  0
 18 93  1  0  0  0
 19 20  1  0  0  0
 19 24  1  0  0  0
 20 21  2  0  0  0
 20 94  1  0  0  0
 21 23  1  0  0  0
 22 28  1  0  0  0
 22 32  2  0  0  0
 26 27  1  0  0  0
 28 95  1  0  0  0
 28 96  1  0  0  0
 29 97  1  0  0  0
 29 98  1  0  0  0
 33 34  1  0  0  0
 33 66  1  0  0  0
 33 70  2  0  0  0
 34 36  1  0  0  0
 34 59  1  0  0  0
 34 99  1  0  0  0
 35 44  2  0  0  0
 35 45  1  0  0  0
 35 68  1  0  0  0
 36 56  1  0  0  0
 36100  1  0  0  0
 37 39  1  0  0  0
 37 47  1  0  0  0
 37 66  1  0  0  0
 37101  1  0  0  0
 38 43  2  0  0  0
 38 46  1  0  0  0
 38 47  1  0  0  0
 39 64  1  0  0  0
 39 67  2  0  0  0
 40 52  1  0  0  0
 40 53  2  0  0  0
 40 58  1  0  0  0
 41102  1  0  0  0
 41103  1  0  0  0
 41104  1  0  0  0
 41 48  1  0  0  0
 42 43  1  0  0  0
 42 66  1  0  0  0
 42105  1  0  0  0
 42106  1  0  0  0
 43 44  1  0  0  0
 44107  1  0  0  0
 45 46  2  0  0  0
 45108  1  0  0  0
 46109  1  0  0  0
 47110  1  0  0  0
 47111  1  0  0  0
 48 56  1  0  0  0
 48 65  1  0  0  0
 48112  1  0  0  0
 49 50  1  0  0  0
 49 53  1  0  0  0
 49 64  1  0  0  0
 49113  1  0  0  0
 50 51  1  0  0  0
 50114  1  0  0  0
 50115  1  0  0  0
 51 52  1  0  0  0
 51116  1  0  0  0
 51117  1  0  0  0
 52118  1  0  0  0
 52119  1  0  0  0
 53 54  1  0  0  0
 54 55  2  0  0  0
 54120  1  0  0  0
 55 57  1  0  0  0
 55121  1  0  0  0
 56 69  2  0  0  0
 57 58  2  0  0  0
 57122  1  0  0  0
 58123  1  0  0  0
 59 60  1  0  0  0
 59 61  1  0  0  0
 59 62  1  0  0  0
 60124  1  0  0  0
 60125  1  0  0  0
 60126  1  0  0  0
 61127  1  0  0  0
 61128  1  0  0  0
 61129  1  0  0  0
 62130  1  0  0  0
 62131  1  0  0  0
 62132  1  0  0  0
 63 65  1  0  0  0
 63133  1  0  0  0
 63134  1  0  0  0
 63135  1  0  0  0
 64136  1  0  0  0
 65137  1  0  0  0
 68 77  1  0  0  0
 71 72  2  0  0  0
 71 73  1  0  0  0
 71138  1  0  0  0
 72 75  1  0  0  0
 72139  1  0  0  0
 73 76  2  0  0  0
 73140  1  0  0  0
 74 75  2  0  0  0
 74 76  1  0  0  0
 74141  1  0  0  0
 75 77  1  0  0  0
 76 78  1  0  0  0
 77142  1  0  0  0
 77143  1  0  0  0
 78144  1  0  0  0
M  ISO  4   1 100  68 101  77 101  78 100
M  END
> <chiral flag>
0

> <version>
0

> <s_m_source_file>
/data/baiqing/PycharmProjects/Reinvent-master-3.2/result/LINK_invent/BTK/process_docking_weight1_custom_sum_contain_oxygen_bond_distance_aromatic_linkinvent_7_9_3/rearranged_h_0002.sdf

> <i_m_source_file_index>
63

> <r_mmod_Potential_Energy-OPLS-2005>
2813.380859375

> <r_mmod_Stretch_Energy-OPLS-2005>
1256.92761230469

> <r_mmod_Bend_Energy-OPLS-2005>
641.894226074219

> <r_mmod_Torsional_Energy-OPLS-2005>
222.88850402832

> <r_mmod_Improper_Torsional_Energy-OPLS-2005>
4.12787246704102

> <r_mmod_Van_der_Waal_Energy-OPLS-2005>
126.438247680664

> <r_mmod_Electrostatic_Energy-OPLS-2005>
-346.341064453125

> <r_mmod_Solvation_Energy-OPLS-2005>
-213.760787963867

> <b_mmod_Minimization_Converged-OPLS-2005>
0

> <r_mmod_RMS_Derivative-OPLS-2005>
0.157229289412498

$$$$
63
                    3D
 Structure written by MMmdl.
153161  0  0  1  0            999 V2000
  -30.6861  -14.5378   20.4858 C   0  0  0  0  0  0
  -30.4144  -12.3173   19.4522 C   0  0  0  0  0  0
  -29.5017  -12.4935   18.2192 C   0  0  0  0  0  0
  -28.0208  -12.3578   18.6238 C   0  0  0  0  0  0
  -27.6554  -13.2162   19.8646 C   0  0  2  0  0  0
  -28.6986  -13.0551   20.9956 C   0  0  0  0  0  0
  -25.2556  -13.8179   20.5683 C   0  0  0  0  0  0
  -24.1818  -13.0435   20.9187 C   0  0  0  0  0  0
  -24.6390  -11.6911   20.8722 C   0  0  0  0  0  0
  -23.9050  -10.4298   21.0379 C   0  0  0  0  0  0
  -24.3609   -9.4221   21.9161 C   0  0  0  0  0  0
  -23.6296   -8.2249   22.0737 C   0  0  0  0  0  0
  -22.4279   -8.0273   21.3532 C   0  0  0  0  0  0
  -21.9906   -9.0240   20.4631 C   0  0  0  0  0  0
  -22.7222  -10.2127   20.3036 C   0  0  0  0  0  0
  -21.6860   -6.0728   22.5283 C   0  0  0  0  0  0
  -21.4018   -6.5635   23.8214 C   0  0  0  0  0  0
  -21.3667   -5.6793   24.9179 C   0  0  0  0  0  0
  -21.6037   -4.3055   24.7232 C   0  0  0  0  0  0
  -21.8822   -3.8143   23.4356 C   0  0  0  0  0  0
  -21.9195   -4.6957   22.3407 C   0  0  0  0  0  0
  -22.7837  -13.5207   21.1861 C   0  0  0  0  0  0
  -22.1659   -4.2141   21.0989 F   0  0  0  0  0  0
  -21.5631   -3.4542   25.7747 F   0  0  0  0  0  0
  -30.0265  -13.3442   20.4345 N   0  0  0  0  0  0
  -26.2989  -12.9364   20.3311 N   0  0  0  0  0  0
  -25.9318  -11.6516   20.5735 N   0  0  0  0  0  0
  -22.0484  -12.8191   22.0419 N   0  0  0  0  0  0
  -25.4254  -15.1901   20.4090 N   0  0  0  0  0  0
  -31.8548  -14.6582   20.1093 O   0  0  0  0  0  0
  -21.6643   -6.8868   21.4239 O   0  0  0  0  0  0
  -22.3505  -14.5509   20.6717 O   0  0  0  0  0  0
  -24.6183  -31.8634   23.2068 C   0  0  0  0  0  0
  -25.9075  -32.4781   23.8360 C   0  0  1  0  0  0
  -27.2342  -27.3930   20.0983 C   0  0  0  0  0  0
  -25.5957  -33.8585   24.2294 N   0  0  0  0  0  0
  -23.4084  -30.4906   21.5460 C   0  0  2  0  0  0
  -24.8560  -28.9555   20.1078 C   0  0  0  0  0  0
  -22.7433  -29.4651   22.4918 C   0  0  0  0  0  0
  -18.0288  -28.1380   22.8447 C   0  0  0  0  0  0
  -24.1501  -36.7295   23.2646 C   0  0  0  0  0  0
  -25.9429  -30.8156   21.3692 C   0  0  0  0  0  0
  -26.0183  -29.4508   20.7094 C   0  0  0  0  0  0
  -27.2094  -28.6796   20.6982 C   0  0  0  0  0  0
  -26.0481  -26.9300   19.4788 C   0  0  0  0  0  0
  -24.8689  -27.6963   19.4873 C   0  0  0  0  0  0
  -23.6208  -29.8267   20.1587 C   0  0  0  0  0  0
  -25.4122  -36.3084   24.0334 C   0  0  1  0  0  0
  -20.5885  -28.3665   23.1273 C   0  0  2  0  0  0
  -20.6783  -26.9392   22.5395 C   0  0  0  0  0  0
  -19.5771  -26.6378   21.5190 C   0  0  0  0  0  0
  -18.1938  -26.7924   22.1586 C   0  0  0  0  0  0
  -19.1537  -28.8829   23.2858 C   0  0  0  0  0  0
  -18.9479  -30.1434   23.8875 C   0  0  0  0  0  0
  -17.6483  -30.6570   24.0563 C   0  0  0  0  0  0
  -25.9057  -34.9449   23.5091 C   0  0  0  0  0  0
  -16.5369  -29.9067   23.6347 C   0  0  0  0  0  0
  -16.7281  -28.6507   23.0314 C   0  0  0  0  0  0
  -26.4498  -31.6579   25.0702 C   0  0  0  0  0  0
  -25.3765  -31.3724   26.1459 C   0  0  0  0  0  0
  -27.0357  -30.3012   24.6138 C   0  0  0  0  0  0
  -27.6059  -32.4323   25.7477 C   0  0  0  0  0  0
  -27.5582  -37.1795   24.8476 C   0  0  0  0  0  0
  -21.4155  -29.3044   22.3669 N   0  0  0  0  0  0
  -26.4300  -37.3772   23.9415 N   0  0  0  0  0  0
  -24.6749  -31.0720   22.0972 N   0  0  0  0  0  0
  -23.4184  -28.8185   23.2967 O   0  0  0  0  0  0
  -28.3899  -26.6175   20.1359 O   0  0  0  0  0  0
  -26.5590  -34.8911   22.4637 O   0  0  0  0  0  0
  -23.5371  -32.1391   23.7452 O   0  0  0  0  0  0
  -29.2751  -21.8291   21.0850 C   0  0  0  0  0  0
  -29.3457  -22.2600   18.9624 C   0  0  0  0  0  0
  -29.1947  -20.6318   20.3887 C   0  0  0  0  0  0
  -28.9556  -19.2035   20.8899 C   0  0  0  0  0  0
  -30.1863  -18.2372   20.9532 C   0  0  0  0  0  0
  -29.4592  -24.3330   20.4100 C   0  0  0  0  0  0
  -30.1514  -16.9607   20.0438 C   0  0  0  0  0  0
  -28.2570  -25.1868   19.9098 C   0  0  0  0  0  0
  -29.2553  -20.9290   19.0258 N   0  0  0  0  0  0
  -29.3461  -22.8791   20.1550 N   0  0  0  0  0  0
  -29.9178  -15.6374   20.6906 N   0  0  0  0  0  0
  -31.4647  -12.3876   19.1630 H   0  0  0  0  0  0
  -30.2893  -11.3208   19.8769 H   0  0  0  0  0  0
  -29.7471  -11.7538   17.4567 H   0  0  0  0  0  0
  -29.6757  -13.4708   17.7651 H   0  0  0  0  0  0
  -27.8320  -11.3042   18.8319 H   0  0  0  0  0  0
  -27.3769  -12.6176   17.7830 H   0  0  0  0  0  0
  -27.6792  -14.2553   19.5334 H   0  0  0  0  0  0
  -28.6767  -12.0387   21.3901 H   0  0  0  0  0  0
  -28.4679  -13.7101   21.8356 H   0  0  0  0  0  0
  -25.2759   -9.5702   22.4731 H   0  0  0  0  0  0
  -24.0013   -7.4639   22.7456 H   0  0  0  0  0  0
  -21.0838   -8.8742   19.8933 H   0  0  0  0  0  0
  -22.3668  -10.9653   19.6140 H   0  0  0  0  0  0
  -21.2013   -7.6147   23.9714 H   0  0  0  0  0  0
  -21.1480   -6.0526   25.9077 H   0  0  0  0  0  0
  -22.0594   -2.7603   23.2865 H   0  0  0  0  0  0
  -22.4132  -11.9877   22.4839 H   0  0  0  0  0  0
  -21.1070  -13.1166   22.2583 H   0  0  0  0  0  0
  -24.6569  -15.8436   20.5151 H   0  0  0  0  0  0
  -26.2730  -15.6296   20.0754 H   0  0  0  0  0  0
  -26.7129  -32.5496   23.1111 H   0  0  0  0  0  0
  -25.0170  -33.9743   25.0480 H   0  0  0  0  0  0
  -22.6998  -31.3083   21.4035 H   0  0  0  0  0  0
  -23.3743  -35.9646   23.3310 H   0  0  0  0  0  0
  -24.3591  -36.8905   22.2061 H   0  0  0  0  0  0
  -23.7243  -37.6506   23.6649 H   0  0  0  0  0  0
  -26.0694  -31.5867   20.6076 H   0  0  0  0  0  0
  -26.8229  -30.8569   21.9985 H   0  0  0  0  0  0
  -28.1078  -29.0555   21.1673 H   0  0  0  0  0  0
  -26.0099  -25.9725   18.9812 H   0  0  0  0  0  0
  -23.9784  -27.3105   19.0106 H   0  0  0  0  0  0
  -23.7315  -30.6038   19.4008 H   0  0  0  0  0  0
  -22.7419  -29.2520   19.8586 H   0  0  0  0  0  0
  -25.1281  -36.1938   25.0821 H   0  0  0  0  0  0
  -20.9988  -28.3260   24.1389 H   0  0  0  0  0  0
  -20.5691  -26.2274   23.3590 H   0  0  0  0  0  0
  -21.6653  -26.7433   22.1193 H   0  0  0  0  0  0
  -19.6950  -25.6300   21.1197 H   0  0  0  0  0  0
  -19.6731  -27.3202   20.6736 H   0  0  0  0  0  0
  -17.4221  -26.6667   21.3974 H   0  0  0  0  0  0
  -18.0330  -26.0055   22.8969 H   0  0  0  0  0  0
  -19.7967  -30.7232   24.2226 H   0  0  0  0  0  0
  -17.5061  -31.6261   24.5146 H   0  0  0  0  0  0
  -15.5373  -30.2955   23.7711 H   0  0  0  0  0  0
  -15.8688  -28.0850   22.6998 H   0  0  0  0  0  0
  -24.5966  -30.7017   25.7838 H   0  0  0  0  0  0
  -24.8921  -32.2899   26.4836 H   0  0  0  0  0  0
  -25.8128  -30.8980   27.0253 H   0  0  0  0  0  0
  -26.2929  -29.6724   24.1217 H   0  0  0  0  0  0
  -27.4142  -29.7301   25.4623 H   0  0  0  0  0  0
  -27.8753  -30.4298   23.9286 H   0  0  0  0  0  0
  -27.2683  -33.3674   26.1954 H   0  0  0  0  0  0
  -28.3939  -32.6773   25.0348 H   0  0  0  0  0  0
  -28.0624  -31.8482   26.5483 H   0  0  0  0  0  0
  -28.2585  -38.0104   24.7519 H   0  0  0  0  0  0
  -28.1057  -36.2611   24.6280 H   0  0  0  0  0  0
  -27.2286  -37.1458   25.8877 H   0  0  0  0  0  0
  -20.9305  -29.8790   21.6924 H   0  0  0  0  0  0
  -26.0171  -38.2839   24.1421 H   0  0  0  0  0  0
  -29.2608  -22.0140   22.1509 H   0  0  0  0  0  0
  -29.4166  -22.7941   18.0247 H   0  0  0  0  0  0
  -28.1650  -18.7435   20.2963 H   0  0  0  0  0  0
  -28.5292  -19.2598   21.8919 H   0  0  0  0  0  0
  -30.3693  -17.9511   21.9896 H   0  0  0  0  0  0
  -31.0679  -18.8171   20.6735 H   0  0  0  0  0  0
  -29.6024  -24.4881   21.4798 H   0  0  0  0  0  0
  -30.3746  -24.6813   19.9312 H   0  0  0  0  0  0
  -31.0946  -16.9301   19.4942 H   0  0  0  0  0  0
  -29.3985  -17.0888   19.2663 H   0  0  0  0  0  0
  -27.3659  -24.8133   20.4177 H   0  0  0  0  0  0
  -28.1205  -25.0132   18.8408 H   0  0  0  0  0  0
  -28.9799  -15.4561   21.0163 H   0  0  0  0  0  0
  1 25  1  0  0  0
  1 30  2  0  0  0
  1 81  1  0  0  0
  2  3  1  0  0  0
  2 25  1  0  0  0
  2 82  1  0  0  0
  2 83  1  0  0  0
  3  4  1  0  0  0
  3 84  1  0  0  0
  3 85  1  0  0  0
  4  5  1  0  0  0
  4 86  1  0  0  0
  4 87  1  0  0  0
  5  6  1  0  0  0
  5 26  1  0  0  0
  5 88  1  0  0  0
  6 25  1  0  0  0
  6 89  1  0  0  0
  6 90  1  0  0  0
  7  8  2  0  0  0
  7 26  1  0  0  0
  7 29  1  0  0  0
  8  9  1  0  0  0
  8 22  1  0  0  0
  9 10  1  0  0  0
  9 27  2  0  0  0
 10 11  2  0  0  0
 10 15  1  0  0  0
 11 12  1  0  0  0
 11 91  1  0  0  0
 12 13  2  0  0  0
 12 92  1  0  0  0
 13 14  1  0  0  0
 13 31  1  0  0  0
 14 15  2  0  0  0
 14 93  1  0  0  0
 15 94  1  0  0  0
 16 17  2  0  0  0
 16 21  1  0  0  0
 16 31  1  0  0  0
 17 18  1  0  0  0
 17 95  1  0  0  0
 18 19  2  0  0  0
 18 96  1  0  0  0
 19 20  1  0  0  0
 19 24  1  0  0  0
 20 21  2  0  0  0
 20 97  1  0  0  0
 21 23  1  0  0  0
 22 28  1  0  0  0
 22 32  2  0  0  0
 26 27  1  0  0  0
 28 98  1  0  0  0
 28 99  1  0  0  0
 29100  1  0  0  0
 29101  1  0  0  0
 33 34  1  0  0  0
 33 66  1  0  0  0
 33 70  2  0  0  0
 34 36  1  0  0  0
 34 59  1  0  0  0
 34102  1  0  0  0
 35 44  2  0  0  0
 35 45  1  0  0  0
 35 68  1  0  0  0
 36 56  1  0  0  0
 36103  1  0  0  0
 37 39  1  0  0  0
 37 47  1  0  0  0
 37 66  1  0  0  0
 37104  1  0  0  0
 38 43  2  0  0  0
 38 46  1  0  0  0
 38 47  1  0  0  0
 39 64  1  0  0  0
 39 67  2  0  0  0
 40 52  1  0  0  0
 40 53  2  0  0  0
 40 58  1  0  0  0
 41105  1  0  0  0
 41106  1  0  0  0
 41107  1  0  0  0
 41 48  1  0  0  0
 42 43  1  0  0  0
 42 66  1  0  0  0
 42108  1  0  0  0
 42109  1  0  0  0
 43 44  1  0  0  0
 44110  1  0  0  0
 45 46  2  0  0  0
 45111  1  0  0  0
 46112  1  0  0  0
 47113  1  0  0  0
 47114  1  0  0  0
 48 56  1  0  0  0
 48 65  1  0  0  0
 48115  1  0  0  0
 49 50  1  0  0  0
 49 53  1  0  0  0
 49 64  1  0  0  0
 49116  1  0  0  0
 50 51  1  0  0  0
 50117  1  0  0  0
 50118  1  0  0  0
 51 52  1  0  0  0
 51119  1  0  0  0
 51120  1  0  0  0
 52121  1  0  0  0
 52122  1  0  0  0
 53 54  1  0  0  0
 54 55  2  0  0  0
 54123  1  0  0  0
 55 57  1  0  0  0
 55124  1  0  0  0
 56 69  2  0  0  0
 57 58  2  0  0  0
 57125  1  0  0  0
 58126  1  0  0  0
 59 60  1  0  0  0
 59 61  1  0  0  0
 59 62  1  0  0  0
 60127  1  0  0  0
 60128  1  0  0  0
 60129  1  0  0  0
 61130  1  0  0  0
 61131  1  0  0  0
 61132  1  0  0  0
 62133  1  0  0  0
 62134  1  0  0  0
 62135  1  0  0  0
 63 65  1  0  0  0
 63136  1  0  0  0
 63137  1  0  0  0
 63138  1  0  0  0
 64139  1  0  0  0
 65140  1  0  0  0
 68 78  1  0  0  0
 71 73  2  0  0  0
 71 80  1  0  0  0
 71141  1  0  0  0
 72 79  2  0  0  0
 72 80  1  0  0  0
 72142  1  0  0  0
 73 74  1  0  0  0
 73 79  1  0  0  0
 74 75  1  0  0  0
 74143  1  0  0  0
 74144  1  0  0  0
 75 77  1  0  0  0
 75145  1  0  0  0
 75146  1  0  0  0
 76 78  1  0  0  0
 76 80  1  0  0  0
 76147  1  0  0  0
 76148  1  0  0  0
 77 81  1  0  0  0
 77149  1  0  0  0
 77150  1  0  0  0
 78151  1  0  0  0
 78152  1  0  0  0
 81153  1  0  0  0
M  ISO  4   1 100  68 101  78 101  81 100
M  END
> <chiral flag>
0

> <version>
0

> <s_m_source_file>
/data/baiqing/PycharmProjects/Reinvent-master-3.2/result/LINK_invent/BTK/process_docking_weight1_custom_sum_contain_oxygen_bond_distance_aromatic_linkinvent_7_9_3/rearranged_h_0002.sdf

> <i_m_source_file_index>
64

> <r_mmod_Potential_Energy-OPLS-2005>
-52.5943489074707

> <r_mmod_Stretch_Energy-OPLS-2005>
47.9196395874023

> <r_mmod_Bend_Energy-OPLS-2005>
113.578720092773

> <r_mmod_Torsional_Energy-OPLS-2005>
239.461776733398

> <r_mmod_Improper_Torsional_Energy-OPLS-2005>
8.5765495300293

> <r_mmod_Van_der_Waal_Energy-OPLS-2005>
128.72624206543

> <r_mmod_Electrostatic_Energy-OPLS-2005>
-383.510955810547

> <r_mmod_Solvation_Energy-OPLS-2005>
-231.990447998047

> <b_mmod_Minimization_Converged-OPLS-2005>
0

> <r_mmod_RMS_Derivative-OPLS-2005>
2.82020711898804

$$$$
64
                    3D
 Structure written by MMmdl.
144152  0  0  1  0            999 V2000
  -30.2491  -15.7690   20.3185 C   0  0  0  0  0  0
  -30.4165  -13.1824   19.5389 C   0  0  0  0  0  0
  -29.5561  -12.6883   18.3366 C   0  0  0  0  0  0
  -28.1400  -12.3025   18.7870 C   0  0  0  0  0  0
  -27.5914  -13.3204   19.8100 C   0  0  2  0  0  0
  -28.5996  -13.7101   20.9197 C   0  0  0  0  0  0
  -25.2302  -13.8299   20.5812 C   0  0  0  0  0  0
  -24.1705  -13.0432   20.9298 C   0  0  0  0  0  0
  -24.6425  -11.6949   20.8764 C   0  0  0  0  0  0
  -23.9129  -10.4292   21.0393 C   0  0  0  0  0  0
  -24.3660   -9.4205   21.9178 C   0  0  0  0  0  0
  -23.6316   -8.2248   22.0754 C   0  0  0  0  0  0
  -22.4296   -8.0290   21.3545 C   0  0  0  0  0  0
  -21.9945   -9.0266   20.4644 C   0  0  0  0  0  0
  -22.7293  -10.2135   20.3047 C   0  0  0  0  0  0
  -21.6860   -6.0742   22.5279 C   0  0  0  0  0  0
  -21.4020   -6.5644   23.8213 C   0  0  0  0  0  0
  -21.3660   -5.6795   24.9174 C   0  0  0  0  0  0
  -21.6043   -4.3057   24.7223 C   0  0  0  0  0  0
  -21.8818   -3.8151   23.4344 C   0  0  0  0  0  0
  -21.9195   -4.6969   22.3401 C   0  0  0  0  0  0
  -22.7713  -13.5153   21.1928 C   0  0  0  0  0  0
  -22.1662   -4.2154   21.0979 F   0  0  0  0  0  0
  -21.5627   -3.4540   25.7735 F   0  0  0  0  0  0
  -29.7500  -14.3765   20.2532 N   0  0  0  0  0  0
  -26.2766  -12.9654   20.3247 N   0  0  0  0  0  0
  -25.9376  -11.6711   20.5692 N   0  0  0  0  0  0
  -22.0381  -12.8128   22.0480 N   0  0  0  0  0  0
  -25.3868  -15.2043   20.4253 N   0  0  0  0  0  0
  -31.4896  -15.6885   20.1870 O   0  0  0  0  0  0
  -21.6650   -6.8891   21.4243 O   0  0  0  0  0  0
  -22.3385  -14.5450   20.6762 O   0  0  0  0  0  0
  -24.6936  -31.7881   23.1428 C   0  0  0  0  0  0
  -25.9467  -32.4408   23.8014 C   0  0  1  0  0  0
  -27.2314  -26.6000   20.2259 C   0  0  0  0  0  0
  -25.6003  -33.8239   24.1889 N   0  0  0  0  0  0
  -23.5248  -30.3852   21.4992 C   0  0  2  0  0  0
  -24.9837  -28.7043   20.1217 C   0  0  0  0  0  0
  -22.7812  -29.4252   22.4682 C   0  0  0  0  0  0
  -18.0345  -28.1427   22.8448 C   0  0  0  0  0  0
  -24.1496  -36.7128   23.2656 C   0  0  0  0  0  0
  -26.1099  -30.4873   21.4229 C   0  0  0  0  0  0
  -26.1749  -29.0406   20.7752 C   0  0  0  0  0  0
  -27.2793  -28.0201   20.7903 C   0  0  0  0  0  0
  -26.0052  -26.4991   19.5134 C   0  0  0  0  0  0
  -24.9440  -27.4606   19.4663 C   0  0  0  0  0  0
  -23.7849  -29.6724   20.1393 C   0  0  0  0  0  0
  -25.4150  -36.2860   24.0273 C   0  0  1  0  0  0
  -20.5986  -28.3792   23.1121 C   0  0  2  0  0  0
  -20.6806  -26.9441   22.5405 C   0  0  0  0  0  0
  -19.5784  -26.6367   21.5217 C   0  0  0  0  0  0
  -18.1967  -26.7952   22.1618 C   0  0  0  0  0  0
  -19.1614  -28.8936   23.2762 C   0  0  0  0  0  0
  -18.9518  -30.1517   23.8813 C   0  0  0  0  0  0
  -17.6507  -30.6607   24.0547 C   0  0  0  0  0  0
  -25.9137  -34.9253   23.4926 C   0  0  0  0  0  0
  -16.5395  -29.9086   23.6353 C   0  0  0  0  0  0
  -16.7324  -28.6509   23.0369 C   0  0  0  0  0  0
  -26.4611  -31.6488   25.0681 C   0  0  0  0  0  0
  -25.3648  -31.3836   26.1276 C   0  0  0  0  0  0
  -27.0562  -30.2813   24.6660 C   0  0  0  0  0  0
  -27.6036  -32.4377   25.7508 C   0  0  0  0  0  0
  -27.5560  -37.1721   24.8466 C   0  0  0  0  0  0
  -21.4449  -29.3019   22.3429 N   0  0  0  0  0  0
  -26.4267  -37.3633   23.9406 N   0  0  0  0  0  0
  -24.8007  -30.9224   22.0738 N   0  0  0  0  0  0
  -23.4206  -28.7870   23.3076 O   0  0  0  0  0  0
  -28.1813  -25.3340   20.2925 O   0  0  0  0  0  0
  -26.5793  -34.8851   22.4554 O   0  0  0  0  0  0
  -23.5932  -32.1003   23.6316 O   0  0  0  0  0  0
  -31.2233  -20.8510   20.4443 C   0  0  0  0  0  0
  -30.3278  -21.9742   20.3863 C   0  0  0  0  0  0
  -30.8973  -19.4510   20.4170 C   0  0  0  0  0  0
  -28.6498  -20.2656   20.2683 C   0  0  0  0  0  0
  -28.9175  -21.8849   20.2883 C   0  0  0  0  0  0
  -29.5860  -18.9200   20.3295 C   0  0  0  0  0  0
  -27.9553  -23.5403   20.1946 C   0  0  0  0  0  0
  -29.4678  -17.1584   20.3338 N   0  0  0  0  0  0
  -31.3972  -13.4683   19.1574 H   0  0  0  0  0  0
  -30.6150  -12.3654   20.2348 H   0  0  0  0  0  0
  -30.0382  -11.8449   17.8404 H   0  0  0  0  0  0
  -29.4933  -13.4857   17.5947 H   0  0  0  0  0  0
  -28.1920  -11.3161   19.2495 H   0  0  0  0  0  0
  -27.4721  -12.2092   17.9298 H   0  0  0  0  0  0
  -27.4353  -14.2232   19.2177 H   0  0  0  0  0  0
  -28.8922  -12.8505   21.5245 H   0  0  0  0  0  0
  -28.1402  -14.4228   21.6061 H   0  0  0  0  0  0
  -25.2799   -9.5677   22.4764 H   0  0  0  0  0  0
  -24.0015   -7.4641   22.7480 H   0  0  0  0  0  0
  -21.0874   -8.8796   19.8951 H   0  0  0  0  0  0
  -22.3752  -10.9677   19.6160 H   0  0  0  0  0  0
  -21.2015   -7.6152   23.9718 H   0  0  0  0  0  0
  -21.1481   -6.0525   25.9077 H   0  0  0  0  0  0
  -22.0595   -2.7612   23.2843 H   0  0  0  0  0  0
  -22.4028  -11.9810   22.4881 H   0  0  0  0  0  0
  -21.0984  -13.1116   22.2673 H   0  0  0  0  0  0
  -24.6121  -15.8494   20.5375 H   0  0  0  0  0  0
  -26.2233  -15.6482   20.0710 H   0  0  0  0  0  0
  -26.7560  -32.4853   23.0732 H   0  0  0  0  0  0
  -25.0040  -33.9259   24.9969 H   0  0  0  0  0  0
  -22.8560  -31.2251   21.3001 H   0  0  0  0  0  0
  -23.3778  -35.9436   23.3259 H   0  0  0  0  0  0
  -24.3559  -36.8857   22.2082 H   0  0  0  0  0  0
  -23.7237  -37.6279   23.6781 H   0  0  0  0  0  0
  -26.3235  -31.2052   20.6299 H   0  0  0  0  0  0
  -26.9566  -30.5591   22.0929 H   0  0  0  0  0  0
  -28.1740  -28.2884   21.3341 H   0  0  0  0  0  0
  -25.8210  -25.5639   19.0038 H   0  0  0  0  0  0
  -24.0480  -27.1923   18.9234 H   0  0  0  0  0  0
  -23.9691  -30.4280   19.3747 H   0  0  0  0  0  0
  -22.8876  -29.1444   19.8122 H   0  0  0  0  0  0
  -25.1366  -36.1607   25.0763 H   0  0  0  0  0  0
  -21.0064  -28.3426   24.1249 H   0  0  0  0  0  0
  -20.5660  -26.2419   23.3677 H   0  0  0  0  0  0
  -21.6666  -26.7367   22.1230 H   0  0  0  0  0  0
  -19.6938  -25.6255   21.1303 H   0  0  0  0  0  0
  -19.6730  -27.3129   20.6710 H   0  0  0  0  0  0
  -17.4236  -26.6693   21.4021 H   0  0  0  0  0  0
  -18.0352  -26.0116   22.9034 H   0  0  0  0  0  0
  -19.7994  -30.7354   24.2146 H   0  0  0  0  0  0
  -17.5057  -31.6278   24.5166 H   0  0  0  0  0  0
  -15.5392  -30.2961   23.7726 H   0  0  0  0  0  0
  -15.8725  -28.0800   22.7132 H   0  0  0  0  0  0
  -24.5864  -30.7155   25.7572 H   0  0  0  0  0  0
  -24.8806  -32.3067   26.4469 H   0  0  0  0  0  0
  -25.7799  -30.9150   27.0207 H   0  0  0  0  0  0
  -26.3300  -29.6394   24.1665 H   0  0  0  0  0  0
  -27.3958  -29.7305   25.5442 H   0  0  0  0  0  0
  -27.9292  -30.3914   24.0226 H   0  0  0  0  0  0
  -27.2557  -33.3759   26.1844 H   0  0  0  0  0  0
  -28.3970  -32.6810   25.0429 H   0  0  0  0  0  0
  -28.0570  -31.8672   26.5625 H   0  0  0  0  0  0
  -28.2540  -38.0050   24.7512 H   0  0  0  0  0  0
  -28.1093  -36.2570   24.6297 H   0  0  0  0  0  0
  -27.2273  -37.1358   25.8868 H   0  0  0  0  0  0
  -20.9779  -29.8658   21.6465 H   0  0  0  0  0  0
  -26.0084  -38.2675   24.1421 H   0  0  0  0  0  0
  -32.2755  -21.0887   20.5173 H   0  0  0  0  0  0
  -30.7626  -22.9641   20.4154 H   0  0  0  0  0  0
  -31.7198  -18.7513   20.4730 H   0  0  0  0  0  0
  -27.5975  -20.0310   20.1940 H   0  0  0  0  0  0
  -27.1705  -23.3778   20.9334 H   0  0  0  0  0  0
  -27.4334  -23.4350   19.2435 H   0  0  0  0  0  0
  -28.4908  -16.9030   20.3508 H   0  0  0  0  0  0
  1 25  1  0  0  0
  1 30  2  0  0  0
  1 78  1  0  0  0
  2  3  1  0  0  0
  2 25  1  0  0  0
  2 79  1  0  0  0
  2 80  1  0  0  0
  3  4  1  0  0  0
  3 81  1  0  0  0
  3 82  1  0  0  0
  4  5  1  0  0  0
  4 83  1  0  0  0
  4 84  1  0  0  0
  5  6  1  0  0  0
  5 26  1  0  0  0
  5 85  1  0  0  0
  6 25  1  0  0  0
  6 86  1  0  0  0
  6 87  1  0  0  0
  7  8  2  0  0  0
  7 26  1  0  0  0
  7 29  1  0  0  0
  8  9  1  0  0  0
  8 22  1  0  0  0
  9 10  1  0  0  0
  9 27  2  0  0  0
 10 11  2  0  0  0
 10 15  1  0  0  0
 11 12  1  0  0  0
 11 88  1  0  0  0
 12 13  2  0  0  0
 12 89  1  0  0  0
 13 14  1  0  0  0
 13 31  1  0  0  0
 14 15  2  0  0  0
 14 90  1  0  0  0
 15 91  1  0  0  0
 16 17  2  0  0  0
 16 21  1  0  0  0
 16 31  1  0  0  0
 17 18  1  0  0  0
 17 92  1  0  0  0
 18 19  2  0  0  0
 18 93  1  0  0  0
 19 20  1  0  0  0
 19 24  1  0  0  0
 20 21  2  0  0  0
 20 94  1  0  0  0
 21 23  1  0  0  0
 22 28  1  0  0  0
 22 32  2  0  0  0
 26 27  1  0  0  0
 28 95  1  0  0  0
 28 96  1  0  0  0
 29 97  1  0  0  0
 29 98  1  0  0  0
 33 34  1  0  0  0
 33 66  1  0  0  0
 33 70  2  0  0  0
 34 36  1  0  0  0
 34 59  1  0  0  0
 34 99  1  0  0  0
 35 44  2  0  0  0
 35 45  1  0  0  0
 35 68  1  0  0  0
 36 56  1  0  0  0
 36100  1  0  0  0
 37 39  1  0  0  0
 37 47  1  0  0  0
 37 66  1  0  0  0
 37101  1  0  0  0
 38 43  2  0  0  0
 38 46  1  0  0  0
 38 47  1  0  0  0
 39 64  1  0  0  0
 39 67  2  0  0  0
 40 52  1  0  0  0
 40 53  2  0  0  0
 40 58  1  0  0  0
 41102  1  0  0  0
 41103  1  0  0  0
 41104  1  0  0  0
 41 48  1  0  0  0
 42 43  1  0  0  0
 42 66  1  0  0  0
 42105  1  0  0  0
 42106  1  0  0  0
 43 44  1  0  0  0
 44107  1  0  0  0
 45 46  2  0  0  0
 45108  1  0  0  0
 46109  1  0  0  0
 47110  1  0  0  0
 47111  1  0  0  0
 48 56  1  0  0  0
 48 65  1  0  0  0
 48112  1  0  0  0
 49 50  1  0  0  0
 49 53  1  0  0  0
 49 64  1  0  0  0
 49113  1  0  0  0
 50 51  1  0  0  0
 50114  1  0  0  0
 50115  1  0  0  0
 51 52  1  0  0  0
 51116  1  0  0  0
 51117  1  0  0  0
 52118  1  0  0  0
 52119  1  0  0  0
 53 54  1  0  0  0
 54 55  2  0  0  0
 54120  1  0  0  0
 55 57  1  0  0  0
 55121  1  0  0  0
 56 69  2  0  0  0
 57 58  2  0  0  0
 57122  1  0  0  0
 58123  1  0  0  0
 59 60  1  0  0  0
 59 61  1  0  0  0
 59 62  1  0  0  0
 60124  1  0  0  0
 60125  1  0  0  0
 60126  1  0  0  0
 61127  1  0  0  0
 61128  1  0  0  0
 61129  1  0  0  0
 62130  1  0  0  0
 62131  1  0  0  0
 62132  1  0  0  0
 63 65  1  0  0  0
 63133  1  0  0  0
 63134  1  0  0  0
 63135  1  0  0  0
 64136  1  0  0  0
 65137  1  0  0  0
 68 77  1  0  0  0
 71 72  2  0  0  0
 71 73  1  0  0  0
 71138  1  0  0  0
 72 75  1  0  0  0
 72139  1  0  0  0
 73 76  2  0  0  0
 73140  1  0  0  0
 74 75  2  0  0  0
 74 76  1  0  0  0
 74141  1  0  0  0
 75 77  1  0  0  0
 76 78  1  0  0  0
 77142  1  0  0  0
 77143  1  0  0  0
 78144  1  0  0  0
M  ISO  4   1 100  68 101  77 101  78 100
M  END
> <chiral flag>
0

> <version>
0

> <s_m_source_file>
/data/baiqing/PycharmProjects/Reinvent-master-3.2/result/LINK_invent/BTK/process_docking_weight1_custom_sum_contain_oxygen_bond_distance_aromatic_linkinvent_7_9_3/rearranged_h_0002.sdf

> <i_m_source_file_index>
65

> <r_mmod_Potential_Energy-OPLS-2005>
2813.380859375

> <r_mmod_Stretch_Energy-OPLS-2005>
1256.92761230469

> <r_mmod_Bend_Energy-OPLS-2005>
641.894226074219

> <r_mmod_Torsional_Energy-OPLS-2005>
222.88850402832

> <r_mmod_Improper_Torsional_Energy-OPLS-2005>
4.12787246704102

> <r_mmod_Van_der_Waal_Energy-OPLS-2005>
126.438247680664

> <r_mmod_Electrostatic_Energy-OPLS-2005>
-346.341064453125

> <r_mmod_Solvation_Energy-OPLS-2005>
-213.760787963867

> <b_mmod_Minimization_Converged-OPLS-2005>
0

> <r_mmod_RMS_Derivative-OPLS-2005>
0.157229289412498

$$$$
65
                    3D
 Structure written by MMmdl.
151159  0  0  1  0            999 V2000
  -30.4874  -15.0403   20.3795 C   0  0  0  0  0  0
  -30.4433  -12.6515   19.4899 C   0  0  0  0  0  0
  -29.5126  -12.4985   18.2618 C   0  0  0  0  0  0
  -28.0625  -12.2546   18.7125 C   0  0  0  0  0  0
  -27.6226  -13.2346   19.8291 C   0  0  2  0  0  0
  -28.6636  -13.3066   20.9644 C   0  0  0  0  0  0
  -25.2465  -13.8170   20.5694 C   0  0  0  0  0  0
  -24.1781  -13.0448   20.9237 C   0  0  0  0  0  0
  -24.6371  -11.6909   20.8817 C   0  0  0  0  0  0
  -23.9056  -10.4295   21.0461 C   0  0  0  0  0  0
  -24.3613   -9.4194   21.9207 C   0  0  0  0  0  0
  -23.6285   -8.2232   22.0761 C   0  0  0  0  0  0
  -22.4265   -8.0275   21.3548 C   0  0  0  0  0  0
  -21.9912   -9.0259   20.4656 C   0  0  0  0  0  0
  -22.7247  -10.2134   20.3088 C   0  0  0  0  0  0
  -21.6840   -6.0726   22.5279 C   0  0  0  0  0  0
  -21.3994   -6.5630   23.8210 C   0  0  0  0  0  0
  -21.3651   -5.6786   24.9173 C   0  0  0  0  0  0
  -21.6053   -4.3049   24.7226 C   0  0  0  0  0  0
  -21.8823   -3.8140   23.4345 C   0  0  0  0  0  0
  -21.9193   -4.6957   22.3403 C   0  0  0  0  0  0
  -22.7802  -13.5228   21.1863 C   0  0  0  0  0  0
  -22.1666   -4.2146   21.0982 F   0  0  0  0  0  0
  -21.5641   -3.4537   25.7740 F   0  0  0  0  0  0
  -29.9185  -13.7591   20.3491 N   0  0  0  0  0  0
  -26.2857  -12.9373   20.3231 N   0  0  0  0  0  0
  -25.9292  -11.6521   20.5779 N   0  0  0  0  0  0
  -22.0443  -12.8233   22.0396 N   0  0  0  0  0  0
  -25.4201  -15.1893   20.4060 N   0  0  0  0  0  0
  -31.6991  -15.0774   20.1304 O   0  0  0  0  0  0
  -21.6630   -6.8877   21.4239 O   0  0  0  0  0  0
  -22.3510  -14.5542   20.6687 O   0  0  0  0  0  0
  -24.6517  -31.8370   23.1829 C   0  0  0  0  0  0
  -25.9266  -32.4657   23.8243 C   0  0  1  0  0  0
  -27.2022  -27.0830   20.1231 C   0  0  0  0  0  0
  -25.5983  -33.8450   24.2199 N   0  0  0  0  0  0
  -23.4585  -30.4594   21.5253 C   0  0  2  0  0  0
  -24.9051  -28.8773   20.1049 C   0  0  0  0  0  0
  -22.7623  -29.4513   22.4757 C   0  0  0  0  0  0
  -18.0326  -28.1372   22.8424 C   0  0  0  0  0  0
  -24.1499  -36.7225   23.2650 C   0  0  0  0  0  0
  -26.0170  -30.6980   21.3813 C   0  0  0  0  0  0
  -26.0874  -29.3002   20.7250 C   0  0  0  0  0  0
  -27.2395  -28.4170   20.7185 C   0  0  0  0  0  0
  -25.9950  -26.7818   19.4578 C   0  0  0  0  0  0
  -24.8721  -27.6345   19.4588 C   0  0  0  0  0  0
  -23.6942  -29.7942   20.1439 C   0  0  0  0  0  0
  -25.4116  -36.2975   24.0324 C   0  0  1  0  0  0
  -20.5944  -28.3726   23.1133 C   0  0  2  0  0  0
  -20.6804  -26.9420   22.5313 C   0  0  0  0  0  0
  -19.5779  -26.6372   21.5114 C   0  0  0  0  0  0
  -18.1973  -26.7916   22.1560 C   0  0  0  0  0  0
  -19.1580  -28.8854   23.2800 C   0  0  0  0  0  0
  -18.9518  -30.1428   23.8859 C   0  0  0  0  0  0
  -17.6521  -30.6564   24.0523 C   0  0  0  0  0  0
  -25.9070  -34.9366   23.5067 C   0  0  0  0  0  0
  -16.5411  -29.9067   23.6288 C   0  0  0  0  0  0
  -16.7315  -28.6484   23.0311 C   0  0  0  0  0  0
  -26.4636  -31.6507   25.0655 C   0  0  0  0  0  0
  -25.3855  -31.3594   26.1369 C   0  0  0  0  0  0
  -27.0545  -30.2936   24.6172 C   0  0  0  0  0  0
  -27.6177  -32.4277   25.7409 C   0  0  0  0  0  0
  -27.5575  -37.1760   24.8488 C   0  0  0  0  0  0
  -21.4285  -29.3086   22.3529 N   0  0  0  0  0  0
  -26.4276  -37.3697   23.9440 N   0  0  0  0  0  0
  -24.7304  -31.0196   22.0865 N   0  0  0  0  0  0
  -23.4226  -28.8004   23.2903 O   0  0  0  0  0  0
  -28.2230  -26.0510   20.1699 O   0  0  0  0  0  0
  -26.5615  -34.8873   22.4622 O   0  0  0  0  0  0
  -23.5608  -32.1255   23.7015 O   0  0  0  0  0  0
  -31.6432  -19.5462   19.9455 C   0  0  0  0  0  0
  -31.2793  -18.1912   20.1136 C   0  0  0  0  0  0
  -30.7186  -20.6118   19.9747 C   0  0  0  0  0  0
  -28.9968  -18.9484   20.3435 C   0  0  0  0  0  0
  -29.9463  -17.7741   20.3191 C   0  0  0  0  0  0
  -29.3391  -20.4098   20.1801 C   0  0  0  0  0  0
  -29.3672  -23.3371   21.6763 C   0  0  0  0  0  0
  -27.9211  -24.5181   19.9047 C   0  0  0  0  0  0
  -28.8763  -23.1344   20.2436 C   0  0  2  0  0  0
  -29.6855  -16.2408   20.4823 N   0  0  0  0  0  0
  -28.4605  -21.6079   20.1736 O   0  0  0  0  0  0
  -31.4612  -12.8438   19.1461 H   0  0  0  0  0  0
  -30.4935  -11.7215   20.0558 H   0  0  0  0  0  0
  -29.8501  -11.6678   17.6401 H   0  0  0  0  0  0
  -29.5599  -13.3860   17.6328 H   0  0  0  0  0  0
  -28.0190  -11.2337   19.0975 H   0  0  0  0  0  0
  -27.3735  -12.2821   17.8677 H   0  0  0  0  0  0
  -27.5771  -14.2182   19.3592 H   0  0  0  0  0  0
  -28.7858  -12.3324   21.4428 H   0  0  0  0  0  0
  -28.3396  -13.9982   21.7448 H   0  0  0  0  0  0
  -25.2771   -9.5637   22.4771 H   0  0  0  0  0  0
  -23.9987   -7.4614   22.7475 H   0  0  0  0  0  0
  -21.0840   -8.8795   19.8966 H   0  0  0  0  0  0
  -22.3728  -10.9678   19.6194 H   0  0  0  0  0  0
  -21.1972   -7.6137   23.9701 H   0  0  0  0  0  0
  -21.1466   -6.0519   25.9070 H   0  0  0  0  0  0
  -22.0612   -2.7602   23.2855 H   0  0  0  0  0  0
  -22.4046  -11.9899   22.4815 H   0  0  0  0  0  0
  -21.1060  -13.1263   22.2601 H   0  0  0  0  0  0
  -24.6526  -15.8433   20.5128 H   0  0  0  0  0  0
  -26.2450  -15.6104   20.0015 H   0  0  0  0  0  0
  -26.7321  -32.5300   23.0954 H   0  0  0  0  0  0
  -25.0200  -33.9551   25.0395 H   0  0  0  0  0  0
  -22.7673  -31.2887   21.3655 H   0  0  0  0  0  0
  -23.3751  -35.9572   23.3268 H   0  0  0  0  0  0
  -24.3603  -36.8903   22.2082 H   0  0  0  0  0  0
  -23.7299  -37.6420   23.6734 H   0  0  0  0  0  0
  -26.1655  -31.4473   20.6017 H   0  0  0  0  0  0
  -26.8893  -30.7630   22.0188 H   0  0  0  0  0  0
  -28.1437  -28.7314   21.2221 H   0  0  0  0  0  0
  -25.8897  -25.8413   18.9371 H   0  0  0  0  0  0
  -23.9685  -27.3189   18.9551 H   0  0  0  0  0  0
  -23.8590  -30.5708   19.3954 H   0  0  0  0  0  0
  -22.8078  -29.2527   19.8132 H   0  0  0  0  0  0
  -25.1317  -36.1750   25.0812 H   0  0  0  0  0  0
  -21.0073  -28.3322   24.1228 H   0  0  0  0  0  0
  -20.5625  -26.2361   23.3551 H   0  0  0  0  0  0
  -21.6678  -26.7351   22.1161 H   0  0  0  0  0  0
  -19.6944  -25.6263   21.1184 H   0  0  0  0  0  0
  -19.6718  -27.3116   20.6592 H   0  0  0  0  0  0
  -17.4229  -26.6583   21.3985 H   0  0  0  0  0  0
  -18.0430  -26.0044   22.8950 H   0  0  0  0  0  0
  -19.8004  -30.7194   24.2268 H   0  0  0  0  0  0
  -17.5101  -31.6231   24.5144 H   0  0  0  0  0  0
  -15.5415  -30.2977   23.7640 H   0  0  0  0  0  0
  -15.8712  -28.0814   22.7044 H   0  0  0  0  0  0
  -24.6062  -30.6915   25.7685 H   0  0  0  0  0  0
  -24.8996  -32.2708   26.4845 H   0  0  0  0  0  0
  -25.8173  -30.8742   27.0117 H   0  0  0  0  0  0
  -26.3132  -29.6566   24.1328 H   0  0  0  0  0  0
  -27.4416  -29.7316   25.4688 H   0  0  0  0  0  0
  -27.8927  -30.4266   23.9321 H   0  0  0  0  0  0
  -27.2844  -33.3640   26.1887 H   0  0  0  0  0  0
  -28.4010  -32.6721   25.0220 H   0  0  0  0  0  0
  -28.0827  -31.8447   26.5379 H   0  0  0  0  0  0
  -28.2554  -38.0093   24.7515 H   0  0  0  0  0  0
  -28.1094  -36.2600   24.6303 H   0  0  0  0  0  0
  -27.2276  -37.1386   25.8890 H   0  0  0  0  0  0
  -20.9489  -29.8960   21.6838 H   0  0  0  0  0  0
  -26.0098  -38.2728   24.1475 H   0  0  0  0  0  0
  -32.6843  -19.7818   19.7878 H   0  0  0  0  0  0
  -32.0776  -17.4685   20.0755 H   0  0  0  0  0  0
  -31.1037  -21.6071   19.8184 H   0  0  0  0  0  0
  -27.9526  -18.7172   20.4966 H   0  0  0  0  0  0
  -28.5117  -23.3806   22.3521 H   0  0  0  0  0  0
  -29.9079  -24.2815   21.7483 H   0  0  0  0  0  0
  -30.0333  -22.5406   22.0102 H   0  0  0  0  0  0
  -26.9563  -24.3217   20.3741 H   0  0  0  0  0  0
  -27.7171  -24.4576   18.8334 H   0  0  0  0  0  0
  -29.7323  -23.2350   19.5765 H   0  0  0  0  0  0
  -28.7202  -16.0199   20.6725 H   0  0  0  0  0  0
  1 25  1  0  0  0
  1 30  2  0  0  0
  1 80  1  0  0  0
  2  3  1  0  0  0
  2 25  1  0  0  0
  2 82  1  0  0  0
  2 83  1  0  0  0
  3  4  1  0  0  0
  3 84  1  0  0  0
  3 85  1  0  0  0
  4  5  1  0  0  0
  4 86  1  0  0  0
  4 87  1  0  0  0
  5  6  1  0  0  0
  5 26  1  0  0  0
  5 88  1  0  0  0
  6 25  1  0  0  0
  6 89  1  0  0  0
  6 90  1  0  0  0
  7  8  2  0  0  0
  7 26  1  0  0  0
  7 29  1  0  0  0
  8  9  1  0  0  0
  8 22  1  0  0  0
  9 10  1  0  0  0
  9 27  2  0  0  0
 10 11  2  0  0  0
 10 15  1  0  0  0
 11 12  1  0  0  0
 11 91  1  0  0  0
 12 13  2  0  0  0
 12 92  1  0  0  0
 13 14  1  0  0  0
 13 31  1  0  0  0
 14 15  2  0  0  0
 14 93  1  0  0  0
 15 94  1  0  0  0
 16 17  2  0  0  0
 16 21  1  0  0  0
 16 31  1  0  0  0
 17 18  1  0  0  0
 17 95  1  0  0  0
 18 19  2  0  0  0
 18 96  1  0  0  0
 19 20  1  0  0  0
 19 24  1  0  0  0
 20 21  2  0  0  0
 20 97  1  0  0  0
 21 23  1  0  0  0
 22 28  1  0  0  0
 22 32  2  0  0  0
 26 27  1  0  0  0
 28 98  1  0  0  0
 28 99  1  0  0  0
 29100  1  0  0  0
 29101  1  0  0  0
 33 34  1  0  0  0
 33 66  1  0  0  0
 33 70  2  0  0  0
 34 36  1  0  0  0
 34 59  1  0  0  0
 34102  1  0  0  0
 35 44  2  0  0  0
 35 45  1  0  0  0
 35 68  1  0  0  0
 36 56  1  0  0  0
 36103  1  0  0  0
 37 39  1  0  0  0
 37 47  1  0  0  0
 37 66  1  0  0  0
 37104  1  0  0  0
 38 43  2  0  0  0
 38 46  1  0  0  0
 38 47  1  0  0  0
 39 64  1  0  0  0
 39 67  2  0  0  0
 40 52  1  0  0  0
 40 53  2  0  0  0
 40 58  1  0  0  0
 41105  1  0  0  0
 41106  1  0  0  0
 41107  1  0  0  0
 41 48  1  0  0  0
 42 43  1  0  0  0
 42 66  1  0  0  0
 42108  1  0  0  0
 42109  1  0  0  0
 43 44  1  0  0  0
 44110  1  0  0  0
 45 46  2  0  0  0
 45111  1  0  0  0
 46112  1  0  0  0
 47113  1  0  0  0
 47114  1  0  0  0
 48 56  1  0  0  0
 48 65  1  0  0  0
 48115  1  0  0  0
 49 50  1  0  0  0
 49 53  1  0  0  0
 49 64  1  0  0  0
 49116  1  0  0  0
 50 51  1  0  0  0
 50117  1  0  0  0
 50118  1  0  0  0
 51 52  1  0  0  0
 51119  1  0  0  0
 51120  1  0  0  0
 52121  1  0  0  0
 52122  1  0  0  0
 53 54  1  0  0  0
 54 55  2  0  0  0
 54123  1  0  0  0
 55 57  1  0  0  0
 55124  1  0  0  0
 56 69  2  0  0  0
 57 58  2  0  0  0
 57125  1  0  0  0
 58126  1  0  0  0
 59 60  1  0  0  0
 59 61  1  0  0  0
 59 62  1  0  0  0
 60127  1  0  0  0
 60128  1  0  0  0
 60129  1  0  0  0
 61130  1  0  0  0
 61131  1  0  0  0
 61132  1  0  0  0
 62133  1  0  0  0
 62134  1  0  0  0
 62135  1  0  0  0
 63 65  1  0  0  0
 63136  1  0  0  0
 63137  1  0  0  0
 63138  1  0  0  0
 64139  1  0  0  0
 65140  1  0  0  0
 68 78  1  0  0  0
 71 72  2  0  0  0
 71 73  1  0  0  0
 71141  1  0  0  0
 72 75  1  0  0  0
 72142  1  0  0  0
 73 76  2  0  0  0
 73143  1  0  0  0
 74 75  2  0  0  0
 74 76  1  0  0  0
 74144  1  0  0  0
 75 80  1  0  0  0
 76 81  1  0  0  0
 77145  1  0  0  0
 77146  1  0  0  0
 77147  1  0  0  0
 77 79  1  0  0  0
 78 79  1  0  0  0
 78148  1  0  0  0
 78149  1  0  0  0
 79 81  1  0  0  0
 79150  1  0  0  0
 80151  1  0  0  0
M  ISO  4   1 100  68 101  78 101  80 100
M  END
> <chiral flag>
0

> <version>
0

> <s_m_source_file>
/data/baiqing/PycharmProjects/Reinvent-master-3.2/result/LINK_invent/BTK/process_docking_weight1_custom_sum_contain_oxygen_bond_distance_aromatic_linkinvent_7_9_3/rearranged_h_0002.sdf

> <i_m_source_file_index>
66

> <r_mmod_Potential_Energy-OPLS-2005>
658.125793457031

> <r_mmod_Stretch_Energy-OPLS-2005>
332.626617431641

> <r_mmod_Bend_Energy-OPLS-2005>
284.623321533203

> <r_mmod_Torsional_Energy-OPLS-2005>
210.317642211914

> <r_mmod_Improper_Torsional_Energy-OPLS-2005>
4.49887561798096

> <r_mmod_Van_der_Waal_Energy-OPLS-2005>
136.243118286133

> <r_mmod_Electrostatic_Energy-OPLS-2005>
-357.635620117188

> <r_mmod_Solvation_Energy-OPLS-2005>
-209.649703979492

> <b_mmod_Minimization_Converged-OPLS-2005>
0

> <r_mmod_RMS_Derivative-OPLS-2005>
5.16045188903809

$$$$
66
                    3D
 Structure written by MMmdl.
151158  0  0  1  0            999 V2000
  -30.6553  -14.5615   20.5164 C   0  0  0  0  0  0
  -30.4343  -12.3448   19.4472 C   0  0  0  0  0  0
  -29.5058  -12.5000   18.2222 C   0  0  0  0  0  0
  -28.0269  -12.3522   18.6318 C   0  0  0  0  0  0
  -27.6599  -13.2100   19.8722 C   0  0  2  0  0  0
  -28.7030  -13.0341   21.0011 C   0  0  0  0  0  0
  -25.2584  -13.8162   20.5687 C   0  0  0  0  0  0
  -24.1839  -13.0436   20.9184 C   0  0  0  0  0  0
  -24.6399  -11.6904   20.8735 C   0  0  0  0  0  0
  -23.9065  -10.4291   21.0404 C   0  0  0  0  0  0
  -24.3613   -9.4209   21.9185 C   0  0  0  0  0  0
  -23.6290   -8.2244   22.0754 C   0  0  0  0  0  0
  -22.4274   -8.0280   21.3544 C   0  0  0  0  0  0
  -21.9908   -9.0255   20.4647 C   0  0  0  0  0  0
  -22.7234  -10.2136   20.3058 C   0  0  0  0  0  0
  -21.6852   -6.0737   22.5281 C   0  0  0  0  0  0
  -21.4013   -6.5642   23.8214 C   0  0  0  0  0  0
  -21.3659   -5.6793   24.9176 C   0  0  0  0  0  0
  -21.6042   -4.3056   24.7226 C   0  0  0  0  0  0
  -21.8819   -3.8149   23.4347 C   0  0  0  0  0  0
  -21.9193   -4.6966   22.3403 C   0  0  0  0  0  0
  -22.7864  -13.5235   21.1847 C   0  0  0  0  0  0
  -22.1662   -4.2151   21.0980 F   0  0  0  0  0  0
  -21.5628   -3.4539   25.7739 F   0  0  0  0  0  0
  -30.0293  -13.3503   20.4461 N   0  0  0  0  0  0
  -26.3021  -12.9338   20.3357 N   0  0  0  0  0  0
  -25.9330  -11.6495   20.5769 N   0  0  0  0  0  0
  -22.0500  -12.8230   22.0403 N   0  0  0  0  0  0
  -25.4306  -15.1882   20.4098 N   0  0  0  0  0  0
  -31.7943  -14.7459   20.0817 O   0  0  0  0  0  0
  -21.6637   -6.8878   21.4242 O   0  0  0  0  0  0
  -22.3554  -14.5544   20.6697 O   0  0  0  0  0  0
  -24.6214  -31.8639   23.2075 C   0  0  0  0  0  0
  -25.9085  -32.4801   23.8384 C   0  0  1  0  0  0
  -27.2255  -27.3712   20.1033 C   0  0  0  0  0  0
  -25.5919  -33.8602   24.2308 N   0  0  0  0  0  0
  -23.4114  -30.4896   21.5492 C   0  0  2  0  0  0
  -24.8565  -28.9542   20.1093 C   0  0  0  0  0  0
  -22.7445  -29.4644   22.4958 C   0  0  0  0  0  0
  -18.0278  -28.1380   22.8491 C   0  0  0  0  0  0
  -24.1487  -36.7311   23.2637 C   0  0  0  0  0  0
  -25.9475  -30.8102   21.3710 C   0  0  0  0  0  0
  -26.0215  -29.4415   20.7145 C   0  0  0  0  0  0
  -27.2071  -28.6586   20.7081 C   0  0  0  0  0  0
  -26.0402  -26.9304   19.4662 C   0  0  0  0  0  0
  -24.8648  -27.7015   19.4786 C   0  0  0  0  0  0
  -23.6224  -29.8285   20.1616 C   0  0  0  0  0  0
  -25.4106  -36.3097   24.0333 C   0  0  1  0  0  0
  -20.5876  -28.3678   23.1297 C   0  0  2  0  0  0
  -20.6771  -26.9407   22.5414 C   0  0  0  0  0  0
  -19.5748  -26.6385   21.5213 C   0  0  0  0  0  0
  -18.1926  -26.7925   22.1623 C   0  0  0  0  0  0
  -19.1531  -28.8844   23.2893 C   0  0  0  0  0  0
  -18.9454  -30.1447   23.8907 C   0  0  0  0  0  0
  -17.6457  -30.6586   24.0563 C   0  0  0  0  0  0
  -25.9042  -34.9465   23.5117 C   0  0  0  0  0  0
  -16.5347  -29.9089   23.6325 C   0  0  0  0  0  0
  -16.7266  -28.6504   23.0347 C   0  0  0  0  0  0
  -26.4492  -31.6591   25.0732 C   0  0  0  0  0  0
  -25.3750  -31.3715   26.1476 C   0  0  0  0  0  0
  -27.0327  -30.3021   24.6144 C   0  0  0  0  0  0
  -27.6054  -32.4318   25.7506 C   0  0  0  0  0  0
  -27.5575  -37.1810   24.8463 C   0  0  0  0  0  0
  -21.4166  -29.3041   22.3700 N   0  0  0  0  0  0
  -26.4286  -37.3783   23.9409 N   0  0  0  0  0  0
  -24.6785  -31.0701   22.1001 N   0  0  0  0  0  0
  -23.4196  -28.8175   23.3006 O   0  0  0  0  0  0
  -28.3648  -26.5671   20.1596 O   0  0  0  0  0  0
  -26.5600  -34.8920   22.4678 O   0  0  0  0  0  0
  -23.5393  -32.1416   23.7435 O   0  0  0  0  0  0
  -29.9427  -17.0084   20.3659 C   0  0  0  0  0  0
  -30.2398  -18.1042   21.4380 C   0  0  0  0  0  0
  -28.2075  -25.1343   19.9110 C   0  0  0  0  0  0
  -29.2662  -24.1793   20.5573 C   0  0  0  0  0  0
  -29.9175  -20.3642   20.4052 C   0  0  0  0  0  0
  -29.8174  -21.8260   20.9840 C   0  0  0  0  0  0
  -29.8654  -15.6054   20.8638 N   0  0  0  0  0  0
  -29.4912  -19.3441   21.3363 O   0  0  0  0  0  0
  -29.0968  -22.7873   20.1739 O   0  0  0  0  0  0
  -31.4781  -12.4560   19.1472 H   0  0  0  0  0  0
  -30.3514  -11.3425   19.8699 H   0  0  0  0  0  0
  -29.7587  -11.7587   17.4631 H   0  0  0  0  0  0
  -29.6633  -13.4758   17.7598 H   0  0  0  0  0  0
  -27.8494  -11.2980   18.8472 H   0  0  0  0  0  0
  -27.3765  -12.6041   17.7933 H   0  0  0  0  0  0
  -27.6900  -14.2503   19.5482 H   0  0  0  0  0  0
  -28.6939  -12.0094   21.3754 H   0  0  0  0  0  0
  -28.4608  -13.6637   21.8586 H   0  0  0  0  0  0
  -25.2760   -9.5685   22.4755 H   0  0  0  0  0  0
  -24.0002   -7.4637   22.7472 H   0  0  0  0  0  0
  -21.0840   -8.8774   19.8954 H   0  0  0  0  0  0
  -22.3696  -10.9673   19.6164 H   0  0  0  0  0  0
  -21.2005   -7.6149   23.9717 H   0  0  0  0  0  0
  -21.1480   -6.0523   25.9077 H   0  0  0  0  0  0
  -22.0598   -2.7611   23.2847 H   0  0  0  0  0  0
  -22.4113  -11.9886   22.4785 H   0  0  0  0  0  0
  -21.1121  -13.1263   22.2609 H   0  0  0  0  0  0
  -24.6640  -15.8434   20.5187 H   0  0  0  0  0  0
  -26.2817  -15.6270   20.0812 H   0  0  0  0  0  0
  -26.7157  -32.5488   23.1142 H   0  0  0  0  0  0
  -25.0089  -33.9756   25.0468 H   0  0  0  0  0  0
  -22.7027  -31.3087   21.4110 H   0  0  0  0  0  0
  -23.3738  -35.9655   23.3305 H   0  0  0  0  0  0
  -24.3581  -36.8924   22.2051 H   0  0  0  0  0  0
  -23.7254  -37.6523   23.6652 H   0  0  0  0  0  0
  -26.0704  -31.5737   20.6015 H   0  0  0  0  0  0
  -26.8328  -30.8610   21.9934 H   0  0  0  0  0  0
  -28.1002  -29.0266   21.1935 H   0  0  0  0  0  0
  -25.9945  -25.9816   18.9532 H   0  0  0  0  0  0
  -23.9737  -27.3260   18.9946 H   0  0  0  0  0  0
  -23.7382  -30.6078   19.4073 H   0  0  0  0  0  0
  -22.7435  -29.2556   19.8597 H   0  0  0  0  0  0
  -25.1283  -36.1955   25.0825 H   0  0  0  0  0  0
  -20.9968  -28.3250   24.1416 H   0  0  0  0  0  0
  -20.5675  -26.2286   23.3609 H   0  0  0  0  0  0
  -21.6641  -26.7445   22.1203 H   0  0  0  0  0  0
  -19.6911  -25.6300   21.1234 H   0  0  0  0  0  0
  -19.6685  -27.3205   20.6752 H   0  0  0  0  0  0
  -17.4196  -26.6671   21.4025 H   0  0  0  0  0  0
  -18.0322  -26.0066   22.9016 H   0  0  0  0  0  0
  -19.7933  -30.7257   24.2281 H   0  0  0  0  0  0
  -17.5015  -31.6265   24.5168 H   0  0  0  0  0  0
  -15.5351  -30.2995   23.7644 H   0  0  0  0  0  0
  -15.8663  -28.0830   22.7056 H   0  0  0  0  0  0
  -24.5923  -30.7058   25.7824 H   0  0  0  0  0  0
  -24.8950  -32.2878   26.4917 H   0  0  0  0  0  0
  -25.8105  -30.8896   27.0238 H   0  0  0  0  0  0
  -26.2885  -29.6782   24.1174 H   0  0  0  0  0  0
  -27.4053  -29.7258   25.4624 H   0  0  0  0  0  0
  -27.8744  -30.4323   23.9335 H   0  0  0  0  0  0
  -27.2656  -33.3602   26.2106 H   0  0  0  0  0  0
  -28.3859  -32.6902   25.0339 H   0  0  0  0  0  0
  -28.0726  -31.8432   26.5410 H   0  0  0  0  0  0
  -28.2595  -38.0105   24.7496 H   0  0  0  0  0  0
  -28.1067  -36.2633   24.6297 H   0  0  0  0  0  0
  -27.2294  -37.1473   25.8868 H   0  0  0  0  0  0
  -20.9327  -29.8783   21.6941 H   0  0  0  0  0  0
  -26.0170  -38.2861   24.1406 H   0  0  0  0  0  0
  -30.6541  -17.0949   19.5428 H   0  0  0  0  0  0
  -28.9678  -17.2228   19.9266 H   0  0  0  0  0  0
  -31.3103  -18.3080   21.4926 H   0  0  0  0  0  0
  -29.9771  -17.6939   22.4136 H   0  0  0  0  0  0
  -27.2444  -24.7911   20.2910 H   0  0  0  0  0  0
  -28.1973  -24.9789   18.8314 H   0  0  0  0  0  0
  -29.1932  -24.2677   21.6418 H   0  0  0  0  0  0
  -30.2711  -24.5014   20.2815 H   0  0  0  0  0  0
  -30.9434  -20.1789   20.0829 H   0  0  0  0  0  0
  -29.3018  -20.2769   19.5094 H   0  0  0  0  0  0
  -30.8295  -22.1951   21.1586 H   0  0  0  0  0  0
  -29.3415  -21.7928   21.9649 H   0  0  0  0  0  0
  -28.9732  -15.3399   21.2544 H   0  0  0  0  0  0
  1 25  1  0  0  0
  1 30  2  0  0  0
  1 77  1  0  0  0
  2  3  1  0  0  0
  2 25  1  0  0  0
  2 80  1  0  0  0
  2 81  1  0  0  0
  3  4  1  0  0  0
  3 82  1  0  0  0
  3 83  1  0  0  0
  4  5  1  0  0  0
  4 84  1  0  0  0
  4 85  1  0  0  0
  5  6  1  0  0  0
  5 26  1  0  0  0
  5 86  1  0  0  0
  6 25  1  0  0  0
  6 87  1  0  0  0
  6 88  1  0  0  0
  7  8  2  0  0  0
  7 26  1  0  0  0
  7 29  1  0  0  0
  8  9  1  0  0  0
  8 22  1  0  0  0
  9 10  1  0  0  0
  9 27  2  0  0  0
 10 11  2  0  0  0
 10 15  1  0  0  0
 11 12  1  0  0  0
 11 89  1  0  0  0
 12 13  2  0  0  0
 12 90  1  0  0  0
 13 14  1  0  0  0
 13 31  1  0  0  0
 14 15  2  0  0  0
 14 91  1  0  0  0
 15 92  1  0  0  0
 16 17  2  0  0  0
 16 21  1  0  0  0
 16 31  1  0  0  0
 17 18  1  0  0  0
 17 93  1  0  0  0
 18 19  2  0  0  0
 18 94  1  0  0  0
 19 20  1  0  0  0
 19 24  1  0  0  0
 20 21  2  0  0  0
 20 95  1  0  0  0
 21 23  1  0  0  0
 22 28  1  0  0  0
 22 32  2  0  0  0
 26 27  1  0  0  0
 28 96  1  0  0  0
 28 97  1  0  0  0
 29 98  1  0  0  0
 29 99  1  0  0  0
 33 34  1  0  0  0
 33 66  1  0  0  0
 33 70  2  0  0  0
 34 36  1  0  0  0
 34 59  1  0  0  0
 34100  1  0  0  0
 35 44  2  0  0  0
 35 45  1  0  0  0
 35 68  1  0  0  0
 36 56  1  0  0  0
 36101  1  0  0  0
 37 39  1  0  0  0
 37 47  1  0  0  0
 37 66  1  0  0  0
 37102  1  0  0  0
 38 43  2  0  0  0
 38 46  1  0  0  0
 38 47  1  0  0  0
 39 64  1  0  0  0
 39 67  2  0  0  0
 40 52  1  0  0  0
 40 53  2  0  0  0
 40 58  1  0  0  0
 41103  1  0  0  0
 41104  1  0  0  0
 41105  1  0  0  0
 41 48  1  0  0  0
 42 43  1  0  0  0
 42 66  1  0  0  0
 42106  1  0  0  0
 42107  1  0  0  0
 43 44  1  0  0  0
 44108  1  0  0  0
 45 46  2  0  0  0
 45109  1  0  0  0
 46110  1  0  0  0
 47111  1  0  0  0
 47112  1  0  0  0
 48 56  1  0  0  0
 48 65  1  0  0  0
 48113  1  0  0  0
 49 50  1  0  0  0
 49 53  1  0  0  0
 49 64  1  0  0  0
 49114  1  0  0  0
 50 51  1  0  0  0
 50115  1  0  0  0
 50116  1  0  0  0
 51 52  1  0  0  0
 51117  1  0  0  0
 51118  1  0  0  0
 52119  1  0  0  0
 52120  1  0  0  0
 53 54  1  0  0  0
 54 55  2  0  0  0
 54121  1  0  0  0
 55 57  1  0  0  0
 55122  1  0  0  0
 56 69  2  0  0  0
 57 58  2  0  0  0
 57123  1  0  0  0
 58124  1  0  0  0
 59 60  1  0  0  0
 59 61  1  0  0  0
 59 62  1  0  0  0
 60125  1  0  0  0
 60126  1  0  0  0
 60127  1  0  0  0
 61128  1  0  0  0
 61129  1  0  0  0
 61130  1  0  0  0
 62131  1  0  0  0
 62132  1  0  0  0
 62133  1  0  0  0
 63 65  1  0  0  0
 63134  1  0  0  0
 63135  1  0  0  0
 63136  1  0  0  0
 64137  1  0  0  0
 65138  1  0  0  0
 68 73  1  0  0  0
 71 72  1  0  0  0
 71 77  1  0  0  0
 71139  1  0  0  0
 71140  1  0  0  0
 72 78  1  0  0  0
 72141  1  0  0  0
 72142  1  0  0  0
 73 74  1  0  0  0
 73143  1  0  0  0
 73144  1  0  0  0
 74 79  1  0  0  0
 74145  1  0  0  0
 74146  1  0  0  0
 75 76  1  0  0  0
 75 78  1  0  0  0
 75147  1  0  0  0
 75148  1  0  0  0
 76 79  1  0  0  0
 76149  1  0  0  0
 76150  1  0  0  0
 77151  1  0  0  0
M  ISO  4   1 100  68 101  73 101  77 100
M  END
> <chiral flag>
0

> <version>
0

> <s_m_source_file>
/data/baiqing/PycharmProjects/Reinvent-master-3.2/result/LINK_invent/BTK/process_docking_weight1_custom_sum_contain_oxygen_bond_distance_aromatic_linkinvent_7_9_3/rearranged_h_0002.sdf

> <i_m_source_file_index>
67

> <r_mmod_Potential_Energy-OPLS-2005>
-33.6661491394043

> <r_mmod_Stretch_Energy-OPLS-2005>
54.1415176391602

> <r_mmod_Bend_Energy-OPLS-2005>
117.664672851562

> <r_mmod_Torsional_Energy-OPLS-2005>
224.785095214844

> <r_mmod_Improper_Torsional_Energy-OPLS-2005>
6.75608205795288

> <r_mmod_Van_der_Waal_Energy-OPLS-2005>
133.051956176758

> <r_mmod_Electrostatic_Energy-OPLS-2005>
-384.544891357422

> <r_mmod_Solvation_Energy-OPLS-2005>
-214.149185180664

> <b_mmod_Minimization_Converged-OPLS-2005>
0

> <r_mmod_RMS_Derivative-OPLS-2005>
0.78693014383316

$$$$
67
                    3D
 Structure written by MMmdl.
167175  0  0  1  0            999 V2000
  -30.7203  -14.4185   20.6409 C   0  0  0  0  0  0
  -30.4091  -12.3133   19.3817 C   0  0  0  0  0  0
  -29.4695  -12.5155   18.1782 C   0  0  0  0  0  0
  -27.9968  -12.3492   18.6032 C   0  0  0  0  0  0
  -27.6474  -13.1822   19.8634 C   0  0  2  0  0  0
  -28.6915  -12.9567   20.9761 C   0  0  0  0  0  0
  -25.2528  -13.8034   20.5616 C   0  0  0  0  0  0
  -24.1762  -13.0365   20.9156 C   0  0  0  0  0  0
  -24.6306  -11.6829   20.8748 C   0  0  0  0  0  0
  -23.8968  -10.4246   21.0422 C   0  0  0  0  0  0
  -24.3528   -9.4185   21.9210 C   0  0  0  0  0  0
  -23.6237   -8.2202   22.0791 C   0  0  0  0  0  0
  -22.4236   -8.0244   21.3562 C   0  0  0  0  0  0
  -21.9843   -9.0208   20.4672 C   0  0  0  0  0  0
  -22.7150  -10.2092   20.3068 C   0  0  0  0  0  0
  -21.6842   -6.0696   22.5292 C   0  0  0  0  0  0
  -21.4004   -6.5619   23.8212 C   0  0  0  0  0  0
  -21.3650   -5.6788   24.9182 C   0  0  0  0  0  0
  -21.6044   -4.3050   24.7238 C   0  0  0  0  0  0
  -21.8813   -3.8123   23.4371 C   0  0  0  0  0  0
  -21.9194   -4.6925   22.3423 C   0  0  0  0  0  0
  -22.7823  -13.5226   21.1840 C   0  0  0  0  0  0
  -22.1661   -4.2107   21.1002 F   0  0  0  0  0  0
  -21.5632   -3.4546   25.7758 F   0  0  0  0  0  0
  -30.0168  -13.2770   20.4192 N   0  0  0  0  0  0
  -26.2926  -12.9175   20.3328 N   0  0  0  0  0  0
  -25.9216  -11.6366   20.5762 N   0  0  0  0  0  0
  -22.0447  -12.8270   22.0427 N   0  0  0  0  0  0
  -25.4231  -15.1706   20.3980 N   0  0  0  0  0  0
  -31.8314  -14.6335   20.1481 O   0  0  0  0  0  0
  -21.6623   -6.8832   21.4245 O   0  0  0  0  0  0
  -22.3517  -14.5521   20.6673 O   0  0  0  0  0  0
  -24.6113  -31.8715   23.2078 C   0  0  0  0  0  0
  -25.9036  -32.4831   23.8374 C   0  0  1  0  0  0
  -27.2378  -27.4789   20.0810 C   0  0  0  0  0  0
  -25.5938  -33.8628   24.2326 N   0  0  0  0  0  0
  -23.3966  -30.4937   21.5465 C   0  0  2  0  0  0
  -24.8417  -28.9576   20.1171 C   0  0  0  0  0  0
  -22.7383  -29.4696   22.4966 C   0  0  0  0  0  0
  -18.0292  -28.1379   22.8512 C   0  0  0  0  0  0
  -24.1493  -36.7316   23.2637 C   0  0  0  0  0  0
  -25.9203  -30.8432   21.3594 C   0  0  0  0  0  0
  -25.9969  -29.4765   20.7173 C   0  0  0  0  0  0
  -27.1978  -28.7397   20.7070 C   0  0  0  0  0  0
  -26.0758  -26.9652   19.4725 C   0  0  0  0  0  0
  -24.8709  -27.6934   19.5002 C   0  0  0  0  0  0
  -23.6036  -29.8227   20.1625 C   0  0  0  0  0  0
  -25.4111  -36.3117   24.0342 C   0  0  1  0  0  0
  -20.5871  -28.3686   23.1307 C   0  0  2  0  0  0
  -20.6786  -26.9422   22.5414 C   0  0  0  0  0  0
  -19.5764  -26.6386   21.5225 C   0  0  0  0  0  0
  -18.1932  -26.7930   22.1623 C   0  0  0  0  0  0
  -19.1535  -28.8846   23.2911 C   0  0  0  0  0  0
  -18.9465  -30.1444   23.8934 C   0  0  0  0  0  0
  -17.6468  -30.6588   24.0577 C   0  0  0  0  0  0
  -25.9040  -34.9485   23.5118 C   0  0  0  0  0  0
  -16.5356  -29.9099   23.6327 C   0  0  0  0  0  0
  -16.7279  -28.6508   23.0358 C   0  0  0  0  0  0
  -26.4478  -31.6590   25.0687 C   0  0  0  0  0  0
  -25.3766  -31.3701   26.1449 C   0  0  0  0  0  0
  -27.0305  -30.3039   24.6032 C   0  0  0  0  0  0
  -27.6037  -32.4307   25.7482 C   0  0  0  0  0  0
  -27.5575  -37.1814   24.8469 C   0  0  0  0  0  0
  -21.4116  -29.3054   22.3701 N   0  0  0  0  0  0
  -26.4291  -37.3800   23.9414 N   0  0  0  0  0  0
  -24.6598  -31.0850   22.0958 N   0  0  0  0  0  0
  -23.4165  -28.8256   23.3012 O   0  0  0  0  0  0
  -28.4127  -26.7798   20.0055 O   0  0  0  0  0  0
  -26.5556  -34.8940   22.4650 O   0  0  0  0  0  0
  -23.5318  -32.1445   23.7497 O   0  0  0  0  0  0
  -28.2156  -16.8215   21.8689 C   0  0  0  0  0  0
  -28.9031  -16.5323   19.5511 C   0  0  0  0  0  0
  -27.2084  -17.7213   21.4602 C   0  0  0  0  0  0
  -27.8959  -17.4266   19.1464 C   0  0  0  0  0  0
  -29.0693  -16.2180   20.9202 C   0  0  0  0  0  0
  -27.0477  -18.0385   20.0885 C   0  0  0  0  0  0
  -23.7941  -22.0123   21.8105 C   0  0  0  0  0  0
  -23.4893  -21.5372   20.3803 C   0  0  0  0  0  0
  -24.5881  -20.7193   19.6644 C   0  0  0  0  0  0
  -26.6731  -24.4316   21.6951 C   0  0  0  0  0  0
  -27.9879  -24.5709   20.9112 C   0  0  0  0  0  0
  -25.8076  -23.3114   21.1137 C   0  0  0  0  0  0
  -25.2161  -19.5727   20.4720 C   0  0  0  0  0  0
  -28.6827  -25.9246   21.1087 C   0  0  0  0  0  0
  -30.1131  -15.3640   21.3770 N   0  0  0  0  0  0
  -24.7724  -22.8950   22.0457 N   0  0  0  0  0  0
  -23.0865  -21.6164   22.7350 O   0  0  0  0  0  0
  -26.1109  -18.9132   19.5860 O   0  0  0  0  0  0
  -31.4492  -12.4286   19.0686 H   0  0  0  0  0  0
  -30.3209  -11.2975   19.7684 H   0  0  0  0  0  0
  -29.7134  -11.8096   17.3838 H   0  0  0  0  0  0
  -29.6182  -13.5101   17.7564 H   0  0  0  0  0  0
  -27.8222  -11.2885   18.7940 H   0  0  0  0  0  0
  -27.3333  -12.6187   17.7816 H   0  0  0  0  0  0
  -27.6809  -14.2235   19.5585 H   0  0  0  0  0  0
  -28.6768  -11.9162   21.3022 H   0  0  0  0  0  0
  -28.4425  -13.5419   21.8618 H   0  0  0  0  0  0
  -25.2647   -9.5689   22.4806 H   0  0  0  0  0  0
  -23.9971   -7.4606   22.7515 H   0  0  0  0  0  0
  -21.0778   -8.8705   19.8988 H   0  0  0  0  0  0
  -22.3621  -10.9601   19.6141 H   0  0  0  0  0  0
  -21.1994   -7.6131   23.9699 H   0  0  0  0  0  0
  -21.1476   -6.0525   25.9085 H   0  0  0  0  0  0
  -22.0583   -2.7576   23.2895 H   0  0  0  0  0  0
  -22.4011  -11.9910   22.4808 H   0  0  0  0  0  0
  -21.1086  -13.1360   22.2593 H   0  0  0  0  0  0
  -24.6653  -15.8307   20.5198 H   0  0  0  0  0  0
  -26.3031  -15.6145   20.1627 H   0  0  0  0  0  0
  -26.7102  -32.5560   23.1138 H   0  0  0  0  0  0
  -25.0235  -33.9805   25.0571 H   0  0  0  0  0  0
  -22.6850  -31.3099   21.4073 H   0  0  0  0  0  0
  -23.3742  -35.9666   23.3322 H   0  0  0  0  0  0
  -24.3595  -36.8889   22.2045 H   0  0  0  0  0  0
  -23.7251  -37.6537   23.6626 H   0  0  0  0  0  0
  -26.0299  -31.6030   20.5843 H   0  0  0  0  0  0
  -26.8083  -30.8979   21.9770 H   0  0  0  0  0  0
  -28.0945  -29.1424   21.1577 H   0  0  0  0  0  0
  -26.1064  -26.0044   18.9786 H   0  0  0  0  0  0
  -23.9855  -27.2842   19.0324 H   0  0  0  0  0  0
  -23.7158  -30.5955   19.4007 H   0  0  0  0  0  0
  -22.7275  -29.2425   19.8652 H   0  0  0  0  0  0
  -25.1285  -36.1973   25.0831 H   0  0  0  0  0  0
  -20.9989  -28.3270   24.1418 H   0  0  0  0  0  0
  -20.5729  -26.2299   23.3602 H   0  0  0  0  0  0
  -21.6650  -26.7488   22.1186 H   0  0  0  0  0  0
  -19.6918  -25.6301   21.1245 H   0  0  0  0  0  0
  -19.6687  -27.3204   20.6757 H   0  0  0  0  0  0
  -17.4210  -26.6725   21.3996 H   0  0  0  0  0  0
  -18.0306  -26.0053   22.8996 H   0  0  0  0  0  0
  -19.7942  -30.7254   24.2296 H   0  0  0  0  0  0
  -17.5032  -31.6275   24.5166 H   0  0  0  0  0  0
  -15.5353  -30.3015   23.7625 H   0  0  0  0  0  0
  -15.8681  -28.0828   22.7056 H   0  0  0  0  0  0
  -24.5937  -30.7046   25.7788 H   0  0  0  0  0  0
  -24.8989  -32.2882   26.4887 H   0  0  0  0  0  0
  -25.8152  -30.8878   27.0193 H   0  0  0  0  0  0
  -26.2820  -29.6785   24.1156 H   0  0  0  0  0  0
  -27.4160  -29.7283   25.4452 H   0  0  0  0  0  0
  -27.8623  -30.4351   23.9108 H   0  0  0  0  0  0
  -27.2615  -33.3569   26.2109 H   0  0  0  0  0  0
  -28.3856  -32.6907   25.0338 H   0  0  0  0  0  0
  -28.0704  -31.8406   26.5381 H   0  0  0  0  0  0
  -28.2603  -38.0095   24.7503 H   0  0  0  0  0  0
  -28.1054  -36.2631   24.6312 H   0  0  0  0  0  0
  -27.2309  -37.1486   25.8874 H   0  0  0  0  0  0
  -20.9242  -29.8750   21.6918 H   0  0  0  0  0  0
  -26.0181  -38.2884   24.1381 H   0  0  0  0  0  0
  -28.3224  -16.6011   22.9214 H   0  0  0  0  0  0
  -29.5438  -16.1025   18.7932 H   0  0  0  0  0  0
  -26.5728  -18.1516   22.2197 H   0  0  0  0  0  0
  -27.7800  -17.6538   18.0953 H   0  0  0  0  0  0
  -23.2083  -22.3996   19.7757 H   0  0  0  0  0  0
  -22.5934  -20.9181   20.4324 H   0  0  0  0  0  0
  -25.3786  -21.3763   19.3062 H   0  0  0  0  0  0
  -24.1555  -20.3094   18.7526 H   0  0  0  0  0  0
  -26.1104  -25.3649   21.6890 H   0  0  0  0  0  0
  -26.9136  -24.2356   22.7406 H   0  0  0  0  0  0
  -27.8305  -24.3987   19.8447 H   0  0  0  0  0  0
  -28.6572  -23.7731   21.2351 H   0  0  0  0  0  0
  -26.4450  -22.4517   20.9054 H   0  0  0  0  0  0
  -25.3671  -23.6363   20.1691 H   0  0  0  0  0  0
  -24.4518  -18.8752   20.8175 H   0  0  0  0  0  0
  -25.7361  -19.9759   21.3412 H   0  0  0  0  0  0
  -28.4105  -26.3829   22.0611 H   0  0  0  0  0  0
  -29.7612  -25.7704   21.1412 H   0  0  0  0  0  0
  -30.7454  -15.8363   22.0064 H   0  0  0  0  0  0
  -24.8662  -23.2175   22.9996 H   0  0  0  0  0  0
  1 25  1  0  0  0
  1 30  2  0  0  0
  1 85  1  0  0  0
  2  3  1  0  0  0
  2 25  1  0  0  0
  2 89  1  0  0  0
  2 90  1  0  0  0
  3  4  1  0  0  0
  3 91  1  0  0  0
  3 92  1  0  0  0
  4  5  1  0  0  0
  4 93  1  0  0  0
  4 94  1  0  0  0
  5  6  1  0  0  0
  5 26  1  0  0  0
  5 95  1  0  0  0
  6 25  1  0  0  0
  6 96  1  0  0  0
  6 97  1  0  0  0
  7  8  2  0  0  0
  7 26  1  0  0  0
  7 29  1  0  0  0
  8  9  1  0  0  0
  8 22  1  0  0  0
  9 10  1  0  0  0
  9 27  2  0  0  0
 10 11  2  0  0  0
 10 15  1  0  0  0
 11 12  1  0  0  0
 11 98  1  0  0  0
 12 13  2  0  0  0
 12 99  1  0  0  0
 13 14  1  0  0  0
 13 31  1  0  0  0
 14 15  2  0  0  0
 14100  1  0  0  0
 15101  1  0  0  0
 16 17  2  0  0  0
 16 21  1  0  0  0
 16 31  1  0  0  0
 17 18  1  0  0  0
 17102  1  0  0  0
 18 19  2  0  0  0
 18103  1  0  0  0
 19 20  1  0  0  0
 19 24  1  0  0  0
 20 21  2  0  0  0
 20104  1  0  0  0
 21 23  1  0  0  0
 22 28  1  0  0  0
 22 32  2  0  0  0
 26 27  1  0  0  0
 28105  1  0  0  0
 28106  1  0  0  0
 29107  1  0  0  0
 29108  1  0  0  0
 33 34  1  0  0  0
 33 66  1  0  0  0
 33 70  2  0  0  0
 34 36  1  0  0  0
 34 59  1  0  0  0
 34109  1  0  0  0
 35 44  2  0  0  0
 35 45  1  0  0  0
 35 68  1  0  0  0
 36 56  1  0  0  0
 36110  1  0  0  0
 37 39  1  0  0  0
 37 47  1  0  0  0
 37 66  1  0  0  0
 37111  1  0  0  0
 38 43  2  0  0  0
 38 46  1  0  0  0
 38 47  1  0  0  0
 39 64  1  0  0  0
 39 67  2  0  0  0
 40 52  1  0  0  0
 40 53  2  0  0  0
 40 58  1  0  0  0
 41112  1  0  0  0
 41113  1  0  0  0
 41114  1  0  0  0
 41 48  1  0  0  0
 42 43  1  0  0  0
 42 66  1  0  0  0
 42115  1  0  0  0
 42116  1  0  0  0
 43 44  1  0  0  0
 44117  1  0  0  0
 45 46  2  0  0  0
 45118  1  0  0  0
 46119  1  0  0  0
 47120  1  0  0  0
 47121  1  0  0  0
 48 56  1  0  0  0
 48 65  1  0  0  0
 48122  1  0  0  0
 49 50  1  0  0  0
 49 53  1  0  0  0
 49 64  1  0  0  0
 49123  1  0  0  0
 50 51  1  0  0  0
 50124  1  0  0  0
 50125  1  0  0  0
 51 52  1  0  0  0
 51126  1  0  0  0
 51127  1  0  0  0
 52128  1  0  0  0
 52129  1  0  0  0
 53 54  1  0  0  0
 54 55  2  0  0  0
 54130  1  0  0  0
 55 57  1  0  0  0
 55131  1  0  0  0
 56 69  2  0  0  0
 57 58  2  0  0  0
 57132  1  0  0  0
 58133  1  0  0  0
 59 60  1  0  0  0
 59 61  1  0  0  0
 59 62  1  0  0  0
 60134  1  0  0  0
 60135  1  0  0  0
 60136  1  0  0  0
 61137  1  0  0  0
 61138  1  0  0  0
 61139  1  0  0  0
 62140  1  0  0  0
 62141  1  0  0  0
 62142  1  0  0  0
 63 65  1  0  0  0
 63143  1  0  0  0
 63144  1  0  0  0
 63145  1  0  0  0
 64146  1  0  0  0
 65147  1  0  0  0
 68 84  1  0  0  0
 71 73  2  0  0  0
 71 75  1  0  0  0
 71148  1  0  0  0
 72 74  1  0  0  0
 72 75  2  0  0  0
 72149  1  0  0  0
 73 76  1  0  0  0
 73150  1  0  0  0
 74 76  2  0  0  0
 74151  1  0  0  0
 75 85  1  0  0  0
 76 88  1  0  0  0
 77 78  1  0  0  0
 77 86  1  0  0  0
 77 87  2  0  0  0
 78 79  1  0  0  0
 78152  1  0  0  0
 78153  1  0  0  0
 79 83  1  0  0  0
 79154  1  0  0  0
 79155  1  0  0  0
 80 81  1  0  0  0
 80 82  1  0  0  0
 80156  1  0  0  0
 80157  1  0  0  0
 81 84  1  0  0  0
 81158  1  0  0  0
 81159  1  0  0  0
 82 86  1  0  0  0
 82160  1  0  0  0
 82161  1  0  0  0
 83 88  1  0  0  0
 83162  1  0  0  0
 83163  1  0  0  0
 84164  1  0  0  0
 84165  1  0  0  0
 85166  1  0  0  0
 86167  1  0  0  0
M  ISO  4   1 100  68 101  84 101  85 100
M  END
> <chiral flag>
0

> <version>
0

> <s_m_source_file>
/data/baiqing/PycharmProjects/Reinvent-master-3.2/result/LINK_invent/BTK/process_docking_weight1_custom_sum_contain_oxygen_bond_distance_aromatic_linkinvent_7_9_3/rearranged_h_0002.sdf

> <i_m_source_file_index>
68

> <r_mmod_Potential_Energy-OPLS-2005>
-104.804656982422

> <r_mmod_Stretch_Energy-OPLS-2005>
30.9335346221924

> <r_mmod_Bend_Energy-OPLS-2005>
111.670516967773

> <r_mmod_Torsional_Energy-OPLS-2005>
301.753387451172

> <r_mmod_Improper_Torsional_Energy-OPLS-2005>
5.36327171325684

> <r_mmod_Van_der_Waal_Energy-OPLS-2005>
144.648910522461

> <r_mmod_Electrostatic_Energy-OPLS-2005>
-489.988983154297

> <r_mmod_Solvation_Energy-OPLS-2005>
-219.129486083984

> <b_mmod_Minimization_Converged-OPLS-2005>
0

> <r_mmod_RMS_Derivative-OPLS-2005>
2.84252977371216

$$$$
68
                    3D
 Structure written by MMmdl.
148156  0  0  1  0            999 V2000
  -30.5066  -14.9122   20.4364 C   0  0  0  0  0  0
  -30.4572  -12.5594   19.4935 C   0  0  0  0  0  0
  -29.5282  -12.5199   18.2554 C   0  0  0  0  0  0
  -28.0576  -12.3117   18.6710 C   0  0  0  0  0  0
  -27.6394  -13.2328   19.8459 C   0  0  2  0  0  0
  -28.6827  -13.2097   20.9842 C   0  0  0  0  0  0
  -25.2503  -13.8179   20.5680 C   0  0  0  0  0  0
  -24.1804  -13.0432   20.9234 C   0  0  0  0  0  0
  -24.6391  -11.6909   20.8755 C   0  0  0  0  0  0
  -23.9061  -10.4290   21.0411 C   0  0  0  0  0  0
  -24.3611   -9.4205   21.9186 C   0  0  0  0  0  0
  -23.6288   -8.2238   22.0750 C   0  0  0  0  0  0
  -22.4271   -8.0275   21.3541 C   0  0  0  0  0  0
  -21.9904   -9.0252   20.4648 C   0  0  0  0  0  0
  -22.7230  -10.2135   20.3062 C   0  0  0  0  0  0
  -21.6854   -6.0729   22.5277 C   0  0  0  0  0  0
  -21.4013   -6.5632   23.8208 C   0  0  0  0  0  0
  -21.3661   -5.6786   24.9171 C   0  0  0  0  0  0
  -21.6045   -4.3047   24.7224 C   0  0  0  0  0  0
  -21.8820   -3.8140   23.4344 C   0  0  0  0  0  0
  -21.9192   -4.6957   22.3400 C   0  0  0  0  0  0
  -22.7825  -13.5222   21.1889 C   0  0  0  0  0  0
  -22.1662   -4.2144   21.0978 F   0  0  0  0  0  0
  -21.5632   -3.4531   25.7736 F   0  0  0  0  0  0
  -29.9671  -13.6300   20.4031 N   0  0  0  0  0  0
  -26.2923  -12.9383   20.3242 N   0  0  0  0  0  0
  -25.9319  -11.6532   20.5738 N   0  0  0  0  0  0
  -22.0468  -12.8219   22.0447 N   0  0  0  0  0  0
  -25.4177  -15.1897   20.4031 N   0  0  0  0  0  0
  -31.6939  -15.0568   20.1209 O   0  0  0  0  0  0
  -21.6638   -6.8871   21.4237 O   0  0  0  0  0  0
  -22.3514  -14.5527   20.6726 O   0  0  0  0  0  0
  -24.6416  -31.8453   23.1901 C   0  0  0  0  0  0
  -25.9200  -32.4701   23.8277 C   0  0  1  0  0  0
  -27.2194  -27.1518   20.1453 C   0  0  0  0  0  0
  -25.5965  -33.8506   24.2202 N   0  0  0  0  0  0
  -23.4439  -30.4666   21.5351 C   0  0  2  0  0  0
  -24.8937  -28.8974   20.1099 C   0  0  0  0  0  0
  -22.7560  -29.4552   22.4860 C   0  0  0  0  0  0
  -18.0312  -28.1393   22.8469 C   0  0  0  0  0  0
  -24.1494  -36.7247   23.2641 C   0  0  0  0  0  0
  -25.9996  -30.7244   21.3866 C   0  0  0  0  0  0
  -26.0718  -29.3381   20.7263 C   0  0  0  0  0  0
  -27.2360  -28.4820   20.7257 C   0  0  0  0  0  0
  -26.0120  -26.8101   19.4939 C   0  0  0  0  0  0
  -24.8768  -27.6464   19.4781 C   0  0  0  0  0  0
  -23.6696  -29.7981   20.1537 C   0  0  0  0  0  0
  -25.4127  -36.3034   24.0317 C   0  0  1  0  0  0
  -20.5919  -28.3710   23.1237 C   0  0  2  0  0  0
  -20.6792  -26.9413   22.5410 C   0  0  0  0  0  0
  -19.5774  -26.6379   21.5205 C   0  0  0  0  0  0
  -18.1953  -26.7936   22.1610 C   0  0  0  0  0  0
  -19.1566  -28.8871   23.2846 C   0  0  0  0  0  0
  -18.9483  -30.1470   23.8866 C   0  0  0  0  0  0
  -17.6479  -30.6586   24.0558 C   0  0  0  0  0  0
  -25.9073  -34.9409   23.5067 C   0  0  0  0  0  0
  -16.5370  -29.9077   23.6341 C   0  0  0  0  0  0
  -16.7296  -28.6502   23.0351 C   0  0  0  0  0  0
  -26.4529  -31.6562   25.0707 C   0  0  0  0  0  0
  -25.3724  -31.3768   26.1419 C   0  0  0  0  0  0
  -27.0377  -30.2956   24.6276 C   0  0  0  0  0  0
  -27.6086  -32.4308   25.7471 C   0  0  0  0  0  0
  -27.5583  -37.1776   24.8464 C   0  0  0  0  0  0
  -21.4255  -29.3039   22.3609 N   0  0  0  0  0  0
  -26.4289  -37.3749   23.9414 N   0  0  0  0  0  0
  -24.7147  -31.0329   22.0924 N   0  0  0  0  0  0
  -23.4217  -28.8100   23.2999 O   0  0  0  0  0  0
  -28.2775  -26.1735   20.2098 O   0  0  0  0  0  0
  -26.5645  -34.8903   22.4634 O   0  0  0  0  0  0
  -23.5543  -32.1324   23.7138 O   0  0  0  0  0  0
  -28.2153  -18.0953   20.7491 C   0  0  0  0  0  0
  -30.4833  -18.5413   20.2926 C   0  0  0  0  0  0
  -27.9193  -19.5039   20.6778 C   0  0  0  0  0  0
  -30.1796  -19.9799   20.2323 C   0  0  0  0  0  0
  -29.5053  -17.5105   20.5545 C   0  0  0  0  0  0
  -28.8633  -20.5436   20.4177 C   0  0  0  0  0  0
  -28.9684  -23.3056   20.2949 C   0  0  0  0  0  0
  -27.9754  -24.6526   20.0919 C   0  0  0  0  0  0
  -29.6169  -15.9865   20.6674 N   0  0  0  0  0  0
  -28.3409  -21.9105   20.3531 O   0  0  0  0  0  0
  -31.4885  -12.7346   19.1825 H   0  0  0  0  0  0
  -30.4604  -11.5956   20.0058 H   0  0  0  0  0  0
  -29.8405  -11.7242   17.5774 H   0  0  0  0  0  0
  -29.6216  -13.4520   17.6963 H   0  0  0  0  0  0
  -27.9473  -11.2684   18.9696 H   0  0  0  0  0  0
  -27.3947  -12.4547   17.8166 H   0  0  0  0  0  0
  -27.6179  -14.2430   19.4364 H   0  0  0  0  0  0
  -28.7602  -12.2129   21.4208 H   0  0  0  0  0  0
  -28.3848  -13.8728   21.7977 H   0  0  0  0  0  0
  -25.2756   -9.5682   22.4757 H   0  0  0  0  0  0
  -24.0001   -7.4627   22.7461 H   0  0  0  0  0  0
  -21.0838   -8.8770   19.8954 H   0  0  0  0  0  0
  -22.3684  -10.9672   19.6174 H   0  0  0  0  0  0
  -21.2003   -7.6140   23.9709 H   0  0  0  0  0  0
  -21.1487   -6.0516   25.9075 H   0  0  0  0  0  0
  -22.0599   -2.7601   23.2843 H   0  0  0  0  0  0
  -22.4081  -11.9886   22.4849 H   0  0  0  0  0  0
  -21.1085  -13.1247   22.2656 H   0  0  0  0  0  0
  -24.6341  -15.8285   20.4849 H   0  0  0  0  0  0
  -26.2245  -15.6094   19.9608 H   0  0  0  0  0  0
  -26.7255  -32.5312   23.0996 H   0  0  0  0  0  0
  -25.0126  -33.9625   25.0360 H   0  0  0  0  0  0
  -22.7454  -31.2921   21.3833 H   0  0  0  0  0  0
  -23.3765  -35.9568   23.3292 H   0  0  0  0  0  0
  -24.3585  -36.8891   22.2059 H   0  0  0  0  0  0
  -23.7234  -37.6436   23.6677 H   0  0  0  0  0  0
  -26.1556  -31.4817   20.6172 H   0  0  0  0  0  0
  -26.8696  -30.7724   22.0293 H   0  0  0  0  0  0
  -28.1328  -28.8166   21.2280 H   0  0  0  0  0  0
  -25.9048  -25.8561   19.0019 H   0  0  0  0  0  0
  -23.9779  -27.3044   18.9838 H   0  0  0  0  0  0
  -23.8045  -30.5736   19.3988 H   0  0  0  0  0  0
  -22.7847  -29.2399   19.8437 H   0  0  0  0  0  0
  -25.1317  -36.1861   25.0809 H   0  0  0  0  0  0
  -21.0016  -28.3300   24.1354 H   0  0  0  0  0  0
  -20.5666  -26.2323   23.3628 H   0  0  0  0  0  0
  -21.6663  -26.7413   22.1221 H   0  0  0  0  0  0
  -19.6932  -25.6284   21.1253 H   0  0  0  0  0  0
  -19.6722  -27.3173   20.6721 H   0  0  0  0  0  0
  -17.4228  -26.6678   21.4008 H   0  0  0  0  0  0
  -18.0350  -26.0083   22.9011 H   0  0  0  0  0  0
  -19.7958  -30.7296   24.2215 H   0  0  0  0  0  0
  -17.5033  -31.6263   24.5169 H   0  0  0  0  0  0
  -15.5368  -30.2966   23.7685 H   0  0  0  0  0  0
  -15.8700  -28.0816   22.7066 H   0  0  0  0  0  0
  -24.5925  -30.7071   25.7773 H   0  0  0  0  0  0
  -24.8874  -32.2948   26.4746 H   0  0  0  0  0  0
  -25.8030  -30.9039   27.0255 H   0  0  0  0  0  0
  -26.2979  -29.6681   24.1289 H   0  0  0  0  0  0
  -27.4002  -29.7261   25.4844 H   0  0  0  0  0  0
  -27.8892  -30.4194   23.9579 H   0  0  0  0  0  0
  -27.2718  -33.3642   26.1990 H   0  0  0  0  0  0
  -28.3920  -32.6807   25.0300 H   0  0  0  0  0  0
  -28.0715  -31.8451   26.5425 H   0  0  0  0  0  0
  -28.2603  -38.0072   24.7518 H   0  0  0  0  0  0
  -28.1082  -36.2608   24.6283 H   0  0  0  0  0  0
  -27.2305  -37.1418   25.8868 H   0  0  0  0  0  0
  -20.9454  -29.8756   21.6799 H   0  0  0  0  0  0
  -26.0160  -38.2816   24.1435 H   0  0  0  0  0  0
  -27.3841  -17.4389   20.9640 H   0  0  0  0  0  0
  -31.5080  -18.2375   20.1325 H   0  0  0  0  0  0
  -26.8912  -19.7983   20.8356 H   0  0  0  0  0  0
  -30.9941  -20.6580   20.0223 H   0  0  0  0  0  0
  -29.5285  -23.4334   21.2214 H   0  0  0  0  0  0
  -29.7148  -23.2995   19.5002 H   0  0  0  0  0  0
  -27.1411  -24.4904   20.7758 H   0  0  0  0  0  0
  -27.5573  -24.5134   19.0959 H   0  0  0  0  0  0
  -28.7281  -15.5826   20.9203 H   0  0  0  0  0  0
  1 25  1  0  0  0
  1 30  2  0  0  0
  1 79  1  0  0  0
  2  3  1  0  0  0
  2 25  1  0  0  0
  2 81  1  0  0  0
  2 82  1  0  0  0
  3  4  1  0  0  0
  3 83  1  0  0  0
  3 84  1  0  0  0
  4  5  1  0  0  0
  4 85  1  0  0  0
  4 86  1  0  0  0
  5  6  1  0  0  0
  5 26  1  0  0  0
  5 87  1  0  0  0
  6 25  1  0  0  0
  6 88  1  0  0  0
  6 89  1  0  0  0
  7  8  2  0  0  0
  7 26  1  0  0  0
  7 29  1  0  0  0
  8  9  1  0  0  0
  8 22  1  0  0  0
  9 10  1  0  0  0
  9 27  2  0  0  0
 10 11  2  0  0  0
 10 15  1  0  0  0
 11 12  1  0  0  0
 11 90  1  0  0  0
 12 13  2  0  0  0
 12 91  1  0  0  0
 13 14  1  0  0  0
 13 31  1  0  0  0
 14 15  2  0  0  0
 14 92  1  0  0  0
 15 93  1  0  0  0
 16 17  2  0  0  0
 16 21  1  0  0  0
 16 31  1  0  0  0
 17 18  1  0  0  0
 17 94  1  0  0  0
 18 19  2  0  0  0
 18 95  1  0  0  0
 19 20  1  0  0  0
 19 24  1  0  0  0
 20 21  2  0  0  0
 20 96  1  0  0  0
 21 23  1  0  0  0
 22 28  1  0  0  0
 22 32  2  0  0  0
 26 27  1  0  0  0
 28 97  1  0  0  0
 28 98  1  0  0  0
 29 99  1  0  0  0
 29100  1  0  0  0
 33 34  1  0  0  0
 33 66  1  0  0  0
 33 70  2  0  0  0
 34 36  1  0  0  0
 34 59  1  0  0  0
 34101  1  0  0  0
 35 44  2  0  0  0
 35 45  1  0  0  0
 35 68  1  0  0  0
 36 56  1  0  0  0
 36102  1  0  0  0
 37 39  1  0  0  0
 37 47  1  0  0  0
 37 66  1  0  0  0
 37103  1  0  0  0
 38 43  2  0  0  0
 38 46  1  0  0  0
 38 47  1  0  0  0
 39 64  1  0  0  0
 39 67  2  0  0  0
 40 52  1  0  0  0
 40 53  2  0  0  0
 40 58  1  0  0  0
 41104  1  0  0  0
 41105  1  0  0  0
 41106  1  0  0  0
 41 48  1  0  0  0
 42 43  1  0  0  0
 42 66  1  0  0  0
 42107  1  0  0  0
 42108  1  0  0  0
 43 44  1  0  0  0
 44109  1  0  0  0
 45 46  2  0  0  0
 45110  1  0  0  0
 46111  1  0  0  0
 47112  1  0  0  0
 47113  1  0  0  0
 48 56  1  0  0  0
 48 65  1  0  0  0
 48114  1  0  0  0
 49 50  1  0  0  0
 49 53  1  0  0  0
 49 64  1  0  0  0
 49115  1  0  0  0
 50 51  1  0  0  0
 50116  1  0  0  0
 50117  1  0  0  0
 51 52  1  0  0  0
 51118  1  0  0  0
 51119  1  0  0  0
 52120  1  0  0  0
 52121  1  0  0  0
 53 54  1  0  0  0
 54 55  2  0  0  0
 54122  1  0  0  0
 55 57  1  0  0  0
 55123  1  0  0  0
 56 69  2  0  0  0
 57 58  2  0  0  0
 57124  1  0  0  0
 58125  1  0  0  0
 59 60  1  0  0  0
 59 61  1  0  0  0
 59 62  1  0  0  0
 60126  1  0  0  0
 60127  1  0  0  0
 60128  1  0  0  0
 61129  1  0  0  0
 61130  1  0  0  0
 61131  1  0  0  0
 62132  1  0  0  0
 62133  1  0  0  0
 62134  1  0  0  0
 63 65  1  0  0  0
 63135  1  0  0  0
 63136  1  0  0  0
 63137  1  0  0  0
 64138  1  0  0  0
 65139  1  0  0  0
 68 78  1  0  0  0
 71 73  2  0  0  0
 71 75  1  0  0  0
 71140  1  0  0  0
 72 74  1  0  0  0
 72 75  2  0  0  0
 72141  1  0  0  0
 73 76  1  0  0  0
 73142  1  0  0  0
 74 76  2  0  0  0
 74143  1  0  0  0
 75 79  1  0  0  0
 76 80  1  0  0  0
 77 78  1  0  0  0
 77 80  1  0  0  0
 77144  1  0  0  0
 77145  1  0  0  0
 78146  1  0  0  0
 78147  1  0  0  0
 79148  1  0  0  0
M  ISO  4   1 100  68 101  78 101  79 100
M  END
> <chiral flag>
0

> <version>
0

> <s_m_source_file>
/data/baiqing/PycharmProjects/Reinvent-master-3.2/result/LINK_invent/BTK/process_docking_weight1_custom_sum_contain_oxygen_bond_distance_aromatic_linkinvent_7_9_3/rearranged_h_0002.sdf

> <i_m_source_file_index>
69

> <r_mmod_Potential_Energy-OPLS-2005>
453.292022705078

> <r_mmod_Stretch_Energy-OPLS-2005>
216.148208618164

> <r_mmod_Bend_Energy-OPLS-2005>
303.559814453125

> <r_mmod_Torsional_Energy-OPLS-2005>
210.8935546875

> <r_mmod_Improper_Torsional_Energy-OPLS-2005>
4.47378873825073

> <r_mmod_Van_der_Waal_Energy-OPLS-2005>
131.151794433594

> <r_mmod_Electrostatic_Energy-OPLS-2005>
-373.256744384766

> <r_mmod_Solvation_Energy-OPLS-2005>
-214.08235168457

> <b_mmod_Minimization_Converged-OPLS-2005>
0

> <r_mmod_RMS_Derivative-OPLS-2005>
0.848834156990051

$$$$
69
                    3D
 Structure written by MMmdl.
160168  0  0  1  0            999 V2000
  -30.7108  -14.4336   20.6080 C   0  0  0  0  0  0
  -30.4189  -12.3065   19.3895 C   0  0  0  0  0  0
  -29.4822  -12.4844   18.1789 C   0  0  0  0  0  0
  -28.0019  -12.3518   18.5947 C   0  0  0  0  0  0
  -27.6490  -13.2004   19.8474 C   0  0  2  0  0  0
  -28.6902  -12.9856   20.9636 C   0  0  0  0  0  0
  -25.2593  -13.8163   20.5642 C   0  0  0  0  0  0
  -24.1835  -13.0458   20.9176 C   0  0  0  0  0  0
  -24.6345  -11.6918   20.8695 C   0  0  0  0  0  0
  -23.9004  -10.4311   21.0379 C   0  0  0  0  0  0
  -24.3582   -9.4241   21.9143 C   0  0  0  0  0  0
  -23.6299   -8.2263   22.0716 C   0  0  0  0  0  0
  -22.4273   -8.0273   21.3516 C   0  0  0  0  0  0
  -21.9875   -9.0236   20.4604 C   0  0  0  0  0  0
  -22.7187  -10.2131   20.3029 C   0  0  0  0  0  0
  -21.6871   -6.0716   22.5275 C   0  0  0  0  0  0
  -21.4027   -6.5624   23.8203 C   0  0  0  0  0  0
  -21.3666   -5.6775   24.9163 C   0  0  0  0  0  0
  -21.6062   -4.3039   24.7206 C   0  0  0  0  0  0
  -21.8820   -3.8123   23.4332 C   0  0  0  0  0  0
  -21.9207   -4.6947   22.3388 C   0  0  0  0  0  0
  -22.7875  -13.5268   21.1866 C   0  0  0  0  0  0
  -22.1682   -4.2143   21.0967 F   0  0  0  0  0  0
  -21.5632   -3.4517   25.7713 F   0  0  0  0  0  0
  -30.0149  -13.2891   20.3981 N   0  0  0  0  0  0
  -26.2949  -12.9300   20.3203 N   0  0  0  0  0  0
  -25.9255  -11.6461   20.5657 N   0  0  0  0  0  0
  -22.0516  -12.8228   22.0402 N   0  0  0  0  0  0
  -25.4414  -15.1873   20.4089 N   0  0  0  0  0  0
  -31.8646  -14.6178   20.2109 O   0  0  0  0  0  0
  -21.6658   -6.8867   21.4230 O   0  0  0  0  0  0
  -22.3548  -14.5564   20.6722 O   0  0  0  0  0  0
  -24.6151  -31.8671   23.2063 C   0  0  0  0  0  0
  -25.9036  -32.4814   23.8383 C   0  0  1  0  0  0
  -27.2426  -27.4289   20.0886 C   0  0  0  0  0  0
  -25.5891  -33.8613   24.2324 N   0  0  0  0  0  0
  -23.4042  -30.4869   21.5484 C   0  0  2  0  0  0
  -24.8513  -28.9484   20.1165 C   0  0  0  0  0  0
  -22.7401  -29.4676   22.5005 C   0  0  0  0  0  0
  -18.0300  -28.1360   22.8488 C   0  0  0  0  0  0
  -24.1474  -36.7298   23.2645 C   0  0  0  0  0  0
  -25.9321  -30.8308   21.3581 C   0  0  0  0  0  0
  -26.0114  -29.4623   20.7075 C   0  0  0  0  0  0
  -27.2100  -28.7108   20.6878 C   0  0  0  0  0  0
  -26.0648  -26.9331   19.4865 C   0  0  0  0  0  0
  -24.8736  -27.6829   19.5027 C   0  0  0  0  0  0
  -23.6102  -29.8118   20.1665 C   0  0  0  0  0  0
  -25.4097  -36.3116   24.0350 C   0  0  1  0  0  0
  -20.5869  -28.3676   23.1357 C   0  0  2  0  0  0
  -20.6805  -26.9422   22.5414 C   0  0  0  0  0  0
  -19.5805  -26.6435   21.5197 C   0  0  0  0  0  0
  -18.1980  -26.7911   22.1610 C   0  0  0  0  0  0
  -19.1526  -28.8828   23.2935 C   0  0  0  0  0  0
  -18.9410  -30.1415   23.8968 C   0  0  0  0  0  0
  -17.6397  -30.6529   24.0588 C   0  0  0  0  0  0
  -25.9016  -34.9479   23.5131 C   0  0  0  0  0  0
  -16.5316  -29.9033   23.6291 C   0  0  0  0  0  0
  -16.7275  -28.6458   23.0310 C   0  0  0  0  0  0
  -26.4451  -31.6604   25.0719 C   0  0  0  0  0  0
  -25.3716  -31.3704   26.1467 C   0  0  0  0  0  0
  -27.0284  -30.3066   24.6074 C   0  0  0  0  0  0
  -27.6038  -32.4329   25.7463 C   0  0  0  0  0  0
  -27.5564  -37.1811   24.8475 C   0  0  0  0  0  0
  -21.4112  -29.3087   22.3783 N   0  0  0  0  0  0
  -26.4280  -37.3801   23.9419 N   0  0  0  0  0  0
  -24.6692  -31.0761   22.0964 N   0  0  0  0  0  0
  -23.4163  -28.8217   23.3052 O   0  0  0  0  0  0
  -28.4182  -26.7027   20.0864 O   0  0  0  0  0  0
  -26.5592  -34.8938   22.4694 O   0  0  0  0  0  0
  -23.5352  -32.1426   23.7439 O   0  0  0  0  0  0
  -30.5707  -17.6479   24.6659 C   0  0  0  0  0  0
  -31.0130  -16.3198   24.5594 C   0  0  0  0  0  0
  -29.9810  -18.2843   23.5583 C   0  0  0  0  0  0
  -30.8536  -15.6288   23.3474 C   0  0  0  0  0  0
  -29.8089  -17.6101   22.3240 C   0  0  0  0  0  0
  -30.2469  -16.2503   22.2269 C   0  0  0  0  0  0
  -29.1082  -18.3433   21.1955 C   0  0  0  0  0  0
  -28.3008  -22.9212   19.2201 C   0  0  0  0  0  0
  -29.0328  -22.0348   20.2590 C   0  0  0  0  0  0
  -28.7212  -24.4152   19.1450 C   0  0  0  0  0  0
  -28.7337  -20.5250   20.0669 C   0  0  0  0  0  0
  -28.3262  -25.2902   20.3555 C   0  0  0  0  0  0
  -29.9754  -15.4509   21.0799 N   0  0  0  0  0  0
  -29.3496  -19.6637   21.0828 N   0  0  0  0  0  0
  -28.3679  -17.7452   20.4091 O   0  0  0  0  0  0
  -31.4580  -12.4297   19.0841 H   0  0  0  0  0  0
  -30.3357  -11.3011   19.8040 H   0  0  0  0  0  0
  -29.7142  -11.7422   17.4134 H   0  0  0  0  0  0
  -29.6503  -13.4613   17.7237 H   0  0  0  0  0  0
  -27.8073  -11.2953   18.7917 H   0  0  0  0  0  0
  -27.3538  -12.6267   17.7605 H   0  0  0  0  0  0
  -27.6858  -14.2441   19.5323 H   0  0  0  0  0  0
  -28.6741  -11.9530   21.3156 H   0  0  0  0  0  0
  -28.4461  -13.5992   21.8326 H   0  0  0  0  0  0
  -25.2740   -9.5758   22.4683 H   0  0  0  0  0  0
  -24.0044   -7.4648   22.7405 H   0  0  0  0  0  0
  -21.0828   -8.8729   19.8882 H   0  0  0  0  0  0
  -22.3637  -10.9654   19.6120 H   0  0  0  0  0  0
  -21.2019   -7.6124   23.9698 H   0  0  0  0  0  0
  -21.1502   -6.0498   25.9062 H   0  0  0  0  0  0
  -22.0592   -2.7591   23.2827 H   0  0  0  0  0  0
  -22.4186  -11.9928   22.4810 H   0  0  0  0  0  0
  -21.1088  -13.1179   22.2540 H   0  0  0  0  0  0
  -24.6959  -15.8595   20.5525 H   0  0  0  0  0  0
  -26.3030  -15.6172   20.0937 H   0  0  0  0  0  0
  -26.7093  -32.5541   23.1140 H   0  0  0  0  0  0
  -25.0071  -33.9766   25.0496 H   0  0  0  0  0  0
  -22.6974  -31.3076   21.4052 H   0  0  0  0  0  0
  -23.3731  -35.9631   23.3329 H   0  0  0  0  0  0
  -24.3569  -36.8875   22.2051 H   0  0  0  0  0  0
  -23.7200  -37.6508   23.6627 H   0  0  0  0  0  0
  -26.0399  -31.5943   20.5857 H   0  0  0  0  0  0
  -26.8203  -30.8881   21.9747 H   0  0  0  0  0  0
  -28.1085  -29.1080   21.1384 H   0  0  0  0  0  0
  -26.0667  -25.9736   18.9887 H   0  0  0  0  0  0
  -23.9828  -27.2867   19.0355 H   0  0  0  0  0  0
  -23.7093  -30.5820   19.4014 H   0  0  0  0  0  0
  -22.7362  -29.2256   19.8802 H   0  0  0  0  0  0
  -25.1256  -36.1988   25.0840 H   0  0  0  0  0  0
  -20.9925  -28.3212   24.1498 H   0  0  0  0  0  0
  -20.5712  -26.2267   23.3574 H   0  0  0  0  0  0
  -21.6707  -26.7487   22.1256 H   0  0  0  0  0  0
  -19.6967  -25.6378   21.1169 H   0  0  0  0  0  0
  -19.6736  -27.3295   20.6762 H   0  0  0  0  0  0
  -17.4246  -26.6579   21.4033 H   0  0  0  0  0  0
  -18.0440  -26.0054   22.9014 H   0  0  0  0  0  0
  -19.7837  -30.7235   24.2400 H   0  0  0  0  0  0
  -17.4901  -31.6189   24.5216 H   0  0  0  0  0  0
  -15.5304  -30.2904   23.7584 H   0  0  0  0  0  0
  -15.8691  -28.0762   22.6998 H   0  0  0  0  0  0
  -24.5875  -30.7069   25.7785 H   0  0  0  0  0  0
  -24.8926  -32.2868   26.4943 H   0  0  0  0  0  0
  -25.8071  -30.8844   27.0207 H   0  0  0  0  0  0
  -26.2832  -29.6844   24.1102 H   0  0  0  0  0  0
  -27.4042  -29.7276   25.4514 H   0  0  0  0  0  0
  -27.8662  -30.4400   23.9227 H   0  0  0  0  0  0
  -27.2657  -33.3611   26.2079 H   0  0  0  0  0  0
  -28.3811  -32.6917   25.0260 H   0  0  0  0  0  0
  -28.0746  -31.8438   26.5341 H   0  0  0  0  0  0
  -28.2609  -38.0085   24.7503 H   0  0  0  0  0  0
  -28.1034  -36.2618   24.6320 H   0  0  0  0  0  0
  -27.2298  -37.1481   25.8888 H   0  0  0  0  0  0
  -20.9221  -29.8864   21.7091 H   0  0  0  0  0  0
  -26.0171  -38.2875   24.1441 H   0  0  0  0  0  0
  -30.6727  -18.1742   25.6054 H   0  0  0  0  0  0
  -31.4458  -15.8229   25.4174 H   0  0  0  0  0  0
  -29.6264  -19.2986   23.6751 H   0  0  0  0  0  0
  -31.1556  -14.5905   23.3147 H   0  0  0  0  0  0
  -27.2215  -22.8555   19.3734 H   0  0  0  0  0  0
  -28.4733  -22.4904   18.2326 H   0  0  0  0  0  0
  -28.7429  -22.3457   21.2630 H   0  0  0  0  0  0
  -30.1092  -22.2010   20.1842 H   0  0  0  0  0  0
  -28.2434  -24.8405   18.2610 H   0  0  0  0  0  0
  -29.7941  -24.4898   18.9644 H   0  0  0  0  0  0
  -29.0809  -20.2069   19.0792 H   0  0  0  0  0  0
  -27.6542  -20.3547   20.0831 H   0  0  0  0  0  0
  -29.0106  -25.0760   21.1758 H   0  0  0  0  0  0
  -27.3404  -25.0043   20.7254 H   0  0  0  0  0  0
  -29.0027  -15.4296   20.8096 H   0  0  0  0  0  0
  -29.9780  -20.0835   21.7553 H   0  0  0  0  0  0
  1 25  1  0  0  0
  1 30  2  0  0  0
  1 83  1  0  0  0
  2  3  1  0  0  0
  2 25  1  0  0  0
  2 86  1  0  0  0
  2 87  1  0  0  0
  3  4  1  0  0  0
  3 88  1  0  0  0
  3 89  1  0  0  0
  4  5  1  0  0  0
  4 90  1  0  0  0
  4 91  1  0  0  0
  5  6  1  0  0  0
  5 26  1  0  0  0
  5 92  1  0  0  0
  6 25  1  0  0  0
  6 93  1  0  0  0
  6 94  1  0  0  0
  7  8  2  0  0  0
  7 26  1  0  0  0
  7 29  1  0  0  0
  8  9  1  0  0  0
  8 22  1  0  0  0
  9 10  1  0  0  0
  9 27  2  0  0  0
 10 11  2  0  0  0
 10 15  1  0  0  0
 11 12  1  0  0  0
 11 95  1  0  0  0
 12 13  2  0  0  0
 12 96  1  0  0  0
 13 14  1  0  0  0
 13 31  1  0  0  0
 14 15  2  0  0  0
 14 97  1  0  0  0
 15 98  1  0  0  0
 16 17  2  0  0  0
 16 21  1  0  0  0
 16 31  1  0  0  0
 17 18  1  0  0  0
 17 99  1  0  0  0
 18 19  2  0  0  0
 18100  1  0  0  0
 19 20  1  0  0  0
 19 24  1  0  0  0
 20 21  2  0  0  0
 20101  1  0  0  0
 21 23  1  0  0  0
 22 28  1  0  0  0
 22 32  2  0  0  0
 26 27  1  0  0  0
 28102  1  0  0  0
 28103  1  0  0  0
 29104  1  0  0  0
 29105  1  0  0  0
 33 34  1  0  0  0
 33 66  1  0  0  0
 33 70  2  0  0  0
 34 36  1  0  0  0
 34 59  1  0  0  0
 34106  1  0  0  0
 35 44  2  0  0  0
 35 45  1  0  0  0
 35 68  1  0  0  0
 36 56  1  0  0  0
 36107  1  0  0  0
 37 39  1  0  0  0
 37 47  1  0  0  0
 37 66  1  0  0  0
 37108  1  0  0  0
 38 43  2  0  0  0
 38 46  1  0  0  0
 38 47  1  0  0  0
 39 64  1  0  0  0
 39 67  2  0  0  0
 40 52  1  0  0  0
 40 53  2  0  0  0
 40 58  1  0  0  0
 41109  1  0  0  0
 41110  1  0  0  0
 41111  1  0  0  0
 41 48  1  0  0  0
 42 43  1  0  0  0
 42 66  1  0  0  0
 42112  1  0  0  0
 42113  1  0  0  0
 43 44  1  0  0  0
 44114  1  0  0  0
 45 46  2  0  0  0
 45115  1  0  0  0
 46116  1  0  0  0
 47117  1  0  0  0
 47118  1  0  0  0
 48 56  1  0  0  0
 48 65  1  0  0  0
 48119  1  0  0  0
 49 50  1  0  0  0
 49 53  1  0  0  0
 49 64  1  0  0  0
 49120  1  0  0  0
 50 51  1  0  0  0
 50121  1  0  0  0
 50122  1  0  0  0
 51 52  1  0  0  0
 51123  1  0  0  0
 51124  1  0  0  0
 52125  1  0  0  0
 52126  1  0  0  0
 53 54  1  0  0  0
 54 55  2  0  0  0
 54127  1  0  0  0
 55 57  1  0  0  0
 55128  1  0  0  0
 56 69  2  0  0  0
 57 58  2  0  0  0
 57129  1  0  0  0
 58130  1  0  0  0
 59 60  1  0  0  0
 59 61  1  0  0  0
 59 62  1  0  0  0
 60131  1  0  0  0
 60132  1  0  0  0
 60133  1  0  0  0
 61134  1  0  0  0
 61135  1  0  0  0
 61136  1  0  0  0
 62137  1  0  0  0
 62138  1  0  0  0
 62139  1  0  0  0
 63 65  1  0  0  0
 63140  1  0  0  0
 63141  1  0  0  0
 63142  1  0  0  0
 64143  1  0  0  0
 65144  1  0  0  0
 68 82  1  0  0  0
 71 72  2  0  0  0
 71 73  1  0  0  0
 71145  1  0  0  0
 72 74  1  0  0  0
 72146  1  0  0  0
 73 75  2  0  0  0
 73147  1  0  0  0
 74 76  2  0  0  0
 74148  1  0  0  0
 75 76  1  0  0  0
 75 77  1  0  0  0
 76 83  1  0  0  0
 77 84  1  0  0  0
 77 85  2  0  0  0
 78 79  1  0  0  0
 78 80  1  0  0  0
 78149  1  0  0  0
 78150  1  0  0  0
 79 81  1  0  0  0
 79151  1  0  0  0
 79152  1  0  0  0
 80 82  1  0  0  0
 80153  1  0  0  0
 80154  1  0  0  0
 81 84  1  0  0  0
 81155  1  0  0  0
 81156  1  0  0  0
 82157  1  0  0  0
 82158  1  0  0  0
 83159  1  0  0  0
 84160  1  0  0  0
M  ISO  4   1 100  68 101  82 101  83 100
M  END
> <chiral flag>
0

> <version>
0

> <s_m_source_file>
/data/baiqing/PycharmProjects/Reinvent-master-3.2/result/LINK_invent/BTK/process_docking_weight1_custom_sum_contain_oxygen_bond_distance_aromatic_linkinvent_7_9_3/rearranged_h_0002.sdf

> <i_m_source_file_index>
70

> <r_mmod_Potential_Energy-OPLS-2005>
6.08644962310791

> <r_mmod_Stretch_Energy-OPLS-2005>
38.2985649108887

> <r_mmod_Bend_Energy-OPLS-2005>
96.7703475952148

> <r_mmod_Torsional_Energy-OPLS-2005>
267.7568359375

> <r_mmod_Improper_Torsional_Energy-OPLS-2005>
6.35419845581055

> <r_mmod_Van_der_Waal_Energy-OPLS-2005>
154.156433105469

> <r_mmod_Electrostatic_Energy-OPLS-2005>
-356.661529541016

> <r_mmod_Solvation_Energy-OPLS-2005>
-215.617156982422

> <b_mmod_Minimization_Converged-OPLS-2005>
0

> <r_mmod_RMS_Derivative-OPLS-2005>
3.89733791351318

$$$$
70
                    3D
 Structure written by MMmdl.
141149  0  0  1  0            999 V2000
  -30.0996  -16.1278   20.2933 C   0  0  0  0  0  0
  -30.3832  -13.4557   19.5445 C   0  0  0  0  0  0
  -29.5696  -12.7948   18.3771 C   0  0  0  0  0  0
  -28.1854  -12.3278   18.8420 C   0  0  0  0  0  0
  -27.5827  -13.3611   19.8112 C   0  0  2  0  0  0
  -28.5622  -13.8923   20.8994 C   0  0  0  0  0  0
  -25.2245  -13.8357   20.5865 C   0  0  0  0  0  0
  -24.1689  -13.0438   20.9319 C   0  0  0  0  0  0
  -24.6462  -11.6972   20.8754 C   0  0  0  0  0  0
  -23.9169  -10.4299   21.0373 C   0  0  0  0  0  0
  -24.3683   -9.4212   21.9167 C   0  0  0  0  0  0
  -23.6331   -8.2259   22.0753 C   0  0  0  0  0  0
  -22.4310   -8.0298   21.3547 C   0  0  0  0  0  0
  -21.9965   -9.0272   20.4641 C   0  0  0  0  0  0
  -22.7323  -10.2138   20.3037 C   0  0  0  0  0  0
  -21.6863   -6.0749   22.5279 C   0  0  0  0  0  0
  -21.4021   -6.5648   23.8213 C   0  0  0  0  0  0
  -21.3666   -5.6796   24.9172 C   0  0  0  0  0  0
  -21.6044   -4.3058   24.7219 C   0  0  0  0  0  0
  -21.8817   -3.8155   23.4339 C   0  0  0  0  0  0
  -21.9196   -4.6974   22.3397 C   0  0  0  0  0  0
  -22.7687  -13.5129   21.1931 C   0  0  0  0  0  0
  -22.1664   -4.2159   21.0974 F   0  0  0  0  0  0
  -21.5628   -3.4539   25.7732 F   0  0  0  0  0  0
  -29.6522  -14.6704   20.2170 N   0  0  0  0  0  0
  -26.2765  -12.9795   20.3316 N   0  0  0  0  0  0
  -25.9436  -11.6806   20.5676 N   0  0  0  0  0  0
  -22.0364  -12.8097   22.0484 N   0  0  0  0  0  0
  -25.3740  -15.2107   20.4305 N   0  0  0  0  0  0
  -31.3470  -16.0009   20.1853 O   0  0  0  0  0  0
  -21.6658   -6.8903   21.4246 O   0  0  0  0  0  0
  -22.3347  -14.5416   20.6758 O   0  0  0  0  0  0
  -24.7147  -31.7601   23.1231 C   0  0  0  0  0  0
  -25.9565  -32.4273   23.7902 C   0  0  1  0  0  0
  -27.2411  -26.3562   20.2530 C   0  0  0  0  0  0
  -25.6001  -33.8119   24.1750 N   0  0  0  0  0  0
  -23.5566  -30.3453   21.4856 C   0  0  2  0  0  0
  -25.0164  -28.6102   20.1314 C   0  0  0  0  0  0
  -22.7905  -29.4094   22.4624 C   0  0  0  0  0  0
  -18.0356  -28.1437   22.8437 C   0  0  0  0  0  0
  -24.1501  -36.7082   23.2668 C   0  0  0  0  0  0
  -26.1487  -30.3764   21.4420 C   0  0  0  0  0  0
  -26.2080  -28.9009   20.8041 C   0  0  0  0  0  0
  -27.2841  -27.8129   20.8239 C   0  0  0  0  0  0
  -26.0167  -26.3654   19.5087 C   0  0  0  0  0  0
  -24.9800  -27.3714   19.4593 C   0  0  0  0  0  0
  -23.8300  -29.6091   20.1365 C   0  0  0  0  0  0
  -25.4169  -36.2789   24.0255 C   0  0  1  0  0  0
  -20.6007  -28.3810   23.1083 C   0  0  2  0  0  0
  -20.6807  -26.9438   22.5414 C   0  0  0  0  0  0
  -19.5789  -26.6357   21.5225 C   0  0  0  0  0  0
  -18.1968  -26.7959   22.1612 C   0  0  0  0  0  0
  -19.1629  -28.8956   23.2733 C   0  0  0  0  0  0
  -18.9530  -30.1532   23.8794 C   0  0  0  0  0  0
  -17.6516  -30.6612   24.0543 C   0  0  0  0  0  0
  -25.9156  -34.9182   23.4868 C   0  0  0  0  0  0
  -16.5404  -29.9088   23.6357 C   0  0  0  0  0  0
  -16.7334  -28.6513   23.0371 C   0  0  0  0  0  0
  -26.4638  -31.6462   25.0672 C   0  0  0  0  0  0
  -25.3607  -31.3859   26.1213 C   0  0  0  0  0  0
  -27.0643  -30.2773   24.6824 C   0  0  0  0  0  0
  -27.6007  -32.4417   25.7520 C   0  0  0  0  0  0
  -27.5540  -37.1728   24.8486 C   0  0  0  0  0  0
  -21.4524  -29.2991   22.3368 N   0  0  0  0  0  0
  -26.4284  -37.3568   23.9365 N   0  0  0  0  0  0
  -24.8344  -30.8695   22.0684 N   0  0  0  0  0  0
  -23.4191  -28.7753   23.3124 O   0  0  0  0  0  0
  -28.2116  -25.0178   20.2791 O   0  0  0  0  0  0
  -26.5849  -34.8821   22.4520 O   0  0  0  0  0  0
  -23.6097  -32.0834   23.5976 O   0  0  0  0  0  0
  -27.8539  -20.4015   20.2893 C   0  0  0  0  0  0
  -29.9276  -20.7736   20.2908 C   0  0  0  0  0  0
  -27.5458  -21.9724   20.2784 C   0  0  0  0  0  0
  -29.6166  -22.3428   20.2816 C   0  0  0  0  0  0
  -29.0980  -19.4718   20.2969 C   0  0  0  0  0  0
  -28.3753  -23.2749   20.2716 C   0  0  0  0  0  0
  -29.2921  -17.5943   20.3134 N   0  0  0  0  0  0
  -31.3311  -13.7934   19.1249 H   0  0  0  0  0  0
  -30.6705  -12.7078   20.2857 H   0  0  0  0  0  0
  -30.1256  -11.9610   17.9465 H   0  0  0  0  0  0
  -29.4494  -13.5270   17.5771 H   0  0  0  0  0  0
  -28.3016  -11.3740   19.3587 H   0  0  0  0  0  0
  -27.5262  -12.1465   17.9919 H   0  0  0  0  0  0
  -27.3825  -14.2170   19.1644 H   0  0  0  0  0  0
  -28.9318  -13.0918   21.5423 H   0  0  0  0  0  0
  -28.0358  -14.5789   21.5634 H   0  0  0  0  0  0
  -25.2821   -9.5683   22.4758 H   0  0  0  0  0  0
  -24.0025   -7.4656   22.7486 H   0  0  0  0  0  0
  -21.0895   -8.8805   19.8951 H   0  0  0  0  0  0
  -22.3780  -10.9677   19.6148 H   0  0  0  0  0  0
  -21.2017   -7.6156   23.9718 H   0  0  0  0  0  0
  -21.1490   -6.0526   25.9075 H   0  0  0  0  0  0
  -22.0589   -2.7617   23.2831 H   0  0  0  0  0  0
  -22.4022  -11.9785   22.4892 H   0  0  0  0  0  0
  -21.0962  -13.1075   22.2674 H   0  0  0  0  0  0
  -24.5949  -15.8513   20.5382 H   0  0  0  0  0  0
  -26.2098  -15.6569   20.0781 H   0  0  0  0  0  0
  -26.7685  -32.4663   23.0638 H   0  0  0  0  0  0
  -24.9993  -33.9100   24.9802 H   0  0  0  0  0  0
  -22.9021  -31.1913   21.2657 H   0  0  0  0  0  0
  -23.3742  -35.9441   23.3374 H   0  0  0  0  0  0
  -24.3519  -36.8715   22.2071 H   0  0  0  0  0  0
  -23.7322  -37.6292   23.6744 H   0  0  0  0  0  0
  -26.3855  -31.0740   20.6379 H   0  0  0  0  0  0
  -26.9883  -30.4591   22.1188 H   0  0  0  0  0  0
  -28.1784  -28.0601   21.3779 H   0  0  0  0  0  0
  -25.8044  -25.4574   18.9621 H   0  0  0  0  0  0
  -24.0936  -27.1355   18.8860 H   0  0  0  0  0  0
  -24.0356  -30.3537   19.3665 H   0  0  0  0  0  0
  -22.9277  -29.0941   19.8030 H   0  0  0  0  0  0
  -25.1411  -36.1524   25.0751 H   0  0  0  0  0  0
  -21.0073  -28.3463   24.1218 H   0  0  0  0  0  0
  -20.5637  -26.2445   23.3707 H   0  0  0  0  0  0
  -21.6667  -26.7330   22.1256 H   0  0  0  0  0  0
  -19.6941  -25.6237   21.1326 H   0  0  0  0  0  0
  -19.6747  -27.3107   20.6708 H   0  0  0  0  0  0
  -17.4245  -26.6704   21.4009 H   0  0  0  0  0  0
  -18.0340  -26.0130   22.9031 H   0  0  0  0  0  0
  -19.8008  -30.7368   24.2125 H   0  0  0  0  0  0
  -17.5067  -31.6281   24.5164 H   0  0  0  0  0  0
  -15.5400  -30.2957   23.7741 H   0  0  0  0  0  0
  -15.8735  -28.0797   22.7144 H   0  0  0  0  0  0
  -24.5907  -30.7077   25.7514 H   0  0  0  0  0  0
  -24.8662  -32.3090   26.4247 H   0  0  0  0  0  0
  -25.7713  -30.9314   27.0239 H   0  0  0  0  0  0
  -26.3429  -29.6270   24.1870 H   0  0  0  0  0  0
  -27.3992  -29.7365   25.5687 H   0  0  0  0  0  0
  -27.9429  -30.3834   24.0461 H   0  0  0  0  0  0
  -27.2488  -33.3825   26.1763 H   0  0  0  0  0  0
  -28.3987  -32.6813   25.0480 H   0  0  0  0  0  0
  -28.0494  -31.8786   26.5714 H   0  0  0  0  0  0
  -28.2600  -37.9970   24.7386 H   0  0  0  0  0  0
  -28.0989  -36.2482   24.6520 H   0  0  0  0  0  0
  -27.2218  -37.1608   25.8881 H   0  0  0  0  0  0
  -20.9907  -29.8597   21.6342 H   0  0  0  0  0  0
  -26.0093  -38.2628   24.1276 H   0  0  0  0  0  0
  -26.9376  -19.8287   20.2921 H   0  0  0  0  0  0
  -30.9898  -20.5739   20.2960 H   0  0  0  0  0  0
  -26.4844  -22.1755   20.2789 H   0  0  0  0  0  0
  -30.5307  -22.9191   20.2872 H   0  0  0  0  0  0
  -28.3439  -17.2471   20.3493 H   0  0  0  0  0  0
  1 25  1  0  0  0
  1 30  2  0  0  0
  1 77  1  0  0  0
  2  3  1  0  0  0
  2 25  1  0  0  0
  2 78  1  0  0  0
  2 79  1  0  0  0
  3  4  1  0  0  0
  3 80  1  0  0  0
  3 81  1  0  0  0
  4  5  1  0  0  0
  4 82  1  0  0  0
  4 83  1  0  0  0
  5  6  1  0  0  0
  5 26  1  0  0  0
  5 84  1  0  0  0
  6 25  1  0  0  0
  6 85  1  0  0  0
  6 86  1  0  0  0
  7  8  2  0  0  0
  7 26  1  0  0  0
  7 29  1  0  0  0
  8  9  1  0  0  0
  8 22  1  0  0  0
  9 10  1  0  0  0
  9 27  2  0  0  0
 10 11  2  0  0  0
 10 15  1  0  0  0
 11 12  1  0  0  0
 11 87  1  0  0  0
 12 13  2  0  0  0
 12 88  1  0  0  0
 13 14  1  0  0  0
 13 31  1  0  0  0
 14 15  2  0  0  0
 14 89  1  0  0  0
 15 90  1  0  0  0
 16 17  2  0  0  0
 16 21  1  0  0  0
 16 31  1  0  0  0
 17 18  1  0  0  0
 17 91  1  0  0  0
 18 19  2  0  0  0
 18 92  1  0  0  0
 19 20  1  0  0  0
 19 24  1  0  0  0
 20 21  2  0  0  0
 20 93  1  0  0  0
 21 23  1  0  0  0
 22 28  1  0  0  0
 22 32  2  0  0  0
 26 27  1  0  0  0
 28 94  1  0  0  0
 28 95  1  0  0  0
 29 96  1  0  0  0
 29 97  1  0  0  0
 33 34  1  0  0  0
 33 66  1  0  0  0
 33 70  2  0  0  0
 34 36  1  0  0  0
 34 59  1  0  0  0
 34 98  1  0  0  0
 35 44  2  0  0  0
 35 45  1  0  0  0
 35 68  1  0  0  0
 36 56  1  0  0  0
 36 99  1  0  0  0
 37 39  1  0  0  0
 37 47  1  0  0  0
 37 66  1  0  0  0
 37100  1  0  0  0
 38 43  2  0  0  0
 38 46  1  0  0  0
 38 47  1  0  0  0
 39 64  1  0  0  0
 39 67  2  0  0  0
 40 52  1  0  0  0
 40 53  2  0  0  0
 40 58  1  0  0  0
 41101  1  0  0  0
 41102  1  0  0  0
 41103  1  0  0  0
 41 48  1  0  0  0
 42 43  1  0  0  0
 42 66  1  0  0  0
 42104  1  0  0  0
 42105  1  0  0  0
 43 44  1  0  0  0
 44106  1  0  0  0
 45 46  2  0  0  0
 45107  1  0  0  0
 46108  1  0  0  0
 47109  1  0  0  0
 47110  1  0  0  0
 48 56  1  0  0  0
 48 65  1  0  0  0
 48111  1  0  0  0
 49 50  1  0  0  0
 49 53  1  0  0  0
 49 64  1  0  0  0
 49112  1  0  0  0
 50 51  1  0  0  0
 50113  1  0  0  0
 50114  1  0  0  0
 51 52  1  0  0  0
 51115  1  0  0  0
 51116  1  0  0  0
 52117  1  0  0  0
 52118  1  0  0  0
 53 54  1  0  0  0
 54 55  2  0  0  0
 54119  1  0  0  0
 55 57  1  0  0  0
 55120  1  0  0  0
 56 69  2  0  0  0
 57 58  2  0  0  0
 57121  1  0  0  0
 58122  1  0  0  0
 59 60  1  0  0  0
 59 61  1  0  0  0
 59 62  1  0  0  0
 60123  1  0  0  0
 60124  1  0  0  0
 60125  1  0  0  0
 61126  1  0  0  0
 61127  1  0  0  0
 61128  1  0  0  0
 62129  1  0  0  0
 62130  1  0  0  0
 62131  1  0  0  0
 63 65  1  0  0  0
 63132  1  0  0  0
 63133  1  0  0  0
 63134  1  0  0  0
 64135  1  0  0  0
 65136  1  0  0  0
 68 76  1  0  0  0
 71 73  2  0  0  0
 71 75  1  0  0  0
 71137  1  0  0  0
 72 74  1  0  0  0
 72 75  2  0  0  0
 72138  1  0  0  0
 73 76  1  0  0  0
 73139  1  0  0  0
 74 76  2  0  0  0
 74140  1  0  0  0
 75 77  1  0  0  0
 77141  1  0  0  0
M  ISO  4   1 100  68 101  76 101  77 100
M  END
> <chiral flag>
0

> <version>
0

> <s_m_source_file>
/data/baiqing/PycharmProjects/Reinvent-master-3.2/result/LINK_invent/BTK/process_docking_weight1_custom_sum_contain_oxygen_bond_distance_aromatic_linkinvent_7_9_3/rearranged_h_0002.sdf

> <i_m_source_file_index>
71

> <r_mmod_Potential_Energy-OPLS-2005>
4197.39111328125

> <r_mmod_Stretch_Energy-OPLS-2005>
1611.42260742188

> <r_mmod_Bend_Energy-OPLS-2005>
1018.25030517578

> <r_mmod_Torsional_Energy-OPLS-2005>
213.763397216797

> <r_mmod_Improper_Torsional_Energy-OPLS-2005>
4.01581335067749

> <r_mmod_Van_der_Waal_Energy-OPLS-2005>
144.880767822266

> <r_mmod_Electrostatic_Energy-OPLS-2005>
-354.25341796875

> <r_mmod_Solvation_Energy-OPLS-2005>
-218.535690307617

> <b_mmod_Minimization_Converged-OPLS-2005>
0

> <r_mmod_RMS_Derivative-OPLS-2005>
0.799303591251373

$$$$
71
                    3D
 Structure written by MMmdl.
151159  0  0  1  0            999 V2000
  -30.6810  -14.4718   20.6080 C   0  0  0  0  0  0
  -30.4369  -12.3162   19.4175 C   0  0  0  0  0  0
  -29.5003  -12.5122   18.2061 C   0  0  0  0  0  0
  -28.0201  -12.3691   18.6166 C   0  0  0  0  0  0
  -27.6668  -13.1989   19.8795 C   0  0  2  0  0  0
  -28.7060  -12.9498   20.9954 C   0  0  0  0  0  0
  -25.2616  -13.8139   20.5662 C   0  0  0  0  0  0
  -24.1853  -13.0433   20.9173 C   0  0  0  0  0  0
  -24.6393  -11.6894   20.8731 C   0  0  0  0  0  0
  -23.9055  -10.4288   21.0407 C   0  0  0  0  0  0
  -24.3612   -9.4207   21.9185 C   0  0  0  0  0  0
  -23.6287   -8.2244   22.0755 C   0  0  0  0  0  0
  -22.4273   -8.0282   21.3547 C   0  0  0  0  0  0
  -21.9905   -9.0249   20.4649 C   0  0  0  0  0  0
  -22.7230  -10.2129   20.3055 C   0  0  0  0  0  0
  -21.6854   -6.0737   22.5281 C   0  0  0  0  0  0
  -21.4012   -6.5646   23.8215 C   0  0  0  0  0  0
  -21.3656   -5.6795   24.9177 C   0  0  0  0  0  0
  -21.6044   -4.3057   24.7226 C   0  0  0  0  0  0
  -21.8817   -3.8148   23.4350 C   0  0  0  0  0  0
  -21.9192   -4.6965   22.3407 C   0  0  0  0  0  0
  -22.7878  -13.5245   21.1839 C   0  0  0  0  0  0
  -22.1660   -4.2152   21.0982 F   0  0  0  0  0  0
  -21.5628   -3.4538   25.7740 F   0  0  0  0  0  0
  -30.0409  -13.2782   20.4569 N   0  0  0  0  0  0
  -26.3046  -12.9295   20.3365 N   0  0  0  0  0  0
  -25.9318  -11.6462   20.5756 N   0  0  0  0  0  0
  -22.0516  -12.8234   22.0391 N   0  0  0  0  0  0
  -25.4353  -15.1851   20.4041 N   0  0  0  0  0  0
  -31.7830  -14.7115   20.1024 O   0  0  0  0  0  0
  -21.6639   -6.8876   21.4242 O   0  0  0  0  0  0
  -22.3572  -14.5561   20.6701 O   0  0  0  0  0  0
  -24.6148  -31.8689   23.2112 C   0  0  0  0  0  0
  -25.9043  -32.4832   23.8397 C   0  0  1  0  0  0
  -27.2346  -27.4333   20.1124 C   0  0  0  0  0  0
  -25.5906  -33.8626   24.2336 N   0  0  0  0  0  0
  -23.4028  -30.4920   21.5512 C   0  0  2  0  0  0
  -24.8531  -28.9573   20.1196 C   0  0  0  0  0  0
  -22.7414  -29.4661   22.4997 C   0  0  0  0  0  0
  -18.0271  -28.1374   22.8494 C   0  0  0  0  0  0
  -24.1485  -36.7309   23.2630 C   0  0  0  0  0  0
  -25.9315  -30.8370   21.3631 C   0  0  0  0  0  0
  -26.0134  -29.4684   20.7173 C   0  0  0  0  0  0
  -27.2124  -28.7161   20.7092 C   0  0  0  0  0  0
  -26.0625  -26.9426   19.4996 C   0  0  0  0  0  0
  -24.8714  -27.6922   19.5082 C   0  0  0  0  0  0
  -23.6136  -29.8226   20.1668 C   0  0  0  0  0  0
  -25.4099  -36.3114   24.0342 C   0  0  1  0  0  0
  -20.5863  -28.3656   23.1327 C   0  0  2  0  0  0
  -20.6765  -26.9394   22.5421 C   0  0  0  0  0  0
  -19.5744  -26.6380   21.5216 C   0  0  0  0  0  0
  -18.1922  -26.7924   22.1622 C   0  0  0  0  0  0
  -19.1521  -28.8831   23.2909 C   0  0  0  0  0  0
  -18.9451  -30.1441   23.8913 C   0  0  0  0  0  0
  -17.6457  -30.6586   24.0560 C   0  0  0  0  0  0
  -25.9034  -34.9483   23.5137 C   0  0  0  0  0  0
  -16.5346  -29.9088   23.6325 C   0  0  0  0  0  0
  -16.7259  -28.6503   23.0347 C   0  0  0  0  0  0
  -26.4466  -31.6598   25.0715 C   0  0  0  0  0  0
  -25.3738  -31.3719   26.1475 C   0  0  0  0  0  0
  -27.0260  -30.3036   24.6063 C   0  0  0  0  0  0
  -27.6066  -32.4284   25.7469 C   0  0  0  0  0  0
  -27.5592  -37.1786   24.8446 C   0  0  0  0  0  0
  -21.4141  -29.3032   22.3740 N   0  0  0  0  0  0
  -26.4279  -37.3809   23.9436 N   0  0  0  0  0  0
  -24.6679  -31.0794   22.1008 N   0  0  0  0  0  0
  -23.4191  -28.8200   23.3031 O   0  0  0  0  0  0
  -28.3713  -26.6583   20.0399 O   0  0  0  0  0  0
  -26.5589  -34.8935   22.4694 O   0  0  0  0  0  0
  -23.5343  -32.1439   23.7511 O   0  0  0  0  0  0
  -31.1608  -18.9896   21.2209 C   0  0  0  0  0  0
  -28.7332  -18.9169   21.3356 C   0  0  0  0  0  0
  -31.2047  -17.5744   21.1778 C   0  0  0  0  0  0
  -28.7790  -17.5070   21.3188 C   0  0  0  0  0  0
  -29.9248  -19.6726   21.2921 C   0  0  0  0  0  0
  -30.0097  -16.8172   21.2343 C   0  0  0  0  0  0
  -29.1667  -23.3012   21.1734 C   0  0  0  0  0  0
  -28.8657  -24.3775   20.4072 C   0  0  0  0  0  0
  -29.3148  -21.9712   20.5919 C   0  0  0  0  0  0
  -28.5846  -25.7090   20.9920 C   0  0  0  0  0  0
  -29.8813  -21.0908   21.4386 N   0  0  0  0  0  0
  -29.9659  -15.3902   21.2877 N   0  0  0  0  0  0
  -28.9591  -21.6588   19.4523 O   0  0  0  0  0  0
  -28.4618  -25.9138   22.2034 O   0  0  0  0  0  0
  -31.4786  -12.4388   19.1157 H   0  0  0  0  0  0
  -30.3585  -11.2980   19.8027 H   0  0  0  0  0  0
  -29.7409  -11.7889   17.4260 H   0  0  0  0  0  0
  -29.6642  -13.4988   17.7690 H   0  0  0  0  0  0
  -27.8296  -11.3112   18.8040 H   0  0  0  0  0  0
  -27.3698  -12.6496   17.7869 H   0  0  0  0  0  0
  -27.7200  -14.2510   19.5990 H   0  0  0  0  0  0
  -28.6857  -11.9022   21.2995 H   0  0  0  0  0  0
  -28.4513  -13.5066   21.8978 H   0  0  0  0  0  0
  -25.2759   -9.5688   22.4756 H   0  0  0  0  0  0
  -24.0003   -7.4638   22.7473 H   0  0  0  0  0  0
  -21.0840   -8.8762   19.8955 H   0  0  0  0  0  0
  -22.3690  -10.9664   19.6163 H   0  0  0  0  0  0
  -21.2000   -7.6154   23.9721 H   0  0  0  0  0  0
  -21.1480   -6.0524   25.9077 H   0  0  0  0  0  0
  -22.0597   -2.7610   23.2848 H   0  0  0  0  0  0
  -22.4118  -11.9879   22.4760 H   0  0  0  0  0  0
  -21.1133  -13.1265   22.2598 H   0  0  0  0  0  0
  -24.6667  -15.8394   20.4994 H   0  0  0  0  0  0
  -26.2773  -15.6137   20.0423 H   0  0  0  0  0  0
  -26.7121  -32.5555   23.1167 H   0  0  0  0  0  0
  -25.0074  -33.9787   25.0492 H   0  0  0  0  0  0
  -22.6912  -31.3082   21.4104 H   0  0  0  0  0  0
  -23.3776  -35.9609   23.3231 H   0  0  0  0  0  0
  -24.3608  -36.8979   22.2059 H   0  0  0  0  0  0
  -23.7186  -37.6479   23.6669 H   0  0  0  0  0  0
  -26.0356  -31.6003   20.5903 H   0  0  0  0  0  0
  -26.8227  -30.8985   21.9764 H   0  0  0  0  0  0
  -28.1113  -29.1077   21.1646 H   0  0  0  0  0  0
  -26.0719  -25.9735   19.0211 H   0  0  0  0  0  0
  -23.9808  -27.2944   19.0417 H   0  0  0  0  0  0
  -23.7207  -30.5962   19.4058 H   0  0  0  0  0  0
  -22.7384  -29.2407   19.8720 H   0  0  0  0  0  0
  -25.1266  -36.1965   25.0834 H   0  0  0  0  0  0
  -20.9944  -28.3208   24.1453 H   0  0  0  0  0  0
  -20.5673  -26.2257   23.3602 H   0  0  0  0  0  0
  -21.6633  -26.7451   22.1199 H   0  0  0  0  0  0
  -19.6913  -25.6296   21.1224 H   0  0  0  0  0  0
  -19.6693  -27.3206   20.6761 H   0  0  0  0  0  0
  -17.4197  -26.6681   21.4024 H   0  0  0  0  0  0
  -18.0319  -26.0061   22.9013 H   0  0  0  0  0  0
  -19.7934  -30.7246   24.2291 H   0  0  0  0  0  0
  -17.5019  -31.6274   24.5150 H   0  0  0  0  0  0
  -15.5344  -30.2998   23.7656 H   0  0  0  0  0  0
  -15.8657  -28.0832   22.7053 H   0  0  0  0  0  0
  -24.5877  -30.7106   25.7806 H   0  0  0  0  0  0
  -24.8975  -32.2890   26.4952 H   0  0  0  0  0  0
  -25.8092  -30.8848   27.0208 H   0  0  0  0  0  0
  -26.2782  -29.6825   24.1119 H   0  0  0  0  0  0
  -27.4038  -29.7242   25.4493 H   0  0  0  0  0  0
  -27.8618  -30.4345   23.9187 H   0  0  0  0  0  0
  -27.2726  -33.3604   26.2038 H   0  0  0  0  0  0
  -28.3890  -32.6795   25.0293 H   0  0  0  0  0  0
  -28.0703  -31.8390   26.5389 H   0  0  0  0  0  0
  -28.2538  -38.0154   24.7604 H   0  0  0  0  0  0
  -28.1159  -36.2695   24.6115 H   0  0  0  0  0  0
  -27.2340  -37.1237   25.8851 H   0  0  0  0  0  0
  -20.9294  -29.8759   21.6968 H   0  0  0  0  0  0
  -26.0164  -38.2871   24.1515 H   0  0  0  0  0  0
  -32.0865  -19.5475   21.2086 H   0  0  0  0  0  0
  -27.7766  -19.4135   21.4181 H   0  0  0  0  0  0
  -32.1659  -17.0828   21.1349 H   0  0  0  0  0  0
  -27.8499  -16.9579   21.3831 H   0  0  0  0  0  0
  -29.2627  -23.4239   22.2432 H   0  0  0  0  0  0
  -28.7902  -24.2842   19.3329 H   0  0  0  0  0  0
  -30.2674  -21.4682   22.2930 H   0  0  0  0  0  0
  -29.1088  -15.0074   21.6560 H   0  0  0  0  0  0
  1 25  1  0  0  0
  1 30  2  0  0  0
  1 82  1  0  0  0
  2  3  1  0  0  0
  2 25  1  0  0  0
  2 85  1  0  0  0
  2 86  1  0  0  0
  3  4  1  0  0  0
  3 87  1  0  0  0
  3 88  1  0  0  0
  4  5  1  0  0  0
  4 89  1  0  0  0
  4 90  1  0  0  0
  5  6  1  0  0  0
  5 26  1  0  0  0
  5 91  1  0  0  0
  6 25  1  0  0  0
  6 92  1  0  0  0
  6 93  1  0  0  0
  7  8  2  0  0  0
  7 26  1  0  0  0
  7 29  1  0  0  0
  8  9  1  0  0  0
  8 22  1  0  0  0
  9 10  1  0  0  0
  9 27  2  0  0  0
 10 11  2  0  0  0
 10 15  1  0  0  0
 11 12  1  0  0  0
 11 94  1  0  0  0
 12 13  2  0  0  0
 12 95  1  0  0  0
 13 14  1  0  0  0
 13 31  1  0  0  0
 14 15  2  0  0  0
 14 96  1  0  0  0
 15 97  1  0  0  0
 16 17  2  0  0  0
 16 21  1  0  0  0
 16 31  1  0  0  0
 17 18  1  0  0  0
 17 98  1  0  0  0
 18 19  2  0  0  0
 18 99  1  0  0  0
 19 20  1  0  0  0
 19 24  1  0  0  0
 20 21  2  0  0  0
 20100  1  0  0  0
 21 23  1  0  0  0
 22 28  1  0  0  0
 22 32  2  0  0  0
 26 27  1  0  0  0
 28101  1  0  0  0
 28102  1  0  0  0
 29103  1  0  0  0
 29104  1  0  0  0
 33 34  1  0  0  0
 33 66  1  0  0  0
 33 70  2  0  0  0
 34 36  1  0  0  0
 34 59  1  0  0  0
 34105  1  0  0  0
 35 44  2  0  0  0
 35 45  1  0  0  0
 35 68  1  0  0  0
 36 56  1  0  0  0
 36106  1  0  0  0
 37 39  1  0  0  0
 37 47  1  0  0  0
 37 66  1  0  0  0
 37107  1  0  0  0
 38 43  2  0  0  0
 38 46  1  0  0  0
 38 47  1  0  0  0
 39 64  1  0  0  0
 39 67  2  0  0  0
 40 52  1  0  0  0
 40 53  2  0  0  0
 40 58  1  0  0  0
 41108  1  0  0  0
 41109  1  0  0  0
 41110  1  0  0  0
 41 48  1  0  0  0
 42 43  1  0  0  0
 42 66  1  0  0  0
 42111  1  0  0  0
 42112  1  0  0  0
 43 44  1  0  0  0
 44113  1  0  0  0
 45 46  2  0  0  0
 45114  1  0  0  0
 46115  1  0  0  0
 47116  1  0  0  0
 47117  1  0  0  0
 48 56  1  0  0  0
 48 65  1  0  0  0
 48118  1  0  0  0
 49 50  1  0  0  0
 49 53  1  0  0  0
 49 64  1  0  0  0
 49119  1  0  0  0
 50 51  1  0  0  0
 50120  1  0  0  0
 50121  1  0  0  0
 51 52  1  0  0  0
 51122  1  0  0  0
 51123  1  0  0  0
 52124  1  0  0  0
 52125  1  0  0  0
 53 54  1  0  0  0
 54 55  2  0  0  0
 54126  1  0  0  0
 55 57  1  0  0  0
 55127  1  0  0  0
 56 69  2  0  0  0
 57 58  2  0  0  0
 57128  1  0  0  0
 58129  1  0  0  0
 59 60  1  0  0  0
 59 61  1  0  0  0
 59 62  1  0  0  0
 60130  1  0  0  0
 60131  1  0  0  0
 60132  1  0  0  0
 61133  1  0  0  0
 61134  1  0  0  0
 61135  1  0  0  0
 62136  1  0  0  0
 62137  1  0  0  0
 62138  1  0  0  0
 63 65  1  0  0  0
 63139  1  0  0  0
 63140  1  0  0  0
 63141  1  0  0  0
 64142  1  0  0  0
 65143  1  0  0  0
 68 80  1  0  0  0
 71 73  2  0  0  0
 71 75  1  0  0  0
 71144  1  0  0  0
 72 74  1  0  0  0
 72 75  2  0  0  0
 72145  1  0  0  0
 73 76  1  0  0  0
 73146  1  0  0  0
 74 76  2  0  0  0
 74147  1  0  0  0
 75 81  1  0  0  0
 76 82  1  0  0  0
 77 78  2  0  0  0
 77 79  1  0  0  0
 77148  1  0  0  0
 78 80  1  0  0  0
 78149  1  0  0  0
 79 81  1  0  0  0
 79 83  2  0  0  0
 80 84  2  0  0  0
 81150  1  0  0  0
 82151  1  0  0  0
M  ISO  4   1 100  68 101  80 101  82 100
M  END
> <chiral flag>
0

> <version>
0

> <s_m_source_file>
/data/baiqing/PycharmProjects/Reinvent-master-3.2/result/LINK_invent/BTK/process_docking_weight1_custom_sum_contain_oxygen_bond_distance_aromatic_linkinvent_7_9_3/rearranged_h_0002.sdf

> <i_m_source_file_index>
72

> <r_mmod_Potential_Energy-OPLS-2005>
-136.946060180664

> <r_mmod_Stretch_Energy-OPLS-2005>
37.2043037414551

> <r_mmod_Bend_Energy-OPLS-2005>
93.8033752441406

> <r_mmod_Torsional_Energy-OPLS-2005>
278.449920654297

> <r_mmod_Improper_Torsional_Energy-OPLS-2005>
5.23616647720337

> <r_mmod_Van_der_Waal_Energy-OPLS-2005>
149.423934936523

> <r_mmod_Electrostatic_Energy-OPLS-2005>
-474.264038085938

> <r_mmod_Solvation_Energy-OPLS-2005>
-238.25358581543

> <b_mmod_Minimization_Converged-OPLS-2005>
0

> <r_mmod_RMS_Derivative-OPLS-2005>
1.09643602371216

$$$$
72
                    3D
 Structure written by MMmdl.
175183  0  0  1  0            999 V2000
  -30.6501  -14.7271   20.4301 C   0  0  0  0  0  0
  -30.4309  -12.4327   19.4748 C   0  0  0  0  0  0
  -29.5194  -12.5274   18.2304 C   0  0  0  0  0  0
  -28.0386  -12.3740   18.6358 C   0  0  0  0  0  0
  -27.6521  -13.2452   19.8625 C   0  0  2  0  0  0
  -28.7053  -13.1664   20.9928 C   0  0  0  0  0  0
  -25.2515  -13.8196   20.5625 C   0  0  0  0  0  0
  -24.1817  -13.0448   20.9176 C   0  0  0  0  0  0
  -24.6445  -11.6927   20.8756 C   0  0  0  0  0  0
  -23.9109  -10.4301   21.0418 C   0  0  0  0  0  0
  -24.3629   -9.4205   21.9182 C   0  0  0  0  0  0
  -23.6302   -8.2245   22.0747 C   0  0  0  0  0  0
  -22.4291   -8.0283   21.3548 C   0  0  0  0  0  0
  -21.9958   -9.0280   20.4671 C   0  0  0  0  0  0
  -22.7287  -10.2153   20.3064 C   0  0  0  0  0  0
  -21.6871   -6.0749   22.5278 C   0  0  0  0  0  0
  -21.4031   -6.5641   23.8231 C   0  0  0  0  0  0
  -21.3644   -5.6777   24.9173 C   0  0  0  0  0  0
  -21.6032   -4.3043   24.7225 C   0  0  0  0  0  0
  -21.8813   -3.8154   23.4341 C   0  0  0  0  0  0
  -21.9211   -4.6968   22.3410 C   0  0  0  0  0  0
  -22.7830  -13.5238   21.1860 C   0  0  0  0  0  0
  -22.1651   -4.2175   21.0970 F   0  0  0  0  0  0
  -21.5659   -3.4501   25.7726 F   0  0  0  0  0  0
  -30.0094  -13.5031   20.4089 N   0  0  0  0  0  0
  -26.3000  -12.9456   20.3305 N   0  0  0  0  0  0
  -25.9402  -11.6581   20.5777 N   0  0  0  0  0  0
  -22.0448  -12.8205   22.0388 N   0  0  0  0  0  0
  -25.4162  -15.1914   20.3912 N   0  0  0  0  0  0
  -31.8246  -14.8090   20.0615 O   0  0  0  0  0  0
  -21.6630   -6.8876   21.4253 O   0  0  0  0  0  0
  -22.3499  -14.5541   20.6748 O   0  0  0  0  0  0
  -24.6269  -31.8574   23.1966 C   0  0  0  0  0  0
  -25.9093  -32.4757   23.8322 C   0  0  1  0  0  0
  -27.2456  -27.3065   20.1134 C   0  0  0  0  0  0
  -25.5915  -33.8552   24.2256 N   0  0  0  0  0  0
  -23.4215  -30.4789   21.5407 C   0  0  2  0  0  0
  -24.8724  -28.9121   20.1204 C   0  0  0  0  0  0
  -22.7475  -29.4619   22.4939 C   0  0  0  0  0  0
  -18.0303  -28.1396   22.8494 C   0  0  0  0  0  0
  -24.1478  -36.7263   23.2646 C   0  0  0  0  0  0
  -25.9616  -30.7861   21.3637 C   0  0  0  0  0  0
  -26.0421  -29.4049   20.7124 C   0  0  0  0  0  0
  -27.2318  -28.6187   20.6876 C   0  0  0  0  0  0
  -26.0518  -26.8533   19.5169 C   0  0  0  0  0  0
  -24.8781  -27.6396   19.5167 C   0  0  0  0  0  0
  -23.6399  -29.7967   20.1615 C   0  0  0  0  0  0
  -25.4103  -36.3062   24.0338 C   0  0  1  0  0  0
  -20.5907  -28.3670   23.1318 C   0  0  2  0  0  0
  -20.6777  -26.9399   22.5446 C   0  0  0  0  0  0
  -19.5756  -26.6397   21.5239 C   0  0  0  0  0  0
  -18.1923  -26.7947   22.1621 C   0  0  0  0  0  0
  -19.1558  -28.8843   23.2903 C   0  0  0  0  0  0
  -18.9467  -30.1463   23.8899 C   0  0  0  0  0  0
  -17.6462  -30.6572   24.0581 C   0  0  0  0  0  0
  -25.9052  -34.9426   23.5085 C   0  0  0  0  0  0
  -16.5351  -29.9074   23.6354 C   0  0  0  0  0  0
  -16.7295  -28.6512   23.0337 C   0  0  0  0  0  0
  -26.4481  -31.6571   25.0689 C   0  0  0  0  0  0
  -25.3704  -31.3742   26.1425 C   0  0  0  0  0  0
  -27.0323  -30.2993   24.6128 C   0  0  0  0  0  0
  -27.6054  -32.4297   25.7438 C   0  0  0  0  0  0
  -27.5593  -37.1782   24.8456 C   0  0  0  0  0  0
  -21.4190  -29.3028   22.3683 N   0  0  0  0  0  0
  -26.4274  -37.3761   23.9422 N   0  0  0  0  0  0
  -24.6897  -31.0567   22.0913 N   0  0  0  0  0  0
  -23.4198  -28.8233   23.3071 O   0  0  0  0  0  0
  -28.4019  -26.5093   20.0522 O   0  0  0  0  0  0
  -26.5624  -34.8922   22.4670 O   0  0  0  0  0  0
  -23.5422  -32.1396   23.7263 O   0  0  0  0  0  0
  -25.2149  -20.3034   20.9701 C   0  0  0  0  0  0
  -24.9249  -19.0563   21.5513 C   0  0  0  0  0  0
  -26.3410  -21.0355   21.3917 C   0  0  0  0  0  0
  -26.8925  -19.2733   22.9713 C   0  0  0  0  0  0
  -25.7654  -18.5405   22.5556 C   0  0  0  0  0  0
  -27.2115  -20.5259   22.3869 C   0  0  0  0  0  0
  -29.4618  -21.6670   21.7169 C   0  0  0  0  0  0
  -25.4734  -17.1933   23.1846 C   0  0  0  0  0  0
  -27.9376  -22.6645   23.4751 C   0  0  0  0  0  0
  -29.2172  -20.6195   23.9905 C   0  0  0  0  0  0
  -29.6382  -18.6341   20.7035 C   0  0  0  0  0  0
  -28.3166  -23.8566   19.5006 C   0  0  0  0  0  0
  -30.1523  -17.2667   19.9976 C   0  0  0  0  0  0
  -29.7704  -20.0410   19.8869 C   0  0  0  0  0  0
  -29.3090  -22.5673   19.4823 C   0  0  0  0  0  0
  -28.4226  -25.0914   20.5143 C   0  0  0  0  0  0
  -28.4415  -21.3396   22.8551 C   0  0  0  0  0  0
  -29.9051  -15.8810   20.6174 N   0  0  0  0  0  0
  -29.2024  -21.3666   20.4229 N   0  0  0  0  0  0
  -30.5012  -22.2663   22.0132 O   0  0  0  0  0  0
  -31.4810  -12.5168   19.1936 H   0  0  0  0  0  0
  -30.3295  -11.4498   19.9430 H   0  0  0  0  0  0
  -29.7917  -11.7698   17.4974 H   0  0  0  0  0  0
  -29.6718  -13.4873   17.7348 H   0  0  0  0  0  0
  -27.8601  -11.3218   18.8560 H   0  0  0  0  0  0
  -27.3925  -12.6193   17.7922 H   0  0  0  0  0  0
  -27.6493  -14.2755   19.5073 H   0  0  0  0  0  0
  -28.7294  -12.1660   21.4348 H   0  0  0  0  0  0
  -28.4597  -13.8540   21.8051 H   0  0  0  0  0  0
  -25.2800   -9.5706   22.4708 H   0  0  0  0  0  0
  -24.0078   -7.4636   22.7417 H   0  0  0  0  0  0
  -21.0943   -8.8814   19.8949 H   0  0  0  0  0  0
  -22.3781  -10.9689   19.6153 H   0  0  0  0  0  0
  -21.1983   -7.6146   23.9734 H   0  0  0  0  0  0
  -21.1476   -6.0490   25.9082 H   0  0  0  0  0  0
  -22.0609   -2.7628   23.2801 H   0  0  0  0  0  0
  -22.4102  -11.9911   22.4828 H   0  0  0  0  0  0
  -21.1074  -13.1261   22.2573 H   0  0  0  0  0  0
  -24.6485  -15.8469   20.4787 H   0  0  0  0  0  0
  -26.2637  -15.6210   20.0498 H   0  0  0  0  0  0
  -26.7151  -32.5441   23.1079 H   0  0  0  0  0  0
  -25.0067  -33.9680   25.0402 H   0  0  0  0  0  0
  -22.7165  -31.2986   21.3894 H   0  0  0  0  0  0
  -23.3757  -35.9575   23.3251 H   0  0  0  0  0  0
  -24.3630  -36.8929   22.2084 H   0  0  0  0  0  0
  -23.7175  -37.6429   23.6693 H   0  0  0  0  0  0
  -26.0971  -31.5494   20.5953 H   0  0  0  0  0  0
  -26.8385  -30.8382   21.9962 H   0  0  0  0  0  0
  -28.1377  -29.0100   21.1285 H   0  0  0  0  0  0
  -26.0322  -25.8864   19.0350 H   0  0  0  0  0  0
  -23.9813  -27.2582   19.0495 H   0  0  0  0  0  0
  -23.7571  -30.5641   19.3954 H   0  0  0  0  0  0
  -22.7576  -29.2278   19.8654 H   0  0  0  0  0  0
  -25.1273  -36.1910   25.0824 H   0  0  0  0  0  0
  -21.0035  -28.3231   24.1430 H   0  0  0  0  0  0
  -20.5677  -26.2274   23.3640 H   0  0  0  0  0  0
  -21.6646  -26.7429   22.1266 H   0  0  0  0  0  0
  -19.6912  -25.6319   21.1250 H   0  0  0  0  0  0
  -19.6718  -27.3221   20.6781 H   0  0  0  0  0  0
  -17.4245  -26.6783   21.3957 H   0  0  0  0  0  0
  -18.0265  -26.0078   22.9000 H   0  0  0  0  0  0
  -19.7932  -30.7310   24.2233 H   0  0  0  0  0  0
  -17.5013  -31.6258   24.5191 H   0  0  0  0  0  0
  -15.5348  -30.2964   23.7673 H   0  0  0  0  0  0
  -15.8720  -28.0850   22.6978 H   0  0  0  0  0  0
  -24.5845  -30.7126   25.7769 H   0  0  0  0  0  0
  -24.8950  -32.2937   26.4854 H   0  0  0  0  0  0
  -25.8052  -30.8927   27.0192 H   0  0  0  0  0  0
  -26.2901  -29.6744   24.1159 H   0  0  0  0  0  0
  -27.4046  -29.7246   25.4617 H   0  0  0  0  0  0
  -27.8756  -30.4298   23.9336 H   0  0  0  0  0  0
  -27.2675  -33.3576   26.2060 H   0  0  0  0  0  0
  -28.3840  -32.6889   25.0246 H   0  0  0  0  0  0
  -28.0758  -31.8396   26.5319 H   0  0  0  0  0  0
  -28.2567  -38.0120   24.7559 H   0  0  0  0  0  0
  -28.1119  -36.2666   24.6159 H   0  0  0  0  0  0
  -27.2372  -37.1282   25.8872 H   0  0  0  0  0  0
  -20.9343  -29.8714   21.6886 H   0  0  0  0  0  0
  -26.0147  -38.2819   24.1457 H   0  0  0  0  0  0
  -24.5694  -20.7011   20.1994 H   0  0  0  0  0  0
  -24.0559  -18.5011   21.2260 H   0  0  0  0  0  0
  -26.5408  -21.9911   20.9278 H   0  0  0  0  0  0
  -27.5088  -18.8447   23.7467 H   0  0  0  0  0  0
  -24.4857  -16.8302   22.8975 H   0  0  0  0  0  0
  -25.5097  -17.2567   24.2732 H   0  0  0  0  0  0
  -26.2135  -16.4604   22.8597 H   0  0  0  0  0  0
  -27.3136  -23.2326   22.7868 H   0  0  0  0  0  0
  -28.7614  -23.3130   23.7801 H   0  0  0  0  0  0
  -27.3338  -22.4669   24.3645 H   0  0  0  0  0  0
  -29.5392  -19.6237   23.6924 H   0  0  0  0  0  0
  -28.6050  -20.5156   24.8885 H   0  0  0  0  0  0
  -30.1138  -21.1561   24.2978 H   0  0  0  0  0  0
  -30.1847  -18.7463   21.6413 H   0  0  0  0  0  0
  -28.5948  -18.4886   20.9808 H   0  0  0  0  0  0
  -27.2813  -23.5157   19.4538 H   0  0  0  0  0  0
  -28.4668  -24.3241   18.5276 H   0  0  0  0  0  0
  -31.2119  -17.3746   19.7520 H   0  0  0  0  0  0
  -29.6505  -17.2187   19.0294 H   0  0  0  0  0  0
  -29.3536  -19.8861   18.8909 H   0  0  0  0  0  0
  -30.8336  -20.2232   19.7100 H   0  0  0  0  0  0
  -30.3357  -22.9423   19.5155 H   0  0  0  0  0  0
  -29.2183  -22.1575   18.4744 H   0  0  0  0  0  0
  -29.3801  -24.9783   21.0241 H   0  0  0  0  0  0
  -27.6775  -24.9746   21.2987 H   0  0  0  0  0  0
  -28.9766  -15.7215   20.9793 H   0  0  0  0  0  0
  1 25  1  0  0  0
  1 30  2  0  0  0
  1 88  1  0  0  0
  2  3  1  0  0  0
  2 25  1  0  0  0
  2 91  1  0  0  0
  2 92  1  0  0  0
  3  4  1  0  0  0
  3 93  1  0  0  0
  3 94  1  0  0  0
  4  5  1  0  0  0
  4 95  1  0  0  0
  4 96  1  0  0  0
  5  6  1  0  0  0
  5 26  1  0  0  0
  5 97  1  0  0  0
  6 25  1  0  0  0
  6 98  1  0  0  0
  6 99  1  0  0  0
  7  8  2  0  0  0
  7 26  1  0  0  0
  7 29  1  0  0  0
  8  9  1  0  0  0
  8 22  1  0  0  0
  9 10  1  0  0  0
  9 27  2  0  0  0
 10 11  2  0  0  0
 10 15  1  0  0  0
 11 12  1  0  0  0
 11100  1  0  0  0
 12 13  2  0  0  0
 12101  1  0  0  0
 13 14  1  0  0  0
 13 31  1  0  0  0
 14 15  2  0  0  0
 14102  1  0  0  0
 15103  1  0  0  0
 16 17  2  0  0  0
 16 21  1  0  0  0
 16 31  1  0  0  0
 17 18  1  0  0  0
 17104  1  0  0  0
 18 19  2  0  0  0
 18105  1  0  0  0
 19 20  1  0  0  0
 19 24  1  0  0  0
 20 21  2  0  0  0
 20106  1  0  0  0
 21 23  1  0  0  0
 22 28  1  0  0  0
 22 32  2  0  0  0
 26 27  1  0  0  0
 28107  1  0  0  0
 28108  1  0  0  0
 29109  1  0  0  0
 29110  1  0  0  0
 33 34  1  0  0  0
 33 66  1  0  0  0
 33 70  2  0  0  0
 34 36  1  0  0  0
 34 59  1  0  0  0
 34111  1  0  0  0
 35 44  2  0  0  0
 35 45  1  0  0  0
 35 68  1  0  0  0
 36 56  1  0  0  0
 36112  1  0  0  0
 37 39  1  0  0  0
 37 47  1  0  0  0
 37 66  1  0  0  0
 37113  1  0  0  0
 38 43  2  0  0  0
 38 46  1  0  0  0
 38 47  1  0  0  0
 39 64  1  0  0  0
 39 67  2  0  0  0
 40 52  1  0  0  0
 40 53  2  0  0  0
 40 58  1  0  0  0
 41114  1  0  0  0
 41115  1  0  0  0
 41116  1  0  0  0
 41 48  1  0  0  0
 42 43  1  0  0  0
 42 66  1  0  0  0
 42117  1  0  0  0
 42118  1  0  0  0
 43 44  1  0  0  0
 44119  1  0  0  0
 45 46  2  0  0  0
 45120  1  0  0  0
 46121  1  0  0  0
 47122  1  0  0  0
 47123  1  0  0  0
 48 56  1  0  0  0
 48 65  1  0  0  0
 48124  1  0  0  0
 49 50  1  0  0  0
 49 53  1  0  0  0
 49 64  1  0  0  0
 49125  1  0  0  0
 50 51  1  0  0  0
 50126  1  0  0  0
 50127  1  0  0  0
 51 52  1  0  0  0
 51128  1  0  0  0
 51129  1  0  0  0
 52130  1  0  0  0
 52131  1  0  0  0
 53 54  1  0  0  0
 54 55  2  0  0  0
 54132  1  0  0  0
 55 57  1  0  0  0
 55133  1  0  0  0
 56 69  2  0  0  0
 57 58  2  0  0  0
 57134  1  0  0  0
 58135  1  0  0  0
 59 60  1  0  0  0
 59 61  1  0  0  0
 59 62  1  0  0  0
 60136  1  0  0  0
 60137  1  0  0  0
 60138  1  0  0  0
 61139  1  0  0  0
 61140  1  0  0  0
 61141  1  0  0  0
 62142  1  0  0  0
 62143  1  0  0  0
 62144  1  0  0  0
 63 65  1  0  0  0
 63145  1  0  0  0
 63146  1  0  0  0
 63147  1  0  0  0
 64148  1  0  0  0
 65149  1  0  0  0
 68 86  1  0  0  0
 71 72  2  0  0  0
 71 73  1  0  0  0
 71150  1  0  0  0
 72 75  1  0  0  0
 72151  1  0  0  0
 73 76  2  0  0  0
 73152  1  0  0  0
 74 75  2  0  0  0
 74 76  1  0  0  0
 74153  1  0  0  0
 75 78  1  0  0  0
 76 87  1  0  0  0
 77 87  1  0  0  0
 77 89  1  0  0  0
 77 90  2  0  0  0
 78154  1  0  0  0
 78155  1  0  0  0
 78156  1  0  0  0
 79157  1  0  0  0
 79158  1  0  0  0
 79159  1  0  0  0
 79 87  1  0  0  0
 80 87  1  0  0  0
 80160  1  0  0  0
 80161  1  0  0  0
 80162  1  0  0  0
 81 83  1  0  0  0
 81 84  1  0  0  0
 81163  1  0  0  0
 81164  1  0  0  0
 82 85  1  0  0  0
 82 86  1  0  0  0
 82165  1  0  0  0
 82166  1  0  0  0
 83 88  1  0  0  0
 83167  1  0  0  0
 83168  1  0  0  0
 84 89  1  0  0  0
 84169  1  0  0  0
 84170  1  0  0  0
 85 89  1  0  0  0
 85171  1  0  0  0
 85172  1  0  0  0
 86173  1  0  0  0
 86174  1  0  0  0
 88175  1  0  0  0
M  ISO  4   1 100  68 101  86 101  88 100
M  END
> <chiral flag>
0

> <version>
0

> <s_m_source_file>
/data/baiqing/PycharmProjects/Reinvent-master-3.2/result/LINK_invent/BTK/process_docking_weight1_custom_sum_contain_oxygen_bond_distance_aromatic_linkinvent_7_9_3/rearranged_h_0002.sdf

> <i_m_source_file_index>
73

> <r_mmod_Potential_Energy-OPLS-2005>
311.133850097656

> <r_mmod_Stretch_Energy-OPLS-2005>
133.030487060547

> <r_mmod_Bend_Energy-OPLS-2005>
211.413711547852

> <r_mmod_Torsional_Energy-OPLS-2005>
311.591644287109

> <r_mmod_Improper_Torsional_Energy-OPLS-2005>
10.7456359863281

> <r_mmod_Van_der_Waal_Energy-OPLS-2005>
131.75032043457

> <r_mmod_Electrostatic_Energy-OPLS-2005>
-337.853820800781

> <r_mmod_Solvation_Energy-OPLS-2005>
-213.309814453125

> <b_mmod_Minimization_Converged-OPLS-2005>
0

> <r_mmod_RMS_Derivative-OPLS-2005>
6.3937406539917

$$$$
73
                    3D
 Structure written by MMmdl.
164172  0  0  1  0            999 V2000
  -30.6990  -14.4353   20.5616 C   0  0  0  0  0  0
  -30.4201  -12.2706   19.4387 C   0  0  0  0  0  0
  -29.5015  -12.4753   18.2162 C   0  0  0  0  0  0
  -28.0176  -12.3530   18.6167 C   0  0  0  0  0  0
  -27.6612  -13.1966   19.8720 C   0  0  2  0  0  0
  -28.6923  -12.9719   21.0001 C   0  0  0  0  0  0
  -25.2595  -13.8149   20.5672 C   0  0  0  0  0  0
  -24.1825  -13.0460   20.9172 C   0  0  0  0  0  0
  -24.6352  -11.6919   20.8697 C   0  0  0  0  0  0
  -23.9017  -10.4324   21.0380 C   0  0  0  0  0  0
  -24.3589   -9.4245   21.9155 C   0  0  0  0  0  0
  -23.6289   -8.2266   22.0724 C   0  0  0  0  0  0
  -22.4261   -8.0283   21.3530 C   0  0  0  0  0  0
  -21.9907   -9.0248   20.4624 C   0  0  0  0  0  0
  -22.7192  -10.2143   20.3028 C   0  0  0  0  0  0
  -21.6866   -6.0743   22.5285 C   0  0  0  0  0  0
  -21.4003   -6.5637   23.8207 C   0  0  0  0  0  0
  -21.3654   -5.6785   24.9174 C   0  0  0  0  0  0
  -21.6059   -4.3045   24.7217 C   0  0  0  0  0  0
  -21.8820   -3.8145   23.4336 C   0  0  0  0  0  0
  -21.9196   -4.6975   22.3397 C   0  0  0  0  0  0
  -22.7846  -13.5244   21.1849 C   0  0  0  0  0  0
  -22.1654   -4.2155   21.0977 F   0  0  0  0  0  0
  -21.5649   -3.4538   25.7738 F   0  0  0  0  0  0
  -30.0360  -13.2553   20.4605 N   0  0  0  0  0  0
  -26.3002  -12.9291   20.3321 N   0  0  0  0  0  0
  -25.9270  -11.6466   20.5723 N   0  0  0  0  0  0
  -22.0488  -12.8233   22.0423 N   0  0  0  0  0  0
  -25.4427  -15.1857   20.4153 N   0  0  0  0  0  0
  -31.8235  -14.6273   20.0892 O   0  0  0  0  0  0
  -21.6624   -6.8882   21.4237 O   0  0  0  0  0  0
  -22.3529  -14.5544   20.6680 O   0  0  0  0  0  0
  -24.6091  -31.8718   23.2123 C   0  0  0  0  0  0
  -25.9009  -32.4840   23.8406 C   0  0  1  0  0  0
  -27.2460  -27.4740   20.1017 C   0  0  0  0  0  0
  -25.5899  -33.8635   24.2351 N   0  0  0  0  0  0
  -23.3946  -30.4959   21.5503 C   0  0  2  0  0  0
  -24.8458  -28.9668   20.1163 C   0  0  0  0  0  0
  -22.7379  -29.4682   22.4990 C   0  0  0  0  0  0
  -18.0270  -28.1365   22.8486 C   0  0  0  0  0  0
  -24.1486  -36.7321   23.2633 C   0  0  0  0  0  0
  -25.9177  -30.8538   21.3577 C   0  0  0  0  0  0
  -26.0009  -29.4888   20.7114 C   0  0  0  0  0  0
  -27.2045  -28.7532   20.7063 C   0  0  0  0  0  0
  -26.0751  -26.9625   19.5072 C   0  0  0  0  0  0
  -24.8746  -27.6982   19.5120 C   0  0  0  0  0  0
  -23.6035  -29.8272   20.1647 C   0  0  0  0  0  0
  -25.4102  -36.3119   24.0343 C   0  0  1  0  0  0
  -20.5857  -28.3655   23.1325 C   0  0  2  0  0  0
  -20.6763  -26.9400   22.5412 C   0  0  0  0  0  0
  -19.5747  -26.6386   21.5198 C   0  0  0  0  0  0
  -18.1923  -26.7914   22.1609 C   0  0  0  0  0  0
  -19.1517  -28.8820   23.2903 C   0  0  0  0  0  0
  -18.9454  -30.1430   23.8917 C   0  0  0  0  0  0
  -17.6460  -30.6574   24.0566 C   0  0  0  0  0  0
  -25.9030  -34.9487   23.5141 C   0  0  0  0  0  0
  -16.5351  -29.9082   23.6318 C   0  0  0  0  0  0
  -16.7264  -28.6495   23.0338 C   0  0  0  0  0  0
  -26.4467  -31.6591   25.0702 C   0  0  0  0  0  0
  -25.3767  -31.3682   26.1475 C   0  0  0  0  0  0
  -27.0298  -30.3047   24.6026 C   0  0  0  0  0  0
  -27.6052  -32.4293   25.7471 C   0  0  0  0  0  0
  -27.5585  -37.1804   24.8458 C   0  0  0  0  0  0
  -21.4111  -29.3035   22.3734 N   0  0  0  0  0  0
  -26.4287  -37.3803   23.9420 N   0  0  0  0  0  0
  -24.6579  -31.0871   22.0997 N   0  0  0  0  0  0
  -23.4170  -28.8246   23.3029 O   0  0  0  0  0  0
  -28.3550  -26.6622   20.0421 O   0  0  0  0  0  0
  -26.5581  -34.8934   22.4695 O   0  0  0  0  0  0
  -23.5302  -32.1463   23.7551 O   0  0  0  0  0  0
  -33.3351  -22.7117   20.1343 C   0  0  0  0  0  0
  -32.5929  -23.9082   20.1179 C   0  0  0  0  0  0
  -30.6362  -22.6753   19.3565 C   0  0  0  0  0  0
  -32.7326  -21.4880   19.7782 C   0  0  0  0  0  0
  -31.3661  -21.4628   19.4094 C   0  0  0  0  0  0
  -31.2372  -23.8973   19.7264 C   0  0  0  0  0  0
  -29.5484  -19.7717   19.3300 C   0  0  0  0  0  0
  -33.5617  -20.2140   19.8028 C   0  0  0  0  0  0
  -29.1781  -18.4083   18.7434 C   0  0  0  0  0  0
  -28.8940  -17.3096   19.7862 C   0  0  0  0  0  0
  -30.1200  -16.8537   20.6123 C   0  0  0  0  0  0
  -29.5685  -27.0566   20.6706 C   0  0  0  0  0  0
  -30.4197  -25.7949   20.8756 C   0  0  0  0  0  0
  -30.7809  -20.2203   19.0471 N   0  0  0  0  0  0
  -29.9535  -15.4558   21.0119 N   0  0  0  0  0  0
  -28.7268  -20.3916   20.0107 O   0  0  0  0  0  0
  -30.4970  -25.0523   19.6601 O   0  0  0  0  0  0
  -31.4682  -12.3543   19.1433 H   0  0  0  0  0  0
  -30.3062  -11.2617   19.8391 H   0  0  0  0  0  0
  -29.7387  -11.7389   17.4468 H   0  0  0  0  0  0
  -29.6885  -13.4531   17.7682 H   0  0  0  0  0  0
  -27.8187  -11.2975   18.8105 H   0  0  0  0  0  0
  -27.3799  -12.6321   17.7766 H   0  0  0  0  0  0
  -27.7126  -14.2427   19.5718 H   0  0  0  0  0  0
  -28.6429  -11.9393   21.3523 H   0  0  0  0  0  0
  -28.4532  -13.5840   21.8706 H   0  0  0  0  0  0
  -25.2745   -9.5740   22.4704 H   0  0  0  0  0  0
  -24.0030   -7.4658   22.7430 H   0  0  0  0  0  0
  -21.0844   -8.8699   19.8938 H   0  0  0  0  0  0
  -22.3611  -10.9642   19.6110 H   0  0  0  0  0  0
  -21.1959   -7.6141   23.9711 H   0  0  0  0  0  0
  -21.1479   -6.0517   25.9070 H   0  0  0  0  0  0
  -22.0600   -2.7612   23.2820 H   0  0  0  0  0  0
  -22.4127  -11.9900   22.4806 H   0  0  0  0  0  0
  -21.1075  -13.1185   22.2617 H   0  0  0  0  0  0
  -24.6941  -15.8550   20.5521 H   0  0  0  0  0  0
  -26.3106  -15.6181   20.1283 H   0  0  0  0  0  0
  -26.7092  -32.5593   23.1190 H   0  0  0  0  0  0
  -25.0079  -33.9809   25.0515 H   0  0  0  0  0  0
  -22.6800  -31.3103   21.4106 H   0  0  0  0  0  0
  -23.3747  -35.9651   23.3292 H   0  0  0  0  0  0
  -24.3596  -36.8935   22.2048 H   0  0  0  0  0  0
  -23.7237  -37.6527   23.6648 H   0  0  0  0  0  0
  -26.0178  -31.6200   20.5882 H   0  0  0  0  0  0
  -26.8083  -30.9151   21.9702 H   0  0  0  0  0  0
  -28.0811  -29.1851   21.1655 H   0  0  0  0  0  0
  -26.0947  -25.9870   19.0419 H   0  0  0  0  0  0
  -23.9872  -27.2845   19.0519 H   0  0  0  0  0  0
  -23.7079  -30.6018   19.4042 H   0  0  0  0  0  0
  -22.7298  -29.2442   19.8681 H   0  0  0  0  0  0
  -25.1267  -36.1983   25.0836 H   0  0  0  0  0  0
  -20.9944  -28.3222   24.1446 H   0  0  0  0  0  0
  -20.5656  -26.2268   23.3594 H   0  0  0  0  0  0
  -21.6640  -26.7444   22.1218 H   0  0  0  0  0  0
  -19.6921  -25.6302   21.1209 H   0  0  0  0  0  0
  -19.6688  -27.3211   20.6740 H   0  0  0  0  0  0
  -17.4195  -26.6665   21.4011 H   0  0  0  0  0  0
  -18.0332  -26.0041   22.8992 H   0  0  0  0  0  0
  -19.7943  -30.7226   24.2297 H   0  0  0  0  0  0
  -17.5032  -31.6258   24.5166 H   0  0  0  0  0  0
  -15.5361  -30.2998   23.7625 H   0  0  0  0  0  0
  -15.8665  -28.0829   22.7036 H   0  0  0  0  0  0
  -24.5935  -30.7019   25.7836 H   0  0  0  0  0  0
  -24.8960  -32.2834   26.4943 H   0  0  0  0  0  0
  -25.8153  -30.8857   27.0218 H   0  0  0  0  0  0
  -26.2827  -29.6800   24.1112 H   0  0  0  0  0  0
  -27.4144  -29.7271   25.4442 H   0  0  0  0  0  0
  -27.8624  -30.4383   23.9111 H   0  0  0  0  0  0
  -27.2675  -33.3575   26.2093 H   0  0  0  0  0  0
  -28.3854  -32.6877   25.0297 H   0  0  0  0  0  0
  -28.0732  -31.8383   26.5358 H   0  0  0  0  0  0
  -28.2573  -38.0125   24.7547 H   0  0  0  0  0  0
  -28.1107  -36.2667   24.6221 H   0  0  0  0  0  0
  -27.2324  -37.1376   25.8862 H   0  0  0  0  0  0
  -20.9251  -29.8785   21.6994 H   0  0  0  0  0  0
  -26.0177  -38.2876   24.1449 H   0  0  0  0  0  0
  -34.3782  -22.7404   20.4181 H   0  0  0  0  0  0
  -33.0856  -24.8340   20.3805 H   0  0  0  0  0  0
  -29.6053  -22.6748   19.0320 H   0  0  0  0  0  0
  -34.5000  -20.3574   20.3403 H   0  0  0  0  0  0
  -33.8049  -19.8937   18.7892 H   0  0  0  0  0  0
  -33.0220  -19.4070   20.2990 H   0  0  0  0  0  0
  -29.9489  -18.0665   18.0502 H   0  0  0  0  0  0
  -28.2833  -18.5524   18.1375 H   0  0  0  0  0  0
  -28.5007  -16.4609   19.2261 H   0  0  0  0  0  0
  -28.0850  -17.6209   20.4498 H   0  0  0  0  0  0
  -30.2317  -17.4671   21.5075 H   0  0  0  0  0  0
  -31.0328  -16.9881   20.0256 H   0  0  0  0  0  0
  -30.0870  -27.7806   20.0422 H   0  0  0  0  0  0
  -29.3995  -27.5133   21.6459 H   0  0  0  0  0  0
  -29.9646  -25.1682   21.6450 H   0  0  0  0  0  0
  -31.4064  -26.0831   21.2374 H   0  0  0  0  0  0
  -31.4009  -19.5503   18.6133 H   0  0  0  0  0  0
  -29.0663  -15.2055   21.4224 H   0  0  0  0  0  0
  1 25  1  0  0  0
  1 30  2  0  0  0
  1 85  1  0  0  0
  2  3  1  0  0  0
  2 25  1  0  0  0
  2 88  1  0  0  0
  2 89  1  0  0  0
  3  4  1  0  0  0
  3 90  1  0  0  0
  3 91  1  0  0  0
  4  5  1  0  0  0
  4 92  1  0  0  0
  4 93  1  0  0  0
  5  6  1  0  0  0
  5 26  1  0  0  0
  5 94  1  0  0  0
  6 25  1  0  0  0
  6 95  1  0  0  0
  6 96  1  0  0  0
  7  8  2  0  0  0
  7 26  1  0  0  0
  7 29  1  0  0  0
  8  9  1  0  0  0
  8 22  1  0  0  0
  9 10  1  0  0  0
  9 27  2  0  0  0
 10 11  2  0  0  0
 10 15  1  0  0  0
 11 12  1  0  0  0
 11 97  1  0  0  0
 12 13  2  0  0  0
 12 98  1  0  0  0
 13 14  1  0  0  0
 13 31  1  0  0  0
 14 15  2  0  0  0
 14 99  1  0  0  0
 15100  1  0  0  0
 16 17  2  0  0  0
 16 21  1  0  0  0
 16 31  1  0  0  0
 17 18  1  0  0  0
 17101  1  0  0  0
 18 19  2  0  0  0
 18102  1  0  0  0
 19 20  1  0  0  0
 19 24  1  0  0  0
 20 21  2  0  0  0
 20103  1  0  0  0
 21 23  1  0  0  0
 22 28  1  0  0  0
 22 32  2  0  0  0
 26 27  1  0  0  0
 28104  1  0  0  0
 28105  1  0  0  0
 29106  1  0  0  0
 29107  1  0  0  0
 33 34  1  0  0  0
 33 66  1  0  0  0
 33 70  2  0  0  0
 34 36  1  0  0  0
 34 59  1  0  0  0
 34108  1  0  0  0
 35 44  2  0  0  0
 35 45  1  0  0  0
 35 68  1  0  0  0
 36 56  1  0  0  0
 36109  1  0  0  0
 37 39  1  0  0  0
 37 47  1  0  0  0
 37 66  1  0  0  0
 37110  1  0  0  0
 38 43  2  0  0  0
 38 46  1  0  0  0
 38 47  1  0  0  0
 39 64  1  0  0  0
 39 67  2  0  0  0
 40 52  1  0  0  0
 40 53  2  0  0  0
 40 58  1  0  0  0
 41111  1  0  0  0
 41112  1  0  0  0
 41113  1  0  0  0
 41 48  1  0  0  0
 42 43  1  0  0  0
 42 66  1  0  0  0
 42114  1  0  0  0
 42115  1  0  0  0
 43 44  1  0  0  0
 44116  1  0  0  0
 45 46  2  0  0  0
 45117  1  0  0  0
 46118  1  0  0  0
 47119  1  0  0  0
 47120  1  0  0  0
 48 56  1  0  0  0
 48 65  1  0  0  0
 48121  1  0  0  0
 49 50  1  0  0  0
 49 53  1  0  0  0
 49 64  1  0  0  0
 49122  1  0  0  0
 50 51  1  0  0  0
 50123  1  0  0  0
 50124  1  0  0  0
 51 52  1  0  0  0
 51125  1  0  0  0
 51126  1  0  0  0
 52127  1  0  0  0
 52128  1  0  0  0
 53 54  1  0  0  0
 54 55  2  0  0  0
 54129  1  0  0  0
 55 57  1  0  0  0
 55130  1  0  0  0
 56 69  2  0  0  0
 57 58  2  0  0  0
 57131  1  0  0  0
 58132  1  0  0  0
 59 60  1  0  0  0
 59 61  1  0  0  0
 59 62  1  0  0  0
 60133  1  0  0  0
 60134  1  0  0  0
 60135  1  0  0  0
 61136  1  0  0  0
 61137  1  0  0  0
 61138  1  0  0  0
 62139  1  0  0  0
 62140  1  0  0  0
 62141  1  0  0  0
 63 65  1  0  0  0
 63142  1  0  0  0
 63143  1  0  0  0
 63144  1  0  0  0
 64145  1  0  0  0
 65146  1  0  0  0
 68 82  1  0  0  0
 71 72  2  0  0  0
 71 74  1  0  0  0
 71147  1  0  0  0
 72 76  1  0  0  0
 72148  1  0  0  0
 73 75  1  0  0  0
 73 76  2  0  0  0
 73149  1  0  0  0
 74 75  2  0  0  0
 74 78  1  0  0  0
 75 84  1  0  0  0
 76 87  1  0  0  0
 77 79  1  0  0  0
 77 84  1  0  0  0
 77 86  2  0  0  0
 78150  1  0  0  0
 78151  1  0  0  0
 78152  1  0  0  0
 79 80  1  0  0  0
 79153  1  0  0  0
 79154  1  0  0  0
 80 81  1  0  0  0
 80155  1  0  0  0
 80156  1  0  0  0
 81 85  1  0  0  0
 81157  1  0  0  0
 81158  1  0  0  0
 82 83  1  0  0  0
 82159  1  0  0  0
 82160  1  0  0  0
 83 87  1  0  0  0
 83161  1  0  0  0
 83162  1  0  0  0
 84163  1  0  0  0
 85164  1  0  0  0
M  ISO  4   1 100  68 101  82 101  85 100
M  END
> <chiral flag>
0

> <version>
0

> <s_m_source_file>
/data/baiqing/PycharmProjects/Reinvent-master-3.2/result/LINK_invent/BTK/process_docking_weight1_custom_sum_contain_oxygen_bond_distance_aromatic_linkinvent_7_9_3/rearranged_h_0002.sdf

> <i_m_source_file_index>
74

> <r_mmod_Potential_Energy-OPLS-2005>
-124.531517028809

> <r_mmod_Stretch_Energy-OPLS-2005>
32.8192100524902

> <r_mmod_Bend_Energy-OPLS-2005>
102.631713867188

> <r_mmod_Torsional_Energy-OPLS-2005>
242.58464050293

> <r_mmod_Improper_Torsional_Energy-OPLS-2005>
6.22702026367188

> <r_mmod_Van_der_Waal_Energy-OPLS-2005>
156.361328125

> <r_mmod_Electrostatic_Energy-OPLS-2005>
-428.839752197266

> <r_mmod_Solvation_Energy-OPLS-2005>
-246.341705322266

> <b_mmod_Minimization_Converged-OPLS-2005>
0

> <r_mmod_RMS_Derivative-OPLS-2005>
2.89737987518311

$$$$
74
                    3D
 Structure written by MMmdl.
137144  0  0  1  0            999 V2000
  -29.9622  -16.5635   20.2664 C   0  0  0  0  0  0
  -30.3146  -13.7964   19.5233 C   0  0  0  0  0  0
  -29.5702  -12.9451   18.4142 C   0  0  0  0  0  0
  -28.2376  -12.3814   18.9086 C   0  0  0  0  0  0
  -27.5746  -13.4257   19.8177 C   0  0  2  0  0  0
  -28.5152  -14.1357   20.8613 C   0  0  0  0  0  0
  -25.2174  -13.8479   20.5951 C   0  0  0  0  0  0
  -24.1675  -13.0467   20.9341 C   0  0  0  0  0  0
  -24.6541  -11.7031   20.8745 C   0  0  0  0  0  0
  -23.9255  -10.4321   21.0342 C   0  0  0  0  0  0
  -24.3739   -9.4228   21.9149 C   0  0  0  0  0  0
  -23.6364   -8.2283   22.0747 C   0  0  0  0  0  0
  -22.4340   -8.0323   21.3544 C   0  0  0  0  0  0
  -22.0014   -9.0304   20.4634 C   0  0  0  0  0  0
  -22.7395  -10.2158   20.3018 C   0  0  0  0  0  0
  -21.6878   -6.0765   22.5277 C   0  0  0  0  0  0
  -21.4033   -6.5657   23.8214 C   0  0  0  0  0  0
  -21.3665   -5.6802   24.9171 C   0  0  0  0  0  0
  -21.6043   -4.3064   24.7217 C   0  0  0  0  0  0
  -21.8816   -3.8163   23.4335 C   0  0  0  0  0  0
  -21.9200   -4.6987   22.3396 C   0  0  0  0  0  0
  -22.7650  -13.5092   21.1938 C   0  0  0  0  0  0
  -22.1663   -4.2170   21.0973 F   0  0  0  0  0  0
  -21.5624   -3.4543   25.7727 F   0  0  0  0  0  0
  -29.5188  -15.0444   20.1465 N   0  0  0  0  0  0
  -26.2805  -13.0063   20.3476 N   0  0  0  0  0  0
  -25.9548  -11.6990   20.5678 N   0  0  0  0  0  0
  -22.0351  -12.8040   22.0489 N   0  0  0  0  0  0
  -25.3555  -15.2242   20.4383 N   0  0  0  0  0  0
  -31.2063  -16.3142   20.2293 O   0  0  0  0  0  0
  -21.6677   -6.8928   21.4248 O   0  0  0  0  0  0
  -22.3283  -14.5375   20.6771 O   0  0  0  0  0  0
  -24.7449  -31.7216   23.0979 C   0  0  0  0  0  0
  -25.9712  -32.4091   23.7768 C   0  0  1  0  0  0
  -27.2626  -26.0606   20.2671 C   0  0  0  0  0  0
  -25.6018  -33.7953   24.1581 N   0  0  0  0  0  0
  -23.5996  -30.2922   21.4680 C   0  0  2  0  0  0
  -25.0624  -28.4936   20.1392 C   0  0  0  0  0  0
  -22.8035  -29.3895   22.4550 C   0  0  0  0  0  0
  -18.0376  -28.1454   22.8421 C   0  0  0  0  0  0
  -24.1496  -36.6992   23.2671 C   0  0  0  0  0  0
  -26.1999  -30.2411   21.4589 C   0  0  0  0  0  0
  -26.2597  -28.7329   20.8212 C   0  0  0  0  0  0
  -27.3097  -27.5690   20.8335 C   0  0  0  0  0  0
  -26.0272  -26.1946   19.5192 C   0  0  0  0  0  0
  -25.0234  -27.2541   19.4619 C   0  0  0  0  0  0
  -23.8874  -29.5253   20.1333 C   0  0  0  0  0  0
  -25.4170  -36.2677   24.0236 C   0  0  1  0  0  0
  -20.6038  -28.3836   23.1031 C   0  0  2  0  0  0
  -20.6806  -26.9436   22.5420 C   0  0  0  0  0  0
  -19.5796  -26.6348   21.5224 C   0  0  0  0  0  0
  -18.1977  -26.7969   22.1607 C   0  0  0  0  0  0
  -19.1657  -28.8984   23.2686 C   0  0  0  0  0  0
  -18.9553  -30.1552   23.8759 C   0  0  0  0  0  0
  -17.6536  -30.6619   24.0537 C   0  0  0  0  0  0
  -25.9187  -34.9084   23.4798 C   0  0  0  0  0  0
  -16.5422  -29.9090   23.6366 C   0  0  0  0  0  0
  -16.7352  -28.6518   23.0376 C   0  0  0  0  0  0
  -26.4693  -31.6408   25.0652 C   0  0  0  0  0  0
  -25.3596  -31.3898   26.1149 C   0  0  0  0  0  0
  -27.0730  -30.2690   24.7003 C   0  0  0  0  0  0
  -27.6017  -32.4426   25.7501 C   0  0  0  0  0  0
  -27.5543  -37.1648   24.8466 C   0  0  0  0  0  0
  -21.4628  -29.2949   22.3282 N   0  0  0  0  0  0
  -26.4242  -37.3509   23.9408 N   0  0  0  0  0  0
  -24.8802  -30.8007   22.0600 N   0  0  0  0  0  0
  -23.4175  -28.7613   23.3197 O   0  0  0  0  0  0
  -28.1668  -24.5661   20.3212 O   0  0  0  0  0  0
  -26.5925  -34.8791   22.4483 O   0  0  0  0  0  0
  -23.6336  -32.0588   23.5524 O   0  0  0  0  0  0
  -29.2006  -20.3375   20.3201 C   0  0  0  0  0  0
  -28.2004  -22.4649   20.2188 C   0  0  0  0  0  0
  -29.3170  -18.2279   20.2702 N   0  0  0  0  0  0
  -31.2155  -14.1817   19.0448 H   0  0  0  0  0  0
  -30.7050  -13.1434   20.3066 H   0  0  0  0  0  0
  -30.2109  -12.1390   18.0541 H   0  0  0  0  0  0
  -29.3823  -13.5901   17.5547 H   0  0  0  0  0  0
  -28.4305  -11.4738   19.4819 H   0  0  0  0  0  0
  -27.5913  -12.1016   18.0755 H   0  0  0  0  0  0
  -27.3204  -14.2160   19.1091 H   0  0  0  0  0  0
  -28.9720  -13.4238   21.5512 H   0  0  0  0  0  0
  -27.9168  -14.7884   21.4973 H   0  0  0  0  0  0
  -25.2871   -9.5690   22.4748 H   0  0  0  0  0  0
  -24.0047   -7.4683   22.7489 H   0  0  0  0  0  0
  -21.0938   -8.8851   19.8945 H   0  0  0  0  0  0
  -22.3854  -10.9697   19.6127 H   0  0  0  0  0  0
  -21.2035   -7.6165   23.9725 H   0  0  0  0  0  0
  -21.1486   -6.0529   25.9075 H   0  0  0  0  0  0
  -22.0587   -2.7625   23.2829 H   0  0  0  0  0  0
  -22.4039  -11.9742   22.4895 H   0  0  0  0  0  0
  -21.0937  -13.0980   22.2674 H   0  0  0  0  0  0
  -24.5768  -15.8638   20.5540 H   0  0  0  0  0  0
  -26.2060  -15.6839   20.1380 H   0  0  0  0  0  0
  -26.7876  -32.4443   23.0543 H   0  0  0  0  0  0
  -24.9961  -33.8879   24.9601 H   0  0  0  0  0  0
  -22.9629  -31.1444   21.2211 H   0  0  0  0  0  0
  -23.3792  -35.9283   23.3224 H   0  0  0  0  0  0
  -24.3542  -36.8804   22.2107 H   0  0  0  0  0  0
  -23.7229  -37.6104   23.6874 H   0  0  0  0  0  0
  -26.4659  -30.9211   20.6487 H   0  0  0  0  0  0
  -27.0298  -30.3291   22.1459 H   0  0  0  0  0  0
  -28.1985  -27.7908   21.4071 H   0  0  0  0  0  0
  -25.7596  -25.3099   18.9588 H   0  0  0  0  0  0
  -24.1415  -27.0455   18.8719 H   0  0  0  0  0  0
  -24.1127  -30.2559   19.3556 H   0  0  0  0  0  0
  -22.9802  -29.0216   19.7958 H   0  0  0  0  0  0
  -25.1411  -36.1346   25.0723 H   0  0  0  0  0  0
  -21.0093  -28.3507   24.1170 H   0  0  0  0  0  0
  -20.5606  -26.2478   23.3738 H   0  0  0  0  0  0
  -21.6663  -26.7276   22.1281 H   0  0  0  0  0  0
  -19.6940  -25.6222   21.1342 H   0  0  0  0  0  0
  -19.6763  -27.3084   20.6699 H   0  0  0  0  0  0
  -17.4253  -26.6718   21.4002 H   0  0  0  0  0  0
  -18.0338  -26.0144   22.9029 H   0  0  0  0  0  0
  -19.8031  -30.7398   24.2071 H   0  0  0  0  0  0
  -17.5087  -31.6284   24.5168 H   0  0  0  0  0  0
  -15.5417  -30.2952   23.7771 H   0  0  0  0  0  0
  -15.8752  -28.0794   22.7169 H   0  0  0  0  0  0
  -24.5845  -30.7190   25.7424 H   0  0  0  0  0  0
  -24.8725  -32.3171   26.4173 H   0  0  0  0  0  0
  -25.7627  -30.9316   27.0189 H   0  0  0  0  0  0
  -26.3552  -29.6093   24.2123 H   0  0  0  0  0  0
  -27.4038  -29.7408   25.5956 H   0  0  0  0  0  0
  -27.9570  -30.3690   24.0706 H   0  0  0  0  0  0
  -27.2476  -33.3875   26.1635 H   0  0  0  0  0  0
  -28.4042  -32.6752   25.0488 H   0  0  0  0  0  0
  -28.0450  -31.8868   26.5774 H   0  0  0  0  0  0
  -28.2488  -38.0006   24.7515 H   0  0  0  0  0  0
  -28.1107  -36.2518   24.6291 H   0  0  0  0  0  0
  -27.2256  -37.1265   25.8866 H   0  0  0  0  0  0
  -21.0089  -29.8498   21.6159 H   0  0  0  0  0  0
  -26.0011  -38.2526   24.1435 H   0  0  0  0  0  0
  -30.0015  -20.5173   19.6027 H   0  0  0  0  0  0
  -29.6902  -20.4553   21.2869 H   0  0  0  0  0  0
  -27.7199  -22.3753   19.2446 H   0  0  0  0  0  0
  -27.3860  -22.2933   20.9225 H   0  0  0  0  0  0
  -30.3181  -18.3884   20.2986 H   0  0  0  0  0  0
  1 25  1  0  0  0
  1 30  2  0  0  0
  1 73  1  0  0  0
  2  3  1  0  0  0
  2 25  1  0  0  0
  2 74  1  0  0  0
  2 75  1  0  0  0
  3  4  1  0  0  0
  3 76  1  0  0  0
  3 77  1  0  0  0
  4  5  1  0  0  0
  4 78  1  0  0  0
  4 79  1  0  0  0
  5  6  1  0  0  0
  5 26  1  0  0  0
  5 80  1  0  0  0
  6 25  1  0  0  0
  6 81  1  0  0  0
  6 82  1  0  0  0
  7  8  2  0  0  0
  7 26  1  0  0  0
  7 29  1  0  0  0
  8  9  1  0  0  0
  8 22  1  0  0  0
  9 10  1  0  0  0
  9 27  2  0  0  0
 10 11  2  0  0  0
 10 15  1  0  0  0
 11 12  1  0  0  0
 11 83  1  0  0  0
 12 13  2  0  0  0
 12 84  1  0  0  0
 13 14  1  0  0  0
 13 31  1  0  0  0
 14 15  2  0  0  0
 14 85  1  0  0  0
 15 86  1  0  0  0
 16 17  2  0  0  0
 16 21  1  0  0  0
 16 31  1  0  0  0
 17 18  1  0  0  0
 17 87  1  0  0  0
 18 19  2  0  0  0
 18 88  1  0  0  0
 19 20  1  0  0  0
 19 24  1  0  0  0
 20 21  2  0  0  0
 20 89  1  0  0  0
 21 23  1  0  0  0
 22 28  1  0  0  0
 22 32  2  0  0  0
 26 27  1  0  0  0
 28 90  1  0  0  0
 28 91  1  0  0  0
 29 92  1  0  0  0
 29 93  1  0  0  0
 33 34  1  0  0  0
 33 66  1  0  0  0
 33 70  2  0  0  0
 34 36  1  0  0  0
 34 59  1  0  0  0
 34 94  1  0  0  0
 35 44  2  0  0  0
 35 45  1  0  0  0
 35 68  1  0  0  0
 36 56  1  0  0  0
 36 95  1  0  0  0
 37 39  1  0  0  0
 37 47  1  0  0  0
 37 66  1  0  0  0
 37 96  1  0  0  0
 38 43  2  0  0  0
 38 46  1  0  0  0
 38 47  1  0  0  0
 39 64  1  0  0  0
 39 67  2  0  0  0
 40 52  1  0  0  0
 40 53  2  0  0  0
 40 58  1  0  0  0
 41 97  1  0  0  0
 41 98  1  0  0  0
 41 99  1  0  0  0
 41 48  1  0  0  0
 42 43  1  0  0  0
 42 66  1  0  0  0
 42100  1  0  0  0
 42101  1  0  0  0
 43 44  1  0  0  0
 44102  1  0  0  0
 45 46  2  0  0  0
 45103  1  0  0  0
 46104  1  0  0  0
 47105  1  0  0  0
 47106  1  0  0  0
 48 56  1  0  0  0
 48 65  1  0  0  0
 48107  1  0  0  0
 49 50  1  0  0  0
 49 53  1  0  0  0
 49 64  1  0  0  0
 49108  1  0  0  0
 50 51  1  0  0  0
 50109  1  0  0  0
 50110  1  0  0  0
 51 52  1  0  0  0
 51111  1  0  0  0
 51112  1  0  0  0
 52113  1  0  0  0
 52114  1  0  0  0
 53 54  1  0  0  0
 54 55  2  0  0  0
 54115  1  0  0  0
 55 57  1  0  0  0
 55116  1  0  0  0
 56 69  2  0  0  0
 57 58  2  0  0  0
 57117  1  0  0  0
 58118  1  0  0  0
 59 60  1  0  0  0
 59 61  1  0  0  0
 59 62  1  0  0  0
 60119  1  0  0  0
 60120  1  0  0  0
 60121  1  0  0  0
 61122  1  0  0  0
 61123  1  0  0  0
 61124  1  0  0  0
 62125  1  0  0  0
 62126  1  0  0  0
 62127  1  0  0  0
 63 65  1  0  0  0
 63128  1  0  0  0
 63129  1  0  0  0
 63130  1  0  0  0
 64131  1  0  0  0
 65132  1  0  0  0
 68 72  1  0  0  0
 71 72  1  0  0  0
 71 73  1  0  0  0
 71133  1  0  0  0
 71134  1  0  0  0
 72135  1  0  0  0
 72136  1  0  0  0
 73137  1  0  0  0
M  ISO  4   1 100  68 101  72 101  73 100
M  END
> <chiral flag>
0

> <version>
0

> <s_m_source_file>
/data/baiqing/PycharmProjects/Reinvent-master-3.2/result/LINK_invent/BTK/process_docking_weight1_custom_sum_contain_oxygen_bond_distance_aromatic_linkinvent_7_9_3/rearranged_h_0002.sdf

> <i_m_source_file_index>
75

> <r_mmod_Potential_Energy-OPLS-2005>
6948.9697265625

> <r_mmod_Stretch_Energy-OPLS-2005>
3136.46411132812

> <r_mmod_Bend_Energy-OPLS-2005>
1268.50207519531

> <r_mmod_Torsional_Energy-OPLS-2005>
217.324829101562

> <r_mmod_Improper_Torsional_Energy-OPLS-2005>
4.82364273071289

> <r_mmod_Van_der_Waal_Energy-OPLS-2005>
120.95548248291

> <r_mmod_Electrostatic_Energy-OPLS-2005>
-391.247985839844

> <r_mmod_Solvation_Energy-OPLS-2005>
-221.174652099609

> <b_mmod_Minimization_Converged-OPLS-2005>
1

> <r_mmod_RMS_Derivative-OPLS-2005>
0.042349461466074

$$$$
75
                    3D
 Structure written by MMmdl.
147155  0  0  1  0            999 V2000
  -30.3063  -15.6722   20.3569 C   0  0  0  0  0  0
  -30.4207  -13.1236   19.5186 C   0  0  0  0  0  0
  -29.5472  -12.6575   18.3192 C   0  0  0  0  0  0
  -28.1304  -12.2838   18.7817 C   0  0  0  0  0  0
  -27.5919  -13.3074   19.8063 C   0  0  2  0  0  0
  -28.6099  -13.6728   20.9125 C   0  0  0  0  0  0
  -25.2321  -13.8277   20.5825 C   0  0  0  0  0  0
  -24.1699  -13.0427   20.9283 C   0  0  0  0  0  0
  -24.6401  -11.6937   20.8769 C   0  0  0  0  0  0
  -23.9106  -10.4290   21.0403 C   0  0  0  0  0  0
  -24.3648   -9.4198   21.9180 C   0  0  0  0  0  0
  -23.6303   -8.2244   22.0762 C   0  0  0  0  0  0
  -22.4282   -8.0287   21.3551 C   0  0  0  0  0  0
  -21.9928   -9.0263   20.4653 C   0  0  0  0  0  0
  -22.7275  -10.2131   20.3051 C   0  0  0  0  0  0
  -21.6851   -6.0735   22.5274 C   0  0  0  0  0  0
  -21.4014   -6.5638   23.8208 C   0  0  0  0  0  0
  -21.3661   -5.6794   24.9171 C   0  0  0  0  0  0
  -21.6043   -4.3057   24.7222 C   0  0  0  0  0  0
  -21.8819   -3.8145   23.4342 C   0  0  0  0  0  0
  -21.9188   -4.6962   22.3396 C   0  0  0  0  0  0
  -22.7710  -13.5163   21.1896 C   0  0  0  0  0  0
  -22.1656   -4.2148   21.0976 F   0  0  0  0  0  0
  -21.5632   -3.4537   25.7734 F   0  0  0  0  0  0
  -29.7638  -14.3143   20.2332 N   0  0  0  0  0  0
  -26.2763  -12.9605   20.3253 N   0  0  0  0  0  0
  -25.9353  -11.6675   20.5715 N   0  0  0  0  0  0
  -22.0377  -12.8151   22.0459 N   0  0  0  0  0  0
  -25.3934  -15.2021   20.4318 N   0  0  0  0  0  0
  -31.5478  -15.5631   20.2801 O   0  0  0  0  0  0
  -21.6637   -6.8886   21.4241 O   0  0  0  0  0  0
  -22.3392  -14.5460   20.6724 O   0  0  0  0  0  0
  -24.6883  -31.7961   23.1481 C   0  0  0  0  0  0
  -25.9449  -32.4451   23.8036 C   0  0  1  0  0  0
  -27.2261  -26.6620   20.2282 C   0  0  0  0  0  0
  -25.6011  -33.8272   24.1925 N   0  0  0  0  0  0
  -23.5145  -30.3968   21.5035 C   0  0  2  0  0  0
  -24.9709  -28.7263   20.1269 C   0  0  0  0  0  0
  -22.7779  -29.4303   22.4705 C   0  0  0  0  0  0
  -18.0343  -28.1419   22.8461 C   0  0  0  0  0  0
  -24.1496  -36.7147   23.2653 C   0  0  0  0  0  0
  -26.0981  -30.5177   21.4166 C   0  0  0  0  0  0
  -26.1629  -29.0765   20.7714 C   0  0  0  0  0  0
  -27.2770  -28.0759   20.7816 C   0  0  0  0  0  0
  -25.9971  -26.5294   19.5315 C   0  0  0  0  0  0
  -24.9294  -27.4786   19.4815 C   0  0  0  0  0  0
  -23.7708  -29.6882   20.1421 C   0  0  0  0  0  0
  -25.4148  -36.2883   24.0279 C   0  0  1  0  0  0
  -20.5981  -28.3789   23.1130 C   0  0  2  0  0  0
  -20.6811  -26.9446   22.5396 C   0  0  0  0  0  0
  -19.5784  -26.6372   21.5210 C   0  0  0  0  0  0
  -18.1971  -26.7947   22.1622 C   0  0  0  0  0  0
  -19.1611  -28.8928   23.2776 C   0  0  0  0  0  0
  -18.9517  -30.1512   23.8822 C   0  0  0  0  0  0
  -17.6507  -30.6604   24.0549 C   0  0  0  0  0  0
  -25.9132  -34.9277   23.4939 C   0  0  0  0  0  0
  -16.5396  -29.9087   23.6350 C   0  0  0  0  0  0
  -16.7324  -28.6505   23.0374 C   0  0  0  0  0  0
  -26.4603  -31.6499   25.0674 C   0  0  0  0  0  0
  -25.3663  -31.3819   26.1285 C   0  0  0  0  0  0
  -27.0554  -30.2843   24.6594 C   0  0  0  0  0  0
  -27.6034  -32.4373   25.7501 C   0  0  0  0  0  0
  -27.5557  -37.1732   24.8473 C   0  0  0  0  0  0
  -21.4426  -29.3031   22.3452 N   0  0  0  0  0  0
  -26.4270  -37.3652   23.9403 N   0  0  0  0  0  0
  -24.7908  -30.9368   22.0755 N   0  0  0  0  0  0
  -23.4212  -28.7904   23.3058 O   0  0  0  0  0  0
  -28.2056  -25.4411   20.2299 O   0  0  0  0  0  0
  -26.5769  -34.8864   22.4553 O   0  0  0  0  0  0
  -23.5894  -32.1053   23.6412 O   0  0  0  0  0  0
  -31.0162  -20.6578   22.7469 C   0  0  0  0  0  0
  -31.3722  -19.3232   22.7555 C   0  0  0  0  0  0
  -30.1071  -21.1254   21.8014 C   0  0  0  0  0  0
  -30.8046  -18.4341   21.8435 C   0  0  0  0  0  0
  -29.4502  -20.3701   20.7923 C   0  0  0  0  0  0
  -29.8371  -18.7163   20.8322 C   0  0  0  0  0  0
  -28.6044  -21.8395   20.0209 C   0  0  0  0  0  0
  -28.0637  -23.6840   20.4988 C   0  0  0  0  0  0
  -29.6021  -17.0876   20.3038 N   0  0  0  0  0  0
  -31.4032  -13.4006   19.1343 H   0  0  0  0  0  0
  -30.6112  -12.3003   20.2094 H   0  0  0  0  0  0
  -30.0130  -11.8136   17.8081 H   0  0  0  0  0  0
  -29.4876  -13.4649   17.5886 H   0  0  0  0  0  0
  -28.1829  -11.3006   19.2514 H   0  0  0  0  0  0
  -27.4557  -12.1828   17.9306 H   0  0  0  0  0  0
  -27.4419  -14.2136   19.2173 H   0  0  0  0  0  0
  -28.8925  -12.8042   21.5094 H   0  0  0  0  0  0
  -28.1696  -14.3908   21.6063 H   0  0  0  0  0  0
  -25.2795   -9.5657   22.4757 H   0  0  0  0  0  0
  -23.9997   -7.4637   22.7488 H   0  0  0  0  0  0
  -21.0859   -8.8793   19.8965 H   0  0  0  0  0  0
  -22.3742  -10.9671   19.6162 H   0  0  0  0  0  0
  -21.2015   -7.6148   23.9704 H   0  0  0  0  0  0
  -21.1478   -6.0527   25.9073 H   0  0  0  0  0  0
  -22.0598   -2.7603   23.2834 H   0  0  0  0  0  0
  -22.4020  -11.9837   22.4872 H   0  0  0  0  0  0
  -21.0991  -13.1162   22.2665 H   0  0  0  0  0  0
  -24.6297  -15.8559   20.5691 H   0  0  0  0  0  0
  -26.2478  -15.6489   20.1270 H   0  0  0  0  0  0
  -26.7527  -32.4917   23.0745 H   0  0  0  0  0  0
  -25.0084  -33.9297   25.0024 H   0  0  0  0  0  0
  -22.8424  -31.2358   21.3094 H   0  0  0  0  0  0
  -23.3773  -35.9465   23.3285 H   0  0  0  0  0  0
  -24.3556  -36.8841   22.2074 H   0  0  0  0  0  0
  -23.7254  -37.6315   23.6752 H   0  0  0  0  0  0
  -26.3037  -31.2376   20.6232 H   0  0  0  0  0  0
  -26.9472  -30.5880   22.0833 H   0  0  0  0  0  0
  -28.1803  -28.3589   21.3019 H   0  0  0  0  0  0
  -25.8261  -25.5894   19.0257 H   0  0  0  0  0  0
  -24.0318  -27.2015   18.9456 H   0  0  0  0  0  0
  -23.9531  -30.4444   19.3779 H   0  0  0  0  0  0
  -22.8745  -29.1588   19.8159 H   0  0  0  0  0  0
  -25.1359  -36.1639   25.0770 H   0  0  0  0  0  0
  -21.0063  -28.3419   24.1256 H   0  0  0  0  0  0
  -20.5675  -26.2408   23.3660 H   0  0  0  0  0  0
  -21.6670  -26.7391   22.1204 H   0  0  0  0  0  0
  -19.6936  -25.6262   21.1289 H   0  0  0  0  0  0
  -19.6714  -27.3138   20.6704 H   0  0  0  0  0  0
  -17.4230  -26.6687   21.4037 H   0  0  0  0  0  0
  -18.0372  -26.0101   22.9031 H   0  0  0  0  0  0
  -19.7993  -30.7349   24.2155 H   0  0  0  0  0  0
  -17.5058  -31.6277   24.5169 H   0  0  0  0  0  0
  -15.5396  -30.2968   23.7710 H   0  0  0  0  0  0
  -15.8726  -28.0795   22.7140 H   0  0  0  0  0  0
  -24.5832  -30.7206   25.7554 H   0  0  0  0  0  0
  -24.8888  -32.3056   26.4568 H   0  0  0  0  0  0
  -25.7829  -30.9039   27.0164 H   0  0  0  0  0  0
  -26.3285  -29.6437   24.1599 H   0  0  0  0  0  0
  -27.3989  -29.7309   25.5343 H   0  0  0  0  0  0
  -27.9253  -30.3967   24.0126 H   0  0  0  0  0  0
  -27.2544  -33.3717   26.1908 H   0  0  0  0  0  0
  -28.3934  -32.6878   25.0407 H   0  0  0  0  0  0
  -28.0617  -31.8639   26.5572 H   0  0  0  0  0  0
  -28.2559  -38.0037   24.7492 H   0  0  0  0  0  0
  -28.1064  -36.2560   24.6335 H   0  0  0  0  0  0
  -27.2266  -37.1412   25.8872 H   0  0  0  0  0  0
  -20.9743  -29.8685   21.6507 H   0  0  0  0  0  0
  -26.0098  -38.2698   24.1412 H   0  0  0  0  0  0
  -31.4551  -21.3404   23.4633 H   0  0  0  0  0  0
  -32.0847  -18.9630   23.4855 H   0  0  0  0  0  0
  -29.9309  -22.1886   21.8752 H   0  0  0  0  0  0
  -31.1672  -17.4339   22.0103 H   0  0  0  0  0  0
  -27.6575  -21.3891   19.7237 H   0  0  0  0  0  0
  -29.1242  -21.9517   19.0699 H   0  0  0  0  0  0
  -26.9954  -23.6033   20.3008 H   0  0  0  0  0  0
  -28.0938  -23.6515   21.5875 H   0  0  0  0  0  0
  -28.6581  -16.9580   19.9679 H   0  0  0  0  0  0
  1 25  1  0  0  0
  1 30  2  0  0  0
  1 79  1  0  0  0
  2  3  1  0  0  0
  2 25  1  0  0  0
  2 80  1  0  0  0
  2 81  1  0  0  0
  3  4  1  0  0  0
  3 82  1  0  0  0
  3 83  1  0  0  0
  4  5  1  0  0  0
  4 84  1  0  0  0
  4 85  1  0  0  0
  5  6  1  0  0  0
  5 26  1  0  0  0
  5 86  1  0  0  0
  6 25  1  0  0  0
  6 87  1  0  0  0
  6 88  1  0  0  0
  7  8  2  0  0  0
  7 26  1  0  0  0
  7 29  1  0  0  0
  8  9  1  0  0  0
  8 22  1  0  0  0
  9 10  1  0  0  0
  9 27  2  0  0  0
 10 11  2  0  0  0
 10 15  1  0  0  0
 11 12  1  0  0  0
 11 89  1  0  0  0
 12 13  2  0  0  0
 12 90  1  0  0  0
 13 14  1  0  0  0
 13 31  1  0  0  0
 14 15  2  0  0  0
 14 91  1  0  0  0
 15 92  1  0  0  0
 16 17  2  0  0  0
 16 21  1  0  0  0
 16 31  1  0  0  0
 17 18  1  0  0  0
 17 93  1  0  0  0
 18 19  2  0  0  0
 18 94  1  0  0  0
 19 20  1  0  0  0
 19 24  1  0  0  0
 20 21  2  0  0  0
 20 95  1  0  0  0
 21 23  1  0  0  0
 22 28  1  0  0  0
 22 32  2  0  0  0
 26 27  1  0  0  0
 28 96  1  0  0  0
 28 97  1  0  0  0
 29 98  1  0  0  0
 29 99  1  0  0  0
 33 34  1  0  0  0
 33 66  1  0  0  0
 33 70  2  0  0  0
 34 36  1  0  0  0
 34 59  1  0  0  0
 34100  1  0  0  0
 35 44  2  0  0  0
 35 45  1  0  0  0
 35 68  1  0  0  0
 36 56  1  0  0  0
 36101  1  0  0  0
 37 39  1  0  0  0
 37 47  1  0  0  0
 37 66  1  0  0  0
 37102  1  0  0  0
 38 43  2  0  0  0
 38 46  1  0  0  0
 38 47  1  0  0  0
 39 64  1  0  0  0
 39 67  2  0  0  0
 40 52  1  0  0  0
 40 53  2  0  0  0
 40 58  1  0  0  0
 41103  1  0  0  0
 41104  1  0  0  0
 41105  1  0  0  0
 41 48  1  0  0  0
 42 43  1  0  0  0
 42 66  1  0  0  0
 42106  1  0  0  0
 42107  1  0  0  0
 43 44  1  0  0  0
 44108  1  0  0  0
 45 46  2  0  0  0
 45109  1  0  0  0
 46110  1  0  0  0
 47111  1  0  0  0
 47112  1  0  0  0
 48 56  1  0  0  0
 48 65  1  0  0  0
 48113  1  0  0  0
 49 50  1  0  0  0
 49 53  1  0  0  0
 49 64  1  0  0  0
 49114  1  0  0  0
 50 51  1  0  0  0
 50115  1  0  0  0
 50116  1  0  0  0
 51 52  1  0  0  0
 51117  1  0  0  0
 51118  1  0  0  0
 52119  1  0  0  0
 52120  1  0  0  0
 53 54  1  0  0  0
 54 55  2  0  0  0
 54121  1  0  0  0
 55 57  1  0  0  0
 55122  1  0  0  0
 56 69  2  0  0  0
 57 58  2  0  0  0
 57123  1  0  0  0
 58124  1  0  0  0
 59 60  1  0  0  0
 59 61  1  0  0  0
 59 62  1  0  0  0
 60125  1  0  0  0
 60126  1  0  0  0
 60127  1  0  0  0
 61128  1  0  0  0
 61129  1  0  0  0
 61130  1  0  0  0
 62131  1  0  0  0
 62132  1  0  0  0
 62133  1  0  0  0
 63 65  1  0  0  0
 63134  1  0  0  0
 63135  1  0  0  0
 63136  1  0  0  0
 64137  1  0  0  0
 65138  1  0  0  0
 68 78  1  0  0  0
 71 72  2  0  0  0
 71 73  1  0  0  0
 71139  1  0  0  0
 72 74  1  0  0  0
 72140  1  0  0  0
 73 75  2  0  0  0
 73141  1  0  0  0
 74 76  2  0  0  0
 74142  1  0  0  0
 75 76  1  0  0  0
 75 77  1  0  0  0
 76 79  1  0  0  0
 77 78  1  0  0  0
 77143  1  0  0  0
 77144  1  0  0  0
 78145  1  0  0  0
 78146  1  0  0  0
 79147  1  0  0  0
M  ISO  4   1 100  68 101  78 101  79 100
M  END
> <chiral flag>
0

> <version>
0

> <s_m_source_file>
/data/baiqing/PycharmProjects/Reinvent-master-3.2/result/LINK_invent/BTK/process_docking_weight1_custom_sum_contain_oxygen_bond_distance_aromatic_linkinvent_7_9_3/rearranged_h_0002.sdf

> <i_m_source_file_index>
76

> <r_mmod_Potential_Energy-OPLS-2005>
2887.041015625

> <r_mmod_Stretch_Energy-OPLS-2005>
1260.29846191406

> <r_mmod_Bend_Energy-OPLS-2005>
834.871154785156

> <r_mmod_Torsional_Energy-OPLS-2005>
254.824127197266

> <r_mmod_Improper_Torsional_Energy-OPLS-2005>
7.25113964080811

> <r_mmod_Van_der_Waal_Energy-OPLS-2005>
137.05485534668

> <r_mmod_Electrostatic_Energy-OPLS-2005>
-356.417510986328

> <r_mmod_Solvation_Energy-OPLS-2005>
-214.384765625

> <b_mmod_Minimization_Converged-OPLS-2005>
0

> <r_mmod_RMS_Derivative-OPLS-2005>
1.64083755016327

$$$$
76
                    3D
 Structure written by MMmdl.
143150  0  0  1  0            999 V2000
  -30.3355  -15.5533   20.3377 C   0  0  0  0  0  0
  -30.4278  -13.0206   19.5356 C   0  0  0  0  0  0
  -29.5464  -12.6353   18.3151 C   0  0  0  0  0  0
  -28.1142  -12.2965   18.7563 C   0  0  0  0  0  0
  -27.5983  -13.2998   19.8136 C   0  0  2  0  0  0
  -28.6188  -13.6020   20.9348 C   0  0  0  0  0  0
  -25.2335  -13.8272   20.5783 C   0  0  0  0  0  0
  -24.1716  -13.0431   20.9280 C   0  0  0  0  0  0
  -24.6407  -11.6939   20.8763 C   0  0  0  0  0  0
  -23.9108  -10.4290   21.0398 C   0  0  0  0  0  0
  -24.3646   -9.4204   21.9179 C   0  0  0  0  0  0
  -23.6308   -8.2245   22.0753 C   0  0  0  0  0  0
  -22.4289   -8.0285   21.3544 C   0  0  0  0  0  0
  -21.9934   -9.0259   20.4644 C   0  0  0  0  0  0
  -22.7275  -10.2132   20.3050 C   0  0  0  0  0  0
  -21.6858   -6.0738   22.5278 C   0  0  0  0  0  0
  -21.4019   -6.5642   23.8212 C   0  0  0  0  0  0
  -21.3660   -5.6794   24.9173 C   0  0  0  0  0  0
  -21.6043   -4.3057   24.7224 C   0  0  0  0  0  0
  -21.8819   -3.8148   23.4345 C   0  0  0  0  0  0
  -21.9194   -4.6965   22.3402 C   0  0  0  0  0  0
  -22.7731  -13.5167   21.1917 C   0  0  0  0  0  0
  -22.1662   -4.2150   21.0979 F   0  0  0  0  0  0
  -21.5626   -3.4540   25.7737 F   0  0  0  0  0  0
  -29.8047  -14.1993   20.2827 N   0  0  0  0  0  0
  -26.2777  -12.9589   20.3227 N   0  0  0  0  0  0
  -25.9352  -11.6669   20.5705 N   0  0  0  0  0  0
  -22.0396  -12.8145   22.0471 N   0  0  0  0  0  0
  -25.3934  -15.2012   20.4226 N   0  0  0  0  0  0
  -31.5687  -15.5024   20.1771 O   0  0  0  0  0  0
  -21.6647   -6.8885   21.4242 O   0  0  0  0  0  0
  -22.3406  -14.5465   20.6752 O   0  0  0  0  0  0
  -24.6800  -31.8038   23.1543 C   0  0  0  0  0  0
  -25.9399  -32.4487   23.8074 C   0  0  1  0  0  0
  -27.2247  -26.7418   20.2123 C   0  0  0  0  0  0
  -25.5993  -33.8310   24.1966 N   0  0  0  0  0  0
  -23.5038  -30.4073   21.5074 C   0  0  2  0  0  0
  -24.9602  -28.7545   20.1181 C   0  0  0  0  0  0
  -22.7746  -29.4338   22.4723 C   0  0  0  0  0  0
  -18.0336  -28.1422   22.8456 C   0  0  0  0  0  0
  -24.1495  -36.7162   23.2653 C   0  0  0  0  0  0
  -26.0826  -30.5501   21.4119 C   0  0  0  0  0  0
  -26.1487  -29.1190   20.7619 C   0  0  0  0  0  0
  -27.2682  -28.1399   20.7756 C   0  0  0  0  0  0
  -26.0029  -26.5744   19.5148 C   0  0  0  0  0  0
  -24.9238  -27.5069   19.4714 C   0  0  0  0  0  0
  -23.7552  -29.7060   20.1417 C   0  0  0  0  0  0
  -25.4144  -36.2907   24.0285 C   0  0  1  0  0  0
  -20.5969  -28.3778   23.1151 C   0  0  2  0  0  0
  -20.6806  -26.9441   22.5404 C   0  0  0  0  0  0
  -19.5783  -26.6372   21.5218 C   0  0  0  0  0  0
  -18.1963  -26.7949   22.1618 C   0  0  0  0  0  0
  -19.1601  -28.8923   23.2785 C   0  0  0  0  0  0
  -18.9509  -30.1507   23.8830 C   0  0  0  0  0  0
  -17.6500  -30.6605   24.0552 C   0  0  0  0  0  0
  -25.9122  -34.9297   23.4960 C   0  0  0  0  0  0
  -16.5389  -29.9089   23.6351 C   0  0  0  0  0  0
  -16.7316  -28.6511   23.0366 C   0  0  0  0  0  0
  -26.4590  -31.6507   25.0681 C   0  0  0  0  0  0
  -25.3664  -31.3815   26.1302 C   0  0  0  0  0  0
  -27.0517  -30.2851   24.6551 C   0  0  0  0  0  0
  -27.6045  -32.4359   25.7497 C   0  0  0  0  0  0
  -27.5563  -37.1737   24.8467 C   0  0  0  0  0  0
  -21.4398  -29.3031   22.3473 N   0  0  0  0  0  0
  -26.4272  -37.3665   23.9408 N   0  0  0  0  0  0
  -24.7786  -30.9523   22.0774 N   0  0  0  0  0  0
  -23.4209  -28.7935   23.3052 O   0  0  0  0  0  0
  -28.2041  -25.5512   20.2801 O   0  0  0  0  0  0
  -26.5758  -34.8869   22.4574 O   0  0  0  0  0  0
  -23.5828  -32.1094   23.6523 O   0  0  0  0  0  0
  -28.7651  -20.2674   20.2904 C   0  0  0  0  0  0
  -29.0007  -22.1779   20.3080 C   0  0  0  0  0  0
  -29.8051  -18.6520   20.3467 C   0  0  0  0  0  0
  -28.0034  -23.8204   20.2032 C   0  0  0  0  0  0
  -29.5782  -16.9027   20.3825 N   0  0  0  0  0  0
  -31.4268  -13.2705   19.1767 H   0  0  0  0  0  0
  -30.5690  -12.1647   20.1980 H   0  0  0  0  0  0
  -29.9845  -11.7945   17.7757 H   0  0  0  0  0  0
  -29.5210  -13.4708   17.6137 H   0  0  0  0  0  0
  -28.1271  -11.2932   19.1840 H   0  0  0  0  0  0
  -27.4439  -12.2569   17.8969 H   0  0  0  0  0  0
  -27.4709  -14.2301   19.2582 H   0  0  0  0  0  0
  -28.8604  -12.7103   21.5153 H   0  0  0  0  0  0
  -28.2012  -14.3242   21.6380 H   0  0  0  0  0  0
  -25.2785   -9.5679   22.4764 H   0  0  0  0  0  0
  -24.0009   -7.4638   22.7481 H   0  0  0  0  0  0
  -21.0862   -8.8785   19.8952 H   0  0  0  0  0  0
  -22.3730  -10.9673   19.6163 H   0  0  0  0  0  0
  -21.2015   -7.6151   23.9715 H   0  0  0  0  0  0
  -21.1481   -6.0525   25.9076 H   0  0  0  0  0  0
  -22.0596   -2.7611   23.2846 H   0  0  0  0  0  0
  -22.4039  -11.9821   22.4865 H   0  0  0  0  0  0
  -21.1004  -13.1141   22.2671 H   0  0  0  0  0  0
  -24.6207  -15.8487   20.5359 H   0  0  0  0  0  0
  -26.2324  -15.6443   20.0726 H   0  0  0  0  0  0
  -26.7477  -32.4971   23.0784 H   0  0  0  0  0  0
  -25.0059  -33.9354   25.0062 H   0  0  0  0  0  0
  -22.8274  -31.2439   21.3201 H   0  0  0  0  0  0
  -23.3774  -35.9475   23.3272 H   0  0  0  0  0  0
  -24.3562  -36.8864   22.2076 H   0  0  0  0  0  0
  -23.7238  -37.6325   23.6753 H   0  0  0  0  0  0
  -26.2810  -31.2776   20.6238 H   0  0  0  0  0  0
  -26.9354  -30.6164   22.0750 H   0  0  0  0  0  0
  -28.1647  -28.4248   21.3080 H   0  0  0  0  0  0
  -25.8443  -25.6278   19.0182 H   0  0  0  0  0  0
  -24.0252  -27.2191   18.9430 H   0  0  0  0  0  0
  -23.9278  -30.4668   19.3796 H   0  0  0  0  0  0
  -22.8607  -29.1707   19.8189 H   0  0  0  0  0  0
  -25.1351  -36.1675   25.0775 H   0  0  0  0  0  0
  -21.0052  -28.3402   24.1277 H   0  0  0  0  0  0
  -20.5676  -26.2401   23.3662 H   0  0  0  0  0  0
  -21.6667  -26.7393   22.1218 H   0  0  0  0  0  0
  -19.6942  -25.6265   21.1292 H   0  0  0  0  0  0
  -19.6728  -27.3145   20.6718 H   0  0  0  0  0  0
  -17.4233  -26.6692   21.4021 H   0  0  0  0  0  0
  -18.0352  -26.0108   22.9031 H   0  0  0  0  0  0
  -19.7986  -30.7339   24.2170 H   0  0  0  0  0  0
  -17.5053  -31.6279   24.5166 H   0  0  0  0  0  0
  -15.5388  -30.2971   23.7716 H   0  0  0  0  0  0
  -15.8715  -28.0809   22.7122 H   0  0  0  0  0  0
  -24.5873  -30.7140   25.7600 H   0  0  0  0  0  0
  -24.8826  -32.3036   26.4537 H   0  0  0  0  0  0
  -25.7846  -30.9101   27.0204 H   0  0  0  0  0  0
  -26.3228  -29.6473   24.1543 H   0  0  0  0  0  0
  -27.3966  -29.7288   25.5278 H   0  0  0  0  0  0
  -27.9198  -30.3989   24.0055 H   0  0  0  0  0  0
  -27.2593  -33.3729   26.1879 H   0  0  0  0  0  0
  -28.3955  -32.6809   25.0396 H   0  0  0  0  0  0
  -28.0603  -31.8616   26.5574 H   0  0  0  0  0  0
  -28.2553  -38.0057   24.7511 H   0  0  0  0  0  0
  -28.1085  -36.2580   24.6299 H   0  0  0  0  0  0
  -27.2276  -37.1380   25.8868 H   0  0  0  0  0  0
  -20.9695  -29.8687   21.6544 H   0  0  0  0  0  0
  -26.0103  -38.2714   24.1421 H   0  0  0  0  0  0
  -28.1541  -20.1192   19.3998 H   0  0  0  0  0  0
  -28.0571  -20.1169   21.1057 H   0  0  0  0  0  0
  -29.7448  -22.3205   19.5244 H   0  0  0  0  0  0
  -29.5730  -22.3235   21.2244 H   0  0  0  0  0  0
  -30.4440  -18.8018   21.2176 H   0  0  0  0  0  0
  -30.4945  -18.7676   19.5099 H   0  0  0  0  0  0
  -27.2299  -23.6732   20.9571 H   0  0  0  0  0  0
  -27.4624  -23.7113   19.2633 H   0  0  0  0  0  0
  -28.5926  -16.6942   20.4591 H   0  0  0  0  0  0
  1 25  1  0  0  0
  1 30  2  0  0  0
  1 75  1  0  0  0
  2  3  1  0  0  0
  2 25  1  0  0  0
  2 76  1  0  0  0
  2 77  1  0  0  0
  3  4  1  0  0  0
  3 78  1  0  0  0
  3 79  1  0  0  0
  4  5  1  0  0  0
  4 80  1  0  0  0
  4 81  1  0  0  0
  5  6  1  0  0  0
  5 26  1  0  0  0
  5 82  1  0  0  0
  6 25  1  0  0  0
  6 83  1  0  0  0
  6 84  1  0  0  0
  7  8  2  0  0  0
  7 26  1  0  0  0
  7 29  1  0  0  0
  8  9  1  0  0  0
  8 22  1  0  0  0
  9 10  1  0  0  0
  9 27  2  0  0  0
 10 11  2  0  0  0
 10 15  1  0  0  0
 11 12  1  0  0  0
 11 85  1  0  0  0
 12 13  2  0  0  0
 12 86  1  0  0  0
 13 14  1  0  0  0
 13 31  1  0  0  0
 14 15  2  0  0  0
 14 87  1  0  0  0
 15 88  1  0  0  0
 16 17  2  0  0  0
 16 21  1  0  0  0
 16 31  1  0  0  0
 17 18  1  0  0  0
 17 89  1  0  0  0
 18 19  2  0  0  0
 18 90  1  0  0  0
 19 20  1  0  0  0
 19 24  1  0  0  0
 20 21  2  0  0  0
 20 91  1  0  0  0
 21 23  1  0  0  0
 22 28  1  0  0  0
 22 32  2  0  0  0
 26 27  1  0  0  0
 28 92  1  0  0  0
 28 93  1  0  0  0
 29 94  1  0  0  0
 29 95  1  0  0  0
 33 34  1  0  0  0
 33 66  1  0  0  0
 33 70  2  0  0  0
 34 36  1  0  0  0
 34 59  1  0  0  0
 34 96  1  0  0  0
 35 44  2  0  0  0
 35 45  1  0  0  0
 35 68  1  0  0  0
 36 56  1  0  0  0
 36 97  1  0  0  0
 37 39  1  0  0  0
 37 47  1  0  0  0
 37 66  1  0  0  0
 37 98  1  0  0  0
 38 43  2  0  0  0
 38 46  1  0  0  0
 38 47  1  0  0  0
 39 64  1  0  0  0
 39 67  2  0  0  0
 40 52  1  0  0  0
 40 53  2  0  0  0
 40 58  1  0  0  0
 41 99  1  0  0  0
 41100  1  0  0  0
 41101  1  0  0  0
 41 48  1  0  0  0
 42 43  1  0  0  0
 42 66  1  0  0  0
 42102  1  0  0  0
 42103  1  0  0  0
 43 44  1  0  0  0
 44104  1  0  0  0
 45 46  2  0  0  0
 45105  1  0  0  0
 46106  1  0  0  0
 47107  1  0  0  0
 47108  1  0  0  0
 48 56  1  0  0  0
 48 65  1  0  0  0
 48109  1  0  0  0
 49 50  1  0  0  0
 49 53  1  0  0  0
 49 64  1  0  0  0
 49110  1  0  0  0
 50 51  1  0  0  0
 50111  1  0  0  0
 50112  1  0  0  0
 51 52  1  0  0  0
 51113  1  0  0  0
 51114  1  0  0  0
 52115  1  0  0  0
 52116  1  0  0  0
 53 54  1  0  0  0
 54 55  2  0  0  0
 54117  1  0  0  0
 55 57  1  0  0  0
 55118  1  0  0  0
 56 69  2  0  0  0
 57 58  2  0  0  0
 57119  1  0  0  0
 58120  1  0  0  0
 59 60  1  0  0  0
 59 61  1  0  0  0
 59 62  1  0  0  0
 60121  1  0  0  0
 60122  1  0  0  0
 60123  1  0  0  0
 61124  1  0  0  0
 61125  1  0  0  0
 61126  1  0  0  0
 62127  1  0  0  0
 62128  1  0  0  0
 62129  1  0  0  0
 63 65  1  0  0  0
 63130  1  0  0  0
 63131  1  0  0  0
 63132  1  0  0  0
 64133  1  0  0  0
 65134  1  0  0  0
 68 74  1  0  0  0
 71 72  1  0  0  0
 71 73  1  0  0  0
 71135  1  0  0  0
 71136  1  0  0  0
 72 74  1  0  0  0
 72137  1  0  0  0
 72138  1  0  0  0
 73 75  1  0  0  0
 73139  1  0  0  0
 73140  1  0  0  0
 74141  1  0  0  0
 74142  1  0  0  0
 75143  1  0  0  0
M  ISO  4   1 100  68 101  74 101  75 100
M  END
> <chiral flag>
0

> <version>
0

> <s_m_source_file>
/data/baiqing/PycharmProjects/Reinvent-master-3.2/result/LINK_invent/BTK/process_docking_weight1_custom_sum_contain_oxygen_bond_distance_aromatic_linkinvent_7_9_3/rearranged_h_0002.sdf

> <i_m_source_file_index>
77

> <r_mmod_Potential_Energy-OPLS-2005>
2236.59155273438

> <r_mmod_Stretch_Energy-OPLS-2005>
1088.18041992188

> <r_mmod_Bend_Energy-OPLS-2005>
600.093139648438

> <r_mmod_Torsional_Energy-OPLS-2005>
206.369812011719

> <r_mmod_Improper_Torsional_Energy-OPLS-2005>
3.66827178001404

> <r_mmod_Van_der_Waal_Energy-OPLS-2005>
110.215888977051

> <r_mmod_Electrostatic_Energy-OPLS-2005>
-352.887237548828

> <r_mmod_Solvation_Energy-OPLS-2005>
-215.827575683594

> <b_mmod_Minimization_Converged-OPLS-2005>
0

> <r_mmod_RMS_Derivative-OPLS-2005>
0.268112510442734

$$$$
77
                    3D
 Structure written by MMmdl.
146153  0  0  1  0            999 V2000
  -30.4549  -15.1919   20.3849 C   0  0  0  0  0  0
  -30.4419  -12.7609   19.5051 C   0  0  0  0  0  0
  -29.5292  -12.5596   18.2708 C   0  0  0  0  0  0
  -28.0748  -12.2962   18.7021 C   0  0  0  0  0  0
  -27.6136  -13.2648   19.8202 C   0  0  2  0  0  0
  -28.6529  -13.4068   20.9504 C   0  0  0  0  0  0
  -25.2403  -13.8229   20.5729 C   0  0  0  0  0  0
  -24.1748  -13.0433   20.9253 C   0  0  0  0  0  0
  -24.6392  -11.6927   20.8763 C   0  0  0  0  0  0
  -23.9086  -10.4291   21.0410 C   0  0  0  0  0  0
  -24.3633   -9.4204   21.9187 C   0  0  0  0  0  0
  -23.6302   -8.2242   22.0756 C   0  0  0  0  0  0
  -22.4283   -8.0282   21.3546 C   0  0  0  0  0  0
  -21.9924   -9.0257   20.4647 C   0  0  0  0  0  0
  -22.7258  -10.2133   20.3057 C   0  0  0  0  0  0
  -21.6855   -6.0737   22.5280 C   0  0  0  0  0  0
  -21.4015   -6.5640   23.8213 C   0  0  0  0  0  0
  -21.3660   -5.6793   24.9176 C   0  0  0  0  0  0
  -21.6044   -4.3056   24.7226 C   0  0  0  0  0  0
  -21.8819   -3.8148   23.4347 C   0  0  0  0  0  0
  -21.9194   -4.6964   22.3403 C   0  0  0  0  0  0
  -22.7766  -13.5192   21.1903 C   0  0  0  0  0  0
  -22.1661   -4.2150   21.0980 F   0  0  0  0  0  0
  -21.5629   -3.4538   25.7738 F   0  0  0  0  0  0
  -29.8884  -13.8961   20.3201 N   0  0  0  0  0  0
  -26.2822  -12.9485   20.3201 N   0  0  0  0  0  0
  -25.9324  -11.6602   20.5719 N   0  0  0  0  0  0
  -22.0422  -12.8177   22.0456 N   0  0  0  0  0  0
  -25.4037  -15.1963   20.4153 N   0  0  0  0  0  0
  -31.6824  -15.2103   20.2234 O   0  0  0  0  0  0
  -21.6644   -6.8881   21.4242 O   0  0  0  0  0  0
  -22.3448  -14.5495   20.6742 O   0  0  0  0  0  0
  -24.6584  -31.8285   23.1736 C   0  0  0  0  0  0
  -25.9287  -32.4613   23.8185 C   0  0  1  0  0  0
  -27.2178  -26.9750   20.1869 C   0  0  0  0  0  0
  -25.5973  -33.8425   24.2096 N   0  0  0  0  0  0
  -23.4702  -30.4410   21.5230 C   0  0  2  0  0  0
  -24.9214  -28.8312   20.1193 C   0  0  0  0  0  0
  -22.7640  -29.4469   22.4810 C   0  0  0  0  0  0
  -18.0318  -28.1406   22.8470 C   0  0  0  0  0  0
  -24.1494  -36.7217   23.2647 C   0  0  0  0  0  0
  -26.0362  -30.6515   21.3950 C   0  0  0  0  0  0
  -26.1055  -29.2439   20.7437 C   0  0  0  0  0  0
  -27.2532  -28.3383   20.7472 C   0  0  0  0  0  0
  -26.0028  -26.6964   19.5254 C   0  0  0  0  0  0
  -24.8915  -27.5757   19.4909 C   0  0  0  0  0  0
  -23.7071  -29.7557   20.1497 C   0  0  0  0  0  0
  -25.4134  -36.2981   24.0302 C   0  0  1  0  0  0
  -20.5938  -28.3745   23.1202 C   0  0  2  0  0  0
  -20.6798  -26.9434   22.5403 C   0  0  0  0  0  0
  -19.5771  -26.6380   21.5215 C   0  0  0  0  0  0
  -18.1953  -26.7940   22.1623 C   0  0  0  0  0  0
  -19.1577  -28.8896   23.2823 C   0  0  0  0  0  0
  -18.9489  -30.1488   23.8856 C   0  0  0  0  0  0
  -17.6483  -30.6597   24.0557 C   0  0  0  0  0  0
  -25.9093  -34.9364   23.5017 C   0  0  0  0  0  0
  -16.5374  -29.9085   23.6344 C   0  0  0  0  0  0
  -16.7300  -28.6506   23.0362 C   0  0  0  0  0  0
  -26.4555  -31.6539   25.0694 C   0  0  0  0  0  0
  -25.3694  -31.3776   26.1358 C   0  0  0  0  0  0
  -27.0448  -30.2914   24.6390 C   0  0  0  0  0  0
  -27.6051  -32.4342   25.7497 C   0  0  0  0  0  0
  -27.5571  -37.1767   24.8468 C   0  0  0  0  0  0
  -21.4316  -29.3042   22.3557 N   0  0  0  0  0  0
  -26.4283  -37.3712   23.9406 N   0  0  0  0  0  0
  -24.7427  -30.9994   22.0847 N   0  0  0  0  0  0
  -23.4209  -28.8039   23.3035 O   0  0  0  0  0  0
  -28.2529  -25.9182   20.1845 O   0  0  0  0  0  0
  -26.5701  -34.8893   22.4610 O   0  0  0  0  0  0
  -23.5665  -32.1233   23.6860 O   0  0  0  0  0  0
  -28.9836  -21.1892   20.6760 C   0  0  0  0  0  0
  -29.1420  -19.5254   20.0456 C   0  0  0  0  0  0
  -28.7259  -22.7941   19.9369 C   0  0  0  0  0  0
  -29.9001  -18.0518   20.7008 C   0  0  0  0  0  0
  -28.0709  -24.3377   20.5448 C   0  0  0  0  0  0
  -29.6685  -16.4354   20.4314 N   0  0  0  0  0  0
  -31.4603  -12.9680   19.1731 H   0  0  0  0  0  0
  -30.5035  -11.8473   20.0986 H   0  0  0  0  0  0
  -29.8948  -11.7358   17.6561 H   0  0  0  0  0  0
  -29.5668  -13.4513   17.6432 H   0  0  0  0  0  0
  -28.0212  -11.2689   19.0646 H   0  0  0  0  0  0
  -27.4048  -12.3529   17.8434 H   0  0  0  0  0  0
  -27.5380  -14.2388   19.3356 H   0  0  0  0  0  0
  -28.8080  -12.4621   21.4735 H   0  0  0  0  0  0
  -28.3078  -14.1243   21.6968 H   0  0  0  0  0  0
  -25.2776   -9.5679   22.4767 H   0  0  0  0  0  0
  -24.0008   -7.4632   22.7476 H   0  0  0  0  0  0
  -21.0856   -8.8778   19.8951 H   0  0  0  0  0  0
  -22.3717  -10.9673   19.6167 H   0  0  0  0  0  0
  -21.2007   -7.6149   23.9716 H   0  0  0  0  0  0
  -21.1482   -6.0524   25.9078 H   0  0  0  0  0  0
  -22.0596   -2.7610   23.2848 H   0  0  0  0  0  0
  -22.4055  -11.9848   22.4850 H   0  0  0  0  0  0
  -21.1032  -13.1183   22.2657 H   0  0  0  0  0  0
  -24.6309  -15.8437   20.5272 H   0  0  0  0  0  0
  -26.2397  -15.6392   20.0580 H   0  0  0  0  0  0
  -26.7354  -32.5171   23.0902 H   0  0  0  0  0  0
  -25.0079  -33.9507   25.0219 H   0  0  0  0  0  0
  -22.7811  -31.2710   21.3541 H   0  0  0  0  0  0
  -23.3765  -35.9539   23.3288 H   0  0  0  0  0  0
  -24.3568  -36.8881   22.2064 H   0  0  0  0  0  0
  -23.7244  -37.6399   23.6712 H   0  0  0  0  0  0
  -26.2087  -31.3941   20.6146 H   0  0  0  0  0  0
  -26.8995  -30.7094   22.0463 H   0  0  0  0  0  0
  -28.1585  -28.6587   21.2434 H   0  0  0  0  0  0
  -25.8948  -25.7377   19.0384 H   0  0  0  0  0  0
  -23.9906  -27.2535   18.9867 H   0  0  0  0  0  0
  -23.8605  -30.5232   19.3902 H   0  0  0  0  0  0
  -22.8176  -29.2077   19.8341 H   0  0  0  0  0  0
  -25.1331  -36.1783   25.0794 H   0  0  0  0  0  0
  -21.0026  -28.3348   24.1325 H   0  0  0  0  0  0
  -20.5684  -26.2363   23.3637 H   0  0  0  0  0  0
  -21.6662  -26.7420   22.1206 H   0  0  0  0  0  0
  -19.6932  -25.6280   21.1271 H   0  0  0  0  0  0
  -19.6708  -27.3169   20.6728 H   0  0  0  0  0  0
  -17.4221  -26.6684   21.4027 H   0  0  0  0  0  0
  -18.0347  -26.0092   22.9029 H   0  0  0  0  0  0
  -19.7965  -30.7317   24.2205 H   0  0  0  0  0  0
  -17.5035  -31.6273   24.5167 H   0  0  0  0  0  0
  -15.5372  -30.2973   23.7691 H   0  0  0  0  0  0
  -15.8701  -28.0810   22.7100 H   0  0  0  0  0  0
  -24.5886  -30.7116   25.7667 H   0  0  0  0  0  0
  -24.8872  -32.2974   26.4676 H   0  0  0  0  0  0
  -25.7933  -30.9012   27.0206 H   0  0  0  0  0  0
  -26.3106  -29.6597   24.1379 H   0  0  0  0  0  0
  -27.3986  -29.7265   25.5025 H   0  0  0  0  0  0
  -27.9042  -30.4111   23.9791 H   0  0  0  0  0  0
  -27.2619  -33.3679   26.1966 H   0  0  0  0  0  0
  -28.3920  -32.6845   25.0370 H   0  0  0  0  0  0
  -28.0656  -31.8543   26.5505 H   0  0  0  0  0  0
  -28.2578  -38.0072   24.7505 H   0  0  0  0  0  0
  -28.1076  -36.2597   24.6309 H   0  0  0  0  0  0
  -27.2284  -37.1428   25.8870 H   0  0  0  0  0  0
  -20.9563  -29.8727   21.6687 H   0  0  0  0  0  0
  -26.0135  -38.2774   24.1406 H   0  0  0  0  0  0
  -28.1889  -21.1083   21.4182 H   0  0  0  0  0  0
  -29.8762  -21.3287   21.2864 H   0  0  0  0  0  0
  -29.6013  -19.6459   19.0639 H   0  0  0  0  0  0
  -28.1191  -19.2319   19.8080 H   0  0  0  0  0  0
  -28.1428  -22.5960   19.0374 H   0  0  0  0  0  0
  -29.7078  -23.0579   19.5436 H   0  0  0  0  0  0
  -30.9755  -18.1979   20.5921 H   0  0  0  0  0  0
  -29.7423  -18.1293   21.7770 H   0  0  0  0  0  0
  -28.3515  -24.3288   21.5981 H   0  0  0  0  0  0
  -26.9917  -24.1871   20.5767 H   0  0  0  0  0  0
  -28.6848  -16.2096   20.4174 H   0  0  0  0  0  0
  1 25  1  0  0  0
  1 30  2  0  0  0
  1 76  1  0  0  0
  2  3  1  0  0  0
  2 25  1  0  0  0
  2 77  1  0  0  0
  2 78  1  0  0  0
  3  4  1  0  0  0
  3 79  1  0  0  0
  3 80  1  0  0  0
  4  5  1  0  0  0
  4 81  1  0  0  0
  4 82  1  0  0  0
  5  6  1  0  0  0
  5 26  1  0  0  0
  5 83  1  0  0  0
  6 25  1  0  0  0
  6 84  1  0  0  0
  6 85  1  0  0  0
  7  8  2  0  0  0
  7 26  1  0  0  0
  7 29  1  0  0  0
  8  9  1  0  0  0
  8 22  1  0  0  0
  9 10  1  0  0  0
  9 27  2  0  0  0
 10 11  2  0  0  0
 10 15  1  0  0  0
 11 12  1  0  0  0
 11 86  1  0  0  0
 12 13  2  0  0  0
 12 87  1  0  0  0
 13 14  1  0  0  0
 13 31  1  0  0  0
 14 15  2  0  0  0
 14 88  1  0  0  0
 15 89  1  0  0  0
 16 17  2  0  0  0
 16 21  1  0  0  0
 16 31  1  0  0  0
 17 18  1  0  0  0
 17 90  1  0  0  0
 18 19  2  0  0  0
 18 91  1  0  0  0
 19 20  1  0  0  0
 19 24  1  0  0  0
 20 21  2  0  0  0
 20 92  1  0  0  0
 21 23  1  0  0  0
 22 28  1  0  0  0
 22 32  2  0  0  0
 26 27  1  0  0  0
 28 93  1  0  0  0
 28 94  1  0  0  0
 29 95  1  0  0  0
 29 96  1  0  0  0
 33 34  1  0  0  0
 33 66  1  0  0  0
 33 70  2  0  0  0
 34 36  1  0  0  0
 34 59  1  0  0  0
 34 97  1  0  0  0
 35 44  2  0  0  0
 35 45  1  0  0  0
 35 68  1  0  0  0
 36 56  1  0  0  0
 36 98  1  0  0  0
 37 39  1  0  0  0
 37 47  1  0  0  0
 37 66  1  0  0  0
 37 99  1  0  0  0
 38 43  2  0  0  0
 38 46  1  0  0  0
 38 47  1  0  0  0
 39 64  1  0  0  0
 39 67  2  0  0  0
 40 52  1  0  0  0
 40 53  2  0  0  0
 40 58  1  0  0  0
 41100  1  0  0  0
 41101  1  0  0  0
 41102  1  0  0  0
 41 48  1  0  0  0
 42 43  1  0  0  0
 42 66  1  0  0  0
 42103  1  0  0  0
 42104  1  0  0  0
 43 44  1  0  0  0
 44105  1  0  0  0
 45 46  2  0  0  0
 45106  1  0  0  0
 46107  1  0  0  0
 47108  1  0  0  0
 47109  1  0  0  0
 48 56  1  0  0  0
 48 65  1  0  0  0
 48110  1  0  0  0
 49 50  1  0  0  0
 49 53  1  0  0  0
 49 64  1  0  0  0
 49111  1  0  0  0
 50 51  1  0  0  0
 50112  1  0  0  0
 50113  1  0  0  0
 51 52  1  0  0  0
 51114  1  0  0  0
 51115  1  0  0  0
 52116  1  0  0  0
 52117  1  0  0  0
 53 54  1  0  0  0
 54 55  2  0  0  0
 54118  1  0  0  0
 55 57  1  0  0  0
 55119  1  0  0  0
 56 69  2  0  0  0
 57 58  2  0  0  0
 57120  1  0  0  0
 58121  1  0  0  0
 59 60  1  0  0  0
 59 61  1  0  0  0
 59 62  1  0  0  0
 60122  1  0  0  0
 60123  1  0  0  0
 60124  1  0  0  0
 61125  1  0  0  0
 61126  1  0  0  0
 61127  1  0  0  0
 62128  1  0  0  0
 62129  1  0  0  0
 62130  1  0  0  0
 63 65  1  0  0  0
 63131  1  0  0  0
 63132  1  0  0  0
 63133  1  0  0  0
 64134  1  0  0  0
 65135  1  0  0  0
 68 75  1  0  0  0
 71 72  1  0  0  0
 71 73  1  0  0  0
 71136  1  0  0  0
 71137  1  0  0  0
 72 74  1  0  0  0
 72138  1  0  0  0
 72139  1  0  0  0
 73 75  1  0  0  0
 73140  1  0  0  0
 73141  1  0  0  0
 74 76  1  0  0  0
 74142  1  0  0  0
 74143  1  0  0  0
 75144  1  0  0  0
 75145  1  0  0  0
 76146  1  0  0  0
M  ISO  4   1 100  68 101  75 101  76 100
M  END
> <chiral flag>
0

> <version>
0

> <s_m_source_file>
/data/baiqing/PycharmProjects/Reinvent-master-3.2/result/LINK_invent/BTK/process_docking_weight1_custom_sum_contain_oxygen_bond_distance_aromatic_linkinvent_7_9_3/rearranged_h_0002.sdf

> <i_m_source_file_index>
78

> <r_mmod_Potential_Energy-OPLS-2005>
1145.12805175781

> <r_mmod_Stretch_Energy-OPLS-2005>
551.795166015625

> <r_mmod_Bend_Energy-OPLS-2005>
420.130432128906

> <r_mmod_Torsional_Energy-OPLS-2005>
235.50422668457

> <r_mmod_Improper_Torsional_Energy-OPLS-2005>
4.20592355728149

> <r_mmod_Van_der_Waal_Energy-OPLS-2005>
108.776268005371

> <r_mmod_Electrostatic_Energy-OPLS-2005>
-349.052825927734

> <r_mmod_Solvation_Energy-OPLS-2005>
-209.454177856445

> <b_mmod_Minimization_Converged-OPLS-2005>
0

> <r_mmod_RMS_Derivative-OPLS-2005>
0.315360128879547

$$$$
78
                    3D
 Structure written by MMmdl.
151159  0  0  1  0            999 V2000
  -30.6183  -14.6884   20.5139 C   0  0  0  0  0  0
  -30.4359  -12.4337   19.4638 C   0  0  0  0  0  0
  -29.5135  -12.5566   18.2311 C   0  0  0  0  0  0
  -28.0372  -12.3840   18.6297 C   0  0  0  0  0  0
  -27.6555  -13.2329   19.8715 C   0  0  2  0  0  0
  -28.6981  -13.0967   21.0054 C   0  0  0  0  0  0
  -25.2556  -13.8210   20.5713 C   0  0  0  0  0  0
  -24.1819  -13.0449   20.9188 C   0  0  0  0  0  0
  -24.6435  -11.6934   20.8744 C   0  0  0  0  0  0
  -23.9092  -10.4291   21.0363 C   0  0  0  0  0  0
  -24.3651   -9.4206   21.9131 C   0  0  0  0  0  0
  -23.6309   -8.2257   22.0720 C   0  0  0  0  0  0
  -22.4288   -8.0293   21.3541 C   0  0  0  0  0  0
  -21.9934   -9.0258   20.4628 C   0  0  0  0  0  0
  -22.7273  -10.2129   20.3016 C   0  0  0  0  0  0
  -21.6874   -6.0737   22.5277 C   0  0  0  0  0  0
  -21.4030   -6.5634   23.8203 C   0  0  0  0  0  0
  -21.3679   -5.6772   24.9165 C   0  0  0  0  0  0
  -21.6040   -4.3054   24.7207 C   0  0  0  0  0  0
  -21.8837   -3.8139   23.4323 C   0  0  0  0  0  0
  -21.9204   -4.6962   22.3389 C   0  0  0  0  0  0
  -22.7831  -13.5241   21.1808 C   0  0  0  0  0  0
  -22.1651   -4.2152   21.0969 F   0  0  0  0  0  0
  -21.5636   -3.4527   25.7714 F   0  0  0  0  0  0
  -30.0159  -13.4528   20.4529 N   0  0  0  0  0  0
  -26.3007  -12.9411   20.3353 N   0  0  0  0  0  0
  -25.9377  -11.6563   20.5761 N   0  0  0  0  0  0
  -22.0454  -12.8264   22.0419 N   0  0  0  0  0  0
  -25.4261  -15.1926   20.4188 N   0  0  0  0  0  0
  -31.7466  -14.8581   20.0396 O   0  0  0  0  0  0
  -21.6664   -6.8882   21.4224 O   0  0  0  0  0  0
  -22.3495  -14.5516   20.6631 O   0  0  0  0  0  0
  -24.6263  -31.8598   23.1996 C   0  0  0  0  0  0
  -25.9118  -32.4779   23.8327 C   0  0  1  0  0  0
  -27.2440  -27.3066   20.1323 C   0  0  0  0  0  0
  -25.5949  -33.8587   24.2276 N   0  0  0  0  0  0
  -23.4204  -30.4782   21.5458 C   0  0  2  0  0  0
  -24.8716  -28.9196   20.1219 C   0  0  0  0  0  0
  -22.7472  -29.4642   22.4998 C   0  0  0  0  0  0
  -18.0303  -28.1373   22.8479 C   0  0  0  0  0  0
  -24.1504  -36.7279   23.2632 C   0  0  0  0  0  0
  -25.9629  -30.7810   21.3774 C   0  0  0  0  0  0
  -26.0393  -29.4068   20.7226 C   0  0  0  0  0  0
  -27.2260  -28.6130   20.7158 C   0  0  0  0  0  0
  -26.0486  -26.8692   19.5151 C   0  0  0  0  0  0
  -24.8787  -27.6550   19.5111 C   0  0  0  0  0  0
  -23.6351  -29.7970   20.1681 C   0  0  0  0  0  0
  -25.4137  -36.3092   24.0332 C   0  0  1  0  0  0
  -20.5892  -28.3685   23.1288 C   0  0  2  0  0  0
  -20.6825  -26.9422   22.5401 C   0  0  0  0  0  0
  -19.5800  -26.6366   21.5226 C   0  0  0  0  0  0
  -18.1971  -26.7919   22.1604 C   0  0  0  0  0  0
  -19.1543  -28.8850   23.2867 C   0  0  0  0  0  0
  -18.9471  -30.1464   23.8859 C   0  0  0  0  0  0
  -17.6464  -30.6574   24.0553 C   0  0  0  0  0  0
  -25.9078  -34.9468   23.5103 C   0  0  0  0  0  0
  -16.5364  -29.9063   23.6332 C   0  0  0  0  0  0
  -16.7285  -28.6480   23.0351 C   0  0  0  0  0  0
  -26.4481  -31.6589   25.0709 C   0  0  0  0  0  0
  -25.3699  -31.3732   26.1424 C   0  0  0  0  0  0
  -27.0354  -30.3025   24.6179 C   0  0  0  0  0  0
  -27.6045  -32.4320   25.7470 C   0  0  0  0  0  0
  -27.5609  -37.1794   24.8455 C   0  0  0  0  0  0
  -21.4202  -29.3019   22.3689 N   0  0  0  0  0  0
  -26.4304  -37.3797   23.9413 N   0  0  0  0  0  0
  -24.6886  -31.0584   22.0967 N   0  0  0  0  0  0
  -23.4166  -28.8224   23.3136 O   0  0  0  0  0  0
  -28.3839  -26.4785   20.1614 O   0  0  0  0  0  0
  -26.5641  -34.8918   22.4668 O   0  0  0  0  0  0
  -23.5438  -32.1430   23.7307 O   0  0  0  0  0  0
  -30.3063  -17.7857   19.5591 C   0  0  0  0  0  0
  -29.3834  -18.0960   21.7608 C   0  0  0  0  0  0
  -30.1503  -19.1846   19.3131 C   0  0  0  0  0  0
  -29.2632  -19.5058   21.5264 C   0  0  0  0  0  0
  -29.9033  -17.1873   20.7885 C   0  0  0  0  0  0
  -29.6223  -20.0930   20.2781 C   0  0  0  0  0  0
  -29.4960  -24.0739   20.3620 C   0  0  0  0  0  0
  -29.4037  -22.5508   20.8796 C   0  0  0  0  0  0
  -28.2090  -25.0020   20.2058 C   0  0  0  0  0  0
  -29.8978  -15.7332   21.0433 N   0  0  0  0  0  0
  -29.4531  -21.4503   19.9079 O   0  0  0  0  0  0
  -31.4753  -12.5568   19.1615 H   0  0  0  0  0  0
  -30.3658  -11.4324   19.8887 H   0  0  0  0  0  0
  -29.7913  -11.8247   17.4695 H   0  0  0  0  0  0
  -29.6525  -13.5380   17.7753 H   0  0  0  0  0  0
  -27.8735  -11.3263   18.8296 H   0  0  0  0  0  0
  -27.3910  -12.6356   17.7882 H   0  0  0  0  0  0
  -27.6693  -14.2727   19.5484 H   0  0  0  0  0  0
  -28.7155  -12.0734   21.3863 H   0  0  0  0  0  0
  -28.4291  -13.7289   21.8511 H   0  0  0  0  0  0
  -25.2775   -9.5720   22.4711 H   0  0  0  0  0  0
  -24.0047   -7.4666   22.7467 H   0  0  0  0  0  0
  -21.0850   -8.8770   19.8950 H   0  0  0  0  0  0
  -22.3685  -10.9673   19.6153 H   0  0  0  0  0  0
  -21.2008   -7.6126   23.9721 H   0  0  0  0  0  0
  -21.1483   -6.0488   25.9079 H   0  0  0  0  0  0
  -22.0594   -2.7597   23.2816 H   0  0  0  0  0  0
  -22.4062  -11.9965   22.4895 H   0  0  0  0  0  0
  -21.1051  -13.1241   22.2523 H   0  0  0  0  0  0
  -24.6665  -15.8532   20.5436 H   0  0  0  0  0  0
  -26.2856  -15.6363   20.1247 H   0  0  0  0  0  0
  -26.7180  -32.5417   23.1067 H   0  0  0  0  0  0
  -25.0177  -33.9724   25.0473 H   0  0  0  0  0  0
  -22.7144  -31.2989   21.3978 H   0  0  0  0  0  0
  -23.3803  -35.9568   23.3274 H   0  0  0  0  0  0
  -24.3602  -36.8921   22.2046 H   0  0  0  0  0  0
  -23.7201  -37.6453   23.6661 H   0  0  0  0  0  0
  -26.1067  -31.5404   20.6075 H   0  0  0  0  0  0
  -26.8363  -30.8237   22.0166 H   0  0  0  0  0  0
  -28.1177  -28.9868   21.2001 H   0  0  0  0  0  0
  -25.9934  -25.9038   19.0360 H   0  0  0  0  0  0
  -23.9843  -27.2690   19.0415 H   0  0  0  0  0  0
  -23.7403  -30.5632   19.4004 H   0  0  0  0  0  0
  -22.7556  -29.2188   19.8770 H   0  0  0  0  0  0
  -25.1316  -36.1953   25.0827 H   0  0  0  0  0  0
  -20.9965  -28.3272   24.1415 H   0  0  0  0  0  0
  -20.5799  -26.2308   23.3595 H   0  0  0  0  0  0
  -21.6692  -26.7520   22.1159 H   0  0  0  0  0  0
  -19.6998  -25.6281   21.1261 H   0  0  0  0  0  0
  -19.6737  -27.3157   20.6745 H   0  0  0  0  0  0
  -17.4273  -26.6667   21.3983 H   0  0  0  0  0  0
  -18.0346  -26.0029   22.8950 H   0  0  0  0  0  0
  -19.7957  -30.7303   24.2150 H   0  0  0  0  0  0
  -17.5032  -31.6249   24.5162 H   0  0  0  0  0  0
  -15.5365  -30.2946   23.7697 H   0  0  0  0  0  0
  -15.8687  -28.0785   22.7088 H   0  0  0  0  0  0
  -24.5841  -30.7139   25.7725 H   0  0  0  0  0  0
  -24.8923  -32.2906   26.4872 H   0  0  0  0  0  0
  -25.7975  -30.8855   27.0188 H   0  0  0  0  0  0
  -26.2957  -29.6747   24.1210 H   0  0  0  0  0  0
  -27.4094  -29.7292   25.4666 H   0  0  0  0  0  0
  -27.8785  -30.4337   23.9399 H   0  0  0  0  0  0
  -27.2672  -33.3616   26.2050 H   0  0  0  0  0  0
  -28.3834  -32.6889   25.0286 H   0  0  0  0  0  0
  -28.0734  -31.8453   26.5370 H   0  0  0  0  0  0
  -28.2593  -38.0129   24.7612 H   0  0  0  0  0  0
  -28.1151  -36.2687   24.6170 H   0  0  0  0  0  0
  -27.2338  -37.1292   25.8850 H   0  0  0  0  0  0
  -20.9436  -29.8639   21.6781 H   0  0  0  0  0  0
  -26.0207  -38.2871   24.1430 H   0  0  0  0  0  0
  -30.7036  -17.1789   18.7545 H   0  0  0  0  0  0
  -29.0400  -17.7192   22.7203 H   0  0  0  0  0  0
  -30.4406  -19.5683   18.3432 H   0  0  0  0  0  0
  -28.8440  -20.1135   22.3196 H   0  0  0  0  0  0
  -30.0759  -24.0950   19.4386 H   0  0  0  0  0  0
  -30.1279  -24.5954   21.0820 H   0  0  0  0  0  0
  -28.5720  -22.4378   21.5775 H   0  0  0  0  0  0
  -30.3014  -22.3971   21.4825 H   0  0  0  0  0  0
  -27.5390  -24.7864   21.0384 H   0  0  0  0  0  0
  -27.7049  -24.6696   19.3012 H   0  0  0  0  0  0
  -29.1493  -15.4223   21.6469 H   0  0  0  0  0  0
  1 25  1  0  0  0
  1 30  2  0  0  0
  1 80  1  0  0  0
  2  3  1  0  0  0
  2 25  1  0  0  0
  2 82  1  0  0  0
  2 83  1  0  0  0
  3  4  1  0  0  0
  3 84  1  0  0  0
  3 85  1  0  0  0
  4  5  1  0  0  0
  4 86  1  0  0  0
  4 87  1  0  0  0
  5  6  1  0  0  0
  5 26  1  0  0  0
  5 88  1  0  0  0
  6 25  1  0  0  0
  6 89  1  0  0  0
  6 90  1  0  0  0
  7  8  2  0  0  0
  7 26  1  0  0  0
  7 29  1  0  0  0
  8  9  1  0  0  0
  8 22  1  0  0  0
  9 10  1  0  0  0
  9 27  2  0  0  0
 10 11  2  0  0  0
 10 15  1  0  0  0
 11 12  1  0  0  0
 11 91  1  0  0  0
 12 13  2  0  0  0
 12 92  1  0  0  0
 13 14  1  0  0  0
 13 31  1  0  0  0
 14 15  2  0  0  0
 14 93  1  0  0  0
 15 94  1  0  0  0
 16 17  2  0  0  0
 16 21  1  0  0  0
 16 31  1  0  0  0
 17 18  1  0  0  0
 17 95  1  0  0  0
 18 19  2  0  0  0
 18 96  1  0  0  0
 19 20  1  0  0  0
 19 24  1  0  0  0
 20 21  2  0  0  0
 20 97  1  0  0  0
 21 23  1  0  0  0
 22 28  1  0  0  0
 22 32  2  0  0  0
 26 27  1  0  0  0
 28 98  1  0  0  0
 28 99  1  0  0  0
 29100  1  0  0  0
 29101  1  0  0  0
 33 34  1  0  0  0
 33 66  1  0  0  0
 33 70  2  0  0  0
 34 36  1  0  0  0
 34 59  1  0  0  0
 34102  1  0  0  0
 35 44  2  0  0  0
 35 45  1  0  0  0
 35 68  1  0  0  0
 36 56  1  0  0  0
 36103  1  0  0  0
 37 39  1  0  0  0
 37 47  1  0  0  0
 37 66  1  0  0  0
 37104  1  0  0  0
 38 43  2  0  0  0
 38 46  1  0  0  0
 38 47  1  0  0  0
 39 64  1  0  0  0
 39 67  2  0  0  0
 40 52  1  0  0  0
 40 53  2  0  0  0
 40 58  1  0  0  0
 41105  1  0  0  0
 41106  1  0  0  0
 41107  1  0  0  0
 41 48  1  0  0  0
 42 43  1  0  0  0
 42 66  1  0  0  0
 42108  1  0  0  0
 42109  1  0  0  0
 43 44  1  0  0  0
 44110  1  0  0  0
 45 46  2  0  0  0
 45111  1  0  0  0
 46112  1  0  0  0
 47113  1  0  0  0
 47114  1  0  0  0
 48 56  1  0  0  0
 48 65  1  0  0  0
 48115  1  0  0  0
 49 50  1  0  0  0
 49 53  1  0  0  0
 49 64  1  0  0  0
 49116  1  0  0  0
 50 51  1  0  0  0
 50117  1  0  0  0
 50118  1  0  0  0
 51 52  1  0  0  0
 51119  1  0  0  0
 51120  1  0  0  0
 52121  1  0  0  0
 52122  1  0  0  0
 53 54  1  0  0  0
 54 55  2  0  0  0
 54123  1  0  0  0
 55 57  1  0  0  0
 55124  1  0  0  0
 56 69  2  0  0  0
 57 58  2  0  0  0
 57125  1  0  0  0
 58126  1  0  0  0
 59 60  1  0  0  0
 59 61  1  0  0  0
 59 62  1  0  0  0
 60127  1  0  0  0
 60128  1  0  0  0
 60129  1  0  0  0
 61130  1  0  0  0
 61131  1  0  0  0
 61132  1  0  0  0
 62133  1  0  0  0
 62134  1  0  0  0
 62135  1  0  0  0
 63 65  1  0  0  0
 63136  1  0  0  0
 63137  1  0  0  0
 63138  1  0  0  0
 64139  1  0  0  0
 65140  1  0  0  0
 68 79  1  0  0  0
 71 73  2  0  0  0
 71 75  1  0  0  0
 71141  1  0  0  0
 72 74  1  0  0  0
 72 75  2  0  0  0
 72142  1  0  0  0
 73 76  1  0  0  0
 73143  1  0  0  0
 74 76  2  0  0  0
 74144  1  0  0  0
 75 80  1  0  0  0
 76 81  1  0  0  0
 77 78  1  0  0  0
 77 79  1  0  0  0
 77145  1  0  0  0
 77146  1  0  0  0
 78 81  1  0  0  0
 78147  1  0  0  0
 78148  1  0  0  0
 79149  1  0  0  0
 79150  1  0  0  0
 80151  1  0  0  0
M  ISO  4   1 100  68 101  79 101  80 100
M  END
> <chiral flag>
0

> <version>
0

> <s_m_source_file>
/data/baiqing/PycharmProjects/Reinvent-master-3.2/result/LINK_invent/BTK/process_docking_weight1_custom_sum_contain_oxygen_bond_distance_aromatic_linkinvent_7_9_3/rearranged_h_0002.sdf

> <i_m_source_file_index>
79

> <r_mmod_Potential_Energy-OPLS-2005>
87.3086853027344

> <r_mmod_Stretch_Energy-OPLS-2005>
91.08984375

> <r_mmod_Bend_Energy-OPLS-2005>
159.319290161133

> <r_mmod_Torsional_Energy-OPLS-2005>
236.013916015625

> <r_mmod_Improper_Torsional_Energy-OPLS-2005>
3.05807876586914

> <r_mmod_Van_der_Waal_Energy-OPLS-2005>
138.714782714844

> <r_mmod_Electrostatic_Energy-OPLS-2005>
-383.976654052734

> <r_mmod_Solvation_Energy-OPLS-2005>
-214.270523071289

> <b_mmod_Minimization_Converged-OPLS-2005>
0

> <r_mmod_RMS_Derivative-OPLS-2005>
5.72391843795776

$$$$
79
                    3D
 Structure written by MMmdl.
180187  0  0  1  0            999 V2000
  -30.7322  -14.3613   20.6565 C   0  0  0  0  0  0
  -30.4274  -12.2647   19.3988 C   0  0  0  0  0  0
  -29.4907  -12.5077   18.1982 C   0  0  0  0  0  0
  -28.0124  -12.3731   18.6126 C   0  0  0  0  0  0
  -27.6733  -13.1880   19.8886 C   0  0  2  0  0  0
  -28.7105  -12.8998   20.9984 C   0  0  0  0  0  0
  -25.2648  -13.8117   20.5696 C   0  0  0  0  0  0
  -24.1878  -13.0419   20.9214 C   0  0  0  0  0  0
  -24.6404  -11.6885   20.8777 C   0  0  0  0  0  0
  -23.9068  -10.4278   21.0442 C   0  0  0  0  0  0
  -24.3611   -9.4178   21.9209 C   0  0  0  0  0  0
  -23.6280   -8.2215   22.0755 C   0  0  0  0  0  0
  -22.4253   -8.0282   21.3550 C   0  0  0  0  0  0
  -21.9910   -9.0264   20.4653 C   0  0  0  0  0  0
  -22.7252  -10.2136   20.3080 C   0  0  0  0  0  0
  -21.6830   -6.0747   22.5292 C   0  0  0  0  0  0
  -21.4003   -6.5648   23.8231 C   0  0  0  0  0  0
  -21.3662   -5.6796   24.9192 C   0  0  0  0  0  0
  -21.6039   -4.3059   24.7222 C   0  0  0  0  0  0
  -21.8822   -3.8157   23.4343 C   0  0  0  0  0  0
  -21.9179   -4.6981   22.3400 C   0  0  0  0  0  0
  -22.7898  -13.5249   21.1869 C   0  0  0  0  0  0
  -22.1650   -4.2171   21.0977 F   0  0  0  0  0  0
  -21.5623   -3.4537   25.7728 F   0  0  0  0  0  0
  -30.0565  -13.1988   20.4709 N   0  0  0  0  0  0
  -26.3081  -12.9253   20.3427 N   0  0  0  0  0  0
  -25.9321  -11.6430   20.5794 N   0  0  0  0  0  0
  -22.0499  -12.8249   22.0412 N   0  0  0  0  0  0
  -25.4386  -15.1818   20.4017 N   0  0  0  0  0  0
  -31.7659  -14.6586   20.0485 O   0  0  0  0  0  0
  -21.6602   -6.8892   21.4253 O   0  0  0  0  0  0
  -22.3614  -14.5564   20.6724 O   0  0  0  0  0  0
  -24.6106  -31.8736   23.2125 C   0  0  0  0  0  0
  -25.9015  -32.4847   23.8426 C   0  0  1  0  0  0
  -27.2504  -27.4823   20.0856 C   0  0  0  0  0  0
  -25.5892  -33.8642   24.2364 N   0  0  0  0  0  0
  -23.3990  -30.4946   21.5515 C   0  0  2  0  0  0
  -24.8472  -28.9650   20.1153 C   0  0  0  0  0  0
  -22.7393  -29.4698   22.5001 C   0  0  0  0  0  0
  -18.0289  -28.1328   22.8512 C   0  0  0  0  0  0
  -24.1492  -36.7304   23.2642 C   0  0  0  0  0  0
  -25.9227  -30.8499   21.3628 C   0  0  0  0  0  0
  -26.0020  -29.4896   20.7060 C   0  0  0  0  0  0
  -27.2037  -28.7543   20.6897 C   0  0  0  0  0  0
  -26.0763  -26.9640   19.4872 C   0  0  0  0  0  0
  -24.8756  -27.6973   19.5067 C   0  0  0  0  0  0
  -23.6052  -29.8232   20.1670 C   0  0  0  0  0  0
  -25.4108  -36.3119   24.0356 C   0  0  1  0  0  0
  -20.5877  -28.3637   23.1283 C   0  0  2  0  0  0
  -20.6823  -26.9398   22.5324 C   0  0  0  0  0  0
  -19.5722  -26.6292   21.5238 C   0  0  0  0  0  0
  -18.1947  -26.7830   22.1744 C   0  0  0  0  0  0
  -19.1535  -28.8799   23.2891 C   0  0  0  0  0  0
  -18.9473  -30.1411   23.8904 C   0  0  0  0  0  0
  -17.6472  -30.6561   24.0537 C   0  0  0  0  0  0
  -25.9029  -34.9487   23.5150 C   0  0  0  0  0  0
  -16.5360  -29.9068   23.6285 C   0  0  0  0  0  0
  -16.7281  -28.6468   23.0337 C   0  0  0  0  0  0
  -26.4459  -31.6610   25.0740 C   0  0  0  0  0  0
  -25.3733  -31.3699   26.1493 C   0  0  0  0  0  0
  -27.0294  -30.3061   24.6105 C   0  0  0  0  0  0
  -27.6060  -32.4310   25.7475 C   0  0  0  0  0  0
  -27.5590  -37.1811   24.8471 C   0  0  0  0  0  0
  -21.4119  -29.3060   22.3720 N   0  0  0  0  0  0
  -26.4303  -37.3794   23.9415 N   0  0  0  0  0  0
  -24.6611  -31.0868   22.1007 N   0  0  0  0  0  0
  -23.4178  -28.8264   23.3050 O   0  0  0  0  0  0
  -28.4447  -26.7963   20.1300 O   0  0  0  0  0  0
  -26.5573  -34.8913   22.4701 O   0  0  0  0  0  0
  -23.5304  -32.1465   23.7534 O   0  0  0  0  0  0
  -20.3854  -19.9799   21.9749 C   0  0  0  0  0  0
  -25.8193  -23.0604   21.8412 C   0  0  0  0  0  0
  -25.2187  -21.0745   20.5615 C   0  0  0  0  0  0
  -19.8176  -19.2271   20.7810 C   0  0  0  0  0  0
  -27.1656  -23.3742   21.1613 C   0  0  0  0  0  0
  -26.6389  -20.4781   20.4962 C   0  0  0  0  0  0
  -27.6449  -24.8240   21.3657 C   0  0  0  0  0  0
  -28.9442  -17.0884   20.4936 C   0  0  0  0  0  0
  -29.0284  -18.5153   19.9444 C   0  0  0  0  0  0
  -22.8584  -21.9886   22.7184 C   0  0  0  0  0  0
  -30.1657  -16.6690   21.3295 C   0  0  0  0  0  0
  -21.3269  -22.1389   22.7688 C   0  0  0  0  0  0
  -23.4866  -22.5691   21.4317 C   0  0  0  0  0  0
  -27.8400  -18.8582   19.0199 C   0  0  0  0  0  0
  -28.4058  -25.3728   20.1362 C   0  0  0  0  0  0
  -20.6794  -21.2717   21.7882 N   0  0  0  0  0  0
  -30.1264  -15.2214   21.4827 N   0  0  0  0  0  0
  -24.9193  -22.2107   21.2670 N   0  0  0  0  0  0
  -26.5994  -19.1997   19.7533 N   0  3  0  0  0  0
  -20.5713  -19.3953   23.0431 O   0  0  0  0  0  0
  -25.5365  -23.6991   22.8613 O   0  0  0  0  0  0
  -24.3403  -20.4340   19.9677 O   0  0  0  0  0  0
  -31.4715  -12.3708   19.0960 H   0  0  0  0  0  0
  -30.3269  -11.2375   19.7541 H   0  0  0  0  0  0
  -29.7176  -11.7992   17.4005 H   0  0  0  0  0  0
  -29.6707  -13.5009   17.7868 H   0  0  0  0  0  0
  -27.8143  -11.3155   18.7878 H   0  0  0  0  0  0
  -27.3616  -12.6707   17.7887 H   0  0  0  0  0  0
  -27.7415  -14.2434   19.6284 H   0  0  0  0  0  0
  -28.6695  -11.8466   21.2816 H   0  0  0  0  0  0
  -28.4629  -13.4419   21.9105 H   0  0  0  0  0  0
  -25.2758   -9.5617   22.4793 H   0  0  0  0  0  0
  -23.9981   -7.4581   22.7451 H   0  0  0  0  0  0
  -21.0853   -8.8818   19.8936 H   0  0  0  0  0  0
  -22.3762  -10.9690   19.6188 H   0  0  0  0  0  0
  -21.2000   -7.6152   23.9754 H   0  0  0  0  0  0
  -21.1487   -6.0513   25.9103 H   0  0  0  0  0  0
  -22.0596   -2.7616   23.2833 H   0  0  0  0  0  0
  -22.4040  -11.9881   22.4800 H   0  0  0  0  0  0
  -21.1132  -13.1331   22.2601 H   0  0  0  0  0  0
  -24.6521  -15.8203   20.4571 H   0  0  0  0  0  0
  -26.2712  -15.5800   19.9917 H   0  0  0  0  0  0
  -26.7088  -32.5583   23.1205 H   0  0  0  0  0  0
  -25.0108  -33.9809   25.0558 H   0  0  0  0  0  0
  -22.6863  -31.3105   21.4123 H   0  0  0  0  0  0
  -23.3761  -35.9635   23.3317 H   0  0  0  0  0  0
  -24.3598  -36.8890   22.2054 H   0  0  0  0  0  0
  -23.7236  -37.6515   23.6628 H   0  0  0  0  0  0
  -26.0391  -31.6220   20.6014 H   0  0  0  0  0  0
  -26.8068  -30.8960   21.9865 H   0  0  0  0  0  0
  -28.0916  -29.1553   21.1584 H   0  0  0  0  0  0
  -26.0677  -25.9969   19.0061 H   0  0  0  0  0  0
  -23.9864  -27.2833   19.0521 H   0  0  0  0  0  0
  -23.6971  -30.5928   19.3989 H   0  0  0  0  0  0
  -22.7346  -29.2292   19.8840 H   0  0  0  0  0  0
  -25.1289  -36.2010   25.0855 H   0  0  0  0  0  0
  -20.9982  -28.3148   24.1391 H   0  0  0  0  0  0
  -20.5913  -26.2236   23.3495 H   0  0  0  0  0  0
  -21.6651  -26.7553   22.0957 H   0  0  0  0  0  0
  -19.6841  -25.6176   21.1336 H   0  0  0  0  0  0
  -19.6560  -27.3032   20.6718 H   0  0  0  0  0  0
  -17.4159  -26.6453   21.4226 H   0  0  0  0  0  0
  -18.0470  -26.0031   22.9230 H   0  0  0  0  0  0
  -19.7954  -30.7210   24.2310 H   0  0  0  0  0  0
  -17.5026  -31.6239   24.5130 H   0  0  0  0  0  0
  -15.5366  -30.2977   23.7612 H   0  0  0  0  0  0
  -15.8674  -28.0771   22.7087 H   0  0  0  0  0  0
  -24.5911  -30.7047   25.7821 H   0  0  0  0  0  0
  -24.8919  -32.2842   26.4958 H   0  0  0  0  0  0
  -25.8090  -30.8853   27.0240 H   0  0  0  0  0  0
  -26.2840  -29.6813   24.1167 H   0  0  0  0  0  0
  -27.4087  -29.7306   25.4563 H   0  0  0  0  0  0
  -27.8660  -30.4399   23.9244 H   0  0  0  0  0  0
  -27.2721  -33.3606   26.2082 H   0  0  0  0  0  0
  -28.3826  -32.6865   25.0260 H   0  0  0  0  0  0
  -28.0769  -31.8420   26.5352 H   0  0  0  0  0  0
  -28.2617  -38.0095   24.7519 H   0  0  0  0  0  0
  -28.1069  -36.2635   24.6299 H   0  0  0  0  0  0
  -27.2308  -37.1462   25.8870 H   0  0  0  0  0  0
  -20.9253  -29.8795   21.6972 H   0  0  0  0  0  0
  -26.0201  -38.2888   24.1384 H   0  0  0  0  0  0
  -19.0165  -19.7939   20.3067 H   0  0  0  0  0  0
  -19.4147  -18.2619   21.0890 H   0  0  0  0  0  0
  -20.6012  -19.0500   20.0439 H   0  0  0  0  0  0
  -27.0201  -23.2387   20.0916 H   0  0  0  0  0  0
  -27.9413  -22.6843   21.4940 H   0  0  0  0  0  0
  -27.0493  -20.3280   21.4951 H   0  0  0  0  0  0
  -27.2953  -21.1366   19.9366 H   0  0  0  0  0  0
  -28.2735  -24.8935   22.2539 H   0  0  0  0  0  0
  -26.7859  -25.4565   21.5824 H   0  0  0  0  0  0
  -28.8381  -16.4120   19.6438 H   0  0  0  0  0  0
  -28.0421  -16.9656   21.0925 H   0  0  0  0  0  0
  -29.9439  -18.5958   19.3569 H   0  0  0  0  0  0
  -29.1326  -19.2382   20.7550 H   0  0  0  0  0  0
  -23.1208  -20.9356   22.8252 H   0  0  0  0  0  0
  -23.2844  -22.4927   23.5854 H   0  0  0  0  0  0
  -30.1379  -17.1414   22.3114 H   0  0  0  0  0  0
  -31.0932  -16.9910   20.8533 H   0  0  0  0  0  0
  -21.0406  -23.1725   22.5703 H   0  0  0  0  0  0
  -20.9625  -21.9118   23.7729 H   0  0  0  0  0  0
  -23.3609  -23.6548   21.4406 H   0  0  0  0  0  0
  -22.9030  -22.2640   20.5611 H   0  0  0  0  0  0
  -27.6335  -18.0217   18.3500 H   0  0  0  0  0  0
  -28.1116  -19.6860   18.3645 H   0  0  0  0  0  0
  -29.4341  -25.0092   20.1688 H   0  0  0  0  0  0
  -28.0016  -25.0138   19.1902 H   0  0  0  0  0  0
  -20.4772  -21.6717   20.8807 H   0  0  0  0  0  0
  -29.3527  -14.8458   22.0100 H   0  0  0  0  0  0
  -25.8433  -19.3173   19.0912 H   0  0  0  0  0  0
  -26.3147  -18.4540   20.3668 H   0  0  0  0  0  0
  1 25  1  0  0  0
  1 30  2  0  0  0
  1 87  1  0  0  0
  2  3  1  0  0  0
  2 25  1  0  0  0
  2 93  1  0  0  0
  2 94  1  0  0  0
  3  4  1  0  0  0
  3 95  1  0  0  0
  3 96  1  0  0  0
  4  5  1  0  0  0
  4 97  1  0  0  0
  4 98  1  0  0  0
  5  6  1  0  0  0
  5 26  1  0  0  0
  5 99  1  0  0  0
  6 25  1  0  0  0
  6100  1  0  0  0
  6101  1  0  0  0
  7  8  2  0  0  0
  7 26  1  0  0  0
  7 29  1  0  0  0
  8  9  1  0  0  0
  8 22  1  0  0  0
  9 10  1  0  0  0
  9 27  2  0  0  0
 10 11  2  0  0  0
 10 15  1  0  0  0
 11 12  1  0  0  0
 11102  1  0  0  0
 12 13  2  0  0  0
 12103  1  0  0  0
 13 14  1  0  0  0
 13 31  1  0  0  0
 14 15  2  0  0  0
 14104  1  0  0  0
 15105  1  0  0  0
 16 17  2  0  0  0
 16 21  1  0  0  0
 16 31  1  0  0  0
 17 18  1  0  0  0
 17106  1  0  0  0
 18 19  2  0  0  0
 18107  1  0  0  0
 19 20  1  0  0  0
 19 24  1  0  0  0
 20 21  2  0  0  0
 20108  1  0  0  0
 21 23  1  0  0  0
 22 28  1  0  0  0
 22 32  2  0  0  0
 26 27  1  0  0  0
 28109  1  0  0  0
 28110  1  0  0  0
 29111  1  0  0  0
 29112  1  0  0  0
 33 34  1  0  0  0
 33 66  1  0  0  0
 33 70  2  0  0  0
 34 36  1  0  0  0
 34 59  1  0  0  0
 34113  1  0  0  0
 35 44  2  0  0  0
 35 45  1  0  0  0
 35 68  1  0  0  0
 36 56  1  0  0  0
 36114  1  0  0  0
 37 39  1  0  0  0
 37 47  1  0  0  0
 37 66  1  0  0  0
 37115  1  0  0  0
 38 43  2  0  0  0
 38 46  1  0  0  0
 38 47  1  0  0  0
 39 64  1  0  0  0
 39 67  2  0  0  0
 40 52  1  0  0  0
 40 53  2  0  0  0
 40 58  1  0  0  0
 41116  1  0  0  0
 41117  1  0  0  0
 41118  1  0  0  0
 41 48  1  0  0  0
 42 43  1  0  0  0
 42 66  1  0  0  0
 42119  1  0  0  0
 42120  1  0  0  0
 43 44  1  0  0  0
 44121  1  0  0  0
 45 46  2  0  0  0
 45122  1  0  0  0
 46123  1  0  0  0
 47124  1  0  0  0
 47125  1  0  0  0
 48 56  1  0  0  0
 48 65  1  0  0  0
 48126  1  0  0  0
 49 50  1  0  0  0
 49 53  1  0  0  0
 49 64  1  0  0  0
 49127  1  0  0  0
 50 51  1  0  0  0
 50128  1  0  0  0
 50129  1  0  0  0
 51 52  1  0  0  0
 51130  1  0  0  0
 51131  1  0  0  0
 52132  1  0  0  0
 52133  1  0  0  0
 53 54  1  0  0  0
 54 55  2  0  0  0
 54134  1  0  0  0
 55 57  1  0  0  0
 55135  1  0  0  0
 56 69  2  0  0  0
 57 58  2  0  0  0
 57136  1  0  0  0
 58137  1  0  0  0
 59 60  1  0  0  0
 59 61  1  0  0  0
 59 62  1  0  0  0
 60138  1  0  0  0
 60139  1  0  0  0
 60140  1  0  0  0
 61141  1  0  0  0
 61142  1  0  0  0
 61143  1  0  0  0
 62144  1  0  0  0
 62145  1  0  0  0
 62146  1  0  0  0
 63 65  1  0  0  0
 63147  1  0  0  0
 63148  1  0  0  0
 63149  1  0  0  0
 64150  1  0  0  0
 65151  1  0  0  0
 68 85  1  0  0  0
 71 74  1  0  0  0
 71 86  1  0  0  0
 71 90  2  0  0  0
 72 75  1  0  0  0
 72 88  1  0  0  0
 72 91  2  0  0  0
 73 76  1  0  0  0
 73 88  1  0  0  0
 73 92  2  0  0  0
 74152  1  0  0  0
 74153  1  0  0  0
 74154  1  0  0  0
 75 77  1  0  0  0
 75155  1  0  0  0
 75156  1  0  0  0
 76 89  1  0  0  0
 76157  1  0  0  0
 76158  1  0  0  0
 77 85  1  0  0  0
 77159  1  0  0  0
 77160  1  0  0  0
 78 79  1  0  0  0
 78 81  1  0  0  0
 78161  1  0  0  0
 78162  1  0  0  0
 79 84  1  0  0  0
 79163  1  0  0  0
 79164  1  0  0  0
 80 82  1  0  0  0
 80 83  1  0  0  0
 80165  1  0  0  0
 80166  1  0  0  0
 81 87  1  0  0  0
 81167  1  0  0  0
 81168  1  0  0  0
 82 86  1  0  0  0
 82169  1  0  0  0
 82170  1  0  0  0
 83 88  1  0  0  0
 83171  1  0  0  0
 83172  1  0  0  0
 84 89  1  0  0  0
 84173  1  0  0  0
 84174  1  0  0  0
 85175  1  0  0  0
 85176  1  0  0  0
 86177  1  0  0  0
 87178  1  0  0  0
 89179  1  0  0  0
 89180  1  0  0  0
M  CHG  1  89   1
M  ISO  4   1 100  68 101  85 101  87 100
M  END
> <chiral flag>
0

> <version>
0

> <s_m_source_file>
/data/baiqing/PycharmProjects/Reinvent-master-3.2/result/LINK_invent/BTK/process_docking_weight1_custom_sum_contain_oxygen_bond_distance_aromatic_linkinvent_7_9_3/rearranged_h_0002.sdf

> <i_m_source_file_index>
80

> <r_mmod_Potential_Energy-OPLS-2005>
-482.851593017578

> <r_mmod_Stretch_Energy-OPLS-2005>
38.4666709899902

> <r_mmod_Bend_Energy-OPLS-2005>
110.705070495605

> <r_mmod_Torsional_Energy-OPLS-2005>
247.102066040039

> <r_mmod_Improper_Torsional_Energy-OPLS-2005>
5.8958477973938

> <r_mmod_Van_der_Waal_Energy-OPLS-2005>
165.842147827148

> <r_mmod_Electrostatic_Energy-OPLS-2005>
-491.499450683594

> <r_mmod_Solvation_Energy-OPLS-2005>
-567.929748535156

> <b_mmod_Minimization_Converged-OPLS-2005>
0

> <r_mmod_RMS_Derivative-OPLS-2005>
2.52825927734375

$$$$
80
                    3D
 Structure written by MMmdl.
144152  0  0  1  0            999 V2000
  -30.3282  -15.6180   20.3483 C   0  0  0  0  0  0
  -30.4174  -13.0453   19.6232 C   0  0  0  0  0  0
  -29.5917  -12.6659   18.3631 C   0  0  0  0  0  0
  -28.1526  -12.3037   18.7694 C   0  0  0  0  0  0
  -27.5947  -13.3142   19.8038 C   0  0  2  0  0  0
  -28.5802  -13.6396   20.9583 C   0  0  0  0  0  0
  -25.2311  -13.8235   20.5782 C   0  0  0  0  0  0
  -24.1666  -13.0391   20.9308 C   0  0  0  0  0  0
  -24.6342  -11.6894   20.8636 C   0  0  0  0  0  0
  -23.9025  -10.4290   21.0404 C   0  0  0  0  0  0
  -24.3560   -9.4223   21.9224 C   0  0  0  0  0  0
  -23.6276   -8.2219   22.0773 C   0  0  0  0  0  0
  -22.4281   -8.0264   21.3517 C   0  0  0  0  0  0
  -21.9906   -9.0228   20.4636 C   0  0  0  0  0  0
  -22.7217  -10.2124   20.3067 C   0  0  0  0  0  0
  -21.6812   -6.0698   22.5275 C   0  0  0  0  0  0
  -21.4055   -6.5617   23.8228 C   0  0  0  0  0  0
  -21.3669   -5.6768   24.9178 C   0  0  0  0  0  0
  -21.6054   -4.3037   24.7244 C   0  0  0  0  0  0
  -21.8775   -3.8093   23.4361 C   0  0  0  0  0  0
  -21.9195   -4.6914   22.3401 C   0  0  0  0  0  0
  -22.7706  -13.5174   21.1905 C   0  0  0  0  0  0
  -22.1632   -4.2092   21.0962 F   0  0  0  0  0  0
  -21.5629   -3.4523   25.7752 F   0  0  0  0  0  0
  -29.7915  -14.2482   20.3480 N   0  0  0  0  0  0
  -26.2682  -12.9568   20.2994 N   0  0  0  0  0  0
  -25.9267  -11.6624   20.5491 N   0  0  0  0  0  0
  -22.0248  -12.8221   22.0432 N   0  0  0  0  0  0
  -25.4038  -15.2009   20.4378 N   0  0  0  0  0  0
  -31.5366  -15.5442   20.0567 O   0  0  0  0  0  0
  -21.6620   -6.8867   21.4266 O   0  0  0  0  0  0
  -22.3439  -14.5440   20.6728 O   0  0  0  0  0  0
  -24.6868  -31.7927   23.1374 C   0  0  0  0  0  0
  -25.9442  -32.4463   23.7942 C   0  0  1  0  0  0
  -27.2846  -26.7045   20.2071 C   0  0  0  0  0  0
  -25.6004  -33.8303   24.1865 N   0  0  0  0  0  0
  -23.5118  -30.3876   21.5042 C   0  0  2  0  0  0
  -24.9828  -28.7192   20.1355 C   0  0  0  0  0  0
  -22.7769  -29.4321   22.4769 C   0  0  0  0  0  0
  -18.0329  -28.1386   22.8452 C   0  0  0  0  0  0
  -24.1515  -36.7160   23.2623 C   0  0  0  0  0  0
  -26.0967  -30.5284   21.4024 C   0  0  0  0  0  0
  -26.1755  -29.0847   20.7668 C   0  0  0  0  0  0
  -27.3056  -28.1106   20.7707 C   0  0  0  0  0  0
  -26.0508  -26.5469   19.5137 C   0  0  0  0  0  0
  -24.9575  -27.4670   19.4888 C   0  0  0  0  0  0
  -23.7612  -29.6552   20.1573 C   0  0  0  0  0  0
  -25.4169  -36.2910   24.0253 C   0  0  1  0  0  0
  -20.5987  -28.3778   23.1177 C   0  0  2  0  0  0
  -20.6812  -26.9451   22.5426 C   0  0  0  0  0  0
  -19.5774  -26.6345   21.5239 C   0  0  0  0  0  0
  -18.1949  -26.7913   22.1608 C   0  0  0  0  0  0
  -19.1593  -28.8919   23.2773 C   0  0  0  0  0  0
  -18.9469  -30.1493   23.8834 C   0  0  0  0  0  0
  -17.6466  -30.6612   24.0525 C   0  0  0  0  0  0
  -25.9163  -34.9317   23.4925 C   0  0  0  0  0  0
  -16.5367  -29.9082   23.6383 C   0  0  0  0  0  0
  -16.7292  -28.6497   23.0403 C   0  0  0  0  0  0
  -26.4649  -31.6461   25.0575 C   0  0  0  0  0  0
  -25.3692  -31.3795   26.1161 C   0  0  0  0  0  0
  -27.0490  -30.2759   24.6399 C   0  0  0  0  0  0
  -27.6127  -32.4254   25.7419 C   0  0  0  0  0  0
  -27.5643  -37.1669   24.8439 C   0  0  0  0  0  0
  -21.4435  -29.3002   22.3485 N   0  0  0  0  0  0
  -26.4281  -37.3676   23.9442 N   0  0  0  0  0  0
  -24.7918  -30.9396   22.0629 N   0  0  0  0  0  0
  -23.4214  -28.8002   23.3166 O   0  0  0  0  0  0
  -28.2700  -25.4817   20.2368 O   0  0  0  0  0  0
  -26.5830  -34.8947   22.4573 O   0  0  0  0  0  0
  -23.5920  -32.1055   23.6334 O   0  0  0  0  0  0
  -31.4683  -20.5706   20.9152 C   0  0  0  0  0  0
  -31.0997  -19.1832   20.7891 C   0  0  0  0  0  0
  -30.6023  -21.7157   20.7285 C   0  0  0  0  0  0
  -28.8925  -20.0353   20.3061 C   0  0  0  0  0  0
  -29.7930  -18.7099   20.4641 C   0  0  0  0  0  0
  -29.1996  -21.6110   20.4106 C   0  0  0  0  0  0
  -29.5929  -16.9929   20.4646 N   0  0  0  0  0  0
  -27.1549  -23.4147   21.6026 O   0  0  0  0  0  0
  -27.0632  -23.2745   19.1245 O   0  0  0  0  0  0
  -27.8944  -23.5023   20.3333 S   0  0  0  0  0  0
  -31.4572  -13.2325   19.3711 H   0  0  0  0  0  0
  -30.4847  -12.1890   20.2907 H   0  0  0  0  0  0
  -30.0828  -11.8471   17.8310 H   0  0  0  0  0  0
  -29.5823  -13.5173   17.6850 H   0  0  0  0  0  0
  -28.1753  -11.3078   19.2162 H   0  0  0  0  0  0
  -27.5111  -12.2162   17.8884 H   0  0  0  0  0  0
  -27.4653  -14.2410   19.2374 H   0  0  0  0  0  0
  -28.7801  -12.7556   21.5620 H   0  0  0  0  0  0
  -28.1262  -14.3569   21.6422 H   0  0  0  0  0  0
  -25.2717   -9.5678   22.4750 H   0  0  0  0  0  0
  -23.9966   -7.4634   22.7514 H   0  0  0  0  0  0
  -21.0811   -8.8743   19.8971 H   0  0  0  0  0  0
  -22.3716  -10.9609   19.6087 H   0  0  0  0  0  0
  -21.2088   -7.6147   23.9708 H   0  0  0  0  0  0
  -21.1547   -6.0514   25.9073 H   0  0  0  0  0  0
  -22.0569   -2.7583   23.2844 H   0  0  0  0  0  0
  -22.3823  -11.9999   22.4980 H   0  0  0  0  0  0
  -21.0857  -13.1383   22.2464 H   0  0  0  0  0  0
  -24.6693  -15.8743   20.6444 H   0  0  0  0  0  0
  -26.2822  -15.6327   20.1674 H   0  0  0  0  0  0
  -26.7521  -32.4959   23.0644 H   0  0  0  0  0  0
  -24.9942  -33.9262   24.9878 H   0  0  0  0  0  0
  -22.8425  -31.2231   21.3025 H   0  0  0  0  0  0
  -23.3855  -35.9400   23.3141 H   0  0  0  0  0  0
  -24.3625  -36.8959   22.2078 H   0  0  0  0  0  0
  -23.7184  -37.6256   23.6803 H   0  0  0  0  0  0
  -26.2950  -31.2405   20.6033 H   0  0  0  0  0  0
  -26.9493  -30.6098   22.0606 H   0  0  0  0  0  0
  -28.2161  -28.4253   21.2650 H   0  0  0  0  0  0
  -25.8863  -25.6132   18.9972 H   0  0  0  0  0  0
  -24.0479  -27.1616   18.9940 H   0  0  0  0  0  0
  -23.9144  -30.3913   19.3700 H   0  0  0  0  0  0
  -22.8691  -29.0968   19.8698 H   0  0  0  0  0  0
  -25.1367  -36.1658   25.0720 H   0  0  0  0  0  0
  -21.0000  -28.3410   24.1310 H   0  0  0  0  0  0
  -20.5674  -26.2400   23.3661 H   0  0  0  0  0  0
  -21.6656  -26.7391   22.1252 H   0  0  0  0  0  0
  -19.6971  -25.6238   21.1283 H   0  0  0  0  0  0
  -19.6758  -27.3148   20.6749 H   0  0  0  0  0  0
  -17.4229  -26.6648   21.3998 H   0  0  0  0  0  0
  -18.0366  -26.0100   22.9051 H   0  0  0  0  0  0
  -19.7961  -30.7284   24.2207 H   0  0  0  0  0  0
  -17.5042  -31.6303   24.5060 H   0  0  0  0  0  0
  -15.5380  -30.2915   23.7763 H   0  0  0  0  0  0
  -15.8674  -28.0738   22.7188 H   0  0  0  0  0  0
  -24.5857  -30.7205   25.7424 H   0  0  0  0  0  0
  -24.8913  -32.3030   26.4427 H   0  0  0  0  0  0
  -25.7812  -30.9011   27.0036 H   0  0  0  0  0  0
  -26.3165  -29.6448   24.1315 H   0  0  0  0  0  0
  -27.3866  -29.7154   25.5133 H   0  0  0  0  0  0
  -27.9222  -30.3882   23.9939 H   0  0  0  0  0  0
  -27.2689  -33.3591   26.1878 H   0  0  0  0  0  0
  -28.4012  -32.6653   25.0285 H   0  0  0  0  0  0
  -28.0706  -31.8380   26.5384 H   0  0  0  0  0  0
  -28.2454  -38.0146   24.7725 H   0  0  0  0  0  0
  -28.1286  -36.2692   24.5938 H   0  0  0  0  0  0
  -27.2384  -37.0956   25.8809 H   0  0  0  0  0  0
  -20.9779  -29.8496   21.6405 H   0  0  0  0  0  0
  -26.0137  -38.2685   24.1537 H   0  0  0  0  0  0
  -32.5015  -20.7718   21.2007 H   0  0  0  0  0  0
  -31.8725  -18.4567   21.0190 H   0  0  0  0  0  0
  -31.0675  -22.6964   20.8537 H   0  0  0  0  0  0
  -27.8415  -19.8419   20.0925 H   0  0  0  0  0  0
  -28.6585  -16.7721   20.7622 H   0  0  0  0  0  0
  1 25  1  0  0  0
  1 30  2  0  0  0
  1 77  1  0  0  0
  2  3  1  0  0  0
  2 25  1  0  0  0
  2 81  1  0  0  0
  2 82  1  0  0  0
  3  4  1  0  0  0
  3 83  1  0  0  0
  3 84  1  0  0  0
  4  5  1  0  0  0
  4 85  1  0  0  0
  4 86  1  0  0  0
  5  6  1  0  0  0
  5 26  1  0  0  0
  5 87  1  0  0  0
  6 25  1  0  0  0
  6 88  1  0  0  0
  6 89  1  0  0  0
  7  8  2  0  0  0
  7 26  1  0  0  0
  7 29  1  0  0  0
  8  9  1  0  0  0
  8 22  1  0  0  0
  9 10  1  0  0  0
  9 27  2  0  0  0
 10 11  2  0  0  0
 10 15  1  0  0  0
 11 12  1  0  0  0
 11 90  1  0  0  0
 12 13  2  0  0  0
 12 91  1  0  0  0
 13 14  1  0  0  0
 13 31  1  0  0  0
 14 15  2  0  0  0
 14 92  1  0  0  0
 15 93  1  0  0  0
 16 17  2  0  0  0
 16 21  1  0  0  0
 16 31  1  0  0  0
 17 18  1  0  0  0
 17 94  1  0  0  0
 18 19  2  0  0  0
 18 95  1  0  0  0
 19 20  1  0  0  0
 19 24  1  0  0  0
 20 21  2  0  0  0
 20 96  1  0  0  0
 21 23  1  0  0  0
 22 28  1  0  0  0
 22 32  2  0  0  0
 26 27  1  0  0  0
 28 97  1  0  0  0
 28 98  1  0  0  0
 29 99  1  0  0  0
 29100  1  0  0  0
 33 34  1  0  0  0
 33 66  1  0  0  0
 33 70  2  0  0  0
 34 36  1  0  0  0
 34 59  1  0  0  0
 34101  1  0  0  0
 35 44  2  0  0  0
 35 45  1  0  0  0
 35 68  1  0  0  0
 36 56  1  0  0  0
 36102  1  0  0  0
 37 39  1  0  0  0
 37 47  1  0  0  0
 37 66  1  0  0  0
 37103  1  0  0  0
 38 43  2  0  0  0
 38 46  1  0  0  0
 38 47  1  0  0  0
 39 64  1  0  0  0
 39 67  2  0  0  0
 40 52  1  0  0  0
 40 53  2  0  0  0
 40 58  1  0  0  0
 41104  1  0  0  0
 41105  1  0  0  0
 41106  1  0  0  0
 41 48  1  0  0  0
 42 43  1  0  0  0
 42 66  1  0  0  0
 42107  1  0  0  0
 42108  1  0  0  0
 43 44  1  0  0  0
 44109  1  0  0  0
 45 46  2  0  0  0
 45110  1  0  0  0
 46111  1  0  0  0
 47112  1  0  0  0
 47113  1  0  0  0
 48 56  1  0  0  0
 48 65  1  0  0  0
 48114  1  0  0  0
 49 50  1  0  0  0
 49 53  1  0  0  0
 49 64  1  0  0  0
 49115  1  0  0  0
 50 51  1  0  0  0
 50116  1  0  0  0
 50117  1  0  0  0
 51 52  1  0  0  0
 51118  1  0  0  0
 51119  1  0  0  0
 52120  1  0  0  0
 52121  1  0  0  0
 53 54  1  0  0  0
 54 55  2  0  0  0
 54122  1  0  0  0
 55 57  1  0  0  0
 55123  1  0  0  0
 56 69  2  0  0  0
 57 58  2  0  0  0
 57124  1  0  0  0
 58125  1  0  0  0
 59 60  1  0  0  0
 59 61  1  0  0  0
 59 62  1  0  0  0
 60126  1  0  0  0
 60127  1  0  0  0
 60128  1  0  0  0
 61129  1  0  0  0
 61130  1  0  0  0
 61131  1  0  0  0
 62132  1  0  0  0
 62133  1  0  0  0
 62134  1  0  0  0
 63 65  1  0  0  0
 63135  1  0  0  0
 63136  1  0  0  0
 63137  1  0  0  0
 64138  1  0  0  0
 65139  1  0  0  0
 68 80  1  0  0  0
 71 72  2  0  0  0
 71 73  1  0  0  0
 71140  1  0  0  0
 72 75  1  0  0  0
 72141  1  0  0  0
 73 76  2  0  0  0
 73142  1  0  0  0
 74 75  2  0  0  0
 74 76  1  0  0  0
 74143  1  0  0  0
 75 77  1  0  0  0
 76 80  1  0  0  0
 77144  1  0  0  0
 78 80  2  0  0  0
 79 80  2  0  0  0
M  ISO  4   1 100  68 101  77 100  80 101
M  END
> <chiral flag>
0

> <version>
0

> <s_m_source_file>
/data/baiqing/PycharmProjects/Reinvent-master-3.2/result/LINK_invent/BTK/process_docking_weight1_custom_sum_contain_oxygen_bond_distance_aromatic_linkinvent_7_9_3/rearranged_h_0002.sdf

> <i_m_source_file_index>
81

> <r_mmod_Potential_Energy-OPLS-2005>
2383.099609375

> <r_mmod_Stretch_Energy-OPLS-2005>
1085.94714355469

> <r_mmod_Bend_Energy-OPLS-2005>
651.411010742188

> <r_mmod_Torsional_Energy-OPLS-2005>
215.241439819336

> <r_mmod_Improper_Torsional_Energy-OPLS-2005>
4.90905618667603

> <r_mmod_Van_der_Waal_Energy-OPLS-2005>
120.68310546875

> <r_mmod_Electrostatic_Energy-OPLS-2005>
-317.241241455078

> <r_mmod_Solvation_Energy-OPLS-2005>
-262.253112792969

> <b_mmod_Minimization_Converged-OPLS-2005>
0

> <r_mmod_RMS_Derivative-OPLS-2005>
16.690845489502

$$$$
