0
                    3D
 Structure written by MMmdl.
148156  0  0  1  0            999 V2000
  -30.5229  -14.9232   20.4181 C   0  0  0  0  0  0
  -30.4522  -12.5679   19.4857 C   0  0  0  0  0  0
  -29.5227  -12.5332   18.2487 C   0  0  0  0  0  0
  -28.0534  -12.3247   18.6659 C   0  0  0  0  0  0
  -27.6357  -13.2432   19.8441 C   0  0  2  0  0  0
  -28.6845  -13.2333   20.9779 C   0  0  0  0  0  0
  -25.2456  -13.8175   20.5705 C   0  0  0  0  0  0
  -24.1773  -13.0399   20.9199 C   0  0  0  0  0  0
  -24.6405  -11.6897   20.8735 C   0  0  0  0  0  0
  -23.9085  -10.4272   21.0392 C   0  0  0  0  0  0
  -24.3628   -9.4192   21.9179 C   0  0  0  0  0  0
  -23.6291   -8.2235   22.0754 C   0  0  0  0  0  0
  -22.4274   -8.0279   21.3544 C   0  0  0  0  0  0
  -21.9913   -9.0252   20.4647 C   0  0  0  0  0  0
  -22.7251  -10.2121   20.3049 C   0  0  0  0  0  0
  -21.6852   -6.0729   22.5276 C   0  0  0  0  0  0
  -21.4014   -6.5632   23.8209 C   0  0  0  0  0  0
  -21.3661   -5.6786   24.9172 C   0  0  0  0  0  0
  -21.6045   -4.3049   24.7224 C   0  0  0  0  0  0
  -21.8819   -3.8140   23.4346 C   0  0  0  0  0  0
  -21.9192   -4.6956   22.3400 C   0  0  0  0  0  0
  -22.7793  -13.5178   21.1865 C   0  0  0  0  0  0
  -22.1662   -4.2142   21.0978 F   0  0  0  0  0  0
  -21.5629   -3.4535   25.7738 F   0  0  0  0  0  0
  -29.9675  -13.6465   20.3882 N   0  0  0  0  0  0
  -26.2919  -12.9426   20.3274 N   0  0  0  0  0  0
  -25.9344  -11.6552   20.5738 N   0  0  0  0  0  0
  -22.0453  -12.8180   22.0439 N   0  0  0  0  0  0
  -25.3985  -15.1905   20.4184 N   0  0  0  0  0  0
  -31.7200  -15.0470   20.1363 O   0  0  0  0  0  0
  -21.6638   -6.8877   21.4241 O   0  0  0  0  0  0
  -22.3469  -14.5485   20.6719 O   0  0  0  0  0  0
  -24.6439  -31.8448   23.1893 C   0  0  0  0  0  0
  -25.9212  -32.4700   23.8284 C   0  0  1  0  0  0
  -27.2223  -27.1432   20.1398 C   0  0  0  0  0  0
  -25.5958  -33.8506   24.2198 N   0  0  0  0  0  0
  -23.4477  -30.4650   21.5350 C   0  0  2  0  0  0
  -24.8980  -28.8964   20.1096 C   0  0  0  0  0  0
  -22.7575  -29.4549   22.4860 C   0  0  0  0  0  0
  -18.0310  -28.1394   22.8479 C   0  0  0  0  0  0
  -24.1494  -36.7257   23.2643 C   0  0  0  0  0  0
  -26.0046  -30.7195   21.3893 C   0  0  0  0  0  0
  -26.0766  -29.3321   20.7284 C   0  0  0  0  0  0
  -27.2389  -28.4715   20.7288 C   0  0  0  0  0  0
  -26.0152  -26.8130   19.4806 C   0  0  0  0  0  0
  -24.8797  -27.6491   19.4716 C   0  0  0  0  0  0
  -23.6743  -29.7971   20.1537 C   0  0  0  0  0  0
  -25.4126  -36.3034   24.0315 C   0  0  1  0  0  0
  -20.5923  -28.3721   23.1235 C   0  0  2  0  0  0
  -20.6792  -26.9422   22.5404 C   0  0  0  0  0  0
  -19.5763  -26.6377   21.5215 C   0  0  0  0  0  0
  -18.1947  -26.7931   22.1629 C   0  0  0  0  0  0
  -19.1567  -28.8877   23.2848 C   0  0  0  0  0  0
  -18.9481  -30.1472   23.8873 C   0  0  0  0  0  0
  -17.6475  -30.6587   24.0559 C   0  0  0  0  0  0
  -25.9075  -34.9408   23.5066 C   0  0  0  0  0  0
  -16.5367  -29.9078   23.6333 C   0  0  0  0  0  0
  -16.7295  -28.6499   23.0353 C   0  0  0  0  0  0
  -26.4526  -31.6565   25.0726 C   0  0  0  0  0  0
  -25.3704  -31.3764   26.1418 C   0  0  0  0  0  0
  -27.0383  -30.2952   24.6315 C   0  0  0  0  0  0
  -27.6058  -32.4329   25.7509 C   0  0  0  0  0  0
  -27.5573  -37.1795   24.8471 C   0  0  0  0  0  0
  -21.4268  -29.3048   22.3605 N   0  0  0  0  0  0
  -26.4295  -37.3740   23.9396 N   0  0  0  0  0  0
  -24.7183  -31.0306   22.0927 N   0  0  0  0  0  0
  -23.4220  -28.8092   23.3006 O   0  0  0  0  0  0
  -28.2679  -26.1479   20.2098 O   0  0  0  0  0  0
  -26.5660  -34.8903   22.4644 O   0  0  0  0  0  0
  -23.5556  -32.1328   23.7105 O   0  0  0  0  0  0
  -30.2961  -20.0170   20.4256 C   0  0  0  0  0  0
  -30.5838  -18.5770   20.5039 C   0  0  0  0  0  0
  -28.0053  -19.5294   20.1717 C   0  0  0  0  0  0
  -28.9753  -20.5791   20.2571 C   0  0  0  0  0  0
  -29.5783  -17.5427   20.4311 C   0  0  0  0  0  0
  -28.2822  -18.1155   20.2590 C   0  0  0  0  0  0
  -28.9344  -23.3662   20.2880 C   0  0  0  0  0  0
  -27.9293  -24.6471   19.9728 C   0  0  0  0  0  0
  -28.4899  -22.0311   20.1185 N   0  0  0  0  0  0
  -29.6452  -16.0185   20.5765 N   0  0  0  0  0  0
  -30.0846  -23.5963   20.6703 O   0  0  0  0  0  0
  -27.2386  -17.2582   20.1703 F   0  0  0  0  0  0
  -31.4835  -12.7374   19.1725 H   0  0  0  0  0  0
  -30.4493  -11.6058   20.0004 H   0  0  0  0  0  0
  -29.8323  -11.7426   17.5639 H   0  0  0  0  0  0
  -29.6152  -13.4694   17.6962 H   0  0  0  0  0  0
  -27.9392  -11.2796   18.9559 H   0  0  0  0  0  0
  -27.3917  -12.4779   17.8127 H   0  0  0  0  0  0
  -27.6038  -14.2530   19.4341 H   0  0  0  0  0  0
  -28.7633  -12.2428   21.4286 H   0  0  0  0  0  0
  -28.3903  -13.9113   21.7806 H   0  0  0  0  0  0
  -25.2773   -9.5664   22.4755 H   0  0  0  0  0  0
  -23.9994   -7.4627   22.7479 H   0  0  0  0  0  0
  -21.0839   -8.8777   19.8956 H   0  0  0  0  0  0
  -22.3714  -10.9663   19.6160 H   0  0  0  0  0  0
  -21.2007   -7.6141   23.9710 H   0  0  0  0  0  0
  -21.1483   -6.0517   25.9074 H   0  0  0  0  0  0
  -22.0597   -2.7603   23.2849 H   0  0  0  0  0  0
  -22.4080  -11.9853   22.4836 H   0  0  0  0  0  0
  -21.1076  -13.1210   22.2656 H   0  0  0  0  0  0
  -24.6180  -15.8228   20.5520 H   0  0  0  0  0  0
  -26.2437  -15.6829   20.1485 H   0  0  0  0  0  0
  -26.7281  -32.5307   23.1018 H   0  0  0  0  0  0
  -25.0079  -33.9622   25.0327 H   0  0  0  0  0  0
  -22.7503  -31.2911   21.3817 H   0  0  0  0  0  0
  -23.3749  -35.9597   23.3317 H   0  0  0  0  0  0
  -24.3572  -36.8874   22.2054 H   0  0  0  0  0  0
  -23.7264  -37.6465   23.6670 H   0  0  0  0  0  0
  -26.1626  -31.4759   20.6192 H   0  0  0  0  0  0
  -26.8744  -30.7677   22.0330 H   0  0  0  0  0  0
  -28.1348  -28.7996   21.2373 H   0  0  0  0  0  0
  -25.9045  -25.8650   18.9778 H   0  0  0  0  0  0
  -23.9813  -27.3108   18.9740 H   0  0  0  0  0  0
  -23.8102  -30.5729   19.3992 H   0  0  0  0  0  0
  -22.7896  -29.2391   19.8428 H   0  0  0  0  0  0
  -25.1316  -36.1868   25.0809 H   0  0  0  0  0  0
  -21.0022  -28.3313   24.1353 H   0  0  0  0  0  0
  -20.5686  -26.2335   23.3625 H   0  0  0  0  0  0
  -21.6658  -26.7423   22.1202 H   0  0  0  0  0  0
  -19.6920  -25.6283   21.1257 H   0  0  0  0  0  0
  -19.6691  -27.3177   20.6736 H   0  0  0  0  0  0
  -17.4212  -26.6676   21.4036 H   0  0  0  0  0  0
  -18.0343  -26.0079   22.9032 H   0  0  0  0  0  0
  -19.7955  -30.7300   24.2230 H   0  0  0  0  0  0
  -17.5023  -31.6265   24.5165 H   0  0  0  0  0  0
  -15.5365  -30.2969   23.7664 H   0  0  0  0  0  0
  -15.8699  -28.0805   22.7076 H   0  0  0  0  0  0
  -24.5888  -30.7108   25.7740 H   0  0  0  0  0  0
  -24.8889  -32.2949   26.4781 H   0  0  0  0  0  0
  -25.7979  -30.8978   27.0237 H   0  0  0  0  0  0
  -26.3001  -29.6681   24.1303 H   0  0  0  0  0  0
  -27.3961  -29.7250   25.4899 H   0  0  0  0  0  0
  -27.8927  -30.4174   23.9656 H   0  0  0  0  0  0
  -27.2650  -33.3642   26.2044 H   0  0  0  0  0  0
  -28.3889  -32.6872   25.0355 H   0  0  0  0  0  0
  -28.0704  -31.8486   26.5461 H   0  0  0  0  0  0
  -28.2612  -38.0067   24.7470 H   0  0  0  0  0  0
  -28.1046  -36.2597   24.6360 H   0  0  0  0  0  0
  -27.2283  -37.1519   25.8873 H   0  0  0  0  0  0
  -20.9477  -29.8763   21.6786 H   0  0  0  0  0  0
  -26.0164  -38.2818   24.1361 H   0  0  0  0  0  0
  -31.1302  -20.7013   20.4938 H   0  0  0  0  0  0
  -31.6119  -18.2747   20.6419 H   0  0  0  0  0  0
  -26.9705  -19.8057   20.0355 H   0  0  0  0  0  0
  -27.0130  -24.4341   20.5243 H   0  0  0  0  0  0
  -27.6767  -24.5464   18.9172 H   0  0  0  0  0  0
  -27.5204  -22.0610   19.8323 H   0  0  0  0  0  0
  -28.7156  -15.6558   20.7243 H   0  0  0  0  0  0
  1 25  1  0  0  0
  1 30  2  0  0  0
  1 80  1  0  0  0
  2  3  1  0  0  0
  2 25  1  0  0  0
  2 83  1  0  0  0
  2 84  1  0  0  0
  3  4  1  0  0  0
  3 85  1  0  0  0
  3 86  1  0  0  0
  4  5  1  0  0  0
  4 87  1  0  0  0
  4 88  1  0  0  0
  5  6  1  0  0  0
  5 26  1  0  0  0
  5 89  1  0  0  0
  6 25  1  0  0  0
  6 90  1  0  0  0
  6 91  1  0  0  0
  7  8  2  0  0  0
  7 26  1  0  0  0
  7 29  1  0  0  0
  8  9  1  0  0  0
  8 22  1  0  0  0
  9 10  1  0  0  0
  9 27  2  0  0  0
 10 11  2  0  0  0
 10 15  1  0  0  0
 11 12  1  0  0  0
 11 92  1  0  0  0
 12 13  2  0  0  0
 12 93  1  0  0  0
 13 14  1  0  0  0
 13 31  1  0  0  0
 14 15  2  0  0  0
 14 94  1  0  0  0
 15 95  1  0  0  0
 16 17  2  0  0  0
 16 21  1  0  0  0
 16 31  1  0  0  0
 17 18  1  0  0  0
 17 96  1  0  0  0
 18 19  2  0  0  0
 18 97  1  0  0  0
 19 20  1  0  0  0
 19 24  1  0  0  0
 20 21  2  0  0  0
 20 98  1  0  0  0
 21 23  1  0  0  0
 22 28  1  0  0  0
 22 32  2  0  0  0
 26 27  1  0  0  0
 28 99  1  0  0  0
 28100  1  0  0  0
 29101  1  0  0  0
 29102  1  0  0  0
 33 34  1  0  0  0
 33 66  1  0  0  0
 33 70  2  0  0  0
 34 36  1  0  0  0
 34 59  1  0  0  0
 34103  1  0  0  0
 35 44  2  0  0  0
 35 45  1  0  0  0
 35 68  1  0  0  0
 36 56  1  0  0  0
 36104  1  0  0  0
 37 39  1  0  0  0
 37 47  1  0  0  0
 37 66  1  0  0  0
 37105  1  0  0  0
 38 43  2  0  0  0
 38 46  1  0  0  0
 38 47  1  0  0  0
 39 64  1  0  0  0
 39 67  2  0  0  0
 40 52  1  0  0  0
 40 53  2  0  0  0
 40 58  1  0  0  0
 41106  1  0  0  0
 41107  1  0  0  0
 41108  1  0  0  0
 41 48  1  0  0  0
 42 43  1  0  0  0
 42 66  1  0  0  0
 42109  1  0  0  0
 42110  1  0  0  0
 43 44  1  0  0  0
 44111  1  0  0  0
 45 46  2  0  0  0
 45112  1  0  0  0
 46113  1  0  0  0
 47114  1  0  0  0
 47115  1  0  0  0
 48 56  1  0  0  0
 48 65  1  0  0  0
 48116  1  0  0  0
 49 50  1  0  0  0
 49 53  1  0  0  0
 49 64  1  0  0  0
 49117  1  0  0  0
 50 51  1  0  0  0
 50118  1  0  0  0
 50119  1  0  0  0
 51 52  1  0  0  0
 51120  1  0  0  0
 51121  1  0  0  0
 52122  1  0  0  0
 52123  1  0  0  0
 53 54  1  0  0  0
 54 55  2  0  0  0
 54124  1  0  0  0
 55 57  1  0  0  0
 55125  1  0  0  0
 56 69  2  0  0  0
 57 58  2  0  0  0
 57126  1  0  0  0
 58127  1  0  0  0
 59 60  1  0  0  0
 59 61  1  0  0  0
 59 62  1  0  0  0
 60128  1  0  0  0
 60129  1  0  0  0
 60130  1  0  0  0
 61131  1  0  0  0
 61132  1  0  0  0
 61133  1  0  0  0
 62134  1  0  0  0
 62135  1  0  0  0
 62136  1  0  0  0
 63 65  1  0  0  0
 63137  1  0  0  0
 63138  1  0  0  0
 63139  1  0  0  0
 64140  1  0  0  0
 65141  1  0  0  0
 68 78  1  0  0  0
 71 72  2  0  0  0
 71 74  1  0  0  0
 71142  1  0  0  0
 72 75  1  0  0  0
 72143  1  0  0  0
 73 74  2  0  0  0
 73 76  1  0  0  0
 73144  1  0  0  0
 74 79  1  0  0  0
 75 76  2  0  0  0
 75 80  1  0  0  0
 76 82  1  0  0  0
 77 78  1  0  0  0
 77 79  1  0  0  0
 77 81  2  0  0  0
 78145  1  0  0  0
 78146  1  0  0  0
 79147  1  0  0  0
 80148  1  0  0  0
M  ISO  4   1 100  68 101  78 101  80 100
M  END
> <chiral flag>
0

> <version>
0

> <s_m_source_file>
/data/baiqing/PycharmProjects/Reinvent-master-3.2/result/LINK_invent/BTK/process_docking_weight1_custom_sum_contain_oxygen_bond_distance_aromatic_linkinvent_7_9_3/rearranged_h_0009.sdf

> <i_m_source_file_index>
1

> <r_mmod_Potential_Energy-OPLS-2005>
393.216552734375

> <r_mmod_Stretch_Energy-OPLS-2005>
217.871948242188

> <r_mmod_Bend_Energy-OPLS-2005>
284.265167236328

> <r_mmod_Torsional_Energy-OPLS-2005>
220.855941772461

> <r_mmod_Improper_Torsional_Energy-OPLS-2005>
4.66032266616821

> <r_mmod_Van_der_Waal_Energy-OPLS-2005>
131.992782592773

> <r_mmod_Electrostatic_Energy-OPLS-2005>
-408.452697753906

> <r_mmod_Solvation_Energy-OPLS-2005>
-240.841186523438

> <b_mmod_Minimization_Converged-OPLS-2005>
0

> <r_mmod_RMS_Derivative-OPLS-2005>
0.679981827735901

$$$$
1
                    3D
 Structure written by MMmdl.
161169  0  0  1  0            999 V2000
  -30.7086  -14.4170   20.6540 C   0  0  0  0  0  0
  -30.4337  -12.3038   19.3980 C   0  0  0  0  0  0
  -29.4934  -12.5267   18.1957 C   0  0  0  0  0  0
  -28.0152  -12.3809   18.6093 C   0  0  0  0  0  0
  -27.6692  -13.1972   19.8823 C   0  0  2  0  0  0
  -28.7071  -12.9180   20.9909 C   0  0  0  0  0  0
  -25.2613  -13.8138   20.5644 C   0  0  0  0  0  0
  -24.1848  -13.0435   20.9150 C   0  0  0  0  0  0
  -24.6388  -11.6898   20.8716 C   0  0  0  0  0  0
  -23.9047  -10.4292   21.0394 C   0  0  0  0  0  0
  -24.3599   -9.4213   21.9177 C   0  0  0  0  0  0
  -23.6278   -8.2248   22.0755 C   0  0  0  0  0  0
  -22.4260   -8.0281   21.3547 C   0  0  0  0  0  0
  -21.9890   -9.0253   20.4650 C   0  0  0  0  0  0
  -22.7217  -10.2133   20.3052 C   0  0  0  0  0  0
  -21.6855   -6.0729   22.5275 C   0  0  0  0  0  0
  -21.4014   -6.5632   23.8207 C   0  0  0  0  0  0
  -21.3659   -5.6789   24.9172 C   0  0  0  0  0  0
  -21.6045   -4.3051   24.7225 C   0  0  0  0  0  0
  -21.8819   -3.8141   23.4346 C   0  0  0  0  0  0
  -21.9193   -4.6957   22.3402 C   0  0  0  0  0  0
  -22.7876  -13.5253   21.1821 C   0  0  0  0  0  0
  -22.1663   -4.2141   21.0980 F   0  0  0  0  0  0
  -21.5626   -3.4537   25.7739 F   0  0  0  0  0  0
  -30.0480  -13.2431   20.4605 N   0  0  0  0  0  0
  -26.3059  -12.9294   20.3383 N   0  0  0  0  0  0
  -25.9313  -11.6462   20.5752 N   0  0  0  0  0  0
  -22.0511  -12.8262   22.0386 N   0  0  0  0  0  0
  -25.4327  -15.1847   20.4015 N   0  0  0  0  0  0
  -31.7676  -14.6990   20.0832 O   0  0  0  0  0  0
  -21.6635   -6.8871   21.4238 O   0  0  0  0  0  0
  -22.3574  -14.5570   20.6684 O   0  0  0  0  0  0
  -24.6116  -31.8696   23.2116 C   0  0  0  0  0  0
  -25.9016  -32.4835   23.8406 C   0  0  1  0  0  0
  -27.2381  -27.4540   20.0980 C   0  0  0  0  0  0
  -25.5875  -33.8630   24.2335 N   0  0  0  0  0  0
  -23.3999  -30.4912   21.5518 C   0  0  2  0  0  0
  -24.8487  -28.9544   20.1216 C   0  0  0  0  0  0
  -22.7395  -29.4660   22.5006 C   0  0  0  0  0  0
  -18.0268  -28.1374   22.8498 C   0  0  0  0  0  0
  -24.1477  -36.7322   23.2641 C   0  0  0  0  0  0
  -25.9255  -30.8386   21.3637 C   0  0  0  0  0  0
  -26.0048  -29.4700   20.7223 C   0  0  0  0  0  0
  -27.2038  -28.7236   20.7164 C   0  0  0  0  0  0
  -26.0727  -26.9491   19.4900 C   0  0  0  0  0  0
  -24.8748  -27.6891   19.5075 C   0  0  0  0  0  0
  -23.6093  -29.8198   20.1677 C   0  0  0  0  0  0
  -25.4100  -36.3124   24.0342 C   0  0  1  0  0  0
  -20.5856  -28.3652   23.1324 C   0  0  2  0  0  0
  -20.6752  -26.9390   22.5420 C   0  0  0  0  0  0
  -19.5733  -26.6385   21.5210 C   0  0  0  0  0  0
  -18.1912  -26.7922   22.1623 C   0  0  0  0  0  0
  -19.1519  -28.8832   23.2906 C   0  0  0  0  0  0
  -18.9448  -30.1441   23.8912 C   0  0  0  0  0  0
  -17.6450  -30.6580   24.0571 C   0  0  0  0  0  0
  -25.9028  -34.9485   23.5141 C   0  0  0  0  0  0
  -16.5340  -29.9084   23.6332 C   0  0  0  0  0  0
  -16.7258  -28.6501   23.0351 C   0  0  0  0  0  0
  -26.4455  -31.6609   25.0726 C   0  0  0  0  0  0
  -25.3727  -31.3709   26.1483 C   0  0  0  0  0  0
  -27.0283  -30.3056   24.6084 C   0  0  0  0  0  0
  -27.6039  -32.4327   25.7477 C   0  0  0  0  0  0
  -27.5577  -37.1815   24.8467 C   0  0  0  0  0  0
  -21.4127  -29.3019   22.3731 N   0  0  0  0  0  0
  -26.4289  -37.3804   23.9413 N   0  0  0  0  0  0
  -24.6638  -31.0808   22.1013 N   0  0  0  0  0  0
  -23.4173  -28.8207   23.3049 O   0  0  0  0  0  0
  -28.3935  -26.7176   20.0107 O   0  0  0  0  0  0
  -26.5599  -34.8933   22.4709 O   0  0  0  0  0  0
  -23.5313  -32.1437   23.7522 O   0  0  0  0  0  0
  -31.1358  -18.8677   21.5252 C   0  0  0  0  0  0
  -31.2001  -17.4770   21.2899 C   0  0  0  0  0  0
  -28.9007  -18.6151   22.4520 C   0  0  0  0  0  0
  -29.9886  -19.4498   22.1104 C   0  0  0  0  0  0
  -30.1133  -16.6477   21.6516 C   0  0  0  0  0  0
  -28.9570  -17.2158   22.2316 C   0  0  0  0  0  0
  -29.9745  -20.9094   22.4876 C   0  0  0  0  0  0
  -26.7538  -16.8725   23.1431 C   0  0  0  0  0  0
  -29.0188  -24.0768   22.6827 C   0  0  0  0  0  0
  -28.4040  -24.7223   21.4266 C   0  0  0  0  0  0
  -28.3940  -22.7317   23.1169 C   0  0  0  0  0  0
  -28.8864  -26.1762   21.2329 C   0  0  0  0  0  0
  -30.0986  -15.2326   21.5267 N   0  0  0  0  0  0
  -28.8034  -21.5515   22.3492 N   0  0  0  0  0  0
  -30.9876  -21.4471   22.9380 O   0  0  0  0  0  0
  -27.9414  -16.3426   22.5685 O   0  0  0  0  0  0
  -31.4747  -12.4270   19.0933 H   0  0  0  0  0  0
  -30.3524  -11.2786   19.7621 H   0  0  0  0  0  0
  -29.7293  -11.8211   17.3982 H   0  0  0  0  0  0
  -29.6597  -13.5223   17.7807 H   0  0  0  0  0  0
  -27.8216  -11.3224   18.7862 H   0  0  0  0  0  0
  -27.3639  -12.6749   17.7856 H   0  0  0  0  0  0
  -27.7315  -14.2533   19.6193 H   0  0  0  0  0  0
  -28.6792  -11.8635   21.2695 H   0  0  0  0  0  0
  -28.4455  -13.4515   21.9052 H   0  0  0  0  0  0
  -25.2742   -9.5693   22.4753 H   0  0  0  0  0  0
  -23.9987   -7.4643   22.7476 H   0  0  0  0  0  0
  -21.0820   -8.8769   19.8960 H   0  0  0  0  0  0
  -22.3668  -10.9670   19.6162 H   0  0  0  0  0  0
  -21.2005   -7.6140   23.9708 H   0  0  0  0  0  0
  -21.1482   -6.0519   25.9074 H   0  0  0  0  0  0
  -22.0598   -2.7603   23.2851 H   0  0  0  0  0  0
  -22.4108  -11.9920   22.4779 H   0  0  0  0  0  0
  -21.1136  -13.1311   22.2587 H   0  0  0  0  0  0
  -24.6679  -15.8418   20.5046 H   0  0  0  0  0  0
  -26.3014  -15.6245   20.1251 H   0  0  0  0  0  0
  -26.7090  -32.5564   23.1178 H   0  0  0  0  0  0
  -25.0001  -33.9792   25.0463 H   0  0  0  0  0  0
  -22.6879  -31.3072   21.4113 H   0  0  0  0  0  0
  -23.3733  -35.9664   23.3326 H   0  0  0  0  0  0
  -24.3563  -36.8914   22.2050 H   0  0  0  0  0  0
  -23.7234  -37.6537   23.6640 H   0  0  0  0  0  0
  -26.0313  -31.5989   20.5884 H   0  0  0  0  0  0
  -26.8162  -30.8997   21.9773 H   0  0  0  0  0  0
  -28.1016  -29.1245   21.1654 H   0  0  0  0  0  0
  -26.0961  -25.9841   19.0033 H   0  0  0  0  0  0
  -23.9871  -27.2865   19.0394 H   0  0  0  0  0  0
  -23.7178  -30.5924   19.4057 H   0  0  0  0  0  0
  -22.7338  -29.2379   19.8738 H   0  0  0  0  0  0
  -25.1270  -36.1999   25.0834 H   0  0  0  0  0  0
  -20.9950  -28.3218   24.1444 H   0  0  0  0  0  0
  -20.5644  -26.2258   23.3603 H   0  0  0  0  0  0
  -21.6625  -26.7426   22.1220 H   0  0  0  0  0  0
  -19.6891  -25.6303   21.1221 H   0  0  0  0  0  0
  -19.6674  -27.3209   20.6752 H   0  0  0  0  0  0
  -17.4181  -26.6677   21.4025 H   0  0  0  0  0  0
  -18.0312  -26.0054   22.9009 H   0  0  0  0  0  0
  -19.7925  -30.7254   24.2280 H   0  0  0  0  0  0
  -17.5008  -31.6261   24.5172 H   0  0  0  0  0  0
  -15.5343  -30.2991   23.7652 H   0  0  0  0  0  0
  -15.8655  -28.0827   22.7060 H   0  0  0  0  0  0
  -24.5885  -30.7073   25.7822 H   0  0  0  0  0  0
  -24.8934  -32.2863   26.4965 H   0  0  0  0  0  0
  -25.8084  -30.8854   27.0225 H   0  0  0  0  0  0
  -26.2819  -29.6821   24.1147 H   0  0  0  0  0  0
  -27.4068  -29.7288   25.4534 H   0  0  0  0  0  0
  -27.8647  -30.4380   23.9215 H   0  0  0  0  0  0
  -27.2660  -33.3605   26.2104 H   0  0  0  0  0  0
  -28.3814  -32.6926   25.0281 H   0  0  0  0  0  0
  -28.0748  -31.8426   26.5348 H   0  0  0  0  0  0
  -28.2618  -38.0091   24.7504 H   0  0  0  0  0  0
  -28.1047  -36.2625   24.6302 H   0  0  0  0  0  0
  -27.2298  -37.1488   25.8872 H   0  0  0  0  0  0
  -20.9289  -29.8729   21.6942 H   0  0  0  0  0  0
  -26.0184  -38.2888   24.1412 H   0  0  0  0  0  0
  -31.9862  -19.4885   21.2785 H   0  0  0  0  0  0
  -32.1015  -17.0624   20.8625 H   0  0  0  0  0  0
  -28.0411  -19.0619   22.9283 H   0  0  0  0  0  0
  -26.2662  -17.5817   22.4729 H   0  0  0  0  0  0
  -26.9532  -17.3564   24.0998 H   0  0  0  0  0  0
  -26.0507  -16.0600   23.3281 H   0  0  0  0  0  0
  -28.8811  -24.7732   23.5113 H   0  0  0  0  0  0
  -30.0983  -23.9790   22.5648 H   0  0  0  0  0  0
  -27.3161  -24.7163   21.5021 H   0  0  0  0  0  0
  -28.6562  -24.1248   20.5499 H   0  0  0  0  0  0
  -27.3060  -22.8022   23.0899 H   0  0  0  0  0  0
  -28.6441  -22.5507   24.1643 H   0  0  0  0  0  0
  -29.9757  -26.1959   21.1866 H   0  0  0  0  0  0
  -28.6061  -26.7897   22.0915 H   0  0  0  0  0  0
  -29.2897  -14.8121   21.9596 H   0  0  0  0  0  0
  -28.0650  -21.0343   21.8914 H   0  0  0  0  0  0
  1 25  1  0  0  0
  1 30  2  0  0  0
  1 83  1  0  0  0
  2  3  1  0  0  0
  2 25  1  0  0  0
  2 87  1  0  0  0
  2 88  1  0  0  0
  3  4  1  0  0  0
  3 89  1  0  0  0
  3 90  1  0  0  0
  4  5  1  0  0  0
  4 91  1  0  0  0
  4 92  1  0  0  0
  5  6  1  0  0  0
  5 26  1  0  0  0
  5 93  1  0  0  0
  6 25  1  0  0  0
  6 94  1  0  0  0
  6 95  1  0  0  0
  7  8  2  0  0  0
  7 26  1  0  0  0
  7 29  1  0  0  0
  8  9  1  0  0  0
  8 22  1  0  0  0
  9 10  1  0  0  0
  9 27  2  0  0  0
 10 11  2  0  0  0
 10 15  1  0  0  0
 11 12  1  0  0  0
 11 96  1  0  0  0
 12 13  2  0  0  0
 12 97  1  0  0  0
 13 14  1  0  0  0
 13 31  1  0  0  0
 14 15  2  0  0  0
 14 98  1  0  0  0
 15 99  1  0  0  0
 16 17  2  0  0  0
 16 21  1  0  0  0
 16 31  1  0  0  0
 17 18  1  0  0  0
 17100  1  0  0  0
 18 19  2  0  0  0
 18101  1  0  0  0
 19 20  1  0  0  0
 19 24  1  0  0  0
 20 21  2  0  0  0
 20102  1  0  0  0
 21 23  1  0  0  0
 22 28  1  0  0  0
 22 32  2  0  0  0
 26 27  1  0  0  0
 28103  1  0  0  0
 28104  1  0  0  0
 29105  1  0  0  0
 29106  1  0  0  0
 33 34  1  0  0  0
 33 66  1  0  0  0
 33 70  2  0  0  0
 34 36  1  0  0  0
 34 59  1  0  0  0
 34107  1  0  0  0
 35 44  2  0  0  0
 35 45  1  0  0  0
 35 68  1  0  0  0
 36 56  1  0  0  0
 36108  1  0  0  0
 37 39  1  0  0  0
 37 47  1  0  0  0
 37 66  1  0  0  0
 37109  1  0  0  0
 38 43  2  0  0  0
 38 46  1  0  0  0
 38 47  1  0  0  0
 39 64  1  0  0  0
 39 67  2  0  0  0
 40 52  1  0  0  0
 40 53  2  0  0  0
 40 58  1  0  0  0
 41110  1  0  0  0
 41111  1  0  0  0
 41112  1  0  0  0
 41 48  1  0  0  0
 42 43  1  0  0  0
 42 66  1  0  0  0
 42113  1  0  0  0
 42114  1  0  0  0
 43 44  1  0  0  0
 44115  1  0  0  0
 45 46  2  0  0  0
 45116  1  0  0  0
 46117  1  0  0  0
 47118  1  0  0  0
 47119  1  0  0  0
 48 56  1  0  0  0
 48 65  1  0  0  0
 48120  1  0  0  0
 49 50  1  0  0  0
 49 53  1  0  0  0
 49 64  1  0  0  0
 49121  1  0  0  0
 50 51  1  0  0  0
 50122  1  0  0  0
 50123  1  0  0  0
 51 52  1  0  0  0
 51124  1  0  0  0
 51125  1  0  0  0
 52126  1  0  0  0
 52127  1  0  0  0
 53 54  1  0  0  0
 54 55  2  0  0  0
 54128  1  0  0  0
 55 57  1  0  0  0
 55129  1  0  0  0
 56 69  2  0  0  0
 57 58  2  0  0  0
 57130  1  0  0  0
 58131  1  0  0  0
 59 60  1  0  0  0
 59 61  1  0  0  0
 59 62  1  0  0  0
 60132  1  0  0  0
 60133  1  0  0  0
 60134  1  0  0  0
 61135  1  0  0  0
 61136  1  0  0  0
 61137  1  0  0  0
 62138  1  0  0  0
 62139  1  0  0  0
 62140  1  0  0  0
 63 65  1  0  0  0
 63141  1  0  0  0
 63142  1  0  0  0
 63143  1  0  0  0
 64144  1  0  0  0
 65145  1  0  0  0
 68 82  1  0  0  0
 71 72  2  0  0  0
 71 74  1  0  0  0
 71146  1  0  0  0
 72 75  1  0  0  0
 72147  1  0  0  0
 73 74  2  0  0  0
 73 76  1  0  0  0
 73148  1  0  0  0
 74 77  1  0  0  0
 75 76  2  0  0  0
 75 83  1  0  0  0
 76 86  1  0  0  0
 77 84  1  0  0  0
 77 85  2  0  0  0
 78 86  1  0  0  0
 78149  1  0  0  0
 78150  1  0  0  0
 78151  1  0  0  0
 79 80  1  0  0  0
 79 81  1  0  0  0
 79152  1  0  0  0
 79153  1  0  0  0
 80 82  1  0  0  0
 80154  1  0  0  0
 80155  1  0  0  0
 81 84  1  0  0  0
 81156  1  0  0  0
 81157  1  0  0  0
 82158  1  0  0  0
 82159  1  0  0  0
 83160  1  0  0  0
 84161  1  0  0  0
M  ISO  4   1 100  68 101  82 101  83 100
M  END
> <chiral flag>
0

> <version>
0

> <s_m_source_file>
/data/baiqing/PycharmProjects/Reinvent-master-3.2/result/LINK_invent/BTK/process_docking_weight1_custom_sum_contain_oxygen_bond_distance_aromatic_linkinvent_7_9_3/rearranged_h_0009.sdf

> <i_m_source_file_index>
2

> <r_mmod_Potential_Energy-OPLS-2005>
-148.996078491211

> <r_mmod_Stretch_Energy-OPLS-2005>
34.6458549499512

> <r_mmod_Bend_Energy-OPLS-2005>
110.10863494873

> <r_mmod_Torsional_Energy-OPLS-2005>
252.735198974609

> <r_mmod_Improper_Torsional_Energy-OPLS-2005>
4.62695455551147

> <r_mmod_Van_der_Waal_Energy-OPLS-2005>
153.373291015625

> <r_mmod_Electrostatic_Energy-OPLS-2005>
-484.030120849609

> <r_mmod_Solvation_Energy-OPLS-2005>
-228.097778320312

> <b_mmod_Minimization_Converged-OPLS-2005>
0

> <r_mmod_RMS_Derivative-OPLS-2005>
0.795904755592346

$$$$
2
                    3D
 Structure written by MMmdl.
148156  0  0  1  0            999 V2000
  -30.5173  -15.0245   20.4070 C   0  0  0  0  0  0
  -30.4305  -12.6381   19.5159 C   0  0  0  0  0  0
  -29.5242  -12.5687   18.2637 C   0  0  0  0  0  0
  -28.0615  -12.3279   18.6785 C   0  0  0  0  0  0
  -27.6257  -13.2587   19.8408 C   0  0  2  0  0  0
  -28.6602  -13.3226   20.9832 C   0  0  0  0  0  0
  -25.2432  -13.8217   20.5684 C   0  0  0  0  0  0
  -24.1769  -13.0447   20.9213 C   0  0  0  0  0  0
  -24.6390  -11.6930   20.8734 C   0  0  0  0  0  0
  -23.9063  -10.4312   21.0378 C   0  0  0  0  0  0
  -24.3624   -9.4226   21.9155 C   0  0  0  0  0  0
  -23.6319   -8.2243   22.0737 C   0  0  0  0  0  0
  -22.4282   -8.0281   21.3552 C   0  0  0  0  0  0
  -21.9919   -9.0231   20.4625 C   0  0  0  0  0  0
  -22.7227  -10.2119   20.3032 C   0  0  0  0  0  0
  -21.6866   -6.0732   22.5279 C   0  0  0  0  0  0
  -21.4022   -6.5643   23.8207 C   0  0  0  0  0  0
  -21.3659   -5.6791   24.9168 C   0  0  0  0  0  0
  -21.6056   -4.3055   24.7226 C   0  0  0  0  0  0
  -21.8814   -3.8147   23.4342 C   0  0  0  0  0  0
  -21.9196   -4.6960   22.3400 C   0  0  0  0  0  0
  -22.7793  -13.5209   21.1883 C   0  0  0  0  0  0
  -22.1664   -4.2153   21.0973 F   0  0  0  0  0  0
  -21.5628   -3.4535   25.7729 F   0  0  0  0  0  0
  -29.9297  -13.7511   20.3840 N   0  0  0  0  0  0
  -26.2868  -12.9467   20.3236 N   0  0  0  0  0  0
  -25.9327  -11.6591   20.5726 N   0  0  0  0  0  0
  -22.0456  -12.8184   22.0427 N   0  0  0  0  0  0
  -25.4092  -15.1928   20.4035 N   0  0  0  0  0  0
  -31.7277  -15.0427   20.1628 O   0  0  0  0  0  0
  -21.6661   -6.8866   21.4238 O   0  0  0  0  0  0
  -22.3477  -14.5511   20.6716 O   0  0  0  0  0  0
  -24.6479  -31.8414   23.1866 C   0  0  0  0  0  0
  -25.9227  -32.4682   23.8294 C   0  0  1  0  0  0
  -27.2096  -27.0718   20.1810 C   0  0  0  0  0  0
  -25.5947  -33.8490   24.2193 N   0  0  0  0  0  0
  -23.4583  -30.4575   21.5287 C   0  0  2  0  0  0
  -24.9092  -28.8715   20.1157 C   0  0  0  0  0  0
  -22.7604  -29.4546   22.4834 C   0  0  0  0  0  0
  -18.0311  -28.1414   22.8462 C   0  0  0  0  0  0
  -24.1496  -36.7254   23.2635 C   0  0  0  0  0  0
  -26.0177  -30.6923   21.3994 C   0  0  0  0  0  0
  -26.0861  -29.2954   20.7447 C   0  0  0  0  0  0
  -27.2391  -28.4139   20.7550 C   0  0  0  0  0  0
  -26.0134  -26.7714   19.4952 C   0  0  0  0  0  0
  -24.8898  -27.6275   19.4696 C   0  0  0  0  0  0
  -23.6926  -29.7834   20.1499 C   0  0  0  0  0  0
  -25.4125  -36.3028   24.0315 C   0  0  1  0  0  0
  -20.5928  -28.3764   23.1207 C   0  0  2  0  0  0
  -20.6794  -26.9464   22.5397 C   0  0  0  0  0  0
  -19.5778  -26.6398   21.5197 C   0  0  0  0  0  0
  -18.1951  -26.7958   22.1608 C   0  0  0  0  0  0
  -19.1566  -28.8903   23.2820 C   0  0  0  0  0  0
  -18.9475  -30.1481   23.8882 C   0  0  0  0  0  0
  -17.6468  -30.6603   24.0567 C   0  0  0  0  0  0
  -25.9077  -34.9396   23.5067 C   0  0  0  0  0  0
  -16.5359  -29.9101   23.6327 C   0  0  0  0  0  0
  -16.7286  -28.6512   23.0353 C   0  0  0  0  0  0
  -26.4519  -31.6576   25.0755 C   0  0  0  0  0  0
  -25.3661  -31.3788   26.1412 C   0  0  0  0  0  0
  -27.0366  -30.2957   24.6394 C   0  0  0  0  0  0
  -27.6068  -32.4342   25.7522 C   0  0  0  0  0  0
  -27.5593  -37.1785   24.8449 C   0  0  0  0  0  0
  -21.4292  -29.3084   22.3580 N   0  0  0  0  0  0
  -26.4285  -37.3747   23.9412 N   0  0  0  0  0  0
  -24.7270  -31.0220   22.0918 N   0  0  0  0  0  0
  -23.4224  -28.8066   23.2992 O   0  0  0  0  0  0
  -28.2412  -26.0486   20.2342 O   0  0  0  0  0  0
  -26.5668  -34.8905   22.4654 O   0  0  0  0  0  0
  -23.5571  -32.1291   23.7038 O   0  0  0  0  0  0
  -30.3359  -20.5158   19.2214 C   0  0  0  0  0  0
  -31.0773  -19.4090   18.7526 C   0  0  0  0  0  0
  -29.1535  -18.9544   20.6477 C   0  0  0  0  0  0
  -29.9264  -17.7414   20.1882 C   0  0  0  0  0  0
  -29.3260  -20.3839   20.1948 C   0  0  0  0  0  0
  -30.8865  -18.0785   19.1971 C   0  0  0  0  0  0
  -27.9313  -24.5083   20.4638 C   0  0  0  0  0  0
  -28.8668  -23.0981   20.1508 C   0  0  0  0  0  0
  -29.7452  -16.2334   20.5727 N   0  0  0  0  0  0
  -28.5955  -21.6090   20.6018 O   0  0  0  0  0  0
  -31.6233  -17.1223   18.5892 F   0  0  0  0  0  0
  -31.4669  -12.7924   19.2157 H   0  0  0  0  0  0
  -30.4127  -11.6880   20.0528 H   0  0  0  0  0  0
  -29.8599  -11.7843   17.5880 H   0  0  0  0  0  0
  -29.6000  -13.5043   17.7054 H   0  0  0  0  0  0
  -27.9734  -11.2872   18.9912 H   0  0  0  0  0  0
  -27.3941  -12.4477   17.8224 H   0  0  0  0  0  0
  -27.5766  -14.2590   19.4067 H   0  0  0  0  0  0
  -28.7594  -12.3610   21.4867 H   0  0  0  0  0  0
  -28.3423  -14.0374   21.7453 H   0  0  0  0  0  0
  -25.2751   -9.5730   22.4759 H   0  0  0  0  0  0
  -24.0027   -7.4648   22.7464 H   0  0  0  0  0  0
  -21.0846   -8.8746   19.8939 H   0  0  0  0  0  0
  -22.3659  -10.9667   19.6172 H   0  0  0  0  0  0
  -21.2020   -7.6154   23.9717 H   0  0  0  0  0  0
  -21.1489   -6.0520   25.9075 H   0  0  0  0  0  0
  -22.0594   -2.7617   23.2835 H   0  0  0  0  0  0
  -22.4087  -11.9848   22.4828 H   0  0  0  0  0  0
  -21.1085  -13.1189   22.2621 H   0  0  0  0  0  0
  -24.6318  -15.8393   20.4685 H   0  0  0  0  0  0
  -26.2445  -15.6210   20.0289 H   0  0  0  0  0  0
  -26.7288  -32.5278   23.1025 H   0  0  0  0  0  0
  -25.0101  -33.9615   25.0339 H   0  0  0  0  0  0
  -22.7620  -31.2830   21.3688 H   0  0  0  0  0  0
  -23.3782  -35.9563   23.3246 H   0  0  0  0  0  0
  -24.3594  -36.8937   22.2061 H   0  0  0  0  0  0
  -23.7213  -37.6420   23.6703 H   0  0  0  0  0  0
  -26.1836  -31.4404   20.6236 H   0  0  0  0  0  0
  -26.8825  -30.7484   22.0482 H   0  0  0  0  0  0
  -28.1351  -28.7305   21.2719 H   0  0  0  0  0  0
  -25.9141  -25.8321   18.9741 H   0  0  0  0  0  0
  -23.9978  -27.3052   18.9509 H   0  0  0  0  0  0
  -23.8470  -30.5557   19.3958 H   0  0  0  0  0  0
  -22.8057  -29.2323   19.8319 H   0  0  0  0  0  0
  -25.1317  -36.1869   25.0806 H   0  0  0  0  0  0
  -20.9996  -28.3344   24.1334 H   0  0  0  0  0  0
  -20.5661  -26.2379   23.3614 H   0  0  0  0  0  0
  -21.6653  -26.7459   22.1203 H   0  0  0  0  0  0
  -19.6939  -25.6280   21.1269 H   0  0  0  0  0  0
  -19.6712  -27.3155   20.6676 H   0  0  0  0  0  0
  -17.4217  -26.6672   21.4013 H   0  0  0  0  0  0
  -18.0378  -26.0106   22.9014 H   0  0  0  0  0  0
  -19.7936  -30.7294   24.2271 H   0  0  0  0  0  0
  -17.5016  -31.6282   24.5173 H   0  0  0  0  0  0
  -15.5355  -30.3004   23.7666 H   0  0  0  0  0  0
  -15.8681  -28.0821   22.7114 H   0  0  0  0  0  0
  -24.5885  -30.7092   25.7712 H   0  0  0  0  0  0
  -24.8767  -32.2949   26.4730 H   0  0  0  0  0  0
  -25.7880  -30.9033   27.0272 H   0  0  0  0  0  0
  -26.2972  -29.6691   24.1384 H   0  0  0  0  0  0
  -27.3896  -29.7283   25.5018 H   0  0  0  0  0  0
  -27.8941  -30.4158   23.9771 H   0  0  0  0  0  0
  -27.2710  -33.3690   26.2039 H   0  0  0  0  0  0
  -28.3906  -32.6834   25.0347 H   0  0  0  0  0  0
  -28.0719  -31.8501   26.5479 H   0  0  0  0  0  0
  -28.2568  -38.0127   24.7572 H   0  0  0  0  0  0
  -28.1149  -36.2673   24.6189 H   0  0  0  0  0  0
  -27.2341  -37.1311   25.8855 H   0  0  0  0  0  0
  -20.9510  -29.8801   21.6751 H   0  0  0  0  0  0
  -26.0166  -38.2823   24.1425 H   0  0  0  0  0  0
  -30.5553  -21.4839   18.7976 H   0  0  0  0  0  0
  -31.8170  -19.5852   17.9858 H   0  0  0  0  0  0
  -28.3839  -18.7769   21.3866 H   0  0  0  0  0  0
  -27.7102  -24.4705   21.5309 H   0  0  0  0  0  0
  -26.9665  -24.2958   20.0064 H   0  0  0  0  0  0
  -29.8730  -23.3106   20.5136 H   0  0  0  0  0  0
  -28.9635  -23.0608   19.0659 H   0  0  0  0  0  0
  -28.8235  -16.0339   20.9287 H   0  0  0  0  0  0
  1 25  1  0  0  0
  1 30  2  0  0  0
  1 79  1  0  0  0
  2  3  1  0  0  0
  2 25  1  0  0  0
  2 82  1  0  0  0
  2 83  1  0  0  0
  3  4  1  0  0  0
  3 84  1  0  0  0
  3 85  1  0  0  0
  4  5  1  0  0  0
  4 86  1  0  0  0
  4 87  1  0  0  0
  5  6  1  0  0  0
  5 26  1  0  0  0
  5 88  1  0  0  0
  6 25  1  0  0  0
  6 89  1  0  0  0
  6 90  1  0  0  0
  7  8  2  0  0  0
  7 26  1  0  0  0
  7 29  1  0  0  0
  8  9  1  0  0  0
  8 22  1  0  0  0
  9 10  1  0  0  0
  9 27  2  0  0  0
 10 11  2  0  0  0
 10 15  1  0  0  0
 11 12  1  0  0  0
 11 91  1  0  0  0
 12 13  2  0  0  0
 12 92  1  0  0  0
 13 14  1  0  0  0
 13 31  1  0  0  0
 14 15  2  0  0  0
 14 93  1  0  0  0
 15 94  1  0  0  0
 16 17  2  0  0  0
 16 21  1  0  0  0
 16 31  1  0  0  0
 17 18  1  0  0  0
 17 95  1  0  0  0
 18 19  2  0  0  0
 18 96  1  0  0  0
 19 20  1  0  0  0
 19 24  1  0  0  0
 20 21  2  0  0  0
 20 97  1  0  0  0
 21 23  1  0  0  0
 22 28  1  0  0  0
 22 32  2  0  0  0
 26 27  1  0  0  0
 28 98  1  0  0  0
 28 99  1  0  0  0
 29100  1  0  0  0
 29101  1  0  0  0
 33 34  1  0  0  0
 33 66  1  0  0  0
 33 70  2  0  0  0
 34 36  1  0  0  0
 34 59  1  0  0  0
 34102  1  0  0  0
 35 44  2  0  0  0
 35 45  1  0  0  0
 35 68  1  0  0  0
 36 56  1  0  0  0
 36103  1  0  0  0
 37 39  1  0  0  0
 37 47  1  0  0  0
 37 66  1  0  0  0
 37104  1  0  0  0
 38 43  2  0  0  0
 38 46  1  0  0  0
 38 47  1  0  0  0
 39 64  1  0  0  0
 39 67  2  0  0  0
 40 52  1  0  0  0
 40 53  2  0  0  0
 40 58  1  0  0  0
 41105  1  0  0  0
 41106  1  0  0  0
 41107  1  0  0  0
 41 48  1  0  0  0
 42 43  1  0  0  0
 42 66  1  0  0  0
 42108  1  0  0  0
 42109  1  0  0  0
 43 44  1  0  0  0
 44110  1  0  0  0
 45 46  2  0  0  0
 45111  1  0  0  0
 46112  1  0  0  0
 47113  1  0  0  0
 47114  1  0  0  0
 48 56  1  0  0  0
 48 65  1  0  0  0
 48115  1  0  0  0
 49 50  1  0  0  0
 49 53  1  0  0  0
 49 64  1  0  0  0
 49116  1  0  0  0
 50 51  1  0  0  0
 50117  1  0  0  0
 50118  1  0  0  0
 51 52  1  0  0  0
 51119  1  0  0  0
 51120  1  0  0  0
 52121  1  0  0  0
 52122  1  0  0  0
 53 54  1  0  0  0
 54 55  2  0  0  0
 54123  1  0  0  0
 55 57  1  0  0  0
 55124  1  0  0  0
 56 69  2  0  0  0
 57 58  2  0  0  0
 57125  1  0  0  0
 58126  1  0  0  0
 59 60  1  0  0  0
 59 61  1  0  0  0
 59 62  1  0  0  0
 60127  1  0  0  0
 60128  1  0  0  0
 60129  1  0  0  0
 61130  1  0  0  0
 61131  1  0  0  0
 61132  1  0  0  0
 62133  1  0  0  0
 62134  1  0  0  0
 62135  1  0  0  0
 63 65  1  0  0  0
 63136  1  0  0  0
 63137  1  0  0  0
 63138  1  0  0  0
 64139  1  0  0  0
 65140  1  0  0  0
 68 77  1  0  0  0
 71 72  2  0  0  0
 71 75  1  0  0  0
 71141  1  0  0  0
 72 76  1  0  0  0
 72142  1  0  0  0
 73 74  1  0  0  0
 73 75  2  0  0  0
 73143  1  0  0  0
 74 76  2  0  0  0
 74 79  1  0  0  0
 75 80  1  0  0  0
 76 81  1  0  0  0
 77 78  1  0  0  0
 77144  1  0  0  0
 77145  1  0  0  0
 78 80  1  0  0  0
 78146  1  0  0  0
 78147  1  0  0  0
 79148  1  0  0  0
M  ISO  4   1 100  68 101  77 101  79 100
M  END
> <chiral flag>
0

> <version>
0

> <s_m_source_file>
/data/baiqing/PycharmProjects/Reinvent-master-3.2/result/LINK_invent/BTK/process_docking_weight1_custom_sum_contain_oxygen_bond_distance_aromatic_linkinvent_7_9_3/rearranged_h_0009.sdf

> <i_m_source_file_index>
3

> <r_mmod_Potential_Energy-OPLS-2005>
633.688171386719

> <r_mmod_Stretch_Energy-OPLS-2005>
333.935974121094

> <r_mmod_Bend_Energy-OPLS-2005>
284.134338378906

> <r_mmod_Torsional_Energy-OPLS-2005>
227.697479248047

> <r_mmod_Improper_Torsional_Energy-OPLS-2005>
3.42818999290466

> <r_mmod_Van_der_Waal_Energy-OPLS-2005>
136.98274230957

> <r_mmod_Electrostatic_Energy-OPLS-2005>
-381.424957275391

> <r_mmod_Solvation_Energy-OPLS-2005>
-221.292602539062

> <b_mmod_Minimization_Converged-OPLS-2005>
0

> <r_mmod_RMS_Derivative-OPLS-2005>
3.83293390274048

$$$$
3
                    3D
 Structure written by MMmdl.
151159  0  0  1  0            999 V2000
  -30.5160  -15.0517   20.4055 C   0  0  0  0  0  0
  -30.4391  -12.6619   19.4997 C   0  0  0  0  0  0
  -29.5200  -12.5259   18.2630 C   0  0  0  0  0  0
  -28.0641  -12.2829   18.6967 C   0  0  0  0  0  0
  -27.6196  -13.2500   19.8238 C   0  0  2  0  0  0
  -28.6601  -13.3463   20.9599 C   0  0  0  0  0  0
  -25.2433  -13.8209   20.5684 C   0  0  0  0  0  0
  -24.1767  -13.0443   20.9245 C   0  0  0  0  0  0
  -24.6380  -11.6923   20.8772 C   0  0  0  0  0  0
  -23.9075  -10.4292   21.0424 C   0  0  0  0  0  0
  -24.3618   -9.4204   21.9202 C   0  0  0  0  0  0
  -23.6289   -8.2238   22.0764 C   0  0  0  0  0  0
  -22.4278   -8.0272   21.3539 C   0  0  0  0  0  0
  -21.9921   -9.0252   20.4638 C   0  0  0  0  0  0
  -22.7257  -10.2135   20.3056 C   0  0  0  0  0  0
  -21.6849   -6.0740   22.5279 C   0  0  0  0  0  0
  -21.4011   -6.5640   23.8216 C   0  0  0  0  0  0
  -21.3655   -5.6792   24.9172 C   0  0  0  0  0  0
  -21.6046   -4.3056   24.7226 C   0  0  0  0  0  0
  -21.8815   -3.8149   23.4345 C   0  0  0  0  0  0
  -21.9192   -4.6967   22.3399 C   0  0  0  0  0  0
  -22.7786  -13.5206   21.1901 C   0  0  0  0  0  0
  -22.1661   -4.2149   21.0980 F   0  0  0  0  0  0
  -21.5628   -3.4538   25.7740 F   0  0  0  0  0  0
  -29.9210  -13.7828   20.3456 N   0  0  0  0  0  0
  -26.2839  -12.9429   20.3201 N   0  0  0  0  0  0
  -25.9304  -11.6566   20.5739 N   0  0  0  0  0  0
  -22.0423  -12.8186   22.0429 N   0  0  0  0  0  0
  -25.4082  -15.1932   20.4046 N   0  0  0  0  0  0
  -31.7331  -15.0721   20.1842 O   0  0  0  0  0  0
  -21.6637   -6.8880   21.4238 O   0  0  0  0  0  0
  -22.3480  -14.5513   20.6741 O   0  0  0  0  0  0
  -24.6490  -31.8384   23.1792 C   0  0  0  0  0  0
  -25.9238  -32.4678   23.8207 C   0  0  1  0  0  0
  -27.2203  -27.0669   20.1704 C   0  0  0  0  0  0
  -25.5958  -33.8474   24.2142 N   0  0  0  0  0  0
  -23.4575  -30.4531   21.5263 C   0  0  2  0  0  0
  -24.9093  -28.8673   20.1101 C   0  0  0  0  0  0
  -22.7601  -29.4503   22.4804 C   0  0  0  0  0  0
  -18.0309  -28.1399   22.8469 C   0  0  0  0  0  0
  -24.1486  -36.7255   23.2645 C   0  0  0  0  0  0
  -26.0146  -30.6950   21.3804 C   0  0  0  0  0  0
  -26.0892  -29.2934   20.7339 C   0  0  0  0  0  0
  -27.2446  -28.4123   20.7448 C   0  0  0  0  0  0
  -26.0140  -26.7631   19.4990 C   0  0  0  0  0  0
  -24.8889  -27.6182   19.4743 C   0  0  0  0  0  0
  -23.6903  -29.7802   20.1474 C   0  0  0  0  0  0
  -25.4111  -36.3027   24.0315 C   0  0  1  0  0  0
  -20.5927  -28.3736   23.1205 C   0  0  2  0  0  0
  -20.6790  -26.9429   22.5385 C   0  0  0  0  0  0
  -19.5763  -26.6404   21.5195 C   0  0  0  0  0  0
  -18.1947  -26.7944   22.1608 C   0  0  0  0  0  0
  -19.1564  -28.8880   23.2838 C   0  0  0  0  0  0
  -18.9487  -30.1465   23.8883 C   0  0  0  0  0  0
  -17.6490  -30.6603   24.0559 C   0  0  0  0  0  0
  -25.9075  -34.9406   23.5050 C   0  0  0  0  0  0
  -16.5381  -29.9098   23.6330 C   0  0  0  0  0  0
  -16.7294  -28.6513   23.0352 C   0  0  0  0  0  0
  -26.4547  -31.6539   25.0651 C   0  0  0  0  0  0
  -25.3715  -31.3698   26.1329 C   0  0  0  0  0  0
  -27.0420  -30.2953   24.6192 C   0  0  0  0  0  0
  -27.6074  -32.4285   25.7452 C   0  0  0  0  0  0
  -27.5561  -37.1784   24.8469 C   0  0  0  0  0  0
  -21.4282  -29.3076   22.3580 N   0  0  0  0  0  0
  -26.4273  -37.3741   23.9419 N   0  0  0  0  0  0
  -24.7280  -31.0182   22.0852 N   0  0  0  0  0  0
  -23.4221  -28.8033   23.2960 O   0  0  0  0  0  0
  -28.2484  -26.0319   20.2504 O   0  0  0  0  0  0
  -26.5676  -34.8925   22.4646 O   0  0  0  0  0  0
  -23.5595  -32.1264   23.6998 O   0  0  0  0  0  0
  -30.9685  -20.6061   20.7687 C   0  0  0  0  0  0
  -31.3999  -18.1592   20.8222 C   0  0  0  0  0  0
  -29.1859  -19.0226   20.3662 C   0  0  0  0  0  0
  -31.8393  -19.4997   20.9489 C   0  0  0  0  0  0
  -29.5906  -20.4761   20.4692 C   0  0  0  0  0  0
  -30.0671  -17.8047   20.5291 C   0  0  0  0  0  0
  -29.0079  -23.2185   20.3913 C   0  0  0  0  0  0
  -27.9136  -24.4792   20.1427 C   0  0  0  0  0  0
  -33.3083  -19.7311   21.2837 C   0  0  0  0  0  0
  -28.7467  -21.7924   20.3012 N   0  0  0  0  0  0
  -29.7419  -16.2736   20.4706 N   0  0  0  0  0  0
  -30.1449  -23.5914   20.6868 O   0  0  0  0  0  0
  -33.5661  -21.0014   21.6009 F   0  0  0  0  0  0
  -33.6679  -18.9689   22.3180 F   0  0  0  0  0  0
  -34.0602  -19.3981   20.2342 F   0  0  0  0  0  0
  -31.4640  -12.8395   19.1713 H   0  0  0  0  0  0
  -30.4666  -11.7322   20.0696 H   0  0  0  0  0  0
  -29.8621  -11.7106   17.6247 H   0  0  0  0  0  0
  -29.5758  -13.4326   17.6595 H   0  0  0  0  0  0
  -28.0018  -11.2549   19.0569 H   0  0  0  0  0  0
  -27.3907  -12.3459   17.8414 H   0  0  0  0  0  0
  -27.5620  -14.2315   19.3519 H   0  0  0  0  0  0
  -28.7759  -12.3911   21.4737 H   0  0  0  0  0  0
  -28.3371  -14.0702   21.7098 H   0  0  0  0  0  0
  -25.2754   -9.5687   22.4795 H   0  0  0  0  0  0
  -23.9991   -7.4633   22.7490 H   0  0  0  0  0  0
  -21.0859   -8.8772   19.8936 H   0  0  0  0  0  0
  -22.3716  -10.9673   19.6160 H   0  0  0  0  0  0
  -21.1995   -7.6147   23.9715 H   0  0  0  0  0  0
  -21.1480   -6.0525   25.9082 H   0  0  0  0  0  0
  -22.0595   -2.7609   23.2847 H   0  0  0  0  0  0
  -22.4035  -11.9837   22.4797 H   0  0  0  0  0  0
  -21.1029  -13.1201   22.2610 H   0  0  0  0  0  0
  -24.6284  -15.8361   20.4864 H   0  0  0  0  0  0
  -26.2341  -15.6244   20.0121 H   0  0  0  0  0  0
  -26.7299  -32.5280   23.0916 H   0  0  0  0  0  0
  -25.0046  -33.9552   25.0255 H   0  0  0  0  0  0
  -22.7635  -31.2798   21.3662 H   0  0  0  0  0  0
  -23.3764  -35.9574   23.3288 H   0  0  0  0  0  0
  -24.3563  -36.8921   22.2069 H   0  0  0  0  0  0
  -23.7217  -37.6425   23.6712 H   0  0  0  0  0  0
  -26.1574  -31.4385   20.5956 H   0  0  0  0  0  0
  -26.8902  -30.7695   22.0136 H   0  0  0  0  0  0
  -28.1399  -28.7343   21.2605 H   0  0  0  0  0  0
  -25.9025  -25.8113   19.0044 H   0  0  0  0  0  0
  -23.9922  -27.2873   18.9694 H   0  0  0  0  0  0
  -23.8348  -30.5536   19.3922 H   0  0  0  0  0  0
  -22.8040  -29.2277   19.8336 H   0  0  0  0  0  0
  -25.1293  -36.1850   25.0804 H   0  0  0  0  0  0
  -21.0018  -28.3354   24.1340 H   0  0  0  0  0  0
  -20.5685  -26.2348   23.3600 H   0  0  0  0  0  0
  -21.6650  -26.7428   22.1172 H   0  0  0  0  0  0
  -19.6926  -25.6309   21.1219 H   0  0  0  0  0  0
  -19.6711  -27.3216   20.6719 H   0  0  0  0  0  0
  -17.4203  -26.6686   21.4029 H   0  0  0  0  0  0
  -18.0351  -26.0077   22.8999 H   0  0  0  0  0  0
  -19.7963  -30.7255   24.2280 H   0  0  0  0  0  0
  -17.5055  -31.6281   24.5165 H   0  0  0  0  0  0
  -15.5375  -30.3014   23.7658 H   0  0  0  0  0  0
  -15.8688  -28.0837   22.7091 H   0  0  0  0  0  0
  -24.5960  -30.6976   25.7623 H   0  0  0  0  0  0
  -24.8807  -32.2851   26.4641 H   0  0  0  0  0  0
  -25.7986  -30.8943   27.0171 H   0  0  0  0  0  0
  -26.3022  -29.6650   24.1233 H   0  0  0  0  0  0
  -27.4122  -29.7253   25.4720 H   0  0  0  0  0  0
  -27.8892  -30.4220   23.9444 H   0  0  0  0  0  0
  -27.2734  -33.3697   26.1824 H   0  0  0  0  0  0
  -28.4006  -32.6633   25.0344 H   0  0  0  0  0  0
  -28.0593  -31.8498   26.5515 H   0  0  0  0  0  0
  -28.2546  -38.0110   24.7527 H   0  0  0  0  0  0
  -28.1089  -36.2630   24.6290 H   0  0  0  0  0  0
  -27.2280  -37.1413   25.8871 H   0  0  0  0  0  0
  -20.9492  -29.8828   21.6789 H   0  0  0  0  0  0
  -26.0145  -38.2812   24.1444 H   0  0  0  0  0  0
  -31.4020  -21.5866   20.8784 H   0  0  0  0  0  0
  -32.1396  -17.3902   20.9813 H   0  0  0  0  0  0
  -28.1462  -18.8319   20.1457 H   0  0  0  0  0  0
  -27.0948  -24.2947   20.8392 H   0  0  0  0  0  0
  -27.4986  -24.3072   19.1503 H   0  0  0  0  0  0
  -27.7770  -21.6182   20.0726 H   0  0  0  0  0  0
  -28.7528  -16.0744   20.4858 H   0  0  0  0  0  0
  1 25  1  0  0  0
  1 30  2  0  0  0
  1 81  1  0  0  0
  2  3  1  0  0  0
  2 25  1  0  0  0
  2 86  1  0  0  0
  2 87  1  0  0  0
  3  4  1  0  0  0
  3 88  1  0  0  0
  3 89  1  0  0  0
  4  5  1  0  0  0
  4 90  1  0  0  0
  4 91  1  0  0  0
  5  6  1  0  0  0
  5 26  1  0  0  0
  5 92  1  0  0  0
  6 25  1  0  0  0
  6 93  1  0  0  0
  6 94  1  0  0  0
  7  8  2  0  0  0
  7 26  1  0  0  0
  7 29  1  0  0  0
  8  9  1  0  0  0
  8 22  1  0  0  0
  9 10  1  0  0  0
  9 27  2  0  0  0
 10 11  2  0  0  0
 10 15  1  0  0  0
 11 12  1  0  0  0
 11 95  1  0  0  0
 12 13  2  0  0  0
 12 96  1  0  0  0
 13 14  1  0  0  0
 13 31  1  0  0  0
 14 15  2  0  0  0
 14 97  1  0  0  0
 15 98  1  0  0  0
 16 17  2  0  0  0
 16 21  1  0  0  0
 16 31  1  0  0  0
 17 18  1  0  0  0
 17 99  1  0  0  0
 18 19  2  0  0  0
 18100  1  0  0  0
 19 20  1  0  0  0
 19 24  1  0  0  0
 20 21  2  0  0  0
 20101  1  0  0  0
 21 23  1  0  0  0
 22 28  1  0  0  0
 22 32  2  0  0  0
 26 27  1  0  0  0
 28102  1  0  0  0
 28103  1  0  0  0
 29104  1  0  0  0
 29105  1  0  0  0
 33 34  1  0  0  0
 33 66  1  0  0  0
 33 70  2  0  0  0
 34 36  1  0  0  0
 34 59  1  0  0  0
 34106  1  0  0  0
 35 44  2  0  0  0
 35 45  1  0  0  0
 35 68  1  0  0  0
 36 56  1  0  0  0
 36107  1  0  0  0
 37 39  1  0  0  0
 37 47  1  0  0  0
 37 66  1  0  0  0
 37108  1  0  0  0
 38 43  2  0  0  0
 38 46  1  0  0  0
 38 47  1  0  0  0
 39 64  1  0  0  0
 39 67  2  0  0  0
 40 52  1  0  0  0
 40 53  2  0  0  0
 40 58  1  0  0  0
 41109  1  0  0  0
 41110  1  0  0  0
 41111  1  0  0  0
 41 48  1  0  0  0
 42 43  1  0  0  0
 42 66  1  0  0  0
 42112  1  0  0  0
 42113  1  0  0  0
 43 44  1  0  0  0
 44114  1  0  0  0
 45 46  2  0  0  0
 45115  1  0  0  0
 46116  1  0  0  0
 47117  1  0  0  0
 47118  1  0  0  0
 48 56  1  0  0  0
 48 65  1  0  0  0
 48119  1  0  0  0
 49 50  1  0  0  0
 49 53  1  0  0  0
 49 64  1  0  0  0
 49120  1  0  0  0
 50 51  1  0  0  0
 50121  1  0  0  0
 50122  1  0  0  0
 51 52  1  0  0  0
 51123  1  0  0  0
 51124  1  0  0  0
 52125  1  0  0  0
 52126  1  0  0  0
 53 54  1  0  0  0
 54 55  2  0  0  0
 54127  1  0  0  0
 55 57  1  0  0  0
 55128  1  0  0  0
 56 69  2  0  0  0
 57 58  2  0  0  0
 57129  1  0  0  0
 58130  1  0  0  0
 59 60  1  0  0  0
 59 61  1  0  0  0
 59 62  1  0  0  0
 60131  1  0  0  0
 60132  1  0  0  0
 60133  1  0  0  0
 61134  1  0  0  0
 61135  1  0  0  0
 61136  1  0  0  0
 62137  1  0  0  0
 62138  1  0  0  0
 62139  1  0  0  0
 63 65  1  0  0  0
 63140  1  0  0  0
 63141  1  0  0  0
 63142  1  0  0  0
 64143  1  0  0  0
 65144  1  0  0  0
 68 78  1  0  0  0
 71 74  2  0  0  0
 71 75  1  0  0  0
 71145  1  0  0  0
 72 74  1  0  0  0
 72 76  2  0  0  0
 72146  1  0  0  0
 73 75  2  0  0  0
 73 76  1  0  0  0
 73147  1  0  0  0
 74 79  1  0  0  0
 75 80  1  0  0  0
 76 81  1  0  0  0
 77 78  1  0  0  0
 77 80  1  0  0  0
 77 82  2  0  0  0
 78148  1  0  0  0
 78149  1  0  0  0
 79 83  1  0  0  0
 79 84  1  0  0  0
 79 85  1  0  0  0
 80150  1  0  0  0
 81151  1  0  0  0
M  ISO  4   1 100  68 101  78 101  81 100
M  END
> <chiral flag>
0

> <version>
0

> <s_m_source_file>
/data/baiqing/PycharmProjects/Reinvent-master-3.2/result/LINK_invent/BTK/process_docking_weight1_custom_sum_contain_oxygen_bond_distance_aromatic_linkinvent_7_9_3/rearranged_h_0009.sdf

> <i_m_source_file_index>
4

> <r_mmod_Potential_Energy-OPLS-2005>
650.012390136719

> <r_mmod_Stretch_Energy-OPLS-2005>
345.354370117188

> <r_mmod_Bend_Energy-OPLS-2005>
271.144104003906

> <r_mmod_Torsional_Energy-OPLS-2005>
220.201370239258

> <r_mmod_Improper_Torsional_Energy-OPLS-2005>
5.48326110839844

> <r_mmod_Van_der_Waal_Energy-OPLS-2005>
136.876434326172

> <r_mmod_Electrostatic_Energy-OPLS-2005>
-349.512634277344

> <r_mmod_Solvation_Energy-OPLS-2005>
-248.878784179688

> <b_mmod_Minimization_Converged-OPLS-2005>
0

> <r_mmod_RMS_Derivative-OPLS-2005>
2.54411911964417

$$$$
4
                    3D
 Structure written by MMmdl.
152160  0  0  1  0            999 V2000
  -30.5171  -14.9223   20.4360 C   0  0  0  0  0  0
  -30.4520  -12.5703   19.4897 C   0  0  0  0  0  0
  -29.5266  -12.5391   18.2496 C   0  0  0  0  0  0
  -28.0565  -12.3240   18.6615 C   0  0  0  0  0  0
  -27.6363  -13.2399   19.8408 C   0  0  2  0  0  0
  -28.6799  -13.2263   20.9797 C   0  0  0  0  0  0
  -25.2494  -13.8208   20.5690 C   0  0  0  0  0  0
  -24.1794  -13.0447   20.9215 C   0  0  0  0  0  0
  -24.6388  -11.6930   20.8728 C   0  0  0  0  0  0
  -23.9060  -10.4304   21.0395 C   0  0  0  0  0  0
  -24.3604   -9.4225   21.9181 C   0  0  0  0  0  0
  -23.6274   -8.2263   22.0763 C   0  0  0  0  0  0
  -22.4262   -8.0289   21.3547 C   0  0  0  0  0  0
  -21.9887   -9.0262   20.4656 C   0  0  0  0  0  0
  -22.7220  -10.2140   20.3057 C   0  0  0  0  0  0
  -21.6858   -6.0721   22.5267 C   0  0  0  0  0  0
  -21.4019   -6.5624   23.8198 C   0  0  0  0  0  0
  -21.3657   -5.6782   24.9162 C   0  0  0  0  0  0
  -21.6045   -4.3043   24.7223 C   0  0  0  0  0  0
  -21.8820   -3.8131   23.4342 C   0  0  0  0  0  0
  -21.9193   -4.6946   22.3394 C   0  0  0  0  0  0
  -22.7814  -13.5243   21.1866 C   0  0  0  0  0  0
  -22.1663   -4.2129   21.0972 F   0  0  0  0  0  0
  -21.5627   -3.4534   25.7739 F   0  0  0  0  0  0
  -29.9661  -13.6437   20.4000 N   0  0  0  0  0  0
  -26.2908  -12.9414   20.3207 N   0  0  0  0  0  0
  -25.9315  -11.6554   20.5689 N   0  0  0  0  0  0
  -22.0427  -12.8262   22.0414 N   0  0  0  0  0  0
  -25.4177  -15.1939   20.4103 N   0  0  0  0  0  0
  -31.7032  -15.0559   20.1129 O   0  0  0  0  0  0
  -21.6642   -6.8870   21.4235 O   0  0  0  0  0  0
  -22.3522  -14.5544   20.6697 O   0  0  0  0  0  0
  -24.6443  -31.8445   23.1907 C   0  0  0  0  0  0
  -25.9226  -32.4694   23.8288 C   0  0  1  0  0  0
  -27.2184  -27.1380   20.1482 C   0  0  0  0  0  0
  -25.5992  -33.8497   24.2222 N   0  0  0  0  0  0
  -23.4468  -30.4646   21.5375 C   0  0  2  0  0  0
  -24.8975  -28.8972   20.1107 C   0  0  0  0  0  0
  -22.7572  -29.4534   22.4878 C   0  0  0  0  0  0
  -18.0313  -28.1374   22.8486 C   0  0  0  0  0  0
  -24.1490  -36.7239   23.2636 C   0  0  0  0  0  0
  -26.0030  -30.7171   21.3907 C   0  0  0  0  0  0
  -26.0751  -29.3290   20.7340 C   0  0  0  0  0  0
  -27.2354  -28.4653   20.7408 C   0  0  0  0  0  0
  -26.0160  -26.8169   19.4762 C   0  0  0  0  0  0
  -24.8818  -27.6542   19.4654 C   0  0  0  0  0  0
  -23.6734  -29.7975   20.1554 C   0  0  0  0  0  0
  -25.4121  -36.3023   24.0318 C   0  0  1  0  0  0
  -20.5927  -28.3696   23.1244 C   0  0  2  0  0  0
  -20.6794  -26.9401   22.5401 C   0  0  0  0  0  0
  -19.5755  -26.6365   21.5216 C   0  0  0  0  0  0
  -18.1944  -26.7909   22.1631 C   0  0  0  0  0  0
  -19.1573  -28.8855   23.2849 C   0  0  0  0  0  0
  -18.9483  -30.1457   23.8855 C   0  0  0  0  0  0
  -17.6478  -30.6571   24.0554 C   0  0  0  0  0  0
  -25.9079  -34.9402   23.5075 C   0  0  0  0  0  0
  -16.5369  -29.9055   23.6333 C   0  0  0  0  0  0
  -16.7302  -28.6479   23.0349 C   0  0  0  0  0  0
  -26.4555  -31.6535   25.0707 C   0  0  0  0  0  0
  -25.3753  -31.3722   26.1409 C   0  0  0  0  0  0
  -27.0420  -30.2933   24.6263 C   0  0  0  0  0  0
  -27.6094  -32.4292   25.7497 C   0  0  0  0  0  0
  -27.5576  -37.1776   24.8469 C   0  0  0  0  0  0
  -21.4271  -29.3030   22.3620 N   0  0  0  0  0  0
  -26.4282  -37.3737   23.9416 N   0  0  0  0  0  0
  -24.7175  -31.0300   22.0948 N   0  0  0  0  0  0
  -23.4230  -28.8079   23.3018 O   0  0  0  0  0  0
  -28.2612  -26.1389   20.2145 O   0  0  0  0  0  0
  -26.5643  -34.8901   22.4638 O   0  0  0  0  0  0
  -23.5564  -32.1339   23.7123 O   0  0  0  0  0  0
  -30.4998  -18.5344   20.1306 C   0  0  0  0  0  0
  -30.2184  -19.9741   20.0783 C   0  0  0  0  0  0
  -28.3552  -18.1689   21.0376 C   0  0  0  0  0  0
  -29.5658  -17.5413   20.6035 C   0  0  0  0  0  0
  -28.9785  -20.5796   20.5054 C   0  0  0  0  0  0
  -28.0716  -19.5948   21.0173 C   0  0  0  0  0  0
  -28.9402  -23.3555   20.2736 C   0  0  0  0  0  0
  -26.0460  -19.2801   22.2961 C   0  0  0  0  0  0
  -27.8822  -24.6275   20.1619 C   0  0  0  0  0  0
  -28.4762  -22.0273   20.4336 N   0  0  0  0  0  0
  -29.6463  -16.0096   20.6877 N   0  0  0  0  0  0
  -30.1498  -23.5854   20.1945 O   0  0  0  0  0  0
  -26.8831  -20.1110   21.4978 O   0  0  0  0  0  0
  -31.4836  -12.7392   19.1817 H   0  0  0  0  0  0
  -30.4456  -11.6063   19.9999 H   0  0  0  0  0  0
  -29.8410  -11.7551   17.5588 H   0  0  0  0  0  0
  -29.6171  -13.4800   17.7047 H   0  0  0  0  0  0
  -27.9426  -11.2770   18.9470 H   0  0  0  0  0  0
  -27.3985  -12.4783   17.8059 H   0  0  0  0  0  0
  -27.6091  -14.2502   19.4312 H   0  0  0  0  0  0
  -28.7553  -12.2340   21.4270 H   0  0  0  0  0  0
  -28.3766  -13.8982   21.7834 H   0  0  0  0  0  0
  -25.2741   -9.5706   22.4761 H   0  0  0  0  0  0
  -23.9971   -7.4665   22.7503 H   0  0  0  0  0  0
  -21.0802   -8.8780   19.8979 H   0  0  0  0  0  0
  -22.3659  -10.9673   19.6172 H   0  0  0  0  0  0
  -21.2015   -7.6132   23.9687 H   0  0  0  0  0  0
  -21.1477   -6.0518   25.9058 H   0  0  0  0  0  0
  -22.0597   -2.7596   23.2855 H   0  0  0  0  0  0
  -22.3995  -11.9925   22.4843 H   0  0  0  0  0  0
  -21.1051  -13.1334   22.2580 H   0  0  0  0  0  0
  -24.6387  -15.8359   20.5053 H   0  0  0  0  0  0
  -26.2333  -15.6225   19.9945 H   0  0  0  0  0  0
  -26.7281  -32.5308   23.1007 H   0  0  0  0  0  0
  -25.0171  -33.9619   25.0391 H   0  0  0  0  0  0
  -22.7485  -31.2902   21.3864 H   0  0  0  0  0  0
  -23.3759  -35.9564   23.3294 H   0  0  0  0  0  0
  -24.3577  -36.8867   22.2050 H   0  0  0  0  0  0
  -23.7245  -37.6438   23.6667 H   0  0  0  0  0  0
  -26.1565  -31.4703   20.6168 H   0  0  0  0  0  0
  -26.8740  -30.7701   22.0315 H   0  0  0  0  0  0
  -28.1260  -28.7879   21.2607 H   0  0  0  0  0  0
  -25.9059  -25.8808   18.9537 H   0  0  0  0  0  0
  -23.9884  -27.3229   18.9550 H   0  0  0  0  0  0
  -23.8075  -30.5744   19.4014 H   0  0  0  0  0  0
  -22.7880  -29.2398   19.8452 H   0  0  0  0  0  0
  -25.1300  -36.1847   25.0808 H   0  0  0  0  0  0
  -21.0025  -28.3274   24.1362 H   0  0  0  0  0  0
  -20.5690  -26.2306   23.3615 H   0  0  0  0  0  0
  -21.6656  -26.7395   22.1194 H   0  0  0  0  0  0
  -19.6908  -25.6276   21.1239 H   0  0  0  0  0  0
  -19.6673  -27.3180   20.6749 H   0  0  0  0  0  0
  -17.4213  -26.6668   21.4038 H   0  0  0  0  0  0
  -18.0331  -26.0050   22.9023 H   0  0  0  0  0  0
  -19.7958  -30.7297   24.2197 H   0  0  0  0  0  0
  -17.5022  -31.6249   24.5149 H   0  0  0  0  0  0
  -15.5365  -30.2934   23.7666 H   0  0  0  0  0  0
  -15.8709  -28.0778   22.7066 H   0  0  0  0  0  0
  -24.5935  -30.7061   25.7738 H   0  0  0  0  0  0
  -24.8945  -32.2903   26.4789 H   0  0  0  0  0  0
  -25.8049  -30.8928   27.0212 H   0  0  0  0  0  0
  -26.3032  -29.6654   24.1266 H   0  0  0  0  0  0
  -27.4049  -29.7218   25.4817 H   0  0  0  0  0  0
  -27.8934  -30.4175   23.9569 H   0  0  0  0  0  0
  -27.2691  -33.3602   26.2038 H   0  0  0  0  0  0
  -28.3930  -32.6827   25.0346 H   0  0  0  0  0  0
  -28.0729  -31.8435   26.5445 H   0  0  0  0  0  0
  -28.2577  -38.0085   24.7532 H   0  0  0  0  0  0
  -28.1089  -36.2625   24.6271 H   0  0  0  0  0  0
  -27.2302  -37.1390   25.8871 H   0  0  0  0  0  0
  -20.9477  -29.8755   21.6808 H   0  0  0  0  0  0
  -26.0146  -38.2804   24.1421 H   0  0  0  0  0  0
  -31.4625  -18.1965   19.7748 H   0  0  0  0  0  0
  -30.9856  -20.6221   19.6790 H   0  0  0  0  0  0
  -27.5930  -17.4977   21.4000 H   0  0  0  0  0  0
  -25.4001  -19.9122   22.9060 H   0  0  0  0  0  0
  -26.6019  -18.6467   22.9901 H   0  0  0  0  0  0
  -25.4068  -18.6543   21.6730 H   0  0  0  0  0  0
  -27.1225  -24.4648   20.9269 H   0  0  0  0  0  0
  -27.3915  -24.4452   19.2081 H   0  0  0  0  0  0
  -27.4736  -22.0431   20.5729 H   0  0  0  0  0  0
  -28.7618  -15.6196   20.9720 H   0  0  0  0  0  0
  1 25  1  0  0  0
  1 30  2  0  0  0
  1 81  1  0  0  0
  2  3  1  0  0  0
  2 25  1  0  0  0
  2 84  1  0  0  0
  2 85  1  0  0  0
  3  4  1  0  0  0
  3 86  1  0  0  0
  3 87  1  0  0  0
  4  5  1  0  0  0
  4 88  1  0  0  0
  4 89  1  0  0  0
  5  6  1  0  0  0
  5 26  1  0  0  0
  5 90  1  0  0  0
  6 25  1  0  0  0
  6 91  1  0  0  0
  6 92  1  0  0  0
  7  8  2  0  0  0
  7 26  1  0  0  0
  7 29  1  0  0  0
  8  9  1  0  0  0
  8 22  1  0  0  0
  9 10  1  0  0  0
  9 27  2  0  0  0
 10 11  2  0  0  0
 10 15  1  0  0  0
 11 12  1  0  0  0
 11 93  1  0  0  0
 12 13  2  0  0  0
 12 94  1  0  0  0
 13 14  1  0  0  0
 13 31  1  0  0  0
 14 15  2  0  0  0
 14 95  1  0  0  0
 15 96  1  0  0  0
 16 17  2  0  0  0
 16 21  1  0  0  0
 16 31  1  0  0  0
 17 18  1  0  0  0
 17 97  1  0  0  0
 18 19  2  0  0  0
 18 98  1  0  0  0
 19 20  1  0  0  0
 19 24  1  0  0  0
 20 21  2  0  0  0
 20 99  1  0  0  0
 21 23  1  0  0  0
 22 28  1  0  0  0
 22 32  2  0  0  0
 26 27  1  0  0  0
 28100  1  0  0  0
 28101  1  0  0  0
 29102  1  0  0  0
 29103  1  0  0  0
 33 34  1  0  0  0
 33 66  1  0  0  0
 33 70  2  0  0  0
 34 36  1  0  0  0
 34 59  1  0  0  0
 34104  1  0  0  0
 35 44  2  0  0  0
 35 45  1  0  0  0
 35 68  1  0  0  0
 36 56  1  0  0  0
 36105  1  0  0  0
 37 39  1  0  0  0
 37 47  1  0  0  0
 37 66  1  0  0  0
 37106  1  0  0  0
 38 43  2  0  0  0
 38 46  1  0  0  0
 38 47  1  0  0  0
 39 64  1  0  0  0
 39 67  2  0  0  0
 40 52  1  0  0  0
 40 53  2  0  0  0
 40 58  1  0  0  0
 41107  1  0  0  0
 41108  1  0  0  0
 41109  1  0  0  0
 41 48  1  0  0  0
 42 43  1  0  0  0
 42 66  1  0  0  0
 42110  1  0  0  0
 42111  1  0  0  0
 43 44  1  0  0  0
 44112  1  0  0  0
 45 46  2  0  0  0
 45113  1  0  0  0
 46114  1  0  0  0
 47115  1  0  0  0
 47116  1  0  0  0
 48 56  1  0  0  0
 48 65  1  0  0  0
 48117  1  0  0  0
 49 50  1  0  0  0
 49 53  1  0  0  0
 49 64  1  0  0  0
 49118  1  0  0  0
 50 51  1  0  0  0
 50119  1  0  0  0
 50120  1  0  0  0
 51 52  1  0  0  0
 51121  1  0  0  0
 51122  1  0  0  0
 52123  1  0  0  0
 52124  1  0  0  0
 53 54  1  0  0  0
 54 55  2  0  0  0
 54125  1  0  0  0
 55 57  1  0  0  0
 55126  1  0  0  0
 56 69  2  0  0  0
 57 58  2  0  0  0
 57127  1  0  0  0
 58128  1  0  0  0
 59 60  1  0  0  0
 59 61  1  0  0  0
 59 62  1  0  0  0
 60129  1  0  0  0
 60130  1  0  0  0
 60131  1  0  0  0
 61132  1  0  0  0
 61133  1  0  0  0
 61134  1  0  0  0
 62135  1  0  0  0
 62136  1  0  0  0
 62137  1  0  0  0
 63 65  1  0  0  0
 63138  1  0  0  0
 63139  1  0  0  0
 63140  1  0  0  0
 64141  1  0  0  0
 65142  1  0  0  0
 68 79  1  0  0  0
 71 72  2  0  0  0
 71 74  1  0  0  0
 71143  1  0  0  0
 72 75  1  0  0  0
 72144  1  0  0  0
 73 74  2  0  0  0
 73 76  1  0  0  0
 73145  1  0  0  0
 74 81  1  0  0  0
 75 76  2  0  0  0
 75 80  1  0  0  0
 76 83  1  0  0  0
 77 79  1  0  0  0
 77 80  1  0  0  0
 77 82  2  0  0  0
 78 83  1  0  0  0
 78146  1  0  0  0
 78147  1  0  0  0
 78148  1  0  0  0
 79149  1  0  0  0
 79150  1  0  0  0
 80151  1  0  0  0
 81152  1  0  0  0
M  ISO  4   1 100  68 101  79 101  81 100
M  END
> <chiral flag>
0

> <version>
0

> <s_m_source_file>
/data/baiqing/PycharmProjects/Reinvent-master-3.2/result/LINK_invent/BTK/process_docking_weight1_custom_sum_contain_oxygen_bond_distance_aromatic_linkinvent_7_9_3/rearranged_h_0009.sdf

> <i_m_source_file_index>
5

> <r_mmod_Potential_Energy-OPLS-2005>
413.437133789062

> <r_mmod_Stretch_Energy-OPLS-2005>
222.322525024414

> <r_mmod_Bend_Energy-OPLS-2005>
291.070159912109

> <r_mmod_Torsional_Energy-OPLS-2005>
225.746246337891

> <r_mmod_Improper_Torsional_Energy-OPLS-2005>
4.11361169815063

> <r_mmod_Van_der_Waal_Energy-OPLS-2005>
137.370330810547

> <r_mmod_Electrostatic_Energy-OPLS-2005>
-402.479919433594

> <r_mmod_Solvation_Energy-OPLS-2005>
-249.173736572266

> <b_mmod_Minimization_Converged-OPLS-2005>
0

> <r_mmod_RMS_Derivative-OPLS-2005>
1.95702016353607

$$$$
5
                    3D
 Structure written by MMmdl.
148156  0  0  1  0            999 V2000
  -30.5114  -14.9205   20.4353 C   0  0  0  0  0  0
  -30.4549  -12.5673   19.4922 C   0  0  0  0  0  0
  -29.5268  -12.5346   18.2535 C   0  0  0  0  0  0
  -28.0572  -12.3215   18.6680 C   0  0  0  0  0  0
  -27.6390  -13.2376   19.8470 C   0  0  2  0  0  0
  -28.6835  -13.2190   20.9848 C   0  0  0  0  0  0
  -25.2503  -13.8190   20.5691 C   0  0  0  0  0  0
  -24.1807  -13.0434   20.9226 C   0  0  0  0  0  0
  -24.6405  -11.6914   20.8755 C   0  0  0  0  0  0
  -23.9078  -10.4290   21.0412 C   0  0  0  0  0  0
  -24.3625   -9.4204   21.9188 C   0  0  0  0  0  0
  -23.6297   -8.2241   22.0756 C   0  0  0  0  0  0
  -22.4279   -8.0282   21.3545 C   0  0  0  0  0  0
  -21.9918   -9.0256   20.4646 C   0  0  0  0  0  0
  -22.7250  -10.2133   20.3058 C   0  0  0  0  0  0
  -21.6852   -6.0736   22.5280 C   0  0  0  0  0  0
  -21.4014   -6.5640   23.8213 C   0  0  0  0  0  0
  -21.3661   -5.6793   24.9175 C   0  0  0  0  0  0
  -21.6046   -4.3055   24.7225 C   0  0  0  0  0  0
  -21.8819   -3.8147   23.4346 C   0  0  0  0  0  0
  -21.9192   -4.6964   22.3403 C   0  0  0  0  0  0
  -22.7826  -13.5215   21.1878 C   0  0  0  0  0  0
  -22.1661   -4.2152   21.0980 F   0  0  0  0  0  0
  -21.5630   -3.4538   25.7737 F   0  0  0  0  0  0
  -29.9672  -13.6392   20.4024 N   0  0  0  0  0  0
  -26.2929  -12.9403   20.3256 N   0  0  0  0  0  0
  -25.9336  -11.6544   20.5741 N   0  0  0  0  0  0
  -22.0467  -12.8206   22.0429 N   0  0  0  0  0  0
  -25.4169  -15.1913   20.4062 N   0  0  0  0  0  0
  -31.6995  -15.0581   20.1214 O   0  0  0  0  0  0
  -21.6640   -6.8880   21.4242 O   0  0  0  0  0  0
  -22.3514  -14.5520   20.6719 O   0  0  0  0  0  0
  -24.6438  -31.8449   23.1897 C   0  0  0  0  0  0
  -25.9212  -32.4699   23.8283 C   0  0  1  0  0  0
  -27.2193  -27.1419   20.1447 C   0  0  0  0  0  0
  -25.5962  -33.8505   24.2199 N   0  0  0  0  0  0
  -23.4471  -30.4658   21.5355 C   0  0  2  0  0  0
  -24.8972  -28.8971   20.1103 C   0  0  0  0  0  0
  -22.7569  -29.4554   22.4861 C   0  0  0  0  0  0
  -18.0306  -28.1397   22.8477 C   0  0  0  0  0  0
  -24.1494  -36.7255   23.2641 C   0  0  0  0  0  0
  -26.0043  -30.7201   21.3890 C   0  0  0  0  0  0
  -26.0760  -29.3328   20.7288 C   0  0  0  0  0  0
  -27.2382  -28.4719   20.7298 C   0  0  0  0  0  0
  -26.0119  -26.8124   19.4852 C   0  0  0  0  0  0
  -24.8781  -27.6496   19.4735 C   0  0  0  0  0  0
  -23.6735  -29.7979   20.1543 C   0  0  0  0  0  0
  -25.4126  -36.3034   24.0315 C   0  0  1  0  0  0
  -20.5919  -28.3725   23.1233 C   0  0  2  0  0  0
  -20.6792  -26.9428   22.5402 C   0  0  0  0  0  0
  -19.5764  -26.6384   21.5212 C   0  0  0  0  0  0
  -18.1946  -26.7935   22.1624 C   0  0  0  0  0  0
  -19.1563  -28.8879   23.2847 C   0  0  0  0  0  0
  -18.9478  -30.1475   23.8873 C   0  0  0  0  0  0
  -17.6474  -30.6593   24.0560 C   0  0  0  0  0  0
  -25.9074  -34.9409   23.5064 C   0  0  0  0  0  0
  -16.5366  -29.9085   23.6337 C   0  0  0  0  0  0
  -16.7290  -28.6504   23.0357 C   0  0  0  0  0  0
  -26.4533  -31.6563   25.0721 C   0  0  0  0  0  0
  -25.3718  -31.3750   26.1415 C   0  0  0  0  0  0
  -27.0398  -30.2959   24.6302 C   0  0  0  0  0  0
  -27.6062  -32.4328   25.7508 C   0  0  0  0  0  0
  -27.5577  -37.1786   24.8466 C   0  0  0  0  0  0
  -21.4262  -29.3051   22.3605 N   0  0  0  0  0  0
  -26.4290  -37.3746   23.9406 N   0  0  0  0  0  0
  -24.7182  -31.0309   22.0931 N   0  0  0  0  0  0
  -23.4211  -28.8097   23.3008 O   0  0  0  0  0  0
  -28.2625  -26.1444   20.2158 O   0  0  0  0  0  0
  -26.5654  -34.8904   22.4638 O   0  0  0  0  0  0
  -23.5557  -32.1324   23.7117 O   0  0  0  0  0  0
  -27.9747  -19.5529   20.6422 C   0  0  0  0  0  0
  -30.2517  -19.9892   20.2292 C   0  0  0  0  0  0
  -28.2527  -18.1388   20.7224 C   0  0  0  0  0  0
  -30.5328  -18.5470   20.2971 C   0  0  0  0  0  0
  -28.9418  -20.5772   20.3930 C   0  0  0  0  0  0
  -29.5365  -17.5311   20.5470 C   0  0  0  0  0  0
  -28.9267  -23.3605   20.2937 C   0  0  0  0  0  0
  -27.9013  -24.6395   20.0445 C   0  0  0  0  0  0
  -28.4495  -22.0266   20.2703 N   0  0  0  0  0  0
  -29.6297  -16.0040   20.6635 N   0  0  0  0  0  0
  -30.1229  -23.5910   20.4895 O   0  0  0  0  0  0
  -31.4864  -12.7415   19.1813 H   0  0  0  0  0  0
  -30.4554  -11.6027   20.0023 H   0  0  0  0  0  0
  -29.8401  -11.7482   17.5656 H   0  0  0  0  0  0
  -29.6180  -13.4738   17.7054 H   0  0  0  0  0  0
  -27.9451  -11.2762   18.9579 H   0  0  0  0  0  0
  -27.3957  -12.4733   17.8143 H   0  0  0  0  0  0
  -27.6148  -14.2484   19.4398 H   0  0  0  0  0  0
  -28.7626  -12.2241   21.4257 H   0  0  0  0  0  0
  -28.3856  -13.8864   21.7950 H   0  0  0  0  0  0
  -25.2770   -9.5679   22.4764 H   0  0  0  0  0  0
  -24.0004   -7.4632   22.7476 H   0  0  0  0  0  0
  -21.0850   -8.8777   19.8951 H   0  0  0  0  0  0
  -22.3712  -10.9674   19.6168 H   0  0  0  0  0  0
  -21.2005   -7.6149   23.9718 H   0  0  0  0  0  0
  -21.1485   -6.0523   25.9079 H   0  0  0  0  0  0
  -22.0597   -2.7609   23.2845 H   0  0  0  0  0  0
  -22.4083  -11.9868   22.4820 H   0  0  0  0  0  0
  -21.1082  -13.1231   22.2628 H   0  0  0  0  0  0
  -24.6348  -15.8318   20.4896 H   0  0  0  0  0  0
  -26.2317  -15.6172   19.9853 H   0  0  0  0  0  0
  -26.7277  -32.5307   23.1011 H   0  0  0  0  0  0
  -25.0101  -33.9623   25.0342 H   0  0  0  0  0  0
  -22.7496  -31.2920   21.3822 H   0  0  0  0  0  0
  -23.3760  -35.9583   23.3294 H   0  0  0  0  0  0
  -24.3578  -36.8897   22.2058 H   0  0  0  0  0  0
  -23.7246  -37.6448   23.6682 H   0  0  0  0  0  0
  -26.1607  -31.4756   20.6179 H   0  0  0  0  0  0
  -26.8743  -30.7686   22.0321 H   0  0  0  0  0  0
  -28.1343  -28.8006   21.2370 H   0  0  0  0  0  0
  -25.8980  -25.8642   18.9841 H   0  0  0  0  0  0
  -23.9793  -27.3113   18.9762 H   0  0  0  0  0  0
  -23.8099  -30.5737   19.4000 H   0  0  0  0  0  0
  -22.7884  -29.2404   19.8425 H   0  0  0  0  0  0
  -25.1314  -36.1864   25.0807 H   0  0  0  0  0  0
  -21.0012  -28.3317   24.1353 H   0  0  0  0  0  0
  -20.5691  -26.2338   23.3621 H   0  0  0  0  0  0
  -21.6656  -26.7436   22.1197 H   0  0  0  0  0  0
  -19.6926  -25.6289   21.1256 H   0  0  0  0  0  0
  -19.6700  -27.3182   20.6732 H   0  0  0  0  0  0
  -17.4214  -26.6680   21.4028 H   0  0  0  0  0  0
  -18.0346  -26.0083   22.9026 H   0  0  0  0  0  0
  -19.7954  -30.7301   24.2231 H   0  0  0  0  0  0
  -17.5025  -31.6269   24.5167 H   0  0  0  0  0  0
  -15.5364  -30.2977   23.7675 H   0  0  0  0  0  0
  -15.8692  -28.0813   22.7085 H   0  0  0  0  0  0
  -24.5907  -30.7087   25.7737 H   0  0  0  0  0  0
  -24.8897  -32.2931   26.4783 H   0  0  0  0  0  0
  -25.8004  -30.8964   27.0230 H   0  0  0  0  0  0
  -26.3018  -29.6679   24.1299 H   0  0  0  0  0  0
  -27.4000  -29.7258   25.4876 H   0  0  0  0  0  0
  -27.8931  -30.4193   23.9629 H   0  0  0  0  0  0
  -27.2656  -33.3649   26.2029 H   0  0  0  0  0  0
  -28.3906  -32.6854   25.0361 H   0  0  0  0  0  0
  -28.0694  -31.8490   26.5473 H   0  0  0  0  0  0
  -28.2587  -38.0090   24.7509 H   0  0  0  0  0  0
  -28.1082  -36.2617   24.6299 H   0  0  0  0  0  0
  -27.2290  -37.1441   25.8868 H   0  0  0  0  0  0
  -20.9473  -29.8764   21.6784 H   0  0  0  0  0  0
  -26.0157  -38.2815   24.1407 H   0  0  0  0  0  0
  -26.9454  -19.8521   20.7809 H   0  0  0  0  0  0
  -31.0796  -20.6531   20.0229 H   0  0  0  0  0  0
  -27.4098  -17.4937   20.9252 H   0  0  0  0  0  0
  -31.5547  -18.2269   20.1490 H   0  0  0  0  0  0
  -27.0275  -24.4465   20.6678 H   0  0  0  0  0  0
  -27.5723  -24.5107   19.0136 H   0  0  0  0  0  0
  -27.4446  -22.0564   20.1609 H   0  0  0  0  0  0
  -28.7368  -15.6100   20.9166 H   0  0  0  0  0  0
  1 25  1  0  0  0
  1 30  2  0  0  0
  1 80  1  0  0  0
  2  3  1  0  0  0
  2 25  1  0  0  0
  2 82  1  0  0  0
  2 83  1  0  0  0
  3  4  1  0  0  0
  3 84  1  0  0  0
  3 85  1  0  0  0
  4  5  1  0  0  0
  4 86  1  0  0  0
  4 87  1  0  0  0
  5  6  1  0  0  0
  5 26  1  0  0  0
  5 88  1  0  0  0
  6 25  1  0  0  0
  6 89  1  0  0  0
  6 90  1  0  0  0
  7  8  2  0  0  0
  7 26  1  0  0  0
  7 29  1  0  0  0
  8  9  1  0  0  0
  8 22  1  0  0  0
  9 10  1  0  0  0
  9 27  2  0  0  0
 10 11  2  0  0  0
 10 15  1  0  0  0
 11 12  1  0  0  0
 11 91  1  0  0  0
 12 13  2  0  0  0
 12 92  1  0  0  0
 13 14  1  0  0  0
 13 31  1  0  0  0
 14 15  2  0  0  0
 14 93  1  0  0  0
 15 94  1  0  0  0
 16 17  2  0  0  0
 16 21  1  0  0  0
 16 31  1  0  0  0
 17 18  1  0  0  0
 17 95  1  0  0  0
 18 19  2  0  0  0
 18 96  1  0  0  0
 19 20  1  0  0  0
 19 24  1  0  0  0
 20 21  2  0  0  0
 20 97  1  0  0  0
 21 23  1  0  0  0
 22 28  1  0  0  0
 22 32  2  0  0  0
 26 27  1  0  0  0
 28 98  1  0  0  0
 28 99  1  0  0  0
 29100  1  0  0  0
 29101  1  0  0  0
 33 34  1  0  0  0
 33 66  1  0  0  0
 33 70  2  0  0  0
 34 36  1  0  0  0
 34 59  1  0  0  0
 34102  1  0  0  0
 35 44  2  0  0  0
 35 45  1  0  0  0
 35 68  1  0  0  0
 36 56  1  0  0  0
 36103  1  0  0  0
 37 39  1  0  0  0
 37 47  1  0  0  0
 37 66  1  0  0  0
 37104  1  0  0  0
 38 43  2  0  0  0
 38 46  1  0  0  0
 38 47  1  0  0  0
 39 64  1  0  0  0
 39 67  2  0  0  0
 40 52  1  0  0  0
 40 53  2  0  0  0
 40 58  1  0  0  0
 41105  1  0  0  0
 41106  1  0  0  0
 41107  1  0  0  0
 41 48  1  0  0  0
 42 43  1  0  0  0
 42 66  1  0  0  0
 42108  1  0  0  0
 42109  1  0  0  0
 43 44  1  0  0  0
 44110  1  0  0  0
 45 46  2  0  0  0
 45111  1  0  0  0
 46112  1  0  0  0
 47113  1  0  0  0
 47114  1  0  0  0
 48 56  1  0  0  0
 48 65  1  0  0  0
 48115  1  0  0  0
 49 50  1  0  0  0
 49 53  1  0  0  0
 49 64  1  0  0  0
 49116  1  0  0  0
 50 51  1  0  0  0
 50117  1  0  0  0
 50118  1  0  0  0
 51 52  1  0  0  0
 51119  1  0  0  0
 51120  1  0  0  0
 52121  1  0  0  0
 52122  1  0  0  0
 53 54  1  0  0  0
 54 55  2  0  0  0
 54123  1  0  0  0
 55 57  1  0  0  0
 55124  1  0  0  0
 56 69  2  0  0  0
 57 58  2  0  0  0
 57125  1  0  0  0
 58126  1  0  0  0
 59 60  1  0  0  0
 59 61  1  0  0  0
 59 62  1  0  0  0
 60127  1  0  0  0
 60128  1  0  0  0
 60129  1  0  0  0
 61130  1  0  0  0
 61131  1  0  0  0
 61132  1  0  0  0
 62133  1  0  0  0
 62134  1  0  0  0
 62135  1  0  0  0
 63 65  1  0  0  0
 63136  1  0  0  0
 63137  1  0  0  0
 63138  1  0  0  0
 64139  1  0  0  0
 65140  1  0  0  0
 68 78  1  0  0  0
 71 73  2  0  0  0
 71 75  1  0  0  0
 71141  1  0  0  0
 72 74  1  0  0  0
 72 75  2  0  0  0
 72142  1  0  0  0
 73 76  1  0  0  0
 73143  1  0  0  0
 74 76  2  0  0  0
 74144  1  0  0  0
 75 79  1  0  0  0
 76 80  1  0  0  0
 77 78  1  0  0  0
 77 79  1  0  0  0
 77 81  2  0  0  0
 78145  1  0  0  0
 78146  1  0  0  0
 79147  1  0  0  0
 80148  1  0  0  0
M  ISO  4   1 100  68 101  78 101  80 100
M  END
> <chiral flag>
0

> <version>
0

> <s_m_source_file>
/data/baiqing/PycharmProjects/Reinvent-master-3.2/result/LINK_invent/BTK/process_docking_weight1_custom_sum_contain_oxygen_bond_distance_aromatic_linkinvent_7_9_3/rearranged_h_0009.sdf

> <i_m_source_file_index>
6

> <r_mmod_Potential_Energy-OPLS-2005>
411.609313964844

> <r_mmod_Stretch_Energy-OPLS-2005>
219.232482910156

> <r_mmod_Bend_Energy-OPLS-2005>
281.814636230469

> <r_mmod_Torsional_Energy-OPLS-2005>
220.372116088867

> <r_mmod_Improper_Torsional_Energy-OPLS-2005>
4.48748207092285

> <r_mmod_Van_der_Waal_Energy-OPLS-2005>
130.148376464844

> <r_mmod_Electrostatic_Energy-OPLS-2005>
-374.771942138672

> <r_mmod_Solvation_Energy-OPLS-2005>
-252.214736938477

> <b_mmod_Minimization_Converged-OPLS-2005>
0

> <r_mmod_RMS_Derivative-OPLS-2005>
0.218703597784042

$$$$
6
                    3D
 Structure written by MMmdl.
176184  0  0  1  0            999 V2000
  -30.8129  -14.3202   20.7230 C   0  0  0  0  0  0
  -30.4145  -12.2878   19.3849 C   0  0  0  0  0  0
  -29.4790  -12.5334   18.1890 C   0  0  0  0  0  0
  -28.0079  -12.3841   18.6131 C   0  0  0  0  0  0
  -27.6698  -13.2039   19.8843 C   0  0  2  0  0  0
  -28.7088  -12.9498   20.9993 C   0  0  0  0  0  0
  -25.2598  -13.8152   20.5629 C   0  0  0  0  0  0
  -24.1856  -13.0442   20.9174 C   0  0  0  0  0  0
  -24.6402  -11.6910   20.8740 C   0  0  0  0  0  0
  -23.9062  -10.4302   21.0401 C   0  0  0  0  0  0
  -24.3614   -9.4223   21.9180 C   0  0  0  0  0  0
  -23.6293   -8.2256   22.0757 C   0  0  0  0  0  0
  -22.4276   -8.0284   21.3546 C   0  0  0  0  0  0
  -21.9909   -9.0259   20.4648 C   0  0  0  0  0  0
  -22.7232  -10.2145   20.3056 C   0  0  0  0  0  0
  -21.6858   -6.0735   22.5276 C   0  0  0  0  0  0
  -21.4012   -6.5635   23.8209 C   0  0  0  0  0  0
  -21.3664   -5.6790   24.9170 C   0  0  0  0  0  0
  -21.6049   -4.3053   24.7222 C   0  0  0  0  0  0
  -21.8820   -3.8145   23.4340 C   0  0  0  0  0  0
  -21.9195   -4.6963   22.3398 C   0  0  0  0  0  0
  -22.7880  -13.5253   21.1833 C   0  0  0  0  0  0
  -22.1665   -4.2146   21.0976 F   0  0  0  0  0  0
  -21.5635   -3.4536   25.7737 F   0  0  0  0  0  0
  -30.0582  -13.2206   20.4635 N   0  0  0  0  0  0
  -26.3071  -12.9332   20.3410 N   0  0  0  0  0  0
  -25.9336  -11.6495   20.5794 N   0  0  0  0  0  0
  -22.0522  -12.8248   22.0390 N   0  0  0  0  0  0
  -25.4265  -15.1854   20.3877 N   0  0  0  0  0  0
  -31.7716  -14.6581   20.0243 O   0  0  0  0  0  0
  -21.6643   -6.8880   21.4239 O   0  0  0  0  0  0
  -22.3567  -14.5562   20.6691 O   0  0  0  0  0  0
  -24.6139  -31.8720   23.2145 C   0  0  0  0  0  0
  -25.9055  -32.4809   23.8442 C   0  0  1  0  0  0
  -27.2290  -27.4585   20.0422 C   0  0  0  0  0  0
  -25.5965  -33.8621   24.2378 N   0  0  0  0  0  0
  -23.3976  -30.4989   21.5558 C   0  0  2  0  0  0
  -24.8356  -28.9658   20.1159 C   0  0  0  0  0  0
  -22.7381  -29.4715   22.5008 C   0  0  0  0  0  0
  -18.0248  -28.1429   22.8376 C   0  0  0  0  0  0
  -24.1509  -36.7339   23.2628 C   0  0  0  0  0  0
  -25.9265  -30.8292   21.3723 C   0  0  0  0  0  0
  -25.9941  -29.4661   20.7176 C   0  0  0  0  0  0
  -27.1862  -28.7111   20.6935 C   0  0  0  0  0  0
  -26.0522  -26.9801   19.4226 C   0  0  0  0  0  0
  -24.8574  -27.7184   19.4736 C   0  0  0  0  0  0
  -23.5999  -29.8321   20.1704 C   0  0  0  0  0  0
  -25.4123  -36.3108   24.0331 C   0  0  1  0  0  0
  -20.5822  -28.3730   23.1251 C   0  0  2  0  0  0
  -20.6759  -26.9471   22.5389 C   0  0  0  0  0  0
  -19.5770  -26.6398   21.5158 C   0  0  0  0  0  0
  -18.1916  -26.7950   22.1540 C   0  0  0  0  0  0
  -19.1495  -28.8879   23.2790 C   0  0  0  0  0  0
  -18.9468  -30.1462   23.8846 C   0  0  0  0  0  0
  -17.6485  -30.6607   24.0565 C   0  0  0  0  0  0
  -25.9053  -34.9462   23.5137 C   0  0  0  0  0  0
  -16.5359  -29.9148   23.6313 C   0  0  0  0  0  0
  -16.7238  -28.6578   23.0277 C   0  0  0  0  0  0
  -26.4514  -31.6563   25.0751 C   0  0  0  0  0  0
  -25.3788  -31.3694   26.1510 C   0  0  0  0  0  0
  -27.0373  -30.3001   24.6134 C   0  0  0  0  0  0
  -27.6092  -32.4295   25.7514 C   0  0  0  0  0  0
  -27.5590  -37.1829   24.8458 C   0  0  0  0  0  0
  -21.4118  -29.3107   22.3697 N   0  0  0  0  0  0
  -26.4301  -37.3791   23.9401 N   0  0  0  0  0  0
  -24.6638  -31.0816   22.1053 N   0  0  0  0  0  0
  -23.4142  -28.8228   23.3042 O   0  0  0  0  0  0
  -28.4264  -26.7761   20.0618 O   0  0  0  0  0  0
  -26.5566  -34.8914   22.4667 O   0  0  0  0  0  0
  -23.5329  -32.1537   23.7507 O   0  0  0  0  0  0
  -32.8726  -17.6602   22.9141 C   0  0  0  0  0  0
  -32.3799  -16.5051   22.2821 C   0  0  0  0  0  0
  -30.6605  -18.0870   23.8443 C   0  0  0  0  0  0
  -32.0162  -18.4484   23.7022 C   0  0  0  0  0  0
  -31.0191  -16.1410   22.4115 C   0  0  0  0  0  0
  -30.1474  -16.9362   23.1972 C   0  0  0  0  0  0
  -27.8081  -24.0407   21.1068 C   0  0  0  0  0  0
  -28.2357  -16.6376   24.6945 C   0  0  0  0  0  0
  -27.9331  -24.3091   19.6100 C   0  0  0  0  0  0
  -26.7212  -20.4983   22.1270 C   0  0  0  0  0  0
  -27.2310  -19.1895   22.7465 C   0  0  0  0  0  0
  -26.8735  -21.7121   23.0668 C   0  0  0  0  0  0
  -27.7475  -18.1893   21.6970 C   0  0  0  0  0  0
  -28.2371  -22.4249   22.9317 C   0  0  0  0  0  0
  -27.9044  -16.7366   22.1939 C   0  0  0  0  0  0
  -28.6527  -25.6252   19.2403 C   0  0  0  0  0  0
  -32.5224  -19.5800   24.3400 N   0  0  0  0  0  0
  -30.4946  -14.9410   21.8659 N   0  0  0  0  0  0
  -28.4319  -22.9610   21.5864 N   0  0  0  0  0  0
  -28.7937  -16.5663   23.3471 N   0  0  0  0  0  0
  -27.0931  -24.7529   21.8132 O   0  0  0  0  0  0
  -31.4567  -12.3851   19.0761 H   0  0  0  0  0  0
  -30.3100  -11.2628   19.7442 H   0  0  0  0  0  0
  -29.7077  -11.8337   17.3837 H   0  0  0  0  0  0
  -29.6488  -13.5331   17.7859 H   0  0  0  0  0  0
  -27.8209  -11.3251   18.7936 H   0  0  0  0  0  0
  -27.3477  -12.6742   17.7947 H   0  0  0  0  0  0
  -27.7292  -14.2587   19.6154 H   0  0  0  0  0  0
  -28.6622  -11.9134   21.3374 H   0  0  0  0  0  0
  -28.4517  -13.5497   21.8726 H   0  0  0  0  0  0
  -25.2759   -9.5704   22.4749 H   0  0  0  0  0  0
  -24.0005   -7.4654   22.7478 H   0  0  0  0  0  0
  -21.0843   -8.8769   19.8954 H   0  0  0  0  0  0
  -22.3679  -10.9679   19.6168 H   0  0  0  0  0  0
  -21.1997   -7.6140   23.9708 H   0  0  0  0  0  0
  -21.1489   -6.0519   25.9074 H   0  0  0  0  0  0
  -22.0595   -2.7604   23.2839 H   0  0  0  0  0  0
  -22.4132  -11.9899   22.4767 H   0  0  0  0  0  0
  -21.1144  -13.1284   22.2606 H   0  0  0  0  0  0
  -24.6493  -15.8313   20.4661 H   0  0  0  0  0  0
  -26.2603  -15.6124   20.0072 H   0  0  0  0  0  0
  -26.7095  -32.5510   23.1174 H   0  0  0  0  0  0
  -25.0209  -33.9827   25.0579 H   0  0  0  0  0  0
  -22.6873  -31.3164   21.4189 H   0  0  0  0  0  0
  -23.3740  -35.9705   23.3295 H   0  0  0  0  0  0
  -24.3599  -36.8958   22.2044 H   0  0  0  0  0  0
  -23.7315  -37.6570   23.6638 H   0  0  0  0  0  0
  -26.0443  -31.5890   20.5991 H   0  0  0  0  0  0
  -26.8148  -30.8778   21.9900 H   0  0  0  0  0  0
  -28.0809  -29.0905   21.1661 H   0  0  0  0  0  0
  -26.0205  -26.0565   18.8725 H   0  0  0  0  0  0
  -23.9684  -27.3384   18.9906 H   0  0  0  0  0  0
  -23.7095  -30.6092   19.4148 H   0  0  0  0  0  0
  -22.7225  -29.2571   19.8669 H   0  0  0  0  0  0
  -25.1281  -36.1991   25.0824 H   0  0  0  0  0  0
  -20.9839  -28.3345   24.1404 H   0  0  0  0  0  0
  -20.5662  -26.2385   23.3604 H   0  0  0  0  0  0
  -21.6640  -26.7547   22.1206 H   0  0  0  0  0  0
  -19.7003  -25.6304   21.1225 H   0  0  0  0  0  0
  -19.6731  -27.3155   20.6637 H   0  0  0  0  0  0
  -17.4208  -26.6585   21.3941 H   0  0  0  0  0  0
  -18.0367  -26.0152   22.9001 H   0  0  0  0  0  0
  -19.7982  -30.7210   24.2228 H   0  0  0  0  0  0
  -17.5108  -31.6261   24.5233 H   0  0  0  0  0  0
  -15.5387  -30.3081   23.7707 H   0  0  0  0  0  0
  -15.8603  -28.0935   22.7023 H   0  0  0  0  0  0
  -24.5925  -30.7076   25.7858 H   0  0  0  0  0  0
  -24.9015  -32.2867   26.4963 H   0  0  0  0  0  0
  -25.8131  -30.8855   27.0259 H   0  0  0  0  0  0
  -26.2923  -29.6715   24.1231 H   0  0  0  0  0  0
  -27.4212  -29.7278   25.4588 H   0  0  0  0  0  0
  -27.8721  -30.4332   23.9246 H   0  0  0  0  0  0
  -27.2694  -33.3588   26.2099 H   0  0  0  0  0  0
  -28.3883  -32.6870   25.0323 H   0  0  0  0  0  0
  -28.0772  -31.8425   26.5429 H   0  0  0  0  0  0
  -28.2579  -38.0144   24.7470 H   0  0  0  0  0  0
  -28.1109  -36.2670   24.6290 H   0  0  0  0  0  0
  -27.2296  -37.1472   25.8855 H   0  0  0  0  0  0
  -20.9342  -29.8901   21.6926 H   0  0  0  0  0  0
  -26.0193  -38.2870   24.1394 H   0  0  0  0  0  0
  -33.9152  -17.9215   22.7999 H   0  0  0  0  0  0
  -33.0728  -15.8982   21.7205 H   0  0  0  0  0  0
  -30.0085  -18.6953   24.4539 H   0  0  0  0  0  0
  -29.0148  -16.4954   25.4443 H   0  0  0  0  0  0
  -27.4874  -15.8555   24.8370 H   0  0  0  0  0  0
  -27.7575  -17.5972   24.8872 H   0  0  0  0  0  0
  -26.9370  -24.2588   19.1795 H   0  0  0  0  0  0
  -28.4707  -23.4852   19.1381 H   0  0  0  0  0  0
  -25.6684  -20.3691   21.8729 H   0  0  0  0  0  0
  -27.2270  -20.6885   21.1799 H   0  0  0  0  0  0
  -26.4238  -18.7465   23.3324 H   0  0  0  0  0  0
  -28.0379  -19.4071   23.4449 H   0  0  0  0  0  0
  -26.7154  -21.4081   24.1030 H   0  0  0  0  0  0
  -26.0755  -22.4255   22.8550 H   0  0  0  0  0  0
  -28.6926  -18.5523   21.2895 H   0  0  0  0  0  0
  -27.0567  -18.1737   20.8525 H   0  0  0  0  0  0
  -29.0468  -21.7309   23.1601 H   0  0  0  0  0  0
  -28.3154  -23.2346   23.6609 H   0  0  0  0  0  0
  -28.2564  -16.1278   21.3608 H   0  0  0  0  0  0
  -26.9224  -16.3362   22.4517 H   0  0  0  0  0  0
  -28.4538  -25.8743   18.1974 H   0  0  0  0  0  0
  -29.7234  -25.4278   19.2946 H   0  0  0  0  0  0
  -33.5267  -19.6732   24.4601 H   0  0  0  0  0  0
  -31.9928  -20.0291   25.0803 H   0  0  0  0  0  0
  -29.6624  -14.6076   22.3275 H   0  0  0  0  0  0
  -29.0142  -22.4324   20.9496 H   0  0  0  0  0  0
  1 25  1  0  0  0
  1 30  2  0  0  0
  1 88  1  0  0  0
  2  3  1  0  0  0
  2 25  1  0  0  0
  2 92  1  0  0  0
  2 93  1  0  0  0
  3  4  1  0  0  0
  3 94  1  0  0  0
  3 95  1  0  0  0
  4  5  1  0  0  0
  4 96  1  0  0  0
  4 97  1  0  0  0
  5  6  1  0  0  0
  5 26  1  0  0  0
  5 98  1  0  0  0
  6 25  1  0  0  0
  6 99  1  0  0  0
  6100  1  0  0  0
  7  8  2  0  0  0
  7 26  1  0  0  0
  7 29  1  0  0  0
  8  9  1  0  0  0
  8 22  1  0  0  0
  9 10  1  0  0  0
  9 27  2  0  0  0
 10 11  2  0  0  0
 10 15  1  0  0  0
 11 12  1  0  0  0
 11101  1  0  0  0
 12 13  2  0  0  0
 12102  1  0  0  0
 13 14  1  0  0  0
 13 31  1  0  0  0
 14 15  2  0  0  0
 14103  1  0  0  0
 15104  1  0  0  0
 16 17  2  0  0  0
 16 21  1  0  0  0
 16 31  1  0  0  0
 17 18  1  0  0  0
 17105  1  0  0  0
 18 19  2  0  0  0
 18106  1  0  0  0
 19 20  1  0  0  0
 19 24  1  0  0  0
 20 21  2  0  0  0
 20107  1  0  0  0
 21 23  1  0  0  0
 22 28  1  0  0  0
 22 32  2  0  0  0
 26 27  1  0  0  0
 28108  1  0  0  0
 28109  1  0  0  0
 29110  1  0  0  0
 29111  1  0  0  0
 33 34  1  0  0  0
 33 66  1  0  0  0
 33 70  2  0  0  0
 34 36  1  0  0  0
 34 59  1  0  0  0
 34112  1  0  0  0
 35 44  2  0  0  0
 35 45  1  0  0  0
 35 68  1  0  0  0
 36 56  1  0  0  0
 36113  1  0  0  0
 37 39  1  0  0  0
 37 47  1  0  0  0
 37 66  1  0  0  0
 37114  1  0  0  0
 38 43  2  0  0  0
 38 46  1  0  0  0
 38 47  1  0  0  0
 39 64  1  0  0  0
 39 67  2  0  0  0
 40 52  1  0  0  0
 40 53  2  0  0  0
 40 58  1  0  0  0
 41115  1  0  0  0
 41116  1  0  0  0
 41117  1  0  0  0
 41 48  1  0  0  0
 42 43  1  0  0  0
 42 66  1  0  0  0
 42118  1  0  0  0
 42119  1  0  0  0
 43 44  1  0  0  0
 44120  1  0  0  0
 45 46  2  0  0  0
 45121  1  0  0  0
 46122  1  0  0  0
 47123  1  0  0  0
 47124  1  0  0  0
 48 56  1  0  0  0
 48 65  1  0  0  0
 48125  1  0  0  0
 49 50  1  0  0  0
 49 53  1  0  0  0
 49 64  1  0  0  0
 49126  1  0  0  0
 50 51  1  0  0  0
 50127  1  0  0  0
 50128  1  0  0  0
 51 52  1  0  0  0
 51129  1  0  0  0
 51130  1  0  0  0
 52131  1  0  0  0
 52132  1  0  0  0
 53 54  1  0  0  0
 54 55  2  0  0  0
 54133  1  0  0  0
 55 57  1  0  0  0
 55134  1  0  0  0
 56 69  2  0  0  0
 57 58  2  0  0  0
 57135  1  0  0  0
 58136  1  0  0  0
 59 60  1  0  0  0
 59 61  1  0  0  0
 59 62  1  0  0  0
 60137  1  0  0  0
 60138  1  0  0  0
 60139  1  0  0  0
 61140  1  0  0  0
 61141  1  0  0  0
 61142  1  0  0  0
 62143  1  0  0  0
 62144  1  0  0  0
 62145  1  0  0  0
 63 65  1  0  0  0
 63146  1  0  0  0
 63147  1  0  0  0
 63148  1  0  0  0
 64149  1  0  0  0
 65150  1  0  0  0
 68 86  1  0  0  0
 71 72  2  0  0  0
 71 74  1  0  0  0
 71151  1  0  0  0
 72 75  1  0  0  0
 72152  1  0  0  0
 73 74  2  0  0  0
 73 76  1  0  0  0
 73153  1  0  0  0
 74 87  1  0  0  0
 75 76  2  0  0  0
 75 88  1  0  0  0
 76 90  1  0  0  0
 77 79  1  0  0  0
 77 89  1  0  0  0
 77 91  2  0  0  0
 78 90  1  0  0  0
 78154  1  0  0  0
 78155  1  0  0  0
 78156  1  0  0  0
 79 86  1  0  0  0
 79157  1  0  0  0
 79158  1  0  0  0
 80 81  1  0  0  0
 80 82  1  0  0  0
 80159  1  0  0  0
 80160  1  0  0  0
 81 83  1  0  0  0
 81161  1  0  0  0
 81162  1  0  0  0
 82 84  1  0  0  0
 82163  1  0  0  0
 82164  1  0  0  0
 83 85  1  0  0  0
 83165  1  0  0  0
 83166  1  0  0  0
 84 89  1  0  0  0
 84167  1  0  0  0
 84168  1  0  0  0
 85 90  1  0  0  0
 85169  1  0  0  0
 85170  1  0  0  0
 86171  1  0  0  0
 86172  1  0  0  0
 87173  1  0  0  0
 87174  1  0  0  0
 88175  1  0  0  0
 89176  1  0  0  0
M  ISO  4   1 100  68 101  86 101  88 100
M  END
> <chiral flag>
0

> <version>
0

> <s_m_source_file>
/data/baiqing/PycharmProjects/Reinvent-master-3.2/result/LINK_invent/BTK/process_docking_weight1_custom_sum_contain_oxygen_bond_distance_aromatic_linkinvent_7_9_3/rearranged_h_0009.sdf

> <i_m_source_file_index>
7

> <r_mmod_Potential_Energy-OPLS-2005>
-137.934860229492

> <r_mmod_Stretch_Energy-OPLS-2005>
34.3855361938477

> <r_mmod_Bend_Energy-OPLS-2005>
123.542488098145

> <r_mmod_Torsional_Energy-OPLS-2005>
245.879058837891

> <r_mmod_Improper_Torsional_Energy-OPLS-2005>
8.08236408233643

> <r_mmod_Van_der_Waal_Energy-OPLS-2005>
154.803344726562

> <r_mmod_Electrostatic_Energy-OPLS-2005>
-466.582244873047

> <r_mmod_Solvation_Energy-OPLS-2005>
-248.165573120117

> <b_mmod_Minimization_Converged-OPLS-2005>
0

> <r_mmod_RMS_Derivative-OPLS-2005>
3.20421743392944

$$$$
7
                    3D
 Structure written by MMmdl.
151159  0  0  1  0            999 V2000
  -30.5239  -14.9240   20.4254 C   0  0  0  0  0  0
  -30.4500  -12.5690   19.4926 C   0  0  0  0  0  0
  -29.5239  -12.5344   18.2531 C   0  0  0  0  0  0
  -28.0548  -12.3235   18.6686 C   0  0  0  0  0  0
  -27.6365  -13.2418   19.8461 C   0  0  2  0  0  0
  -28.6820  -13.2341   20.9828 C   0  0  0  0  0  0
  -25.2484  -13.8188   20.5731 C   0  0  0  0  0  0
  -24.1788  -13.0419   20.9219 C   0  0  0  0  0  0
  -24.6401  -11.6906   20.8744 C   0  0  0  0  0  0
  -23.9080  -10.4281   21.0402 C   0  0  0  0  0  0
  -24.3626   -9.4198   21.9183 C   0  0  0  0  0  0
  -23.6296   -8.2237   22.0755 C   0  0  0  0  0  0
  -22.4277   -8.0278   21.3546 C   0  0  0  0  0  0
  -21.9916   -9.0250   20.4645 C   0  0  0  0  0  0
  -22.7250  -10.2126   20.3053 C   0  0  0  0  0  0
  -21.6852   -6.0734   22.5281 C   0  0  0  0  0  0
  -21.4013   -6.5639   23.8214 C   0  0  0  0  0  0
  -21.3660   -5.6793   24.9177 C   0  0  0  0  0  0
  -21.6045   -4.3055   24.7228 C   0  0  0  0  0  0
  -21.8819   -3.8146   23.4349 C   0  0  0  0  0  0
  -21.9192   -4.6962   22.3404 C   0  0  0  0  0  0
  -22.7808  -13.5196   21.1878 C   0  0  0  0  0  0
  -22.1659   -4.2148   21.0982 F   0  0  0  0  0  0
  -21.5632   -3.4539   25.7741 F   0  0  0  0  0  0
  -29.9649  -13.6486   20.3958 N   0  0  0  0  0  0
  -26.2920  -12.9420   20.3275 N   0  0  0  0  0  0
  -25.9336  -11.6552   20.5738 N   0  0  0  0  0  0
  -22.0458  -12.8185   22.0435 N   0  0  0  0  0  0
  -25.4129  -15.1920   20.4212 N   0  0  0  0  0  0
  -31.7160  -15.0405   20.1197 O   0  0  0  0  0  0
  -21.6639   -6.8877   21.4242 O   0  0  0  0  0  0
  -22.3491  -14.5502   20.6726 O   0  0  0  0  0  0
  -24.6433  -31.8445   23.1894 C   0  0  0  0  0  0
  -25.9206  -32.4698   23.8280 C   0  0  1  0  0  0
  -27.2189  -27.1398   20.1449 C   0  0  0  0  0  0
  -25.5956  -33.8505   24.2195 N   0  0  0  0  0  0
  -23.4470  -30.4647   21.5349 C   0  0  2  0  0  0
  -24.8977  -28.8958   20.1084 C   0  0  0  0  0  0
  -22.7568  -29.4548   22.4859 C   0  0  0  0  0  0
  -18.0305  -28.1396   22.8478 C   0  0  0  0  0  0
  -24.1492  -36.7254   23.2642 C   0  0  0  0  0  0
  -26.0039  -30.7178   21.3906 C   0  0  0  0  0  0
  -26.0750  -29.3303   20.7305 C   0  0  0  0  0  0
  -27.2352  -28.4673   20.7356 C   0  0  0  0  0  0
  -26.0175  -26.8151   19.4729 C   0  0  0  0  0  0
  -24.8819  -27.6511   19.4646 C   0  0  0  0  0  0
  -23.6737  -29.7965   20.1535 C   0  0  0  0  0  0
  -25.4125  -36.3034   24.0315 C   0  0  1  0  0  0
  -20.5917  -28.3723   23.1234 C   0  0  2  0  0  0
  -20.6788  -26.9425   22.5404 C   0  0  0  0  0  0
  -19.5761  -26.6382   21.5213 C   0  0  0  0  0  0
  -18.1943  -26.7936   22.1624 C   0  0  0  0  0  0
  -19.1562  -28.8878   23.2848 C   0  0  0  0  0  0
  -18.9478  -30.1474   23.8874 C   0  0  0  0  0  0
  -17.6474  -30.6593   24.0560 C   0  0  0  0  0  0
  -25.9074  -34.9409   23.5062 C   0  0  0  0  0  0
  -16.5365  -29.9085   23.6338 C   0  0  0  0  0  0
  -16.7289  -28.6504   23.0359 C   0  0  0  0  0  0
  -26.4528  -31.6567   25.0722 C   0  0  0  0  0  0
  -25.3709  -31.3758   26.1413 C   0  0  0  0  0  0
  -27.0397  -30.2962   24.6309 C   0  0  0  0  0  0
  -27.6055  -32.4336   25.7508 C   0  0  0  0  0  0
  -27.5577  -37.1785   24.8465 C   0  0  0  0  0  0
  -21.4260  -29.3048   22.3606 N   0  0  0  0  0  0
  -26.4289  -37.3746   23.9407 N   0  0  0  0  0  0
  -24.7177  -31.0299   22.0933 N   0  0  0  0  0  0
  -23.4210  -28.8092   23.3007 O   0  0  0  0  0  0
  -28.2592  -26.1404   20.2313 O   0  0  0  0  0  0
  -26.5657  -34.8904   22.4639 O   0  0  0  0  0  0
  -23.5551  -32.1325   23.7111 O   0  0  0  0  0  0
  -29.9461  -20.0075   21.1177 C   0  0  0  0  0  0
  -30.2205  -18.5730   21.2343 C   0  0  0  0  0  0
  -28.5185  -19.5560   19.3024 C   0  0  0  0  0  0
  -28.7894  -18.1335   19.4050 C   0  0  0  0  0  0
  -29.0512  -20.5847   20.1490 C   0  0  0  0  0  0
  -29.6528  -17.5467   20.3921 C   0  0  0  0  0  0
  -28.8685  -23.3502   20.3991 C   0  0  0  0  0  0
  -28.0804  -17.2196   18.4200 C   0  0  0  0  0  0
  -27.9449  -24.6452   19.9272 C   0  0  0  0  0  0
  -28.5777  -22.0342   19.9577 N   0  0  0  0  0  0
  -29.6718  -16.0339   20.6462 N   0  0  0  0  0  0
  -29.8199  -23.5531   21.1581 O   0  0  0  0  0  0
  -31.4826  -12.7355   19.1813 H   0  0  0  0  0  0
  -30.4452  -11.6071   20.0078 H   0  0  0  0  0  0
  -29.8363  -11.7449   17.5682 H   0  0  0  0  0  0
  -29.6162  -13.4719   17.7024 H   0  0  0  0  0  0
  -27.9429  -11.2786   18.9602 H   0  0  0  0  0  0
  -27.3930  -12.4739   17.8148 H   0  0  0  0  0  0
  -27.6079  -14.2509   19.4353 H   0  0  0  0  0  0
  -28.7611  -12.2442   21.4345 H   0  0  0  0  0  0
  -28.3859  -13.9119   21.7849 H   0  0  0  0  0  0
  -25.2770   -9.5673   22.4759 H   0  0  0  0  0  0
  -24.0001   -7.4628   22.7476 H   0  0  0  0  0  0
  -21.0848   -8.8771   19.8950 H   0  0  0  0  0  0
  -22.3711  -10.9665   19.6161 H   0  0  0  0  0  0
  -21.2004   -7.6147   23.9716 H   0  0  0  0  0  0
  -21.1484   -6.0525   25.9080 H   0  0  0  0  0  0
  -22.0597   -2.7609   23.2852 H   0  0  0  0  0  0
  -22.4078  -11.9847   22.4821 H   0  0  0  0  0  0
  -21.1074  -13.1207   22.2642 H   0  0  0  0  0  0
  -24.6411  -15.8387   20.5438 H   0  0  0  0  0  0
  -26.2586  -15.6432   20.1028 H   0  0  0  0  0  0
  -26.7271  -32.5304   23.1007 H   0  0  0  0  0  0
  -25.0089  -33.9625   25.0332 H   0  0  0  0  0  0
  -22.7495  -31.2907   21.3814 H   0  0  0  0  0  0
  -23.3760  -35.9579   23.3294 H   0  0  0  0  0  0
  -24.3576  -36.8897   22.2059 H   0  0  0  0  0  0
  -23.7241  -37.6445   23.6685 H   0  0  0  0  0  0
  -26.1615  -31.4731   20.6195 H   0  0  0  0  0  0
  -26.8734  -30.7659   22.0342 H   0  0  0  0  0  0
  -28.1284  -28.7923   21.2506 H   0  0  0  0  0  0
  -25.9128  -25.8705   18.9617 H   0  0  0  0  0  0
  -23.9855  -27.3155   18.9614 H   0  0  0  0  0  0
  -23.8094  -30.5722   19.3991 H   0  0  0  0  0  0
  -22.7888  -29.2384   19.8422 H   0  0  0  0  0  0
  -25.1313  -36.1863   25.0807 H   0  0  0  0  0  0
  -21.0011  -28.3315   24.1354 H   0  0  0  0  0  0
  -20.5682  -26.2336   23.3624 H   0  0  0  0  0  0
  -21.6653  -26.7429   22.1202 H   0  0  0  0  0  0
  -19.6921  -25.6287   21.1257 H   0  0  0  0  0  0
  -19.6698  -27.3180   20.6732 H   0  0  0  0  0  0
  -17.4211  -26.6682   21.4028 H   0  0  0  0  0  0
  -18.0340  -26.0083   22.9025 H   0  0  0  0  0  0
  -19.7953  -30.7298   24.2232 H   0  0  0  0  0  0
  -17.5025  -31.6270   24.5166 H   0  0  0  0  0  0
  -15.5364  -30.2978   23.7675 H   0  0  0  0  0  0
  -15.8690  -28.0813   22.7088 H   0  0  0  0  0  0
  -24.5902  -30.7089   25.7735 H   0  0  0  0  0  0
  -24.8882  -32.2939   26.4769 H   0  0  0  0  0  0
  -25.7991  -30.8982   27.0235 H   0  0  0  0  0  0
  -26.3020  -29.6682   24.1303 H   0  0  0  0  0  0
  -27.3992  -29.7265   25.4888 H   0  0  0  0  0  0
  -27.8934  -30.4197   23.9643 H   0  0  0  0  0  0
  -27.2647  -33.3659   26.2023 H   0  0  0  0  0  0
  -28.3899  -32.6862   25.0360 H   0  0  0  0  0  0
  -28.0686  -31.8503   26.5476 H   0  0  0  0  0  0
  -28.2586  -38.0089   24.7512 H   0  0  0  0  0  0
  -28.1082  -36.2617   24.6295 H   0  0  0  0  0  0
  -27.2291  -37.1434   25.8868 H   0  0  0  0  0  0
  -20.9470  -29.8766   21.6789 H   0  0  0  0  0  0
  -26.0155  -38.2813   24.1413 H   0  0  0  0  0  0
  -30.4144  -20.6699   21.8321 H   0  0  0  0  0  0
  -30.8590  -18.2571   22.0472 H   0  0  0  0  0  0
  -27.8285  -19.8678   18.5307 H   0  0  0  0  0  0
  -27.8383  -17.7482   17.4975 H   0  0  0  0  0  0
  -27.1501  -16.8492   18.8476 H   0  0  0  0  0  0
  -28.7019  -16.3660   18.1479 H   0  0  0  0  0  0
  -26.9625  -24.4317   20.3489 H   0  0  0  0  0  0
  -27.8333  -24.5591   18.8460 H   0  0  0  0  0  0
  -27.8063  -22.0811   19.3056 H   0  0  0  0  0  0
  -28.7508  -15.6868   20.8644 H   0  0  0  0  0  0
  1 25  1  0  0  0
  1 30  2  0  0  0
  1 81  1  0  0  0
  2  3  1  0  0  0
  2 25  1  0  0  0
  2 83  1  0  0  0
  2 84  1  0  0  0
  3  4  1  0  0  0
  3 85  1  0  0  0
  3 86  1  0  0  0
  4  5  1  0  0  0
  4 87  1  0  0  0
  4 88  1  0  0  0
  5  6  1  0  0  0
  5 26  1  0  0  0
  5 89  1  0  0  0
  6 25  1  0  0  0
  6 90  1  0  0  0
  6 91  1  0  0  0
  7  8  2  0  0  0
  7 26  1  0  0  0
  7 29  1  0  0  0
  8  9  1  0  0  0
  8 22  1  0  0  0
  9 10  1  0  0  0
  9 27  2  0  0  0
 10 11  2  0  0  0
 10 15  1  0  0  0
 11 12  1  0  0  0
 11 92  1  0  0  0
 12 13  2  0  0  0
 12 93  1  0  0  0
 13 14  1  0  0  0
 13 31  1  0  0  0
 14 15  2  0  0  0
 14 94  1  0  0  0
 15 95  1  0  0  0
 16 17  2  0  0  0
 16 21  1  0  0  0
 16 31  1  0  0  0
 17 18  1  0  0  0
 17 96  1  0  0  0
 18 19  2  0  0  0
 18 97  1  0  0  0
 19 20  1  0  0  0
 19 24  1  0  0  0
 20 21  2  0  0  0
 20 98  1  0  0  0
 21 23  1  0  0  0
 22 28  1  0  0  0
 22 32  2  0  0  0
 26 27  1  0  0  0
 28 99  1  0  0  0
 28100  1  0  0  0
 29101  1  0  0  0
 29102  1  0  0  0
 33 34  1  0  0  0
 33 66  1  0  0  0
 33 70  2  0  0  0
 34 36  1  0  0  0
 34 59  1  0  0  0
 34103  1  0  0  0
 35 44  2  0  0  0
 35 45  1  0  0  0
 35 68  1  0  0  0
 36 56  1  0  0  0
 36104  1  0  0  0
 37 39  1  0  0  0
 37 47  1  0  0  0
 37 66  1  0  0  0
 37105  1  0  0  0
 38 43  2  0  0  0
 38 46  1  0  0  0
 38 47  1  0  0  0
 39 64  1  0  0  0
 39 67  2  0  0  0
 40 52  1  0  0  0
 40 53  2  0  0  0
 40 58  1  0  0  0
 41106  1  0  0  0
 41107  1  0  0  0
 41108  1  0  0  0
 41 48  1  0  0  0
 42 43  1  0  0  0
 42 66  1  0  0  0
 42109  1  0  0  0
 42110  1  0  0  0
 43 44  1  0  0  0
 44111  1  0  0  0
 45 46  2  0  0  0
 45112  1  0  0  0
 46113  1  0  0  0
 47114  1  0  0  0
 47115  1  0  0  0
 48 56  1  0  0  0
 48 65  1  0  0  0
 48116  1  0  0  0
 49 50  1  0  0  0
 49 53  1  0  0  0
 49 64  1  0  0  0
 49117  1  0  0  0
 50 51  1  0  0  0
 50118  1  0  0  0
 50119  1  0  0  0
 51 52  1  0  0  0
 51120  1  0  0  0
 51121  1  0  0  0
 52122  1  0  0  0
 52123  1  0  0  0
 53 54  1  0  0  0
 54 55  2  0  0  0
 54124  1  0  0  0
 55 57  1  0  0  0
 55125  1  0  0  0
 56 69  2  0  0  0
 57 58  2  0  0  0
 57126  1  0  0  0
 58127  1  0  0  0
 59 60  1  0  0  0
 59 61  1  0  0  0
 59 62  1  0  0  0
 60128  1  0  0  0
 60129  1  0  0  0
 60130  1  0  0  0
 61131  1  0  0  0
 61132  1  0  0  0
 61133  1  0  0  0
 62134  1  0  0  0
 62135  1  0  0  0
 62136  1  0  0  0
 63 65  1  0  0  0
 63137  1  0  0  0
 63138  1  0  0  0
 63139  1  0  0  0
 64140  1  0  0  0
 65141  1  0  0  0
 68 79  1  0  0  0
 71 72  2  0  0  0
 71 75  1  0  0  0
 71142  1  0  0  0
 72 76  1  0  0  0
 72143  1  0  0  0
 73 74  1  0  0  0
 73 75  2  0  0  0
 73144  1  0  0  0
 74 76  2  0  0  0
 74 78  1  0  0  0
 75 80  1  0  0  0
 76 81  1  0  0  0
 77 79  1  0  0  0
 77 80  1  0  0  0
 77 82  2  0  0  0
 78145  1  0  0  0
 78146  1  0  0  0
 78147  1  0  0  0
 79148  1  0  0  0
 79149  1  0  0  0
 80150  1  0  0  0
 81151  1  0  0  0
M  ISO  4   1 100  68 101  79 101  81 100
M  END
> <chiral flag>
0

> <version>
0

> <s_m_source_file>
/data/baiqing/PycharmProjects/Reinvent-master-3.2/result/LINK_invent/BTK/process_docking_weight1_custom_sum_contain_oxygen_bond_distance_aromatic_linkinvent_7_9_3/rearranged_h_0009.sdf

> <i_m_source_file_index>
8

> <r_mmod_Potential_Energy-OPLS-2005>
408.473846435547

> <r_mmod_Stretch_Energy-OPLS-2005>
221.40803527832

> <r_mmod_Bend_Energy-OPLS-2005>
260.003326416016

> <r_mmod_Torsional_Energy-OPLS-2005>
248.484390258789

> <r_mmod_Improper_Torsional_Energy-OPLS-2005>
6.22255659103394

> <r_mmod_Van_der_Waal_Energy-OPLS-2005>
127.763702392578

> <r_mmod_Electrostatic_Energy-OPLS-2005>
-387.741668701172

> <r_mmod_Solvation_Energy-OPLS-2005>
-252.530776977539

> <b_mmod_Minimization_Converged-OPLS-2005>
0

> <r_mmod_RMS_Derivative-OPLS-2005>
0.222149834036827

$$$$
8
                    3D
 Structure written by MMmdl.
151159  0  0  1  0            999 V2000
  -30.5239  -14.9240   20.4254 C   0  0  0  0  0  0
  -30.4500  -12.5690   19.4926 C   0  0  0  0  0  0
  -29.5239  -12.5344   18.2531 C   0  0  0  0  0  0
  -28.0548  -12.3235   18.6686 C   0  0  0  0  0  0
  -27.6365  -13.2418   19.8461 C   0  0  2  0  0  0
  -28.6820  -13.2341   20.9828 C   0  0  0  0  0  0
  -25.2484  -13.8188   20.5731 C   0  0  0  0  0  0
  -24.1788  -13.0419   20.9219 C   0  0  0  0  0  0
  -24.6401  -11.6906   20.8744 C   0  0  0  0  0  0
  -23.9080  -10.4281   21.0402 C   0  0  0  0  0  0
  -24.3626   -9.4198   21.9183 C   0  0  0  0  0  0
  -23.6296   -8.2237   22.0755 C   0  0  0  0  0  0
  -22.4277   -8.0278   21.3546 C   0  0  0  0  0  0
  -21.9916   -9.0250   20.4645 C   0  0  0  0  0  0
  -22.7250  -10.2126   20.3053 C   0  0  0  0  0  0
  -21.6852   -6.0734   22.5281 C   0  0  0  0  0  0
  -21.4013   -6.5639   23.8214 C   0  0  0  0  0  0
  -21.3660   -5.6793   24.9177 C   0  0  0  0  0  0
  -21.6045   -4.3055   24.7228 C   0  0  0  0  0  0
  -21.8819   -3.8146   23.4349 C   0  0  0  0  0  0
  -21.9192   -4.6962   22.3404 C   0  0  0  0  0  0
  -22.7808  -13.5196   21.1878 C   0  0  0  0  0  0
  -22.1659   -4.2148   21.0982 F   0  0  0  0  0  0
  -21.5632   -3.4539   25.7741 F   0  0  0  0  0  0
  -29.9649  -13.6486   20.3958 N   0  0  0  0  0  0
  -26.2920  -12.9420   20.3275 N   0  0  0  0  0  0
  -25.9336  -11.6552   20.5738 N   0  0  0  0  0  0
  -22.0458  -12.8185   22.0435 N   0  0  0  0  0  0
  -25.4129  -15.1920   20.4212 N   0  0  0  0  0  0
  -31.7160  -15.0405   20.1197 O   0  0  0  0  0  0
  -21.6639   -6.8877   21.4242 O   0  0  0  0  0  0
  -22.3491  -14.5502   20.6726 O   0  0  0  0  0  0
  -24.6433  -31.8445   23.1894 C   0  0  0  0  0  0
  -25.9206  -32.4698   23.8280 C   0  0  1  0  0  0
  -27.2189  -27.1398   20.1449 C   0  0  0  0  0  0
  -25.5956  -33.8505   24.2195 N   0  0  0  0  0  0
  -23.4470  -30.4647   21.5349 C   0  0  2  0  0  0
  -24.8977  -28.8958   20.1084 C   0  0  0  0  0  0
  -22.7568  -29.4548   22.4859 C   0  0  0  0  0  0
  -18.0305  -28.1396   22.8478 C   0  0  0  0  0  0
  -24.1492  -36.7254   23.2642 C   0  0  0  0  0  0
  -26.0039  -30.7178   21.3906 C   0  0  0  0  0  0
  -26.0750  -29.3303   20.7305 C   0  0  0  0  0  0
  -27.2352  -28.4673   20.7356 C   0  0  0  0  0  0
  -26.0175  -26.8151   19.4729 C   0  0  0  0  0  0
  -24.8819  -27.6511   19.4646 C   0  0  0  0  0  0
  -23.6737  -29.7965   20.1535 C   0  0  0  0  0  0
  -25.4125  -36.3034   24.0315 C   0  0  1  0  0  0
  -20.5917  -28.3723   23.1234 C   0  0  2  0  0  0
  -20.6788  -26.9425   22.5404 C   0  0  0  0  0  0
  -19.5761  -26.6382   21.5213 C   0  0  0  0  0  0
  -18.1943  -26.7936   22.1624 C   0  0  0  0  0  0
  -19.1562  -28.8878   23.2848 C   0  0  0  0  0  0
  -18.9478  -30.1474   23.8874 C   0  0  0  0  0  0
  -17.6474  -30.6593   24.0560 C   0  0  0  0  0  0
  -25.9074  -34.9409   23.5062 C   0  0  0  0  0  0
  -16.5365  -29.9085   23.6338 C   0  0  0  0  0  0
  -16.7289  -28.6504   23.0359 C   0  0  0  0  0  0
  -26.4528  -31.6567   25.0722 C   0  0  0  0  0  0
  -25.3709  -31.3758   26.1413 C   0  0  0  0  0  0
  -27.0397  -30.2962   24.6309 C   0  0  0  0  0  0
  -27.6055  -32.4336   25.7508 C   0  0  0  0  0  0
  -27.5577  -37.1785   24.8465 C   0  0  0  0  0  0
  -21.4260  -29.3048   22.3606 N   0  0  0  0  0  0
  -26.4289  -37.3746   23.9407 N   0  0  0  0  0  0
  -24.7177  -31.0299   22.0933 N   0  0  0  0  0  0
  -23.4210  -28.8092   23.3007 O   0  0  0  0  0  0
  -28.2592  -26.1404   20.2313 O   0  0  0  0  0  0
  -26.5657  -34.8904   22.4639 O   0  0  0  0  0  0
  -23.5551  -32.1325   23.7111 O   0  0  0  0  0  0
  -29.9461  -20.0075   21.1177 C   0  0  0  0  0  0
  -30.2205  -18.5730   21.2343 C   0  0  0  0  0  0
  -28.5185  -19.5560   19.3024 C   0  0  0  0  0  0
  -28.7894  -18.1335   19.4050 C   0  0  0  0  0  0
  -29.0512  -20.5847   20.1490 C   0  0  0  0  0  0
  -29.6528  -17.5467   20.3921 C   0  0  0  0  0  0
  -28.8685  -23.3502   20.3991 C   0  0  0  0  0  0
  -28.0804  -17.2196   18.4200 C   0  0  0  0  0  0
  -27.9449  -24.6452   19.9272 C   0  0  0  0  0  0
  -28.5777  -22.0342   19.9577 N   0  0  0  0  0  0
  -29.6718  -16.0339   20.6462 N   0  0  0  0  0  0
  -29.8199  -23.5531   21.1581 O   0  0  0  0  0  0
  -31.4826  -12.7355   19.1813 H   0  0  0  0  0  0
  -30.4452  -11.6071   20.0078 H   0  0  0  0  0  0
  -29.8363  -11.7449   17.5682 H   0  0  0  0  0  0
  -29.6162  -13.4719   17.7024 H   0  0  0  0  0  0
  -27.9429  -11.2786   18.9602 H   0  0  0  0  0  0
  -27.3930  -12.4739   17.8148 H   0  0  0  0  0  0
  -27.6079  -14.2509   19.4353 H   0  0  0  0  0  0
  -28.7611  -12.2442   21.4345 H   0  0  0  0  0  0
  -28.3859  -13.9119   21.7849 H   0  0  0  0  0  0
  -25.2770   -9.5673   22.4759 H   0  0  0  0  0  0
  -24.0001   -7.4628   22.7476 H   0  0  0  0  0  0
  -21.0848   -8.8771   19.8950 H   0  0  0  0  0  0
  -22.3711  -10.9665   19.6161 H   0  0  0  0  0  0
  -21.2004   -7.6147   23.9716 H   0  0  0  0  0  0
  -21.1484   -6.0525   25.9080 H   0  0  0  0  0  0
  -22.0597   -2.7609   23.2852 H   0  0  0  0  0  0
  -22.4078  -11.9847   22.4821 H   0  0  0  0  0  0
  -21.1074  -13.1207   22.2642 H   0  0  0  0  0  0
  -24.6411  -15.8387   20.5438 H   0  0  0  0  0  0
  -26.2586  -15.6432   20.1028 H   0  0  0  0  0  0
  -26.7271  -32.5304   23.1007 H   0  0  0  0  0  0
  -25.0089  -33.9625   25.0332 H   0  0  0  0  0  0
  -22.7495  -31.2907   21.3814 H   0  0  0  0  0  0
  -23.3760  -35.9579   23.3294 H   0  0  0  0  0  0
  -24.3576  -36.8897   22.2059 H   0  0  0  0  0  0
  -23.7241  -37.6445   23.6685 H   0  0  0  0  0  0
  -26.1615  -31.4731   20.6195 H   0  0  0  0  0  0
  -26.8734  -30.7659   22.0342 H   0  0  0  0  0  0
  -28.1284  -28.7923   21.2506 H   0  0  0  0  0  0
  -25.9128  -25.8705   18.9617 H   0  0  0  0  0  0
  -23.9855  -27.3155   18.9614 H   0  0  0  0  0  0
  -23.8094  -30.5722   19.3991 H   0  0  0  0  0  0
  -22.7888  -29.2384   19.8422 H   0  0  0  0  0  0
  -25.1313  -36.1863   25.0807 H   0  0  0  0  0  0
  -21.0011  -28.3315   24.1354 H   0  0  0  0  0  0
  -20.5682  -26.2336   23.3624 H   0  0  0  0  0  0
  -21.6653  -26.7429   22.1202 H   0  0  0  0  0  0
  -19.6921  -25.6287   21.1257 H   0  0  0  0  0  0
  -19.6698  -27.3180   20.6732 H   0  0  0  0  0  0
  -17.4211  -26.6682   21.4028 H   0  0  0  0  0  0
  -18.0340  -26.0083   22.9025 H   0  0  0  0  0  0
  -19.7953  -30.7298   24.2232 H   0  0  0  0  0  0
  -17.5025  -31.6270   24.5166 H   0  0  0  0  0  0
  -15.5364  -30.2978   23.7675 H   0  0  0  0  0  0
  -15.8690  -28.0813   22.7088 H   0  0  0  0  0  0
  -24.5902  -30.7089   25.7735 H   0  0  0  0  0  0
  -24.8882  -32.2939   26.4769 H   0  0  0  0  0  0
  -25.7991  -30.8982   27.0235 H   0  0  0  0  0  0
  -26.3020  -29.6682   24.1303 H   0  0  0  0  0  0
  -27.3992  -29.7265   25.4888 H   0  0  0  0  0  0
  -27.8934  -30.4197   23.9643 H   0  0  0  0  0  0
  -27.2647  -33.3659   26.2023 H   0  0  0  0  0  0
  -28.3899  -32.6862   25.0360 H   0  0  0  0  0  0
  -28.0686  -31.8503   26.5476 H   0  0  0  0  0  0
  -28.2586  -38.0089   24.7512 H   0  0  0  0  0  0
  -28.1082  -36.2617   24.6295 H   0  0  0  0  0  0
  -27.2291  -37.1434   25.8868 H   0  0  0  0  0  0
  -20.9470  -29.8766   21.6789 H   0  0  0  0  0  0
  -26.0155  -38.2813   24.1413 H   0  0  0  0  0  0
  -30.4144  -20.6699   21.8321 H   0  0  0  0  0  0
  -30.8590  -18.2571   22.0472 H   0  0  0  0  0  0
  -27.8285  -19.8678   18.5307 H   0  0  0  0  0  0
  -27.8383  -17.7482   17.4975 H   0  0  0  0  0  0
  -27.1501  -16.8492   18.8476 H   0  0  0  0  0  0
  -28.7019  -16.3660   18.1479 H   0  0  0  0  0  0
  -26.9625  -24.4317   20.3489 H   0  0  0  0  0  0
  -27.8333  -24.5591   18.8460 H   0  0  0  0  0  0
  -27.8063  -22.0811   19.3056 H   0  0  0  0  0  0
  -28.7508  -15.6868   20.8644 H   0  0  0  0  0  0
  1 25  1  0  0  0
  1 30  2  0  0  0
  1 81  1  0  0  0
  2  3  1  0  0  0
  2 25  1  0  0  0
  2 83  1  0  0  0
  2 84  1  0  0  0
  3  4  1  0  0  0
  3 85  1  0  0  0
  3 86  1  0  0  0
  4  5  1  0  0  0
  4 87  1  0  0  0
  4 88  1  0  0  0
  5  6  1  0  0  0
  5 26  1  0  0  0
  5 89  1  0  0  0
  6 25  1  0  0  0
  6 90  1  0  0  0
  6 91  1  0  0  0
  7  8  2  0  0  0
  7 26  1  0  0  0
  7 29  1  0  0  0
  8  9  1  0  0  0
  8 22  1  0  0  0
  9 10  1  0  0  0
  9 27  2  0  0  0
 10 11  2  0  0  0
 10 15  1  0  0  0
 11 12  1  0  0  0
 11 92  1  0  0  0
 12 13  2  0  0  0
 12 93  1  0  0  0
 13 14  1  0  0  0
 13 31  1  0  0  0
 14 15  2  0  0  0
 14 94  1  0  0  0
 15 95  1  0  0  0
 16 17  2  0  0  0
 16 21  1  0  0  0
 16 31  1  0  0  0
 17 18  1  0  0  0
 17 96  1  0  0  0
 18 19  2  0  0  0
 18 97  1  0  0  0
 19 20  1  0  0  0
 19 24  1  0  0  0
 20 21  2  0  0  0
 20 98  1  0  0  0
 21 23  1  0  0  0
 22 28  1  0  0  0
 22 32  2  0  0  0
 26 27  1  0  0  0
 28 99  1  0  0  0
 28100  1  0  0  0
 29101  1  0  0  0
 29102  1  0  0  0
 33 34  1  0  0  0
 33 66  1  0  0  0
 33 70  2  0  0  0
 34 36  1  0  0  0
 34 59  1  0  0  0
 34103  1  0  0  0
 35 44  2  0  0  0
 35 45  1  0  0  0
 35 68  1  0  0  0
 36 56  1  0  0  0
 36104  1  0  0  0
 37 39  1  0  0  0
 37 47  1  0  0  0
 37 66  1  0  0  0
 37105  1  0  0  0
 38 43  2  0  0  0
 38 46  1  0  0  0
 38 47  1  0  0  0
 39 64  1  0  0  0
 39 67  2  0  0  0
 40 52  1  0  0  0
 40 53  2  0  0  0
 40 58  1  0  0  0
 41106  1  0  0  0
 41107  1  0  0  0
 41108  1  0  0  0
 41 48  1  0  0  0
 42 43  1  0  0  0
 42 66  1  0  0  0
 42109  1  0  0  0
 42110  1  0  0  0
 43 44  1  0  0  0
 44111  1  0  0  0
 45 46  2  0  0  0
 45112  1  0  0  0
 46113  1  0  0  0
 47114  1  0  0  0
 47115  1  0  0  0
 48 56  1  0  0  0
 48 65  1  0  0  0
 48116  1  0  0  0
 49 50  1  0  0  0
 49 53  1  0  0  0
 49 64  1  0  0  0
 49117  1  0  0  0
 50 51  1  0  0  0
 50118  1  0  0  0
 50119  1  0  0  0
 51 52  1  0  0  0
 51120  1  0  0  0
 51121  1  0  0  0
 52122  1  0  0  0
 52123  1  0  0  0
 53 54  1  0  0  0
 54 55  2  0  0  0
 54124  1  0  0  0
 55 57  1  0  0  0
 55125  1  0  0  0
 56 69  2  0  0  0
 57 58  2  0  0  0
 57126  1  0  0  0
 58127  1  0  0  0
 59 60  1  0  0  0
 59 61  1  0  0  0
 59 62  1  0  0  0
 60128  1  0  0  0
 60129  1  0  0  0
 60130  1  0  0  0
 61131  1  0  0  0
 61132  1  0  0  0
 61133  1  0  0  0
 62134  1  0  0  0
 62135  1  0  0  0
 62136  1  0  0  0
 63 65  1  0  0  0
 63137  1  0  0  0
 63138  1  0  0  0
 63139  1  0  0  0
 64140  1  0  0  0
 65141  1  0  0  0
 68 79  1  0  0  0
 71 72  2  0  0  0
 71 75  1  0  0  0
 71142  1  0  0  0
 72 76  1  0  0  0
 72143  1  0  0  0
 73 74  1  0  0  0
 73 75  2  0  0  0
 73144  1  0  0  0
 74 76  2  0  0  0
 74 78  1  0  0  0
 75 80  1  0  0  0
 76 81  1  0  0  0
 77 79  1  0  0  0
 77 80  1  0  0  0
 77 82  2  0  0  0
 78145  1  0  0  0
 78146  1  0  0  0
 78147  1  0  0  0
 79148  1  0  0  0
 79149  1  0  0  0
 80150  1  0  0  0
 81151  1  0  0  0
M  ISO  4   1 100  68 101  79 101  81 100
M  END
> <chiral flag>
0

> <version>
0

> <s_m_source_file>
/data/baiqing/PycharmProjects/Reinvent-master-3.2/result/LINK_invent/BTK/process_docking_weight1_custom_sum_contain_oxygen_bond_distance_aromatic_linkinvent_7_9_3/rearranged_h_0009.sdf

> <i_m_source_file_index>
9

> <r_mmod_Potential_Energy-OPLS-2005>
408.473846435547

> <r_mmod_Stretch_Energy-OPLS-2005>
221.40803527832

> <r_mmod_Bend_Energy-OPLS-2005>
260.003326416016

> <r_mmod_Torsional_Energy-OPLS-2005>
248.484390258789

> <r_mmod_Improper_Torsional_Energy-OPLS-2005>
6.22255659103394

> <r_mmod_Van_der_Waal_Energy-OPLS-2005>
127.763702392578

> <r_mmod_Electrostatic_Energy-OPLS-2005>
-387.741668701172

> <r_mmod_Solvation_Energy-OPLS-2005>
-252.530776977539

> <b_mmod_Minimization_Converged-OPLS-2005>
0

> <r_mmod_RMS_Derivative-OPLS-2005>
0.222149834036827

$$$$
9
                    3D
 Structure written by MMmdl.
157164  0  0  1  0            999 V2000
  -30.7456  -14.4100   20.6577 C   0  0  0  0  0  0
  -30.4187  -12.3040   19.3999 C   0  0  0  0  0  0
  -29.4868  -12.5252   18.1941 C   0  0  0  0  0  0
  -28.0107  -12.3774   18.6106 C   0  0  0  0  0  0
  -27.6636  -13.2017   19.8787 C   0  0  2  0  0  0
  -28.7046  -12.9569   20.9927 C   0  0  0  0  0  0
  -25.2599  -13.8151   20.5678 C   0  0  0  0  0  0
  -24.1846  -13.0438   20.9179 C   0  0  0  0  0  0
  -24.6382  -11.6901   20.8732 C   0  0  0  0  0  0
  -23.9042  -10.4289   21.0405 C   0  0  0  0  0  0
  -24.3597   -9.4207   21.9184 C   0  0  0  0  0  0
  -23.6281   -8.2238   22.0752 C   0  0  0  0  0  0
  -22.4266   -8.0268   21.3542 C   0  0  0  0  0  0
  -21.9891   -9.0243   20.4650 C   0  0  0  0  0  0
  -22.7211  -10.2129   20.3058 C   0  0  0  0  0  0
  -21.6848   -6.0730   22.5279 C   0  0  0  0  0  0
  -21.4010   -6.5635   23.8212 C   0  0  0  0  0  0
  -21.3662   -5.6790   24.9176 C   0  0  0  0  0  0
  -21.6047   -4.3054   24.7227 C   0  0  0  0  0  0
  -21.8818   -3.8144   23.4347 C   0  0  0  0  0  0
  -21.9194   -4.6959   22.3403 C   0  0  0  0  0  0
  -22.7874  -13.5245   21.1841 C   0  0  0  0  0  0
  -22.1671   -4.2149   21.0982 F   0  0  0  0  0  0
  -21.5628   -3.4537   25.7741 F   0  0  0  0  0  0
  -30.0377  -13.2667   20.4435 N   0  0  0  0  0  0
  -26.3031  -12.9307   20.3379 N   0  0  0  0  0  0
  -25.9300  -11.6468   20.5739 N   0  0  0  0  0  0
  -22.0506  -12.8246   22.0397 N   0  0  0  0  0  0
  -25.4314  -15.1864   20.4059 N   0  0  0  0  0  0
  -31.8105  -14.6360   20.0794 O   0  0  0  0  0  0
  -21.6634   -6.8865   21.4238 O   0  0  0  0  0  0
  -22.3578  -14.5557   20.6682 O   0  0  0  0  0  0
  -24.6119  -31.8690   23.2115 C   0  0  0  0  0  0
  -25.9021  -32.4830   23.8409 C   0  0  1  0  0  0
  -27.2400  -27.4575   20.0985 C   0  0  0  0  0  0
  -25.5890  -33.8628   24.2344 N   0  0  0  0  0  0
  -23.4001  -30.4904   21.5509 C   0  0  2  0  0  0
  -24.8494  -28.9537   20.1203 C   0  0  0  0  0  0
  -22.7398  -29.4656   22.5004 C   0  0  0  0  0  0
  -18.0269  -28.1373   22.8495 C   0  0  0  0  0  0
  -24.1484  -36.7319   23.2639 C   0  0  0  0  0  0
  -25.9249  -30.8403   21.3619 C   0  0  0  0  0  0
  -26.0051  -29.4731   20.7165 C   0  0  0  0  0  0
  -27.2058  -28.7307   20.7055 C   0  0  0  0  0  0
  -26.0726  -26.9422   19.5011 C   0  0  0  0  0  0
  -24.8756  -27.6850   19.5121 C   0  0  0  0  0  0
  -23.6095  -29.8188   20.1666 C   0  0  0  0  0  0
  -25.4104  -36.3119   24.0344 C   0  0  1  0  0  0
  -20.5858  -28.3654   23.1330 C   0  0  2  0  0  0
  -20.6757  -26.9395   22.5421 C   0  0  0  0  0  0
  -19.5737  -26.6387   21.5213 C   0  0  0  0  0  0
  -18.1917  -26.7923   22.1625 C   0  0  0  0  0  0
  -19.1516  -28.8832   23.2911 C   0  0  0  0  0  0
  -18.9445  -30.1441   23.8920 C   0  0  0  0  0  0
  -17.6446  -30.6583   24.0569 C   0  0  0  0  0  0
  -25.9026  -34.9481   23.5137 C   0  0  0  0  0  0
  -16.5339  -29.9087   23.6325 C   0  0  0  0  0  0
  -16.7259  -28.6501   23.0349 C   0  0  0  0  0  0
  -26.4467  -31.6598   25.0722 C   0  0  0  0  0  0
  -25.3748  -31.3692   26.1480 C   0  0  0  0  0  0
  -27.0292  -30.3051   24.6064 C   0  0  0  0  0  0
  -27.6051  -32.4312   25.7477 C   0  0  0  0  0  0
  -27.5581  -37.1815   24.8468 C   0  0  0  0  0  0
  -21.4127  -29.3025   22.3740 N   0  0  0  0  0  0
  -26.4296  -37.3799   23.9409 N   0  0  0  0  0  0
  -24.6635  -31.0807   22.1007 N   0  0  0  0  0  0
  -23.4178  -28.8203   23.3044 O   0  0  0  0  0  0
  -28.4080  -26.7393   20.0500 O   0  0  0  0  0  0
  -26.5584  -34.8926   22.4696 O   0  0  0  0  0  0
  -23.5316  -32.1433   23.7521 O   0  0  0  0  0  0
  -29.5932  -16.3939   21.0136 C   0  0  0  0  0  0
  -28.9558  -17.3899   21.9839 C   0  0  0  0  0  0
  -29.5096  -16.7671   19.5189 C   0  0  0  0  0  0
  -28.1780  -21.8294   21.2112 C   0  0  0  0  0  0
  -28.5401  -23.2655   21.6503 C   0  0  0  0  0  0
  -28.2518  -20.8245   22.3804 C   0  0  0  0  0  0
  -28.3016  -24.3382   20.5688 C   0  0  0  0  0  0
  -27.5747  -19.4638   22.1115 C   0  0  0  0  0  0
  -28.5615  -25.7681   21.0852 C   0  0  0  0  0  0
  -30.1439  -15.3315   21.4968 N   0  0  0  0  0  0
  -28.4337  -18.4963   21.4217 N   0  0  0  0  0  0
  -28.9060  -17.1691   23.1990 O   0  0  0  0  0  0
  -31.4625  -12.3995   19.0947 H   0  0  0  0  0  0
  -30.3161  -11.2860   19.7790 H   0  0  0  0  0  0
  -29.7227  -11.8167   17.3995 H   0  0  0  0  0  0
  -29.6536  -13.5199   17.7782 H   0  0  0  0  0  0
  -27.8213  -11.3193   18.7934 H   0  0  0  0  0  0
  -27.3571  -12.6649   17.7862 H   0  0  0  0  0  0
  -27.7166  -14.2535   19.6000 H   0  0  0  0  0  0
  -28.6769  -11.9139   21.3136 H   0  0  0  0  0  0
  -28.4559  -13.5363   21.8825 H   0  0  0  0  0  0
  -25.2742   -9.5689   22.4758 H   0  0  0  0  0  0
  -23.9998   -7.4627   22.7463 H   0  0  0  0  0  0
  -21.0824   -8.8751   19.8957 H   0  0  0  0  0  0
  -22.3661  -10.9662   19.6166 H   0  0  0  0  0  0
  -21.1999   -7.6145   23.9713 H   0  0  0  0  0  0
  -21.1490   -6.0524   25.9079 H   0  0  0  0  0  0
  -22.0595   -2.7608   23.2847 H   0  0  0  0  0  0
  -22.4119  -11.9912   22.4793 H   0  0  0  0  0  0
  -21.1117  -13.1263   22.2582 H   0  0  0  0  0  0
  -24.6614  -15.8398   20.4994 H   0  0  0  0  0  0
  -26.2795  -15.6187   20.0658 H   0  0  0  0  0  0
  -26.7095  -32.5563   23.1181 H   0  0  0  0  0  0
  -25.0058  -33.9795   25.0503 H   0  0  0  0  0  0
  -22.6875  -31.3058   21.4108 H   0  0  0  0  0  0
  -23.3738  -35.9659   23.3317 H   0  0  0  0  0  0
  -24.3579  -36.8912   22.2050 H   0  0  0  0  0  0
  -23.7241  -37.6533   23.6636 H   0  0  0  0  0  0
  -26.0306  -31.6034   20.5894 H   0  0  0  0  0  0
  -26.8149  -30.8994   21.9764 H   0  0  0  0  0  0
  -28.1026  -29.1312   21.1576 H   0  0  0  0  0  0
  -26.0922  -25.9738   19.0215 H   0  0  0  0  0  0
  -23.9873  -27.2799   19.0475 H   0  0  0  0  0  0
  -23.7165  -30.5913   19.4041 H   0  0  0  0  0  0
  -22.7347  -29.2357   19.8730 H   0  0  0  0  0  0
  -25.1278  -36.1993   25.0839 H   0  0  0  0  0  0
  -20.9953  -28.3214   24.1449 H   0  0  0  0  0  0
  -20.5658  -26.2260   23.3598 H   0  0  0  0  0  0
  -21.6629  -26.7438   22.1216 H   0  0  0  0  0  0
  -19.6893  -25.6304   21.1228 H   0  0  0  0  0  0
  -19.6681  -27.3209   20.6751 H   0  0  0  0  0  0
  -17.4188  -26.6680   21.4024 H   0  0  0  0  0  0
  -18.0317  -26.0056   22.9011 H   0  0  0  0  0  0
  -19.7920  -30.7254   24.2296 H   0  0  0  0  0  0
  -17.5002  -31.6266   24.5163 H   0  0  0  0  0  0
  -15.5341  -30.2998   23.7633 H   0  0  0  0  0  0
  -15.8659  -28.0832   22.7050 H   0  0  0  0  0  0
  -24.5919  -30.7037   25.7825 H   0  0  0  0  0  0
  -24.8939  -32.2837   26.4957 H   0  0  0  0  0  0
  -25.8118  -30.8849   27.0222 H   0  0  0  0  0  0
  -26.2822  -29.6817   24.1135 H   0  0  0  0  0  0
  -27.4095  -29.7278   25.4503 H   0  0  0  0  0  0
  -27.8642  -30.4383   23.9183 H   0  0  0  0  0  0
  -27.2679  -33.3597   26.2094 H   0  0  0  0  0  0
  -28.3835  -32.6894   25.0286 H   0  0  0  0  0  0
  -28.0743  -31.8410   26.5355 H   0  0  0  0  0  0
  -28.2615  -38.0099   24.7504 H   0  0  0  0  0  0
  -28.1061  -36.2630   24.6306 H   0  0  0  0  0  0
  -27.2299  -37.1486   25.8873 H   0  0  0  0  0  0
  -20.9279  -29.8754   21.6973 H   0  0  0  0  0  0
  -26.0188  -38.2881   24.1404 H   0  0  0  0  0  0
  -30.1955  -17.5863   19.3016 H   0  0  0  0  0  0
  -28.4997  -17.0790   19.2527 H   0  0  0  0  0  0
  -29.7488  -15.9473   18.8446 H   0  0  0  0  0  0
  -28.8300  -21.5047   20.3988 H   0  0  0  0  0  0
  -27.1635  -21.8335   20.8092 H   0  0  0  0  0  0
  -29.5820  -23.2961   21.9731 H   0  0  0  0  0  0
  -27.9461  -23.5279   22.5271 H   0  0  0  0  0  0
  -27.7384  -21.2693   23.2344 H   0  0  0  0  0  0
  -29.2845  -20.6844   22.7028 H   0  0  0  0  0  0
  -27.2752  -24.2681   20.2091 H   0  0  0  0  0  0
  -28.9442  -24.1402   19.7099 H   0  0  0  0  0  0
  -26.6633  -19.6043   21.5287 H   0  0  0  0  0  0
  -27.2370  -19.0507   23.0641 H   0  0  0  0  0  0
  -29.5853  -25.8410   21.4539 H   0  0  0  0  0  0
  -27.9161  -25.9881   21.9385 H   0  0  0  0  0  0
  -28.5427  -18.6009   20.4219 H   0  0  0  0  0  0
  1 25  1  0  0  0
  1 30  2  0  0  0
  1 80  1  0  0  0
  2  3  1  0  0  0
  2 25  1  0  0  0
  2 83  1  0  0  0
  2 84  1  0  0  0
  3  4  1  0  0  0
  3 85  1  0  0  0
  3 86  1  0  0  0
  4  5  1  0  0  0
  4 87  1  0  0  0
  4 88  1  0  0  0
  5  6  1  0  0  0
  5 26  1  0  0  0
  5 89  1  0  0  0
  6 25  1  0  0  0
  6 90  1  0  0  0
  6 91  1  0  0  0
  7  8  2  0  0  0
  7 26  1  0  0  0
  7 29  1  0  0  0
  8  9  1  0  0  0
  8 22  1  0  0  0
  9 10  1  0  0  0
  9 27  2  0  0  0
 10 11  2  0  0  0
 10 15  1  0  0  0
 11 12  1  0  0  0
 11 92  1  0  0  0
 12 13  2  0  0  0
 12 93  1  0  0  0
 13 14  1  0  0  0
 13 31  1  0  0  0
 14 15  2  0  0  0
 14 94  1  0  0  0
 15 95  1  0  0  0
 16 17  2  0  0  0
 16 21  1  0  0  0
 16 31  1  0  0  0
 17 18  1  0  0  0
 17 96  1  0  0  0
 18 19  2  0  0  0
 18 97  1  0  0  0
 19 20  1  0  0  0
 19 24  1  0  0  0
 20 21  2  0  0  0
 20 98  1  0  0  0
 21 23  1  0  0  0
 22 28  1  0  0  0
 22 32  2  0  0  0
 26 27  1  0  0  0
 28 99  1  0  0  0
 28100  1  0  0  0
 29101  1  0  0  0
 29102  1  0  0  0
 33 34  1  0  0  0
 33 66  1  0  0  0
 33 70  2  0  0  0
 34 36  1  0  0  0
 34 59  1  0  0  0
 34103  1  0  0  0
 35 44  2  0  0  0
 35 45  1  0  0  0
 35 68  1  0  0  0
 36 56  1  0  0  0
 36104  1  0  0  0
 37 39  1  0  0  0
 37 47  1  0  0  0
 37 66  1  0  0  0
 37105  1  0  0  0
 38 43  2  0  0  0
 38 46  1  0  0  0
 38 47  1  0  0  0
 39 64  1  0  0  0
 39 67  2  0  0  0
 40 52  1  0  0  0
 40 53  2  0  0  0
 40 58  1  0  0  0
 41106  1  0  0  0
 41107  1  0  0  0
 41108  1  0  0  0
 41 48  1  0  0  0
 42 43  1  0  0  0
 42 66  1  0  0  0
 42109  1  0  0  0
 42110  1  0  0  0
 43 44  1  0  0  0
 44111  1  0  0  0
 45 46  2  0  0  0
 45112  1  0  0  0
 46113  1  0  0  0
 47114  1  0  0  0
 47115  1  0  0  0
 48 56  1  0  0  0
 48 65  1  0  0  0
 48116  1  0  0  0
 49 50  1  0  0  0
 49 53  1  0  0  0
 49 64  1  0  0  0
 49117  1  0  0  0
 50 51  1  0  0  0
 50118  1  0  0  0
 50119  1  0  0  0
 51 52  1  0  0  0
 51120  1  0  0  0
 51121  1  0  0  0
 52122  1  0  0  0
 52123  1  0  0  0
 53 54  1  0  0  0
 54 55  2  0  0  0
 54124  1  0  0  0
 55 57  1  0  0  0
 55125  1  0  0  0
 56 69  2  0  0  0
 57 58  2  0  0  0
 57126  1  0  0  0
 58127  1  0  0  0
 59 60  1  0  0  0
 59 61  1  0  0  0
 59 62  1  0  0  0
 60128  1  0  0  0
 60129  1  0  0  0
 60130  1  0  0  0
 61131  1  0  0  0
 61132  1  0  0  0
 61133  1  0  0  0
 62134  1  0  0  0
 62135  1  0  0  0
 62136  1  0  0  0
 63 65  1  0  0  0
 63137  1  0  0  0
 63138  1  0  0  0
 63139  1  0  0  0
 64140  1  0  0  0
 65141  1  0  0  0
 68 79  1  0  0  0
 71 72  1  0  0  0
 71 73  1  0  0  0
 71 80  2  0  0  0
 72 81  1  0  0  0
 72 82  2  0  0  0
 73142  1  0  0  0
 73143  1  0  0  0
 73144  1  0  0  0
 74 75  1  0  0  0
 74 76  1  0  0  0
 74145  1  0  0  0
 74146  1  0  0  0
 75 77  1  0  0  0
 75147  1  0  0  0
 75148  1  0  0  0
 76 78  1  0  0  0
 76149  1  0  0  0
 76150  1  0  0  0
 77 79  1  0  0  0
 77151  1  0  0  0
 77152  1  0  0  0
 78 81  1  0  0  0
 78153  1  0  0  0
 78154  1  0  0  0
 79155  1  0  0  0
 79156  1  0  0  0
 81157  1  0  0  0
M  ISO  4   1 100  68 101  79 101  80 100
M  END
> <chiral flag>
0

> <version>
0

> <s_m_source_file>
/data/baiqing/PycharmProjects/Reinvent-master-3.2/result/LINK_invent/BTK/process_docking_weight1_custom_sum_contain_oxygen_bond_distance_aromatic_linkinvent_7_9_3/rearranged_h_0009.sdf

> <i_m_source_file_index>
10

> <r_mmod_Potential_Energy-OPLS-2005>
-77.9269180297852

> <r_mmod_Stretch_Energy-OPLS-2005>
36.8684005737305

> <r_mmod_Bend_Energy-OPLS-2005>
103.136421203613

> <r_mmod_Torsional_Energy-OPLS-2005>
197.307769775391

> <r_mmod_Improper_Torsional_Energy-OPLS-2005>
2.41633534431458

> <r_mmod_Van_der_Waal_Energy-OPLS-2005>
142.09765625

> <r_mmod_Electrostatic_Energy-OPLS-2005>
-352.735931396484

> <r_mmod_Solvation_Energy-OPLS-2005>
-214.442108154297

> <b_mmod_Minimization_Converged-OPLS-2005>
0

> <r_mmod_RMS_Derivative-OPLS-2005>
0.952408671379089

$$$$
10
                    3D
 Structure written by MMmdl.
156164  0  0  1  0            999 V2000
  -30.5195  -14.9935   20.4358 C   0  0  0  0  0  0
  -30.4345  -12.6221   19.4936 C   0  0  0  0  0  0
  -29.5157  -12.5287   18.2526 C   0  0  0  0  0  0
  -28.0513  -12.3090   18.6761 C   0  0  0  0  0  0
  -27.6203  -13.2513   19.8293 C   0  0  2  0  0  0
  -28.6645  -13.3088   20.9630 C   0  0  0  0  0  0
  -25.2426  -13.8219   20.5704 C   0  0  0  0  0  0
  -24.1757  -13.0430   20.9220 C   0  0  0  0  0  0
  -24.6390  -11.6918   20.8762 C   0  0  0  0  0  0
  -23.9078  -10.4283   21.0420 C   0  0  0  0  0  0
  -24.3633   -9.4196   21.9195 C   0  0  0  0  0  0
  -23.6297   -8.2234   22.0760 C   0  0  0  0  0  0
  -22.4278   -8.0284   21.3545 C   0  0  0  0  0  0
  -21.9918   -9.0262   20.4650 C   0  0  0  0  0  0
  -22.7254  -10.2133   20.3062 C   0  0  0  0  0  0
  -21.6860   -6.0729   22.5279 C   0  0  0  0  0  0
  -21.4020   -6.5639   23.8211 C   0  0  0  0  0  0
  -21.3660   -5.6796   24.9174 C   0  0  0  0  0  0
  -21.6044   -4.3059   24.7228 C   0  0  0  0  0  0
  -21.8816   -3.8143   23.4354 C   0  0  0  0  0  0
  -21.9189   -4.6953   22.3407 C   0  0  0  0  0  0
  -22.7772  -13.5187   21.1876 C   0  0  0  0  0  0
  -22.1654   -4.2140   21.0982 F   0  0  0  0  0  0
  -21.5627   -3.4545   25.7743 F   0  0  0  0  0  0
  -29.9246  -13.7340   20.3452 N   0  0  0  0  0  0
  -26.2842  -12.9453   20.3224 N   0  0  0  0  0  0
  -25.9324  -11.6579   20.5752 N   0  0  0  0  0  0
  -22.0455  -12.8180   22.0466 N   0  0  0  0  0  0
  -25.4065  -15.1947   20.4125 N   0  0  0  0  0  0
  -31.7416  -15.0403   20.2550 O   0  0  0  0  0  0
  -21.6648   -6.8877   21.4237 O   0  0  0  0  0  0
  -22.3443  -14.5493   20.6735 O   0  0  0  0  0  0
  -24.6471  -31.8412   23.1843 C   0  0  0  0  0  0
  -25.9235  -32.4670   23.8265 C   0  0  1  0  0  0
  -27.2159  -27.0864   20.1759 C   0  0  0  0  0  0
  -25.5964  -33.8481   24.2178 N   0  0  0  0  0  0
  -23.4549  -30.4590   21.5280 C   0  0  2  0  0  0
  -24.9077  -28.8757   20.1135 C   0  0  0  0  0  0
  -22.7585  -29.4541   22.4805 C   0  0  0  0  0  0
  -18.0309  -28.1381   22.8519 C   0  0  0  0  0  0
  -24.1489  -36.7240   23.2642 C   0  0  0  0  0  0
  -26.0145  -30.6989   21.3942 C   0  0  0  0  0  0
  -26.0857  -29.3039   20.7394 C   0  0  0  0  0  0
  -27.2402  -28.4259   20.7531 C   0  0  0  0  0  0
  -26.0177  -26.7779   19.4961 C   0  0  0  0  0  0
  -24.8903  -27.6273   19.4743 C   0  0  0  0  0  0
  -23.6887  -29.7842   20.1489 C   0  0  0  0  0  0
  -25.4121  -36.3014   24.0311 C   0  0  1  0  0  0
  -20.5930  -28.3763   23.1196 C   0  0  2  0  0  0
  -20.6812  -26.9461   22.5388 C   0  0  0  0  0  0
  -19.5745  -26.6316   21.5270 C   0  0  0  0  0  0
  -18.1940  -26.7900   22.1695 C   0  0  0  0  0  0
  -19.1571  -28.8888   23.2848 C   0  0  0  0  0  0
  -18.9447  -30.1482   23.8863 C   0  0  0  0  0  0
  -17.6438  -30.6585   24.0549 C   0  0  0  0  0  0
  -25.9085  -34.9390   23.5054 C   0  0  0  0  0  0
  -16.5332  -29.9045   23.6345 C   0  0  0  0  0  0
  -16.7289  -28.6456   23.0407 C   0  0  0  0  0  0
  -26.4539  -31.6548   25.0728 C   0  0  0  0  0  0
  -25.3713  -31.3748   26.1414 C   0  0  0  0  0  0
  -27.0423  -30.2941   24.6346 C   0  0  0  0  0  0
  -27.6061  -32.4334   25.7509 C   0  0  0  0  0  0
  -27.5567  -37.1786   24.8468 C   0  0  0  0  0  0
  -21.4280  -29.3084   22.3544 N   0  0  0  0  0  0
  -26.4278  -37.3731   23.9404 N   0  0  0  0  0  0
  -24.7248  -31.0233   22.0891 N   0  0  0  0  0  0
  -23.4199  -28.8083   23.2980 O   0  0  0  0  0  0
  -28.2544  -26.0708   20.2420 O   0  0  0  0  0  0
  -26.5664  -34.8891   22.4626 O   0  0  0  0  0  0
  -23.5584  -32.1292   23.7036 O   0  0  0  0  0  0
  -30.0818  -17.3820   22.3650 C   0  0  0  0  0  0
  -27.8311  -18.8182   21.4805 C   0  0  0  0  0  0
  -28.9763  -17.5667   23.2282 C   0  0  0  0  0  0
  -29.9069  -17.6179   20.9813 C   0  0  0  0  0  0
  -27.7998  -18.1733   22.7337 C   0  0  0  0  0  0
  -29.0410  -18.8438   20.7524 C   0  0  0  0  0  0
  -29.0313  -17.0281   24.6501 C   0  0  0  0  0  0
  -28.9887  -23.1615   20.3149 C   0  0  0  0  0  0
  -27.9438  -24.5206   20.3023 C   0  0  0  0  0  0
  -28.5479  -21.5118   20.4535 C   0  0  0  0  0  0
  -26.6472  -18.2370   23.5151 N   0  0  0  0  0  0
  -29.7250  -16.1898   20.4225 N   0  0  0  0  0  0
  -29.4235  -20.2069   20.3228 O   0  0  0  0  0  0
  -31.4684  -12.7884   19.1900 H   0  0  0  0  0  0
  -30.4313  -11.6819   20.0465 H   0  0  0  0  0  0
  -29.8398  -11.7187   17.5972 H   0  0  0  0  0  0
  -29.5947  -13.4462   17.6689 H   0  0  0  0  0  0
  -27.9524  -11.2712   18.9965 H   0  0  0  0  0  0
  -27.3863  -12.4241   17.8204 H   0  0  0  0  0  0
  -27.5708  -14.2436   19.3820 H   0  0  0  0  0  0
  -28.7693  -12.3441   21.4614 H   0  0  0  0  0  0
  -28.3615  -14.0246   21.7302 H   0  0  0  0  0  0
  -25.2774   -9.5671   22.4779 H   0  0  0  0  0  0
  -24.0007   -7.4622   22.7492 H   0  0  0  0  0  0
  -21.0839   -8.8785   19.8960 H   0  0  0  0  0  0
  -22.3716  -10.9679   19.6181 H   0  0  0  0  0  0
  -21.2030   -7.6153   23.9706 H   0  0  0  0  0  0
  -21.1483   -6.0536   25.9076 H   0  0  0  0  0  0
  -22.0598   -2.7603   23.2861 H   0  0  0  0  0  0
  -22.4098  -11.9835   22.4824 H   0  0  0  0  0  0
  -21.1095  -13.1205   22.2742 H   0  0  0  0  0  0
  -24.6383  -15.8455   20.5320 H   0  0  0  0  0  0
  -26.2585  -15.6431   20.1044 H   0  0  0  0  0  0
  -26.7306  -32.5276   23.0997 H   0  0  0  0  0  0
  -25.0096  -33.9581   25.0318 H   0  0  0  0  0  0
  -22.7579  -31.2852   21.3663 H   0  0  0  0  0  0
  -23.3756  -35.9569   23.3290 H   0  0  0  0  0  0
  -24.3573  -36.8893   22.2063 H   0  0  0  0  0  0
  -23.7245  -37.6431   23.6690 H   0  0  0  0  0  0
  -26.1797  -31.4493   20.6203 H   0  0  0  0  0  0
  -26.8805  -30.7512   22.0424 H   0  0  0  0  0  0
  -28.1309  -28.7454   21.2763 H   0  0  0  0  0  0
  -25.9171  -25.8345   18.9820 H   0  0  0  0  0  0
  -23.9955  -27.2958   18.9672 H   0  0  0  0  0  0
  -23.8382  -30.5572   19.3944 H   0  0  0  0  0  0
  -22.8039  -29.2329   19.8300 H   0  0  0  0  0  0
  -25.1313  -36.1830   25.0804 H   0  0  0  0  0  0
  -21.0068  -28.3335   24.1313 H   0  0  0  0  0  0
  -20.5735  -26.2413   23.3638 H   0  0  0  0  0  0
  -21.6664  -26.7458   22.1148 H   0  0  0  0  0  0
  -19.6883  -25.6163   21.1462 H   0  0  0  0  0  0
  -19.6664  -27.2997   20.6699 H   0  0  0  0  0  0
  -17.4207  -26.6690   21.4111 H   0  0  0  0  0  0
  -18.0346  -26.0062   22.9109 H   0  0  0  0  0  0
  -19.7912  -30.7351   24.2201 H   0  0  0  0  0  0
  -17.4942  -31.6263   24.5124 H   0  0  0  0  0  0
  -15.5323  -30.2923   23.7664 H   0  0  0  0  0  0
  -15.8691  -28.0744   22.7155 H   0  0  0  0  0  0
  -24.5897  -30.7083   25.7735 H   0  0  0  0  0  0
  -24.8892  -32.2937   26.4781 H   0  0  0  0  0  0
  -25.8004  -30.8969   27.0230 H   0  0  0  0  0  0
  -26.3059  -29.6648   24.1329 H   0  0  0  0  0  0
  -27.3989  -29.7266   25.4951 H   0  0  0  0  0  0
  -27.8985  -30.4168   23.9702 H   0  0  0  0  0  0
  -27.2641  -33.3653   26.2014 H   0  0  0  0  0  0
  -28.3903  -32.6866   25.0363 H   0  0  0  0  0  0
  -28.0680  -31.8511   26.5489 H   0  0  0  0  0  0
  -28.2586  -38.0084   24.7500 H   0  0  0  0  0  0
  -28.1067  -36.2614   24.6313 H   0  0  0  0  0  0
  -27.2281  -37.1444   25.8872 H   0  0  0  0  0  0
  -20.9491  -29.8827   21.6737 H   0  0  0  0  0  0
  -26.0144  -38.2793   24.1422 H   0  0  0  0  0  0
  -30.8481  -16.7007   22.7068 H   0  0  0  0  0  0
  -27.0249  -19.4970   21.2474 H   0  0  0  0  0  0
  -30.0349  -16.7010   24.9263 H   0  0  0  0  0  0
  -28.3524  -16.1802   24.7590 H   0  0  0  0  0  0
  -28.7273  -17.7938   25.3653 H   0  0  0  0  0  0
  -29.6912  -23.3385   21.1294 H   0  0  0  0  0  0
  -29.5969  -23.2410   19.4143 H   0  0  0  0  0  0
  -27.3251  -24.4153   21.1968 H   0  0  0  0  0  0
  -27.2656  -24.3068   19.4798 H   0  0  0  0  0  0
  -27.7431  -21.3625   19.7331 H   0  0  0  0  0  0
  -28.0673  -21.4528   21.4297 H   0  0  0  0  0  0
  -25.7571  -18.3576   23.0414 H   0  0  0  0  0  0
  -26.5761  -17.5848   24.2896 H   0  0  0  0  0  0
  -28.7707  -15.9922   20.1701 H   0  0  0  0  0  0
  1 25  1  0  0  0
  1 30  2  0  0  0
  1 82  1  0  0  0
  2  3  1  0  0  0
  2 25  1  0  0  0
  2 84  1  0  0  0
  2 85  1  0  0  0
  3  4  1  0  0  0
  3 86  1  0  0  0
  3 87  1  0  0  0
  4  5  1  0  0  0
  4 88  1  0  0  0
  4 89  1  0  0  0
  5  6  1  0  0  0
  5 26  1  0  0  0
  5 90  1  0  0  0
  6 25  1  0  0  0
  6 91  1  0  0  0
  6 92  1  0  0  0
  7  8  2  0  0  0
  7 26  1  0  0  0
  7 29  1  0  0  0
  8  9  1  0  0  0
  8 22  1  0  0  0
  9 10  1  0  0  0
  9 27  2  0  0  0
 10 11  2  0  0  0
 10 15  1  0  0  0
 11 12  1  0  0  0
 11 93  1  0  0  0
 12 13  2  0  0  0
 12 94  1  0  0  0
 13 14  1  0  0  0
 13 31  1  0  0  0
 14 15  2  0  0  0
 14 95  1  0  0  0
 15 96  1  0  0  0
 16 17  2  0  0  0
 16 21  1  0  0  0
 16 31  1  0  0  0
 17 18  1  0  0  0
 17 97  1  0  0  0
 18 19  2  0  0  0
 18 98  1  0  0  0
 19 20  1  0  0  0
 19 24  1  0  0  0
 20 21  2  0  0  0
 20 99  1  0  0  0
 21 23  1  0  0  0
 22 28  1  0  0  0
 22 32  2  0  0  0
 26 27  1  0  0  0
 28100  1  0  0  0
 28101  1  0  0  0
 29102  1  0  0  0
 29103  1  0  0  0
 33 34  1  0  0  0
 33 66  1  0  0  0
 33 70  2  0  0  0
 34 36  1  0  0  0
 34 59  1  0  0  0
 34104  1  0  0  0
 35 44  2  0  0  0
 35 45  1  0  0  0
 35 68  1  0  0  0
 36 56  1  0  0  0
 36105  1  0  0  0
 37 39  1  0  0  0
 37 47  1  0  0  0
 37 66  1  0  0  0
 37106  1  0  0  0
 38 43  2  0  0  0
 38 46  1  0  0  0
 38 47  1  0  0  0
 39 64  1  0  0  0
 39 67  2  0  0  0
 40 52  1  0  0  0
 40 53  2  0  0  0
 40 58  1  0  0  0
 41107  1  0  0  0
 41108  1  0  0  0
 41109  1  0  0  0
 41 48  1  0  0  0
 42 43  1  0  0  0
 42 66  1  0  0  0
 42110  1  0  0  0
 42111  1  0  0  0
 43 44  1  0  0  0
 44112  1  0  0  0
 45 46  2  0  0  0
 45113  1  0  0  0
 46114  1  0  0  0
 47115  1  0  0  0
 47116  1  0  0  0
 48 56  1  0  0  0
 48 65  1  0  0  0
 48117  1  0  0  0
 49 50  1  0  0  0
 49 53  1  0  0  0
 49 64  1  0  0  0
 49118  1  0  0  0
 50 51  1  0  0  0
 50119  1  0  0  0
 50120  1  0  0  0
 51 52  1  0  0  0
 51121  1  0  0  0
 51122  1  0  0  0
 52123  1  0  0  0
 52124  1  0  0  0
 53 54  1  0  0  0
 54 55  2  0  0  0
 54125  1  0  0  0
 55 57  1  0  0  0
 55126  1  0  0  0
 56 69  2  0  0  0
 57 58  2  0  0  0
 57127  1  0  0  0
 58128  1  0  0  0
 59 60  1  0  0  0
 59 61  1  0  0  0
 59 62  1  0  0  0
 60129  1  0  0  0
 60130  1  0  0  0
 60131  1  0  0  0
 61132  1  0  0  0
 61133  1  0  0  0
 61134  1  0  0  0
 62135  1  0  0  0
 62136  1  0  0  0
 62137  1  0  0  0
 63 65  1  0  0  0
 63138  1  0  0  0
 63139  1  0  0  0
 63140  1  0  0  0
 64141  1  0  0  0
 65142  1  0  0  0
 68 79  1  0  0  0
 71 73  2  0  0  0
 71 74  1  0  0  0
 71143  1  0  0  0
 72 75  2  0  0  0
 72 76  1  0  0  0
 72144  1  0  0  0
 73 75  1  0  0  0
 73 77  1  0  0  0
 74 76  2  0  0  0
 74 82  1  0  0  0
 75 81  1  0  0  0
 76 83  1  0  0  0
 77145  1  0  0  0
 77146  1  0  0  0
 77147  1  0  0  0
 78 79  1  0  0  0
 78 80  1  0  0  0
 78148  1  0  0  0
 78149  1  0  0  0
 79150  1  0  0  0
 79151  1  0  0  0
 80 83  1  0  0  0
 80152  1  0  0  0
 80153  1  0  0  0
 81154  1  0  0  0
 81155  1  0  0  0
 82156  1  0  0  0
M  ISO  4   1 100  68 101  79 101  82 100
M  END
> <chiral flag>
0

> <version>
0

> <s_m_source_file>
/data/baiqing/PycharmProjects/Reinvent-master-3.2/result/LINK_invent/BTK/process_docking_weight1_custom_sum_contain_oxygen_bond_distance_aromatic_linkinvent_7_9_3/rearranged_h_0009.sdf

> <i_m_source_file_index>
11

> <r_mmod_Potential_Energy-OPLS-2005>
845.168762207031

> <r_mmod_Stretch_Energy-OPLS-2005>
327.061553955078

> <r_mmod_Bend_Energy-OPLS-2005>
313.470458984375

> <r_mmod_Torsional_Energy-OPLS-2005>
450.027404785156

> <r_mmod_Improper_Torsional_Energy-OPLS-2005>
39.9242401123047

> <r_mmod_Van_der_Waal_Energy-OPLS-2005>
138.625686645508

> <r_mmod_Electrostatic_Energy-OPLS-2005>
-438.199737548828

> <r_mmod_Solvation_Energy-OPLS-2005>
-222.562316894531

> <b_mmod_Minimization_Converged-OPLS-2005>
0

> <r_mmod_RMS_Derivative-OPLS-2005>
3.37521171569824

$$$$
11
                    3D
 Structure written by MMmdl.
148156  0  0  1  0            999 V2000
  -30.5122  -14.9218   20.4210 C   0  0  0  0  0  0
  -30.4531  -12.5665   19.4870 C   0  0  0  0  0  0
  -29.5248  -12.5329   18.2489 C   0  0  0  0  0  0
  -28.0554  -12.3215   18.6638 C   0  0  0  0  0  0
  -27.6372  -13.2379   19.8425 C   0  0  2  0  0  0
  -28.6832  -13.2237   20.9788 C   0  0  0  0  0  0
  -25.2494  -13.8187   20.5681 C   0  0  0  0  0  0
  -24.1803  -13.0433   20.9229 C   0  0  0  0  0  0
  -24.6403  -11.6915   20.8752 C   0  0  0  0  0  0
  -23.9077  -10.4290   21.0406 C   0  0  0  0  0  0
  -24.3623   -9.4205   21.9184 C   0  0  0  0  0  0
  -23.6292   -8.2244   22.0754 C   0  0  0  0  0  0
  -22.4273   -8.0285   21.3544 C   0  0  0  0  0  0
  -21.9912   -9.0261   20.4649 C   0  0  0  0  0  0
  -22.7246  -10.2135   20.3058 C   0  0  0  0  0  0
  -21.6854   -6.0731   22.5275 C   0  0  0  0  0  0
  -21.4015   -6.5633   23.8208 C   0  0  0  0  0  0
  -21.3662   -5.6786   24.9171 C   0  0  0  0  0  0
  -21.6044   -4.3049   24.7222 C   0  0  0  0  0  0
  -21.8820   -3.8140   23.4345 C   0  0  0  0  0  0
  -21.9192   -4.6957   22.3399 C   0  0  0  0  0  0
  -22.7822  -13.5216   21.1875 C   0  0  0  0  0  0
  -22.1662   -4.2142   21.0977 F   0  0  0  0  0  0
  -21.5629   -3.4536   25.7739 F   0  0  0  0  0  0
  -29.9663  -13.6413   20.3934 N   0  0  0  0  0  0
  -26.2920  -12.9402   20.3233 N   0  0  0  0  0  0
  -25.9333  -11.6544   20.5726 N   0  0  0  0  0  0
  -22.0461  -12.8217   22.0433 N   0  0  0  0  0  0
  -25.4154  -15.1905   20.4032 N   0  0  0  0  0  0
  -31.7048  -15.0554   20.1240 O   0  0  0  0  0  0
  -21.6639   -6.8880   21.4240 O   0  0  0  0  0  0
  -22.3514  -14.5518   20.6710 O   0  0  0  0  0  0
  -24.6443  -31.8448   23.1896 C   0  0  0  0  0  0
  -25.9216  -32.4698   23.8287 C   0  0  1  0  0  0
  -27.2194  -27.1412   20.1396 C   0  0  0  0  0  0
  -25.5963  -33.8505   24.2200 N   0  0  0  0  0  0
  -23.4478  -30.4658   21.5355 C   0  0  2  0  0  0
  -24.8972  -28.8971   20.1102 C   0  0  0  0  0  0
  -22.7577  -29.4550   22.4860 C   0  0  0  0  0  0
  -18.0311  -28.1393   22.8478 C   0  0  0  0  0  0
  -24.1495  -36.7256   23.2642 C   0  0  0  0  0  0
  -26.0052  -30.7192   21.3896 C   0  0  0  0  0  0
  -26.0767  -29.3319   20.7282 C   0  0  0  0  0  0
  -27.2386  -28.4703   20.7274 C   0  0  0  0  0  0
  -26.0107  -26.8123   19.4826 C   0  0  0  0  0  0
  -24.8768  -27.6494   19.4737 C   0  0  0  0  0  0
  -23.6743  -29.7989   20.1540 C   0  0  0  0  0  0
  -25.4127  -36.3034   24.0315 C   0  0  1  0  0  0
  -20.5925  -28.3720   23.1235 C   0  0  2  0  0  0
  -20.6794  -26.9423   22.5404 C   0  0  0  0  0  0
  -19.5763  -26.6377   21.5215 C   0  0  0  0  0  0
  -18.1947  -26.7930   22.1628 C   0  0  0  0  0  0
  -19.1569  -28.8877   23.2847 C   0  0  0  0  0  0
  -18.9480  -30.1472   23.8872 C   0  0  0  0  0  0
  -17.6474  -30.6587   24.0560 C   0  0  0  0  0  0
  -25.9076  -34.9406   23.5066 C   0  0  0  0  0  0
  -16.5368  -29.9079   23.6333 C   0  0  0  0  0  0
  -16.7296  -28.6499   23.0353 C   0  0  0  0  0  0
  -26.4529  -31.6564   25.0728 C   0  0  0  0  0  0
  -25.3706  -31.3765   26.1420 C   0  0  0  0  0  0
  -27.0385  -30.2951   24.6320 C   0  0  0  0  0  0
  -27.6061  -32.4328   25.7511 C   0  0  0  0  0  0
  -27.5573  -37.1796   24.8471 C   0  0  0  0  0  0
  -21.4268  -29.3048   22.3606 N   0  0  0  0  0  0
  -26.4295  -37.3739   23.9395 N   0  0  0  0  0  0
  -24.7189  -31.0306   22.0930 N   0  0  0  0  0  0
  -23.4222  -28.8090   23.3003 O   0  0  0  0  0  0
  -28.2628  -26.1435   20.2061 O   0  0  0  0  0  0
  -26.5660  -34.8903   22.4643 O   0  0  0  0  0  0
  -23.5560  -32.1329   23.7109 O   0  0  0  0  0  0
  -30.5556  -18.5556   20.3651 C   0  0  0  0  0  0
  -30.2820  -19.9982   20.2907 C   0  0  0  0  0  0
  -28.2396  -18.1427   20.4896 C   0  0  0  0  0  0
  -29.5376  -17.5370   20.4734 C   0  0  0  0  0  0
  -28.9593  -20.5786   20.3041 C   0  0  0  0  0  0
  -27.9644  -19.5572   20.3992 C   0  0  0  0  0  0
  -28.9304  -23.3609   20.2667 C   0  0  0  0  0  0
  -27.9099  -24.6404   20.0006 C   0  0  0  0  0  0
  -28.4680  -22.0258   20.1786 N   0  0  0  0  0  0
  -29.6243  -16.0086   20.6072 N   0  0  0  0  0  0
  -30.1122  -23.5927   20.5350 O   0  0  0  0  0  0
  -26.6671  -19.9507   20.4038 F   0  0  0  0  0  0
  -31.4844  -12.7383   19.1752 H   0  0  0  0  0  0
  -30.4520  -11.6030   19.9989 H   0  0  0  0  0  0
  -29.8366  -11.7451   17.5617 H   0  0  0  0  0  0
  -29.6166  -13.4710   17.6997 H   0  0  0  0  0  0
  -27.9406  -11.2757   18.9515 H   0  0  0  0  0  0
  -27.3953  -12.4769   17.8097 H   0  0  0  0  0  0
  -27.6101  -14.2476   19.4324 H   0  0  0  0  0  0
  -28.7617  -12.2309   21.4245 H   0  0  0  0  0  0
  -28.3859  -13.8962   21.7849 H   0  0  0  0  0  0
  -25.2767   -9.5674   22.4762 H   0  0  0  0  0  0
  -23.9995   -7.4633   22.7476 H   0  0  0  0  0  0
  -21.0839   -8.8784   19.8959 H   0  0  0  0  0  0
  -22.3705  -10.9676   19.6171 H   0  0  0  0  0  0
  -21.2010   -7.6141   23.9709 H   0  0  0  0  0  0
  -21.1483   -6.0517   25.9072 H   0  0  0  0  0  0
  -22.0596   -2.7603   23.2848 H   0  0  0  0  0  0
  -22.4073  -11.9888   22.4838 H   0  0  0  0  0  0
  -21.1080  -13.1251   22.2629 H   0  0  0  0  0  0
  -24.6299  -15.8279   20.4806 H   0  0  0  0  0  0
  -26.2201  -15.6099   19.9582 H   0  0  0  0  0  0
  -26.7284  -32.5304   23.1019 H   0  0  0  0  0  0
  -25.0087  -33.9620   25.0332 H   0  0  0  0  0  0
  -22.7507  -31.2922   21.3828 H   0  0  0  0  0  0
  -23.3749  -35.9597   23.3319 H   0  0  0  0  0  0
  -24.3573  -36.8871   22.2053 H   0  0  0  0  0  0
  -23.7267  -37.6465   23.6669 H   0  0  0  0  0  0
  -26.1638  -31.4760   20.6202 H   0  0  0  0  0  0
  -26.8746  -30.7664   22.0337 H   0  0  0  0  0  0
  -28.1353  -28.7977   21.2346 H   0  0  0  0  0  0
  -25.8960  -25.8642   18.9812 H   0  0  0  0  0  0
  -23.9771  -27.3112   18.9782 H   0  0  0  0  0  0
  -23.8123  -30.5751   19.4004 H   0  0  0  0  0  0
  -22.7889  -29.2427   19.8418 H   0  0  0  0  0  0
  -25.1316  -36.1868   25.0809 H   0  0  0  0  0  0
  -21.0023  -28.3313   24.1353 H   0  0  0  0  0  0
  -20.5685  -26.2336   23.3623 H   0  0  0  0  0  0
  -21.6660  -26.7422   22.1202 H   0  0  0  0  0  0
  -19.6920  -25.6282   21.1257 H   0  0  0  0  0  0
  -19.6691  -27.3176   20.6736 H   0  0  0  0  0  0
  -17.4212  -26.6677   21.4036 H   0  0  0  0  0  0
  -18.0343  -26.0079   22.9031 H   0  0  0  0  0  0
  -19.7955  -30.7300   24.2228 H   0  0  0  0  0  0
  -17.5024  -31.6263   24.5165 H   0  0  0  0  0  0
  -15.5366  -30.2968   23.7664 H   0  0  0  0  0  0
  -15.8700  -28.0805   22.7076 H   0  0  0  0  0  0
  -24.5890  -30.7107   25.7742 H   0  0  0  0  0  0
  -24.8890  -32.2951   26.4780 H   0  0  0  0  0  0
  -25.7980  -30.8981   27.0239 H   0  0  0  0  0  0
  -26.3004  -29.6679   24.1307 H   0  0  0  0  0  0
  -27.3959  -29.7249   25.4905 H   0  0  0  0  0  0
  -27.8931  -30.4168   23.9663 H   0  0  0  0  0  0
  -27.2655  -33.3642   26.2046 H   0  0  0  0  0  0
  -28.3893  -32.6869   25.0356 H   0  0  0  0  0  0
  -28.0707  -31.8484   26.5461 H   0  0  0  0  0  0
  -28.2614  -38.0066   24.7468 H   0  0  0  0  0  0
  -28.1045  -36.2596   24.6362 H   0  0  0  0  0  0
  -27.2283  -37.1523   25.8873 H   0  0  0  0  0  0
  -20.9479  -29.8766   21.6786 H   0  0  0  0  0  0
  -26.0164  -38.2816   24.1359 H   0  0  0  0  0  0
  -31.5893  -18.2394   20.3456 H   0  0  0  0  0  0
  -31.1257  -20.6684   20.2073 H   0  0  0  0  0  0
  -27.3790  -17.4966   20.5727 H   0  0  0  0  0  0
  -27.0217  -24.4352   20.5988 H   0  0  0  0  0  0
  -27.6067  -24.5279   18.9598 H   0  0  0  0  0  0
  -27.4699  -22.0293   20.0105 H   0  0  0  0  0  0
  -28.7206  -15.6158   20.8204 H   0  0  0  0  0  0
  1 25  1  0  0  0
  1 30  2  0  0  0
  1 80  1  0  0  0
  2  3  1  0  0  0
  2 25  1  0  0  0
  2 83  1  0  0  0
  2 84  1  0  0  0
  3  4  1  0  0  0
  3 85  1  0  0  0
  3 86  1  0  0  0
  4  5  1  0  0  0
  4 87  1  0  0  0
  4 88  1  0  0  0
  5  6  1  0  0  0
  5 26  1  0  0  0
  5 89  1  0  0  0
  6 25  1  0  0  0
  6 90  1  0  0  0
  6 91  1  0  0  0
  7  8  2  0  0  0
  7 26  1  0  0  0
  7 29  1  0  0  0
  8  9  1  0  0  0
  8 22  1  0  0  0
  9 10  1  0  0  0
  9 27  2  0  0  0
 10 11  2  0  0  0
 10 15  1  0  0  0
 11 12  1  0  0  0
 11 92  1  0  0  0
 12 13  2  0  0  0
 12 93  1  0  0  0
 13 14  1  0  0  0
 13 31  1  0  0  0
 14 15  2  0  0  0
 14 94  1  0  0  0
 15 95  1  0  0  0
 16 17  2  0  0  0
 16 21  1  0  0  0
 16 31  1  0  0  0
 17 18  1  0  0  0
 17 96  1  0  0  0
 18 19  2  0  0  0
 18 97  1  0  0  0
 19 20  1  0  0  0
 19 24  1  0  0  0
 20 21  2  0  0  0
 20 98  1  0  0  0
 21 23  1  0  0  0
 22 28  1  0  0  0
 22 32  2  0  0  0
 26 27  1  0  0  0
 28 99  1  0  0  0
 28100  1  0  0  0
 29101  1  0  0  0
 29102  1  0  0  0
 33 34  1  0  0  0
 33 66  1  0  0  0
 33 70  2  0  0  0
 34 36  1  0  0  0
 34 59  1  0  0  0
 34103  1  0  0  0
 35 44  2  0  0  0
 35 45  1  0  0  0
 35 68  1  0  0  0
 36 56  1  0  0  0
 36104  1  0  0  0
 37 39  1  0  0  0
 37 47  1  0  0  0
 37 66  1  0  0  0
 37105  1  0  0  0
 38 43  2  0  0  0
 38 46  1  0  0  0
 38 47  1  0  0  0
 39 64  1  0  0  0
 39 67  2  0  0  0
 40 52  1  0  0  0
 40 53  2  0  0  0
 40 58  1  0  0  0
 41106  1  0  0  0
 41107  1  0  0  0
 41108  1  0  0  0
 41 48  1  0  0  0
 42 43  1  0  0  0
 42 66  1  0  0  0
 42109  1  0  0  0
 42110  1  0  0  0
 43 44  1  0  0  0
 44111  1  0  0  0
 45 46  2  0  0  0
 45112  1  0  0  0
 46113  1  0  0  0
 47114  1  0  0  0
 47115  1  0  0  0
 48 56  1  0  0  0
 48 65  1  0  0  0
 48116  1  0  0  0
 49 50  1  0  0  0
 49 53  1  0  0  0
 49 64  1  0  0  0
 49117  1  0  0  0
 50 51  1  0  0  0
 50118  1  0  0  0
 50119  1  0  0  0
 51 52  1  0  0  0
 51120  1  0  0  0
 51121  1  0  0  0
 52122  1  0  0  0
 52123  1  0  0  0
 53 54  1  0  0  0
 54 55  2  0  0  0
 54124  1  0  0  0
 55 57  1  0  0  0
 55125  1  0  0  0
 56 69  2  0  0  0
 57 58  2  0  0  0
 57126  1  0  0  0
 58127  1  0  0  0
 59 60  1  0  0  0
 59 61  1  0  0  0
 59 62  1  0  0  0
 60128  1  0  0  0
 60129  1  0  0  0
 60130  1  0  0  0
 61131  1  0  0  0
 61132  1  0  0  0
 61133  1  0  0  0
 62134  1  0  0  0
 62135  1  0  0  0
 62136  1  0  0  0
 63 65  1  0  0  0
 63137  1  0  0  0
 63138  1  0  0  0
 63139  1  0  0  0
 64140  1  0  0  0
 65141  1  0  0  0
 68 78  1  0  0  0
 71 72  2  0  0  0
 71 74  1  0  0  0
 71142  1  0  0  0
 72 75  1  0  0  0
 72143  1  0  0  0
 73 74  2  0  0  0
 73 76  1  0  0  0
 73144  1  0  0  0
 74 80  1  0  0  0
 75 76  2  0  0  0
 75 79  1  0  0  0
 76 82  1  0  0  0
 77 78  1  0  0  0
 77 79  1  0  0  0
 77 81  2  0  0  0
 78145  1  0  0  0
 78146  1  0  0  0
 79147  1  0  0  0
 80148  1  0  0  0
M  ISO  4   1 100  68 101  78 101  80 100
M  END
> <chiral flag>
0

> <version>
0

> <s_m_source_file>
/data/baiqing/PycharmProjects/Reinvent-master-3.2/result/LINK_invent/BTK/process_docking_weight1_custom_sum_contain_oxygen_bond_distance_aromatic_linkinvent_7_9_3/rearranged_h_0009.sdf

> <i_m_source_file_index>
12

> <r_mmod_Potential_Energy-OPLS-2005>
408.086791992188

> <r_mmod_Stretch_Energy-OPLS-2005>
218.79460144043

> <r_mmod_Bend_Energy-OPLS-2005>
281.798767089844

> <r_mmod_Torsional_Energy-OPLS-2005>
220.497772216797

> <r_mmod_Improper_Torsional_Energy-OPLS-2005>
5.07187652587891

> <r_mmod_Van_der_Waal_Energy-OPLS-2005>
130.193206787109

> <r_mmod_Electrostatic_Energy-OPLS-2005>
-389.395721435547

> <r_mmod_Solvation_Energy-OPLS-2005>
-242.372695922852

> <b_mmod_Minimization_Converged-OPLS-2005>
0

> <r_mmod_RMS_Derivative-OPLS-2005>
0.813941478729248

$$$$
12
                    3D
 Structure written by MMmdl.
152160  0  0  1  0            999 V2000
  -30.6277  -14.6294   20.4980 C   0  0  0  0  0  0
  -30.4393  -12.3863   19.4469 C   0  0  0  0  0  0
  -29.5055  -12.5053   18.2216 C   0  0  0  0  0  0
  -28.0285  -12.3459   18.6359 C   0  0  0  0  0  0
  -27.6541  -13.2160   19.8655 C   0  0  2  0  0  0
  -28.7016  -13.0646   20.9922 C   0  0  0  0  0  0
  -25.2555  -13.8160   20.5693 C   0  0  0  0  0  0
  -24.1817  -13.0421   20.9157 C   0  0  0  0  0  0
  -24.6395  -11.6897   20.8725 C   0  0  0  0  0  0
  -23.9064  -10.4284   21.0397 C   0  0  0  0  0  0
  -24.3615   -9.4204   21.9180 C   0  0  0  0  0  0
  -23.6289   -8.2240   22.0753 C   0  0  0  0  0  0
  -22.4272   -8.0276   21.3542 C   0  0  0  0  0  0
  -21.9905   -9.0249   20.4644 C   0  0  0  0  0  0
  -22.7234  -10.2127   20.3051 C   0  0  0  0  0  0
  -21.6852   -6.0733   22.5278 C   0  0  0  0  0  0
  -21.4014   -6.5638   23.8210 C   0  0  0  0  0  0
  -21.3659   -5.6792   24.9172 C   0  0  0  0  0  0
  -21.6044   -4.3054   24.7225 C   0  0  0  0  0  0
  -21.8821   -3.8146   23.4346 C   0  0  0  0  0  0
  -21.9193   -4.6961   22.3401 C   0  0  0  0  0  0
  -22.7841  -13.5216   21.1834 C   0  0  0  0  0  0
  -22.1661   -4.2147   21.0979 F   0  0  0  0  0  0
  -21.5628   -3.4539   25.7739 F   0  0  0  0  0  0
  -30.0177  -13.4048   20.4273 N   0  0  0  0  0  0
  -26.3000  -12.9352   20.3351 N   0  0  0  0  0  0
  -25.9331  -11.6503   20.5768 N   0  0  0  0  0  0
  -22.0496  -12.8212   22.0402 N   0  0  0  0  0  0
  -25.4226  -15.1887   20.4187 N   0  0  0  0  0  0
  -31.7924  -14.7913   20.1228 O   0  0  0  0  0  0
  -21.6635   -6.8875   21.4240 O   0  0  0  0  0  0
  -22.3519  -14.5526   20.6692 O   0  0  0  0  0  0
  -24.6256  -31.8613   23.2042 C   0  0  0  0  0  0
  -25.9109  -32.4785   23.8365 C   0  0  1  0  0  0
  -27.2232  -27.3290   20.1086 C   0  0  0  0  0  0
  -25.5933  -33.8586   24.2291 N   0  0  0  0  0  0
  -23.4180  -30.4863   21.5473 C   0  0  2  0  0  0
  -24.8629  -28.9457   20.1112 C   0  0  0  0  0  0
  -22.7474  -29.4628   22.4946 C   0  0  0  0  0  0
  -18.0285  -28.1374   22.8480 C   0  0  0  0  0  0
  -24.1490  -36.7293   23.2640 C   0  0  0  0  0  0
  -25.9589  -30.7951   21.3736 C   0  0  0  0  0  0
  -26.0329  -29.4238   20.7145 C   0  0  0  0  0  0
  -27.2164  -28.6275   20.7037 C   0  0  0  0  0  0
  -26.0263  -26.9047   19.4828 C   0  0  0  0  0  0
  -24.8609  -27.6905   19.4878 C   0  0  0  0  0  0
  -23.6312  -29.8251   20.1612 C   0  0  0  0  0  0
  -25.4113  -36.3087   24.0330 C   0  0  1  0  0  0
  -20.5885  -28.3682   23.1280 C   0  0  2  0  0  0
  -20.6774  -26.9406   22.5402 C   0  0  0  0  0  0
  -19.5751  -26.6379   21.5201 C   0  0  0  0  0  0
  -18.1932  -26.7917   22.1615 C   0  0  0  0  0  0
  -19.1536  -28.8844   23.2874 C   0  0  0  0  0  0
  -18.9464  -30.1446   23.8892 C   0  0  0  0  0  0
  -17.6467  -30.6582   24.0558 C   0  0  0  0  0  0
  -25.9051  -34.9457   23.5108 C   0  0  0  0  0  0
  -16.5356  -29.9082   23.6326 C   0  0  0  0  0  0
  -16.7273  -28.6496   23.0348 C   0  0  0  0  0  0
  -26.4501  -31.6587   25.0726 C   0  0  0  0  0  0
  -25.3739  -31.3713   26.1458 C   0  0  0  0  0  0
  -27.0345  -30.3016   24.6159 C   0  0  0  0  0  0
  -27.6067  -32.4318   25.7496 C   0  0  0  0  0  0
  -27.5579  -37.1803   24.8467 C   0  0  0  0  0  0
  -21.4188  -29.3043   22.3685 N   0  0  0  0  0  0
  -26.4293  -37.3780   23.9410 N   0  0  0  0  0  0
  -24.6864  -31.0636   22.0986 N   0  0  0  0  0  0
  -23.4203  -28.8165   23.3020 O   0  0  0  0  0  0
  -28.3431  -26.4819   20.1555 O   0  0  0  0  0  0
  -26.5619  -34.8922   22.4674 O   0  0  0  0  0  0
  -23.5423  -32.1409   23.7375 O   0  0  0  0  0  0
  -31.1103  -19.2766   20.4270 C   0  0  0  0  0  0
  -31.1197  -17.8533   20.5200 C   0  0  0  0  0  0
  -28.7132  -19.3054   20.6227 C   0  0  0  0  0  0
  -29.9150  -20.0452   20.4791 C   0  0  0  0  0  0
  -29.9168  -17.1190   20.6787 C   0  0  0  0  0  0
  -28.7196  -17.8819   20.7251 C   0  0  0  0  0  0
  -29.2531  -23.9849   20.3327 C   0  0  0  0  0  0
  -28.8666  -22.4388   20.2474 C   0  0  0  0  0  0
  -28.1050  -25.0290   20.0068 C   0  0  0  0  0  0
  -29.8093  -15.6712   20.8318 N   0  0  0  0  0  0
  -29.9954  -21.4759   20.4049 N   0  0  0  0  0  0
  -27.5437  -17.2241   20.8723 F   0  0  0  0  0  0
  -31.4799  -12.5120   19.1429 H   0  0  0  0  0  0
  -30.3743  -11.3902   19.8869 H   0  0  0  0  0  0
  -29.7662  -11.7539   17.4750 H   0  0  0  0  0  0
  -29.6483  -13.4750   17.7417 H   0  0  0  0  0  0
  -27.8644  -11.2928   18.8671 H   0  0  0  0  0  0
  -27.3725  -12.5775   17.7959 H   0  0  0  0  0  0
  -27.6710  -14.2517   19.5258 H   0  0  0  0  0  0
  -28.7123  -12.0412   21.3706 H   0  0  0  0  0  0
  -28.4518  -13.6935   21.8479 H   0  0  0  0  0  0
  -25.2763   -9.5681   22.4751 H   0  0  0  0  0  0
  -23.9996   -7.4636   22.7478 H   0  0  0  0  0  0
  -21.0833   -8.8769   19.8954 H   0  0  0  0  0  0
  -22.3693  -10.9665   19.6158 H   0  0  0  0  0  0
  -21.2008   -7.6149   23.9713 H   0  0  0  0  0  0
  -21.1478   -6.0523   25.9076 H   0  0  0  0  0  0
  -22.0601   -2.7609   23.2847 H   0  0  0  0  0  0
  -22.4116  -11.9870   22.4781 H   0  0  0  0  0  0
  -21.1120  -13.1242   22.2625 H   0  0  0  0  0  0
  -24.6604  -15.8384   20.5728 H   0  0  0  0  0  0
  -26.2973  -15.6603   20.2196 H   0  0  0  0  0  0
  -26.7179  -32.5458   23.1117 H   0  0  0  0  0  0
  -25.0095  -33.9729   25.0447 H   0  0  0  0  0  0
  -22.7109  -31.3064   21.4068 H   0  0  0  0  0  0
  -23.3753  -35.9627   23.3306 H   0  0  0  0  0  0
  -24.3582  -36.8908   22.2055 H   0  0  0  0  0  0
  -23.7242  -37.6495   23.6658 H   0  0  0  0  0  0
  -26.0889  -31.5599   20.6067 H   0  0  0  0  0  0
  -26.8400  -30.8430   22.0016 H   0  0  0  0  0  0
  -28.1140  -28.9900   21.1854 H   0  0  0  0  0  0
  -25.9544  -25.9489   18.9873 H   0  0  0  0  0  0
  -23.9646  -27.3180   19.0110 H   0  0  0  0  0  0
  -23.7505  -30.6036   19.4066 H   0  0  0  0  0  0
  -22.7508  -29.2556   19.8578 H   0  0  0  0  0  0
  -25.1291  -36.1944   25.0822 H   0  0  0  0  0  0
  -20.9971  -28.3255   24.1404 H   0  0  0  0  0  0
  -20.5668  -26.2296   23.3603 H   0  0  0  0  0  0
  -21.6645  -26.7435   22.1199 H   0  0  0  0  0  0
  -19.6917  -25.6290   21.1229 H   0  0  0  0  0  0
  -19.6684  -27.3194   20.6733 H   0  0  0  0  0  0
  -17.4198  -26.6658   21.4021 H   0  0  0  0  0  0
  -18.0337  -26.0057   22.9010 H   0  0  0  0  0  0
  -19.7946  -30.7253   24.2264 H   0  0  0  0  0  0
  -17.5028  -31.6262   24.5162 H   0  0  0  0  0  0
  -15.5356  -30.2986   23.7653 H   0  0  0  0  0  0
  -15.8670  -28.0816   22.7070 H   0  0  0  0  0  0
  -24.5922  -30.7050   25.7791 H   0  0  0  0  0  0
  -24.8919  -32.2874   26.4884 H   0  0  0  0  0  0
  -25.8072  -30.8897   27.0232 H   0  0  0  0  0  0
  -26.2909  -29.6764   24.1201 H   0  0  0  0  0  0
  -27.4083  -29.7271   25.4645 H   0  0  0  0  0  0
  -27.8763  -30.4318   23.9352 H   0  0  0  0  0  0
  -27.2684  -33.3624   26.2068 H   0  0  0  0  0  0
  -28.3882  -32.6867   25.0323 H   0  0  0  0  0  0
  -28.0732  -31.8443   26.5415 H   0  0  0  0  0  0
  -28.2600  -38.0099   24.7512 H   0  0  0  0  0  0
  -28.1070  -36.2628   24.6294 H   0  0  0  0  0  0
  -27.2294  -37.1454   25.8870 H   0  0  0  0  0  0
  -20.9367  -29.8783   21.6908 H   0  0  0  0  0  0
  -26.0173  -38.2855   24.1415 H   0  0  0  0  0  0
  -32.0603  -19.7811   20.3182 H   0  0  0  0  0  0
  -32.0688  -17.3390   20.4825 H   0  0  0  0  0  0
  -27.7649  -19.8187   20.6717 H   0  0  0  0  0  0
  -30.0827  -24.1818   19.6530 H   0  0  0  0  0  0
  -29.6322  -24.1934   21.3336 H   0  0  0  0  0  0
  -28.3951  -22.2470   19.2820 H   0  0  0  0  0  0
  -28.1087  -22.2219   21.0019 H   0  0  0  0  0  0
  -27.8088  -24.8426   18.9741 H   0  0  0  0  0  0
  -27.2483  -24.7622   20.6286 H   0  0  0  0  0  0
  -28.8812  -15.3714   21.0895 H   0  0  0  0  0  0
  -30.9277  -21.8702   20.2977 H   0  0  0  0  0  0
  1 25  1  0  0  0
  1 30  2  0  0  0
  1 80  1  0  0  0
  2  3  1  0  0  0
  2 25  1  0  0  0
  2 83  1  0  0  0
  2 84  1  0  0  0
  3  4  1  0  0  0
  3 85  1  0  0  0
  3 86  1  0  0  0
  4  5  1  0  0  0
  4 87  1  0  0  0
  4 88  1  0  0  0
  5  6  1  0  0  0
  5 26  1  0  0  0
  5 89  1  0  0  0
  6 25  1  0  0  0
  6 90  1  0  0  0
  6 91  1  0  0  0
  7  8  2  0  0  0
  7 26  1  0  0  0
  7 29  1  0  0  0
  8  9  1  0  0  0
  8 22  1  0  0  0
  9 10  1  0  0  0
  9 27  2  0  0  0
 10 11  2  0  0  0
 10 15  1  0  0  0
 11 12  1  0  0  0
 11 92  1  0  0  0
 12 13  2  0  0  0
 12 93  1  0  0  0
 13 14  1  0  0  0
 13 31  1  0  0  0
 14 15  2  0  0  0
 14 94  1  0  0  0
 15 95  1  0  0  0
 16 17  2  0  0  0
 16 21  1  0  0  0
 16 31  1  0  0  0
 17 18  1  0  0  0
 17 96  1  0  0  0
 18 19  2  0  0  0
 18 97  1  0  0  0
 19 20  1  0  0  0
 19 24  1  0  0  0
 20 21  2  0  0  0
 20 98  1  0  0  0
 21 23  1  0  0  0
 22 28  1  0  0  0
 22 32  2  0  0  0
 26 27  1  0  0  0
 28 99  1  0  0  0
 28100  1  0  0  0
 29101  1  0  0  0
 29102  1  0  0  0
 33 34  1  0  0  0
 33 66  1  0  0  0
 33 70  2  0  0  0
 34 36  1  0  0  0
 34 59  1  0  0  0
 34103  1  0  0  0
 35 44  2  0  0  0
 35 45  1  0  0  0
 35 68  1  0  0  0
 36 56  1  0  0  0
 36104  1  0  0  0
 37 39  1  0  0  0
 37 47  1  0  0  0
 37 66  1  0  0  0
 37105  1  0  0  0
 38 43  2  0  0  0
 38 46  1  0  0  0
 38 47  1  0  0  0
 39 64  1  0  0  0
 39 67  2  0  0  0
 40 52  1  0  0  0
 40 53  2  0  0  0
 40 58  1  0  0  0
 41106  1  0  0  0
 41107  1  0  0  0
 41108  1  0  0  0
 41 48  1  0  0  0
 42 43  1  0  0  0
 42 66  1  0  0  0
 42109  1  0  0  0
 42110  1  0  0  0
 43 44  1  0  0  0
 44111  1  0  0  0
 45 46  2  0  0  0
 45112  1  0  0  0
 46113  1  0  0  0
 47114  1  0  0  0
 47115  1  0  0  0
 48 56  1  0  0  0
 48 65  1  0  0  0
 48116  1  0  0  0
 49 50  1  0  0  0
 49 53  1  0  0  0
 49 64  1  0  0  0
 49117  1  0  0  0
 50 51  1  0  0  0
 50118  1  0  0  0
 50119  1  0  0  0
 51 52  1  0  0  0
 51120  1  0  0  0
 51121  1  0  0  0
 52122  1  0  0  0
 52123  1  0  0  0
 53 54  1  0  0  0
 54 55  2  0  0  0
 54124  1  0  0  0
 55 57  1  0  0  0
 55125  1  0  0  0
 56 69  2  0  0  0
 57 58  2  0  0  0
 57126  1  0  0  0
 58127  1  0  0  0
 59 60  1  0  0  0
 59 61  1  0  0  0
 59 62  1  0  0  0
 60128  1  0  0  0
 60129  1  0  0  0
 60130  1  0  0  0
 61131  1  0  0  0
 61132  1  0  0  0
 61133  1  0  0  0
 62134  1  0  0  0
 62135  1  0  0  0
 62136  1  0  0  0
 63 65  1  0  0  0
 63137  1  0  0  0
 63138  1  0  0  0
 63139  1  0  0  0
 64140  1  0  0  0
 65141  1  0  0  0
 68 79  1  0  0  0
 71 72  2  0  0  0
 71 74  1  0  0  0
 71142  1  0  0  0
 72 75  1  0  0  0
 72143  1  0  0  0
 73 74  2  0  0  0
 73 76  1  0  0  0
 73144  1  0  0  0
 74 81  1  0  0  0
 75 76  2  0  0  0
 75 80  1  0  0  0
 76 82  1  0  0  0
 77 78  1  0  0  0
 77 79  1  0  0  0
 77145  1  0  0  0
 77146  1  0  0  0
 78 81  1  0  0  0
 78147  1  0  0  0
 78148  1  0  0  0
 79149  1  0  0  0
 79150  1  0  0  0
 80151  1  0  0  0
 81152  1  0  0  0
M  ISO  4   1 100  68 101  79 101  80 100
M  END
> <chiral flag>
0

> <version>
0

> <s_m_source_file>
/data/baiqing/PycharmProjects/Reinvent-master-3.2/result/LINK_invent/BTK/process_docking_weight1_custom_sum_contain_oxygen_bond_distance_aromatic_linkinvent_7_9_3/rearranged_h_0009.sdf

> <i_m_source_file_index>
13

> <r_mmod_Potential_Energy-OPLS-2005>
-1.59744024276733

> <r_mmod_Stretch_Energy-OPLS-2005>
71.6558456420898

> <r_mmod_Bend_Energy-OPLS-2005>
143.812271118164

> <r_mmod_Torsional_Energy-OPLS-2005>
200.10888671875

> <r_mmod_Improper_Torsional_Energy-OPLS-2005>
4.6348934173584

> <r_mmod_Van_der_Waal_Energy-OPLS-2005>
145.609085083008

> <r_mmod_Electrostatic_Energy-OPLS-2005>
-403.753173828125

> <r_mmod_Solvation_Energy-OPLS-2005>
-208.76188659668

> <b_mmod_Minimization_Converged-OPLS-2005>
0

> <r_mmod_RMS_Derivative-OPLS-2005>
0.584842085838318

$$$$
13
                    3D
 Structure written by MMmdl.
151159  0  0  1  0            999 V2000
  -30.6225  -14.6233   20.5083 C   0  0  0  0  0  0
  -30.4418  -12.3822   19.4494 C   0  0  0  0  0  0
  -29.5096  -12.5061   18.2229 C   0  0  0  0  0  0
  -28.0318  -12.3445   18.6342 C   0  0  0  0  0  0
  -27.6567  -13.2123   19.8657 C   0  0  2  0  0  0
  -28.7008  -13.0502   20.9940 C   0  0  0  0  0  0
  -25.2577  -13.8162   20.5679 C   0  0  0  0  0  0
  -24.1839  -13.0434   20.9190 C   0  0  0  0  0  0
  -24.6398  -11.6903   20.8739 C   0  0  0  0  0  0
  -23.9060  -10.4291   21.0410 C   0  0  0  0  0  0
  -24.3613   -9.4210   21.9188 C   0  0  0  0  0  0
  -23.6292   -8.2241   22.0754 C   0  0  0  0  0  0
  -22.4275   -8.0276   21.3542 C   0  0  0  0  0  0
  -21.9906   -9.0253   20.4649 C   0  0  0  0  0  0
  -22.7232  -10.2135   20.3062 C   0  0  0  0  0  0
  -21.6848   -6.0738   22.5282 C   0  0  0  0  0  0
  -21.4009   -6.5641   23.8217 C   0  0  0  0  0  0
  -21.3661   -5.6789   24.9178 C   0  0  0  0  0  0
  -21.6043   -4.3053   24.7224 C   0  0  0  0  0  0
  -21.8819   -3.8147   23.4347 C   0  0  0  0  0  0
  -21.9191   -4.6965   22.3405 C   0  0  0  0  0  0
  -22.7863  -13.5237   21.1853 C   0  0  0  0  0  0
  -22.1662   -4.2155   21.0982 F   0  0  0  0  0  0
  -21.5630   -3.4532   25.7736 F   0  0  0  0  0  0
  -30.0198  -13.3948   20.4368 N   0  0  0  0  0  0
  -26.3004  -12.9336   20.3314 N   0  0  0  0  0  0
  -25.9321  -11.6495   20.5748 N   0  0  0  0  0  0
  -22.0494  -12.8238   22.0409 N   0  0  0  0  0  0
  -25.4295  -15.1884   20.4095 N   0  0  0  0  0  0
  -31.7781  -14.7966   20.1076 O   0  0  0  0  0  0
  -21.6635   -6.8879   21.4244 O   0  0  0  0  0  0
  -22.3554  -14.5543   20.6698 O   0  0  0  0  0  0
  -24.6259  -31.8615   23.2045 C   0  0  0  0  0  0
  -25.9110  -32.4786   23.8371 C   0  0  1  0  0  0
  -27.2178  -27.3267   20.1079 C   0  0  0  0  0  0
  -25.5929  -33.8586   24.2300 N   0  0  0  0  0  0
  -23.4182  -30.4886   21.5476 C   0  0  2  0  0  0
  -24.8621  -28.9486   20.1097 C   0  0  0  0  0  0
  -22.7472  -29.4639   22.4933 C   0  0  0  0  0  0
  -18.0289  -28.1385   22.8491 C   0  0  0  0  0  0
  -24.1488  -36.7292   23.2638 C   0  0  0  0  0  0
  -25.9606  -30.7946   21.3745 C   0  0  0  0  0  0
  -26.0329  -29.4239   20.7142 C   0  0  0  0  0  0
  -27.2142  -28.6248   20.7038 C   0  0  0  0  0  0
  -26.0216  -26.9067   19.4781 C   0  0  0  0  0  0
  -24.8583  -27.6951   19.4830 C   0  0  0  0  0  0
  -23.6315  -29.8295   20.1609 C   0  0  0  0  0  0
  -25.4110  -36.3087   24.0338 C   0  0  1  0  0  0
  -20.5892  -28.3687   23.1285 C   0  0  2  0  0  0
  -20.6777  -26.9412   22.5408 C   0  0  0  0  0  0
  -19.5752  -26.6390   21.5213 C   0  0  0  0  0  0
  -18.1934  -26.7929   22.1632 C   0  0  0  0  0  0
  -19.1541  -28.8851   23.2887 C   0  0  0  0  0  0
  -18.9462  -30.1455   23.8904 C   0  0  0  0  0  0
  -17.6461  -30.6589   24.0565 C   0  0  0  0  0  0
  -25.9050  -34.9454   23.5121 C   0  0  0  0  0  0
  -16.5353  -29.9089   23.6329 C   0  0  0  0  0  0
  -16.7276  -28.6505   23.0355 C   0  0  0  0  0  0
  -26.4492  -31.6584   25.0730 C   0  0  0  0  0  0
  -25.3730  -31.3730   26.1464 C   0  0  0  0  0  0
  -27.0317  -30.3006   24.6169 C   0  0  0  0  0  0
  -27.6076  -32.4293   25.7487 C   0  0  0  0  0  0
  -27.5581  -37.1800   24.8467 C   0  0  0  0  0  0
  -21.4186  -29.3045   22.3679 N   0  0  0  0  0  0
  -26.4289  -37.3779   23.9418 N   0  0  0  0  0  0
  -24.6875  -31.0639   22.0992 N   0  0  0  0  0  0
  -23.4198  -28.8169   23.3001 O   0  0  0  0  0  0
  -28.3324  -26.4737   20.1583 O   0  0  0  0  0  0
  -26.5610  -34.8915   22.4682 O   0  0  0  0  0  0
  -23.5422  -32.1408   23.7377 O   0  0  0  0  0  0
  -30.8900  -19.2621   20.0720 C   0  0  0  0  0  0
  -28.6856  -19.2877   21.0333 C   0  0  0  0  0  0
  -30.9401  -17.8400   20.1881 C   0  0  0  0  0  0
  -28.7393  -17.8687   21.1589 C   0  0  0  0  0  0
  -29.7645  -20.0285   20.4845 C   0  0  0  0  0  0
  -29.8612  -17.1018   20.7420 C   0  0  0  0  0  0
  -28.8226  -22.4378   20.3658 C   0  0  0  0  0  0
  -29.2124  -23.9702   20.3851 C   0  0  0  0  0  0
  -28.0842  -25.0211   20.0070 C   0  0  0  0  0  0
  -29.8105  -21.4895   20.3935 N   0  0  0  0  0  0
  -29.8109  -15.6499   20.9078 N   0  0  0  0  0  0
  -27.6301  -22.1276   20.3149 O   0  0  0  0  0  0
  -31.4830  -12.5093   19.1474 H   0  0  0  0  0  0
  -30.3772  -11.3830   19.8827 H   0  0  0  0  0  0
  -29.7730  -11.7585   17.4735 H   0  0  0  0  0  0
  -29.6529  -13.4779   17.7470 H   0  0  0  0  0  0
  -27.8679  -11.2908   18.8638 H   0  0  0  0  0  0
  -27.3769  -12.5764   17.7937 H   0  0  0  0  0  0
  -27.6803  -14.2501   19.5320 H   0  0  0  0  0  0
  -28.7081  -12.0226   21.3613 H   0  0  0  0  0  0
  -28.4453  -13.6671   21.8566 H   0  0  0  0  0  0
  -25.2760   -9.5681   22.4757 H   0  0  0  0  0  0
  -24.0004   -7.4629   22.7464 H   0  0  0  0  0  0
  -21.0837   -8.8770   19.8953 H   0  0  0  0  0  0
  -22.3692  -10.9671   19.6166 H   0  0  0  0  0  0
  -21.1999   -7.6149   23.9722 H   0  0  0  0  0  0
  -21.1484   -6.0519   25.9081 H   0  0  0  0  0  0
  -22.0598   -2.7608   23.2840 H   0  0  0  0  0  0
  -22.4096  -11.9898   22.4808 H   0  0  0  0  0  0
  -21.1113  -13.1276   22.2610 H   0  0  0  0  0  0
  -24.6577  -15.8384   20.5118 H   0  0  0  0  0  0
  -26.2703  -15.6250   20.0532 H   0  0  0  0  0  0
  -26.7178  -32.5454   23.1120 H   0  0  0  0  0  0
  -25.0075  -33.9729   25.0445 H   0  0  0  0  0  0
  -22.7129  -31.3109   21.4093 H   0  0  0  0  0  0
  -23.3756  -35.9617   23.3289 H   0  0  0  0  0  0
  -24.3591  -36.8916   22.2055 H   0  0  0  0  0  0
  -23.7228  -37.6490   23.6655 H   0  0  0  0  0  0
  -26.0939  -31.5600   20.6084 H   0  0  0  0  0  0
  -26.8407  -30.8406   22.0039 H   0  0  0  0  0  0
  -28.1123  -28.9845   21.1866 H   0  0  0  0  0  0
  -25.9485  -25.9523   18.9794 H   0  0  0  0  0  0
  -23.9617  -27.3275   19.0026 H   0  0  0  0  0  0
  -23.7517  -30.6094   19.4082 H   0  0  0  0  0  0
  -22.7492  -29.2629   19.8564 H   0  0  0  0  0  0
  -25.1285  -36.1945   25.0829 H   0  0  0  0  0  0
  -20.9999  -28.3257   24.1400 H   0  0  0  0  0  0
  -20.5692  -26.2292   23.3604 H   0  0  0  0  0  0
  -21.6646  -26.7449   22.1191 H   0  0  0  0  0  0
  -19.6909  -25.6303   21.1242 H   0  0  0  0  0  0
  -19.6685  -27.3204   20.6747 H   0  0  0  0  0  0
  -17.4201  -26.6676   21.4037 H   0  0  0  0  0  0
  -18.0338  -26.0074   22.9034 H   0  0  0  0  0  0
  -19.7934  -30.7271   24.2277 H   0  0  0  0  0  0
  -17.5015  -31.6271   24.5164 H   0  0  0  0  0  0
  -15.5352  -30.2994   23.7647 H   0  0  0  0  0  0
  -15.8680  -28.0829   22.7065 H   0  0  0  0  0  0
  -24.5873  -30.7121   25.7786 H   0  0  0  0  0  0
  -24.8955  -32.2901   26.4923 H   0  0  0  0  0  0
  -25.8046  -30.8865   27.0220 H   0  0  0  0  0  0
  -26.2877  -29.6765   24.1202 H   0  0  0  0  0  0
  -27.4031  -29.7254   25.4659 H   0  0  0  0  0  0
  -27.8747  -30.4296   23.9378 H   0  0  0  0  0  0
  -27.2732  -33.3616   26.2052 H   0  0  0  0  0  0
  -28.3890  -32.6809   25.0302 H   0  0  0  0  0  0
  -28.0733  -31.8408   26.5402 H   0  0  0  0  0  0
  -28.2599  -38.0098   24.7520 H   0  0  0  0  0  0
  -28.1079  -36.2633   24.6283 H   0  0  0  0  0  0
  -27.2303  -37.1432   25.8870 H   0  0  0  0  0  0
  -20.9357  -29.8774   21.6902 H   0  0  0  0  0  0
  -26.0175  -38.2857   24.1416 H   0  0  0  0  0  0
  -31.7477  -19.7682   19.6520 H   0  0  0  0  0  0
  -27.8046  -19.8023   21.3894 H   0  0  0  0  0  0
  -31.8293  -17.3304   19.8462 H   0  0  0  0  0  0
  -27.8869  -17.3668   21.5952 H   0  0  0  0  0  0
  -30.0681  -24.1163   19.7263 H   0  0  0  0  0  0
  -29.5639  -24.1927   21.3921 H   0  0  0  0  0  0
  -27.2039  -24.7700   20.6018 H   0  0  0  0  0  0
  -27.8172  -24.8330   18.9663 H   0  0  0  0  0  0
  -30.7424  -21.8769   20.3285 H   0  0  0  0  0  0
  -28.9344  -15.3091   21.2715 H   0  0  0  0  0  0
  1 25  1  0  0  0
  1 30  2  0  0  0
  1 81  1  0  0  0
  2  3  1  0  0  0
  2 25  1  0  0  0
  2 83  1  0  0  0
  2 84  1  0  0  0
  3  4  1  0  0  0
  3 85  1  0  0  0
  3 86  1  0  0  0
  4  5  1  0  0  0
  4 87  1  0  0  0
  4 88  1  0  0  0
  5  6  1  0  0  0
  5 26  1  0  0  0
  5 89  1  0  0  0
  6 25  1  0  0  0
  6 90  1  0  0  0
  6 91  1  0  0  0
  7  8  2  0  0  0
  7 26  1  0  0  0
  7 29  1  0  0  0
  8  9  1  0  0  0
  8 22  1  0  0  0
  9 10  1  0  0  0
  9 27  2  0  0  0
 10 11  2  0  0  0
 10 15  1  0  0  0
 11 12  1  0  0  0
 11 92  1  0  0  0
 12 13  2  0  0  0
 12 93  1  0  0  0
 13 14  1  0  0  0
 13 31  1  0  0  0
 14 15  2  0  0  0
 14 94  1  0  0  0
 15 95  1  0  0  0
 16 17  2  0  0  0
 16 21  1  0  0  0
 16 31  1  0  0  0
 17 18  1  0  0  0
 17 96  1  0  0  0
 18 19  2  0  0  0
 18 97  1  0  0  0
 19 20  1  0  0  0
 19 24  1  0  0  0
 20 21  2  0  0  0
 20 98  1  0  0  0
 21 23  1  0  0  0
 22 28  1  0  0  0
 22 32  2  0  0  0
 26 27  1  0  0  0
 28 99  1  0  0  0
 28100  1  0  0  0
 29101  1  0  0  0
 29102  1  0  0  0
 33 34  1  0  0  0
 33 66  1  0  0  0
 33 70  2  0  0  0
 34 36  1  0  0  0
 34 59  1  0  0  0
 34103  1  0  0  0
 35 44  2  0  0  0
 35 45  1  0  0  0
 35 68  1  0  0  0
 36 56  1  0  0  0
 36104  1  0  0  0
 37 39  1  0  0  0
 37 47  1  0  0  0
 37 66  1  0  0  0
 37105  1  0  0  0
 38 43  2  0  0  0
 38 46  1  0  0  0
 38 47  1  0  0  0
 39 64  1  0  0  0
 39 67  2  0  0  0
 40 52  1  0  0  0
 40 53  2  0  0  0
 40 58  1  0  0  0
 41106  1  0  0  0
 41107  1  0  0  0
 41108  1  0  0  0
 41 48  1  0  0  0
 42 43  1  0  0  0
 42 66  1  0  0  0
 42109  1  0  0  0
 42110  1  0  0  0
 43 44  1  0  0  0
 44111  1  0  0  0
 45 46  2  0  0  0
 45112  1  0  0  0
 46113  1  0  0  0
 47114  1  0  0  0
 47115  1  0  0  0
 48 56  1  0  0  0
 48 65  1  0  0  0
 48116  1  0  0  0
 49 50  1  0  0  0
 49 53  1  0  0  0
 49 64  1  0  0  0
 49117  1  0  0  0
 50 51  1  0  0  0
 50118  1  0  0  0
 50119  1  0  0  0
 51 52  1  0  0  0
 51120  1  0  0  0
 51121  1  0  0  0
 52122  1  0  0  0
 52123  1  0  0  0
 53 54  1  0  0  0
 54 55  2  0  0  0
 54124  1  0  0  0
 55 57  1  0  0  0
 55125  1  0  0  0
 56 69  2  0  0  0
 57 58  2  0  0  0
 57126  1  0  0  0
 58127  1  0  0  0
 59 60  1  0  0  0
 59 61  1  0  0  0
 59 62  1  0  0  0
 60128  1  0  0  0
 60129  1  0  0  0
 60130  1  0  0  0
 61131  1  0  0  0
 61132  1  0  0  0
 61133  1  0  0  0
 62134  1  0  0  0
 62135  1  0  0  0
 62136  1  0  0  0
 63 65  1  0  0  0
 63137  1  0  0  0
 63138  1  0  0  0
 63139  1  0  0  0
 64140  1  0  0  0
 65141  1  0  0  0
 68 79  1  0  0  0
 71 73  2  0  0  0
 71 75  1  0  0  0
 71142  1  0  0  0
 72 74  1  0  0  0
 72 75  2  0  0  0
 72143  1  0  0  0
 73 76  1  0  0  0
 73144  1  0  0  0
 74 76  2  0  0  0
 74145  1  0  0  0
 75 80  1  0  0  0
 76 81  1  0  0  0
 77 78  1  0  0  0
 77 80  1  0  0  0
 77 82  2  0  0  0
 78 79  1  0  0  0
 78146  1  0  0  0
 78147  1  0  0  0
 79148  1  0  0  0
 79149  1  0  0  0
 80150  1  0  0  0
 81151  1  0  0  0
M  ISO  4   1 100  68 101  79 101  81 100
M  END
> <chiral flag>
0

> <version>
0

> <s_m_source_file>
/data/baiqing/PycharmProjects/Reinvent-master-3.2/result/LINK_invent/BTK/process_docking_weight1_custom_sum_contain_oxygen_bond_distance_aromatic_linkinvent_7_9_3/rearranged_h_0009.sdf

> <i_m_source_file_index>
14

> <r_mmod_Potential_Energy-OPLS-2005>
-22.6337127685547

> <r_mmod_Stretch_Energy-OPLS-2005>
74.1388244628906

> <r_mmod_Bend_Energy-OPLS-2005>
136.268478393555

> <r_mmod_Torsional_Energy-OPLS-2005>
219.131301879883

> <r_mmod_Improper_Torsional_Energy-OPLS-2005>
3.96359419822693

> <r_mmod_Van_der_Waal_Energy-OPLS-2005>
148.799301147461

> <r_mmod_Electrostatic_Energy-OPLS-2005>
-419.957763671875

> <r_mmod_Solvation_Energy-OPLS-2005>
-229.819793701172

> <b_mmod_Minimization_Converged-OPLS-2005>
0

> <r_mmod_RMS_Derivative-OPLS-2005>
0.986919105052948

$$$$
14
                    3D
 Structure written by MMmdl.
157165  0  0  1  0            999 V2000
  -30.5152  -14.9077   20.4436 C   0  0  0  0  0  0
  -30.4469  -12.5558   19.5015 C   0  0  0  0  0  0
  -29.5250  -12.5333   18.2581 C   0  0  0  0  0  0
  -28.0530  -12.3297   18.6680 C   0  0  0  0  0  0
  -27.6388  -13.2397   19.8540 C   0  0  2  0  0  0
  -28.6799  -13.2081   20.9930 C   0  0  0  0  0  0
  -25.2480  -13.8188   20.5663 C   0  0  0  0  0  0
  -24.1791  -13.0432   20.9222 C   0  0  0  0  0  0
  -24.6392  -11.6915   20.8763 C   0  0  0  0  0  0
  -23.9071  -10.4285   21.0414 C   0  0  0  0  0  0
  -24.3618   -9.4200   21.9189 C   0  0  0  0  0  0
  -23.6294   -8.2236   22.0756 C   0  0  0  0  0  0
  -22.4274   -8.0277   21.3545 C   0  0  0  0  0  0
  -21.9910   -9.0253   20.4647 C   0  0  0  0  0  0
  -22.7243  -10.2133   20.3060 C   0  0  0  0  0  0
  -21.6855   -6.0734   22.5281 C   0  0  0  0  0  0
  -21.4006   -6.5639   23.8215 C   0  0  0  0  0  0
  -21.3655   -5.6797   24.9178 C   0  0  0  0  0  0
  -21.6047   -4.3060   24.7230 C   0  0  0  0  0  0
  -21.8820   -3.8145   23.4356 C   0  0  0  0  0  0
  -21.9191   -4.6956   22.3407 C   0  0  0  0  0  0
  -22.7810  -13.5210   21.1884 C   0  0  0  0  0  0
  -22.1664   -4.2138   21.0987 F   0  0  0  0  0  0
  -21.5631   -3.4548   25.7747 F   0  0  0  0  0  0
  -29.9637  -13.6290   20.4153 N   0  0  0  0  0  0
  -26.2913  -12.9414   20.3278 N   0  0  0  0  0  0
  -25.9326  -11.6553   20.5765 N   0  0  0  0  0  0
  -22.0466  -12.8190   22.0439 N   0  0  0  0  0  0
  -25.4146  -15.1902   20.3974 N   0  0  0  0  0  0
  -31.6926  -15.0334   20.0862 O   0  0  0  0  0  0
  -21.6638   -6.8876   21.4242 O   0  0  0  0  0  0
  -22.3495  -14.5518   20.6736 O   0  0  0  0  0  0
  -24.6382  -31.8470   23.1888 C   0  0  0  0  0  0
  -25.9176  -32.4701   23.8261 C   0  0  1  0  0  0
  -27.2181  -27.1524   20.1457 C   0  0  0  0  0  0
  -25.5929  -33.8506   24.2157 N   0  0  0  0  0  0
  -23.4408  -30.4656   21.5335 C   0  0  2  0  0  0
  -24.8916  -28.8967   20.1075 C   0  0  0  0  0  0
  -22.7540  -29.4553   22.4866 C   0  0  0  0  0  0
  -18.0277  -28.1418   22.8498 C   0  0  0  0  0  0
  -24.1466  -36.7257   23.2645 C   0  0  0  0  0  0
  -25.9936  -30.7267   21.3849 C   0  0  0  0  0  0
  -26.0656  -29.3373   20.7291 C   0  0  0  0  0  0
  -27.2263  -28.4794   20.7349 C   0  0  0  0  0  0
  -26.0149  -26.8106   19.4857 C   0  0  0  0  0  0
  -24.8774  -27.6457   19.4745 C   0  0  0  0  0  0
  -23.6668  -29.7962   20.1508 C   0  0  0  0  0  0
  -25.4103  -36.3030   24.0307 C   0  0  1  0  0  0
  -20.5880  -28.3730   23.1249 C   0  0  2  0  0  0
  -20.6726  -26.9424   22.5420 C   0  0  0  0  0  0
  -19.5700  -26.6391   21.5211 C   0  0  0  0  0  0
  -18.1891  -26.7959   22.1639 C   0  0  0  0  0  0
  -19.1537  -28.8895   23.2869 C   0  0  0  0  0  0
  -18.9478  -30.1503   23.8879 C   0  0  0  0  0  0
  -17.6473  -30.6622   24.0567 C   0  0  0  0  0  0
  -25.9074  -34.9419   23.5042 C   0  0  0  0  0  0
  -16.5353  -29.9117   23.6348 C   0  0  0  0  0  0
  -16.7267  -28.6531   23.0373 C   0  0  0  0  0  0
  -26.4512  -31.6564   25.0701 C   0  0  0  0  0  0
  -25.3701  -31.3759   26.1394 C   0  0  0  0  0  0
  -27.0366  -30.2949   24.6287 C   0  0  0  0  0  0
  -27.6055  -32.4314   25.7493 C   0  0  0  0  0  0
  -27.5552  -37.1766   24.8460 C   0  0  0  0  0  0
  -21.4232  -29.3059   22.3640 N   0  0  0  0  0  0
  -26.4261  -37.3742   23.9422 N   0  0  0  0  0  0
  -24.7102  -31.0351   22.0908 N   0  0  0  0  0  0
  -23.4211  -28.8096   23.2997 O   0  0  0  0  0  0
  -28.2946  -26.2015   20.2573 O   0  0  0  0  0  0
  -26.5688  -34.8942   22.4638 O   0  0  0  0  0  0
  -23.5521  -32.1358   23.7132 O   0  0  0  0  0  0
  -28.6375  -17.3538   24.6065 C   0  0  0  0  0  0
  -28.1836  -17.5414   23.4905 C   0  0  0  0  0  0
  -30.4438  -19.7422   19.5758 C   0  0  0  0  0  0
  -30.5536  -18.3071   19.7621 C   0  0  0  0  0  0
  -28.6032  -19.8485   21.0191 C   0  0  0  0  0  0
  -28.6892  -18.3984   21.2073 C   0  0  0  0  0  0
  -29.4699  -20.6271   20.1842 C   0  0  0  0  0  0
  -29.6755  -17.5370   20.5814 C   0  0  0  0  0  0
  -30.5992  -22.5780   19.1998 C   0  0  0  0  0  0
  -27.6539  -17.7793   22.1364 C   0  0  0  0  0  0
  -28.6604  -23.3082   20.5845 C   0  0  0  0  0  0
  -28.3116  -24.7355   19.7431 C   0  0  0  0  0  0
  -29.6818  -16.0112   20.7527 N   0  0  0  0  0  0
  -29.4175  -22.1082   19.9284 N   0  0  0  0  0  0
  -31.4829  -12.7133   19.1981 H   0  0  0  0  0  0
  -30.4325  -11.5903   20.0094 H   0  0  0  0  0  0
  -29.8365  -11.7471   17.5691 H   0  0  0  0  0  0
  -29.6217  -13.4733   17.7125 H   0  0  0  0  0  0
  -27.9309  -11.2830   18.9497 H   0  0  0  0  0  0
  -27.3939  -12.4938   17.8135 H   0  0  0  0  0  0
  -27.6215  -14.2544   19.4571 H   0  0  0  0  0  0
  -28.7564  -12.2048   21.4179 H   0  0  0  0  0  0
  -28.3854  -13.8655   21.8117 H   0  0  0  0  0  0
  -25.2760   -9.5688   22.4765 H   0  0  0  0  0  0
  -24.0018   -7.4624   22.7467 H   0  0  0  0  0  0
  -21.0853   -8.8759   19.8939 H   0  0  0  0  0  0
  -22.3699  -10.9669   19.6168 H   0  0  0  0  0  0
  -21.1989   -7.6146   23.9716 H   0  0  0  0  0  0
  -21.1480   -6.0527   25.9086 H   0  0  0  0  0  0
  -22.0601   -2.7603   23.2863 H   0  0  0  0  0  0
  -22.4106  -11.9860   22.4823 H   0  0  0  0  0  0
  -21.1065  -13.1177   22.2638 H   0  0  0  0  0  0
  -24.6319  -15.8314   20.4672 H   0  0  0  0  0  0
  -26.2294  -15.6068   19.9659 H   0  0  0  0  0  0
  -26.7247  -32.5324   23.1009 H   0  0  0  0  0  0
  -24.9945  -33.9585   25.0216 H   0  0  0  0  0  0
  -22.7408  -31.2892   21.3804 H   0  0  0  0  0  0
  -23.3735  -35.9577   23.3299 H   0  0  0  0  0  0
  -24.3536  -36.8907   22.2058 H   0  0  0  0  0  0
  -23.7235  -37.6453   23.6706 H   0  0  0  0  0  0
  -26.1382  -31.4834   20.6124 H   0  0  0  0  0  0
  -26.8646  -30.7808   22.0227 H   0  0  0  0  0  0
  -28.1219  -28.8102   21.2447 H   0  0  0  0  0  0
  -25.8940  -25.8628   18.9902 H   0  0  0  0  0  0
  -23.9801  -27.2996   18.9794 H   0  0  0  0  0  0
  -23.8027  -30.5724   19.3963 H   0  0  0  0  0  0
  -22.7815  -29.2381   19.8395 H   0  0  0  0  0  0
  -25.1282  -36.1842   25.0791 H   0  0  0  0  0  0
  -20.9966  -28.3331   24.1368 H   0  0  0  0  0  0
  -20.5554  -26.2361   23.3655 H   0  0  0  0  0  0
  -21.6610  -26.7392   22.1251 H   0  0  0  0  0  0
  -19.6848  -25.6293   21.1246 H   0  0  0  0  0  0
  -19.6622  -27.3201   20.6728 H   0  0  0  0  0  0
  -17.4130  -26.6724   21.4059 H   0  0  0  0  0  0
  -18.0322  -26.0101   22.9038 H   0  0  0  0  0  0
  -19.7959  -30.7327   24.2240 H   0  0  0  0  0  0
  -17.5023  -31.6291   24.5200 H   0  0  0  0  0  0
  -15.5355  -30.3011   23.7688 H   0  0  0  0  0  0
  -15.8661  -28.0849   22.7082 H   0  0  0  0  0  0
  -24.5926  -30.7049   25.7726 H   0  0  0  0  0  0
  -24.8856  -32.2934   26.4731 H   0  0  0  0  0  0
  -25.7981  -30.9016   27.0233 H   0  0  0  0  0  0
  -26.2975  -29.6669   24.1293 H   0  0  0  0  0  0
  -27.3952  -29.7258   25.4886 H   0  0  0  0  0  0
  -27.8892  -30.4151   23.9596 H   0  0  0  0  0  0
  -27.2661  -33.3647   26.2002 H   0  0  0  0  0  0
  -28.3909  -32.6802   25.0340 H   0  0  0  0  0  0
  -28.0670  -31.8481   26.5476 H   0  0  0  0  0  0
  -28.2549  -38.0077   24.7500 H   0  0  0  0  0  0
  -28.1052  -36.2608   24.6261 H   0  0  0  0  0  0
  -27.2275  -37.1377   25.8861 H   0  0  0  0  0  0
  -20.9446  -29.8810   21.6845 H   0  0  0  0  0  0
  -26.0124  -38.2793   24.1475 H   0  0  0  0  0  0
  -29.0312  -17.1901   25.5866 H   0  0  0  0  0  0
  -31.1783  -20.1453   18.8971 H   0  0  0  0  0  0
  -31.3382  -17.7904   19.2272 H   0  0  0  0  0  0
  -27.8205  -20.3825   21.5393 H   0  0  0  0  0  0
  -30.4893  -22.3921   18.1301 H   0  0  0  0  0  0
  -31.5161  -22.1036   19.5496 H   0  0  0  0  0  0
  -30.7765  -23.6446   19.3319 H   0  0  0  0  0  0
  -26.7840  -18.4304   22.2327 H   0  0  0  0  0  0
  -27.2858  -16.8360   21.7350 H   0  0  0  0  0  0
  -27.7254  -22.9311   21.0017 H   0  0  0  0  0  0
  -29.2491  -23.5895   21.4577 H   0  0  0  0  0  0
  -27.4049  -24.5218   19.1882 H   0  0  0  0  0  0
  -29.0484  -24.8098   18.9449 H   0  0  0  0  0  0
  -28.8209  -15.6731   21.1532 H   0  0  0  0  0  0
  1 25  1  0  0  0
  1 30  2  0  0  0
  1 83  1  0  0  0
  2  3  1  0  0  0
  2 25  1  0  0  0
  2 85  1  0  0  0
  2 86  1  0  0  0
  3  4  1  0  0  0
  3 87  1  0  0  0
  3 88  1  0  0  0
  4  5  1  0  0  0
  4 89  1  0  0  0
  4 90  1  0  0  0
  5  6  1  0  0  0
  5 26  1  0  0  0
  5 91  1  0  0  0
  6 25  1  0  0  0
  6 92  1  0  0  0
  6 93  1  0  0  0
  7  8  2  0  0  0
  7 26  1  0  0  0
  7 29  1  0  0  0
  8  9  1  0  0  0
  8 22  1  0  0  0
  9 10  1  0  0  0
  9 27  2  0  0  0
 10 11  2  0  0  0
 10 15  1  0  0  0
 11 12  1  0  0  0
 11 94  1  0  0  0
 12 13  2  0  0  0
 12 95  1  0  0  0
 13 14  1  0  0  0
 13 31  1  0  0  0
 14 15  2  0  0  0
 14 96  1  0  0  0
 15 97  1  0  0  0
 16 17  2  0  0  0
 16 21  1  0  0  0
 16 31  1  0  0  0
 17 18  1  0  0  0
 17 98  1  0  0  0
 18 19  2  0  0  0
 18 99  1  0  0  0
 19 20  1  0  0  0
 19 24  1  0  0  0
 20 21  2  0  0  0
 20100  1  0  0  0
 21 23  1  0  0  0
 22 28  1  0  0  0
 22 32  2  0  0  0
 26 27  1  0  0  0
 28101  1  0  0  0
 28102  1  0  0  0
 29103  1  0  0  0
 29104  1  0  0  0
 33 34  1  0  0  0
 33 66  1  0  0  0
 33 70  2  0  0  0
 34 36  1  0  0  0
 34 59  1  0  0  0
 34105  1  0  0  0
 35 44  2  0  0  0
 35 45  1  0  0  0
 35 68  1  0  0  0
 36 56  1  0  0  0
 36106  1  0  0  0
 37 39  1  0  0  0
 37 47  1  0  0  0
 37 66  1  0  0  0
 37107  1  0  0  0
 38 43  2  0  0  0
 38 46  1  0  0  0
 38 47  1  0  0  0
 39 64  1  0  0  0
 39 67  2  0  0  0
 40 52  1  0  0  0
 40 53  2  0  0  0
 40 58  1  0  0  0
 41108  1  0  0  0
 41109  1  0  0  0
 41110  1  0  0  0
 41 48  1  0  0  0
 42 43  1  0  0  0
 42 66  1  0  0  0
 42111  1  0  0  0
 42112  1  0  0  0
 43 44  1  0  0  0
 44113  1  0  0  0
 45 46  2  0  0  0
 45114  1  0  0  0
 46115  1  0  0  0
 47116  1  0  0  0
 47117  1  0  0  0
 48 56  1  0  0  0
 48 65  1  0  0  0
 48118  1  0  0  0
 49 50  1  0  0  0
 49 53  1  0  0  0
 49 64  1  0  0  0
 49119  1  0  0  0
 50 51  1  0  0  0
 50120  1  0  0  0
 50121  1  0  0  0
 51 52  1  0  0  0
 51122  1  0  0  0
 51123  1  0  0  0
 52124  1  0  0  0
 52125  1  0  0  0
 53 54  1  0  0  0
 54 55  2  0  0  0
 54126  1  0  0  0
 55 57  1  0  0  0
 55127  1  0  0  0
 56 69  2  0  0  0
 57 58  2  0  0  0
 57128  1  0  0  0
 58129  1  0  0  0
 59 60  1  0  0  0
 59 61  1  0  0  0
 59 62  1  0  0  0
 60130  1  0  0  0
 60131  1  0  0  0
 60132  1  0  0  0
 61133  1  0  0  0
 61134  1  0  0  0
 61135  1  0  0  0
 62136  1  0  0  0
 62137  1  0  0  0
 62138  1  0  0  0
 63 65  1  0  0  0
 63139  1  0  0  0
 63140  1  0  0  0
 63141  1  0  0  0
 64142  1  0  0  0
 65143  1  0  0  0
 68 82  1  0  0  0
 71 72  3  0  0  0
 71144  1  0  0  0
 72 80  1  0  0  0
 73 74  2  0  0  0
 73 77  1  0  0  0
 73145  1  0  0  0
 74 78  1  0  0  0
 74146  1  0  0  0
 75 76  1  0  0  0
 75 77  2  0  0  0
 75147  1  0  0  0
 76 78  2  0  0  0
 76 80  1  0  0  0
 77 84  1  0  0  0
 78 83  1  0  0  0
 79 84  1  0  0  0
 79148  1  0  0  0
 79149  1  0  0  0
 79150  1  0  0  0
 80151  1  0  0  0
 80152  1  0  0  0
 81 82  1  0  0  0
 81 84  1  0  0  0
 81153  1  0  0  0
 81154  1  0  0  0
 82155  1  0  0  0
 82156  1  0  0  0
 83157  1  0  0  0
M  ISO  4   1 100  68 101  82 101  83 100
M  END
> <chiral flag>
0

> <version>
0

> <s_m_source_file>
/data/baiqing/PycharmProjects/Reinvent-master-3.2/result/LINK_invent/BTK/process_docking_weight1_custom_sum_contain_oxygen_bond_distance_aromatic_linkinvent_7_9_3/rearranged_h_0009.sdf

> <i_m_source_file_index>
15

> <r_mmod_Potential_Energy-OPLS-2005>
423.528259277344

> <r_mmod_Stretch_Energy-OPLS-2005>
231.135116577148

> <r_mmod_Bend_Energy-OPLS-2005>
284.096099853516

> <r_mmod_Torsional_Energy-OPLS-2005>
204.935806274414

> <r_mmod_Improper_Torsional_Energy-OPLS-2005>
4.97277402877808

> <r_mmod_Van_der_Waal_Energy-OPLS-2005>
140.52311706543

> <r_mmod_Electrostatic_Energy-OPLS-2005>
-377.885986328125

> <r_mmod_Solvation_Energy-OPLS-2005>
-232.821487426758

> <b_mmod_Minimization_Converged-OPLS-2005>
0

> <r_mmod_RMS_Derivative-OPLS-2005>
3.03878283500671

$$$$
15
                    3D
 Structure written by MMmdl.
151159  0  0  1  0            999 V2000
  -30.5189  -14.9203   20.4310 C   0  0  0  0  0  0
  -30.4489  -12.5652   19.5002 C   0  0  0  0  0  0
  -29.5257  -12.5342   18.2582 C   0  0  0  0  0  0
  -28.0561  -12.3243   18.6711 C   0  0  0  0  0  0
  -27.6379  -13.2419   19.8494 C   0  0  2  0  0  0
  -28.6798  -13.2282   20.9895 C   0  0  0  0  0  0
  -25.2494  -13.8207   20.5704 C   0  0  0  0  0  0
  -24.1798  -13.0441   20.9222 C   0  0  0  0  0  0
  -24.6402  -11.6922   20.8752 C   0  0  0  0  0  0
  -23.9080  -10.4295   21.0407 C   0  0  0  0  0  0
  -24.3627   -9.4208   21.9185 C   0  0  0  0  0  0
  -23.6298   -8.2245   22.0754 C   0  0  0  0  0  0
  -22.4280   -8.0284   21.3545 C   0  0  0  0  0  0
  -21.9919   -9.0259   20.4646 C   0  0  0  0  0  0
  -22.7251  -10.2137   20.3057 C   0  0  0  0  0  0
  -21.6855   -6.0737   22.5279 C   0  0  0  0  0  0
  -21.4015   -6.5640   23.8212 C   0  0  0  0  0  0
  -21.3660   -5.6793   24.9174 C   0  0  0  0  0  0
  -21.6044   -4.3055   24.7224 C   0  0  0  0  0  0
  -21.8819   -3.8148   23.4345 C   0  0  0  0  0  0
  -21.9193   -4.6965   22.3402 C   0  0  0  0  0  0
  -22.7817  -13.5217   21.1876 C   0  0  0  0  0  0
  -22.1661   -4.2151   21.0980 F   0  0  0  0  0  0
  -21.5629   -3.4539   25.7736 F   0  0  0  0  0  0
  -29.9651  -13.6426   20.4085 N   0  0  0  0  0  0
  -26.2922  -12.9427   20.3273 N   0  0  0  0  0  0
  -25.9337  -11.6562   20.5748 N   0  0  0  0  0  0
  -22.0465  -12.8205   22.0430 N   0  0  0  0  0  0
  -25.4169  -15.1931   20.4104 N   0  0  0  0  0  0
  -31.6984  -15.0436   20.0811 O   0  0  0  0  0  0
  -21.6642   -6.8882   21.4241 O   0  0  0  0  0  0
  -22.3500  -14.5520   20.6719 O   0  0  0  0  0  0
  -24.6427  -31.8440   23.1885 C   0  0  0  0  0  0
  -25.9202  -32.4693   23.8271 C   0  0  1  0  0  0
  -27.2199  -27.1376   20.1420 C   0  0  0  0  0  0
  -25.5953  -33.8501   24.2187 N   0  0  0  0  0  0
  -23.4460  -30.4636   21.5339 C   0  0  2  0  0  0
  -24.8952  -28.8920   20.1072 C   0  0  0  0  0  0
  -22.7564  -29.4545   22.4859 C   0  0  0  0  0  0
  -18.0304  -28.1396   22.8478 C   0  0  0  0  0  0
  -24.1492  -36.7253   23.2643 C   0  0  0  0  0  0
  -26.0017  -30.7164   21.3886 C   0  0  0  0  0  0
  -26.0707  -29.3285   20.7289 C   0  0  0  0  0  0
  -27.2288  -28.4651   20.7340 C   0  0  0  0  0  0
  -26.0170  -26.8057   19.4769 C   0  0  0  0  0  0
  -24.8814  -27.6442   19.4677 C   0  0  0  0  0  0
  -23.6716  -29.7935   20.1524 C   0  0  0  0  0  0
  -25.4124  -36.3031   24.0316 C   0  0  1  0  0  0
  -20.5915  -28.3720   23.1237 C   0  0  2  0  0  0
  -20.6788  -26.9424   22.5405 C   0  0  0  0  0  0
  -19.5762  -26.6381   21.5213 C   0  0  0  0  0  0
  -18.1943  -26.7935   22.1624 C   0  0  0  0  0  0
  -19.1560  -28.8876   23.2849 C   0  0  0  0  0  0
  -18.9477  -30.1473   23.8874 C   0  0  0  0  0  0
  -17.6474  -30.6593   24.0560 C   0  0  0  0  0  0
  -25.9075  -34.9407   23.5061 C   0  0  0  0  0  0
  -16.5364  -29.9086   23.6338 C   0  0  0  0  0  0
  -16.7288  -28.6505   23.0357 C   0  0  0  0  0  0
  -26.4525  -31.6565   25.0716 C   0  0  0  0  0  0
  -25.3709  -31.3756   26.1409 C   0  0  0  0  0  0
  -27.0395  -30.2962   24.6303 C   0  0  0  0  0  0
  -27.6053  -32.4336   25.7500 C   0  0  0  0  0  0
  -27.5575  -37.1784   24.8466 C   0  0  0  0  0  0
  -21.4257  -29.3045   22.3609 N   0  0  0  0  0  0
  -26.4287  -37.3745   23.9409 N   0  0  0  0  0  0
  -24.7166  -31.0295   22.0920 N   0  0  0  0  0  0
  -23.4209  -28.8095   23.3009 O   0  0  0  0  0  0
  -28.2914  -26.1755   20.2509 O   0  0  0  0  0  0
  -26.5661  -34.8905   22.4640 O   0  0  0  0  0  0
  -23.5548  -32.1319   23.7106 O   0  0  0  0  0  0
  -28.6464  -19.8495   21.1383 C   0  0  0  0  0  0
  -30.3885  -18.3254   19.5844 C   0  0  0  0  0  0
  -28.7926  -18.4068   21.3251 C   0  0  0  0  0  0
  -29.6720  -17.5538   20.5537 C   0  0  0  0  0  0
  -29.3380  -20.6117   20.1416 C   0  0  0  0  0  0
  -30.2214  -19.7569   19.3862 C   0  0  0  0  0  0
  -27.9421  -17.7560   22.4024 C   0  0  0  0  0  0
  -28.2846  -24.7008   19.7400 C   0  0  0  0  0  0
  -28.6431  -23.2520   20.5335 C   0  0  0  0  0  0
  -29.6861  -16.0271   20.7295 N   0  0  0  0  0  0
  -29.1995  -22.0299   19.7845 O   0  0  0  0  0  0
  -30.9463  -20.3324   18.3961 F   0  0  0  0  0  0
  -31.4827  -12.7286   19.1918 H   0  0  0  0  0  0
  -30.4414  -11.6016   20.0122 H   0  0  0  0  0  0
  -29.8389  -11.7456   17.5727 H   0  0  0  0  0  0
  -29.6203  -13.4725   17.7094 H   0  0  0  0  0  0
  -27.9426  -11.2792   18.9618 H   0  0  0  0  0  0
  -27.3952  -12.4759   17.8168 H   0  0  0  0  0  0
  -27.6143  -14.2531   19.4423 H   0  0  0  0  0  0
  -28.7561  -12.2362   21.4374 H   0  0  0  0  0  0
  -28.3806  -13.9023   21.7936 H   0  0  0  0  0  0
  -25.2770   -9.5683   22.4761 H   0  0  0  0  0  0
  -24.0005   -7.4635   22.7474 H   0  0  0  0  0  0
  -21.0850   -8.8781   19.8952 H   0  0  0  0  0  0
  -22.3710  -10.9677   19.6167 H   0  0  0  0  0  0
  -21.2008   -7.6149   23.9716 H   0  0  0  0  0  0
  -21.1482   -6.0523   25.9077 H   0  0  0  0  0  0
  -22.0597   -2.7610   23.2845 H   0  0  0  0  0  0
  -22.4085  -11.9869   22.4819 H   0  0  0  0  0  0
  -21.1081  -13.1225   22.2634 H   0  0  0  0  0  0
  -24.6409  -15.8391   20.5053 H   0  0  0  0  0  0
  -26.2479  -15.6284   20.0320 H   0  0  0  0  0  0
  -26.7265  -32.5295   23.0996 H   0  0  0  0  0  0
  -25.0079  -33.9616   25.0321 H   0  0  0  0  0  0
  -22.7485  -31.2896   21.3802 H   0  0  0  0  0  0
  -23.3760  -35.9579   23.3293 H   0  0  0  0  0  0
  -24.3576  -36.8898   22.2060 H   0  0  0  0  0  0
  -23.7241  -37.6444   23.6688 H   0  0  0  0  0  0
  -26.1597  -31.4714   20.6171 H   0  0  0  0  0  0
  -26.8715  -30.7645   22.0321 H   0  0  0  0  0  0
  -28.1217  -28.7928   21.2478 H   0  0  0  0  0  0
  -25.8958  -25.8607   18.9755 H   0  0  0  0  0  0
  -23.9836  -27.3055   18.9688 H   0  0  0  0  0  0
  -23.8073  -30.5685   19.3972 H   0  0  0  0  0  0
  -22.7864  -29.2353   19.8422 H   0  0  0  0  0  0
  -25.1313  -36.1858   25.0808 H   0  0  0  0  0  0
  -21.0008  -28.3309   24.1359 H   0  0  0  0  0  0
  -20.5680  -26.2334   23.3624 H   0  0  0  0  0  0
  -21.6653  -26.7430   22.1202 H   0  0  0  0  0  0
  -19.6923  -25.6287   21.1256 H   0  0  0  0  0  0
  -19.6699  -27.3180   20.6733 H   0  0  0  0  0  0
  -17.4212  -26.6679   21.4027 H   0  0  0  0  0  0
  -18.0342  -26.0083   22.9026 H   0  0  0  0  0  0
  -19.7953  -30.7296   24.2231 H   0  0  0  0  0  0
  -17.5027  -31.6270   24.5167 H   0  0  0  0  0  0
  -15.5364  -30.2981   23.7676 H   0  0  0  0  0  0
  -15.8688  -28.0817   22.7084 H   0  0  0  0  0  0
  -24.5895  -30.7096   25.7730 H   0  0  0  0  0  0
  -24.8889  -32.2938   26.4776 H   0  0  0  0  0  0
  -25.7990  -30.8968   27.0225 H   0  0  0  0  0  0
  -26.3016  -29.6679   24.1302 H   0  0  0  0  0  0
  -27.3999  -29.7268   25.4880 H   0  0  0  0  0  0
  -27.8928  -30.4199   23.9631 H   0  0  0  0  0  0
  -27.2644  -33.3658   26.2017 H   0  0  0  0  0  0
  -28.3895  -32.6861   25.0351 H   0  0  0  0  0  0
  -28.0686  -31.8502   26.5466 H   0  0  0  0  0  0
  -28.2585  -38.0087   24.7512 H   0  0  0  0  0  0
  -28.1078  -36.2616   24.6294 H   0  0  0  0  0  0
  -27.2292  -37.1431   25.8869 H   0  0  0  0  0  0
  -20.9466  -29.8757   21.6787 H   0  0  0  0  0  0
  -26.0152  -38.2812   24.1411 H   0  0  0  0  0  0
  -27.9438  -20.3804   21.7642 H   0  0  0  0  0  0
  -31.0723  -17.8087   18.9274 H   0  0  0  0  0  0
  -27.4256  -18.4972   23.0127 H   0  0  0  0  0  0
  -28.5603  -17.1543   23.0695 H   0  0  0  0  0  0
  -27.1881  -17.1085   21.9545 H   0  0  0  0  0  0
  -27.3737  -24.4971   19.1877 H   0  0  0  0  0  0
  -29.0345  -24.7497   18.9505 H   0  0  0  0  0  0
  -27.7582  -22.9347   21.0854 H   0  0  0  0  0  0
  -29.3868  -23.4815   21.2966 H   0  0  0  0  0  0
  -28.8265  -15.6895   21.1342 H   0  0  0  0  0  0
  1 25  1  0  0  0
  1 30  2  0  0  0
  1 80  1  0  0  0
  2  3  1  0  0  0
  2 25  1  0  0  0
  2 83  1  0  0  0
  2 84  1  0  0  0
  3  4  1  0  0  0
  3 85  1  0  0  0
  3 86  1  0  0  0
  4  5  1  0  0  0
  4 87  1  0  0  0
  4 88  1  0  0  0
  5  6  1  0  0  0
  5 26  1  0  0  0
  5 89  1  0  0  0
  6 25  1  0  0  0
  6 90  1  0  0  0
  6 91  1  0  0  0
  7  8  2  0  0  0
  7 26  1  0  0  0
  7 29  1  0  0  0
  8  9  1  0  0  0
  8 22  1  0  0  0
  9 10  1  0  0  0
  9 27  2  0  0  0
 10 11  2  0  0  0
 10 15  1  0  0  0
 11 12  1  0  0  0
 11 92  1  0  0  0
 12 13  2  0  0  0
 12 93  1  0  0  0
 13 14  1  0  0  0
 13 31  1  0  0  0
 14 15  2  0  0  0
 14 94  1  0  0  0
 15 95  1  0  0  0
 16 17  2  0  0  0
 16 21  1  0  0  0
 16 31  1  0  0  0
 17 18  1  0  0  0
 17 96  1  0  0  0
 18 19  2  0  0  0
 18 97  1  0  0  0
 19 20  1  0  0  0
 19 24  1  0  0  0
 20 21  2  0  0  0
 20 98  1  0  0  0
 21 23  1  0  0  0
 22 28  1  0  0  0
 22 32  2  0  0  0
 26 27  1  0  0  0
 28 99  1  0  0  0
 28100  1  0  0  0
 29101  1  0  0  0
 29102  1  0  0  0
 33 34  1  0  0  0
 33 66  1  0  0  0
 33 70  2  0  0  0
 34 36  1  0  0  0
 34 59  1  0  0  0
 34103  1  0  0  0
 35 44  2  0  0  0
 35 45  1  0  0  0
 35 68  1  0  0  0
 36 56  1  0  0  0
 36104  1  0  0  0
 37 39  1  0  0  0
 37 47  1  0  0  0
 37 66  1  0  0  0
 37105  1  0  0  0
 38 43  2  0  0  0
 38 46  1  0  0  0
 38 47  1  0  0  0
 39 64  1  0  0  0
 39 67  2  0  0  0
 40 52  1  0  0  0
 40 53  2  0  0  0
 40 58  1  0  0  0
 41106  1  0  0  0
 41107  1  0  0  0
 41108  1  0  0  0
 41 48  1  0  0  0
 42 43  1  0  0  0
 42 66  1  0  0  0
 42109  1  0  0  0
 42110  1  0  0  0
 43 44  1  0  0  0
 44111  1  0  0  0
 45 46  2  0  0  0
 45112  1  0  0  0
 46113  1  0  0  0
 47114  1  0  0  0
 47115  1  0  0  0
 48 56  1  0  0  0
 48 65  1  0  0  0
 48116  1  0  0  0
 49 50  1  0  0  0
 49 53  1  0  0  0
 49 64  1  0  0  0
 49117  1  0  0  0
 50 51  1  0  0  0
 50118  1  0  0  0
 50119  1  0  0  0
 51 52  1  0  0  0
 51120  1  0  0  0
 51121  1  0  0  0
 52122  1  0  0  0
 52123  1  0  0  0
 53 54  1  0  0  0
 54 55  2  0  0  0
 54124  1  0  0  0
 55 57  1  0  0  0
 55125  1  0  0  0
 56 69  2  0  0  0
 57 58  2  0  0  0
 57126  1  0  0  0
 58127  1  0  0  0
 59 60  1  0  0  0
 59 61  1  0  0  0
 59 62  1  0  0  0
 60128  1  0  0  0
 60129  1  0  0  0
 60130  1  0  0  0
 61131  1  0  0  0
 61132  1  0  0  0
 61133  1  0  0  0
 62134  1  0  0  0
 62135  1  0  0  0
 62136  1  0  0  0
 63 65  1  0  0  0
 63137  1  0  0  0
 63138  1  0  0  0
 63139  1  0  0  0
 64140  1  0  0  0
 65141  1  0  0  0
 68 78  1  0  0  0
 71 73  2  0  0  0
 71 75  1  0  0  0
 71142  1  0  0  0
 72 74  2  0  0  0
 72 76  1  0  0  0
 72143  1  0  0  0
 73 74  1  0  0  0
 73 77  1  0  0  0
 74 80  1  0  0  0
 75 76  2  0  0  0
 75 81  1  0  0  0
 76 82  1  0  0  0
 77144  1  0  0  0
 77145  1  0  0  0
 77146  1  0  0  0
 78 79  1  0  0  0
 78147  1  0  0  0
 78148  1  0  0  0
 79 81  1  0  0  0
 79149  1  0  0  0
 79150  1  0  0  0
 80151  1  0  0  0
M  ISO  4   1 100  68 101  78 101  80 100
M  END
> <chiral flag>
0

> <version>
0

> <s_m_source_file>
/data/baiqing/PycharmProjects/Reinvent-master-3.2/result/LINK_invent/BTK/process_docking_weight1_custom_sum_contain_oxygen_bond_distance_aromatic_linkinvent_7_9_3/rearranged_h_0009.sdf

> <i_m_source_file_index>
16

> <r_mmod_Potential_Energy-OPLS-2005>
484.711517333984

> <r_mmod_Stretch_Energy-OPLS-2005>
229.623840332031

> <r_mmod_Bend_Energy-OPLS-2005>
291.094299316406

> <r_mmod_Torsional_Energy-OPLS-2005>
215.976287841797

> <r_mmod_Improper_Torsional_Energy-OPLS-2005>
3.72254514694214

> <r_mmod_Van_der_Waal_Energy-OPLS-2005>
130.644683837891

> <r_mmod_Electrostatic_Energy-OPLS-2005>
-352.952209472656

> <r_mmod_Solvation_Energy-OPLS-2005>
-213.522888183594

> <b_mmod_Minimization_Converged-OPLS-2005>
0

> <r_mmod_RMS_Derivative-OPLS-2005>
0.15544182062149

$$$$
16
                    3D
 Structure written by MMmdl.
152160  0  0  1  0            999 V2000
  -30.5173  -14.9248   20.4308 C   0  0  0  0  0  0
  -30.4517  -12.5687   19.4956 C   0  0  0  0  0  0
  -29.5258  -12.5396   18.2555 C   0  0  0  0  0  0
  -28.0561  -12.3285   18.6687 C   0  0  0  0  0  0
  -27.6380  -13.2433   19.8489 C   0  0  2  0  0  0
  -28.6823  -13.2281   20.9870 C   0  0  0  0  0  0
  -25.2481  -13.8184   20.5687 C   0  0  0  0  0  0
  -24.1786  -13.0418   20.9181 C   0  0  0  0  0  0
  -24.6403  -11.6906   20.8724 C   0  0  0  0  0  0
  -23.9082  -10.4282   21.0392 C   0  0  0  0  0  0
  -24.3626   -9.4202   21.9176 C   0  0  0  0  0  0
  -23.6294   -8.2241   22.0753 C   0  0  0  0  0  0
  -22.4275   -8.0280   21.3542 C   0  0  0  0  0  0
  -21.9910   -9.0252   20.4645 C   0  0  0  0  0  0
  -22.7248  -10.2127   20.3050 C   0  0  0  0  0  0
  -21.6855   -6.0731   22.5275 C   0  0  0  0  0  0
  -21.4015   -6.5633   23.8209 C   0  0  0  0  0  0
  -21.3665   -5.6788   24.9171 C   0  0  0  0  0  0
  -21.6045   -4.3050   24.7224 C   0  0  0  0  0  0
  -21.8820   -3.8141   23.4346 C   0  0  0  0  0  0
  -21.9192   -4.6957   22.3399 C   0  0  0  0  0  0
  -22.7812  -13.5202   21.1852 C   0  0  0  0  0  0
  -22.1662   -4.2141   21.0979 F   0  0  0  0  0  0
  -21.5629   -3.4537   25.7739 F   0  0  0  0  0  0
  -29.9679  -13.6447   20.4044 N   0  0  0  0  0  0
  -26.2931  -12.9422   20.3280 N   0  0  0  0  0  0
  -25.9342  -11.6553   20.5737 N   0  0  0  0  0  0
  -22.0466  -12.8197   22.0420 N   0  0  0  0  0  0
  -25.4111  -15.1906   20.4132 N   0  0  0  0  0  0
  -31.7009  -15.0560   20.0984 O   0  0  0  0  0  0
  -21.6640   -6.8878   21.4239 O   0  0  0  0  0  0
  -22.3491  -14.5513   20.6718 O   0  0  0  0  0  0
  -24.6451  -31.8443   23.1894 C   0  0  0  0  0  0
  -25.9223  -32.4694   23.8285 C   0  0  1  0  0  0
  -27.2202  -27.1395   20.1423 C   0  0  0  0  0  0
  -25.5971  -33.8500   24.2200 N   0  0  0  0  0  0
  -23.4483  -30.4659   21.5341 C   0  0  2  0  0  0
  -24.8979  -28.8968   20.1096 C   0  0  0  0  0  0
  -22.7579  -29.4556   22.4847 C   0  0  0  0  0  0
  -18.0317  -28.1395   22.8475 C   0  0  0  0  0  0
  -24.1495  -36.7253   23.2640 C   0  0  0  0  0  0
  -26.0057  -30.7189   21.3893 C   0  0  0  0  0  0
  -26.0770  -29.3316   20.7284 C   0  0  0  0  0  0
  -27.2390  -28.4695   20.7287 C   0  0  0  0  0  0
  -26.0111  -26.8106   19.4857 C   0  0  0  0  0  0
  -24.8779  -27.6492   19.4736 C   0  0  0  0  0  0
  -23.6751  -29.7992   20.1526 C   0  0  0  0  0  0
  -25.4126  -36.3030   24.0315 C   0  0  1  0  0  0
  -20.5930  -28.3727   23.1224 C   0  0  2  0  0  0
  -20.6796  -26.9427   22.5402 C   0  0  0  0  0  0
  -19.5766  -26.6380   21.5211 C   0  0  0  0  0  0
  -18.1950  -26.7934   22.1624 C   0  0  0  0  0  0
  -19.1573  -28.8880   23.2844 C   0  0  0  0  0  0
  -18.9485  -30.1473   23.8872 C   0  0  0  0  0  0
  -17.6478  -30.6585   24.0561 C   0  0  0  0  0  0
  -25.9080  -34.9406   23.5065 C   0  0  0  0  0  0
  -16.5371  -29.9076   23.6332 C   0  0  0  0  0  0
  -16.7301  -28.6499   23.0350 C   0  0  0  0  0  0
  -26.4538  -31.6560   25.0728 C   0  0  0  0  0  0
  -25.3719  -31.3765   26.1422 C   0  0  0  0  0  0
  -27.0388  -30.2943   24.6327 C   0  0  0  0  0  0
  -27.6073  -32.4324   25.7507 C   0  0  0  0  0  0
  -27.5576  -37.1791   24.8469 C   0  0  0  0  0  0
  -21.4271  -29.3053   22.3591 N   0  0  0  0  0  0
  -26.4292  -37.3738   23.9403 N   0  0  0  0  0  0
  -24.7192  -31.0308   22.0923 N   0  0  0  0  0  0
  -23.4222  -28.8098   23.2995 O   0  0  0  0  0  0
  -28.2652  -26.1424   20.2083 O   0  0  0  0  0  0
  -26.5659  -34.8900   22.4640 O   0  0  0  0  0  0
  -23.5567  -32.1327   23.7105 O   0  0  0  0  0  0
  -30.2011  -19.9608   19.9523 C   0  0  0  0  0  0
  -30.4787  -18.5212   20.0238 C   0  0  0  0  0  0
  -28.1154  -19.5937   20.9859 C   0  0  0  0  0  0
  -28.9851  -20.5808   20.4207 C   0  0  0  0  0  0
  -29.5754  -17.5448   20.5839 C   0  0  0  0  0  0
  -28.3854  -18.1674   21.0839 C   0  0  0  0  0  0
  -28.9455  -23.3601   20.2621 C   0  0  0  0  0  0
  -26.4184  -17.8196   22.4321 C   0  0  0  0  0  0
  -27.9078  -24.6354   20.0412 C   0  0  0  0  0  0
  -28.4727  -22.0237   20.2831 N   0  0  0  0  0  0
  -29.6585  -16.0168   20.6940 N   0  0  0  0  0  0
  -30.1493  -23.5955   20.3965 O   0  0  0  0  0  0
  -27.4902  -17.2888   21.6620 O   0  0  0  0  0  0
  -31.4842  -12.7356   19.1857 H   0  0  0  0  0  0
  -30.4453  -11.6046   20.0061 H   0  0  0  0  0  0
  -29.8374  -11.7537   17.5661 H   0  0  0  0  0  0
  -29.6195  -13.4801   17.7107 H   0  0  0  0  0  0
  -27.9422  -11.2828   18.9554 H   0  0  0  0  0  0
  -27.3955  -12.4848   17.8148 H   0  0  0  0  0  0
  -27.6113  -14.2553   19.4436 H   0  0  0  0  0  0
  -28.7586  -12.2354   21.4329 H   0  0  0  0  0  0
  -28.3830  -13.9004   21.7927 H   0  0  0  0  0  0
  -25.2768   -9.5676   22.4754 H   0  0  0  0  0  0
  -23.9993   -7.4632   22.7480 H   0  0  0  0  0  0
  -21.0836   -8.8775   19.8959 H   0  0  0  0  0  0
  -22.3699  -10.9663   19.6163 H   0  0  0  0  0  0
  -21.2007   -7.6138   23.9708 H   0  0  0  0  0  0
  -21.1489   -6.0520   25.9074 H   0  0  0  0  0  0
  -22.0594   -2.7602   23.2848 H   0  0  0  0  0  0
  -22.4076  -11.9862   22.4816 H   0  0  0  0  0  0
  -21.1089  -13.1232   22.2629 H   0  0  0  0  0  0
  -24.6406  -15.8364   20.5410 H   0  0  0  0  0  0
  -26.2753  -15.6524   20.1607 H   0  0  0  0  0  0
  -26.7295  -32.5299   23.1019 H   0  0  0  0  0  0
  -25.0106  -33.9618   25.0341 H   0  0  0  0  0  0
  -22.7518  -31.2928   21.3810 H   0  0  0  0  0  0
  -23.3751  -35.9593   23.3308 H   0  0  0  0  0  0
  -24.3578  -36.8878   22.2054 H   0  0  0  0  0  0
  -23.7266  -37.6458   23.6674 H   0  0  0  0  0  0
  -26.1657  -31.4757   20.6199 H   0  0  0  0  0  0
  -26.8743  -30.7651   22.0345 H   0  0  0  0  0  0
  -28.1356  -28.7974   21.2357 H   0  0  0  0  0  0
  -25.8952  -25.8626   18.9851 H   0  0  0  0  0  0
  -23.9790  -27.3122   18.9757 H   0  0  0  0  0  0
  -23.8123  -30.5750   19.3980 H   0  0  0  0  0  0
  -22.7895  -29.2426   19.8408 H   0  0  0  0  0  0
  -25.1314  -36.1857   25.0807 H   0  0  0  0  0  0
  -21.0036  -28.3324   24.1340 H   0  0  0  0  0  0
  -20.5678  -26.2347   23.3626 H   0  0  0  0  0  0
  -21.6662  -26.7416   22.1207 H   0  0  0  0  0  0
  -19.6922  -25.6284   21.1255 H   0  0  0  0  0  0
  -19.6692  -27.3177   20.6729 H   0  0  0  0  0  0
  -17.4217  -26.6683   21.4030 H   0  0  0  0  0  0
  -18.0343  -26.0078   22.9024 H   0  0  0  0  0  0
  -19.7960  -30.7301   24.2227 H   0  0  0  0  0  0
  -17.5028  -31.6262   24.5168 H   0  0  0  0  0  0
  -15.5369  -30.2967   23.7663 H   0  0  0  0  0  0
  -15.8707  -28.0806   22.7070 H   0  0  0  0  0  0
  -24.5914  -30.7086   25.7758 H   0  0  0  0  0  0
  -24.8887  -32.2947   26.4769 H   0  0  0  0  0  0
  -25.8002  -30.9005   27.0253 H   0  0  0  0  0  0
  -26.3004  -29.6669   24.1319 H   0  0  0  0  0  0
  -27.3959  -29.7245   25.4919 H   0  0  0  0  0  0
  -27.8937  -30.4149   23.9670 H   0  0  0  0  0  0
  -27.2674  -33.3643   26.2035 H   0  0  0  0  0  0
  -28.3908  -32.6854   25.0352 H   0  0  0  0  0  0
  -28.0716  -31.8483   26.5464 H   0  0  0  0  0  0
  -28.2605  -38.0072   24.7481 H   0  0  0  0  0  0
  -28.1059  -36.2605   24.6334 H   0  0  0  0  0  0
  -27.2294  -37.1487   25.8872 H   0  0  0  0  0  0
  -20.9482  -29.8769   21.6769 H   0  0  0  0  0  0
  -26.0157  -38.2811   24.1376 H   0  0  0  0  0  0
  -30.9424  -20.5926   19.4824 H   0  0  0  0  0  0
  -31.4133  -18.1680   19.6119 H   0  0  0  0  0  0
  -27.1724  -19.9687   21.3515 H   0  0  0  0  0  0
  -25.9071  -17.0071   22.9480 H   0  0  0  0  0  0
  -25.6823  -18.3181   21.8007 H   0  0  0  0  0  0
  -26.7724  -18.5158   23.1940 H   0  0  0  0  0  0
  -27.0485  -24.4355   20.6824 H   0  0  0  0  0  0
  -27.5571  -24.5058   19.0179 H   0  0  0  0  0  0
  -27.4625  -22.0478   20.2401 H   0  0  0  0  0  0
  -28.7754  -15.6573   21.0259 H   0  0  0  0  0  0
  1 25  1  0  0  0
  1 30  2  0  0  0
  1 81  1  0  0  0
  2  3  1  0  0  0
  2 25  1  0  0  0
  2 84  1  0  0  0
  2 85  1  0  0  0
  3  4  1  0  0  0
  3 86  1  0  0  0
  3 87  1  0  0  0
  4  5  1  0  0  0
  4 88  1  0  0  0
  4 89  1  0  0  0
  5  6  1  0  0  0
  5 26  1  0  0  0
  5 90  1  0  0  0
  6 25  1  0  0  0
  6 91  1  0  0  0
  6 92  1  0  0  0
  7  8  2  0  0  0
  7 26  1  0  0  0
  7 29  1  0  0  0
  8  9  1  0  0  0
  8 22  1  0  0  0
  9 10  1  0  0  0
  9 27  2  0  0  0
 10 11  2  0  0  0
 10 15  1  0  0  0
 11 12  1  0  0  0
 11 93  1  0  0  0
 12 13  2  0  0  0
 12 94  1  0  0  0
 13 14  1  0  0  0
 13 31  1  0  0  0
 14 15  2  0  0  0
 14 95  1  0  0  0
 15 96  1  0  0  0
 16 17  2  0  0  0
 16 21  1  0  0  0
 16 31  1  0  0  0
 17 18  1  0  0  0
 17 97  1  0  0  0
 18 19  2  0  0  0
 18 98  1  0  0  0
 19 20  1  0  0  0
 19 24  1  0  0  0
 20 21  2  0  0  0
 20 99  1  0  0  0
 21 23  1  0  0  0
 22 28  1  0  0  0
 22 32  2  0  0  0
 26 27  1  0  0  0
 28100  1  0  0  0
 28101  1  0  0  0
 29102  1  0  0  0
 29103  1  0  0  0
 33 34  1  0  0  0
 33 66  1  0  0  0
 33 70  2  0  0  0
 34 36  1  0  0  0
 34 59  1  0  0  0
 34104  1  0  0  0
 35 44  2  0  0  0
 35 45  1  0  0  0
 35 68  1  0  0  0
 36 56  1  0  0  0
 36105  1  0  0  0
 37 39  1  0  0  0
 37 47  1  0  0  0
 37 66  1  0  0  0
 37106  1  0  0  0
 38 43  2  0  0  0
 38 46  1  0  0  0
 38 47  1  0  0  0
 39 64  1  0  0  0
 39 67  2  0  0  0
 40 52  1  0  0  0
 40 53  2  0  0  0
 40 58  1  0  0  0
 41107  1  0  0  0
 41108  1  0  0  0
 41109  1  0  0  0
 41 48  1  0  0  0
 42 43  1  0  0  0
 42 66  1  0  0  0
 42110  1  0  0  0
 42111  1  0  0  0
 43 44  1  0  0  0
 44112  1  0  0  0
 45 46  2  0  0  0
 45113  1  0  0  0
 46114  1  0  0  0
 47115  1  0  0  0
 47116  1  0  0  0
 48 56  1  0  0  0
 48 65  1  0  0  0
 48117  1  0  0  0
 49 50  1  0  0  0
 49 53  1  0  0  0
 49 64  1  0  0  0
 49118  1  0  0  0
 50 51  1  0  0  0
 50119  1  0  0  0
 50120  1  0  0  0
 51 52  1  0  0  0
 51121  1  0  0  0
 51122  1  0  0  0
 52123  1  0  0  0
 52124  1  0  0  0
 53 54  1  0  0  0
 54 55  2  0  0  0
 54125  1  0  0  0
 55 57  1  0  0  0
 55126  1  0  0  0
 56 69  2  0  0  0
 57 58  2  0  0  0
 57127  1  0  0  0
 58128  1  0  0  0
 59 60  1  0  0  0
 59 61  1  0  0  0
 59 62  1  0  0  0
 60129  1  0  0  0
 60130  1  0  0  0
 60131  1  0  0  0
 61132  1  0  0  0
 61133  1  0  0  0
 61134  1  0  0  0
 62135  1  0  0  0
 62136  1  0  0  0
 62137  1  0  0  0
 63 65  1  0  0  0
 63138  1  0  0  0
 63139  1  0  0  0
 63140  1  0  0  0
 64141  1  0  0  0
 65142  1  0  0  0
 68 79  1  0  0  0
 71 72  2  0  0  0
 71 74  1  0  0  0
 71143  1  0  0  0
 72 75  1  0  0  0
 72144  1  0  0  0
 73 74  2  0  0  0
 73 76  1  0  0  0
 73145  1  0  0  0
 74 80  1  0  0  0
 75 76  2  0  0  0
 75 81  1  0  0  0
 76 83  1  0  0  0
 77 79  1  0  0  0
 77 80  1  0  0  0
 77 82  2  0  0  0
 78 83  1  0  0  0
 78146  1  0  0  0
 78147  1  0  0  0
 78148  1  0  0  0
 79149  1  0  0  0
 79150  1  0  0  0
 80151  1  0  0  0
 81152  1  0  0  0
M  ISO  4   1 100  68 101  79 101  81 100
M  END
> <chiral flag>
0

> <version>
0

> <s_m_source_file>
/data/baiqing/PycharmProjects/Reinvent-master-3.2/result/LINK_invent/BTK/process_docking_weight1_custom_sum_contain_oxygen_bond_distance_aromatic_linkinvent_7_9_3/rearranged_h_0009.sdf

> <i_m_source_file_index>
17

> <r_mmod_Potential_Energy-OPLS-2005>
398.277862548828

> <r_mmod_Stretch_Energy-OPLS-2005>
222.967102050781

> <r_mmod_Bend_Energy-OPLS-2005>
287.100189208984

> <r_mmod_Torsional_Energy-OPLS-2005>
227.307083129883

> <r_mmod_Improper_Torsional_Energy-OPLS-2005>
3.75444746017456

> <r_mmod_Van_der_Waal_Energy-OPLS-2005>
134.696365356445

> <r_mmod_Electrostatic_Energy-OPLS-2005>
-413.936401367188

> <r_mmod_Solvation_Energy-OPLS-2005>
-247.73112487793

> <b_mmod_Minimization_Converged-OPLS-2005>
0

> <r_mmod_RMS_Derivative-OPLS-2005>
0.934446752071381

$$$$
17
                    3D
 Structure written by MMmdl.
154162  0  0  1  0            999 V2000
  -30.7162  -14.4784   20.5893 C   0  0  0  0  0  0
  -30.4211  -12.3196   19.4224 C   0  0  0  0  0  0
  -29.4934  -12.5096   18.2058 C   0  0  0  0  0  0
  -28.0160  -12.3652   18.6205 C   0  0  0  0  0  0
  -27.6598  -13.2111   19.8724 C   0  0  2  0  0  0
  -28.7026  -13.0072   20.9949 C   0  0  0  0  0  0
  -25.2584  -13.8173   20.5680 C   0  0  0  0  0  0
  -24.1838  -13.0444   20.9174 C   0  0  0  0  0  0
  -24.6394  -11.6912   20.8729 C   0  0  0  0  0  0
  -23.9061  -10.4295   21.0401 C   0  0  0  0  0  0
  -24.3613   -9.4211   21.9179 C   0  0  0  0  0  0
  -23.6290   -8.2245   22.0753 C   0  0  0  0  0  0
  -22.4273   -8.0280   21.3543 C   0  0  0  0  0  0
  -21.9907   -9.0253   20.4645 C   0  0  0  0  0  0
  -22.7233  -10.2134   20.3051 C   0  0  0  0  0  0
  -21.6853   -6.0735   22.5278 C   0  0  0  0  0  0
  -21.4013   -6.5640   23.8211 C   0  0  0  0  0  0
  -21.3657   -5.6792   24.9174 C   0  0  0  0  0  0
  -21.6044   -4.3054   24.7226 C   0  0  0  0  0  0
  -21.8820   -3.8146   23.4347 C   0  0  0  0  0  0
  -21.9193   -4.6962   22.3402 C   0  0  0  0  0  0
  -22.7859  -13.5238   21.1841 C   0  0  0  0  0  0
  -22.1664   -4.2148   21.0980 F   0  0  0  0  0  0
  -21.5627   -3.4537   25.7738 F   0  0  0  0  0  0
  -30.0310  -13.3115   20.4378 N   0  0  0  0  0  0
  -26.3020  -12.9348   20.3360 N   0  0  0  0  0  0
  -25.9325  -11.6504   20.5764 N   0  0  0  0  0  0
  -22.0499  -12.8233   22.0398 N   0  0  0  0  0  0
  -25.4311  -15.1892   20.4103 N   0  0  0  0  0  0
  -31.8369  -14.6549   20.1034 O   0  0  0  0  0  0
  -21.6639   -6.8877   21.4239 O   0  0  0  0  0  0
  -22.3544  -14.5546   20.6692 O   0  0  0  0  0  0
  -24.6175  -31.8672   23.2104 C   0  0  0  0  0  0
  -25.9061  -32.4815   23.8401 C   0  0  1  0  0  0
  -27.2238  -27.4042   20.0958 C   0  0  0  0  0  0
  -25.5911  -33.8616   24.2324 N   0  0  0  0  0  0
  -23.4055  -30.4943   21.5520 C   0  0  2  0  0  0
  -24.8495  -28.9647   20.1113 C   0  0  0  0  0  0
  -22.7425  -29.4661   22.4977 C   0  0  0  0  0  0
  -18.0273  -28.1375   22.8491 C   0  0  0  0  0  0
  -24.1487  -36.7312   23.2638 C   0  0  0  0  0  0
  -25.9397  -30.8239   21.3695 C   0  0  0  0  0  0
  -26.0144  -29.4592   20.7111 C   0  0  0  0  0  0
  -27.2044  -28.6879   20.6991 C   0  0  0  0  0  0
  -26.0363  -26.9460   19.4730 C   0  0  0  0  0  0
  -24.8576  -27.7089   19.4879 C   0  0  0  0  0  0
  -23.6141  -29.8341   20.1646 C   0  0  0  0  0  0
  -25.4108  -36.3106   24.0337 C   0  0  1  0  0  0
  -20.5867  -28.3667   23.1310 C   0  0  2  0  0  0
  -20.6763  -26.9401   22.5413 C   0  0  0  0  0  0
  -19.5742  -26.6383   21.5211 C   0  0  0  0  0  0
  -18.1922  -26.7922   22.1621 C   0  0  0  0  0  0
  -19.1523  -28.8837   23.2897 C   0  0  0  0  0  0
  -18.9450  -30.1442   23.8907 C   0  0  0  0  0  0
  -17.6454  -30.6584   24.0561 C   0  0  0  0  0  0
  -25.9039  -34.9472   23.5126 C   0  0  0  0  0  0
  -16.5344  -29.9085   23.6326 C   0  0  0  0  0  0
  -16.7262  -28.6499   23.0352 C   0  0  0  0  0  0
  -26.4475  -31.6596   25.0736 C   0  0  0  0  0  0
  -25.3735  -31.3713   26.1480 C   0  0  0  0  0  0
  -27.0301  -30.3030   24.6132 C   0  0  0  0  0  0
  -27.6051  -32.4312   25.7499 C   0  0  0  0  0  0
  -27.5582  -37.1809   24.8461 C   0  0  0  0  0  0
  -21.4149  -29.3037   22.3718 N   0  0  0  0  0  0
  -26.4292  -37.3791   23.9410 N   0  0  0  0  0  0
  -24.6727  -31.0758   22.1019 N   0  0  0  0  0  0
  -23.4192  -28.8196   23.3018 O   0  0  0  0  0  0
  -28.3698  -26.6185   20.1412 O   0  0  0  0  0  0
  -26.5600  -34.8924   22.4686 O   0  0  0  0  0  0
  -23.5360  -32.1436   23.7483 O   0  0  0  0  0  0
  -31.5660  -19.3706   22.0926 C   0  0  0  0  0  0
  -30.3780  -19.2784   21.3257 C   0  0  0  0  0  0
  -30.5554  -16.8007   21.4532 C   0  0  0  0  0  0
  -32.2318  -18.2147   22.5373 C   0  0  0  0  0  0
  -31.7317  -16.9376   22.2266 C   0  0  0  0  0  0
  -29.8717  -17.9772   21.0260 C   0  0  0  0  0  0
  -30.0046  -21.7515   20.8509 C   0  0  0  0  0  0
  -28.9524  -22.7565   20.3327 C   0  0  0  0  0  0
  -29.3122  -24.2726   20.4748 C   0  0  0  0  0  0
  -28.1738  -25.1939   19.9686 C   0  0  0  0  0  0
  -29.6532  -20.4413   20.8719 N   0  0  0  0  0  0
  -30.0379  -15.4931   21.1636 N   0  0  0  0  0  0
  -31.1087  -22.1731   21.2006 O   0  0  0  0  0  0
  -33.3561  -18.3347   23.2836 F   0  0  0  0  0  0
  -32.3737  -15.8442   22.7074 F   0  0  0  0  0  0
  -28.4048  -17.8221   20.1175 Cl  0  0  0  0  0  0
  -31.4656  -12.4158   19.1199 H   0  0  0  0  0  0
  -30.3219  -11.3111   19.8265 H   0  0  0  0  0  0
  -29.7367  -11.7841   17.4285 H   0  0  0  0  0  0
  -29.6578  -13.4951   17.7666 H   0  0  0  0  0  0
  -27.8313  -11.3097   18.8231 H   0  0  0  0  0  0
  -27.3631  -12.6317   17.7887 H   0  0  0  0  0  0
  -27.6993  -14.2569   19.5669 H   0  0  0  0  0  0
  -28.6823  -11.9759   21.3501 H   0  0  0  0  0  0
  -28.4623  -13.6191   21.8654 H   0  0  0  0  0  0
  -25.2759   -9.5691   22.4751 H   0  0  0  0  0  0
  -24.0000   -7.4638   22.7474 H   0  0  0  0  0  0
  -21.0836   -8.8768   19.8955 H   0  0  0  0  0  0
  -22.3687  -10.9668   19.6158 H   0  0  0  0  0  0
  -21.2004   -7.6148   23.9713 H   0  0  0  0  0  0
  -21.1478   -6.0523   25.9077 H   0  0  0  0  0  0
  -22.0602   -2.7608   23.2845 H   0  0  0  0  0  0
  -22.4106  -11.9890   22.4783 H   0  0  0  0  0  0
  -21.1121  -13.1268   22.2607 H   0  0  0  0  0  0
  -24.6645  -15.8440   20.5201 H   0  0  0  0  0  0
  -26.2849  -15.6318   20.0942 H   0  0  0  0  0  0
  -26.7129  -32.5514   23.1160 H   0  0  0  0  0  0
  -25.0060  -33.9777   25.0469 H   0  0  0  0  0  0
  -22.6951  -31.3124   21.4165 H   0  0  0  0  0  0
  -23.3746  -35.9649   23.3301 H   0  0  0  0  0  0
  -24.3582  -36.8927   22.2053 H   0  0  0  0  0  0
  -23.7247  -37.6521   23.6649 H   0  0  0  0  0  0
  -26.0597  -31.5922   20.6043 H   0  0  0  0  0  0
  -26.8247  -30.8711   21.9924 H   0  0  0  0  0  0
  -28.0996  -29.0633   21.1752 H   0  0  0  0  0  0
  -25.9882  -25.9915   18.9703 H   0  0  0  0  0  0
  -23.9640  -27.3256   19.0142 H   0  0  0  0  0  0
  -23.7240  -30.6123   19.4084 H   0  0  0  0  0  0
  -22.7366  -29.2576   19.8663 H   0  0  0  0  0  0
  -25.1283  -36.1970   25.0830 H   0  0  0  0  0  0
  -20.9958  -28.3228   24.1430 H   0  0  0  0  0  0
  -20.5667  -26.2275   23.3600 H   0  0  0  0  0  0
  -21.6635  -26.7446   22.1205 H   0  0  0  0  0  0
  -19.6906  -25.6297   21.1234 H   0  0  0  0  0  0
  -19.6686  -27.3196   20.6742 H   0  0  0  0  0  0
  -17.4196  -26.6671   21.4019 H   0  0  0  0  0  0
  -18.0323  -26.0059   22.9012 H   0  0  0  0  0  0
  -19.7928  -30.7247   24.2289 H   0  0  0  0  0  0
  -17.5013  -31.6267   24.5155 H   0  0  0  0  0  0
  -15.5345  -30.2990   23.7648 H   0  0  0  0  0  0
  -15.8660  -28.0821   22.7065 H   0  0  0  0  0  0
  -24.5904  -30.7066   25.7815 H   0  0  0  0  0  0
  -24.8930  -32.2872   26.4930 H   0  0  0  0  0  0
  -25.8082  -30.8877   27.0238 H   0  0  0  0  0  0
  -26.2851  -29.6800   24.1169 H   0  0  0  0  0  0
  -27.4035  -29.7261   25.4604 H   0  0  0  0  0  0
  -27.8705  -30.4327   23.9309 H   0  0  0  0  0  0
  -27.2669  -33.3600   26.2106 H   0  0  0  0  0  0
  -28.3850  -32.6893   25.0322 H   0  0  0  0  0  0
  -28.0732  -31.8418   26.5394 H   0  0  0  0  0  0
  -28.2597  -38.0108   24.7514 H   0  0  0  0  0  0
  -28.1079  -36.2641   24.6275 H   0  0  0  0  0  0
  -27.2302  -37.1448   25.8865 H   0  0  0  0  0  0
  -20.9311  -29.8768   21.6946 H   0  0  0  0  0  0
  -26.0179  -38.2870   24.1411 H   0  0  0  0  0  0
  -31.9892  -20.3194   22.3792 H   0  0  0  0  0  0
  -28.0195  -22.5608   20.8626 H   0  0  0  0  0  0
  -28.7620  -22.5286   19.2834 H   0  0  0  0  0  0
  -30.2280  -24.4911   19.9244 H   0  0  0  0  0  0
  -29.5189  -24.5005   21.5213 H   0  0  0  0  0  0
  -27.2725  -24.8870   20.5031 H   0  0  0  0  0  0
  -28.0072  -24.9898   18.9097 H   0  0  0  0  0  0
  -28.7406  -20.2358   20.4859 H   0  0  0  0  0  0
  -29.0579  -15.3405   21.3419 H   0  0  0  0  0  0
  1 25  1  0  0  0
  1 30  2  0  0  0
  1 82  1  0  0  0
  2  3  1  0  0  0
  2 25  1  0  0  0
  2 87  1  0  0  0
  2 88  1  0  0  0
  3  4  1  0  0  0
  3 89  1  0  0  0
  3 90  1  0  0  0
  4  5  1  0  0  0
  4 91  1  0  0  0
  4 92  1  0  0  0
  5  6  1  0  0  0
  5 26  1  0  0  0
  5 93  1  0  0  0
  6 25  1  0  0  0
  6 94  1  0  0  0
  6 95  1  0  0  0
  7  8  2  0  0  0
  7 26  1  0  0  0
  7 29  1  0  0  0
  8  9  1  0  0  0
  8 22  1  0  0  0
  9 10  1  0  0  0
  9 27  2  0  0  0
 10 11  2  0  0  0
 10 15  1  0  0  0
 11 12  1  0  0  0
 11 96  1  0  0  0
 12 13  2  0  0  0
 12 97  1  0  0  0
 13 14  1  0  0  0
 13 31  1  0  0  0
 14 15  2  0  0  0
 14 98  1  0  0  0
 15 99  1  0  0  0
 16 17  2  0  0  0
 16 21  1  0  0  0
 16 31  1  0  0  0
 17 18  1  0  0  0
 17100  1  0  0  0
 18 19  2  0  0  0
 18101  1  0  0  0
 19 20  1  0  0  0
 19 24  1  0  0  0
 20 21  2  0  0  0
 20102  1  0  0  0
 21 23  1  0  0  0
 22 28  1  0  0  0
 22 32  2  0  0  0
 26 27  1  0  0  0
 28103  1  0  0  0
 28104  1  0  0  0
 29105  1  0  0  0
 29106  1  0  0  0
 33 34  1  0  0  0
 33 66  1  0  0  0
 33 70  2  0  0  0
 34 36  1  0  0  0
 34 59  1  0  0  0
 34107  1  0  0  0
 35 44  2  0  0  0
 35 45  1  0  0  0
 35 68  1  0  0  0
 36 56  1  0  0  0
 36108  1  0  0  0
 37 39  1  0  0  0
 37 47  1  0  0  0
 37 66  1  0  0  0
 37109  1  0  0  0
 38 43  2  0  0  0
 38 46  1  0  0  0
 38 47  1  0  0  0
 39 64  1  0  0  0
 39 67  2  0  0  0
 40 52  1  0  0  0
 40 53  2  0  0  0
 40 58  1  0  0  0
 41110  1  0  0  0
 41111  1  0  0  0
 41112  1  0  0  0
 41 48  1  0  0  0
 42 43  1  0  0  0
 42 66  1  0  0  0
 42113  1  0  0  0
 42114  1  0  0  0
 43 44  1  0  0  0
 44115  1  0  0  0
 45 46  2  0  0  0
 45116  1  0  0  0
 46117  1  0  0  0
 47118  1  0  0  0
 47119  1  0  0  0
 48 56  1  0  0  0
 48 65  1  0  0  0
 48120  1  0  0  0
 49 50  1  0  0  0
 49 53  1  0  0  0
 49 64  1  0  0  0
 49121  1  0  0  0
 50 51  1  0  0  0
 50122  1  0  0  0
 50123  1  0  0  0
 51 52  1  0  0  0
 51124  1  0  0  0
 51125  1  0  0  0
 52126  1  0  0  0
 52127  1  0  0  0
 53 54  1  0  0  0
 54 55  2  0  0  0
 54128  1  0  0  0
 55 57  1  0  0  0
 55129  1  0  0  0
 56 69  2  0  0  0
 57 58  2  0  0  0
 57130  1  0  0  0
 58131  1  0  0  0
 59 60  1  0  0  0
 59 61  1  0  0  0
 59 62  1  0  0  0
 60132  1  0  0  0
 60133  1  0  0  0
 60134  1  0  0  0
 61135  1  0  0  0
 61136  1  0  0  0
 61137  1  0  0  0
 62138  1  0  0  0
 62139  1  0  0  0
 62140  1  0  0  0
 63 65  1  0  0  0
 63141  1  0  0  0
 63142  1  0  0  0
 63143  1  0  0  0
 64144  1  0  0  0
 65145  1  0  0  0
 68 80  1  0  0  0
 71 72  2  0  0  0
 71 74  1  0  0  0
 71146  1  0  0  0
 72 76  1  0  0  0
 72 81  1  0  0  0
 73 75  1  0  0  0
 73 76  2  0  0  0
 73 82  1  0  0  0
 74 75  2  0  0  0
 74 84  1  0  0  0
 75 85  1  0  0  0
 76 86  1  0  0  0
 77 78  1  0  0  0
 77 81  1  0  0  0
 77 83  2  0  0  0
 78 79  1  0  0  0
 78147  1  0  0  0
 78148  1  0  0  0
 79 80  1  0  0  0
 79149  1  0  0  0
 79150  1  0  0  0
 80151  1  0  0  0
 80152  1  0  0  0
 81153  1  0  0  0
 82154  1  0  0  0
M  ISO  4   1 100  68 101  80 101  82 100
M  END
> <chiral flag>
0

> <version>
0

> <s_m_source_file>
/data/baiqing/PycharmProjects/Reinvent-master-3.2/result/LINK_invent/BTK/process_docking_weight1_custom_sum_contain_oxygen_bond_distance_aromatic_linkinvent_7_9_3/rearranged_h_0009.sdf

> <i_m_source_file_index>
18

> <r_mmod_Potential_Energy-OPLS-2005>
-139.440704345703

> <r_mmod_Stretch_Energy-OPLS-2005>
45.2569274902344

> <r_mmod_Bend_Energy-OPLS-2005>
101.604331970215

> <r_mmod_Torsional_Energy-OPLS-2005>
226.903793334961

> <r_mmod_Improper_Torsional_Energy-OPLS-2005>
3.50095963478088

> <r_mmod_Van_der_Waal_Energy-OPLS-2005>
164.443695068359

> <r_mmod_Electrostatic_Energy-OPLS-2005>
-473.3876953125

> <r_mmod_Solvation_Energy-OPLS-2005>
-224.702865600586

> <b_mmod_Minimization_Converged-OPLS-2005>
0

> <r_mmod_RMS_Derivative-OPLS-2005>
0.455645859241486

$$$$
18
                    3D
 Structure written by MMmdl.
151159  0  0  1  0            999 V2000
  -30.5367  -14.9094   20.4213 C   0  0  0  0  0  0
  -30.4459  -12.5551   19.4985 C   0  0  0  0  0  0
  -29.5261  -12.5353   18.2547 C   0  0  0  0  0  0
  -28.0533  -12.3357   18.6622 C   0  0  0  0  0  0
  -27.6393  -13.2455   19.8487 C   0  0  2  0  0  0
  -28.6835  -13.2294   20.9865 C   0  0  0  0  0  0
  -25.2502  -13.8219   20.5701 C   0  0  0  0  0  0
  -24.1803  -13.0447   20.9207 C   0  0  0  0  0  0
  -24.6412  -11.6923   20.8741 C   0  0  0  0  0  0
  -23.9082  -10.4300   21.0404 C   0  0  0  0  0  0
  -24.3630   -9.4213   21.9179 C   0  0  0  0  0  0
  -23.6303   -8.2248   22.0754 C   0  0  0  0  0  0
  -22.4285   -8.0288   21.3543 C   0  0  0  0  0  0
  -21.9913   -9.0263   20.4649 C   0  0  0  0  0  0
  -22.7244  -10.2144   20.3057 C   0  0  0  0  0  0
  -21.6856   -6.0740   22.5275 C   0  0  0  0  0  0
  -21.4017   -6.5641   23.8208 C   0  0  0  0  0  0
  -21.3658   -5.6792   24.9170 C   0  0  0  0  0  0
  -21.6045   -4.3056   24.7224 C   0  0  0  0  0  0
  -21.8819   -3.8146   23.4341 C   0  0  0  0  0  0
  -21.9197   -4.6962   22.3399 C   0  0  0  0  0  0
  -22.7831  -13.5223   21.1871 C   0  0  0  0  0  0
  -22.1666   -4.2147   21.0975 F   0  0  0  0  0  0
  -21.5627   -3.4539   25.7736 F   0  0  0  0  0  0
  -29.9700  -13.6379   20.4039 N   0  0  0  0  0  0
  -26.2939  -12.9447   20.3277 N   0  0  0  0  0  0
  -25.9352  -11.6572   20.5747 N   0  0  0  0  0  0
  -22.0481  -12.8217   22.0433 N   0  0  0  0  0  0
  -25.4169  -15.1948   20.4117 N   0  0  0  0  0  0
  -31.7217  -15.0130   20.0887 O   0  0  0  0  0  0
  -21.6646   -6.8885   21.4240 O   0  0  0  0  0  0
  -22.3507  -14.5519   20.6703 O   0  0  0  0  0  0
  -24.6420  -31.8446   23.1890 C   0  0  0  0  0  0
  -25.9198  -32.4695   23.8274 C   0  0  1  0  0  0
  -27.2208  -27.1466   20.1322 C   0  0  0  0  0  0
  -25.5949  -33.8503   24.2188 N   0  0  0  0  0  0
  -23.4452  -30.4627   21.5358 C   0  0  2  0  0  0
  -24.8950  -28.8939   20.1074 C   0  0  0  0  0  0
  -22.7567  -29.4531   22.4875 C   0  0  0  0  0  0
  -18.0305  -28.1395   22.8474 C   0  0  0  0  0  0
  -24.1485  -36.7250   23.2641 C   0  0  0  0  0  0
  -26.0017  -30.7166   21.3918 C   0  0  0  0  0  0
  -26.0716  -29.3307   20.7292 C   0  0  0  0  0  0
  -27.2322  -28.4705   20.7294 C   0  0  0  0  0  0
  -26.0216  -26.8188   19.4591 C   0  0  0  0  0  0
  -24.8820  -27.6506   19.4600 C   0  0  0  0  0  0
  -23.6708  -29.7941   20.1542 C   0  0  0  0  0  0
  -25.4119  -36.3027   24.0312 C   0  0  1  0  0  0
  -20.5916  -28.3708   23.1242 C   0  0  2  0  0  0
  -20.6786  -26.9411   22.5408 C   0  0  0  0  0  0
  -19.5755  -26.6374   21.5218 C   0  0  0  0  0  0
  -18.1939  -26.7930   22.1631 C   0  0  0  0  0  0
  -19.1564  -28.8874   23.2845 C   0  0  0  0  0  0
  -18.9481  -30.1474   23.8863 C   0  0  0  0  0  0
  -17.6478  -30.6590   24.0555 C   0  0  0  0  0  0
  -25.9075  -34.9408   23.5058 C   0  0  0  0  0  0
  -16.5366  -29.9083   23.6337 C   0  0  0  0  0  0
  -16.7293  -28.6505   23.0351 C   0  0  0  0  0  0
  -26.4523  -31.6572   25.0721 C   0  0  0  0  0  0
  -25.3713  -31.3775   26.1422 C   0  0  0  0  0  0
  -27.0402  -30.2965   24.6319 C   0  0  0  0  0  0
  -27.6041  -32.4359   25.7503 C   0  0  0  0  0  0
  -27.5574  -37.1772   24.8462 C   0  0  0  0  0  0
  -21.4266  -29.3030   22.3623 N   0  0  0  0  0  0
  -26.4280  -37.3744   23.9410 N   0  0  0  0  0  0
  -24.7157  -31.0289   22.0938 N   0  0  0  0  0  0
  -23.4216  -28.8089   23.3029 O   0  0  0  0  0  0
  -28.2787  -26.1688   20.2159 O   0  0  0  0  0  0
  -26.5668  -34.8903   22.4643 O   0  0  0  0  0  0
  -23.5536  -32.1339   23.7098 O   0  0  0  0  0  0
  -29.0516  -18.4373   21.4108 C   0  0  0  0  0  0
  -29.9521  -19.7049   19.1590 C   0  0  0  0  0  0
  -28.8343  -19.8689   21.2270 C   0  0  0  0  0  0
  -29.7193  -17.5477   20.4923 C   0  0  0  0  0  0
  -29.2695  -20.5942   20.0659 C   0  0  0  0  0  0
  -30.1724  -18.2767   19.3408 C   0  0  0  0  0  0
  -28.0398  -20.6076   22.2844 C   0  0  0  0  0  0
  -28.0834  -24.6661   19.8538 C   0  0  0  0  0  0
  -28.8663  -23.2995   20.4538 C   0  0  0  0  0  0
  -29.7216  -16.0285   20.7148 N   0  0  0  0  0  0
  -28.9742  -21.9775   19.6694 O   0  0  0  0  0  0
  -30.9370  -17.4237   18.0466 Cl  0  0  0  0  0  0
  -31.4830  -12.7061   19.1940 H   0  0  0  0  0  0
  -30.4244  -11.5914   20.0091 H   0  0  0  0  0  0
  -29.8324  -11.7467   17.5667 H   0  0  0  0  0  0
  -29.6308  -13.4749   17.7087 H   0  0  0  0  0  0
  -27.9259  -11.2881   18.9370 H   0  0  0  0  0  0
  -27.3983  -12.5092   17.8078 H   0  0  0  0  0  0
  -27.6138  -14.2585   19.4466 H   0  0  0  0  0  0
  -28.7574  -12.2380   21.4340 H   0  0  0  0  0  0
  -28.3905  -13.9058   21.7911 H   0  0  0  0  0  0
  -25.2780   -9.5685   22.4749 H   0  0  0  0  0  0
  -24.0011   -7.4641   22.7470 H   0  0  0  0  0  0
  -21.0837   -8.8784   19.8963 H   0  0  0  0  0  0
  -22.3695  -10.9686   19.6170 H   0  0  0  0  0  0
  -21.2008   -7.6151   23.9711 H   0  0  0  0  0  0
  -21.1480   -6.0526   25.9074 H   0  0  0  0  0  0
  -22.0597   -2.7605   23.2847 H   0  0  0  0  0  0
  -22.4116  -11.9892   22.4834 H   0  0  0  0  0  0
  -21.1106  -13.1242   22.2653 H   0  0  0  0  0  0
  -24.6398  -15.8416   20.4996 H   0  0  0  0  0  0
  -26.2590  -15.6342   20.0620 H   0  0  0  0  0  0
  -26.7261  -32.5293   23.0999 H   0  0  0  0  0  0
  -25.0060  -33.9627   25.0304 H   0  0  0  0  0  0
  -22.7466  -31.2879   21.3826 H   0  0  0  0  0  0
  -23.3757  -35.9573   23.3292 H   0  0  0  0  0  0
  -24.3563  -36.8898   22.2057 H   0  0  0  0  0  0
  -23.7233  -37.6434   23.6696 H   0  0  0  0  0  0
  -26.1638  -31.4736   20.6231 H   0  0  0  0  0  0
  -26.8695  -30.7599   22.0384 H   0  0  0  0  0  0
  -28.1269  -28.7961   21.2416 H   0  0  0  0  0  0
  -25.9261  -25.8821   18.9328 H   0  0  0  0  0  0
  -23.9864  -27.3153   18.9548 H   0  0  0  0  0  0
  -23.8074  -30.5702   19.4005 H   0  0  0  0  0  0
  -22.7865  -29.2365   19.8406 H   0  0  0  0  0  0
  -25.1304  -36.1850   25.0804 H   0  0  0  0  0  0
  -20.9997  -28.3295   24.1366 H   0  0  0  0  0  0
  -20.5673  -26.2323   23.3627 H   0  0  0  0  0  0
  -21.6651  -26.7409   22.1206 H   0  0  0  0  0  0
  -19.6905  -25.6281   21.1259 H   0  0  0  0  0  0
  -19.6684  -27.3176   20.6742 H   0  0  0  0  0  0
  -17.4200  -26.6672   21.4041 H   0  0  0  0  0  0
  -18.0332  -26.0086   22.9041 H   0  0  0  0  0  0
  -19.7961  -30.7299   24.2208 H   0  0  0  0  0  0
  -17.5035  -31.6266   24.5167 H   0  0  0  0  0  0
  -15.5366  -30.2974   23.7680 H   0  0  0  0  0  0
  -15.8697  -28.0816   22.7074 H   0  0  0  0  0  0
  -24.5854  -30.7173   25.7737 H   0  0  0  0  0  0
  -24.8962  -32.2979   26.4827 H   0  0  0  0  0  0
  -25.7991  -30.8937   27.0213 H   0  0  0  0  0  0
  -26.3036  -29.6678   24.1306 H   0  0  0  0  0  0
  -27.3989  -29.7263   25.4898 H   0  0  0  0  0  0
  -27.8951  -30.4193   23.9667 H   0  0  0  0  0  0
  -27.2602  -33.3654   26.2049 H   0  0  0  0  0  0
  -28.3862  -32.6941   25.0353 H   0  0  0  0  0  0
  -28.0712  -31.8530   26.5449 H   0  0  0  0  0  0
  -28.2573  -38.0085   24.7520 H   0  0  0  0  0  0
  -28.1088  -36.2616   24.6275 H   0  0  0  0  0  0
  -27.2298  -37.1395   25.8865 H   0  0  0  0  0  0
  -20.9489  -29.8746   21.6797 H   0  0  0  0  0  0
  -26.0145  -38.2801   24.1446 H   0  0  0  0  0  0
  -28.6412  -17.9883   22.3033 H   0  0  0  0  0  0
  -30.3058  -20.1306   18.2309 H   0  0  0  0  0  0
  -27.5787  -19.9266   22.9993 H   0  0  0  0  0  0
  -27.2401  -21.1820   21.8156 H   0  0  0  0  0  0
  -28.6884  -21.2881   22.8370 H   0  0  0  0  0  0
  -27.0317  -24.4308   20.0059 H   0  0  0  0  0  0
  -28.2237  -24.6348   18.7730 H   0  0  0  0  0  0
  -28.4466  -23.0987   21.4359 H   0  0  0  0  0  0
  -29.8985  -23.5894   20.6476 H   0  0  0  0  0  0
  -28.8745  -15.7152   21.1626 H   0  0  0  0  0  0
  1 25  1  0  0  0
  1 30  2  0  0  0
  1 80  1  0  0  0
  2  3  1  0  0  0
  2 25  1  0  0  0
  2 83  1  0  0  0
  2 84  1  0  0  0
  3  4  1  0  0  0
  3 85  1  0  0  0
  3 86  1  0  0  0
  4  5  1  0  0  0
  4 87  1  0  0  0
  4 88  1  0  0  0
  5  6  1  0  0  0
  5 26  1  0  0  0
  5 89  1  0  0  0
  6 25  1  0  0  0
  6 90  1  0  0  0
  6 91  1  0  0  0
  7  8  2  0  0  0
  7 26  1  0  0  0
  7 29  1  0  0  0
  8  9  1  0  0  0
  8 22  1  0  0  0
  9 10  1  0  0  0
  9 27  2  0  0  0
 10 11  2  0  0  0
 10 15  1  0  0  0
 11 12  1  0  0  0
 11 92  1  0  0  0
 12 13  2  0  0  0
 12 93  1  0  0  0
 13 14  1  0  0  0
 13 31  1  0  0  0
 14 15  2  0  0  0
 14 94  1  0  0  0
 15 95  1  0  0  0
 16 17  2  0  0  0
 16 21  1  0  0  0
 16 31  1  0  0  0
 17 18  1  0  0  0
 17 96  1  0  0  0
 18 19  2  0  0  0
 18 97  1  0  0  0
 19 20  1  0  0  0
 19 24  1  0  0  0
 20 21  2  0  0  0
 20 98  1  0  0  0
 21 23  1  0  0  0
 22 28  1  0  0  0
 22 32  2  0  0  0
 26 27  1  0  0  0
 28 99  1  0  0  0
 28100  1  0  0  0
 29101  1  0  0  0
 29102  1  0  0  0
 33 34  1  0  0  0
 33 66  1  0  0  0
 33 70  2  0  0  0
 34 36  1  0  0  0
 34 59  1  0  0  0
 34103  1  0  0  0
 35 44  2  0  0  0
 35 45  1  0  0  0
 35 68  1  0  0  0
 36 56  1  0  0  0
 36104  1  0  0  0
 37 39  1  0  0  0
 37 47  1  0  0  0
 37 66  1  0  0  0
 37105  1  0  0  0
 38 43  2  0  0  0
 38 46  1  0  0  0
 38 47  1  0  0  0
 39 64  1  0  0  0
 39 67  2  0  0  0
 40 52  1  0  0  0
 40 53  2  0  0  0
 40 58  1  0  0  0
 41106  1  0  0  0
 41107  1  0  0  0
 41108  1  0  0  0
 41 48  1  0  0  0
 42 43  1  0  0  0
 42 66  1  0  0  0
 42109  1  0  0  0
 42110  1  0  0  0
 43 44  1  0  0  0
 44111  1  0  0  0
 45 46  2  0  0  0
 45112  1  0  0  0
 46113  1  0  0  0
 47114  1  0  0  0
 47115  1  0  0  0
 48 56  1  0  0  0
 48 65  1  0  0  0
 48116  1  0  0  0
 49 50  1  0  0  0
 49 53  1  0  0  0
 49 64  1  0  0  0
 49117  1  0  0  0
 50 51  1  0  0  0
 50118  1  0  0  0
 50119  1  0  0  0
 51 52  1  0  0  0
 51120  1  0  0  0
 51121  1  0  0  0
 52122  1  0  0  0
 52123  1  0  0  0
 53 54  1  0  0  0
 54 55  2  0  0  0
 54124  1  0  0  0
 55 57  1  0  0  0
 55125  1  0  0  0
 56 69  2  0  0  0
 57 58  2  0  0  0
 57126  1  0  0  0
 58127  1  0  0  0
 59 60  1  0  0  0
 59 61  1  0  0  0
 59 62  1  0  0  0
 60128  1  0  0  0
 60129  1  0  0  0
 60130  1  0  0  0
 61131  1  0  0  0
 61132  1  0  0  0
 61133  1  0  0  0
 62134  1  0  0  0
 62135  1  0  0  0
 62136  1  0  0  0
 63 65  1  0  0  0
 63137  1  0  0  0
 63138  1  0  0  0
 63139  1  0  0  0
 64140  1  0  0  0
 65141  1  0  0  0
 68 78  1  0  0  0
 71 73  2  0  0  0
 71 74  1  0  0  0
 71142  1  0  0  0
 72 75  2  0  0  0
 72 76  1  0  0  0
 72143  1  0  0  0
 73 75  1  0  0  0
 73 77  1  0  0  0
 74 76  2  0  0  0
 74 80  1  0  0  0
 75 81  1  0  0  0
 76 82  1  0  0  0
 77144  1  0  0  0
 77145  1  0  0  0
 77146  1  0  0  0
 78 79  1  0  0  0
 78147  1  0  0  0
 78148  1  0  0  0
 79 81  1  0  0  0
 79149  1  0  0  0
 79150  1  0  0  0
 80151  1  0  0  0
M  ISO  4   1 100  68 101  78 101  80 100
M  END
> <chiral flag>
0

> <version>
0

> <s_m_source_file>
/data/baiqing/PycharmProjects/Reinvent-master-3.2/result/LINK_invent/BTK/process_docking_weight1_custom_sum_contain_oxygen_bond_distance_aromatic_linkinvent_7_9_3/rearranged_h_0009.sdf

> <i_m_source_file_index>
19

> <r_mmod_Potential_Energy-OPLS-2005>
438.99560546875

> <r_mmod_Stretch_Energy-OPLS-2005>
225.689117431641

> <r_mmod_Bend_Energy-OPLS-2005>
280.829620361328

> <r_mmod_Torsional_Energy-OPLS-2005>
235.953842163086

> <r_mmod_Improper_Torsional_Energy-OPLS-2005>
4.49468183517456

> <r_mmod_Van_der_Waal_Energy-OPLS-2005>
133.063781738281

> <r_mmod_Electrostatic_Energy-OPLS-2005>
-395.097534179688

> <r_mmod_Solvation_Energy-OPLS-2005>
-218.803375244141

> <b_mmod_Minimization_Converged-OPLS-2005>
0

> <r_mmod_RMS_Derivative-OPLS-2005>
1.68861591815948

$$$$
19
                    3D
 Structure written by MMmdl.
148156  0  0  1  0            999 V2000
  -30.5229  -14.9232   20.4181 C   0  0  0  0  0  0
  -30.4522  -12.5679   19.4857 C   0  0  0  0  0  0
  -29.5227  -12.5332   18.2487 C   0  0  0  0  0  0
  -28.0534  -12.3247   18.6659 C   0  0  0  0  0  0
  -27.6357  -13.2432   19.8441 C   0  0  2  0  0  0
  -28.6845  -13.2333   20.9779 C   0  0  0  0  0  0
  -25.2456  -13.8175   20.5705 C   0  0  0  0  0  0
  -24.1773  -13.0399   20.9199 C   0  0  0  0  0  0
  -24.6405  -11.6897   20.8735 C   0  0  0  0  0  0
  -23.9085  -10.4272   21.0392 C   0  0  0  0  0  0
  -24.3628   -9.4192   21.9179 C   0  0  0  0  0  0
  -23.6291   -8.2235   22.0754 C   0  0  0  0  0  0
  -22.4274   -8.0279   21.3544 C   0  0  0  0  0  0
  -21.9913   -9.0252   20.4647 C   0  0  0  0  0  0
  -22.7251  -10.2121   20.3049 C   0  0  0  0  0  0
  -21.6852   -6.0729   22.5276 C   0  0  0  0  0  0
  -21.4014   -6.5632   23.8209 C   0  0  0  0  0  0
  -21.3661   -5.6786   24.9172 C   0  0  0  0  0  0
  -21.6045   -4.3049   24.7224 C   0  0  0  0  0  0
  -21.8819   -3.8140   23.4346 C   0  0  0  0  0  0
  -21.9192   -4.6956   22.3400 C   0  0  0  0  0  0
  -22.7793  -13.5178   21.1865 C   0  0  0  0  0  0
  -22.1662   -4.2142   21.0978 F   0  0  0  0  0  0
  -21.5629   -3.4535   25.7738 F   0  0  0  0  0  0
  -29.9675  -13.6465   20.3882 N   0  0  0  0  0  0
  -26.2919  -12.9426   20.3274 N   0  0  0  0  0  0
  -25.9344  -11.6552   20.5738 N   0  0  0  0  0  0
  -22.0453  -12.8180   22.0439 N   0  0  0  0  0  0
  -25.3985  -15.1905   20.4184 N   0  0  0  0  0  0
  -31.7200  -15.0470   20.1363 O   0  0  0  0  0  0
  -21.6638   -6.8877   21.4241 O   0  0  0  0  0  0
  -22.3469  -14.5485   20.6719 O   0  0  0  0  0  0
  -24.6439  -31.8448   23.1893 C   0  0  0  0  0  0
  -25.9212  -32.4700   23.8284 C   0  0  1  0  0  0
  -27.2223  -27.1432   20.1398 C   0  0  0  0  0  0
  -25.5958  -33.8506   24.2198 N   0  0  0  0  0  0
  -23.4477  -30.4650   21.5350 C   0  0  2  0  0  0
  -24.8980  -28.8964   20.1096 C   0  0  0  0  0  0
  -22.7575  -29.4549   22.4860 C   0  0  0  0  0  0
  -18.0310  -28.1394   22.8479 C   0  0  0  0  0  0
  -24.1494  -36.7257   23.2643 C   0  0  0  0  0  0
  -26.0046  -30.7195   21.3893 C   0  0  0  0  0  0
  -26.0766  -29.3321   20.7284 C   0  0  0  0  0  0
  -27.2389  -28.4715   20.7288 C   0  0  0  0  0  0
  -26.0152  -26.8130   19.4806 C   0  0  0  0  0  0
  -24.8797  -27.6491   19.4716 C   0  0  0  0  0  0
  -23.6743  -29.7971   20.1537 C   0  0  0  0  0  0
  -25.4126  -36.3034   24.0315 C   0  0  1  0  0  0
  -20.5923  -28.3721   23.1235 C   0  0  2  0  0  0
  -20.6792  -26.9422   22.5404 C   0  0  0  0  0  0
  -19.5763  -26.6377   21.5215 C   0  0  0  0  0  0
  -18.1947  -26.7931   22.1629 C   0  0  0  0  0  0
  -19.1567  -28.8877   23.2848 C   0  0  0  0  0  0
  -18.9481  -30.1472   23.8873 C   0  0  0  0  0  0
  -17.6475  -30.6587   24.0559 C   0  0  0  0  0  0
  -25.9075  -34.9408   23.5066 C   0  0  0  0  0  0
  -16.5367  -29.9078   23.6333 C   0  0  0  0  0  0
  -16.7295  -28.6499   23.0353 C   0  0  0  0  0  0
  -26.4526  -31.6565   25.0726 C   0  0  0  0  0  0
  -25.3704  -31.3764   26.1418 C   0  0  0  0  0  0
  -27.0383  -30.2952   24.6315 C   0  0  0  0  0  0
  -27.6058  -32.4329   25.7509 C   0  0  0  0  0  0
  -27.5573  -37.1795   24.8471 C   0  0  0  0  0  0
  -21.4268  -29.3048   22.3605 N   0  0  0  0  0  0
  -26.4295  -37.3740   23.9396 N   0  0  0  0  0  0
  -24.7183  -31.0306   22.0927 N   0  0  0  0  0  0
  -23.4220  -28.8092   23.3006 O   0  0  0  0  0  0
  -28.2679  -26.1479   20.2098 O   0  0  0  0  0  0
  -26.5660  -34.8903   22.4644 O   0  0  0  0  0  0
  -23.5556  -32.1328   23.7105 O   0  0  0  0  0  0
  -30.2961  -20.0170   20.4256 C   0  0  0  0  0  0
  -30.5838  -18.5770   20.5039 C   0  0  0  0  0  0
  -28.0053  -19.5294   20.1717 C   0  0  0  0  0  0
  -28.9753  -20.5791   20.2571 C   0  0  0  0  0  0
  -29.5783  -17.5427   20.4311 C   0  0  0  0  0  0
  -28.2822  -18.1155   20.2590 C   0  0  0  0  0  0
  -28.9344  -23.3662   20.2880 C   0  0  0  0  0  0
  -27.9293  -24.6471   19.9728 C   0  0  0  0  0  0
  -28.4899  -22.0311   20.1185 N   0  0  0  0  0  0
  -29.6452  -16.0185   20.5765 N   0  0  0  0  0  0
  -30.0846  -23.5963   20.6703 O   0  0  0  0  0  0
  -27.2386  -17.2582   20.1703 F   0  0  0  0  0  0
  -31.4835  -12.7374   19.1725 H   0  0  0  0  0  0
  -30.4493  -11.6058   20.0004 H   0  0  0  0  0  0
  -29.8323  -11.7426   17.5639 H   0  0  0  0  0  0
  -29.6152  -13.4694   17.6962 H   0  0  0  0  0  0
  -27.9392  -11.2796   18.9559 H   0  0  0  0  0  0
  -27.3917  -12.4779   17.8127 H   0  0  0  0  0  0
  -27.6038  -14.2530   19.4341 H   0  0  0  0  0  0
  -28.7633  -12.2428   21.4286 H   0  0  0  0  0  0
  -28.3903  -13.9113   21.7806 H   0  0  0  0  0  0
  -25.2773   -9.5664   22.4755 H   0  0  0  0  0  0
  -23.9994   -7.4627   22.7479 H   0  0  0  0  0  0
  -21.0839   -8.8777   19.8956 H   0  0  0  0  0  0
  -22.3714  -10.9663   19.6160 H   0  0  0  0  0  0
  -21.2007   -7.6141   23.9710 H   0  0  0  0  0  0
  -21.1483   -6.0517   25.9074 H   0  0  0  0  0  0
  -22.0597   -2.7603   23.2849 H   0  0  0  0  0  0
  -22.4080  -11.9853   22.4836 H   0  0  0  0  0  0
  -21.1076  -13.1210   22.2656 H   0  0  0  0  0  0
  -24.6180  -15.8228   20.5520 H   0  0  0  0  0  0
  -26.2437  -15.6829   20.1485 H   0  0  0  0  0  0
  -26.7281  -32.5307   23.1018 H   0  0  0  0  0  0
  -25.0079  -33.9622   25.0327 H   0  0  0  0  0  0
  -22.7503  -31.2911   21.3817 H   0  0  0  0  0  0
  -23.3749  -35.9597   23.3317 H   0  0  0  0  0  0
  -24.3572  -36.8874   22.2054 H   0  0  0  0  0  0
  -23.7264  -37.6465   23.6670 H   0  0  0  0  0  0
  -26.1626  -31.4759   20.6192 H   0  0  0  0  0  0
  -26.8744  -30.7677   22.0330 H   0  0  0  0  0  0
  -28.1348  -28.7996   21.2373 H   0  0  0  0  0  0
  -25.9045  -25.8650   18.9778 H   0  0  0  0  0  0
  -23.9813  -27.3108   18.9740 H   0  0  0  0  0  0
  -23.8102  -30.5729   19.3992 H   0  0  0  0  0  0
  -22.7896  -29.2391   19.8428 H   0  0  0  0  0  0
  -25.1316  -36.1868   25.0809 H   0  0  0  0  0  0
  -21.0022  -28.3313   24.1353 H   0  0  0  0  0  0
  -20.5686  -26.2335   23.3625 H   0  0  0  0  0  0
  -21.6658  -26.7423   22.1202 H   0  0  0  0  0  0
  -19.6920  -25.6283   21.1257 H   0  0  0  0  0  0
  -19.6691  -27.3177   20.6736 H   0  0  0  0  0  0
  -17.4212  -26.6676   21.4036 H   0  0  0  0  0  0
  -18.0343  -26.0079   22.9032 H   0  0  0  0  0  0
  -19.7955  -30.7300   24.2230 H   0  0  0  0  0  0
  -17.5023  -31.6265   24.5165 H   0  0  0  0  0  0
  -15.5365  -30.2969   23.7664 H   0  0  0  0  0  0
  -15.8699  -28.0805   22.7076 H   0  0  0  0  0  0
  -24.5888  -30.7108   25.7740 H   0  0  0  0  0  0
  -24.8889  -32.2949   26.4781 H   0  0  0  0  0  0
  -25.7979  -30.8978   27.0237 H   0  0  0  0  0  0
  -26.3001  -29.6681   24.1303 H   0  0  0  0  0  0
  -27.3961  -29.7250   25.4899 H   0  0  0  0  0  0
  -27.8927  -30.4174   23.9656 H   0  0  0  0  0  0
  -27.2650  -33.3642   26.2044 H   0  0  0  0  0  0
  -28.3889  -32.6872   25.0355 H   0  0  0  0  0  0
  -28.0704  -31.8486   26.5461 H   0  0  0  0  0  0
  -28.2612  -38.0067   24.7470 H   0  0  0  0  0  0
  -28.1046  -36.2597   24.6360 H   0  0  0  0  0  0
  -27.2283  -37.1519   25.8873 H   0  0  0  0  0  0
  -20.9477  -29.8763   21.6786 H   0  0  0  0  0  0
  -26.0164  -38.2818   24.1361 H   0  0  0  0  0  0
  -31.1302  -20.7013   20.4938 H   0  0  0  0  0  0
  -31.6119  -18.2747   20.6419 H   0  0  0  0  0  0
  -26.9705  -19.8057   20.0355 H   0  0  0  0  0  0
  -27.0130  -24.4341   20.5243 H   0  0  0  0  0  0
  -27.6767  -24.5464   18.9172 H   0  0  0  0  0  0
  -27.5204  -22.0610   19.8323 H   0  0  0  0  0  0
  -28.7156  -15.6558   20.7243 H   0  0  0  0  0  0
  1 25  1  0  0  0
  1 30  2  0  0  0
  1 80  1  0  0  0
  2  3  1  0  0  0
  2 25  1  0  0  0
  2 83  1  0  0  0
  2 84  1  0  0  0
  3  4  1  0  0  0
  3 85  1  0  0  0
  3 86  1  0  0  0
  4  5  1  0  0  0
  4 87  1  0  0  0
  4 88  1  0  0  0
  5  6  1  0  0  0
  5 26  1  0  0  0
  5 89  1  0  0  0
  6 25  1  0  0  0
  6 90  1  0  0  0
  6 91  1  0  0  0
  7  8  2  0  0  0
  7 26  1  0  0  0
  7 29  1  0  0  0
  8  9  1  0  0  0
  8 22  1  0  0  0
  9 10  1  0  0  0
  9 27  2  0  0  0
 10 11  2  0  0  0
 10 15  1  0  0  0
 11 12  1  0  0  0
 11 92  1  0  0  0
 12 13  2  0  0  0
 12 93  1  0  0  0
 13 14  1  0  0  0
 13 31  1  0  0  0
 14 15  2  0  0  0
 14 94  1  0  0  0
 15 95  1  0  0  0
 16 17  2  0  0  0
 16 21  1  0  0  0
 16 31  1  0  0  0
 17 18  1  0  0  0
 17 96  1  0  0  0
 18 19  2  0  0  0
 18 97  1  0  0  0
 19 20  1  0  0  0
 19 24  1  0  0  0
 20 21  2  0  0  0
 20 98  1  0  0  0
 21 23  1  0  0  0
 22 28  1  0  0  0
 22 32  2  0  0  0
 26 27  1  0  0  0
 28 99  1  0  0  0
 28100  1  0  0  0
 29101  1  0  0  0
 29102  1  0  0  0
 33 34  1  0  0  0
 33 66  1  0  0  0
 33 70  2  0  0  0
 34 36  1  0  0  0
 34 59  1  0  0  0
 34103  1  0  0  0
 35 44  2  0  0  0
 35 45  1  0  0  0
 35 68  1  0  0  0
 36 56  1  0  0  0
 36104  1  0  0  0
 37 39  1  0  0  0
 37 47  1  0  0  0
 37 66  1  0  0  0
 37105  1  0  0  0
 38 43  2  0  0  0
 38 46  1  0  0  0
 38 47  1  0  0  0
 39 64  1  0  0  0
 39 67  2  0  0  0
 40 52  1  0  0  0
 40 53  2  0  0  0
 40 58  1  0  0  0
 41106  1  0  0  0
 41107  1  0  0  0
 41108  1  0  0  0
 41 48  1  0  0  0
 42 43  1  0  0  0
 42 66  1  0  0  0
 42109  1  0  0  0
 42110  1  0  0  0
 43 44  1  0  0  0
 44111  1  0  0  0
 45 46  2  0  0  0
 45112  1  0  0  0
 46113  1  0  0  0
 47114  1  0  0  0
 47115  1  0  0  0
 48 56  1  0  0  0
 48 65  1  0  0  0
 48116  1  0  0  0
 49 50  1  0  0  0
 49 53  1  0  0  0
 49 64  1  0  0  0
 49117  1  0  0  0
 50 51  1  0  0  0
 50118  1  0  0  0
 50119  1  0  0  0
 51 52  1  0  0  0
 51120  1  0  0  0
 51121  1  0  0  0
 52122  1  0  0  0
 52123  1  0  0  0
 53 54  1  0  0  0
 54 55  2  0  0  0
 54124  1  0  0  0
 55 57  1  0  0  0
 55125  1  0  0  0
 56 69  2  0  0  0
 57 58  2  0  0  0
 57126  1  0  0  0
 58127  1  0  0  0
 59 60  1  0  0  0
 59 61  1  0  0  0
 59 62  1  0  0  0
 60128  1  0  0  0
 60129  1  0  0  0
 60130  1  0  0  0
 61131  1  0  0  0
 61132  1  0  0  0
 61133  1  0  0  0
 62134  1  0  0  0
 62135  1  0  0  0
 62136  1  0  0  0
 63 65  1  0  0  0
 63137  1  0  0  0
 63138  1  0  0  0
 63139  1  0  0  0
 64140  1  0  0  0
 65141  1  0  0  0
 68 78  1  0  0  0
 71 72  2  0  0  0
 71 74  1  0  0  0
 71142  1  0  0  0
 72 75  1  0  0  0
 72143  1  0  0  0
 73 74  2  0  0  0
 73 76  1  0  0  0
 73144  1  0  0  0
 74 79  1  0  0  0
 75 76  2  0  0  0
 75 80  1  0  0  0
 76 82  1  0  0  0
 77 78  1  0  0  0
 77 79  1  0  0  0
 77 81  2  0  0  0
 78145  1  0  0  0
 78146  1  0  0  0
 79147  1  0  0  0
 80148  1  0  0  0
M  ISO  4   1 100  68 101  78 101  80 100
M  END
> <chiral flag>
0

> <version>
0

> <s_m_source_file>
/data/baiqing/PycharmProjects/Reinvent-master-3.2/result/LINK_invent/BTK/process_docking_weight1_custom_sum_contain_oxygen_bond_distance_aromatic_linkinvent_7_9_3/rearranged_h_0009.sdf

> <i_m_source_file_index>
20

> <r_mmod_Potential_Energy-OPLS-2005>
393.216552734375

> <r_mmod_Stretch_Energy-OPLS-2005>
217.871948242188

> <r_mmod_Bend_Energy-OPLS-2005>
284.265167236328

> <r_mmod_Torsional_Energy-OPLS-2005>
220.855941772461

> <r_mmod_Improper_Torsional_Energy-OPLS-2005>
4.66032266616821

> <r_mmod_Van_der_Waal_Energy-OPLS-2005>
131.992782592773

> <r_mmod_Electrostatic_Energy-OPLS-2005>
-408.452697753906

> <r_mmod_Solvation_Energy-OPLS-2005>
-240.841186523438

> <b_mmod_Minimization_Converged-OPLS-2005>
0

> <r_mmod_RMS_Derivative-OPLS-2005>
0.679981827735901

$$$$
20
                    3D
 Structure written by MMmdl.
151159  0  0  1  0            999 V2000
  -30.6243  -14.6521   20.4791 C   0  0  0  0  0  0
  -30.4384  -12.3961   19.4529 C   0  0  0  0  0  0
  -29.5064  -12.4992   18.2249 C   0  0  0  0  0  0
  -28.0293  -12.3425   18.6388 C   0  0  0  0  0  0
  -27.6516  -13.2198   19.8628 C   0  0  2  0  0  0
  -28.6992  -13.0873   20.9914 C   0  0  0  0  0  0
  -25.2548  -13.8176   20.5713 C   0  0  0  0  0  0
  -24.1813  -13.0430   20.9176 C   0  0  0  0  0  0
  -24.6396  -11.6909   20.8737 C   0  0  0  0  0  0
  -23.9068  -10.4291   21.0401 C   0  0  0  0  0  0
  -24.3618   -9.4210   21.9184 C   0  0  0  0  0  0
  -23.6295   -8.2242   22.0753 C   0  0  0  0  0  0
  -22.4276   -8.0280   21.3544 C   0  0  0  0  0  0
  -21.9912   -9.0251   20.4644 C   0  0  0  0  0  0
  -22.7238  -10.2131   20.3055 C   0  0  0  0  0  0
  -21.6852   -6.0739   22.5280 C   0  0  0  0  0  0
  -21.4011   -6.5643   23.8213 C   0  0  0  0  0  0
  -21.3661   -5.6794   24.9175 C   0  0  0  0  0  0
  -21.6044   -4.3055   24.7222 C   0  0  0  0  0  0
  -21.8820   -3.8151   23.4341 C   0  0  0  0  0  0
  -21.9191   -4.6969   22.3401 C   0  0  0  0  0  0
  -22.7838  -13.5221   21.1852 C   0  0  0  0  0  0
  -22.1661   -4.2156   21.0978 F   0  0  0  0  0  0
  -21.5632   -3.4538   25.7735 F   0  0  0  0  0  0
  -30.0124  -13.4265   20.4209 N   0  0  0  0  0  0
  -26.2987  -12.9368   20.3345 N   0  0  0  0  0  0
  -25.9330  -11.6517   20.5771 N   0  0  0  0  0  0
  -22.0486  -12.8206   22.0410 N   0  0  0  0  0  0
  -25.4239  -15.1906   20.4217 N   0  0  0  0  0  0
  -31.7975  -14.7939   20.1245 O   0  0  0  0  0  0
  -21.6638   -6.8878   21.4240 O   0  0  0  0  0  0
  -22.3518  -14.5534   20.6716 O   0  0  0  0  0  0
  -24.6275  -31.8591   23.2041 C   0  0  0  0  0  0
  -25.9114  -32.4775   23.8365 C   0  0  1  0  0  0
  -27.2215  -27.3165   20.1064 C   0  0  0  0  0  0
  -25.5930  -33.8576   24.2286 N   0  0  0  0  0  0
  -23.4210  -30.4855   21.5463 C   0  0  2  0  0  0
  -24.8651  -28.9438   20.1094 C   0  0  0  0  0  0
  -22.7482  -29.4625   22.4928 C   0  0  0  0  0  0
  -18.0288  -28.1379   22.8498 C   0  0  0  0  0  0
  -24.1487  -36.7284   23.2638 C   0  0  0  0  0  0
  -25.9634  -30.7893   21.3759 C   0  0  0  0  0  0
  -26.0366  -29.4182   20.7136 C   0  0  0  0  0  0
  -27.2177  -28.6168   20.7021 C   0  0  0  0  0  0
  -26.0227  -26.8983   19.4805 C   0  0  0  0  0  0
  -24.8604  -27.6884   19.4860 C   0  0  0  0  0  0
  -23.6350  -29.8256   20.1599 C   0  0  0  0  0  0
  -25.4113  -36.3080   24.0332 C   0  0  1  0  0  0
  -20.5895  -28.3680   23.1280 C   0  0  2  0  0  0
  -20.6774  -26.9401   22.5407 C   0  0  0  0  0  0
  -19.5746  -26.6381   21.5210 C   0  0  0  0  0  0
  -18.1927  -26.7932   22.1625 C   0  0  0  0  0  0
  -19.1546  -28.8848   23.2887 C   0  0  0  0  0  0
  -18.9468  -30.1454   23.8894 C   0  0  0  0  0  0
  -17.6469  -30.6585   24.0567 C   0  0  0  0  0  0
  -25.9046  -34.9453   23.5106 C   0  0  0  0  0  0
  -16.5356  -29.9088   23.6337 C   0  0  0  0  0  0
  -16.7276  -28.6506   23.0358 C   0  0  0  0  0  0
  -26.4496  -31.6588   25.0734 C   0  0  0  0  0  0
  -25.3735  -31.3753   26.1465 C   0  0  0  0  0  0
  -27.0318  -30.3005   24.6196 C   0  0  0  0  0  0
  -27.6057  -32.4319   25.7502 C   0  0  0  0  0  0
  -27.5579  -37.1798   24.8470 C   0  0  0  0  0  0
  -21.4190  -29.3040   22.3678 N   0  0  0  0  0  0
  -26.4290  -37.3777   23.9413 N   0  0  0  0  0  0
  -24.6893  -31.0618   22.0982 N   0  0  0  0  0  0
  -23.4211  -28.8156   23.2999 O   0  0  0  0  0  0
  -28.3343  -26.4578   20.1536 O   0  0  0  0  0  0
  -26.5608  -34.8921   22.4671 O   0  0  0  0  0  0
  -23.5436  -32.1377   23.7373 O   0  0  0  0  0  0
  -31.1864  -19.2811   20.2218 C   0  0  0  0  0  0
  -31.1488  -17.8575   20.3048 C   0  0  0  0  0  0
  -28.8356  -19.4118   20.6983 C   0  0  0  0  0  0
  -30.0435  -20.1046   20.4272 C   0  0  0  0  0  0
  -29.9470  -17.1667   20.6077 C   0  0  0  0  0  0
  -28.7947  -17.9838   20.7865 C   0  0  0  0  0  0
  -29.2704  -24.0276   20.3327 C   0  0  0  0  0  0
  -30.2309  -21.6703   20.4513 C   0  0  0  0  0  0
  -28.0904  -25.0039   19.9565 C   0  0  0  0  0  0
  -29.8077  -15.7153   20.7649 N   0  0  0  0  0  0
  -29.1291  -22.6630   20.2150 N   0  0  0  0  0  0
  -30.3343  -24.5147   20.7245 O   0  0  0  0  0  0
  -27.6153  -17.3775   21.0658 F   0  0  0  0  0  0
  -31.4788  -12.5219   19.1482 H   0  0  0  0  0  0
  -30.3767  -11.4045   19.9037 H   0  0  0  0  0  0
  -29.7681  -11.7383   17.4879 H   0  0  0  0  0  0
  -29.6501  -13.4632   17.7341 H   0  0  0  0  0  0
  -27.8652  -11.2906   18.8746 H   0  0  0  0  0  0
  -27.3745  -12.5684   17.7963 H   0  0  0  0  0  0
  -27.6630  -14.2531   19.5152 H   0  0  0  0  0  0
  -28.7121  -12.0700   21.3861 H   0  0  0  0  0  0
  -28.4484  -13.7309   21.8363 H   0  0  0  0  0  0
  -25.2762   -9.5685   22.4759 H   0  0  0  0  0  0
  -24.0005   -7.4631   22.7471 H   0  0  0  0  0  0
  -21.0845   -8.8764   19.8947 H   0  0  0  0  0  0
  -22.3696  -10.9667   19.6162 H   0  0  0  0  0  0
  -21.2001   -7.6152   23.9716 H   0  0  0  0  0  0
  -21.1484   -6.0527   25.9077 H   0  0  0  0  0  0
  -22.0599   -2.7614   23.2838 H   0  0  0  0  0  0
  -22.4101  -11.9860   22.4780 H   0  0  0  0  0  0
  -21.1109  -13.1231   22.2628 H   0  0  0  0  0  0
  -24.6653  -15.8431   20.5822 H   0  0  0  0  0  0
  -26.2980  -15.6551   20.2071 H   0  0  0  0  0  0
  -26.7184  -32.5434   23.1112 H   0  0  0  0  0  0
  -25.0094  -33.9725   25.0446 H   0  0  0  0  0  0
  -22.7156  -31.3075   21.4068 H   0  0  0  0  0  0
  -23.3751  -35.9613   23.3293 H   0  0  0  0  0  0
  -24.3585  -36.8903   22.2053 H   0  0  0  0  0  0
  -23.7238  -37.6489   23.6658 H   0  0  0  0  0  0
  -26.1020  -31.5568   20.6136 H   0  0  0  0  0  0
  -26.8423  -30.8312   22.0078 H   0  0  0  0  0  0
  -28.1174  -28.9768   21.1828 H   0  0  0  0  0  0
  -25.9473  -25.9422   18.9850 H   0  0  0  0  0  0
  -23.9630  -27.3192   19.0081 H   0  0  0  0  0  0
  -23.7571  -30.6055   19.4068 H   0  0  0  0  0  0
  -22.7534  -29.2584   19.8544 H   0  0  0  0  0  0
  -25.1297  -36.1921   25.0825 H   0  0  0  0  0  0
  -20.9999  -28.3238   24.1394 H   0  0  0  0  0  0
  -20.5664  -26.2284   23.3603 H   0  0  0  0  0  0
  -21.6641  -26.7419   22.1199 H   0  0  0  0  0  0
  -19.6897  -25.6295   21.1226 H   0  0  0  0  0  0
  -19.6680  -27.3205   20.6752 H   0  0  0  0  0  0
  -17.4198  -26.6683   21.4023 H   0  0  0  0  0  0
  -18.0318  -26.0075   22.9021 H   0  0  0  0  0  0
  -19.7940  -30.7277   24.2252 H   0  0  0  0  0  0
  -17.5021  -31.6267   24.5164 H   0  0  0  0  0  0
  -15.5358  -30.2986   23.7667 H   0  0  0  0  0  0
  -15.8673  -28.0826   22.7068 H   0  0  0  0  0  0
  -24.5918  -30.7074   25.7820 H   0  0  0  0  0  0
  -24.8911  -32.2925   26.4852 H   0  0  0  0  0  0
  -25.8061  -30.8978   27.0262 H   0  0  0  0  0  0
  -26.2883  -29.6771   24.1213 H   0  0  0  0  0  0
  -27.3994  -29.7254   25.4704 H   0  0  0  0  0  0
  -27.8770  -30.4280   23.9432 H   0  0  0  0  0  0
  -27.2682  -33.3647   26.2033 H   0  0  0  0  0  0
  -28.3891  -32.6820   25.0336 H   0  0  0  0  0  0
  -28.0683  -31.8460   26.5454 H   0  0  0  0  0  0
  -28.2598  -38.0094   24.7509 H   0  0  0  0  0  0
  -28.1069  -36.2624   24.6296 H   0  0  0  0  0  0
  -27.2298  -37.1448   25.8874 H   0  0  0  0  0  0
  -20.9351  -29.8791   21.6918 H   0  0  0  0  0  0
  -26.0161  -38.2846   24.1422 H   0  0  0  0  0  0
  -32.1385  -19.7519   20.0187 H   0  0  0  0  0  0
  -32.0674  -17.3099   20.1525 H   0  0  0  0  0  0
  -27.9286  -19.9714   20.8739 H   0  0  0  0  0  0
  -31.0186  -21.9072   19.7336 H   0  0  0  0  0  0
  -30.6638  -21.8990   21.4272 H   0  0  0  0  0  0
  -27.2257  -24.6960   20.5469 H   0  0  0  0  0  0
  -27.8503  -24.8213   18.9087 H   0  0  0  0  0  0
  -28.8767  -15.4366   21.0348 H   0  0  0  0  0  0
  -28.2458  -22.3065   19.8759 H   0  0  0  0  0  0
  1 25  1  0  0  0
  1 30  2  0  0  0
  1 80  1  0  0  0
  2  3  1  0  0  0
  2 25  1  0  0  0
  2 84  1  0  0  0
  2 85  1  0  0  0
  3  4  1  0  0  0
  3 86  1  0  0  0
  3 87  1  0  0  0
  4  5  1  0  0  0
  4 88  1  0  0  0
  4 89  1  0  0  0
  5  6  1  0  0  0
  5 26  1  0  0  0
  5 90  1  0  0  0
  6 25  1  0  0  0
  6 91  1  0  0  0
  6 92  1  0  0  0
  7  8  2  0  0  0
  7 26  1  0  0  0
  7 29  1  0  0  0
  8  9  1  0  0  0
  8 22  1  0  0  0
  9 10  1  0  0  0
  9 27  2  0  0  0
 10 11  2  0  0  0
 10 15  1  0  0  0
 11 12  1  0  0  0
 11 93  1  0  0  0
 12 13  2  0  0  0
 12 94  1  0  0  0
 13 14  1  0  0  0
 13 31  1  0  0  0
 14 15  2  0  0  0
 14 95  1  0  0  0
 15 96  1  0  0  0
 16 17  2  0  0  0
 16 21  1  0  0  0
 16 31  1  0  0  0
 17 18  1  0  0  0
 17 97  1  0  0  0
 18 19  2  0  0  0
 18 98  1  0  0  0
 19 20  1  0  0  0
 19 24  1  0  0  0
 20 21  2  0  0  0
 20 99  1  0  0  0
 21 23  1  0  0  0
 22 28  1  0  0  0
 22 32  2  0  0  0
 26 27  1  0  0  0
 28100  1  0  0  0
 28101  1  0  0  0
 29102  1  0  0  0
 29103  1  0  0  0
 33 34  1  0  0  0
 33 66  1  0  0  0
 33 70  2  0  0  0
 34 36  1  0  0  0
 34 59  1  0  0  0
 34104  1  0  0  0
 35 44  2  0  0  0
 35 45  1  0  0  0
 35 68  1  0  0  0
 36 56  1  0  0  0
 36105  1  0  0  0
 37 39  1  0  0  0
 37 47  1  0  0  0
 37 66  1  0  0  0
 37106  1  0  0  0
 38 43  2  0  0  0
 38 46  1  0  0  0
 38 47  1  0  0  0
 39 64  1  0  0  0
 39 67  2  0  0  0
 40 52  1  0  0  0
 40 53  2  0  0  0
 40 58  1  0  0  0
 41107  1  0  0  0
 41108  1  0  0  0
 41109  1  0  0  0
 41 48  1  0  0  0
 42 43  1  0  0  0
 42 66  1  0  0  0
 42110  1  0  0  0
 42111  1  0  0  0
 43 44  1  0  0  0
 44112  1  0  0  0
 45 46  2  0  0  0
 45113  1  0  0  0
 46114  1  0  0  0
 47115  1  0  0  0
 47116  1  0  0  0
 48 56  1  0  0  0
 48 65  1  0  0  0
 48117  1  0  0  0
 49 50  1  0  0  0
 49 53  1  0  0  0
 49 64  1  0  0  0
 49118  1  0  0  0
 50 51  1  0  0  0
 50119  1  0  0  0
 50120  1  0  0  0
 51 52  1  0  0  0
 51121  1  0  0  0
 51122  1  0  0  0
 52123  1  0  0  0
 52124  1  0  0  0
 53 54  1  0  0  0
 54 55  2  0  0  0
 54125  1  0  0  0
 55 57  1  0  0  0
 55126  1  0  0  0
 56 69  2  0  0  0
 57 58  2  0  0  0
 57127  1  0  0  0
 58128  1  0  0  0
 59 60  1  0  0  0
 59 61  1  0  0  0
 59 62  1  0  0  0
 60129  1  0  0  0
 60130  1  0  0  0
 60131  1  0  0  0
 61132  1  0  0  0
 61133  1  0  0  0
 61134  1  0  0  0
 62135  1  0  0  0
 62136  1  0  0  0
 62137  1  0  0  0
 63 65  1  0  0  0
 63138  1  0  0  0
 63139  1  0  0  0
 63140  1  0  0  0
 64141  1  0  0  0
 65142  1  0  0  0
 68 79  1  0  0  0
 71 72  2  0  0  0
 71 74  1  0  0  0
 71143  1  0  0  0
 72 75  1  0  0  0
 72144  1  0  0  0
 73 74  2  0  0  0
 73 76  1  0  0  0
 73145  1  0  0  0
 74 78  1  0  0  0
 75 76  2  0  0  0
 75 80  1  0  0  0
 76 83  1  0  0  0
 77 79  1  0  0  0
 77 81  1  0  0  0
 77 82  2  0  0  0
 78 81  1  0  0  0
 78146  1  0  0  0
 78147  1  0  0  0
 79148  1  0  0  0
 79149  1  0  0  0
 80150  1  0  0  0
 81151  1  0  0  0
M  ISO  4   1 100  68 101  79 101  80 100
M  END
> <chiral flag>
0

> <version>
0

> <s_m_source_file>
/data/baiqing/PycharmProjects/Reinvent-master-3.2/result/LINK_invent/BTK/process_docking_weight1_custom_sum_contain_oxygen_bond_distance_aromatic_linkinvent_7_9_3/rearranged_h_0009.sdf

> <i_m_source_file_index>
21

> <r_mmod_Potential_Energy-OPLS-2005>
-53.2781448364258

> <r_mmod_Stretch_Energy-OPLS-2005>
78.8494491577148

> <r_mmod_Bend_Energy-OPLS-2005>
141.076919555664

> <r_mmod_Torsional_Energy-OPLS-2005>
206.692901611328

> <r_mmod_Improper_Torsional_Energy-OPLS-2005>
4.65349054336548

> <r_mmod_Van_der_Waal_Energy-OPLS-2005>
145.799255371094

> <r_mmod_Electrostatic_Energy-OPLS-2005>
-444.721588134766

> <r_mmod_Solvation_Energy-OPLS-2005>
-237.723434448242

> <b_mmod_Minimization_Converged-OPLS-2005>
0

> <r_mmod_RMS_Derivative-OPLS-2005>
1.33065247535706

$$$$
21
                    3D
 Structure written by MMmdl.
154162  0  0  1  0            999 V2000
  -30.5206  -14.9223   20.4505 C   0  0  0  0  0  0
  -30.4543  -12.5719   19.4979 C   0  0  0  0  0  0
  -29.5274  -12.5378   18.2578 C   0  0  0  0  0  0
  -28.0588  -12.3221   18.6729 C   0  0  0  0  0  0
  -27.6400  -13.2398   19.8500 C   0  0  2  0  0  0
  -28.6829  -13.2227   20.9897 C   0  0  0  0  0  0
  -25.2483  -13.8172   20.5653 C   0  0  0  0  0  0
  -24.1797  -13.0422   20.9211 C   0  0  0  0  0  0
  -24.6411  -11.6908   20.8767 C   0  0  0  0  0  0
  -23.9085  -10.4288   21.0419 C   0  0  0  0  0  0
  -24.3630   -9.4201   21.9196 C   0  0  0  0  0  0
  -23.6297   -8.2242   22.0763 C   0  0  0  0  0  0
  -22.4281   -8.0289   21.3549 C   0  0  0  0  0  0
  -21.9923   -9.0263   20.4652 C   0  0  0  0  0  0
  -22.7259  -10.2133   20.3065 C   0  0  0  0  0  0
  -21.6847   -6.0743   22.5283 C   0  0  0  0  0  0
  -21.4010   -6.5642   23.8216 C   0  0  0  0  0  0
  -21.3660   -5.6793   24.9176 C   0  0  0  0  0  0
  -21.6039   -4.3055   24.7222 C   0  0  0  0  0  0
  -21.8817   -3.8149   23.4342 C   0  0  0  0  0  0
  -21.9191   -4.6972   22.3401 C   0  0  0  0  0  0
  -22.7819  -13.5209   21.1862 C   0  0  0  0  0  0
  -22.1657   -4.2158   21.0978 F   0  0  0  0  0  0
  -21.5629   -3.4540   25.7729 F   0  0  0  0  0  0
  -29.9687  -13.6430   20.4121 N   0  0  0  0  0  0
  -26.2936  -12.9408   20.3273 N   0  0  0  0  0  0
  -25.9350  -11.6544   20.5771 N   0  0  0  0  0  0
  -22.0455  -12.8212   22.0423 N   0  0  0  0  0  0
  -25.4097  -15.1886   20.3946 N   0  0  0  0  0  0
  -31.6979  -15.0572   20.0974 O   0  0  0  0  0  0
  -21.6636   -6.8887   21.4246 O   0  0  0  0  0  0
  -22.3512  -14.5514   20.6708 O   0  0  0  0  0  0
  -24.6438  -31.8436   23.1885 C   0  0  0  0  0  0
  -25.9208  -32.4695   23.8280 C   0  0  1  0  0  0
  -27.2228  -27.1389   20.1477 C   0  0  0  0  0  0
  -25.5966  -33.8500   24.2207 N   0  0  0  0  0  0
  -23.4481  -30.4643   21.5336 C   0  0  2  0  0  0
  -24.8998  -28.8933   20.1103 C   0  0  0  0  0  0
  -22.7583  -29.4543   22.4855 C   0  0  0  0  0  0
  -18.0308  -28.1389   22.8486 C   0  0  0  0  0  0
  -24.1491  -36.7242   23.2645 C   0  0  0  0  0  0
  -26.0045  -30.7197   21.3871 C   0  0  0  0  0  0
  -26.0776  -29.3311   20.7296 C   0  0  0  0  0  0
  -27.2399  -28.4697   20.7328 C   0  0  0  0  0  0
  -26.0167  -26.8084   19.4863 C   0  0  0  0  0  0
  -24.8822  -27.6452   19.4741 C   0  0  0  0  0  0
  -23.6756  -29.7933   20.1530 C   0  0  0  0  0  0
  -25.4120  -36.3022   24.0325 C   0  0  1  0  0  0
  -20.5927  -28.3710   23.1234 C   0  0  2  0  0  0
  -20.6790  -26.9414   22.5397 C   0  0  0  0  0  0
  -19.5757  -26.6371   21.5211 C   0  0  0  0  0  0
  -18.1941  -26.7929   22.1621 C   0  0  0  0  0  0
  -19.1571  -28.8865   23.2855 C   0  0  0  0  0  0
  -18.9487  -30.1467   23.8873 C   0  0  0  0  0  0
  -17.6482  -30.6586   24.0555 C   0  0  0  0  0  0
  -25.9066  -34.9404   23.5064 C   0  0  0  0  0  0
  -16.5369  -29.9080   23.6340 C   0  0  0  0  0  0
  -16.7293  -28.6497   23.0363 C   0  0  0  0  0  0
  -26.4547  -31.6554   25.0707 C   0  0  0  0  0  0
  -25.3745  -31.3738   26.1411 C   0  0  0  0  0  0
  -27.0409  -30.2952   24.6260 C   0  0  0  0  0  0
  -27.6070  -32.4317   25.7492 C   0  0  0  0  0  0
  -27.5571  -37.1774   24.8471 C   0  0  0  0  0  0
  -21.4271  -29.3049   22.3612 N   0  0  0  0  0  0
  -26.4278  -37.3738   23.9419 N   0  0  0  0  0  0
  -24.7189  -31.0301   22.0922 N   0  0  0  0  0  0
  -23.4230  -28.8079   23.2993 O   0  0  0  0  0  0
  -28.2681  -26.1421   20.2214 O   0  0  0  0  0  0
  -26.5637  -34.8905   22.4632 O   0  0  0  0  0  0
  -23.5550  -32.1308   23.7107 O   0  0  0  0  0  0
  -28.3251  -19.6617   21.3299 C   0  0  0  0  0  0
  -30.3601  -18.4712   19.8859 C   0  0  0  0  0  0
  -28.5934  -18.2410   21.4392 C   0  0  0  0  0  0
  -30.0976  -19.9148   19.7915 C   0  0  0  0  0  0
  -29.0358  -20.5900   20.5040 C   0  0  0  0  0  0
  -29.6050  -17.5439   20.6924 C   0  0  0  0  0  0
  -28.9537  -23.3641   20.3077 C   0  0  0  0  0  0
  -27.7331  -17.4461   22.4100 C   0  0  0  0  0  0
  -30.9641  -20.7332   18.8527 C   0  0  0  0  0  0
  -27.9181  -24.6335   20.0450 C   0  0  0  0  0  0
  -28.4948  -22.0206   20.3403 N   0  0  0  0  0  0
  -29.6745  -16.0103   20.7721 N   0  0  0  0  0  0
  -30.1509  -23.6131   20.4643 O   0  0  0  0  0  0
  -31.4856  -12.7435   19.1861 H   0  0  0  0  0  0
  -30.4555  -11.6063   20.0065 H   0  0  0  0  0  0
  -29.8420  -11.7506   17.5710 H   0  0  0  0  0  0
  -29.6165  -13.4764   17.7083 H   0  0  0  0  0  0
  -27.9514  -11.2772   18.9670 H   0  0  0  0  0  0
  -27.3951  -12.4671   17.8196 H   0  0  0  0  0  0
  -27.6165  -14.2515   19.4436 H   0  0  0  0  0  0
  -28.7622  -12.2274   21.4301 H   0  0  0  0  0  0
  -28.3812  -13.8893   21.7994 H   0  0  0  0  0  0
  -25.2771   -9.5666   22.4779 H   0  0  0  0  0  0
  -23.9999   -7.4623   22.7480 H   0  0  0  0  0  0
  -21.0857   -8.8786   19.8948 H   0  0  0  0  0  0
  -22.3729  -10.9679   19.6175 H   0  0  0  0  0  0
  -21.1999   -7.6151   23.9722 H   0  0  0  0  0  0
  -21.1481   -6.0521   25.9075 H   0  0  0  0  0  0
  -22.0594   -2.7617   23.2835 H   0  0  0  0  0  0
  -22.4061  -11.9875   22.4823 H   0  0  0  0  0  0
  -21.1076  -13.1250   22.2612 H   0  0  0  0  0  0
  -24.6241  -15.8258   20.4703 H   0  0  0  0  0  0
  -26.2314  -15.6218   19.9945 H   0  0  0  0  0  0
  -26.7264  -32.5307   23.0996 H   0  0  0  0  0  0
  -25.0147  -33.9622   25.0377 H   0  0  0  0  0  0
  -22.7511  -31.2900   21.3767 H   0  0  0  0  0  0
  -23.3766  -35.9557   23.3277 H   0  0  0  0  0  0
  -24.3587  -36.8894   22.2066 H   0  0  0  0  0  0
  -23.7223  -37.6425   23.6687 H   0  0  0  0  0  0
  -26.1580  -31.4738   20.6141 H   0  0  0  0  0  0
  -26.8762  -30.7720   22.0278 H   0  0  0  0  0  0
  -28.1348  -28.7981   21.2426 H   0  0  0  0  0  0
  -25.9071  -25.8591   18.9855 H   0  0  0  0  0  0
  -23.9842  -27.3063   18.9760 H   0  0  0  0  0  0
  -23.8138  -30.5669   19.3965 H   0  0  0  0  0  0
  -22.7918  -29.2335   19.8406 H   0  0  0  0  0  0
  -25.1302  -36.1843   25.0816 H   0  0  0  0  0  0
  -21.0023  -28.3281   24.1351 H   0  0  0  0  0  0
  -20.5683  -26.2323   23.3617 H   0  0  0  0  0  0
  -21.6652  -26.7413   22.1187 H   0  0  0  0  0  0
  -19.6920  -25.6281   21.1241 H   0  0  0  0  0  0
  -19.6689  -27.3186   20.6748 H   0  0  0  0  0  0
  -17.4214  -26.6693   21.4018 H   0  0  0  0  0  0
  -18.0326  -26.0081   22.9019 H   0  0  0  0  0  0
  -19.7970  -30.7287   24.2229 H   0  0  0  0  0  0
  -17.5041  -31.6273   24.5148 H   0  0  0  0  0  0
  -15.5373  -30.2969   23.7685 H   0  0  0  0  0  0
  -15.8695  -28.0800   22.7085 H   0  0  0  0  0  0
  -24.5936  -30.7068   25.7741 H   0  0  0  0  0  0
  -24.8936  -32.2929   26.4772 H   0  0  0  0  0  0
  -25.8055  -30.8964   27.0221 H   0  0  0  0  0  0
  -26.3022  -29.6671   24.1273 H   0  0  0  0  0  0
  -27.4060  -29.7235   25.4802 H   0  0  0  0  0  0
  -27.8913  -30.4206   23.9552 H   0  0  0  0  0  0
  -27.2671  -33.3663   26.1962 H   0  0  0  0  0  0
  -28.3950  -32.6794   25.0366 H   0  0  0  0  0  0
  -28.0660  -31.8507   26.5501 H   0  0  0  0  0  0
  -28.2560  -38.0098   24.7526 H   0  0  0  0  0  0
  -28.1092  -36.2620   24.6273 H   0  0  0  0  0  0
  -27.2295  -37.1391   25.8877 H   0  0  0  0  0  0
  -20.9470  -29.8791   21.6823 H   0  0  0  0  0  0
  -26.0139  -38.2797   24.1439 H   0  0  0  0  0  0
  -27.5032  -20.0577   21.9105 H   0  0  0  0  0  0
  -31.1543  -18.0603   19.2778 H   0  0  0  0  0  0
  -27.1626  -18.0994   23.0702 H   0  0  0  0  0  0
  -28.3498  -16.8101   23.0463 H   0  0  0  0  0  0
  -27.0265  -16.8137   21.8759 H   0  0  0  0  0  0
  -31.4957  -20.1012   18.1408 H   0  0  0  0  0  0
  -31.7008  -21.3016   19.4218 H   0  0  0  0  0  0
  -30.3611  -21.4385   18.2809 H   0  0  0  0  0  0
  -27.0328  -24.4290   20.6479 H   0  0  0  0  0  0
  -27.6128  -24.5075   19.0064 H   0  0  0  0  0  0
  -27.4839  -22.0243   20.3034 H   0  0  0  0  0  0
  -28.8160  -15.6322   21.1415 H   0  0  0  0  0  0
  1 25  1  0  0  0
  1 30  2  0  0  0
  1 82  1  0  0  0
  2  3  1  0  0  0
  2 25  1  0  0  0
  2 84  1  0  0  0
  2 85  1  0  0  0
  3  4  1  0  0  0
  3 86  1  0  0  0
  3 87  1  0  0  0
  4  5  1  0  0  0
  4 88  1  0  0  0
  4 89  1  0  0  0
  5  6  1  0  0  0
  5 26  1  0  0  0
  5 90  1  0  0  0
  6 25  1  0  0  0
  6 91  1  0  0  0
  6 92  1  0  0  0
  7  8  2  0  0  0
  7 26  1  0  0  0
  7 29  1  0  0  0
  8  9  1  0  0  0
  8 22  1  0  0  0
  9 10  1  0  0  0
  9 27  2  0  0  0
 10 11  2  0  0  0
 10 15  1  0  0  0
 11 12  1  0  0  0
 11 93  1  0  0  0
 12 13  2  0  0  0
 12 94  1  0  0  0
 13 14  1  0  0  0
 13 31  1  0  0  0
 14 15  2  0  0  0
 14 95  1  0  0  0
 15 96  1  0  0  0
 16 17  2  0  0  0
 16 21  1  0  0  0
 16 31  1  0  0  0
 17 18  1  0  0  0
 17 97  1  0  0  0
 18 19  2  0  0  0
 18 98  1  0  0  0
 19 20  1  0  0  0
 19 24  1  0  0  0
 20 21  2  0  0  0
 20 99  1  0  0  0
 21 23  1  0  0  0
 22 28  1  0  0  0
 22 32  2  0  0  0
 26 27  1  0  0  0
 28100  1  0  0  0
 28101  1  0  0  0
 29102  1  0  0  0
 29103  1  0  0  0
 33 34  1  0  0  0
 33 66  1  0  0  0
 33 70  2  0  0  0
 34 36  1  0  0  0
 34 59  1  0  0  0
 34104  1  0  0  0
 35 44  2  0  0  0
 35 45  1  0  0  0
 35 68  1  0  0  0
 36 56  1  0  0  0
 36105  1  0  0  0
 37 39  1  0  0  0
 37 47  1  0  0  0
 37 66  1  0  0  0
 37106  1  0  0  0
 38 43  2  0  0  0
 38 46  1  0  0  0
 38 47  1  0  0  0
 39 64  1  0  0  0
 39 67  2  0  0  0
 40 52  1  0  0  0
 40 53  2  0  0  0
 40 58  1  0  0  0
 41107  1  0  0  0
 41108  1  0  0  0
 41109  1  0  0  0
 41 48  1  0  0  0
 42 43  1  0  0  0
 42 66  1  0  0  0
 42110  1  0  0  0
 42111  1  0  0  0
 43 44  1  0  0  0
 44112  1  0  0  0
 45 46  2  0  0  0
 45113  1  0  0  0
 46114  1  0  0  0
 47115  1  0  0  0
 47116  1  0  0  0
 48 56  1  0  0  0
 48 65  1  0  0  0
 48117  1  0  0  0
 49 50  1  0  0  0
 49 53  1  0  0  0
 49 64  1  0  0  0
 49118  1  0  0  0
 50 51  1  0  0  0
 50119  1  0  0  0
 50120  1  0  0  0
 51 52  1  0  0  0
 51121  1  0  0  0
 51122  1  0  0  0
 52123  1  0  0  0
 52124  1  0  0  0
 53 54  1  0  0  0
 54 55  2  0  0  0
 54125  1  0  0  0
 55 57  1  0  0  0
 55126  1  0  0  0
 56 69  2  0  0  0
 57 58  2  0  0  0
 57127  1  0  0  0
 58128  1  0  0  0
 59 60  1  0  0  0
 59 61  1  0  0  0
 59 62  1  0  0  0
 60129  1  0  0  0
 60130  1  0  0  0
 60131  1  0  0  0
 61132  1  0  0  0
 61133  1  0  0  0
 61134  1  0  0  0
 62135  1  0  0  0
 62136  1  0  0  0
 62137  1  0  0  0
 63 65  1  0  0  0
 63138  1  0  0  0
 63139  1  0  0  0
 63140  1  0  0  0
 64141  1  0  0  0
 65142  1  0  0  0
 68 80  1  0  0  0
 71 73  2  0  0  0
 71 75  1  0  0  0
 71143  1  0  0  0
 72 74  1  0  0  0
 72 76  2  0  0  0
 72144  1  0  0  0
 73 76  1  0  0  0
 73 78  1  0  0  0
 74 75  2  0  0  0
 74 79  1  0  0  0
 75 81  1  0  0  0
 76 82  1  0  0  0
 77 80  1  0  0  0
 77 81  1  0  0  0
 77 83  2  0  0  0
 78145  1  0  0  0
 78146  1  0  0  0
 78147  1  0  0  0
 79148  1  0  0  0
 79149  1  0  0  0
 79150  1  0  0  0
 80151  1  0  0  0
 80152  1  0  0  0
 81153  1  0  0  0
 82154  1  0  0  0
M  ISO  4   1 100  68 101  80 101  82 100
M  END
> <chiral flag>
0

> <version>
0

> <s_m_source_file>
/data/baiqing/PycharmProjects/Reinvent-master-3.2/result/LINK_invent/BTK/process_docking_weight1_custom_sum_contain_oxygen_bond_distance_aromatic_linkinvent_7_9_3/rearranged_h_0009.sdf

> <i_m_source_file_index>
22

> <r_mmod_Potential_Energy-OPLS-2005>
400.772918701172

> <r_mmod_Stretch_Energy-OPLS-2005>
226.624282836914

> <r_mmod_Bend_Energy-OPLS-2005>
269.122406005859

> <r_mmod_Torsional_Energy-OPLS-2005>
238.813201904297

> <r_mmod_Improper_Torsional_Energy-OPLS-2005>
4.67786645889282

> <r_mmod_Van_der_Waal_Energy-OPLS-2005>
129.205856323242

> <r_mmod_Electrostatic_Energy-OPLS-2005>
-405.990814208984

> <r_mmod_Solvation_Energy-OPLS-2005>
-244.963607788086

> <b_mmod_Minimization_Converged-OPLS-2005>
0

> <r_mmod_RMS_Derivative-OPLS-2005>
1.48286306858063

$$$$
22
                    3D
 Structure written by MMmdl.
155163  0  0  1  0            999 V2000
  -30.5264  -14.8964   20.4278 C   0  0  0  0  0  0
  -30.4477  -12.5499   19.4903 C   0  0  0  0  0  0
  -29.5229  -12.5325   18.2503 C   0  0  0  0  0  0
  -28.0525  -12.3273   18.6636 C   0  0  0  0  0  0
  -27.6381  -13.2397   19.8474 C   0  0  2  0  0  0
  -28.6812  -13.2155   20.9855 C   0  0  0  0  0  0
  -25.2494  -13.8199   20.5700 C   0  0  0  0  0  0
  -24.1791  -13.0437   20.9208 C   0  0  0  0  0  0
  -24.6395  -11.6920   20.8741 C   0  0  0  0  0  0
  -23.9074  -10.4297   21.0400 C   0  0  0  0  0  0
  -24.3618   -9.4212   21.9181 C   0  0  0  0  0  0
  -23.6291   -8.2244   22.0752 C   0  0  0  0  0  0
  -22.4272   -8.0281   21.3545 C   0  0  0  0  0  0
  -21.9909   -9.0258   20.4648 C   0  0  0  0  0  0
  -22.7242  -10.2134   20.3058 C   0  0  0  0  0  0
  -21.6857   -6.0737   22.5276 C   0  0  0  0  0  0
  -21.4019   -6.5638   23.8211 C   0  0  0  0  0  0
  -21.3660   -5.6787   24.9171 C   0  0  0  0  0  0
  -21.6039   -4.3050   24.7220 C   0  0  0  0  0  0
  -21.8819   -3.8148   23.4342 C   0  0  0  0  0  0
  -21.9196   -4.6965   22.3403 C   0  0  0  0  0  0
  -22.7813  -13.5216   21.1864 C   0  0  0  0  0  0
  -22.1661   -4.2154   21.0980 F   0  0  0  0  0  0
  -21.5628   -3.4533   25.7733 F   0  0  0  0  0  0
  -29.9679  -13.6232   20.4031 N   0  0  0  0  0  0
  -26.2921  -12.9419   20.3261 N   0  0  0  0  0  0
  -25.9326  -11.6555   20.5725 N   0  0  0  0  0  0
  -22.0464  -12.8216   22.0429 N   0  0  0  0  0  0
  -25.4168  -15.1926   20.4120 N   0  0  0  0  0  0
  -31.7124  -15.0180   20.0986 O   0  0  0  0  0  0
  -21.6637   -6.8876   21.4240 O   0  0  0  0  0  0
  -22.3500  -14.5528   20.6714 O   0  0  0  0  0  0
  -24.6420  -31.8455   23.1892 C   0  0  0  0  0  0
  -25.9205  -32.4701   23.8274 C   0  0  1  0  0  0
  -27.2201  -27.1551   20.1464 C   0  0  0  0  0  0
  -25.5963  -33.8507   24.2195 N   0  0  0  0  0  0
  -23.4442  -30.4649   21.5347 C   0  0  2  0  0  0
  -24.8945  -28.8959   20.1082 C   0  0  0  0  0  0
  -22.7564  -29.4551   22.4868 C   0  0  0  0  0  0
  -18.0309  -28.1396   22.8477 C   0  0  0  0  0  0
  -24.1493  -36.7256   23.2638 C   0  0  0  0  0  0
  -25.9992  -30.7253   21.3861 C   0  0  0  0  0  0
  -26.0712  -29.3394   20.7253 C   0  0  0  0  0  0
  -27.2347  -28.4846   20.7269 C   0  0  0  0  0  0
  -26.0177  -26.8110   19.4886 C   0  0  0  0  0  0
  -24.8796  -27.6447   19.4747 C   0  0  0  0  0  0
  -23.6696  -29.7954   20.1530 C   0  0  0  0  0  0
  -25.4123  -36.3028   24.0311 C   0  0  1  0  0  0
  -20.5920  -28.3717   23.1241 C   0  0  2  0  0  0
  -20.6794  -26.9421   22.5404 C   0  0  0  0  0  0
  -19.5766  -26.6379   21.5212 C   0  0  0  0  0  0
  -18.1947  -26.7939   22.1623 C   0  0  0  0  0  0
  -19.1564  -28.8876   23.2851 C   0  0  0  0  0  0
  -18.9480  -30.1475   23.8868 C   0  0  0  0  0  0
  -17.6474  -30.6590   24.0556 C   0  0  0  0  0  0
  -25.9073  -34.9409   23.5056 C   0  0  0  0  0  0
  -16.5365  -29.9077   23.6340 C   0  0  0  0  0  0
  -16.7292  -28.6500   23.0352 C   0  0  0  0  0  0
  -26.4529  -31.6570   25.0713 C   0  0  0  0  0  0
  -25.3715  -31.3773   26.1411 C   0  0  0  0  0  0
  -27.0391  -30.2959   24.6305 C   0  0  0  0  0  0
  -27.6050  -32.4343   25.7509 C   0  0  0  0  0  0
  -27.5578  -37.1780   24.8460 C   0  0  0  0  0  0
  -21.4259  -29.3041   22.3610 N   0  0  0  0  0  0
  -26.4287  -37.3741   23.9408 N   0  0  0  0  0  0
  -24.7147  -31.0326   22.0919 N   0  0  0  0  0  0
  -23.4216  -28.8097   23.3009 O   0  0  0  0  0  0
  -28.2778  -26.1807   20.2298 O   0  0  0  0  0  0
  -26.5646  -34.8902   22.4626 O   0  0  0  0  0  0
  -23.5545  -32.1329   23.7123 O   0  0  0  0  0  0
  -29.8989  -18.5014   21.4626 C   0  0  0  0  0  0
  -28.9195  -19.5329   19.1109 C   0  0  0  0  0  0
  -29.6385  -19.9338   21.3249 C   0  0  0  0  0  0
  -29.1878  -18.1112   19.2415 C   0  0  0  0  0  0
  -29.6895  -17.5085   20.4412 C   0  0  0  0  0  0
  -29.1023  -20.5297   20.1294 C   0  0  0  0  0  0
  -29.8924  -20.8197   22.5294 C   0  0  0  0  0  0
  -28.8682  -17.2102   18.0610 C   0  0  0  0  0  0
  -28.9606  -23.3493   20.4403 C   0  0  0  0  0  0
  -28.0239  -24.6705   19.9829 C   0  0  0  0  0  0
  -29.6872  -16.0015   20.6886 N   0  0  0  0  0  0
  -28.6801  -21.9318   19.8642 N   0  0  0  0  0  0
  -31.4818  -12.7119   19.1814 H   0  0  0  0  0  0
  -30.4357  -11.5835   19.9962 H   0  0  0  0  0  0
  -29.8300  -11.7475   17.5575 H   0  0  0  0  0  0
  -29.6218  -13.4753   17.7089 H   0  0  0  0  0  0
  -27.9314  -11.2810   18.9460 H   0  0  0  0  0  0
  -27.3931  -12.4905   17.8101 H   0  0  0  0  0  0
  -27.6162  -14.2527   19.4451 H   0  0  0  0  0  0
  -28.7518  -12.2205   21.4273 H   0  0  0  0  0  0
  -28.3877  -13.8871   21.7939 H   0  0  0  0  0  0
  -25.2763   -9.5684   22.4757 H   0  0  0  0  0  0
  -24.0002   -7.4634   22.7467 H   0  0  0  0  0  0
  -21.0844   -8.8777   19.8952 H   0  0  0  0  0  0
  -22.3698  -10.9672   19.6166 H   0  0  0  0  0  0
  -21.2012   -7.6143   23.9715 H   0  0  0  0  0  0
  -21.1481   -6.0516   25.9071 H   0  0  0  0  0  0
  -22.0598   -2.7610   23.2841 H   0  0  0  0  0  0
  -22.4079  -11.9883   22.4832 H   0  0  0  0  0  0
  -21.1083  -13.1243   22.2632 H   0  0  0  0  0  0
  -24.6453  -15.8416   20.5228 H   0  0  0  0  0  0
  -26.2567  -15.6368   20.0666 H   0  0  0  0  0  0
  -26.7272  -32.5311   23.1004 H   0  0  0  0  0  0
  -25.0105  -33.9629   25.0340 H   0  0  0  0  0  0
  -22.7454  -31.2902   21.3819 H   0  0  0  0  0  0
  -23.3757  -35.9585   23.3283 H   0  0  0  0  0  0
  -24.3577  -36.8906   22.2055 H   0  0  0  0  0  0
  -23.7250  -37.6448   23.6687 H   0  0  0  0  0  0
  -26.1552  -31.4839   20.6182 H   0  0  0  0  0  0
  -26.8693  -30.7726   22.0291 H   0  0  0  0  0  0
  -28.1311  -28.8181   21.2306 H   0  0  0  0  0  0
  -25.9212  -25.8539   18.9979 H   0  0  0  0  0  0
  -23.9811  -27.3004   18.9804 H   0  0  0  0  0  0
  -23.8019  -30.5711   19.3978 H   0  0  0  0  0  0
  -22.7856  -29.2353   19.8428 H   0  0  0  0  0  0
  -25.1310  -36.1847   25.0801 H   0  0  0  0  0  0
  -21.0011  -28.3307   24.1363 H   0  0  0  0  0  0
  -20.5699  -26.2323   23.3618 H   0  0  0  0  0  0
  -21.6658  -26.7433   22.1192 H   0  0  0  0  0  0
  -19.6921  -25.6281   21.1260 H   0  0  0  0  0  0
  -19.6706  -27.3173   20.6728 H   0  0  0  0  0  0
  -17.4214  -26.6683   21.4027 H   0  0  0  0  0  0
  -18.0343  -26.0094   22.9031 H   0  0  0  0  0  0
  -19.7952  -30.7304   24.2221 H   0  0  0  0  0  0
  -17.5022  -31.6268   24.5159 H   0  0  0  0  0  0
  -15.5364  -30.2957   23.7688 H   0  0  0  0  0  0
  -15.8698  -28.0805   22.7075 H   0  0  0  0  0  0
  -24.5887  -30.7127   25.7740 H   0  0  0  0  0  0
  -24.8912  -32.2964   26.4779 H   0  0  0  0  0  0
  -25.7995  -30.8984   27.0226 H   0  0  0  0  0  0
  -26.3005  -29.6687   24.1297 H   0  0  0  0  0  0
  -27.3977  -29.7260   25.4890 H   0  0  0  0  0  0
  -27.8928  -30.4188   23.9635 H   0  0  0  0  0  0
  -27.2623  -33.3652   26.2044 H   0  0  0  0  0  0
  -28.3887  -32.6901   25.0364 H   0  0  0  0  0  0
  -28.0692  -31.8505   26.5471 H   0  0  0  0  0  0
  -28.2571  -38.0099   24.7508 H   0  0  0  0  0  0
  -28.1095  -36.2623   24.6276 H   0  0  0  0  0  0
  -27.2295  -37.1411   25.8863 H   0  0  0  0  0  0
  -20.9462  -29.8744   21.6782 H   0  0  0  0  0  0
  -26.0149  -38.2804   24.1417 H   0  0  0  0  0  0
  -30.2330  -18.1429   22.4259 H   0  0  0  0  0  0
  -28.5155  -19.8671   18.1665 H   0  0  0  0  0  0
  -30.3109  -20.2576   23.3636 H   0  0  0  0  0  0
  -28.9604  -21.2763   22.8644 H   0  0  0  0  0  0
  -30.5953  -21.6130   22.2747 H   0  0  0  0  0  0
  -28.6004  -17.7832   17.1728 H   0  0  0  0  0  0
  -28.0338  -16.5495   18.2976 H   0  0  0  0  0  0
  -29.7322  -16.5951   17.8076 H   0  0  0  0  0  0
  -28.9474  -23.2886   21.5283 H   0  0  0  0  0  0
  -29.9937  -23.5822   20.1801 H   0  0  0  0  0  0
  -27.0408  -24.4625   20.4074 H   0  0  0  0  0  0
  -27.8924  -24.5855   18.9041 H   0  0  0  0  0  0
  -28.7860  -15.6729   21.0012 H   0  0  0  0  0  0
  -28.1870  -22.0109   18.9779 H   0  0  0  0  0  0
  1 25  1  0  0  0
  1 30  2  0  0  0
  1 81  1  0  0  0
  2  3  1  0  0  0
  2 25  1  0  0  0
  2 83  1  0  0  0
  2 84  1  0  0  0
  3  4  1  0  0  0
  3 85  1  0  0  0
  3 86  1  0  0  0
  4  5  1  0  0  0
  4 87  1  0  0  0
  4 88  1  0  0  0
  5  6  1  0  0  0
  5 26  1  0  0  0
  5 89  1  0  0  0
  6 25  1  0  0  0
  6 90  1  0  0  0
  6 91  1  0  0  0
  7  8  2  0  0  0
  7 26  1  0  0  0
  7 29  1  0  0  0
  8  9  1  0  0  0
  8 22  1  0  0  0
  9 10  1  0  0  0
  9 27  2  0  0  0
 10 11  2  0  0  0
 10 15  1  0  0  0
 11 12  1  0  0  0
 11 92  1  0  0  0
 12 13  2  0  0  0
 12 93  1  0  0  0
 13 14  1  0  0  0
 13 31  1  0  0  0
 14 15  2  0  0  0
 14 94  1  0  0  0
 15 95  1  0  0  0
 16 17  2  0  0  0
 16 21  1  0  0  0
 16 31  1  0  0  0
 17 18  1  0  0  0
 17 96  1  0  0  0
 18 19  2  0  0  0
 18 97  1  0  0  0
 19 20  1  0  0  0
 19 24  1  0  0  0
 20 21  2  0  0  0
 20 98  1  0  0  0
 21 23  1  0  0  0
 22 28  1  0  0  0
 22 32  2  0  0  0
 26 27  1  0  0  0
 28 99  1  0  0  0
 28100  1  0  0  0
 29101  1  0  0  0
 29102  1  0  0  0
 33 34  1  0  0  0
 33 66  1  0  0  0
 33 70  2  0  0  0
 34 36  1  0  0  0
 34 59  1  0  0  0
 34103  1  0  0  0
 35 44  2  0  0  0
 35 45  1  0  0  0
 35 68  1  0  0  0
 36 56  1  0  0  0
 36104  1  0  0  0
 37 39  1  0  0  0
 37 47  1  0  0  0
 37 66  1  0  0  0
 37105  1  0  0  0
 38 43  2  0  0  0
 38 46  1  0  0  0
 38 47  1  0  0  0
 39 64  1  0  0  0
 39 67  2  0  0  0
 40 52  1  0  0  0
 40 53  2  0  0  0
 40 58  1  0  0  0
 41106  1  0  0  0
 41107  1  0  0  0
 41108  1  0  0  0
 41 48  1  0  0  0
 42 43  1  0  0  0
 42 66  1  0  0  0
 42109  1  0  0  0
 42110  1  0  0  0
 43 44  1  0  0  0
 44111  1  0  0  0
 45 46  2  0  0  0
 45112  1  0  0  0
 46113  1  0  0  0
 47114  1  0  0  0
 47115  1  0  0  0
 48 56  1  0  0  0
 48 65  1  0  0  0
 48116  1  0  0  0
 49 50  1  0  0  0
 49 53  1  0  0  0
 49 64  1  0  0  0
 49117  1  0  0  0
 50 51  1  0  0  0
 50118  1  0  0  0
 50119  1  0  0  0
 51 52  1  0  0  0
 51120  1  0  0  0
 51121  1  0  0  0
 52122  1  0  0  0
 52123  1  0  0  0
 53 54  1  0  0  0
 54 55  2  0  0  0
 54124  1  0  0  0
 55 57  1  0  0  0
 55125  1  0  0  0
 56 69  2  0  0  0
 57 58  2  0  0  0
 57126  1  0  0  0
 58127  1  0  0  0
 59 60  1  0  0  0
 59 61  1  0  0  0
 59 62  1  0  0  0
 60128  1  0  0  0
 60129  1  0  0  0
 60130  1  0  0  0
 61131  1  0  0  0
 61132  1  0  0  0
 61133  1  0  0  0
 62134  1  0  0  0
 62135  1  0  0  0
 62136  1  0  0  0
 63 65  1  0  0  0
 63137  1  0  0  0
 63138  1  0  0  0
 63139  1  0  0  0
 64140  1  0  0  0
 65141  1  0  0  0
 68 80  1  0  0  0
 71 73  2  0  0  0
 71 75  1  0  0  0
 71142  1  0  0  0
 72 74  1  0  0  0
 72 76  2  0  0  0
 72143  1  0  0  0
 73 76  1  0  0  0
 73 77  1  0  0  0
 74 75  2  0  0  0
 74 78  1  0  0  0
 75 81  1  0  0  0
 76 82  1  0  0  0
 77144  1  0  0  0
 77145  1  0  0  0
 77146  1  0  0  0
 78147  1  0  0  0
 78148  1  0  0  0
 78149  1  0  0  0
 79 80  1  0  0  0
 79 82  1  0  0  0
 79150  1  0  0  0
 79151  1  0  0  0
 80152  1  0  0  0
 80153  1  0  0  0
 81154  1  0  0  0
 82155  1  0  0  0
M  ISO  4   1 100  68 101  80 101  81 100
M  END
> <chiral flag>
0

> <version>
0

> <s_m_source_file>
/data/baiqing/PycharmProjects/Reinvent-master-3.2/result/LINK_invent/BTK/process_docking_weight1_custom_sum_contain_oxygen_bond_distance_aromatic_linkinvent_7_9_3/rearranged_h_0009.sdf

> <i_m_source_file_index>
23

> <r_mmod_Potential_Energy-OPLS-2005>
376.768127441406

> <r_mmod_Stretch_Energy-OPLS-2005>
207.785186767578

> <r_mmod_Bend_Energy-OPLS-2005>
262.233947753906

> <r_mmod_Torsional_Energy-OPLS-2005>
238.297866821289

> <r_mmod_Improper_Torsional_Energy-OPLS-2005>
6.40066385269165

> <r_mmod_Van_der_Waal_Energy-OPLS-2005>
129.443740844727

> <r_mmod_Electrostatic_Energy-OPLS-2005>
-409.872314453125

> <r_mmod_Solvation_Energy-OPLS-2005>
-224.31623840332

> <b_mmod_Minimization_Converged-OPLS-2005>
0

> <r_mmod_RMS_Derivative-OPLS-2005>
1.3833372592926

$$$$
24
                    3D
 Structure written by MMmdl.
158166  0  0  1  0            999 V2000
  -30.4158  -15.1988   20.3879 C   0  0  0  0  0  0
  -30.4473  -12.7621   19.5216 C   0  0  0  0  0  0
  -29.5322  -12.5682   18.2842 C   0  0  0  0  0  0
  -28.0778  -12.2991   18.7100 C   0  0  0  0  0  0
  -27.6167  -13.2624   19.8319 C   0  0  2  0  0  0
  -28.6508  -13.3863   20.9708 C   0  0  0  0  0  0
  -25.2420  -13.8226   20.5776 C   0  0  0  0  0  0
  -24.1742  -13.0443   20.9248 C   0  0  0  0  0  0
  -24.6368  -11.6925   20.8746 C   0  0  0  0  0  0
  -23.9055  -10.4294   21.0386 C   0  0  0  0  0  0
  -24.3595   -9.4219   21.9181 C   0  0  0  0  0  0
  -23.6274   -8.2253   22.0761 C   0  0  0  0  0  0
  -22.4257   -8.0279   21.3549 C   0  0  0  0  0  0
  -21.9893   -9.0247   20.4654 C   0  0  0  0  0  0
  -22.7217  -10.2129   20.3061 C   0  0  0  0  0  0
  -21.6862   -6.0718   22.5271 C   0  0  0  0  0  0
  -21.4012   -6.5627   23.8200 C   0  0  0  0  0  0
  -21.3664   -5.6790   24.9163 C   0  0  0  0  0  0
  -21.6047   -4.3052   24.7225 C   0  0  0  0  0  0
  -21.8819   -3.8131   23.4349 C   0  0  0  0  0  0
  -21.9190   -4.6945   22.3398 C   0  0  0  0  0  0
  -22.7764  -13.5214   21.1896 C   0  0  0  0  0  0
  -22.1661   -4.2127   21.0981 F   0  0  0  0  0  0
  -21.5627   -3.4544   25.7739 F   0  0  0  0  0  0
  -29.8965  -13.8805   20.3655 N   0  0  0  0  0  0
  -26.2821  -12.9464   20.3235 N   0  0  0  0  0  0
  -25.9304  -11.6579   20.5709 N   0  0  0  0  0  0
  -22.0409  -12.8213   22.0445 N   0  0  0  0  0  0
  -25.4129  -15.1962   20.4275 N   0  0  0  0  0  0
  -31.6200  -15.2674   20.1008 O   0  0  0  0  0  0
  -21.6645   -6.8862   21.4235 O   0  0  0  0  0  0
  -22.3468  -14.5524   20.6744 O   0  0  0  0  0  0
  -24.6606  -31.8282   23.1684 C   0  0  0  0  0  0
  -25.9316  -32.4592   23.8140 C   0  0  1  0  0  0
  -27.2191  -26.9840   20.1701 C   0  0  0  0  0  0
  -25.6014  -33.8405   24.2063 N   0  0  0  0  0  0
  -23.4698  -30.4380   21.5211 C   0  0  2  0  0  0
  -24.9202  -28.8354   20.1061 C   0  0  0  0  0  0
  -22.7645  -29.4453   22.4815 C   0  0  0  0  0  0
  -18.0325  -28.1396   22.8413 C   0  0  0  0  0  0
  -24.1509  -36.7204   23.2640 C   0  0  0  0  0  0
  -26.0353  -30.6517   21.3895 C   0  0  0  0  0  0
  -26.1043  -29.2487   20.7302 C   0  0  0  0  0  0
  -27.2516  -28.3454   20.7345 C   0  0  0  0  0  0
  -26.0051  -26.7039   19.5035 C   0  0  0  0  0  0
  -24.8930  -27.5812   19.4736 C   0  0  0  0  0  0
  -23.7024  -29.7543   20.1454 C   0  0  0  0  0  0
  -25.4148  -36.2963   24.0300 C   0  0  1  0  0  0
  -20.5940  -28.3732   23.1190 C   0  0  2  0  0  0
  -20.6824  -26.9426   22.5385 C   0  0  0  0  0  0
  -19.5811  -26.6363   21.5181 C   0  0  0  0  0  0
  -18.1977  -26.7920   22.1578 C   0  0  0  0  0  0
  -19.1582  -28.8880   23.2770 C   0  0  0  0  0  0
  -18.9511  -30.1460   23.8815 C   0  0  0  0  0  0
  -17.6513  -30.6579   24.0535 C   0  0  0  0  0  0
  -25.9120  -34.9358   23.4993 C   0  0  0  0  0  0
  -16.5397  -29.9063   23.6345 C   0  0  0  0  0  0
  -16.7309  -28.6494   23.0334 C   0  0  0  0  0  0
  -26.4570  -31.6526   25.0662 C   0  0  0  0  0  0
  -25.3708  -31.3793   26.1323 C   0  0  0  0  0  0
  -27.0453  -30.2907   24.6356 C   0  0  0  0  0  0
  -27.6071  -32.4333   25.7456 C   0  0  0  0  0  0
  -27.5573  -37.1744   24.8465 C   0  0  0  0  0  0
  -21.4327  -29.3023   22.3541 N   0  0  0  0  0  0
  -26.4285  -37.3708   23.9409 N   0  0  0  0  0  0
  -24.7423  -30.9983   22.0801 N   0  0  0  0  0  0
  -23.4205  -28.8062   23.3064 O   0  0  0  0  0  0
  -28.2442  -25.9221   20.2424 O   0  0  0  0  0  0
  -26.5692  -34.8898   22.4567 O   0  0  0  0  0  0
  -23.5694  -32.1257   23.6817 O   0  0  0  0  0  0
  -30.0191  -20.3858   19.5685 C   0  0  0  0  0  0
  -30.2157  -18.9155   19.6391 C   0  0  0  0  0  0
  -28.5678  -18.8242   21.2499 C   0  0  0  0  0  0
  -29.1016  -21.2232   20.3392 C   0  0  0  0  0  0
  -29.5029  -17.9849   20.4943 C   0  0  0  0  0  0
  -28.4040  -20.3073   21.2233 C   0  0  0  0  0  0
  -25.2640  -21.5894   22.4614 C   0  0  0  0  0  0
  -26.2762  -19.7352   23.8687 C   0  0  0  0  0  0
  -29.1364  -22.9612   20.3595 C   0  0  0  0  0  0
  -28.0051  -24.3105   20.1718 C   0  0  0  0  0  0
  -26.2670  -20.4283   22.4940 C   0  0  0  0  0  0
  -29.5661  -16.3792   20.5983 N   0  0  0  0  0  0
  -27.5869  -20.9464   22.1667 N   0  0  0  0  0  0
  -31.4623  -12.9796   19.1872 H   0  0  0  0  0  0
  -30.5194  -11.8404   20.1037 H   0  0  0  0  0  0
  -29.8991  -11.7488   17.6649 H   0  0  0  0  0  0
  -29.5661  -13.4639   17.6604 H   0  0  0  0  0  0
  -28.0232  -11.2698   19.0691 H   0  0  0  0  0  0
  -27.4067  -12.3599   17.8524 H   0  0  0  0  0  0
  -27.5496  -14.2410   19.3556 H   0  0  0  0  0  0
  -28.7996  -12.4328   21.4791 H   0  0  0  0  0  0
  -28.3002  -14.0885   21.7283 H   0  0  0  0  0  0
  -25.2728   -9.5703   22.4776 H   0  0  0  0  0  0
  -23.9978   -7.4651   22.7503 H   0  0  0  0  0  0
  -21.0819   -8.8758   19.8969 H   0  0  0  0  0  0
  -22.3655  -10.9661   19.6183 H   0  0  0  0  0  0
  -21.2014   -7.6140   23.9691 H   0  0  0  0  0  0
  -21.1489   -6.0527   25.9068 H   0  0  0  0  0  0
  -22.0596   -2.7593   23.2859 H   0  0  0  0  0  0
  -22.3998  -11.9841   22.4790 H   0  0  0  0  0  0
  -21.1051  -13.1278   22.2694 H   0  0  0  0  0  0
  -24.6534  -15.8529   20.5693 H   0  0  0  0  0  0
  -26.2625  -15.6378   20.1010 H   0  0  0  0  0  0
  -26.7396  -32.5141   23.0859 H   0  0  0  0  0  0
  -25.0184  -33.9498   25.0229 H   0  0  0  0  0  0
  -22.7800  -31.2675   21.3533 H   0  0  0  0  0  0
  -23.3780  -35.9524   23.3281 H   0  0  0  0  0  0
  -24.3597  -36.8880   22.2056 H   0  0  0  0  0  0
  -23.7272  -37.6389   23.6721 H   0  0  0  0  0  0
  -26.2137  -31.4022   20.6184 H   0  0  0  0  0  0
  -26.8941  -30.6982   22.0463 H   0  0  0  0  0  0
  -28.1554  -28.6614   21.2371 H   0  0  0  0  0  0
  -25.8860  -25.7460   19.0173 H   0  0  0  0  0  0
  -23.9903  -27.2530   18.9738 H   0  0  0  0  0  0
  -23.8416  -30.5228   19.3828 H   0  0  0  0  0  0
  -22.8140  -29.2015   19.8387 H   0  0  0  0  0  0
  -25.1343  -36.1745   25.0796 H   0  0  0  0  0  0
  -20.9996  -28.3342   24.1324 H   0  0  0  0  0  0
  -20.5746  -26.2345   23.3607 H   0  0  0  0  0  0
  -21.6698  -26.7445   22.1181 H   0  0  0  0  0  0
  -19.7018  -25.6262   21.1254 H   0  0  0  0  0  0
  -19.6796  -27.3129   20.6678 H   0  0  0  0  0  0
  -17.4266  -26.6628   21.3960 H   0  0  0  0  0  0
  -18.0382  -26.0069   22.8988 H   0  0  0  0  0  0
  -19.7999  -30.7244   24.2187 H   0  0  0  0  0  0
  -17.5086  -31.6267   24.5117 H   0  0  0  0  0  0
  -15.5394  -30.2939   23.7727 H   0  0  0  0  0  0
  -15.8706  -28.0788   22.7104 H   0  0  0  0  0  0
  -24.5908  -30.7129   25.7630 H   0  0  0  0  0  0
  -24.8882  -32.3007   26.4600 H   0  0  0  0  0  0
  -25.7939  -30.9054   27.0191 H   0  0  0  0  0  0
  -26.3104  -29.6584   24.1372 H   0  0  0  0  0  0
  -27.4018  -29.7274   25.4988 H   0  0  0  0  0  0
  -27.9035  -30.4088   23.9734 H   0  0  0  0  0  0
  -27.2675  -33.3732   26.1816 H   0  0  0  0  0  0
  -28.3978  -32.6740   25.0332 H   0  0  0  0  0  0
  -28.0628  -31.8603   26.5537 H   0  0  0  0  0  0
  -28.2545  -38.0071   24.7507 H   0  0  0  0  0  0
  -28.1111  -36.2600   24.6299 H   0  0  0  0  0  0
  -27.2291  -37.1389   25.8864 H   0  0  0  0  0  0
  -20.9602  -29.8658   21.6613 H   0  0  0  0  0  0
  -26.0130  -38.2765   24.1428 H   0  0  0  0  0  0
  -30.6675  -20.9121   18.8834 H   0  0  0  0  0  0
  -30.9596  -18.4951   18.9780 H   0  0  0  0  0  0
  -27.9465  -18.2857   21.9495 H   0  0  0  0  0  0
  -24.2633  -21.2594   22.7422 H   0  0  0  0  0  0
  -25.1908  -22.0204   21.4609 H   0  0  0  0  0  0
  -25.5509  -22.3893   23.1467 H   0  0  0  0  0  0
  -25.2737  -19.4107   24.1509 H   0  0  0  0  0  0
  -26.6360  -20.3971   24.6584 H   0  0  0  0  0  0
  -26.9103  -18.8489   23.8748 H   0  0  0  0  0  0
  -29.9112  -23.1872   19.6265 H   0  0  0  0  0  0
  -29.6172  -23.1672   21.3155 H   0  0  0  0  0  0
  -27.2133  -24.1307   20.9004 H   0  0  0  0  0  0
  -27.5253  -24.1455   19.2078 H   0  0  0  0  0  0
  -25.9578  -19.7056   21.7347 H   0  0  0  0  0  0
  -28.6806  -16.0291   20.9316 H   0  0  0  0  0  0
  -27.6550  -21.9596   22.1700 H   0  0  0  0  0  0
  1 25  1  0  0  0
  1 30  2  0  0  0
  1 82  1  0  0  0
  2  3  1  0  0  0
  2 25  1  0  0  0
  2 84  1  0  0  0
  2 85  1  0  0  0
  3  4  1  0  0  0
  3 86  1  0  0  0
  3 87  1  0  0  0
  4  5  1  0  0  0
  4 88  1  0  0  0
  4 89  1  0  0  0
  5  6  1  0  0  0
  5 26  1  0  0  0
  5 90  1  0  0  0
  6 25  1  0  0  0
  6 91  1  0  0  0
  6 92  1  0  0  0
  7  8  2  0  0  0
  7 26  1  0  0  0
  7 29  1  0  0  0
  8  9  1  0  0  0
  8 22  1  0  0  0
  9 10  1  0  0  0
  9 27  2  0  0  0
 10 11  2  0  0  0
 10 15  1  0  0  0
 11 12  1  0  0  0
 11 93  1  0  0  0
 12 13  2  0  0  0
 12 94  1  0  0  0
 13 14  1  0  0  0
 13 31  1  0  0  0
 14 15  2  0  0  0
 14 95  1  0  0  0
 15 96  1  0  0  0
 16 17  2  0  0  0
 16 21  1  0  0  0
 16 31  1  0  0  0
 17 18  1  0  0  0
 17 97  1  0  0  0
 18 19  2  0  0  0
 18 98  1  0  0  0
 19 20  1  0  0  0
 19 24  1  0  0  0
 20 21  2  0  0  0
 20 99  1  0  0  0
 21 23  1  0  0  0
 22 28  1  0  0  0
 22 32  2  0  0  0
 26 27  1  0  0  0
 28100  1  0  0  0
 28101  1  0  0  0
 29102  1  0  0  0
 29103  1  0  0  0
 33 34  1  0  0  0
 33 66  1  0  0  0
 33 70  2  0  0  0
 34 36  1  0  0  0
 34 59  1  0  0  0
 34104  1  0  0  0
 35 44  2  0  0  0
 35 45  1  0  0  0
 35 68  1  0  0  0
 36 56  1  0  0  0
 36105  1  0  0  0
 37 39  1  0  0  0
 37 47  1  0  0  0
 37 66  1  0  0  0
 37106  1  0  0  0
 38 43  2  0  0  0
 38 46  1  0  0  0
 38 47  1  0  0  0
 39 64  1  0  0  0
 39 67  2  0  0  0
 40 52  1  0  0  0
 40 53  2  0  0  0
 40 58  1  0  0  0
 41107  1  0  0  0
 41108  1  0  0  0
 41109  1  0  0  0
 41 48  1  0  0  0
 42 43  1  0  0  0
 42 66  1  0  0  0
 42110  1  0  0  0
 42111  1  0  0  0
 43 44  1  0  0  0
 44112  1  0  0  0
 45 46  2  0  0  0
 45113  1  0  0  0
 46114  1  0  0  0
 47115  1  0  0  0
 47116  1  0  0  0
 48 56  1  0  0  0
 48 65  1  0  0  0
 48117  1  0  0  0
 49 50  1  0  0  0
 49 53  1  0  0  0
 49 64  1  0  0  0
 49118  1  0  0  0
 50 51  1  0  0  0
 50119  1  0  0  0
 50120  1  0  0  0
 51 52  1  0  0  0
 51121  1  0  0  0
 51122  1  0  0  0
 52123  1  0  0  0
 52124  1  0  0  0
 53 54  1  0  0  0
 54 55  2  0  0  0
 54125  1  0  0  0
 55 57  1  0  0  0
 55126  1  0  0  0
 56 69  2  0  0  0
 57 58  2  0  0  0
 57127  1  0  0  0
 58128  1  0  0  0
 59 60  1  0  0  0
 59 61  1  0  0  0
 59 62  1  0  0  0
 60129  1  0  0  0
 60130  1  0  0  0
 60131  1  0  0  0
 61132  1  0  0  0
 61133  1  0  0  0
 61134  1  0  0  0
 62135  1  0  0  0
 62136  1  0  0  0
 62137  1  0  0  0
 63 65  1  0  0  0
 63138  1  0  0  0
 63139  1  0  0  0
 63140  1  0  0  0
 64141  1  0  0  0
 65142  1  0  0  0
 68 80  1  0  0  0
 71 72  2  0  0  0
 71 74  1  0  0  0
 71143  1  0  0  0
 72 75  1  0  0  0
 72144  1  0  0  0
 73 75  2  0  0  0
 73 76  1  0  0  0
 73145  1  0  0  0
 74 76  2  0  0  0
 74 79  1  0  0  0
 75 82  1  0  0  0
 76 83  1  0  0  0
 77146  1  0  0  0
 77147  1  0  0  0
 77148  1  0  0  0
 77 81  1  0  0  0
 78 81  1  0  0  0
 78149  1  0  0  0
 78150  1  0  0  0
 78151  1  0  0  0
 79 80  1  0  0  0
 79152  1  0  0  0
 79153  1  0  0  0
 80154  1  0  0  0
 80155  1  0  0  0
 81 83  1  0  0  0
 81156  1  0  0  0
 82157  1  0  0  0
 83158  1  0  0  0
M  ISO  4   1 100  68 101  80 101  82 100
M  END
> <chiral flag>
0

> <version>
0

> <s_m_source_file>
/data/baiqing/PycharmProjects/Reinvent-master-3.2/result/LINK_invent/BTK/process_docking_weight1_custom_sum_contain_oxygen_bond_distance_aromatic_linkinvent_7_9_3/rearranged_h_0009.sdf

> <i_m_source_file_index>
24

> <r_mmod_Potential_Energy-OPLS-2005>
1005.64068603516

> <r_mmod_Stretch_Energy-OPLS-2005>
454.274108886719

> <r_mmod_Bend_Energy-OPLS-2005>
410.997619628906

> <r_mmod_Torsional_Energy-OPLS-2005>
225.368942260742

> <r_mmod_Improper_Torsional_Energy-OPLS-2005>
7.73300409317017

> <r_mmod_Van_der_Waal_Energy-OPLS-2005>
122.86994934082

> <r_mmod_Electrostatic_Energy-OPLS-2005>
-387.789764404297

> <r_mmod_Solvation_Energy-OPLS-2005>
-215.270111083984

> <b_mmod_Minimization_Converged-OPLS-2005>
0

> <r_mmod_RMS_Derivative-OPLS-2005>
3.10495758056641

$$$$
25
                    3D
 Structure written by MMmdl.
155162  0  0  1  0            999 V2000
  -30.5710  -14.7475   20.4411 C   0  0  0  0  0  0
  -30.4446  -12.4471   19.4828 C   0  0  0  0  0  0
  -29.5176  -12.5076   18.2457 C   0  0  0  0  0  0
  -28.0413  -12.3290   18.6555 C   0  0  0  0  0  0
  -27.6491  -13.2239   19.8611 C   0  0  2  0  0  0
  -28.6929  -13.1332   20.9993 C   0  0  0  0  0  0
  -25.2550  -13.8187   20.5695 C   0  0  0  0  0  0
  -24.1827  -13.0442   20.9215 C   0  0  0  0  0  0
  -24.6410  -11.6919   20.8770 C   0  0  0  0  0  0
  -23.9096  -10.4297   21.0419 C   0  0  0  0  0  0
  -24.3644   -9.4209   21.9188 C   0  0  0  0  0  0
  -23.6304   -8.2249   22.0753 C   0  0  0  0  0  0
  -22.4282   -8.0296   21.3549 C   0  0  0  0  0  0
  -21.9935   -9.0273   20.4655 C   0  0  0  0  0  0
  -22.7275  -10.2146   20.3068 C   0  0  0  0  0  0
  -21.6854   -6.0751   22.5286 C   0  0  0  0  0  0
  -21.4002   -6.5648   23.8216 C   0  0  0  0  0  0
  -21.3656   -5.6799   24.9179 C   0  0  0  0  0  0
  -21.6054   -4.3064   24.7227 C   0  0  0  0  0  0
  -21.8815   -3.8158   23.4347 C   0  0  0  0  0  0
  -21.9180   -4.6978   22.3399 C   0  0  0  0  0  0
  -22.7842  -13.5217   21.1866 C   0  0  0  0  0  0
  -22.1657   -4.2166   21.0979 F   0  0  0  0  0  0
  -21.5632   -3.4539   25.7735 F   0  0  0  0  0  0
  -30.0012  -13.4937   20.4329 N   0  0  0  0  0  0
  -26.2975  -12.9382   20.3322 N   0  0  0  0  0  0
  -25.9340  -11.6531   20.5797 N   0  0  0  0  0  0
  -22.0489  -12.8213   22.0424 N   0  0  0  0  0  0
  -25.4238  -15.1914   20.4087 N   0  0  0  0  0  0
  -31.7354  -14.9006   20.0618 O   0  0  0  0  0  0
  -21.6639   -6.8901   21.4251 O   0  0  0  0  0  0
  -22.3528  -14.5521   20.6707 O   0  0  0  0  0  0
  -24.6300  -31.8530   23.1944 C   0  0  0  0  0  0
  -25.9127  -32.4739   23.8296 C   0  0  1  0  0  0
  -27.2310  -27.2595   20.1365 C   0  0  0  0  0  0
  -25.5922  -33.8545   24.2230 N   0  0  0  0  0  0
  -23.4278  -30.4715   21.5361 C   0  0  2  0  0  0
  -24.8775  -28.9080   20.1066 C   0  0  0  0  0  0
  -22.7496  -29.4587   22.4898 C   0  0  0  0  0  0
  -18.0293  -28.1398   22.8485 C   0  0  0  0  0  0
  -24.1491  -36.7280   23.2640 C   0  0  0  0  0  0
  -25.9701  -30.7646   21.3724 C   0  0  0  0  0  0
  -26.0426  -29.3849   20.7178 C   0  0  0  0  0  0
  -27.2164  -28.5705   20.7222 C   0  0  0  0  0  0
  -26.0455  -26.8387   19.4989 C   0  0  0  0  0  0
  -24.8838  -27.6444   19.4872 C   0  0  0  0  0  0
  -23.6465  -29.7960   20.1538 C   0  0  0  0  0  0
  -25.4120  -36.3065   24.0322 C   0  0  1  0  0  0
  -20.5894  -28.3703   23.1272 C   0  0  2  0  0  0
  -20.6778  -26.9419   22.5416 C   0  0  0  0  0  0
  -19.5757  -26.6390   21.5219 C   0  0  0  0  0  0
  -18.1938  -26.7939   22.1627 C   0  0  0  0  0  0
  -19.1544  -28.8866   23.2872 C   0  0  0  0  0  0
  -18.9469  -30.1468   23.8892 C   0  0  0  0  0  0
  -17.6465  -30.6591   24.0571 C   0  0  0  0  0  0
  -25.9059  -34.9434   23.5083 C   0  0  0  0  0  0
  -16.5359  -29.9090   23.6334 C   0  0  0  0  0  0
  -16.7279  -28.6512   23.0346 C   0  0  0  0  0  0
  -26.4502  -31.6579   25.0697 C   0  0  0  0  0  0
  -25.3715  -31.3735   26.1412 C   0  0  0  0  0  0
  -27.0357  -30.2997   24.6193 C   0  0  0  0  0  0
  -27.6056  -32.4325   25.7466 C   0  0  0  0  0  0
  -27.5579  -37.1798   24.8468 C   0  0  0  0  0  0
  -21.4202  -29.3038   22.3646 N   0  0  0  0  0  0
  -26.4298  -37.3762   23.9400 N   0  0  0  0  0  0
  -24.6949  -31.0489   22.0910 N   0  0  0  0  0  0
  -23.4197  -28.8147   23.3012 O   0  0  0  0  0  0
  -28.3600  -26.4200   20.2421 O   0  0  0  0  0  0
  -26.5641  -34.8915   22.4659 O   0  0  0  0  0  0
  -23.5453  -32.1355   23.7245 O   0  0  0  0  0  0
  -31.9426  -17.2573   17.2787 C   0  0  0  0  0  0
  -30.8375  -17.1045   17.7733 C   0  0  0  0  0  0
  -29.8101  -18.6221   20.3914 C   0  0  0  0  0  0
  -29.4979  -16.9663   18.3769 C   0  0  0  0  0  0
  -28.6638  -22.3199   20.8525 C   0  0  0  0  0  0
  -27.8791  -23.6979   20.4416 C   0  0  0  0  0  0
  -29.1988  -21.1750   19.8490 C   0  0  0  0  0  0
  -28.4940  -25.0121   19.7309 C   0  0  0  0  0  0
  -29.4345  -17.1328   19.9198 C   0  0  1  0  0  0
  -28.9599  -19.6796   20.1025 N   0  0  0  0  0  0
  -29.7118  -15.8123   20.6574 N   0  0  0  0  0  0
  -30.9060  -18.8183   20.9177 O   0  0  0  0  0  0
  -31.4829  -12.5821   19.1791 H   0  0  0  0  0  0
  -30.3977  -11.4636   19.9531 H   0  0  0  0  0  0
  -29.8016  -11.7387   17.5267 H   0  0  0  0  0  0
  -29.6438  -13.4646   17.7365 H   0  0  0  0  0  0
  -27.8984  -11.2802   18.9180 H   0  0  0  0  0  0
  -27.3819  -12.5213   17.8092 H   0  0  0  0  0  0
  -27.6513  -14.2481   19.4893 H   0  0  0  0  0  0
  -28.7250  -12.1265   21.4172 H   0  0  0  0  0  0
  -28.4234  -13.7933   21.8254 H   0  0  0  0  0  0
  -25.2792   -9.5665   22.4776 H   0  0  0  0  0  0
  -24.0002   -7.4636   22.7477 H   0  0  0  0  0  0
  -21.0858   -8.8820   19.8960 H   0  0  0  0  0  0
  -22.3744  -10.9700   19.6195 H   0  0  0  0  0  0
  -21.1998   -7.6155   23.9730 H   0  0  0  0  0  0
  -21.1481   -6.0522   25.9084 H   0  0  0  0  0  0
  -22.0594   -2.7624   23.2831 H   0  0  0  0  0  0
  -22.4085  -11.9858   22.4811 H   0  0  0  0  0  0
  -21.1124  -13.1267   22.2656 H   0  0  0  0  0  0
  -24.6532  -15.8409   20.5200 H   0  0  0  0  0  0
  -26.2601  -15.6306   20.0473 H   0  0  0  0  0  0
  -26.7190  -32.5394   23.1030 H   0  0  0  0  0  0
  -25.0052  -33.9673   25.0365 H   0  0  0  0  0  0
  -22.7246  -31.2933   21.3864 H   0  0  0  0  0  0
  -23.3749  -35.9619   23.3321 H   0  0  0  0  0  0
  -24.3573  -36.8888   22.2053 H   0  0  0  0  0  0
  -23.7258  -37.6491   23.6658 H   0  0  0  0  0  0
  -26.1065  -31.5227   20.6002 H   0  0  0  0  0  0
  -26.8484  -30.8180   22.0040 H   0  0  0  0  0  0
  -28.1090  -28.9274   21.2171 H   0  0  0  0  0  0
  -25.9966  -25.8631   19.0378 H   0  0  0  0  0  0
  -23.9884  -27.2728   19.0085 H   0  0  0  0  0  0
  -23.7700  -30.5695   19.3944 H   0  0  0  0  0  0
  -22.7648  -29.2275   19.8525 H   0  0  0  0  0  0
  -25.1311  -36.1905   25.0817 H   0  0  0  0  0  0
  -20.9997  -28.3292   24.1389 H   0  0  0  0  0  0
  -20.5683  -26.2317   23.3622 H   0  0  0  0  0  0
  -21.6645  -26.7448   22.1207 H   0  0  0  0  0  0
  -19.6920  -25.6299   21.1247 H   0  0  0  0  0  0
  -19.6695  -27.3200   20.6748 H   0  0  0  0  0  0
  -17.4208  -26.6686   21.4026 H   0  0  0  0  0  0
  -18.0336  -26.0084   22.9026 H   0  0  0  0  0  0
  -19.7940  -30.7289   24.2255 H   0  0  0  0  0  0
  -17.5018  -31.6269   24.5178 H   0  0  0  0  0  0
  -15.5357  -30.2992   23.7662 H   0  0  0  0  0  0
  -15.8678  -28.0835   22.7055 H   0  0  0  0  0  0
  -24.5893  -30.7085   25.7734 H   0  0  0  0  0  0
  -24.8898  -32.2905   26.4815 H   0  0  0  0  0  0
  -25.8017  -30.8923   27.0203 H   0  0  0  0  0  0
  -26.2946  -29.6727   24.1224 H   0  0  0  0  0  0
  -27.4048  -29.7282   25.4719 H   0  0  0  0  0  0
  -27.8813  -30.4275   23.9430 H   0  0  0  0  0  0
  -27.2669  -33.3632   26.2028 H   0  0  0  0  0  0
  -28.3867  -32.6875   25.0292 H   0  0  0  0  0  0
  -28.0723  -31.8460   26.5390 H   0  0  0  0  0  0
  -28.2611  -38.0081   24.7497 H   0  0  0  0  0  0
  -28.1062  -36.2612   24.6322 H   0  0  0  0  0  0
  -27.2291  -37.1481   25.8871 H   0  0  0  0  0  0
  -20.9395  -29.8732   21.6821 H   0  0  0  0  0  0
  -26.0176  -38.2839   24.1389 H   0  0  0  0  0  0
  -32.9151  -17.4012   16.8601 H   0  0  0  0  0  0
  -29.0737  -16.0113   18.0647 H   0  0  0  0  0  0
  -28.8812  -17.7296   17.8999 H   0  0  0  0  0  0
  -27.9768  -21.8038   21.5250 H   0  0  0  0  0  0
  -29.4957  -22.5985   21.5005 H   0  0  0  0  0  0
  -27.4646  -24.0676   21.3811 H   0  0  0  0  0  0
  -26.9953  -23.4087   19.8703 H   0  0  0  0  0  0
  -30.2703  -21.3230   19.6997 H   0  0  0  0  0  0
  -28.7555  -21.3734   18.8724 H   0  0  0  0  0  0
  -28.1923  -25.0072   18.6838 H   0  0  0  0  0  0
  -29.5705  -24.8466   19.6926 H   0  0  0  0  0  0
  -28.3591  -17.1648   20.0978 H   0  0  0  0  0  0
  -28.0600  -19.3668   19.7576 H   0  0  0  0  0  0
  -28.8979  -15.5127   21.1720 H   0  0  0  0  0  0
  1 25  1  0  0  0
  1 30  2  0  0  0
  1 81  1  0  0  0
  2  3  1  0  0  0
  2 25  1  0  0  0
  2 83  1  0  0  0
  2 84  1  0  0  0
  3  4  1  0  0  0
  3 85  1  0  0  0
  3 86  1  0  0  0
  4  5  1  0  0  0
  4 87  1  0  0  0
  4 88  1  0  0  0
  5  6  1  0  0  0
  5 26  1  0  0  0
  5 89  1  0  0  0
  6 25  1  0  0  0
  6 90  1  0  0  0
  6 91  1  0  0  0
  7  8  2  0  0  0
  7 26  1  0  0  0
  7 29  1  0  0  0
  8  9  1  0  0  0
  8 22  1  0  0  0
  9 10  1  0  0  0
  9 27  2  0  0  0
 10 11  2  0  0  0
 10 15  1  0  0  0
 11 12  1  0  0  0
 11 92  1  0  0  0
 12 13  2  0  0  0
 12 93  1  0  0  0
 13 14  1  0  0  0
 13 31  1  0  0  0
 14 15  2  0  0  0
 14 94  1  0  0  0
 15 95  1  0  0  0
 16 17  2  0  0  0
 16 21  1  0  0  0
 16 31  1  0  0  0
 17 18  1  0  0  0
 17 96  1  0  0  0
 18 19  2  0  0  0
 18 97  1  0  0  0
 19 20  1  0  0  0
 19 24  1  0  0  0
 20 21  2  0  0  0
 20 98  1  0  0  0
 21 23  1  0  0  0
 22 28  1  0  0  0
 22 32  2  0  0  0
 26 27  1  0  0  0
 28 99  1  0  0  0
 28100  1  0  0  0
 29101  1  0  0  0
 29102  1  0  0  0
 33 34  1  0  0  0
 33 66  1  0  0  0
 33 70  2  0  0  0
 34 36  1  0  0  0
 34 59  1  0  0  0
 34103  1  0  0  0
 35 44  2  0  0  0
 35 45  1  0  0  0
 35 68  1  0  0  0
 36 56  1  0  0  0
 36104  1  0  0  0
 37 39  1  0  0  0
 37 47  1  0  0  0
 37 66  1  0  0  0
 37105  1  0  0  0
 38 43  2  0  0  0
 38 46  1  0  0  0
 38 47  1  0  0  0
 39 64  1  0  0  0
 39 67  2  0  0  0
 40 52  1  0  0  0
 40 53  2  0  0  0
 40 58  1  0  0  0
 41106  1  0  0  0
 41107  1  0  0  0
 41108  1  0  0  0
 41 48  1  0  0  0
 42 43  1  0  0  0
 42 66  1  0  0  0
 42109  1  0  0  0
 42110  1  0  0  0
 43 44  1  0  0  0
 44111  1  0  0  0
 45 46  2  0  0  0
 45112  1  0  0  0
 46113  1  0  0  0
 47114  1  0  0  0
 47115  1  0  0  0
 48 56  1  0  0  0
 48 65  1  0  0  0
 48116  1  0  0  0
 49 50  1  0  0  0
 49 53  1  0  0  0
 49 64  1  0  0  0
 49117  1  0  0  0
 50 51  1  0  0  0
 50118  1  0  0  0
 50119  1  0  0  0
 51 52  1  0  0  0
 51120  1  0  0  0
 51121  1  0  0  0
 52122  1  0  0  0
 52123  1  0  0  0
 53 54  1  0  0  0
 54 55  2  0  0  0
 54124  1  0  0  0
 55 57  1  0  0  0
 55125  1  0  0  0
 56 69  2  0  0  0
 57 58  2  0  0  0
 57126  1  0  0  0
 58127  1  0  0  0
 59 60  1  0  0  0
 59 61  1  0  0  0
 59 62  1  0  0  0
 60128  1  0  0  0
 60129  1  0  0  0
 60130  1  0  0  0
 61131  1  0  0  0
 61132  1  0  0  0
 61133  1  0  0  0
 62134  1  0  0  0
 62135  1  0  0  0
 62136  1  0  0  0
 63 65  1  0  0  0
 63137  1  0  0  0
 63138  1  0  0  0
 63139  1  0  0  0
 64140  1  0  0  0
 65141  1  0  0  0
 68 78  1  0  0  0
 71 72  3  0  0  0
 71142  1  0  0  0
 72 74  1  0  0  0
 73 79  1  0  0  0
 73 80  1  0  0  0
 73 82  2  0  0  0
 74143  1  0  0  0
 74144  1  0  0  0
 74 79  1  0  0  0
 75 76  1  0  0  0
 75 77  1  0  0  0
 75145  1  0  0  0
 75146  1  0  0  0
 76 78  1  0  0  0
 76147  1  0  0  0
 76148  1  0  0  0
 77 80  1  0  0  0
 77149  1  0  0  0
 77150  1  0  0  0
 78151  1  0  0  0
 78152  1  0  0  0
 79 81  1  0  0  0
 79153  1  0  0  0
 80154  1  0  0  0
 81155  1  0  0  0
M  ISO  4   1 100  68 101  78 101  81 100
M  END
> <chiral flag>
0

> <version>
0

> <s_m_source_file>
/data/baiqing/PycharmProjects/Reinvent-master-3.2/result/LINK_invent/BTK/process_docking_weight1_custom_sum_contain_oxygen_bond_distance_aromatic_linkinvent_7_9_3/rearranged_h_0009.sdf

> <i_m_source_file_index>
25

> <r_mmod_Potential_Energy-OPLS-2005>
111.90690612793

> <r_mmod_Stretch_Energy-OPLS-2005>
126.614868164062

> <r_mmod_Bend_Energy-OPLS-2005>
255.378616333008

> <r_mmod_Torsional_Energy-OPLS-2005>
255.74267578125

> <r_mmod_Improper_Torsional_Energy-OPLS-2005>
9.23425483703613

> <r_mmod_Van_der_Waal_Energy-OPLS-2005>
103.863731384277

> <r_mmod_Electrostatic_Energy-OPLS-2005>
-457.448150634766

> <r_mmod_Solvation_Energy-OPLS-2005>
-267.019256591797

> <b_mmod_Minimization_Converged-OPLS-2005>
0

> <r_mmod_RMS_Derivative-OPLS-2005>
1.99503350257874

$$$$
26
                    3D
 Structure written by MMmdl.
151159  0  0  1  0            999 V2000
  -30.6183  -14.6884   20.5139 C   0  0  0  0  0  0
  -30.4359  -12.4337   19.4638 C   0  0  0  0  0  0
  -29.5135  -12.5566   18.2311 C   0  0  0  0  0  0
  -28.0372  -12.3840   18.6297 C   0  0  0  0  0  0
  -27.6555  -13.2329   19.8715 C   0  0  2  0  0  0
  -28.6981  -13.0967   21.0054 C   0  0  0  0  0  0
  -25.2556  -13.8210   20.5713 C   0  0  0  0  0  0
  -24.1819  -13.0449   20.9188 C   0  0  0  0  0  0
  -24.6435  -11.6934   20.8744 C   0  0  0  0  0  0
  -23.9092  -10.4291   21.0363 C   0  0  0  0  0  0
  -24.3651   -9.4206   21.9131 C   0  0  0  0  0  0
  -23.6309   -8.2257   22.0720 C   0  0  0  0  0  0
  -22.4288   -8.0293   21.3541 C   0  0  0  0  0  0
  -21.9934   -9.0258   20.4628 C   0  0  0  0  0  0
  -22.7273  -10.2129   20.3016 C   0  0  0  0  0  0
  -21.6874   -6.0737   22.5277 C   0  0  0  0  0  0
  -21.4030   -6.5634   23.8203 C   0  0  0  0  0  0
  -21.3679   -5.6772   24.9165 C   0  0  0  0  0  0
  -21.6040   -4.3054   24.7207 C   0  0  0  0  0  0
  -21.8837   -3.8139   23.4323 C   0  0  0  0  0  0
  -21.9204   -4.6962   22.3389 C   0  0  0  0  0  0
  -22.7831  -13.5241   21.1808 C   0  0  0  0  0  0
  -22.1651   -4.2152   21.0969 F   0  0  0  0  0  0
  -21.5636   -3.4527   25.7714 F   0  0  0  0  0  0
  -30.0159  -13.4528   20.4529 N   0  0  0  0  0  0
  -26.3007  -12.9411   20.3353 N   0  0  0  0  0  0
  -25.9377  -11.6563   20.5761 N   0  0  0  0  0  0
  -22.0454  -12.8264   22.0419 N   0  0  0  0  0  0
  -25.4261  -15.1926   20.4188 N   0  0  0  0  0  0
  -31.7466  -14.8581   20.0396 O   0  0  0  0  0  0
  -21.6664   -6.8882   21.4224 O   0  0  0  0  0  0
  -22.3495  -14.5516   20.6631 O   0  0  0  0  0  0
  -24.6263  -31.8598   23.1996 C   0  0  0  0  0  0
  -25.9118  -32.4779   23.8327 C   0  0  1  0  0  0
  -27.2440  -27.3066   20.1323 C   0  0  0  0  0  0
  -25.5949  -33.8587   24.2276 N   0  0  0  0  0  0
  -23.4204  -30.4782   21.5458 C   0  0  2  0  0  0
  -24.8716  -28.9196   20.1219 C   0  0  0  0  0  0
  -22.7472  -29.4642   22.4998 C   0  0  0  0  0  0
  -18.0303  -28.1373   22.8479 C   0  0  0  0  0  0
  -24.1504  -36.7279   23.2632 C   0  0  0  0  0  0
  -25.9629  -30.7810   21.3774 C   0  0  0  0  0  0
  -26.0393  -29.4068   20.7226 C   0  0  0  0  0  0
  -27.2260  -28.6130   20.7158 C   0  0  0  0  0  0
  -26.0486  -26.8692   19.5151 C   0  0  0  0  0  0
  -24.8787  -27.6550   19.5111 C   0  0  0  0  0  0
  -23.6351  -29.7970   20.1681 C   0  0  0  0  0  0
  -25.4137  -36.3092   24.0332 C   0  0  1  0  0  0
  -20.5892  -28.3685   23.1288 C   0  0  2  0  0  0
  -20.6825  -26.9422   22.5401 C   0  0  0  0  0  0
  -19.5800  -26.6366   21.5226 C   0  0  0  0  0  0
  -18.1971  -26.7919   22.1604 C   0  0  0  0  0  0
  -19.1543  -28.8850   23.2867 C   0  0  0  0  0  0
  -18.9471  -30.1464   23.8859 C   0  0  0  0  0  0
  -17.6464  -30.6574   24.0553 C   0  0  0  0  0  0
  -25.9078  -34.9468   23.5103 C   0  0  0  0  0  0
  -16.5364  -29.9063   23.6332 C   0  0  0  0  0  0
  -16.7285  -28.6480   23.0351 C   0  0  0  0  0  0
  -26.4481  -31.6589   25.0709 C   0  0  0  0  0  0
  -25.3699  -31.3732   26.1424 C   0  0  0  0  0  0
  -27.0354  -30.3025   24.6179 C   0  0  0  0  0  0
  -27.6045  -32.4320   25.7470 C   0  0  0  0  0  0
  -27.5609  -37.1794   24.8455 C   0  0  0  0  0  0
  -21.4202  -29.3019   22.3689 N   0  0  0  0  0  0
  -26.4304  -37.3797   23.9413 N   0  0  0  0  0  0
  -24.6886  -31.0584   22.0967 N   0  0  0  0  0  0
  -23.4166  -28.8224   23.3136 O   0  0  0  0  0  0
  -28.3839  -26.4785   20.1614 O   0  0  0  0  0  0
  -26.5641  -34.8918   22.4668 O   0  0  0  0  0  0
  -23.5438  -32.1430   23.7307 O   0  0  0  0  0  0
  -30.3063  -17.7857   19.5591 C   0  0  0  0  0  0
  -29.3834  -18.0960   21.7608 C   0  0  0  0  0  0
  -30.1503  -19.1846   19.3131 C   0  0  0  0  0  0
  -29.2632  -19.5058   21.5264 C   0  0  0  0  0  0
  -29.9033  -17.1873   20.7885 C   0  0  0  0  0  0
  -29.6223  -20.0930   20.2781 C   0  0  0  0  0  0
  -29.4960  -24.0739   20.3620 C   0  0  0  0  0  0
  -29.4037  -22.5508   20.8796 C   0  0  0  0  0  0
  -28.2090  -25.0020   20.2058 C   0  0  0  0  0  0
  -29.8978  -15.7332   21.0433 N   0  0  0  0  0  0
  -29.4531  -21.4503   19.9079 O   0  0  0  0  0  0
  -31.4753  -12.5568   19.1615 H   0  0  0  0  0  0
  -30.3658  -11.4324   19.8887 H   0  0  0  0  0  0
  -29.7913  -11.8247   17.4695 H   0  0  0  0  0  0
  -29.6525  -13.5380   17.7753 H   0  0  0  0  0  0
  -27.8735  -11.3263   18.8296 H   0  0  0  0  0  0
  -27.3910  -12.6356   17.7882 H   0  0  0  0  0  0
  -27.6693  -14.2727   19.5484 H   0  0  0  0  0  0
  -28.7155  -12.0734   21.3863 H   0  0  0  0  0  0
  -28.4291  -13.7289   21.8511 H   0  0  0  0  0  0
  -25.2775   -9.5720   22.4711 H   0  0  0  0  0  0
  -24.0047   -7.4666   22.7467 H   0  0  0  0  0  0
  -21.0850   -8.8770   19.8950 H   0  0  0  0  0  0
  -22.3685  -10.9673   19.6153 H   0  0  0  0  0  0
  -21.2008   -7.6126   23.9721 H   0  0  0  0  0  0
  -21.1483   -6.0488   25.9079 H   0  0  0  0  0  0
  -22.0594   -2.7597   23.2816 H   0  0  0  0  0  0
  -22.4062  -11.9965   22.4895 H   0  0  0  0  0  0
  -21.1051  -13.1241   22.2523 H   0  0  0  0  0  0
  -24.6665  -15.8532   20.5436 H   0  0  0  0  0  0
  -26.2856  -15.6363   20.1247 H   0  0  0  0  0  0
  -26.7180  -32.5417   23.1067 H   0  0  0  0  0  0
  -25.0177  -33.9724   25.0473 H   0  0  0  0  0  0
  -22.7144  -31.2989   21.3978 H   0  0  0  0  0  0
  -23.3803  -35.9568   23.3274 H   0  0  0  0  0  0
  -24.3602  -36.8921   22.2046 H   0  0  0  0  0  0
  -23.7201  -37.6453   23.6661 H   0  0  0  0  0  0
  -26.1067  -31.5404   20.6075 H   0  0  0  0  0  0
  -26.8363  -30.8237   22.0166 H   0  0  0  0  0  0
  -28.1177  -28.9868   21.2001 H   0  0  0  0  0  0
  -25.9934  -25.9038   19.0360 H   0  0  0  0  0  0
  -23.9843  -27.2690   19.0415 H   0  0  0  0  0  0
  -23.7403  -30.5632   19.4004 H   0  0  0  0  0  0
  -22.7556  -29.2188   19.8770 H   0  0  0  0  0  0
  -25.1316  -36.1953   25.0827 H   0  0  0  0  0  0
  -20.9965  -28.3272   24.1415 H   0  0  0  0  0  0
  -20.5799  -26.2308   23.3595 H   0  0  0  0  0  0
  -21.6692  -26.7520   22.1159 H   0  0  0  0  0  0
  -19.6998  -25.6281   21.1261 H   0  0  0  0  0  0
  -19.6737  -27.3157   20.6745 H   0  0  0  0  0  0
  -17.4273  -26.6667   21.3983 H   0  0  0  0  0  0
  -18.0346  -26.0029   22.8950 H   0  0  0  0  0  0
  -19.7957  -30.7303   24.2150 H   0  0  0  0  0  0
  -17.5032  -31.6249   24.5162 H   0  0  0  0  0  0
  -15.5365  -30.2946   23.7697 H   0  0  0  0  0  0
  -15.8687  -28.0785   22.7088 H   0  0  0  0  0  0
  -24.5841  -30.7139   25.7725 H   0  0  0  0  0  0
  -24.8923  -32.2906   26.4872 H   0  0  0  0  0  0
  -25.7975  -30.8855   27.0188 H   0  0  0  0  0  0
  -26.2957  -29.6747   24.1210 H   0  0  0  0  0  0
  -27.4094  -29.7292   25.4666 H   0  0  0  0  0  0
  -27.8785  -30.4337   23.9399 H   0  0  0  0  0  0
  -27.2672  -33.3616   26.2050 H   0  0  0  0  0  0
  -28.3834  -32.6889   25.0286 H   0  0  0  0  0  0
  -28.0734  -31.8453   26.5370 H   0  0  0  0  0  0
  -28.2593  -38.0129   24.7612 H   0  0  0  0  0  0
  -28.1151  -36.2687   24.6170 H   0  0  0  0  0  0
  -27.2338  -37.1292   25.8850 H   0  0  0  0  0  0
  -20.9436  -29.8639   21.6781 H   0  0  0  0  0  0
  -26.0207  -38.2871   24.1430 H   0  0  0  0  0  0
  -30.7036  -17.1789   18.7545 H   0  0  0  0  0  0
  -29.0400  -17.7192   22.7203 H   0  0  0  0  0  0
  -30.4406  -19.5683   18.3432 H   0  0  0  0  0  0
  -28.8440  -20.1135   22.3196 H   0  0  0  0  0  0
  -30.0759  -24.0950   19.4386 H   0  0  0  0  0  0
  -30.1279  -24.5954   21.0820 H   0  0  0  0  0  0
  -28.5720  -22.4378   21.5775 H   0  0  0  0  0  0
  -30.3014  -22.3971   21.4825 H   0  0  0  0  0  0
  -27.5390  -24.7864   21.0384 H   0  0  0  0  0  0
  -27.7049  -24.6696   19.3012 H   0  0  0  0  0  0
  -29.1493  -15.4223   21.6469 H   0  0  0  0  0  0
  1 25  1  0  0  0
  1 30  2  0  0  0
  1 80  1  0  0  0
  2  3  1  0  0  0
  2 25  1  0  0  0
  2 82  1  0  0  0
  2 83  1  0  0  0
  3  4  1  0  0  0
  3 84  1  0  0  0
  3 85  1  0  0  0
  4  5  1  0  0  0
  4 86  1  0  0  0
  4 87  1  0  0  0
  5  6  1  0  0  0
  5 26  1  0  0  0
  5 88  1  0  0  0
  6 25  1  0  0  0
  6 89  1  0  0  0
  6 90  1  0  0  0
  7  8  2  0  0  0
  7 26  1  0  0  0
  7 29  1  0  0  0
  8  9  1  0  0  0
  8 22  1  0  0  0
  9 10  1  0  0  0
  9 27  2  0  0  0
 10 11  2  0  0  0
 10 15  1  0  0  0
 11 12  1  0  0  0
 11 91  1  0  0  0
 12 13  2  0  0  0
 12 92  1  0  0  0
 13 14  1  0  0  0
 13 31  1  0  0  0
 14 15  2  0  0  0
 14 93  1  0  0  0
 15 94  1  0  0  0
 16 17  2  0  0  0
 16 21  1  0  0  0
 16 31  1  0  0  0
 17 18  1  0  0  0
 17 95  1  0  0  0
 18 19  2  0  0  0
 18 96  1  0  0  0
 19 20  1  0  0  0
 19 24  1  0  0  0
 20 21  2  0  0  0
 20 97  1  0  0  0
 21 23  1  0  0  0
 22 28  1  0  0  0
 22 32  2  0  0  0
 26 27  1  0  0  0
 28 98  1  0  0  0
 28 99  1  0  0  0
 29100  1  0  0  0
 29101  1  0  0  0
 33 34  1  0  0  0
 33 66  1  0  0  0
 33 70  2  0  0  0
 34 36  1  0  0  0
 34 59  1  0  0  0
 34102  1  0  0  0
 35 44  2  0  0  0
 35 45  1  0  0  0
 35 68  1  0  0  0
 36 56  1  0  0  0
 36103  1  0  0  0
 37 39  1  0  0  0
 37 47  1  0  0  0
 37 66  1  0  0  0
 37104  1  0  0  0
 38 43  2  0  0  0
 38 46  1  0  0  0
 38 47  1  0  0  0
 39 64  1  0  0  0
 39 67  2  0  0  0
 40 52  1  0  0  0
 40 53  2  0  0  0
 40 58  1  0  0  0
 41105  1  0  0  0
 41106  1  0  0  0
 41107  1  0  0  0
 41 48  1  0  0  0
 42 43  1  0  0  0
 42 66  1  0  0  0
 42108  1  0  0  0
 42109  1  0  0  0
 43 44  1  0  0  0
 44110  1  0  0  0
 45 46  2  0  0  0
 45111  1  0  0  0
 46112  1  0  0  0
 47113  1  0  0  0
 47114  1  0  0  0
 48 56  1  0  0  0
 48 65  1  0  0  0
 48115  1  0  0  0
 49 50  1  0  0  0
 49 53  1  0  0  0
 49 64  1  0  0  0
 49116  1  0  0  0
 50 51  1  0  0  0
 50117  1  0  0  0
 50118  1  0  0  0
 51 52  1  0  0  0
 51119  1  0  0  0
 51120  1  0  0  0
 52121  1  0  0  0
 52122  1  0  0  0
 53 54  1  0  0  0
 54 55  2  0  0  0
 54123  1  0  0  0
 55 57  1  0  0  0
 55124  1  0  0  0
 56 69  2  0  0  0
 57 58  2  0  0  0
 57125  1  0  0  0
 58126  1  0  0  0
 59 60  1  0  0  0
 59 61  1  0  0  0
 59 62  1  0  0  0
 60127  1  0  0  0
 60128  1  0  0  0
 60129  1  0  0  0
 61130  1  0  0  0
 61131  1  0  0  0
 61132  1  0  0  0
 62133  1  0  0  0
 62134  1  0  0  0
 62135  1  0  0  0
 63 65  1  0  0  0
 63136  1  0  0  0
 63137  1  0  0  0
 63138  1  0  0  0
 64139  1  0  0  0
 65140  1  0  0  0
 68 79  1  0  0  0
 71 73  2  0  0  0
 71 75  1  0  0  0
 71141  1  0  0  0
 72 74  1  0  0  0
 72 75  2  0  0  0
 72142  1  0  0  0
 73 76  1  0  0  0
 73143  1  0  0  0
 74 76  2  0  0  0
 74144  1  0  0  0
 75 80  1  0  0  0
 76 81  1  0  0  0
 77 78  1  0  0  0
 77 79  1  0  0  0
 77145  1  0  0  0
 77146  1  0  0  0
 78 81  1  0  0  0
 78147  1  0  0  0
 78148  1  0  0  0
 79149  1  0  0  0
 79150  1  0  0  0
 80151  1  0  0  0
M  ISO  4   1 100  68 101  79 101  80 100
M  END
> <chiral flag>
0

> <version>
0

> <s_m_source_file>
/data/baiqing/PycharmProjects/Reinvent-master-3.2/result/LINK_invent/BTK/process_docking_weight1_custom_sum_contain_oxygen_bond_distance_aromatic_linkinvent_7_9_3/rearranged_h_0009.sdf

> <i_m_source_file_index>
26

> <r_mmod_Potential_Energy-OPLS-2005>
87.3086853027344

> <r_mmod_Stretch_Energy-OPLS-2005>
91.08984375

> <r_mmod_Bend_Energy-OPLS-2005>
159.319290161133

> <r_mmod_Torsional_Energy-OPLS-2005>
236.013916015625

> <r_mmod_Improper_Torsional_Energy-OPLS-2005>
3.05807876586914

> <r_mmod_Van_der_Waal_Energy-OPLS-2005>
138.714782714844

> <r_mmod_Electrostatic_Energy-OPLS-2005>
-383.976654052734

> <r_mmod_Solvation_Energy-OPLS-2005>
-214.270523071289

> <b_mmod_Minimization_Converged-OPLS-2005>
0

> <r_mmod_RMS_Derivative-OPLS-2005>
5.72391843795776

$$$$
27
                    3D
 Structure written by MMmdl.
148156  0  0  1  0            999 V2000
  -30.3818  -15.3087   20.3548 C   0  0  0  0  0  0
  -30.4305  -12.8294   19.5537 C   0  0  0  0  0  0
  -29.5425  -12.6077   18.3003 C   0  0  0  0  0  0
  -28.0883  -12.3225   18.7100 C   0  0  0  0  0  0
  -27.6103  -13.2849   19.8270 C   0  0  2  0  0  0
  -28.6335  -13.4514   20.9735 C   0  0  0  0  0  0
  -25.2397  -13.8245   20.5793 C   0  0  0  0  0  0
  -24.1736  -13.0436   20.9263 C   0  0  0  0  0  0
  -24.6408  -11.6940   20.8734 C   0  0  0  0  0  0
  -23.9097  -10.4299   21.0398 C   0  0  0  0  0  0
  -24.3652   -9.4205   21.9163 C   0  0  0  0  0  0
  -23.6316   -8.2244   22.0726 C   0  0  0  0  0  0
  -22.4289   -8.0287   21.3539 C   0  0  0  0  0  0
  -21.9941   -9.0264   20.4644 C   0  0  0  0  0  0
  -22.7273  -10.2138   20.3053 C   0  0  0  0  0  0
  -21.6847   -6.0749   22.5286 C   0  0  0  0  0  0
  -21.4016   -6.5643   23.8226 C   0  0  0  0  0  0
  -21.3650   -5.6792   24.9176 C   0  0  0  0  0  0
  -21.6049   -4.3061   24.7227 C   0  0  0  0  0  0
  -21.8808   -3.8157   23.4346 C   0  0  0  0  0  0
  -21.9195   -4.6974   22.3405 C   0  0  0  0  0  0
  -22.7773  -13.5191   21.1929 C   0  0  0  0  0  0
  -22.1659   -4.2163   21.0982 F   0  0  0  0  0  0
  -21.5628   -3.4534   25.7736 F   0  0  0  0  0  0
  -29.8672  -13.9751   20.3703 N   0  0  0  0  0  0
  -26.2807  -12.9546   20.3206 N   0  0  0  0  0  0
  -25.9343  -11.6643   20.5665 N   0  0  0  0  0  0
  -22.0444  -12.8183   22.0494 N   0  0  0  0  0  0
  -25.4114  -15.1972   20.4302 N   0  0  0  0  0  0
  -31.5840  -15.3292   20.0398 O   0  0  0  0  0  0
  -21.6631   -6.8892   21.4253 O   0  0  0  0  0  0
  -22.3456  -14.5492   20.6758 O   0  0  0  0  0  0
  -24.6653  -31.8178   23.1655 C   0  0  0  0  0  0
  -25.9305  -32.4552   23.8151 C   0  0  1  0  0  0
  -27.2121  -26.8791   20.1984 C   0  0  0  0  0  0
  -25.5954  -33.8370   24.2051 N   0  0  0  0  0  0
  -23.4831  -30.4252   21.5163 C   0  0  2  0  0  0
  -24.9349  -28.7998   20.1119 C   0  0  0  0  0  0
  -22.7683  -29.4396   22.4775 C   0  0  0  0  0  0
  -18.0337  -28.1434   22.8378 C   0  0  0  0  0  0
  -24.1487  -36.7167   23.2651 C   0  0  0  0  0  0
  -26.0509  -30.6067   21.4079 C   0  0  0  0  0  0
  -26.1169  -29.1924   20.7514 C   0  0  0  0  0  0
  -27.2464  -28.2508   20.7704 C   0  0  0  0  0  0
  -26.0047  -26.6509   19.5019 C   0  0  0  0  0  0
  -24.9070  -27.5540   19.4640 C   0  0  0  0  0  0
  -23.7250  -29.7369   20.1429 C   0  0  0  0  0  0
  -25.4126  -36.2932   24.0308 C   0  0  1  0  0  0
  -20.5966  -28.3790   23.1285 C   0  0  2  0  0  0
  -20.6762  -26.9370   22.5790 C   0  0  0  0  0  0
  -19.6007  -26.6421   21.5299 C   0  0  0  0  0  0
  -18.2021  -26.8041   22.1411 C   0  0  0  0  0  0
  -19.1583  -28.8914   23.2826 C   0  0  0  0  0  0
  -18.9456  -30.1496   23.8859 C   0  0  0  0  0  0
  -17.6422  -30.6570   24.0525 C   0  0  0  0  0  0
  -25.9110  -34.9330   23.5019 C   0  0  0  0  0  0
  -16.5333  -29.9057   23.6263 C   0  0  0  0  0  0
  -16.7293  -28.6494   23.0272 C   0  0  0  0  0  0
  -26.4564  -31.6518   25.0701 C   0  0  0  0  0  0
  -25.3680  -31.3784   26.1354 C   0  0  0  0  0  0
  -27.0483  -30.2869   24.6494 C   0  0  0  0  0  0
  -27.6045  -32.4362   25.7491 C   0  0  0  0  0  0
  -27.5575  -37.1707   24.8452 C   0  0  0  0  0  0
  -21.4355  -29.2978   22.3505 N   0  0  0  0  0  0
  -26.4242  -37.3688   23.9457 N   0  0  0  0  0  0
  -24.7545  -30.9810   22.0819 N   0  0  0  0  0  0
  -23.4215  -28.7992   23.3043 O   0  0  0  0  0  0
  -28.2210  -25.7720   20.3023 O   0  0  0  0  0  0
  -26.5736  -34.8865   22.4626 O   0  0  0  0  0  0
  -23.5698  -32.1180   23.6695 O   0  0  0  0  0  0
  -28.9055  -17.7186   18.7201 C   0  0  0  0  0  0
  -27.4931  -17.7801   18.6276 C   0  0  0  0  0  0
  -27.4046  -19.2511   20.5777 C   0  0  0  0  0  0
  -29.4746  -18.0653   19.9654 C   0  0  0  0  0  0
  -28.7956  -19.4264   20.4179 C   0  0  0  0  0  0
  -26.7458  -18.4409   19.6278 C   0  0  0  0  0  0
  -28.1789  -24.1133   20.0328 C   0  0  0  0  0  0
  -28.3808  -22.3635   20.6097 C   0  0  0  0  0  0
  -29.6149  -16.5682   20.5989 N   0  0  0  0  0  0
  -29.0973  -20.9223   20.1470 O   0  0  0  0  0  0
  -25.3923  -18.3954   19.6009 F   0  0  0  0  0  0
  -31.4551  -13.0283   19.2380 H   0  0  0  0  0  0
  -30.4922  -11.9184   20.1512 H   0  0  0  0  0  0
  -29.9360  -11.7918   17.6907 H   0  0  0  0  0  0
  -29.5795  -13.5023   17.6779 H   0  0  0  0  0  0
  -28.0417  -11.2937   19.0664 H   0  0  0  0  0  0
  -27.4294  -12.3773   17.8406 H   0  0  0  0  0  0
  -27.5267  -14.2530   19.3319 H   0  0  0  0  0  0
  -28.8078  -12.5145   21.5052 H   0  0  0  0  0  0
  -28.2635  -14.1625   21.7148 H   0  0  0  0  0  0
  -25.2800   -9.5663   22.4737 H   0  0  0  0  0  0
  -24.0014   -7.4628   22.7447 H   0  0  0  0  0  0
  -21.0861   -8.8806   19.8967 H   0  0  0  0  0  0
  -22.3732  -10.9685   19.6168 H   0  0  0  0  0  0
  -21.1995   -7.6151   23.9729 H   0  0  0  0  0  0
  -21.1488   -6.0523   25.9083 H   0  0  0  0  0  0
  -22.0597   -2.7622   23.2843 H   0  0  0  0  0  0
  -22.4091  -11.9866   22.4915 H   0  0  0  0  0  0
  -21.1061  -13.1202   22.2675 H   0  0  0  0  0  0
  -24.6574  -15.8638   20.5519 H   0  0  0  0  0  0
  -26.2616  -15.6323   20.1013 H   0  0  0  0  0  0
  -26.7371  -32.5089   23.0858 H   0  0  0  0  0  0
  -25.0013  -33.9470   25.0128 H   0  0  0  0  0  0
  -22.7970  -31.2593   21.3427 H   0  0  0  0  0  0
  -23.3808  -35.9432   23.3190 H   0  0  0  0  0  0
  -24.3576  -36.8934   22.2090 H   0  0  0  0  0  0
  -23.7167  -37.6279   23.6787 H   0  0  0  0  0  0
  -26.2463  -31.3472   20.6343 H   0  0  0  0  0  0
  -26.9019  -30.6562   22.0728 H   0  0  0  0  0  0
  -28.1358  -28.5451   21.3099 H   0  0  0  0  0  0
  -25.8806  -25.6969   19.0095 H   0  0  0  0  0  0
  -24.0126  -27.2481   18.9391 H   0  0  0  0  0  0
  -23.8890  -30.5058   19.3862 H   0  0  0  0  0  0
  -22.8321  -29.1993   19.8206 H   0  0  0  0  0  0
  -25.1319  -36.1713   25.0789 H   0  0  0  0  0  0
  -21.0056  -28.3584   24.1407 H   0  0  0  0  0  0
  -20.5064  -26.2555   23.4148 H   0  0  0  0  0  0
  -21.6791  -26.6992   22.2164 H   0  0  0  0  0  0
  -19.7200  -25.6365   21.1273 H   0  0  0  0  0  0
  -19.7288  -27.3292   20.6921 H   0  0  0  0  0  0
  -17.4492  -26.7019   21.3587 H   0  0  0  0  0  0
  -18.0097  -26.0085   22.8668 H   0  0  0  0  0  0
  -19.7919  -30.7341   24.2286 H   0  0  0  0  0  0
  -17.4979  -31.6218   24.5159 H   0  0  0  0  0  0
  -15.5316  -30.2937   23.7568 H   0  0  0  0  0  0
  -15.8679  -28.0841   22.6962 H   0  0  0  0  0  0
  -24.5858  -30.7147   25.7651 H   0  0  0  0  0  0
  -24.8884  -32.2987   26.4690 H   0  0  0  0  0  0
  -25.7896  -30.8997   27.0197 H   0  0  0  0  0  0
  -26.3164  -29.6516   24.1483 H   0  0  0  0  0  0
  -27.3950  -29.7287   25.5203 H   0  0  0  0  0  0
  -27.9139  -30.4043   23.9973 H   0  0  0  0  0  0
  -27.2596  -33.3705   26.1936 H   0  0  0  0  0  0
  -28.3891  -32.6855   25.0337 H   0  0  0  0  0  0
  -28.0662  -31.8585   26.5503 H   0  0  0  0  0  0
  -28.2497  -38.0094   24.7624 H   0  0  0  0  0  0
  -28.1172  -36.2640   24.6126 H   0  0  0  0  0  0
  -27.2322  -37.1141   25.8848 H   0  0  0  0  0  0
  -20.9590  -29.8611   21.6600 H   0  0  0  0  0  0
  -26.0095  -38.2720   24.1550 H   0  0  0  0  0  0
  -29.3780  -16.9925   18.0701 H   0  0  0  0  0  0
  -26.9763  -17.2597   17.8282 H   0  0  0  0  0  0
  -26.7941  -19.9633   21.1145 H   0  0  0  0  0  0
  -29.2440  -24.1733   19.8127 H   0  0  0  0  0  0
  -27.8440  -24.2348   21.0643 H   0  0  0  0  0  0
  -28.8678  -22.4850   21.5797 H   0  0  0  0  0  0
  -27.3677  -22.0729   20.8813 H   0  0  0  0  0  0
  -28.8028  -16.3485   21.1570 H   0  0  0  0  0  0
  1 25  1  0  0  0
  1 30  2  0  0  0
  1 79  1  0  0  0
  2  3  1  0  0  0
  2 25  1  0  0  0
  2 82  1  0  0  0
  2 83  1  0  0  0
  3  4  1  0  0  0
  3 84  1  0  0  0
  3 85  1  0  0  0
  4  5  1  0  0  0
  4 86  1  0  0  0
  4 87  1  0  0  0
  5  6  1  0  0  0
  5 26  1  0  0  0
  5 88  1  0  0  0
  6 25  1  0  0  0
  6 89  1  0  0  0
  6 90  1  0  0  0
  7  8  2  0  0  0
  7 26  1  0  0  0
  7 29  1  0  0  0
  8  9  1  0  0  0
  8 22  1  0  0  0
  9 10  1  0  0  0
  9 27  2  0  0  0
 10 11  2  0  0  0
 10 15  1  0  0  0
 11 12  1  0  0  0
 11 91  1  0  0  0
 12 13  2  0  0  0
 12 92  1  0  0  0
 13 14  1  0  0  0
 13 31  1  0  0  0
 14 15  2  0  0  0
 14 93  1  0  0  0
 15 94  1  0  0  0
 16 17  2  0  0  0
 16 21  1  0  0  0
 16 31  1  0  0  0
 17 18  1  0  0  0
 17 95  1  0  0  0
 18 19  2  0  0  0
 18 96  1  0  0  0
 19 20  1  0  0  0
 19 24  1  0  0  0
 20 21  2  0  0  0
 20 97  1  0  0  0
 21 23  1  0  0  0
 22 28  1  0  0  0
 22 32  2  0  0  0
 26 27  1  0  0  0
 28 98  1  0  0  0
 28 99  1  0  0  0
 29100  1  0  0  0
 29101  1  0  0  0
 33 34  1  0  0  0
 33 66  1  0  0  0
 33 70  2  0  0  0
 34 36  1  0  0  0
 34 59  1  0  0  0
 34102  1  0  0  0
 35 44  2  0  0  0
 35 45  1  0  0  0
 35 68  1  0  0  0
 36 56  1  0  0  0
 36103  1  0  0  0
 37 39  1  0  0  0
 37 47  1  0  0  0
 37 66  1  0  0  0
 37104  1  0  0  0
 38 43  2  0  0  0
 38 46  1  0  0  0
 38 47  1  0  0  0
 39 64  1  0  0  0
 39 67  2  0  0  0
 40 52  1  0  0  0
 40 53  2  0  0  0
 40 58  1  0  0  0
 41105  1  0  0  0
 41106  1  0  0  0
 41107  1  0  0  0
 41 48  1  0  0  0
 42 43  1  0  0  0
 42 66  1  0  0  0
 42108  1  0  0  0
 42109  1  0  0  0
 43 44  1  0  0  0
 44110  1  0  0  0
 45 46  2  0  0  0
 45111  1  0  0  0
 46112  1  0  0  0
 47113  1  0  0  0
 47114  1  0  0  0
 48 56  1  0  0  0
 48 65  1  0  0  0
 48115  1  0  0  0
 49 50  1  0  0  0
 49 53  1  0  0  0
 49 64  1  0  0  0
 49116  1  0  0  0
 50 51  1  0  0  0
 50117  1  0  0  0
 50118  1  0  0  0
 51 52  1  0  0  0
 51119  1  0  0  0
 51120  1  0  0  0
 52121  1  0  0  0
 52122  1  0  0  0
 53 54  1  0  0  0
 54 55  2  0  0  0
 54123  1  0  0  0
 55 57  1  0  0  0
 55124  1  0  0  0
 56 69  2  0  0  0
 57 58  2  0  0  0
 57125  1  0  0  0
 58126  1  0  0  0
 59 60  1  0  0  0
 59 61  1  0  0  0
 59 62  1  0  0  0
 60127  1  0  0  0
 60128  1  0  0  0
 60129  1  0  0  0
 61130  1  0  0  0
 61131  1  0  0  0
 61132  1  0  0  0
 62133  1  0  0  0
 62134  1  0  0  0
 62135  1  0  0  0
 63 65  1  0  0  0
 63136  1  0  0  0
 63137  1  0  0  0
 63138  1  0  0  0
 64139  1  0  0  0
 65140  1  0  0  0
 68 77  1  0  0  0
 71 72  2  0  0  0
 71 74  1  0  0  0
 71141  1  0  0  0
 72 76  1  0  0  0
 72142  1  0  0  0
 73 75  1  0  0  0
 73 76  2  0  0  0
 73143  1  0  0  0
 74 75  2  0  0  0
 74 79  1  0  0  0
 75 80  1  0  0  0
 76 81  1  0  0  0
 77 78  1  0  0  0
 77144  1  0  0  0
 77145  1  0  0  0
 78 80  1  0  0  0
 78146  1  0  0  0
 78147  1  0  0  0
 79148  1  0  0  0
M  ISO  4   1 100  68 101  77 101  79 100
M  END
> <chiral flag>
0

> <version>
0

> <s_m_source_file>
/data/baiqing/PycharmProjects/Reinvent-master-3.2/result/LINK_invent/BTK/process_docking_weight1_custom_sum_contain_oxygen_bond_distance_aromatic_linkinvent_7_9_3/rearranged_h_0009.sdf

> <i_m_source_file_index>
27

> <r_mmod_Potential_Energy-OPLS-2005>
1961.7919921875

> <r_mmod_Stretch_Energy-OPLS-2005>
698.047424316406

> <r_mmod_Bend_Energy-OPLS-2005>
733.512451171875

> <r_mmod_Torsional_Energy-OPLS-2005>
454.969787597656

> <r_mmod_Improper_Torsional_Energy-OPLS-2005>
38.782470703125

> <r_mmod_Van_der_Waal_Energy-OPLS-2005>
128.997589111328

> <r_mmod_Electrostatic_Energy-OPLS-2005>
-392.857208251953

> <r_mmod_Solvation_Energy-OPLS-2005>
-216.792221069336

> <b_mmod_Minimization_Converged-OPLS-2005>
0

> <r_mmod_RMS_Derivative-OPLS-2005>
5.5170841217041

$$$$
28
                    3D
 Structure written by MMmdl.
158166  0  0  1  0            999 V2000
  -30.5262  -14.9046   20.4300 C   0  0  0  0  0  0
  -30.4506  -12.5594   19.4911 C   0  0  0  0  0  0
  -29.5231  -12.5310   18.2536 C   0  0  0  0  0  0
  -28.0531  -12.3260   18.6677 C   0  0  0  0  0  0
  -27.6383  -13.2410   19.8486 C   0  0  2  0  0  0
  -28.6808  -13.2156   20.9863 C   0  0  0  0  0  0
  -25.2491  -13.8205   20.5679 C   0  0  0  0  0  0
  -24.1787  -13.0435   20.9228 C   0  0  0  0  0  0
  -24.6398  -11.6930   20.8763 C   0  0  0  0  0  0
  -23.9074  -10.4296   21.0402 C   0  0  0  0  0  0
  -24.3614   -9.4204   21.9173 C   0  0  0  0  0  0
  -23.6293   -8.2238   22.0754 C   0  0  0  0  0  0
  -22.4277   -8.0282   21.3545 C   0  0  0  0  0  0
  -21.9914   -9.0252   20.4638 C   0  0  0  0  0  0
  -22.7249  -10.2133   20.3047 C   0  0  0  0  0  0
  -21.6841   -6.0726   22.5269 C   0  0  0  0  0  0
  -21.4006   -6.5628   23.8205 C   0  0  0  0  0  0
  -21.3671   -5.6779   24.9169 C   0  0  0  0  0  0
  -21.6049   -4.3044   24.7216 C   0  0  0  0  0  0
  -21.8828   -3.8139   23.4336 C   0  0  0  0  0  0
  -21.9191   -4.6955   22.3392 C   0  0  0  0  0  0
  -22.7811  -13.5220   21.1888 C   0  0  0  0  0  0
  -22.1655   -4.2141   21.0968 F   0  0  0  0  0  0
  -21.5639   -3.4540   25.7730 F   0  0  0  0  0  0
  -29.9676  -13.6299   20.4061 N   0  0  0  0  0  0
  -26.2915  -12.9421   20.3264 N   0  0  0  0  0  0
  -25.9321  -11.6561   20.5733 N   0  0  0  0  0  0
  -22.0442  -12.8211   22.0442 N   0  0  0  0  0  0
  -25.4181  -15.1927   20.4088 N   0  0  0  0  0  0
  -31.7093  -15.0236   20.0907 O   0  0  0  0  0  0
  -21.6640   -6.8883   21.4242 O   0  0  0  0  0  0
  -22.3501  -14.5518   20.6729 O   0  0  0  0  0  0
  -24.6456  -31.8409   23.1848 C   0  0  0  0  0  0
  -25.9244  -32.4670   23.8213 C   0  0  1  0  0  0
  -27.2211  -27.1287   20.1297 C   0  0  0  0  0  0
  -25.5954  -33.8464   24.2142 N   0  0  0  0  0  0
  -23.4489  -30.4540   21.5359 C   0  0  2  0  0  0
  -24.8945  -28.8806   20.1060 C   0  0  0  0  0  0
  -22.7597  -29.4477   22.4909 C   0  0  0  0  0  0
  -18.0292  -28.1411   22.8453 C   0  0  0  0  0  0
  -24.1495  -36.7239   23.2636 C   0  0  0  0  0  0
  -26.0044  -30.7054   21.3887 C   0  0  0  0  0  0
  -26.0716  -29.3178   20.7257 C   0  0  0  0  0  0
  -27.2288  -28.4550   20.7243 C   0  0  0  0  0  0
  -26.0143  -26.7854   19.4806 C   0  0  0  0  0  0
  -24.8782  -27.6257   19.4720 C   0  0  0  0  0  0
  -23.6726  -29.7851   20.1546 C   0  0  0  0  0  0
  -25.4119  -36.2989   24.0310 C   0  0  1  0  0  0
  -20.5901  -28.3699   23.1249 C   0  0  2  0  0  0
  -20.6807  -26.9409   22.5413 C   0  0  0  0  0  0
  -19.5772  -26.6377   21.5228 C   0  0  0  0  0  0
  -18.1934  -26.7950   22.1611 C   0  0  0  0  0  0
  -19.1551  -28.8889   23.2826 C   0  0  0  0  0  0
  -18.9474  -30.1494   23.8823 C   0  0  0  0  0  0
  -17.6478  -30.6597   24.0561 C   0  0  0  0  0  0
  -25.9083  -34.9383   23.5037 C   0  0  0  0  0  0
  -16.5363  -29.9079   23.6365 C   0  0  0  0  0  0
  -16.7286  -28.6530   23.0322 C   0  0  0  0  0  0
  -26.4546  -31.6543   25.0686 C   0  0  0  0  0  0
  -25.3708  -31.3775   26.1386 C   0  0  0  0  0  0
  -27.0432  -30.2913   24.6308 C   0  0  0  0  0  0
  -27.6033  -32.4353   25.7497 C   0  0  0  0  0  0
  -27.5583  -37.1747   24.8444 C   0  0  0  0  0  0
  -21.4284  -29.3008   22.3656 N   0  0  0  0  0  0
  -26.4258  -37.3722   23.9446 N   0  0  0  0  0  0
  -24.7190  -31.0210   22.0931 N   0  0  0  0  0  0
  -23.4240  -28.8031   23.3076 O   0  0  0  0  0  0
  -28.2983  -26.1759   20.2341 O   0  0  0  0  0  0
  -26.5682  -34.8891   22.4628 O   0  0  0  0  0  0
  -23.5575  -32.1290   23.7083 O   0  0  0  0  0  0
  -30.4617  -18.2625   19.5608 C   0  0  0  0  0  0
  -28.7303  -19.8636   21.0287 C   0  0  0  0  0  0
  -30.3501  -19.6943   19.3202 C   0  0  0  0  0  0
  -28.8168  -18.4230   21.2427 C   0  0  0  0  0  0
  -29.7043  -17.5340   20.5232 C   0  0  0  0  0  0
  -29.4941  -20.6081   20.0724 C   0  0  0  0  0  0
  -31.1820  -20.1910   18.1459 C   0  0  0  0  0  0
  -27.8988  -17.8462   22.3089 C   0  0  0  0  0  0
  -30.8327  -22.6292   19.8157 C   0  0  0  0  0  0
  -28.5285  -23.2324   20.4340 C   0  0  0  0  0  0
  -28.3730  -24.7297   19.6544 C   0  0  0  0  0  0
  -29.6981  -16.0144   20.7196 N   0  0  0  0  0  0
  -29.4670  -22.1020   19.9012 N   0  0  0  0  0  0
  -31.4792  -12.7371   19.1745 H   0  0  0  0  0  0
  -30.4558  -11.5926   19.9974 H   0  0  0  0  0  0
  -29.8313  -11.7385   17.5711 H   0  0  0  0  0  0
  -29.6176  -13.4656   17.7010 H   0  0  0  0  0  0
  -27.9392  -11.2811   18.9581 H   0  0  0  0  0  0
  -27.3906  -12.4782   17.8137 H   0  0  0  0  0  0
  -27.6164  -14.2534   19.4450 H   0  0  0  0  0  0
  -28.7500  -12.2158   21.4203 H   0  0  0  0  0  0
  -28.3807  -13.8806   21.7969 H   0  0  0  0  0  0
  -25.2759   -9.5677   22.4750 H   0  0  0  0  0  0
  -23.9998   -7.4635   22.7477 H   0  0  0  0  0  0
  -21.0845   -8.8774   19.8935 H   0  0  0  0  0  0
  -22.3705  -10.9669   19.6155 H   0  0  0  0  0  0
  -21.1980   -7.6136   23.9707 H   0  0  0  0  0  0
  -21.1495   -6.0506   25.9073 H   0  0  0  0  0  0
  -22.0598   -2.7603   23.2830 H   0  0  0  0  0  0
  -22.4070  -11.9879   22.4820 H   0  0  0  0  0  0
  -21.1049  -13.1237   22.2624 H   0  0  0  0  0  0
  -24.6415  -15.8406   20.4956 H   0  0  0  0  0  0
  -26.2512  -15.6261   20.0308 H   0  0  0  0  0  0
  -26.7321  -32.5263   23.0943 H   0  0  0  0  0  0
  -25.0016  -33.9560   25.0229 H   0  0  0  0  0  0
  -22.7519  -31.2815   21.3881 H   0  0  0  0  0  0
  -23.3743  -35.9586   23.3242 H   0  0  0  0  0  0
  -24.3563  -36.8943   22.2058 H   0  0  0  0  0  0
  -23.7268  -37.6415   23.6730 H   0  0  0  0  0  0
  -26.1626  -31.4559   20.6138 H   0  0  0  0  0  0
  -26.8766  -30.7520   22.0294 H   0  0  0  0  0  0
  -28.1233  -28.7793   21.2367 H   0  0  0  0  0  0
  -25.8995  -25.8239   19.0044 H   0  0  0  0  0  0
  -23.9786  -27.2794   18.9810 H   0  0  0  0  0  0
  -23.8121  -30.5653   19.4049 H   0  0  0  0  0  0
  -22.7865  -29.2298   19.8400 H   0  0  0  0  0  0
  -25.1300  -36.1769   25.0792 H   0  0  0  0  0  0
  -20.9942  -28.3325   24.1392 H   0  0  0  0  0  0
  -20.5742  -26.2311   23.3640 H   0  0  0  0  0  0
  -21.6679  -26.7464   22.1194 H   0  0  0  0  0  0
  -19.6925  -25.6285   21.1262 H   0  0  0  0  0  0
  -19.6728  -27.3221   20.6799 H   0  0  0  0  0  0
  -17.4233  -26.6679   21.3994 H   0  0  0  0  0  0
  -18.0272  -26.0114   22.9024 H   0  0  0  0  0  0
  -19.7957  -30.7301   24.2148 H   0  0  0  0  0  0
  -17.5047  -31.6271   24.5183 H   0  0  0  0  0  0
  -15.5367  -30.2959   23.7775 H   0  0  0  0  0  0
  -15.8673  -28.0884   22.7018 H   0  0  0  0  0  0
  -24.5856  -30.7155   25.7716 H   0  0  0  0  0  0
  -24.8929  -32.2989   26.4700 H   0  0  0  0  0  0
  -25.7946  -30.8994   27.0224 H   0  0  0  0  0  0
  -26.3055  -29.6617   24.1314 H   0  0  0  0  0  0
  -27.4014  -29.7232   25.4905 H   0  0  0  0  0  0
  -27.8994  -30.4123   23.9672 H   0  0  0  0  0  0
  -27.2544  -33.3664   26.1968 H   0  0  0  0  0  0
  -28.3889  -32.6903   25.0375 H   0  0  0  0  0  0
  -28.0655  -31.8558   26.5491 H   0  0  0  0  0  0
  -28.2501  -38.0140   24.7585 H   0  0  0  0  0  0
  -28.1178  -36.2661   24.6139 H   0  0  0  0  0  0
  -27.2324  -37.1247   25.8848 H   0  0  0  0  0  0
  -20.9530  -29.8680   21.6773 H   0  0  0  0  0  0
  -26.0095  -38.2760   24.1514 H   0  0  0  0  0  0
  -31.1441  -17.6941   18.9427 H   0  0  0  0  0  0
  -28.0427  -20.4259   21.6472 H   0  0  0  0  0  0
  -31.4577  -19.3754   17.4737 H   0  0  0  0  0  0
  -32.1078  -20.6521   18.4900 H   0  0  0  0  0  0
  -30.6224  -20.9142   17.5529 H   0  0  0  0  0  0
  -27.8693  -18.5042   23.1790 H   0  0  0  0  0  0
  -28.2225  -16.8693   22.6624 H   0  0  0  0  0  0
  -26.8837  -17.7500   21.9216 H   0  0  0  0  0  0
  -31.1396  -22.7756   18.7794 H   0  0  0  0  0  0
  -31.5591  -21.9773   20.3052 H   0  0  0  0  0  0
  -30.9280  -23.5981   20.3075 H   0  0  0  0  0  0
  -27.5265  -22.8131   20.5484 H   0  0  0  0  0  0
  -28.8580  -23.4356   21.4519 H   0  0  0  0  0  0
  -27.5757  -24.5937   18.9261 H   0  0  0  0  0  0
  -29.2529  -24.8022   19.0159 H   0  0  0  0  0  0
  -28.8368  -15.6919   21.1315 H   0  0  0  0  0  0
  1 25  1  0  0  0
  1 30  2  0  0  0
  1 82  1  0  0  0
  2  3  1  0  0  0
  2 25  1  0  0  0
  2 84  1  0  0  0
  2 85  1  0  0  0
  3  4  1  0  0  0
  3 86  1  0  0  0
  3 87  1  0  0  0
  4  5  1  0  0  0
  4 88  1  0  0  0
  4 89  1  0  0  0
  5  6  1  0  0  0
  5 26  1  0  0  0
  5 90  1  0  0  0
  6 25  1  0  0  0
  6 91  1  0  0  0
  6 92  1  0  0  0
  7  8  2  0  0  0
  7 26  1  0  0  0
  7 29  1  0  0  0
  8  9  1  0  0  0
  8 22  1  0  0  0
  9 10  1  0  0  0
  9 27  2  0  0  0
 10 11  2  0  0  0
 10 15  1  0  0  0
 11 12  1  0  0  0
 11 93  1  0  0  0
 12 13  2  0  0  0
 12 94  1  0  0  0
 13 14  1  0  0  0
 13 31  1  0  0  0
 14 15  2  0  0  0
 14 95  1  0  0  0
 15 96  1  0  0  0
 16 17  2  0  0  0
 16 21  1  0  0  0
 16 31  1  0  0  0
 17 18  1  0  0  0
 17 97  1  0  0  0
 18 19  2  0  0  0
 18 98  1  0  0  0
 19 20  1  0  0  0
 19 24  1  0  0  0
 20 21  2  0  0  0
 20 99  1  0  0  0
 21 23  1  0  0  0
 22 28  1  0  0  0
 22 32  2  0  0  0
 26 27  1  0  0  0
 28100  1  0  0  0
 28101  1  0  0  0
 29102  1  0  0  0
 29103  1  0  0  0
 33 34  1  0  0  0
 33 66  1  0  0  0
 33 70  2  0  0  0
 34 36  1  0  0  0
 34 59  1  0  0  0
 34104  1  0  0  0
 35 44  2  0  0  0
 35 45  1  0  0  0
 35 68  1  0  0  0
 36 56  1  0  0  0
 36105  1  0  0  0
 37 39  1  0  0  0
 37 47  1  0  0  0
 37 66  1  0  0  0
 37106  1  0  0  0
 38 43  2  0  0  0
 38 46  1  0  0  0
 38 47  1  0  0  0
 39 64  1  0  0  0
 39 67  2  0  0  0
 40 52  1  0  0  0
 40 53  2  0  0  0
 40 58  1  0  0  0
 41107  1  0  0  0
 41108  1  0  0  0
 41109  1  0  0  0
 41 48  1  0  0  0
 42 43  1  0  0  0
 42 66  1  0  0  0
 42110  1  0  0  0
 42111  1  0  0  0
 43 44  1  0  0  0
 44112  1  0  0  0
 45 46  2  0  0  0
 45113  1  0  0  0
 46114  1  0  0  0
 47115  1  0  0  0
 47116  1  0  0  0
 48 56  1  0  0  0
 48 65  1  0  0  0
 48117  1  0  0  0
 49 50  1  0  0  0
 49 53  1  0  0  0
 49 64  1  0  0  0
 49118  1  0  0  0
 50 51  1  0  0  0
 50119  1  0  0  0
 50120  1  0  0  0
 51 52  1  0  0  0
 51121  1  0  0  0
 51122  1  0  0  0
 52123  1  0  0  0
 52124  1  0  0  0
 53 54  1  0  0  0
 54 55  2  0  0  0
 54125  1  0  0  0
 55 57  1  0  0  0
 55126  1  0  0  0
 56 69  2  0  0  0
 57 58  2  0  0  0
 57127  1  0  0  0
 58128  1  0  0  0
 59 60  1  0  0  0
 59 61  1  0  0  0
 59 62  1  0  0  0
 60129  1  0  0  0
 60130  1  0  0  0
 60131  1  0  0  0
 61132  1  0  0  0
 61133  1  0  0  0
 61134  1  0  0  0
 62135  1  0  0  0
 62136  1  0  0  0
 62137  1  0  0  0
 63 65  1  0  0  0
 63138  1  0  0  0
 63139  1  0  0  0
 63140  1  0  0  0
 64141  1  0  0  0
 65142  1  0  0  0
 68 81  1  0  0  0
 71 73  2  0  0  0
 71 75  1  0  0  0
 71143  1  0  0  0
 72 74  1  0  0  0
 72 76  2  0  0  0
 72144  1  0  0  0
 73 76  1  0  0  0
 73 77  1  0  0  0
 74 75  2  0  0  0
 74 78  1  0  0  0
 75 82  1  0  0  0
 76 83  1  0  0  0
 77145  1  0  0  0
 77146  1  0  0  0
 77147  1  0  0  0
 78148  1  0  0  0
 78149  1  0  0  0
 78150  1  0  0  0
 79 83  1  0  0  0
 79151  1  0  0  0
 79152  1  0  0  0
 79153  1  0  0  0
 80 81  1  0  0  0
 80 83  1  0  0  0
 80154  1  0  0  0
 80155  1  0  0  0
 81156  1  0  0  0
 81157  1  0  0  0
 82158  1  0  0  0
M  ISO  4   1 100  68 101  81 101  82 100
M  END
> <chiral flag>
0

> <version>
0

> <s_m_source_file>
/data/baiqing/PycharmProjects/Reinvent-master-3.2/result/LINK_invent/BTK/process_docking_weight1_custom_sum_contain_oxygen_bond_distance_aromatic_linkinvent_7_9_3/rearranged_h_0009.sdf

> <i_m_source_file_index>
28

> <r_mmod_Potential_Energy-OPLS-2005>
448.478942871094

> <r_mmod_Stretch_Energy-OPLS-2005>
234.177230834961

> <r_mmod_Bend_Energy-OPLS-2005>
286.993957519531

> <r_mmod_Torsional_Energy-OPLS-2005>
219.401870727539

> <r_mmod_Improper_Torsional_Energy-OPLS-2005>
6.41789960861206

> <r_mmod_Van_der_Waal_Energy-OPLS-2005>
143.314865112305

> <r_mmod_Electrostatic_Energy-OPLS-2005>
-394.950561523438

> <r_mmod_Solvation_Energy-OPLS-2005>
-223.744171142578

> <b_mmod_Minimization_Converged-OPLS-2005>
0

> <r_mmod_RMS_Derivative-OPLS-2005>
3.89102506637573

$$$$
29
                    3D
 Structure written by MMmdl.
152160  0  0  1  0            999 V2000
  -30.5173  -14.9248   20.4308 C   0  0  0  0  0  0
  -30.4517  -12.5687   19.4956 C   0  0  0  0  0  0
  -29.5258  -12.5396   18.2555 C   0  0  0  0  0  0
  -28.0561  -12.3285   18.6687 C   0  0  0  0  0  0
  -27.6380  -13.2433   19.8489 C   0  0  2  0  0  0
  -28.6823  -13.2281   20.9870 C   0  0  0  0  0  0
  -25.2481  -13.8184   20.5687 C   0  0  0  0  0  0
  -24.1786  -13.0418   20.9181 C   0  0  0  0  0  0
  -24.6403  -11.6906   20.8724 C   0  0  0  0  0  0
  -23.9082  -10.4282   21.0392 C   0  0  0  0  0  0
  -24.3626   -9.4202   21.9176 C   0  0  0  0  0  0
  -23.6294   -8.2241   22.0753 C   0  0  0  0  0  0
  -22.4275   -8.0280   21.3542 C   0  0  0  0  0  0
  -21.9910   -9.0252   20.4645 C   0  0  0  0  0  0
  -22.7248  -10.2127   20.3050 C   0  0  0  0  0  0
  -21.6855   -6.0731   22.5275 C   0  0  0  0  0  0
  -21.4015   -6.5633   23.8209 C   0  0  0  0  0  0
  -21.3665   -5.6788   24.9171 C   0  0  0  0  0  0
  -21.6045   -4.3050   24.7224 C   0  0  0  0  0  0
  -21.8820   -3.8141   23.4346 C   0  0  0  0  0  0
  -21.9192   -4.6957   22.3399 C   0  0  0  0  0  0
  -22.7812  -13.5202   21.1852 C   0  0  0  0  0  0
  -22.1662   -4.2141   21.0979 F   0  0  0  0  0  0
  -21.5629   -3.4537   25.7739 F   0  0  0  0  0  0
  -29.9679  -13.6447   20.4044 N   0  0  0  0  0  0
  -26.2931  -12.9422   20.3280 N   0  0  0  0  0  0
  -25.9342  -11.6553   20.5737 N   0  0  0  0  0  0
  -22.0466  -12.8197   22.0420 N   0  0  0  0  0  0
  -25.4111  -15.1906   20.4132 N   0  0  0  0  0  0
  -31.7009  -15.0560   20.0984 O   0  0  0  0  0  0
  -21.6640   -6.8878   21.4239 O   0  0  0  0  0  0
  -22.3491  -14.5513   20.6718 O   0  0  0  0  0  0
  -24.6451  -31.8443   23.1894 C   0  0  0  0  0  0
  -25.9223  -32.4694   23.8285 C   0  0  1  0  0  0
  -27.2202  -27.1395   20.1423 C   0  0  0  0  0  0
  -25.5971  -33.8500   24.2200 N   0  0  0  0  0  0
  -23.4483  -30.4659   21.5341 C   0  0  2  0  0  0
  -24.8979  -28.8968   20.1096 C   0  0  0  0  0  0
  -22.7579  -29.4556   22.4847 C   0  0  0  0  0  0
  -18.0317  -28.1395   22.8475 C   0  0  0  0  0  0
  -24.1495  -36.7253   23.2640 C   0  0  0  0  0  0
  -26.0057  -30.7189   21.3893 C   0  0  0  0  0  0
  -26.0770  -29.3316   20.7284 C   0  0  0  0  0  0
  -27.2390  -28.4695   20.7287 C   0  0  0  0  0  0
  -26.0111  -26.8106   19.4857 C   0  0  0  0  0  0
  -24.8779  -27.6492   19.4736 C   0  0  0  0  0  0
  -23.6751  -29.7992   20.1526 C   0  0  0  0  0  0
  -25.4126  -36.3030   24.0315 C   0  0  1  0  0  0
  -20.5930  -28.3727   23.1224 C   0  0  2  0  0  0
  -20.6796  -26.9427   22.5402 C   0  0  0  0  0  0
  -19.5766  -26.6380   21.5211 C   0  0  0  0  0  0
  -18.1950  -26.7934   22.1624 C   0  0  0  0  0  0
  -19.1573  -28.8880   23.2844 C   0  0  0  0  0  0
  -18.9485  -30.1473   23.8872 C   0  0  0  0  0  0
  -17.6478  -30.6585   24.0561 C   0  0  0  0  0  0
  -25.9080  -34.9406   23.5065 C   0  0  0  0  0  0
  -16.5371  -29.9076   23.6332 C   0  0  0  0  0  0
  -16.7301  -28.6499   23.0350 C   0  0  0  0  0  0
  -26.4538  -31.6560   25.0728 C   0  0  0  0  0  0
  -25.3719  -31.3765   26.1422 C   0  0  0  0  0  0
  -27.0388  -30.2943   24.6327 C   0  0  0  0  0  0
  -27.6073  -32.4324   25.7507 C   0  0  0  0  0  0
  -27.5576  -37.1791   24.8469 C   0  0  0  0  0  0
  -21.4271  -29.3053   22.3591 N   0  0  0  0  0  0
  -26.4292  -37.3738   23.9403 N   0  0  0  0  0  0
  -24.7192  -31.0308   22.0923 N   0  0  0  0  0  0
  -23.4222  -28.8098   23.2995 O   0  0  0  0  0  0
  -28.2652  -26.1424   20.2083 O   0  0  0  0  0  0
  -26.5659  -34.8900   22.4640 O   0  0  0  0  0  0
  -23.5567  -32.1327   23.7105 O   0  0  0  0  0  0
  -30.2011  -19.9608   19.9523 C   0  0  0  0  0  0
  -30.4787  -18.5212   20.0238 C   0  0  0  0  0  0
  -28.1154  -19.5937   20.9859 C   0  0  0  0  0  0
  -28.9851  -20.5808   20.4207 C   0  0  0  0  0  0
  -29.5754  -17.5448   20.5839 C   0  0  0  0  0  0
  -28.3854  -18.1674   21.0839 C   0  0  0  0  0  0
  -28.9455  -23.3601   20.2621 C   0  0  0  0  0  0
  -26.4184  -17.8196   22.4321 C   0  0  0  0  0  0
  -27.9078  -24.6354   20.0412 C   0  0  0  0  0  0
  -28.4727  -22.0237   20.2831 N   0  0  0  0  0  0
  -29.6585  -16.0168   20.6940 N   0  0  0  0  0  0
  -30.1493  -23.5955   20.3965 O   0  0  0  0  0  0
  -27.4902  -17.2888   21.6620 O   0  0  0  0  0  0
  -31.4842  -12.7356   19.1857 H   0  0  0  0  0  0
  -30.4453  -11.6046   20.0061 H   0  0  0  0  0  0
  -29.8374  -11.7537   17.5661 H   0  0  0  0  0  0
  -29.6195  -13.4801   17.7107 H   0  0  0  0  0  0
  -27.9422  -11.2828   18.9554 H   0  0  0  0  0  0
  -27.3955  -12.4848   17.8148 H   0  0  0  0  0  0
  -27.6113  -14.2553   19.4436 H   0  0  0  0  0  0
  -28.7586  -12.2354   21.4329 H   0  0  0  0  0  0
  -28.3830  -13.9004   21.7927 H   0  0  0  0  0  0
  -25.2768   -9.5676   22.4754 H   0  0  0  0  0  0
  -23.9993   -7.4632   22.7480 H   0  0  0  0  0  0
  -21.0836   -8.8775   19.8959 H   0  0  0  0  0  0
  -22.3699  -10.9663   19.6163 H   0  0  0  0  0  0
  -21.2007   -7.6138   23.9708 H   0  0  0  0  0  0
  -21.1489   -6.0520   25.9074 H   0  0  0  0  0  0
  -22.0594   -2.7602   23.2848 H   0  0  0  0  0  0
  -22.4076  -11.9862   22.4816 H   0  0  0  0  0  0
  -21.1089  -13.1232   22.2629 H   0  0  0  0  0  0
  -24.6406  -15.8364   20.5410 H   0  0  0  0  0  0
  -26.2753  -15.6524   20.1607 H   0  0  0  0  0  0
  -26.7295  -32.5299   23.1019 H   0  0  0  0  0  0
  -25.0106  -33.9618   25.0341 H   0  0  0  0  0  0
  -22.7518  -31.2928   21.3810 H   0  0  0  0  0  0
  -23.3751  -35.9593   23.3308 H   0  0  0  0  0  0
  -24.3578  -36.8878   22.2054 H   0  0  0  0  0  0
  -23.7266  -37.6458   23.6674 H   0  0  0  0  0  0
  -26.1657  -31.4757   20.6199 H   0  0  0  0  0  0
  -26.8743  -30.7651   22.0345 H   0  0  0  0  0  0
  -28.1356  -28.7974   21.2357 H   0  0  0  0  0  0
  -25.8952  -25.8626   18.9851 H   0  0  0  0  0  0
  -23.9790  -27.3122   18.9757 H   0  0  0  0  0  0
  -23.8123  -30.5750   19.3980 H   0  0  0  0  0  0
  -22.7895  -29.2426   19.8408 H   0  0  0  0  0  0
  -25.1314  -36.1857   25.0807 H   0  0  0  0  0  0
  -21.0036  -28.3324   24.1340 H   0  0  0  0  0  0
  -20.5678  -26.2347   23.3626 H   0  0  0  0  0  0
  -21.6662  -26.7416   22.1207 H   0  0  0  0  0  0
  -19.6922  -25.6284   21.1255 H   0  0  0  0  0  0
  -19.6692  -27.3177   20.6729 H   0  0  0  0  0  0
  -17.4217  -26.6683   21.4030 H   0  0  0  0  0  0
  -18.0343  -26.0078   22.9024 H   0  0  0  0  0  0
  -19.7960  -30.7301   24.2227 H   0  0  0  0  0  0
  -17.5028  -31.6262   24.5168 H   0  0  0  0  0  0
  -15.5369  -30.2967   23.7663 H   0  0  0  0  0  0
  -15.8707  -28.0806   22.7070 H   0  0  0  0  0  0
  -24.5914  -30.7086   25.7758 H   0  0  0  0  0  0
  -24.8887  -32.2947   26.4769 H   0  0  0  0  0  0
  -25.8002  -30.9005   27.0253 H   0  0  0  0  0  0
  -26.3004  -29.6669   24.1319 H   0  0  0  0  0  0
  -27.3959  -29.7245   25.4919 H   0  0  0  0  0  0
  -27.8937  -30.4149   23.9670 H   0  0  0  0  0  0
  -27.2674  -33.3643   26.2035 H   0  0  0  0  0  0
  -28.3908  -32.6854   25.0352 H   0  0  0  0  0  0
  -28.0716  -31.8483   26.5464 H   0  0  0  0  0  0
  -28.2605  -38.0072   24.7481 H   0  0  0  0  0  0
  -28.1059  -36.2605   24.6334 H   0  0  0  0  0  0
  -27.2294  -37.1487   25.8872 H   0  0  0  0  0  0
  -20.9482  -29.8769   21.6769 H   0  0  0  0  0  0
  -26.0157  -38.2811   24.1376 H   0  0  0  0  0  0
  -30.9424  -20.5926   19.4824 H   0  0  0  0  0  0
  -31.4133  -18.1680   19.6119 H   0  0  0  0  0  0
  -27.1724  -19.9687   21.3515 H   0  0  0  0  0  0
  -25.9071  -17.0071   22.9480 H   0  0  0  0  0  0
  -25.6823  -18.3181   21.8007 H   0  0  0  0  0  0
  -26.7724  -18.5158   23.1940 H   0  0  0  0  0  0
  -27.0485  -24.4355   20.6824 H   0  0  0  0  0  0
  -27.5571  -24.5058   19.0179 H   0  0  0  0  0  0
  -27.4625  -22.0478   20.2401 H   0  0  0  0  0  0
  -28.7754  -15.6573   21.0259 H   0  0  0  0  0  0
  1 25  1  0  0  0
  1 30  2  0  0  0
  1 81  1  0  0  0
  2  3  1  0  0  0
  2 25  1  0  0  0
  2 84  1  0  0  0
  2 85  1  0  0  0
  3  4  1  0  0  0
  3 86  1  0  0  0
  3 87  1  0  0  0
  4  5  1  0  0  0
  4 88  1  0  0  0
  4 89  1  0  0  0
  5  6  1  0  0  0
  5 26  1  0  0  0
  5 90  1  0  0  0
  6 25  1  0  0  0
  6 91  1  0  0  0
  6 92  1  0  0  0
  7  8  2  0  0  0
  7 26  1  0  0  0
  7 29  1  0  0  0
  8  9  1  0  0  0
  8 22  1  0  0  0
  9 10  1  0  0  0
  9 27  2  0  0  0
 10 11  2  0  0  0
 10 15  1  0  0  0
 11 12  1  0  0  0
 11 93  1  0  0  0
 12 13  2  0  0  0
 12 94  1  0  0  0
 13 14  1  0  0  0
 13 31  1  0  0  0
 14 15  2  0  0  0
 14 95  1  0  0  0
 15 96  1  0  0  0
 16 17  2  0  0  0
 16 21  1  0  0  0
 16 31  1  0  0  0
 17 18  1  0  0  0
 17 97  1  0  0  0
 18 19  2  0  0  0
 18 98  1  0  0  0
 19 20  1  0  0  0
 19 24  1  0  0  0
 20 21  2  0  0  0
 20 99  1  0  0  0
 21 23  1  0  0  0
 22 28  1  0  0  0
 22 32  2  0  0  0
 26 27  1  0  0  0
 28100  1  0  0  0
 28101  1  0  0  0
 29102  1  0  0  0
 29103  1  0  0  0
 33 34  1  0  0  0
 33 66  1  0  0  0
 33 70  2  0  0  0
 34 36  1  0  0  0
 34 59  1  0  0  0
 34104  1  0  0  0
 35 44  2  0  0  0
 35 45  1  0  0  0
 35 68  1  0  0  0
 36 56  1  0  0  0
 36105  1  0  0  0
 37 39  1  0  0  0
 37 47  1  0  0  0
 37 66  1  0  0  0
 37106  1  0  0  0
 38 43  2  0  0  0
 38 46  1  0  0  0
 38 47  1  0  0  0
 39 64  1  0  0  0
 39 67  2  0  0  0
 40 52  1  0  0  0
 40 53  2  0  0  0
 40 58  1  0  0  0
 41107  1  0  0  0
 41108  1  0  0  0
 41109  1  0  0  0
 41 48  1  0  0  0
 42 43  1  0  0  0
 42 66  1  0  0  0
 42110  1  0  0  0
 42111  1  0  0  0
 43 44  1  0  0  0
 44112  1  0  0  0
 45 46  2  0  0  0
 45113  1  0  0  0
 46114  1  0  0  0
 47115  1  0  0  0
 47116  1  0  0  0
 48 56  1  0  0  0
 48 65  1  0  0  0
 48117  1  0  0  0
 49 50  1  0  0  0
 49 53  1  0  0  0
 49 64  1  0  0  0
 49118  1  0  0  0
 50 51  1  0  0  0
 50119  1  0  0  0
 50120  1  0  0  0
 51 52  1  0  0  0
 51121  1  0  0  0
 51122  1  0  0  0
 52123  1  0  0  0
 52124  1  0  0  0
 53 54  1  0  0  0
 54 55  2  0  0  0
 54125  1  0  0  0
 55 57  1  0  0  0
 55126  1  0  0  0
 56 69  2  0  0  0
 57 58  2  0  0  0
 57127  1  0  0  0
 58128  1  0  0  0
 59 60  1  0  0  0
 59 61  1  0  0  0
 59 62  1  0  0  0
 60129  1  0  0  0
 60130  1  0  0  0
 60131  1  0  0  0
 61132  1  0  0  0
 61133  1  0  0  0
 61134  1  0  0  0
 62135  1  0  0  0
 62136  1  0  0  0
 62137  1  0  0  0
 63 65  1  0  0  0
 63138  1  0  0  0
 63139  1  0  0  0
 63140  1  0  0  0
 64141  1  0  0  0
 65142  1  0  0  0
 68 79  1  0  0  0
 71 72  2  0  0  0
 71 74  1  0  0  0
 71143  1  0  0  0
 72 75  1  0  0  0
 72144  1  0  0  0
 73 74  2  0  0  0
 73 76  1  0  0  0
 73145  1  0  0  0
 74 80  1  0  0  0
 75 76  2  0  0  0
 75 81  1  0  0  0
 76 83  1  0  0  0
 77 79  1  0  0  0
 77 80  1  0  0  0
 77 82  2  0  0  0
 78 83  1  0  0  0
 78146  1  0  0  0
 78147  1  0  0  0
 78148  1  0  0  0
 79149  1  0  0  0
 79150  1  0  0  0
 80151  1  0  0  0
 81152  1  0  0  0
M  ISO  4   1 100  68 101  79 101  81 100
M  END
> <chiral flag>
0

> <version>
0

> <s_m_source_file>
/data/baiqing/PycharmProjects/Reinvent-master-3.2/result/LINK_invent/BTK/process_docking_weight1_custom_sum_contain_oxygen_bond_distance_aromatic_linkinvent_7_9_3/rearranged_h_0009.sdf

> <i_m_source_file_index>
29

> <r_mmod_Potential_Energy-OPLS-2005>
398.277862548828

> <r_mmod_Stretch_Energy-OPLS-2005>
222.967102050781

> <r_mmod_Bend_Energy-OPLS-2005>
287.100189208984

> <r_mmod_Torsional_Energy-OPLS-2005>
227.307083129883

> <r_mmod_Improper_Torsional_Energy-OPLS-2005>
3.75444746017456

> <r_mmod_Van_der_Waal_Energy-OPLS-2005>
134.696365356445

> <r_mmod_Electrostatic_Energy-OPLS-2005>
-413.936401367188

> <r_mmod_Solvation_Energy-OPLS-2005>
-247.73112487793

> <b_mmod_Minimization_Converged-OPLS-2005>
0

> <r_mmod_RMS_Derivative-OPLS-2005>
0.934446752071381

$$$$
30
                    3D
 Structure written by MMmdl.
152160  0  0  1  0            999 V2000
  -30.5264  -14.8954   20.4343 C   0  0  0  0  0  0
  -30.4515  -12.5500   19.4888 C   0  0  0  0  0  0
  -29.5231  -12.5334   18.2500 C   0  0  0  0  0  0
  -28.0535  -12.3240   18.6664 C   0  0  0  0  0  0
  -27.6391  -13.2382   19.8486 C   0  0  2  0  0  0
  -28.6851  -13.2108   20.9843 C   0  0  0  0  0  0
  -25.2484  -13.8172   20.5683 C   0  0  0  0  0  0
  -24.1784  -13.0407   20.9171 C   0  0  0  0  0  0
  -24.6401  -11.6899   20.8732 C   0  0  0  0  0  0
  -23.9086  -10.4276   21.0400 C   0  0  0  0  0  0
  -24.3630   -9.4192   21.9182 C   0  0  0  0  0  0
  -23.6295   -8.2237   22.0757 C   0  0  0  0  0  0
  -22.4277   -8.0282   21.3546 C   0  0  0  0  0  0
  -21.9918   -9.0254   20.4646 C   0  0  0  0  0  0
  -22.7257  -10.2125   20.3050 C   0  0  0  0  0  0
  -21.6852   -6.0737   22.5281 C   0  0  0  0  0  0
  -21.4015   -6.5641   23.8215 C   0  0  0  0  0  0
  -21.3661   -5.6793   24.9177 C   0  0  0  0  0  0
  -21.6040   -4.3054   24.7225 C   0  0  0  0  0  0
  -21.8821   -3.8148   23.4346 C   0  0  0  0  0  0
  -21.9190   -4.6966   22.3403 C   0  0  0  0  0  0
  -22.7810  -13.5195   21.1854 C   0  0  0  0  0  0
  -22.1660   -4.2150   21.0979 F   0  0  0  0  0  0
  -21.5629   -3.4541   25.7737 F   0  0  0  0  0  0
  -29.9731  -13.6202   20.4026 N   0  0  0  0  0  0
  -26.2936  -12.9407   20.3286 N   0  0  0  0  0  0
  -25.9340  -11.6535   20.5743 N   0  0  0  0  0  0
  -22.0470  -12.8183   22.0418 N   0  0  0  0  0  0
  -25.4093  -15.1899   20.4171 N   0  0  0  0  0  0
  -31.7124  -15.0336   20.1161 O   0  0  0  0  0  0
  -21.6638   -6.8881   21.4244 O   0  0  0  0  0  0
  -22.3483  -14.5501   20.6714 O   0  0  0  0  0  0
  -24.6426  -31.8449   23.1885 C   0  0  0  0  0  0
  -25.9201  -32.4702   23.8270 C   0  0  1  0  0  0
  -27.2255  -27.1559   20.1457 C   0  0  0  0  0  0
  -25.5946  -33.8504   24.2181 N   0  0  0  0  0  0
  -23.4462  -30.4645   21.5340 C   0  0  2  0  0  0
  -24.8975  -28.8955   20.1124 C   0  0  0  0  0  0
  -22.7566  -29.4545   22.4855 C   0  0  0  0  0  0
  -18.0303  -28.1383   22.8473 C   0  0  0  0  0  0
  -24.1493  -36.7269   23.2639 C   0  0  0  0  0  0
  -26.0009  -30.7275   21.3829 C   0  0  0  0  0  0
  -26.0752  -29.3395   20.7271 C   0  0  0  0  0  0
  -27.2418  -28.4869   20.7242 C   0  0  0  0  0  0
  -26.0188  -26.8129   19.4942 C   0  0  0  0  0  0
  -24.8820  -27.6460   19.4788 C   0  0  0  0  0  0
  -23.6725  -29.7932   20.1542 C   0  0  0  0  0  0
  -25.4122  -36.3027   24.0306 C   0  0  1  0  0  0
  -20.5914  -28.3709   23.1229 C   0  0  2  0  0  0
  -20.6787  -26.9411   22.5400 C   0  0  0  0  0  0
  -19.5758  -26.6370   21.5206 C   0  0  0  0  0  0
  -18.1937  -26.7915   22.1619 C   0  0  0  0  0  0
  -19.1562  -28.8862   23.2843 C   0  0  0  0  0  0
  -18.9478  -30.1458   23.8871 C   0  0  0  0  0  0
  -17.6476  -30.6581   24.0548 C   0  0  0  0  0  0
  -25.9069  -34.9404   23.5048 C   0  0  0  0  0  0
  -16.5366  -29.9075   23.6331 C   0  0  0  0  0  0
  -16.7289  -28.6493   23.0352 C   0  0  0  0  0  0
  -26.4530  -31.6562   25.0701 C   0  0  0  0  0  0
  -25.3715  -31.3768   26.1396 C   0  0  0  0  0  0
  -27.0390  -30.2955   24.6270 C   0  0  0  0  0  0
  -27.6041  -32.4333   25.7506 C   0  0  0  0  0  0
  -27.5570  -37.1787   24.8458 C   0  0  0  0  0  0
  -21.4256  -29.3040   22.3607 N   0  0  0  0  0  0
  -26.4282  -37.3742   23.9403 N   0  0  0  0  0  0
  -24.7164  -31.0329   22.0902 N   0  0  0  0  0  0
  -23.4208  -28.8087   23.2998 O   0  0  0  0  0  0
  -28.2921  -26.1869   20.1889 O   0  0  0  0  0  0
  -26.5660  -34.8902   22.4628 O   0  0  0  0  0  0
  -23.5546  -32.1309   23.7119 O   0  0  0  0  0  0
  -30.2420  -19.9396   20.1423 C   0  0  0  0  0  0
  -30.5346  -18.5008   20.1827 C   0  0  0  0  0  0
  -28.0418  -19.5003   20.8612 C   0  0  0  0  0  0
  -28.9635  -20.5228   20.4723 C   0  0  0  0  0  0
  -29.5762  -17.4959   20.5703 C   0  0  0  0  0  0
  -28.3233  -18.0873   20.9074 C   0  0  0  0  0  0
  -30.2142  -23.5986   21.2078 C   0  0  0  0  0  0
  -27.9973  -24.6645   20.2749 C   0  0  0  0  0  0
  -29.0598  -23.3585   20.2314 C   0  0  2  0  0  0
  -29.6547  -15.9755   20.6672 N   0  0  0  0  0  0
  -28.4885  -21.9340   20.4566 N   0  0  0  0  0  0
  -27.3283  -17.2519   21.2909 F   0  0  0  0  0  0
  -31.4849  -12.7135   19.1808 H   0  0  0  0  0  0
  -30.4391  -11.5833   19.9950 H   0  0  0  0  0  0
  -29.8322  -11.7500   17.5572 H   0  0  0  0  0  0
  -29.6173  -13.4751   17.7071 H   0  0  0  0  0  0
  -27.9418  -11.2787   18.9553 H   0  0  0  0  0  0
  -27.3902  -12.4786   17.8143 H   0  0  0  0  0  0
  -27.6151  -14.2508   19.4444 H   0  0  0  0  0  0
  -28.7556  -12.2150   21.4235 H   0  0  0  0  0  0
  -28.3903  -13.8794   21.7947 H   0  0  0  0  0  0
  -25.2776   -9.5666   22.4756 H   0  0  0  0  0  0
  -24.0000   -7.4628   22.7481 H   0  0  0  0  0  0
  -21.0848   -8.8779   19.8953 H   0  0  0  0  0  0
  -22.3724  -10.9664   19.6156 H   0  0  0  0  0  0
  -21.2013   -7.6149   23.9719 H   0  0  0  0  0  0
  -21.1480   -6.0523   25.9078 H   0  0  0  0  0  0
  -22.0598   -2.7611   23.2846 H   0  0  0  0  0  0
  -22.4107  -11.9845   22.4790 H   0  0  0  0  0  0
  -21.1095  -13.1213   22.2655 H   0  0  0  0  0  0
  -24.6464  -15.8351   20.5842 H   0  0  0  0  0  0
  -26.2833  -15.6656   20.2321 H   0  0  0  0  0  0
  -26.7265  -32.5334   23.1002 H   0  0  0  0  0  0
  -25.0062  -33.9619   25.0305 H   0  0  0  0  0  0
  -22.7481  -31.2896   21.3770 H   0  0  0  0  0  0
  -23.3743  -35.9612   23.3287 H   0  0  0  0  0  0
  -24.3581  -36.8920   22.2057 H   0  0  0  0  0  0
  -23.7269  -37.6463   23.6697 H   0  0  0  0  0  0
  -26.1494  -31.4812   20.6091 H   0  0  0  0  0  0
  -26.8742  -30.7832   22.0218 H   0  0  0  0  0  0
  -28.1412  -28.8249   21.2195 H   0  0  0  0  0  0
  -25.9160  -25.8681   18.9851 H   0  0  0  0  0  0
  -23.9859  -27.3032   18.9802 H   0  0  0  0  0  0
  -23.8064  -30.5652   19.3949 H   0  0  0  0  0  0
  -22.7914  -29.2281   19.8457 H   0  0  0  0  0  0
  -25.1316  -36.1842   25.0798 H   0  0  0  0  0  0
  -21.0010  -28.3299   24.1349 H   0  0  0  0  0  0
  -20.5670  -26.2326   23.3626 H   0  0  0  0  0  0
  -21.6653  -26.7410   22.1202 H   0  0  0  0  0  0
  -19.6926  -25.6278   21.1249 H   0  0  0  0  0  0
  -19.6689  -27.3169   20.6726 H   0  0  0  0  0  0
  -17.4207  -26.6651   21.4027 H   0  0  0  0  0  0
  -18.0339  -26.0062   22.9021 H   0  0  0  0  0  0
  -19.7962  -30.7267   24.2234 H   0  0  0  0  0  0
  -17.5038  -31.6264   24.5144 H   0  0  0  0  0  0
  -15.5366  -30.2967   23.7675 H   0  0  0  0  0  0
  -15.8686  -28.0807   22.7082 H   0  0  0  0  0  0
  -24.5897  -30.7110   25.7730 H   0  0  0  0  0  0
  -24.8910  -32.2961   26.4748 H   0  0  0  0  0  0
  -25.7999  -30.8997   27.0218 H   0  0  0  0  0  0
  -26.3004  -29.6673   24.1274 H   0  0  0  0  0  0
  -27.3995  -29.7255   25.4842 H   0  0  0  0  0  0
  -27.8914  -30.4175   23.9585 H   0  0  0  0  0  0
  -27.2609  -33.3649   26.2023 H   0  0  0  0  0  0
  -28.3904  -32.6873   25.0384 H   0  0  0  0  0  0
  -28.0649  -31.8499   26.5486 H   0  0  0  0  0  0
  -28.2568  -38.0098   24.7496 H   0  0  0  0  0  0
  -28.1080  -36.2620   24.6293 H   0  0  0  0  0  0
  -27.2283  -37.1444   25.8859 H   0  0  0  0  0  0
  -20.9462  -29.8775   21.6813 H   0  0  0  0  0  0
  -26.0139  -38.2804   24.1410 H   0  0  0  0  0  0
  -31.0369  -20.6036   19.8362 H   0  0  0  0  0  0
  -31.5257  -18.1752   19.9006 H   0  0  0  0  0  0
  -27.0432  -19.7943   21.1467 H   0  0  0  0  0  0
  -30.7209  -24.5384   20.9832 H   0  0  0  0  0  0
  -30.9594  -22.8063   21.1429 H   0  0  0  0  0  0
  -29.8618  -23.6484   22.2386 H   0  0  0  0  0  0
  -27.4239  -24.5544   21.1967 H   0  0  0  0  0  0
  -27.2935  -24.4292   19.4810 H   0  0  0  0  0  0
  -29.4935  -23.3509   19.2296 H   0  0  0  0  0  0
  -28.7526  -15.6094   20.9318 H   0  0  0  0  0  0
  -27.4954  -21.9949   20.6685 H   0  0  0  0  0  0
  1 25  1  0  0  0
  1 30  2  0  0  0
  1 80  1  0  0  0
  2  3  1  0  0  0
  2 25  1  0  0  0
  2 83  1  0  0  0
  2 84  1  0  0  0
  3  4  1  0  0  0
  3 85  1  0  0  0
  3 86  1  0  0  0
  4  5  1  0  0  0
  4 87  1  0  0  0
  4 88  1  0  0  0
  5  6  1  0  0  0
  5 26  1  0  0  0
  5 89  1  0  0  0
  6 25  1  0  0  0
  6 90  1  0  0  0
  6 91  1  0  0  0
  7  8  2  0  0  0
  7 26  1  0  0  0
  7 29  1  0  0  0
  8  9  1  0  0  0
  8 22  1  0  0  0
  9 10  1  0  0  0
  9 27  2  0  0  0
 10 11  2  0  0  0
 10 15  1  0  0  0
 11 12  1  0  0  0
 11 92  1  0  0  0
 12 13  2  0  0  0
 12 93  1  0  0  0
 13 14  1  0  0  0
 13 31  1  0  0  0
 14 15  2  0  0  0
 14 94  1  0  0  0
 15 95  1  0  0  0
 16 17  2  0  0  0
 16 21  1  0  0  0
 16 31  1  0  0  0
 17 18  1  0  0  0
 17 96  1  0  0  0
 18 19  2  0  0  0
 18 97  1  0  0  0
 19 20  1  0  0  0
 19 24  1  0  0  0
 20 21  2  0  0  0
 20 98  1  0  0  0
 21 23  1  0  0  0
 22 28  1  0  0  0
 22 32  2  0  0  0
 26 27  1  0  0  0
 28 99  1  0  0  0
 28100  1  0  0  0
 29101  1  0  0  0
 29102  1  0  0  0
 33 34  1  0  0  0
 33 66  1  0  0  0
 33 70  2  0  0  0
 34 36  1  0  0  0
 34 59  1  0  0  0
 34103  1  0  0  0
 35 44  2  0  0  0
 35 45  1  0  0  0
 35 68  1  0  0  0
 36 56  1  0  0  0
 36104  1  0  0  0
 37 39  1  0  0  0
 37 47  1  0  0  0
 37 66  1  0  0  0
 37105  1  0  0  0
 38 43  2  0  0  0
 38 46  1  0  0  0
 38 47  1  0  0  0
 39 64  1  0  0  0
 39 67  2  0  0  0
 40 52  1  0  0  0
 40 53  2  0  0  0
 40 58  1  0  0  0
 41106  1  0  0  0
 41107  1  0  0  0
 41108  1  0  0  0
 41 48  1  0  0  0
 42 43  1  0  0  0
 42 66  1  0  0  0
 42109  1  0  0  0
 42110  1  0  0  0
 43 44  1  0  0  0
 44111  1  0  0  0
 45 46  2  0  0  0
 45112  1  0  0  0
 46113  1  0  0  0
 47114  1  0  0  0
 47115  1  0  0  0
 48 56  1  0  0  0
 48 65  1  0  0  0
 48116  1  0  0  0
 49 50  1  0  0  0
 49 53  1  0  0  0
 49 64  1  0  0  0
 49117  1  0  0  0
 50 51  1  0  0  0
 50118  1  0  0  0
 50119  1  0  0  0
 51 52  1  0  0  0
 51120  1  0  0  0
 51121  1  0  0  0
 52122  1  0  0  0
 52123  1  0  0  0
 53 54  1  0  0  0
 54 55  2  0  0  0
 54124  1  0  0  0
 55 57  1  0  0  0
 55125  1  0  0  0
 56 69  2  0  0  0
 57 58  2  0  0  0
 57126  1  0  0  0
 58127  1  0  0  0
 59 60  1  0  0  0
 59 61  1  0  0  0
 59 62  1  0  0  0
 60128  1  0  0  0
 60129  1  0  0  0
 60130  1  0  0  0
 61131  1  0  0  0
 61132  1  0  0  0
 61133  1  0  0  0
 62134  1  0  0  0
 62135  1  0  0  0
 62136  1  0  0  0
 63 65  1  0  0  0
 63137  1  0  0  0
 63138  1  0  0  0
 63139  1  0  0  0
 64140  1  0  0  0
 65141  1  0  0  0
 68 78  1  0  0  0
 71 72  2  0  0  0
 71 74  1  0  0  0
 71142  1  0  0  0
 72 75  1  0  0  0
 72143  1  0  0  0
 73 74  2  0  0  0
 73 76  1  0  0  0
 73144  1  0  0  0
 74 81  1  0  0  0
 75 76  2  0  0  0
 75 80  1  0  0  0
 76 82  1  0  0  0
 77145  1  0  0  0
 77146  1  0  0  0
 77147  1  0  0  0
 77 79  1  0  0  0
 78 79  1  0  0  0
 78148  1  0  0  0
 78149  1  0  0  0
 79 81  1  0  0  0
 79150  1  0  0  0
 80151  1  0  0  0
 81152  1  0  0  0
M  ISO  4   1 100  68 101  78 101  80 100
M  END
> <chiral flag>
0

> <version>
0

> <s_m_source_file>
/data/baiqing/PycharmProjects/Reinvent-master-3.2/result/LINK_invent/BTK/process_docking_weight1_custom_sum_contain_oxygen_bond_distance_aromatic_linkinvent_7_9_3/rearranged_h_0009.sdf

> <i_m_source_file_index>
30

> <r_mmod_Potential_Energy-OPLS-2005>
378.269500732422

> <r_mmod_Stretch_Energy-OPLS-2005>
205.010192871094

> <r_mmod_Bend_Energy-OPLS-2005>
294.299957275391

> <r_mmod_Torsional_Energy-OPLS-2005>
206.185638427734

> <r_mmod_Improper_Torsional_Energy-OPLS-2005>
3.62746644020081

> <r_mmod_Van_der_Waal_Energy-OPLS-2005>
130.191833496094

> <r_mmod_Electrostatic_Energy-OPLS-2005>
-416.099273681641

> <r_mmod_Solvation_Energy-OPLS-2005>
-209.194183349609

> <b_mmod_Minimization_Converged-OPLS-2005>
0

> <r_mmod_RMS_Derivative-OPLS-2005>
1.44081377983093

$$$$
31
                    3D
 Structure written by MMmdl.
152160  0  0  1  0            999 V2000
  -30.5171  -14.9223   20.4360 C   0  0  0  0  0  0
  -30.4520  -12.5703   19.4897 C   0  0  0  0  0  0
  -29.5266  -12.5391   18.2496 C   0  0  0  0  0  0
  -28.0565  -12.3240   18.6615 C   0  0  0  0  0  0
  -27.6363  -13.2399   19.8408 C   0  0  2  0  0  0
  -28.6799  -13.2263   20.9797 C   0  0  0  0  0  0
  -25.2494  -13.8208   20.5690 C   0  0  0  0  0  0
  -24.1794  -13.0447   20.9215 C   0  0  0  0  0  0
  -24.6388  -11.6930   20.8728 C   0  0  0  0  0  0
  -23.9060  -10.4304   21.0395 C   0  0  0  0  0  0
  -24.3604   -9.4225   21.9181 C   0  0  0  0  0  0
  -23.6274   -8.2263   22.0763 C   0  0  0  0  0  0
  -22.4262   -8.0289   21.3547 C   0  0  0  0  0  0
  -21.9887   -9.0262   20.4656 C   0  0  0  0  0  0
  -22.7220  -10.2140   20.3057 C   0  0  0  0  0  0
  -21.6858   -6.0721   22.5267 C   0  0  0  0  0  0
  -21.4019   -6.5624   23.8198 C   0  0  0  0  0  0
  -21.3657   -5.6782   24.9162 C   0  0  0  0  0  0
  -21.6045   -4.3043   24.7223 C   0  0  0  0  0  0
  -21.8820   -3.8131   23.4342 C   0  0  0  0  0  0
  -21.9193   -4.6946   22.3394 C   0  0  0  0  0  0
  -22.7814  -13.5243   21.1866 C   0  0  0  0  0  0
  -22.1663   -4.2129   21.0972 F   0  0  0  0  0  0
  -21.5627   -3.4534   25.7739 F   0  0  0  0  0  0
  -29.9661  -13.6437   20.4000 N   0  0  0  0  0  0
  -26.2908  -12.9414   20.3207 N   0  0  0  0  0  0
  -25.9315  -11.6554   20.5689 N   0  0  0  0  0  0
  -22.0427  -12.8262   22.0414 N   0  0  0  0  0  0
  -25.4177  -15.1939   20.4103 N   0  0  0  0  0  0
  -31.7032  -15.0559   20.1129 O   0  0  0  0  0  0
  -21.6642   -6.8870   21.4235 O   0  0  0  0  0  0
  -22.3522  -14.5544   20.6697 O   0  0  0  0  0  0
  -24.6443  -31.8445   23.1907 C   0  0  0  0  0  0
  -25.9226  -32.4694   23.8288 C   0  0  1  0  0  0
  -27.2184  -27.1380   20.1482 C   0  0  0  0  0  0
  -25.5992  -33.8497   24.2222 N   0  0  0  0  0  0
  -23.4468  -30.4646   21.5375 C   0  0  2  0  0  0
  -24.8975  -28.8972   20.1107 C   0  0  0  0  0  0
  -22.7572  -29.4534   22.4878 C   0  0  0  0  0  0
  -18.0313  -28.1374   22.8486 C   0  0  0  0  0  0
  -24.1490  -36.7239   23.2636 C   0  0  0  0  0  0
  -26.0030  -30.7171   21.3907 C   0  0  0  0  0  0
  -26.0751  -29.3290   20.7340 C   0  0  0  0  0  0
  -27.2354  -28.4653   20.7408 C   0  0  0  0  0  0
  -26.0160  -26.8169   19.4762 C   0  0  0  0  0  0
  -24.8818  -27.6542   19.4654 C   0  0  0  0  0  0
  -23.6734  -29.7975   20.1554 C   0  0  0  0  0  0
  -25.4121  -36.3023   24.0318 C   0  0  1  0  0  0
  -20.5927  -28.3696   23.1244 C   0  0  2  0  0  0
  -20.6794  -26.9401   22.5401 C   0  0  0  0  0  0
  -19.5755  -26.6365   21.5216 C   0  0  0  0  0  0
  -18.1944  -26.7909   22.1631 C   0  0  0  0  0  0
  -19.1573  -28.8855   23.2849 C   0  0  0  0  0  0
  -18.9483  -30.1457   23.8855 C   0  0  0  0  0  0
  -17.6478  -30.6571   24.0554 C   0  0  0  0  0  0
  -25.9079  -34.9402   23.5075 C   0  0  0  0  0  0
  -16.5369  -29.9055   23.6333 C   0  0  0  0  0  0
  -16.7302  -28.6479   23.0349 C   0  0  0  0  0  0
  -26.4555  -31.6535   25.0707 C   0  0  0  0  0  0
  -25.3753  -31.3722   26.1409 C   0  0  0  0  0  0
  -27.0420  -30.2933   24.6263 C   0  0  0  0  0  0
  -27.6094  -32.4292   25.7497 C   0  0  0  0  0  0
  -27.5576  -37.1776   24.8469 C   0  0  0  0  0  0
  -21.4271  -29.3030   22.3620 N   0  0  0  0  0  0
  -26.4282  -37.3737   23.9416 N   0  0  0  0  0  0
  -24.7175  -31.0300   22.0948 N   0  0  0  0  0  0
  -23.4230  -28.8079   23.3018 O   0  0  0  0  0  0
  -28.2612  -26.1389   20.2145 O   0  0  0  0  0  0
  -26.5643  -34.8901   22.4638 O   0  0  0  0  0  0
  -23.5564  -32.1339   23.7123 O   0  0  0  0  0  0
  -30.4998  -18.5344   20.1306 C   0  0  0  0  0  0
  -30.2184  -19.9741   20.0783 C   0  0  0  0  0  0
  -28.3552  -18.1689   21.0376 C   0  0  0  0  0  0
  -29.5658  -17.5413   20.6035 C   0  0  0  0  0  0
  -28.9785  -20.5796   20.5054 C   0  0  0  0  0  0
  -28.0716  -19.5948   21.0173 C   0  0  0  0  0  0
  -28.9402  -23.3555   20.2736 C   0  0  0  0  0  0
  -26.0460  -19.2801   22.2961 C   0  0  0  0  0  0
  -27.8822  -24.6275   20.1619 C   0  0  0  0  0  0
  -28.4762  -22.0273   20.4336 N   0  0  0  0  0  0
  -29.6463  -16.0096   20.6877 N   0  0  0  0  0  0
  -30.1498  -23.5854   20.1945 O   0  0  0  0  0  0
  -26.8831  -20.1110   21.4978 O   0  0  0  0  0  0
  -31.4836  -12.7392   19.1817 H   0  0  0  0  0  0
  -30.4456  -11.6063   19.9999 H   0  0  0  0  0  0
  -29.8410  -11.7551   17.5588 H   0  0  0  0  0  0
  -29.6171  -13.4800   17.7047 H   0  0  0  0  0  0
  -27.9426  -11.2770   18.9470 H   0  0  0  0  0  0
  -27.3985  -12.4783   17.8059 H   0  0  0  0  0  0
  -27.6091  -14.2502   19.4312 H   0  0  0  0  0  0
  -28.7553  -12.2340   21.4270 H   0  0  0  0  0  0
  -28.3766  -13.8982   21.7834 H   0  0  0  0  0  0
  -25.2741   -9.5706   22.4761 H   0  0  0  0  0  0
  -23.9971   -7.4665   22.7503 H   0  0  0  0  0  0
  -21.0802   -8.8780   19.8979 H   0  0  0  0  0  0
  -22.3659  -10.9673   19.6172 H   0  0  0  0  0  0
  -21.2015   -7.6132   23.9687 H   0  0  0  0  0  0
  -21.1477   -6.0518   25.9058 H   0  0  0  0  0  0
  -22.0597   -2.7596   23.2855 H   0  0  0  0  0  0
  -22.3995  -11.9925   22.4843 H   0  0  0  0  0  0
  -21.1051  -13.1334   22.2580 H   0  0  0  0  0  0
  -24.6387  -15.8359   20.5053 H   0  0  0  0  0  0
  -26.2333  -15.6225   19.9945 H   0  0  0  0  0  0
  -26.7281  -32.5308   23.1007 H   0  0  0  0  0  0
  -25.0171  -33.9619   25.0391 H   0  0  0  0  0  0
  -22.7485  -31.2902   21.3864 H   0  0  0  0  0  0
  -23.3759  -35.9564   23.3294 H   0  0  0  0  0  0
  -24.3577  -36.8867   22.2050 H   0  0  0  0  0  0
  -23.7245  -37.6438   23.6667 H   0  0  0  0  0  0
  -26.1565  -31.4703   20.6168 H   0  0  0  0  0  0
  -26.8740  -30.7701   22.0315 H   0  0  0  0  0  0
  -28.1260  -28.7879   21.2607 H   0  0  0  0  0  0
  -25.9059  -25.8808   18.9537 H   0  0  0  0  0  0
  -23.9884  -27.3229   18.9550 H   0  0  0  0  0  0
  -23.8075  -30.5744   19.4014 H   0  0  0  0  0  0
  -22.7880  -29.2398   19.8452 H   0  0  0  0  0  0
  -25.1300  -36.1847   25.0808 H   0  0  0  0  0  0
  -21.0025  -28.3274   24.1362 H   0  0  0  0  0  0
  -20.5690  -26.2306   23.3615 H   0  0  0  0  0  0
  -21.6656  -26.7395   22.1194 H   0  0  0  0  0  0
  -19.6908  -25.6276   21.1239 H   0  0  0  0  0  0
  -19.6673  -27.3180   20.6749 H   0  0  0  0  0  0
  -17.4213  -26.6668   21.4038 H   0  0  0  0  0  0
  -18.0331  -26.0050   22.9023 H   0  0  0  0  0  0
  -19.7958  -30.7297   24.2197 H   0  0  0  0  0  0
  -17.5022  -31.6249   24.5149 H   0  0  0  0  0  0
  -15.5365  -30.2934   23.7666 H   0  0  0  0  0  0
  -15.8709  -28.0778   22.7066 H   0  0  0  0  0  0
  -24.5935  -30.7061   25.7738 H   0  0  0  0  0  0
  -24.8945  -32.2903   26.4789 H   0  0  0  0  0  0
  -25.8049  -30.8928   27.0212 H   0  0  0  0  0  0
  -26.3032  -29.6654   24.1266 H   0  0  0  0  0  0
  -27.4049  -29.7218   25.4817 H   0  0  0  0  0  0
  -27.8934  -30.4175   23.9569 H   0  0  0  0  0  0
  -27.2691  -33.3602   26.2038 H   0  0  0  0  0  0
  -28.3930  -32.6827   25.0346 H   0  0  0  0  0  0
  -28.0729  -31.8435   26.5445 H   0  0  0  0  0  0
  -28.2577  -38.0085   24.7532 H   0  0  0  0  0  0
  -28.1089  -36.2625   24.6271 H   0  0  0  0  0  0
  -27.2302  -37.1390   25.8871 H   0  0  0  0  0  0
  -20.9477  -29.8755   21.6808 H   0  0  0  0  0  0
  -26.0146  -38.2804   24.1421 H   0  0  0  0  0  0
  -31.4625  -18.1965   19.7748 H   0  0  0  0  0  0
  -30.9856  -20.6221   19.6790 H   0  0  0  0  0  0
  -27.5930  -17.4977   21.4000 H   0  0  0  0  0  0
  -25.4001  -19.9122   22.9060 H   0  0  0  0  0  0
  -26.6019  -18.6467   22.9901 H   0  0  0  0  0  0
  -25.4068  -18.6543   21.6730 H   0  0  0  0  0  0
  -27.1225  -24.4648   20.9269 H   0  0  0  0  0  0
  -27.3915  -24.4452   19.2081 H   0  0  0  0  0  0
  -27.4736  -22.0431   20.5729 H   0  0  0  0  0  0
  -28.7618  -15.6196   20.9720 H   0  0  0  0  0  0
  1 25  1  0  0  0
  1 30  2  0  0  0
  1 81  1  0  0  0
  2  3  1  0  0  0
  2 25  1  0  0  0
  2 84  1  0  0  0
  2 85  1  0  0  0
  3  4  1  0  0  0
  3 86  1  0  0  0
  3 87  1  0  0  0
  4  5  1  0  0  0
  4 88  1  0  0  0
  4 89  1  0  0  0
  5  6  1  0  0  0
  5 26  1  0  0  0
  5 90  1  0  0  0
  6 25  1  0  0  0
  6 91  1  0  0  0
  6 92  1  0  0  0
  7  8  2  0  0  0
  7 26  1  0  0  0
  7 29  1  0  0  0
  8  9  1  0  0  0
  8 22  1  0  0  0
  9 10  1  0  0  0
  9 27  2  0  0  0
 10 11  2  0  0  0
 10 15  1  0  0  0
 11 12  1  0  0  0
 11 93  1  0  0  0
 12 13  2  0  0  0
 12 94  1  0  0  0
 13 14  1  0  0  0
 13 31  1  0  0  0
 14 15  2  0  0  0
 14 95  1  0  0  0
 15 96  1  0  0  0
 16 17  2  0  0  0
 16 21  1  0  0  0
 16 31  1  0  0  0
 17 18  1  0  0  0
 17 97  1  0  0  0
 18 19  2  0  0  0
 18 98  1  0  0  0
 19 20  1  0  0  0
 19 24  1  0  0  0
 20 21  2  0  0  0
 20 99  1  0  0  0
 21 23  1  0  0  0
 22 28  1  0  0  0
 22 32  2  0  0  0
 26 27  1  0  0  0
 28100  1  0  0  0
 28101  1  0  0  0
 29102  1  0  0  0
 29103  1  0  0  0
 33 34  1  0  0  0
 33 66  1  0  0  0
 33 70  2  0  0  0
 34 36  1  0  0  0
 34 59  1  0  0  0
 34104  1  0  0  0
 35 44  2  0  0  0
 35 45  1  0  0  0
 35 68  1  0  0  0
 36 56  1  0  0  0
 36105  1  0  0  0
 37 39  1  0  0  0
 37 47  1  0  0  0
 37 66  1  0  0  0
 37106  1  0  0  0
 38 43  2  0  0  0
 38 46  1  0  0  0
 38 47  1  0  0  0
 39 64  1  0  0  0
 39 67  2  0  0  0
 40 52  1  0  0  0
 40 53  2  0  0  0
 40 58  1  0  0  0
 41107  1  0  0  0
 41108  1  0  0  0
 41109  1  0  0  0
 41 48  1  0  0  0
 42 43  1  0  0  0
 42 66  1  0  0  0
 42110  1  0  0  0
 42111  1  0  0  0
 43 44  1  0  0  0
 44112  1  0  0  0
 45 46  2  0  0  0
 45113  1  0  0  0
 46114  1  0  0  0
 47115  1  0  0  0
 47116  1  0  0  0
 48 56  1  0  0  0
 48 65  1  0  0  0
 48117  1  0  0  0
 49 50  1  0  0  0
 49 53  1  0  0  0
 49 64  1  0  0  0
 49118  1  0  0  0
 50 51  1  0  0  0
 50119  1  0  0  0
 50120  1  0  0  0
 51 52  1  0  0  0
 51121  1  0  0  0
 51122  1  0  0  0
 52123  1  0  0  0
 52124  1  0  0  0
 53 54  1  0  0  0
 54 55  2  0  0  0
 54125  1  0  0  0
 55 57  1  0  0  0
 55126  1  0  0  0
 56 69  2  0  0  0
 57 58  2  0  0  0
 57127  1  0  0  0
 58128  1  0  0  0
 59 60  1  0  0  0
 59 61  1  0  0  0
 59 62  1  0  0  0
 60129  1  0  0  0
 60130  1  0  0  0
 60131  1  0  0  0
 61132  1  0  0  0
 61133  1  0  0  0
 61134  1  0  0  0
 62135  1  0  0  0
 62136  1  0  0  0
 62137  1  0  0  0
 63 65  1  0  0  0
 63138  1  0  0  0
 63139  1  0  0  0
 63140  1  0  0  0
 64141  1  0  0  0
 65142  1  0  0  0
 68 79  1  0  0  0
 71 72  2  0  0  0
 71 74  1  0  0  0
 71143  1  0  0  0
 72 75  1  0  0  0
 72144  1  0  0  0
 73 74  2  0  0  0
 73 76  1  0  0  0
 73145  1  0  0  0
 74 81  1  0  0  0
 75 76  2  0  0  0
 75 80  1  0  0  0
 76 83  1  0  0  0
 77 79  1  0  0  0
 77 80  1  0  0  0
 77 82  2  0  0  0
 78 83  1  0  0  0
 78146  1  0  0  0
 78147  1  0  0  0
 78148  1  0  0  0
 79149  1  0  0  0
 79150  1  0  0  0
 80151  1  0  0  0
 81152  1  0  0  0
M  ISO  4   1 100  68 101  79 101  81 100
M  END
> <chiral flag>
0

> <version>
0

> <s_m_source_file>
/data/baiqing/PycharmProjects/Reinvent-master-3.2/result/LINK_invent/BTK/process_docking_weight1_custom_sum_contain_oxygen_bond_distance_aromatic_linkinvent_7_9_3/rearranged_h_0009.sdf

> <i_m_source_file_index>
31

> <r_mmod_Potential_Energy-OPLS-2005>
413.437133789062

> <r_mmod_Stretch_Energy-OPLS-2005>
222.322525024414

> <r_mmod_Bend_Energy-OPLS-2005>
291.070159912109

> <r_mmod_Torsional_Energy-OPLS-2005>
225.746246337891

> <r_mmod_Improper_Torsional_Energy-OPLS-2005>
4.11361169815063

> <r_mmod_Van_der_Waal_Energy-OPLS-2005>
137.370330810547

> <r_mmod_Electrostatic_Energy-OPLS-2005>
-402.479919433594

> <r_mmod_Solvation_Energy-OPLS-2005>
-249.173736572266

> <b_mmod_Minimization_Converged-OPLS-2005>
0

> <r_mmod_RMS_Derivative-OPLS-2005>
1.95702016353607

$$$$
32
                    3D
 Structure written by MMmdl.
178185  0  0  1  0            999 V2000
  -30.8203  -14.2852   20.7634 C   0  0  0  0  0  0
  -30.4104  -12.2945   19.3676 C   0  0  0  0  0  0
  -29.4702  -12.5446   18.1779 C   0  0  0  0  0  0
  -28.0015  -12.3817   18.6061 C   0  0  0  0  0  0
  -27.6659  -13.2021   19.8773 C   0  0  2  0  0  0
  -28.7038  -12.9452   20.9911 C   0  0  0  0  0  0
  -25.2608  -13.8154   20.5667 C   0  0  0  0  0  0
  -24.1848  -13.0442   20.9161 C   0  0  0  0  0  0
  -24.6396  -11.6905   20.8726 C   0  0  0  0  0  0
  -23.9059  -10.4294   21.0407 C   0  0  0  0  0  0
  -24.3610   -9.4208   21.9185 C   0  0  0  0  0  0
  -23.6292   -8.2244   22.0755 C   0  0  0  0  0  0
  -22.4273   -8.0284   21.3549 C   0  0  0  0  0  0
  -21.9908   -9.0251   20.4644 C   0  0  0  0  0  0
  -22.7235  -10.2133   20.3054 C   0  0  0  0  0  0
  -21.6851   -6.0733   22.5276 C   0  0  0  0  0  0
  -21.4016   -6.5638   23.8208 C   0  0  0  0  0  0
  -21.3658   -5.6791   24.9172 C   0  0  0  0  0  0
  -21.6048   -4.3055   24.7224 C   0  0  0  0  0  0
  -21.8817   -3.8147   23.4344 C   0  0  0  0  0  0
  -21.9193   -4.6964   22.3401 C   0  0  0  0  0  0
  -22.7872  -13.5244   21.1832 C   0  0  0  0  0  0
  -22.1661   -4.2150   21.0978 F   0  0  0  0  0  0
  -21.5627   -3.4536   25.7738 F   0  0  0  0  0  0
  -30.0547  -13.2105   20.4583 N   0  0  0  0  0  0
  -26.3047  -12.9322   20.3375 N   0  0  0  0  0  0
  -25.9320  -11.6484   20.5752 N   0  0  0  0  0  0
  -22.0512  -12.8231   22.0390 N   0  0  0  0  0  0
  -25.4348  -15.1875   20.4095 N   0  0  0  0  0  0
  -31.7469  -14.6939   20.0555 O   0  0  0  0  0  0
  -21.6639   -6.8878   21.4241 O   0  0  0  0  0  0
  -22.3565  -14.5563   20.6705 O   0  0  0  0  0  0
  -24.6101  -31.8714   23.2087 C   0  0  0  0  0  0
  -25.9008  -32.4838   23.8388 C   0  0  1  0  0  0
  -27.2462  -27.4779   20.0911 C   0  0  0  0  0  0
  -25.5893  -33.8639   24.2320 N   0  0  0  0  0  0
  -23.3954  -30.4940   21.5491 C   0  0  2  0  0  0
  -24.8464  -28.9604   20.1170 C   0  0  0  0  0  0
  -22.7376  -29.4675   22.4987 C   0  0  0  0  0  0
  -18.0273  -28.1349   22.8480 C   0  0  0  0  0  0
  -24.1490  -36.7316   23.2643 C   0  0  0  0  0  0
  -25.9203  -30.8509   21.3567 C   0  0  0  0  0  0
  -26.0021  -29.4858   20.7097 C   0  0  0  0  0  0
  -27.2050  -28.7500   20.6986 C   0  0  0  0  0  0
  -26.0726  -26.9452   19.5225 C   0  0  0  0  0  0
  -24.8727  -27.6851   19.5255 C   0  0  0  0  0  0
  -23.6031  -29.8220   20.1649 C   0  0  0  0  0  0
  -25.4105  -36.3121   24.0346 C   0  0  1  0  0  0
  -20.5850  -28.3633   23.1327 C   0  0  2  0  0  0
  -20.6765  -26.9382   22.5407 C   0  0  0  0  0  0
  -19.5752  -26.6360   21.5199 C   0  0  0  0  0  0
  -18.1924  -26.7899   22.1613 C   0  0  0  0  0  0
  -19.1518  -28.8805   23.2898 C   0  0  0  0  0  0
  -18.9471  -30.1416   23.8910 C   0  0  0  0  0  0
  -17.6480  -30.6574   24.0560 C   0  0  0  0  0  0
  -25.9035  -34.9484   23.5124 C   0  0  0  0  0  0
  -16.5367  -29.9078   23.6327 C   0  0  0  0  0  0
  -16.7269  -28.6493   23.0340 C   0  0  0  0  0  0
  -26.4444  -31.6601   25.0690 C   0  0  0  0  0  0
  -25.3724  -31.3711   26.1452 C   0  0  0  0  0  0
  -27.0287  -30.3063   24.6014 C   0  0  0  0  0  0
  -27.6018  -32.4316   25.7471 C   0  0  0  0  0  0
  -27.5577  -37.1811   24.8470 C   0  0  0  0  0  0
  -21.4113  -29.3028   22.3755 N   0  0  0  0  0  0
  -26.4286  -37.3796   23.9422 N   0  0  0  0  0  0
  -24.6598  -31.0843   22.0978 N   0  0  0  0  0  0
  -23.4190  -28.8226   23.3008 O   0  0  0  0  0  0
  -28.3918  -26.7210   20.0480 O   0  0  0  0  0  0
  -26.5588  -34.8930   22.4678 O   0  0  0  0  0  0
  -23.5305  -32.1442   23.7520 O   0  0  0  0  0  0
  -30.8564  -17.1571   22.5304 C   0  0  0  0  0  0
  -30.7413  -27.2904   20.4090 C   0  0  0  0  0  0
  -31.4325  -15.7490   22.6814 C   0  0  0  0  0  0
  -29.5343  -27.3469   19.4619 C   0  0  0  0  0  0
  -34.7552  -22.3682   18.7251 C   0  0  0  0  0  0
  -34.4339  -21.1579   19.6253 C   0  0  0  0  0  0
  -35.3993  -23.5240   19.5121 C   0  0  0  0  0  0
  -33.1023  -21.3253   20.3728 C   0  0  0  0  0  0
  -35.5523  -24.8470   18.7291 C   0  0  0  0  0  0
  -32.8320  -20.2339   21.4196 C   0  0  0  0  0  0
  -34.3937  -25.8575   18.8818 C   0  0  0  0  0  0
  -31.4004  -20.3350   21.9772 C   0  0  0  0  0  0
  -34.1547  -26.3098   20.3387 C   0  0  0  0  0  0
  -31.1453  -19.5255   23.2618 C   0  0  0  0  0  0
  -33.2334  -27.5324   20.5109 C   0  0  0  0  0  0
  -31.5380  -18.1256   23.1493 N   0  0  0  0  0  0
  -31.9479  -27.3789   19.8312 N   0  0  0  0  0  0
  -30.6262  -14.7404   22.0037 N   0  0  0  0  0  0
  -29.8146  -17.3584   21.9013 O   0  0  0  0  0  0
  -30.5846  -27.1986   21.6300 O   0  0  0  0  0  0
  -31.4508  -12.4055   19.0563 H   0  0  0  0  0  0
  -30.3140  -11.2651   19.7151 H   0  0  0  0  0  0
  -29.7002  -11.8567   17.3630 H   0  0  0  0  0  0
  -29.6295  -13.5504   17.7860 H   0  0  0  0  0  0
  -27.8208  -11.3212   18.7887 H   0  0  0  0  0  0
  -27.3374  -12.6678   17.7887 H   0  0  0  0  0  0
  -27.7248  -14.2561   19.6055 H   0  0  0  0  0  0
  -28.6530  -11.9087   21.3281 H   0  0  0  0  0  0
  -28.4486  -13.5518   21.8606 H   0  0  0  0  0  0
  -25.2756   -9.5687   22.4760 H   0  0  0  0  0  0
  -23.9998   -7.4639   22.7479 H   0  0  0  0  0  0
  -21.0835   -8.8772   19.8950 H   0  0  0  0  0  0
  -22.3695  -10.9674   19.6159 H   0  0  0  0  0  0
  -21.2009   -7.6146   23.9716 H   0  0  0  0  0  0
  -21.1483   -6.0521   25.9076 H   0  0  0  0  0  0
  -22.0598   -2.7611   23.2844 H   0  0  0  0  0  0
  -22.4116  -11.9866   22.4743 H   0  0  0  0  0  0
  -21.1142  -13.1275   22.2623 H   0  0  0  0  0  0
  -24.6753  -15.8498   20.5249 H   0  0  0  0  0  0
  -26.3031  -15.6256   20.1269 H   0  0  0  0  0  0
  -26.7086  -32.5555   23.1165 H   0  0  0  0  0  0
  -25.0049  -33.9812   25.0480 H   0  0  0  0  0  0
  -22.6786  -31.3077   21.4060 H   0  0  0  0  0  0
  -23.3742  -35.9664   23.3333 H   0  0  0  0  0  0
  -24.3603  -36.8895   22.2057 H   0  0  0  0  0  0
  -23.7245  -37.6533   23.6636 H   0  0  0  0  0  0
  -26.0179  -31.6189   20.5875 H   0  0  0  0  0  0
  -26.8159  -30.9128   21.9656 H   0  0  0  0  0  0
  -28.0991  -29.1543   21.1554 H   0  0  0  0  0  0
  -26.0898  -25.9643   19.0678 H   0  0  0  0  0  0
  -23.9836  -27.2646   19.0770 H   0  0  0  0  0  0
  -23.7070  -30.5968   19.4041 H   0  0  0  0  0  0
  -22.7287  -29.2414   19.8682 H   0  0  0  0  0  0
  -25.1280  -36.2012   25.0841 H   0  0  0  0  0  0
  -20.9930  -28.3211   24.1453 H   0  0  0  0  0  0
  -20.5656  -26.2256   23.3587 H   0  0  0  0  0  0
  -21.6637  -26.7411   22.1226 H   0  0  0  0  0  0
  -19.6918  -25.6268   21.1238 H   0  0  0  0  0  0
  -19.6714  -27.3171   20.6724 H   0  0  0  0  0  0
  -17.4187  -26.6648   21.4022 H   0  0  0  0  0  0
  -18.0337  -26.0024   22.8993 H   0  0  0  0  0  0
  -19.7968  -30.7194   24.2296 H   0  0  0  0  0  0
  -17.5073  -31.6271   24.5136 H   0  0  0  0  0  0
  -15.5385  -30.3007   23.7624 H   0  0  0  0  0  0
  -15.8668  -28.0827   22.7041 H   0  0  0  0  0  0
  -24.5876  -30.7072   25.7802 H   0  0  0  0  0  0
  -24.8924  -32.2877   26.4908 H   0  0  0  0  0  0
  -25.8073  -30.8881   27.0210 H   0  0  0  0  0  0
  -26.2817  -29.6839   24.1059 H   0  0  0  0  0  0
  -27.4100  -29.7277   25.4430 H   0  0  0  0  0  0
  -27.8626  -30.4419   23.9123 H   0  0  0  0  0  0
  -27.2621  -33.3609   26.2066 H   0  0  0  0  0  0
  -28.3832  -32.6885   25.0313 H   0  0  0  0  0  0
  -28.0670  -31.8421   26.5380 H   0  0  0  0  0  0
  -28.2582  -38.0106   24.7495 H   0  0  0  0  0  0
  -28.1072  -36.2629   24.6322 H   0  0  0  0  0  0
  -27.2306  -37.1505   25.8873 H   0  0  0  0  0  0
  -20.9250  -29.8786   21.7033 H   0  0  0  0  0  0
  -26.0190  -38.2890   24.1404 H   0  0  0  0  0  0
  -31.4656  -15.4986   23.7429 H   0  0  0  0  0  0
  -32.4644  -15.7368   22.3253 H   0  0  0  0  0  0
  -29.7710  -26.8042   18.5471 H   0  0  0  0  0  0
  -29.3621  -28.3839   19.1702 H   0  0  0  0  0  0
  -33.8520  -22.7015   18.2102 H   0  0  0  0  0  0
  -35.4496  -22.0579   17.9424 H   0  0  0  0  0  0
  -35.2494  -20.9929   20.3318 H   0  0  0  0  0  0
  -34.3783  -20.2530   19.0168 H   0  0  0  0  0  0
  -36.3938  -23.1975   19.8174 H   0  0  0  0  0  0
  -34.8592  -23.6854   20.4408 H   0  0  0  0  0  0
  -32.2921  -21.3350   19.6424 H   0  0  0  0  0  0
  -33.0789  -22.2967   20.8684 H   0  0  0  0  0  0
  -35.7091  -24.6271   17.6727 H   0  0  0  0  0  0
  -36.4715  -25.3368   19.0541 H   0  0  0  0  0  0
  -33.5553  -20.3215   22.2312 H   0  0  0  0  0  0
  -32.9826  -19.2469   20.9766 H   0  0  0  0  0  0
  -33.4777  -25.4429   18.4574 H   0  0  0  0  0  0
  -34.6412  -26.7346   18.2803 H   0  0  0  0  0  0
  -30.6931  -20.0279   21.2064 H   0  0  0  0  0  0
  -31.1691  -21.3791   22.1927 H   0  0  0  0  0  0
  -35.1163  -26.5405   20.8025 H   0  0  0  0  0  0
  -33.7354  -25.4854   20.9125 H   0  0  0  0  0  0
  -30.0921  -19.5933   23.5413 H   0  0  0  0  0  0
  -31.7039  -19.9653   24.0893 H   0  0  0  0  0  0
  -33.7179  -28.4244   20.1126 H   0  0  0  0  0  0
  -33.0953  -27.7246   21.5770 H   0  0  0  0  0  0
  -32.3761  -17.8496   23.6451 H   0  0  0  0  0  0
  -31.9619  -27.4303   18.8203 H   0  0  0  0  0  0
  -29.8641  -14.3354   22.5258 H   0  0  0  0  0  0
  1 25  1  0  0  0
  1 30  2  0  0  0
  1 88  1  0  0  0
  2  3  1  0  0  0
  2 25  1  0  0  0
  2 91  1  0  0  0
  2 92  1  0  0  0
  3  4  1  0  0  0
  3 93  1  0  0  0
  3 94  1  0  0  0
  4  5  1  0  0  0
  4 95  1  0  0  0
  4 96  1  0  0  0
  5  6  1  0  0  0
  5 26  1  0  0  0
  5 97  1  0  0  0
  6 25  1  0  0  0
  6 98  1  0  0  0
  6 99  1  0  0  0
  7  8  2  0  0  0
  7 26  1  0  0  0
  7 29  1  0  0  0
  8  9  1  0  0  0
  8 22  1  0  0  0
  9 10  1  0  0  0
  9 27  2  0  0  0
 10 11  2  0  0  0
 10 15  1  0  0  0
 11 12  1  0  0  0
 11100  1  0  0  0
 12 13  2  0  0  0
 12101  1  0  0  0
 13 14  1  0  0  0
 13 31  1  0  0  0
 14 15  2  0  0  0
 14102  1  0  0  0
 15103  1  0  0  0
 16 17  2  0  0  0
 16 21  1  0  0  0
 16 31  1  0  0  0
 17 18  1  0  0  0
 17104  1  0  0  0
 18 19  2  0  0  0
 18105  1  0  0  0
 19 20  1  0  0  0
 19 24  1  0  0  0
 20 21  2  0  0  0
 20106  1  0  0  0
 21 23  1  0  0  0
 22 28  1  0  0  0
 22 32  2  0  0  0
 26 27  1  0  0  0
 28107  1  0  0  0
 28108  1  0  0  0
 29109  1  0  0  0
 29110  1  0  0  0
 33 34  1  0  0  0
 33 66  1  0  0  0
 33 70  2  0  0  0
 34 36  1  0  0  0
 34 59  1  0  0  0
 34111  1  0  0  0
 35 44  2  0  0  0
 35 45  1  0  0  0
 35 68  1  0  0  0
 36 56  1  0  0  0
 36112  1  0  0  0
 37 39  1  0  0  0
 37 47  1  0  0  0
 37 66  1  0  0  0
 37113  1  0  0  0
 38 43  2  0  0  0
 38 46  1  0  0  0
 38 47  1  0  0  0
 39 64  1  0  0  0
 39 67  2  0  0  0
 40 52  1  0  0  0
 40 53  2  0  0  0
 40 58  1  0  0  0
 41114  1  0  0  0
 41115  1  0  0  0
 41116  1  0  0  0
 41 48  1  0  0  0
 42 43  1  0  0  0
 42 66  1  0  0  0
 42117  1  0  0  0
 42118  1  0  0  0
 43 44  1  0  0  0
 44119  1  0  0  0
 45 46  2  0  0  0
 45120  1  0  0  0
 46121  1  0  0  0
 47122  1  0  0  0
 47123  1  0  0  0
 48 56  1  0  0  0
 48 65  1  0  0  0
 48124  1  0  0  0
 49 50  1  0  0  0
 49 53  1  0  0  0
 49 64  1  0  0  0
 49125  1  0  0  0
 50 51  1  0  0  0
 50126  1  0  0  0
 50127  1  0  0  0
 51 52  1  0  0  0
 51128  1  0  0  0
 51129  1  0  0  0
 52130  1  0  0  0
 52131  1  0  0  0
 53 54  1  0  0  0
 54 55  2  0  0  0
 54132  1  0  0  0
 55 57  1  0  0  0
 55133  1  0  0  0
 56 69  2  0  0  0
 57 58  2  0  0  0
 57134  1  0  0  0
 58135  1  0  0  0
 59 60  1  0  0  0
 59 61  1  0  0  0
 59 62  1  0  0  0
 60136  1  0  0  0
 60137  1  0  0  0
 60138  1  0  0  0
 61139  1  0  0  0
 61140  1  0  0  0
 61141  1  0  0  0
 62142  1  0  0  0
 62143  1  0  0  0
 62144  1  0  0  0
 63 65  1  0  0  0
 63145  1  0  0  0
 63146  1  0  0  0
 63147  1  0  0  0
 64148  1  0  0  0
 65149  1  0  0  0
 68 74  1  0  0  0
 71 73  1  0  0  0
 71 86  1  0  0  0
 71 89  2  0  0  0
 72 74  1  0  0  0
 72 87  1  0  0  0
 72 90  2  0  0  0
 73 88  1  0  0  0
 73150  1  0  0  0
 73151  1  0  0  0
 74152  1  0  0  0
 74153  1  0  0  0
 75 76  1  0  0  0
 75 77  1  0  0  0
 75154  1  0  0  0
 75155  1  0  0  0
 76 78  1  0  0  0
 76156  1  0  0  0
 76157  1  0  0  0
 77 79  1  0  0  0
 77158  1  0  0  0
 77159  1  0  0  0
 78 80  1  0  0  0
 78160  1  0  0  0
 78161  1  0  0  0
 79 81  1  0  0  0
 79162  1  0  0  0
 79163  1  0  0  0
 80 82  1  0  0  0
 80164  1  0  0  0
 80165  1  0  0  0
 81 83  1  0  0  0
 81166  1  0  0  0
 81167  1  0  0  0
 82 84  1  0  0  0
 82168  1  0  0  0
 82169  1  0  0  0
 83 85  1  0  0  0
 83170  1  0  0  0
 83171  1  0  0  0
 84 86  1  0  0  0
 84172  1  0  0  0
 84173  1  0  0  0
 85 87  1  0  0  0
 85174  1  0  0  0
 85175  1  0  0  0
 86176  1  0  0  0
 87177  1  0  0  0
 88178  1  0  0  0
M  ISO  4   1 100  68 101  74 101  88 100
M  END
> <chiral flag>
0

> <version>
0

> <s_m_source_file>
/data/baiqing/PycharmProjects/Reinvent-master-3.2/result/LINK_invent/BTK/process_docking_weight1_custom_sum_contain_oxygen_bond_distance_aromatic_linkinvent_7_9_3/rearranged_h_0009.sdf

> <i_m_source_file_index>
32

> <r_mmod_Potential_Energy-OPLS-2005>
-283.416320800781

> <r_mmod_Stretch_Energy-OPLS-2005>
30.7550144195557

> <r_mmod_Bend_Energy-OPLS-2005>
96.131706237793

> <r_mmod_Torsional_Energy-OPLS-2005>
231.785385131836

> <r_mmod_Improper_Torsional_Energy-OPLS-2005>
4.29714298248291

> <r_mmod_Van_der_Waal_Energy-OPLS-2005>
133.071319580078

> <r_mmod_Electrostatic_Energy-OPLS-2005>
-520.868530273438

> <r_mmod_Solvation_Energy-OPLS-2005>
-266.602416992188

> <b_mmod_Minimization_Converged-OPLS-2005>
0

> <r_mmod_RMS_Derivative-OPLS-2005>
2.90001964569092

$$$$
33
                    3D
 Structure written by MMmdl.
151159  0  0  1  0            999 V2000
  -30.6215  -14.6467   20.4927 C   0  0  0  0  0  0
  -30.4407  -12.3957   19.4503 C   0  0  0  0  0  0
  -29.5080  -12.5074   18.2234 C   0  0  0  0  0  0
  -28.0310  -12.3448   18.6369 C   0  0  0  0  0  0
  -27.6531  -13.2179   19.8634 C   0  0  2  0  0  0
  -28.7004  -13.0767   20.9916 C   0  0  0  0  0  0
  -25.2552  -13.8167   20.5692 C   0  0  0  0  0  0
  -24.1817  -13.0425   20.9166 C   0  0  0  0  0  0
  -24.6396  -11.6902   20.8726 C   0  0  0  0  0  0
  -23.9065  -10.4286   21.0398 C   0  0  0  0  0  0
  -24.3615   -9.4205   21.9181 C   0  0  0  0  0  0
  -23.6291   -8.2241   22.0754 C   0  0  0  0  0  0
  -22.4273   -8.0278   21.3545 C   0  0  0  0  0  0
  -21.9906   -9.0250   20.4646 C   0  0  0  0  0  0
  -22.7236  -10.2128   20.3050 C   0  0  0  0  0  0
  -21.6852   -6.0733   22.5280 C   0  0  0  0  0  0
  -21.4013   -6.5637   23.8213 C   0  0  0  0  0  0
  -21.3660   -5.6791   24.9175 C   0  0  0  0  0  0
  -21.6045   -4.3053   24.7225 C   0  0  0  0  0  0
  -21.8819   -3.8144   23.4346 C   0  0  0  0  0  0
  -21.9192   -4.6961   22.3403 C   0  0  0  0  0  0
  -22.7841  -13.5220   21.1842 C   0  0  0  0  0  0
  -22.1662   -4.2147   21.0981 F   0  0  0  0  0  0
  -21.5630   -3.4537   25.7739 F   0  0  0  0  0  0
  -30.0151  -13.4189   20.4251 N   0  0  0  0  0  0
  -26.2995  -12.9359   20.3338 N   0  0  0  0  0  0
  -25.9330  -11.6508   20.5761 N   0  0  0  0  0  0
  -22.0489  -12.8217   22.0407 N   0  0  0  0  0  0
  -25.4214  -15.1896   20.4180 N   0  0  0  0  0  0
  -31.7915  -14.8056   20.1326 O   0  0  0  0  0  0
  -21.6637   -6.8876   21.4242 O   0  0  0  0  0  0
  -22.3520  -14.5528   20.6698 O   0  0  0  0  0  0
  -24.6266  -31.8601   23.2031 C   0  0  0  0  0  0
  -25.9113  -32.4780   23.8358 C   0  0  1  0  0  0
  -27.2236  -27.3176   20.1118 C   0  0  0  0  0  0
  -25.5926  -33.8581   24.2283 N   0  0  0  0  0  0
  -23.4199  -30.4850   21.5463 C   0  0  2  0  0  0
  -24.8656  -28.9422   20.1113 C   0  0  0  0  0  0
  -22.7476  -29.4628   22.4939 C   0  0  0  0  0  0
  -18.0286  -28.1384   22.8487 C   0  0  0  0  0  0
  -24.1489  -36.7296   23.2639 C   0  0  0  0  0  0
  -25.9621  -30.7907   21.3744 C   0  0  0  0  0  0
  -26.0362  -29.4188   20.7147 C   0  0  0  0  0  0
  -27.2183  -28.6189   20.7045 C   0  0  0  0  0  0
  -26.0260  -26.8968   19.4857 C   0  0  0  0  0  0
  -24.8626  -27.6866   19.4884 C   0  0  0  0  0  0
  -23.6342  -29.8222   20.1610 C   0  0  0  0  0  0
  -25.4113  -36.3085   24.0330 C   0  0  1  0  0  0
  -20.5886  -28.3689   23.1283 C   0  0  2  0  0  0
  -20.6775  -26.9414   22.5408 C   0  0  0  0  0  0
  -19.5750  -26.6385   21.5212 C   0  0  0  0  0  0
  -18.1931  -26.7926   22.1626 C   0  0  0  0  0  0
  -19.1538  -28.8853   23.2880 C   0  0  0  0  0  0
  -18.9460  -30.1455   23.8897 C   0  0  0  0  0  0
  -17.6461  -30.6587   24.0563 C   0  0  0  0  0  0
  -25.9051  -34.9454   23.5107 C   0  0  0  0  0  0
  -16.5352  -29.9086   23.6329 C   0  0  0  0  0  0
  -16.7273  -28.6503   23.0352 C   0  0  0  0  0  0
  -26.4494  -31.6587   25.0728 C   0  0  0  0  0  0
  -25.3727  -31.3725   26.1454 C   0  0  0  0  0  0
  -27.0334  -30.3010   24.6182 C   0  0  0  0  0  0
  -27.6054  -32.4320   25.7498 C   0  0  0  0  0  0
  -27.5580  -37.1804   24.8465 C   0  0  0  0  0  0
  -21.4189  -29.3045   22.3680 N   0  0  0  0  0  0
  -26.4293  -37.3779   23.9407 N   0  0  0  0  0  0
  -24.6885  -31.0614   22.0981 N   0  0  0  0  0  0
  -23.4201  -28.8163   23.3014 O   0  0  0  0  0  0
  -28.3403  -26.4633   20.1602 O   0  0  0  0  0  0
  -26.5620  -34.8919   22.4674 O   0  0  0  0  0  0
  -23.5429  -32.1399   23.7358 O   0  0  0  0  0  0
  -31.1180  -17.8849   20.6034 C   0  0  0  0  0  0
  -31.1123  -19.3107   20.5262 C   0  0  0  0  0  0
  -28.7106  -19.3389   20.5192 C   0  0  0  0  0  0
  -29.9083  -17.1463   20.6525 C   0  0  0  0  0  0
  -29.9190  -20.0843   20.4854 C   0  0  0  0  0  0
  -28.7114  -17.9126   20.6067 C   0  0  0  0  0  0
  -29.2528  -23.9564   20.3436 C   0  0  0  0  0  0
  -28.1015  -25.0048   20.0220 C   0  0  0  0  0  0
  -28.8904  -22.3990   20.2827 C   0  0  0  0  0  0
  -29.7931  -15.6941   20.7921 N   0  0  0  0  0  0
  -30.0305  -21.4919   20.4337 O   0  0  0  0  0  0
  -27.5271  -17.2553   20.6481 F   0  0  0  0  0  0
  -31.4812  -12.5238   19.1468 H   0  0  0  0  0  0
  -30.3783  -11.4007   19.8940 H   0  0  0  0  0  0
  -29.7724  -11.7555   17.4787 H   0  0  0  0  0  0
  -29.6485  -13.4764   17.7417 H   0  0  0  0  0  0
  -27.8691  -11.2920   18.8707 H   0  0  0  0  0  0
  -27.3755  -12.5722   17.7955 H   0  0  0  0  0  0
  -27.6666  -14.2522   19.5190 H   0  0  0  0  0  0
  -28.7131  -12.0565   21.3781 H   0  0  0  0  0  0
  -28.4480  -13.7124   21.8419 H   0  0  0  0  0  0
  -25.2760   -9.5683   22.4755 H   0  0  0  0  0  0
  -23.9999   -7.4633   22.7474 H   0  0  0  0  0  0
  -21.0836   -8.8767   19.8954 H   0  0  0  0  0  0
  -22.3693  -10.9665   19.6157 H   0  0  0  0  0  0
  -21.2003   -7.6146   23.9716 H   0  0  0  0  0  0
  -21.1485   -6.0521   25.9079 H   0  0  0  0  0  0
  -22.0598   -2.7606   23.2846 H   0  0  0  0  0  0
  -22.4103  -11.9877   22.4793 H   0  0  0  0  0  0
  -21.1112  -13.1253   22.2622 H   0  0  0  0  0  0
  -24.6550  -15.8367   20.5619 H   0  0  0  0  0  0
  -26.2902  -15.6637   20.1983 H   0  0  0  0  0  0
  -26.7180  -32.5450   23.1107 H   0  0  0  0  0  0
  -25.0065  -33.9725   25.0423 H   0  0  0  0  0  0
  -22.7139  -31.3059   21.4047 H   0  0  0  0  0  0
  -23.3749  -35.9632   23.3306 H   0  0  0  0  0  0
  -24.3580  -36.8912   22.2052 H   0  0  0  0  0  0
  -23.7246  -37.6502   23.6657 H   0  0  0  0  0  0
  -26.0942  -31.5552   20.6075 H   0  0  0  0  0  0
  -26.8423  -30.8379   22.0041 H   0  0  0  0  0  0
  -28.1158  -28.9808   21.1864 H   0  0  0  0  0  0
  -25.9527  -25.9397   18.9927 H   0  0  0  0  0  0
  -23.9657  -27.3159   19.0113 H   0  0  0  0  0  0
  -23.7534  -30.5997   19.4055 H   0  0  0  0  0  0
  -22.7537  -29.2525   19.8581 H   0  0  0  0  0  0
  -25.1293  -36.1940   25.0823 H   0  0  0  0  0  0
  -20.9979  -28.3261   24.1404 H   0  0  0  0  0  0
  -20.5679  -26.2299   23.3607 H   0  0  0  0  0  0
  -21.6643  -26.7445   22.1199 H   0  0  0  0  0  0
  -19.6913  -25.6296   21.1242 H   0  0  0  0  0  0
  -19.6686  -27.3195   20.6741 H   0  0  0  0  0  0
  -17.4200  -26.6671   21.4030 H   0  0  0  0  0  0
  -18.0335  -26.0069   22.9023 H   0  0  0  0  0  0
  -19.7937  -30.7270   24.2269 H   0  0  0  0  0  0
  -17.5016  -31.6267   24.5164 H   0  0  0  0  0  0
  -15.5352  -30.2988   23.7651 H   0  0  0  0  0  0
  -15.8672  -28.0822   22.7068 H   0  0  0  0  0  0
  -24.5898  -30.7080   25.7780 H   0  0  0  0  0  0
  -24.8923  -32.2892   26.4885 H   0  0  0  0  0  0
  -25.8050  -30.8895   27.0226 H   0  0  0  0  0  0
  -26.2907  -29.6762   24.1207 H   0  0  0  0  0  0
  -27.4029  -29.7264   25.4687 H   0  0  0  0  0  0
  -27.8779  -30.4291   23.9407 H   0  0  0  0  0  0
  -27.2666  -33.3618   26.2077 H   0  0  0  0  0  0
  -28.3864  -32.6881   25.0327 H   0  0  0  0  0  0
  -28.0722  -31.8443   26.5414 H   0  0  0  0  0  0
  -28.2599  -38.0100   24.7509 H   0  0  0  0  0  0
  -28.1073  -36.2631   24.6294 H   0  0  0  0  0  0
  -27.2298  -37.1456   25.8868 H   0  0  0  0  0  0
  -20.9367  -29.8773   21.6895 H   0  0  0  0  0  0
  -26.0176  -38.2855   24.1401 H   0  0  0  0  0  0
  -32.0671  -17.3700   20.6429 H   0  0  0  0  0  0
  -32.0626  -19.8258   20.5039 H   0  0  0  0  0  0
  -27.7601  -19.8494   20.4918 H   0  0  0  0  0  0
  -29.6470  -24.1729   21.3364 H   0  0  0  0  0  0
  -30.0761  -24.1424   19.6539 H   0  0  0  0  0  0
  -27.2506  -24.7435   20.6531 H   0  0  0  0  0  0
  -27.7948  -24.8125   18.9934 H   0  0  0  0  0  0
  -28.4094  -22.1808   19.3285 H   0  0  0  0  0  0
  -28.1566  -22.1770   21.0583 H   0  0  0  0  0  0
  -28.8555  -15.3945   21.0126 H   0  0  0  0  0  0
  1 25  1  0  0  0
  1 30  2  0  0  0
  1 80  1  0  0  0
  2  3  1  0  0  0
  2 25  1  0  0  0
  2 83  1  0  0  0
  2 84  1  0  0  0
  3  4  1  0  0  0
  3 85  1  0  0  0
  3 86  1  0  0  0
  4  5  1  0  0  0
  4 87  1  0  0  0
  4 88  1  0  0  0
  5  6  1  0  0  0
  5 26  1  0  0  0
  5 89  1  0  0  0
  6 25  1  0  0  0
  6 90  1  0  0  0
  6 91  1  0  0  0
  7  8  2  0  0  0
  7 26  1  0  0  0
  7 29  1  0  0  0
  8  9  1  0  0  0
  8 22  1  0  0  0
  9 10  1  0  0  0
  9 27  2  0  0  0
 10 11  2  0  0  0
 10 15  1  0  0  0
 11 12  1  0  0  0
 11 92  1  0  0  0
 12 13  2  0  0  0
 12 93  1  0  0  0
 13 14  1  0  0  0
 13 31  1  0  0  0
 14 15  2  0  0  0
 14 94  1  0  0  0
 15 95  1  0  0  0
 16 17  2  0  0  0
 16 21  1  0  0  0
 16 31  1  0  0  0
 17 18  1  0  0  0
 17 96  1  0  0  0
 18 19  2  0  0  0
 18 97  1  0  0  0
 19 20  1  0  0  0
 19 24  1  0  0  0
 20 21  2  0  0  0
 20 98  1  0  0  0
 21 23  1  0  0  0
 22 28  1  0  0  0
 22 32  2  0  0  0
 26 27  1  0  0  0
 28 99  1  0  0  0
 28100  1  0  0  0
 29101  1  0  0  0
 29102  1  0  0  0
 33 34  1  0  0  0
 33 66  1  0  0  0
 33 70  2  0  0  0
 34 36  1  0  0  0
 34 59  1  0  0  0
 34103  1  0  0  0
 35 44  2  0  0  0
 35 45  1  0  0  0
 35 68  1  0  0  0
 36 56  1  0  0  0
 36104  1  0  0  0
 37 39  1  0  0  0
 37 47  1  0  0  0
 37 66  1  0  0  0
 37105  1  0  0  0
 38 43  2  0  0  0
 38 46  1  0  0  0
 38 47  1  0  0  0
 39 64  1  0  0  0
 39 67  2  0  0  0
 40 52  1  0  0  0
 40 53  2  0  0  0
 40 58  1  0  0  0
 41106  1  0  0  0
 41107  1  0  0  0
 41108  1  0  0  0
 41 48  1  0  0  0
 42 43  1  0  0  0
 42 66  1  0  0  0
 42109  1  0  0  0
 42110  1  0  0  0
 43 44  1  0  0  0
 44111  1  0  0  0
 45 46  2  0  0  0
 45112  1  0  0  0
 46113  1  0  0  0
 47114  1  0  0  0
 47115  1  0  0  0
 48 56  1  0  0  0
 48 65  1  0  0  0
 48116  1  0  0  0
 49 50  1  0  0  0
 49 53  1  0  0  0
 49 64  1  0  0  0
 49117  1  0  0  0
 50 51  1  0  0  0
 50118  1  0  0  0
 50119  1  0  0  0
 51 52  1  0  0  0
 51120  1  0  0  0
 51121  1  0  0  0
 52122  1  0  0  0
 52123  1  0  0  0
 53 54  1  0  0  0
 54 55  2  0  0  0
 54124  1  0  0  0
 55 57  1  0  0  0
 55125  1  0  0  0
 56 69  2  0  0  0
 57 58  2  0  0  0
 57126  1  0  0  0
 58127  1  0  0  0
 59 60  1  0  0  0
 59 61  1  0  0  0
 59 62  1  0  0  0
 60128  1  0  0  0
 60129  1  0  0  0
 60130  1  0  0  0
 61131  1  0  0  0
 61132  1  0  0  0
 61133  1  0  0  0
 62134  1  0  0  0
 62135  1  0  0  0
 62136  1  0  0  0
 63 65  1  0  0  0
 63137  1  0  0  0
 63138  1  0  0  0
 63139  1  0  0  0
 64140  1  0  0  0
 65141  1  0  0  0
 68 78  1  0  0  0
 71 72  2  0  0  0
 71 74  1  0  0  0
 71142  1  0  0  0
 72 75  1  0  0  0
 72143  1  0  0  0
 73 75  2  0  0  0
 73 76  1  0  0  0
 73144  1  0  0  0
 74 76  2  0  0  0
 74 80  1  0  0  0
 75 81  1  0  0  0
 76 82  1  0  0  0
 77 78  1  0  0  0
 77 79  1  0  0  0
 77145  1  0  0  0
 77146  1  0  0  0
 78147  1  0  0  0
 78148  1  0  0  0
 79 81  1  0  0  0
 79149  1  0  0  0
 79150  1  0  0  0
 80151  1  0  0  0
M  ISO  4   1 100  68 101  78 101  80 100
M  END
> <chiral flag>
0

> <version>
0

> <s_m_source_file>
/data/baiqing/PycharmProjects/Reinvent-master-3.2/result/LINK_invent/BTK/process_docking_weight1_custom_sum_contain_oxygen_bond_distance_aromatic_linkinvent_7_9_3/rearranged_h_0009.sdf

> <i_m_source_file_index>
33

> <r_mmod_Potential_Energy-OPLS-2005>
8.48562717437744

> <r_mmod_Stretch_Energy-OPLS-2005>
78.0414810180664

> <r_mmod_Bend_Energy-OPLS-2005>
145.352081298828

> <r_mmod_Torsional_Energy-OPLS-2005>
209.226409912109

> <r_mmod_Improper_Torsional_Energy-OPLS-2005>
4.5839262008667

> <r_mmod_Van_der_Waal_Energy-OPLS-2005>
144.377670288086

> <r_mmod_Electrostatic_Energy-OPLS-2005>
-422.268218994141

> <r_mmod_Solvation_Energy-OPLS-2005>
-201.274765014648

> <b_mmod_Minimization_Converged-OPLS-2005>
0

> <r_mmod_RMS_Derivative-OPLS-2005>
0.238112762570381

$$$$
34
                    3D
 Structure written by MMmdl.
148156  0  0  1  0            999 V2000
  -30.4071  -15.3320   20.4376 C   0  0  0  0  0  0
  -30.4252  -12.8929   19.5182 C   0  0  0  0  0  0
  -29.5241  -12.5908   18.2957 C   0  0  0  0  0  0
  -28.0817  -12.2898   18.7269 C   0  0  0  0  0  0
  -27.5967  -13.2716   19.8166 C   0  0  2  0  0  0
  -28.6149  -13.4761   20.9516 C   0  0  0  0  0  0
  -25.2334  -13.8207   20.5790 C   0  0  0  0  0  0
  -24.1697  -13.0395   20.9284 C   0  0  0  0  0  0
  -24.6331  -11.6901   20.8711 C   0  0  0  0  0  0
  -23.9075  -10.4252   21.0366 C   0  0  0  0  0  0
  -24.3618   -9.4180   21.9205 C   0  0  0  0  0  0
  -23.6269   -8.2222   22.0792 C   0  0  0  0  0  0
  -22.4256   -8.0254   21.3565 C   0  0  0  0  0  0
  -21.9913   -9.0206   20.4645 C   0  0  0  0  0  0
  -22.7245  -10.2074   20.3019 C   0  0  0  0  0  0
  -21.6846   -6.0751   22.5296 C   0  0  0  0  0  0
  -21.4001   -6.5658   23.8223 C   0  0  0  0  0  0
  -21.3670   -5.6792   24.9195 C   0  0  0  0  0  0
  -21.6058   -4.3074   24.7237 C   0  0  0  0  0  0
  -21.8814   -3.8148   23.4353 C   0  0  0  0  0  0
  -21.9205   -4.6960   22.3424 C   0  0  0  0  0  0
  -22.7721  -13.5139   21.1909 C   0  0  0  0  0  0
  -22.1676   -4.2150   21.0991 F   0  0  0  0  0  0
  -21.5634   -3.4551   25.7764 F   0  0  0  0  0  0
  -29.8284  -14.0304   20.3187 N   0  0  0  0  0  0
  -26.2715  -12.9476   20.3167 N   0  0  0  0  0  0
  -25.9256  -11.6600   20.5670 N   0  0  0  0  0  0
  -22.0388  -12.8129   22.0447 N   0  0  0  0  0  0
  -25.4078  -15.1945   20.4547 N   0  0  0  0  0  0
  -31.6316  -15.2997   20.2504 O   0  0  0  0  0  0
  -21.6621   -6.8854   21.4244 O   0  0  0  0  0  0
  -22.3395  -14.5468   20.6811 O   0  0  0  0  0  0
  -24.6672  -31.8190   23.1616 C   0  0  0  0  0  0
  -25.9312  -32.4545   23.8122 C   0  0  1  0  0  0
  -27.2198  -26.8625   20.2291 C   0  0  0  0  0  0
  -25.5978  -33.8371   24.2034 N   0  0  0  0  0  0
  -23.4878  -30.4205   21.5143 C   0  0  2  0  0  0
  -24.9427  -28.7932   20.1172 C   0  0  0  0  0  0
  -22.7697  -29.4367   22.4762 C   0  0  0  0  0  0
  -18.0312  -28.1410   22.8439 C   0  0  0  0  0  0
  -24.1517  -36.7200   23.2650 C   0  0  0  0  0  0
  -26.0588  -30.6010   21.4084 C   0  0  0  0  0  0
  -26.1271  -29.1838   20.7572 C   0  0  0  0  0  0
  -27.2553  -28.2402   20.7905 C   0  0  0  0  0  0
  -26.0152  -26.6388   19.5248 C   0  0  0  0  0  0
  -24.9172  -27.5438   19.4738 C   0  0  0  0  0  0
  -23.7338  -29.7315   20.1435 C   0  0  0  0  0  0
  -25.4140  -36.2965   24.0293 C   0  0  1  0  0  0
  -20.5946  -28.3737   23.1174 C   0  0  2  0  0  0
  -20.6782  -26.9423   22.5404 C   0  0  0  0  0  0
  -19.5761  -26.6372   21.5198 C   0  0  0  0  0  0
  -18.1944  -26.7938   22.1629 C   0  0  0  0  0  0
  -19.1569  -28.8881   23.2810 C   0  0  0  0  0  0
  -18.9488  -30.1490   23.8849 C   0  0  0  0  0  0
  -17.6487  -30.6612   24.0519 C   0  0  0  0  0  0
  -25.9078  -34.9326   23.4957 C   0  0  0  0  0  0
  -16.5378  -29.9083   23.6356 C   0  0  0  0  0  0
  -16.7294  -28.6496   23.0359 C   0  0  0  0  0  0
  -26.4556  -31.6531   25.0684 C   0  0  0  0  0  0
  -25.3665  -31.3807   26.1330 C   0  0  0  0  0  0
  -27.0477  -30.2872   24.6492 C   0  0  0  0  0  0
  -27.6003  -32.4368   25.7518 C   0  0  0  0  0  0
  -27.5582  -37.1753   24.8443 C   0  0  0  0  0  0
  -21.4349  -29.3045   22.3540 N   0  0  0  0  0  0
  -26.4293  -37.3682   23.9396 N   0  0  0  0  0  0
  -24.7586  -30.9739   22.0833 N   0  0  0  0  0  0
  -23.4178  -28.7923   23.3045 O   0  0  0  0  0  0
  -28.2088  -25.7300   20.3577 O   0  0  0  0  0  0
  -26.5754  -34.8874   22.4615 O   0  0  0  0  0  0
  -23.5701  -32.1250   23.6639 O   0  0  0  0  0  0
  -30.7046  -17.6782   22.3565 C   0  0  0  0  0  0
  -31.1377  -18.4772   23.4197 C   0  0  0  0  0  0
  -30.2080  -20.3815   22.3091 C   0  0  0  0  0  0
  -29.9556  -18.1044   21.2137 C   0  0  0  0  0  0
  -29.6352  -19.7023   21.1930 C   0  0  0  0  0  0
  -30.8883  -19.8319   23.3873 C   0  0  0  0  0  0
  -28.0121  -24.0656   20.1966 C   0  0  0  0  0  0
  -28.8879  -22.5271   20.7188 C   0  0  0  0  0  0
  -29.6811  -16.6546   20.5080 N   0  0  0  0  0  0
  -28.9074  -20.8464   20.4328 O   0  0  0  0  0  0
  -31.4238  -20.9473   24.8371 Br  0  0  0  0  0  0
  -31.4147  -13.1584   19.1462 H   0  0  0  0  0  0
  -30.5669  -12.0110   20.1472 H   0  0  0  0  0  0
  -29.9271  -11.7539   17.7267 H   0  0  0  0  0  0
  -29.5177  -13.4580   17.6312 H   0  0  0  0  0  0
  -28.0578  -11.2730   19.1157 H   0  0  0  0  0  0
  -27.4081  -12.3061   17.8677 H   0  0  0  0  0  0
  -27.4982  -14.2343   19.3077 H   0  0  0  0  0  0
  -28.8061  -12.5438   21.4807 H   0  0  0  0  0  0
  -28.2189  -14.1727   21.6908 H   0  0  0  0  0  0
  -25.2791   -9.5687   22.4778 H   0  0  0  0  0  0
  -23.9984   -7.4647   22.7555 H   0  0  0  0  0  0
  -21.0847   -8.8742   19.8928 H   0  0  0  0  0  0
  -22.3764  -10.9592   19.6074 H   0  0  0  0  0  0
  -21.1955   -7.6148   23.9720 H   0  0  0  0  0  0
  -21.1503   -6.0548   25.9099 H   0  0  0  0  0  0
  -22.0567   -2.7611   23.2872 H   0  0  0  0  0  0
  -22.4003  -11.9799   22.4887 H   0  0  0  0  0  0
  -21.0979  -13.1115   22.2623 H   0  0  0  0  0  0
  -24.6742  -15.8596   20.6740 H   0  0  0  0  0  0
  -26.2970  -15.6332   20.2572 H   0  0  0  0  0  0
  -26.7385  -32.5019   23.0836 H   0  0  0  0  0  0
  -24.9998  -33.9450   25.0089 H   0  0  0  0  0  0
  -22.8040  -31.2532   21.3357 H   0  0  0  0  0  0
  -23.3766  -35.9549   23.3316 H   0  0  0  0  0  0
  -24.3560  -36.8841   22.2063 H   0  0  0  0  0  0
  -23.7289  -37.6386   23.6700 H   0  0  0  0  0  0
  -26.2412  -31.3361   20.6232 H   0  0  0  0  0  0
  -26.9186  -30.6569   22.0653 H   0  0  0  0  0  0
  -28.1437  -28.5377   21.3304 H   0  0  0  0  0  0
  -25.8789  -25.6810   19.0407 H   0  0  0  0  0  0
  -24.0240  -27.2369   18.9512 H   0  0  0  0  0  0
  -23.8987  -30.5036   19.3898 H   0  0  0  0  0  0
  -22.8443  -29.1891   19.8201 H   0  0  0  0  0  0
  -25.1329  -36.1760   25.0774 H   0  0  0  0  0  0
  -20.9987  -28.3359   24.1297 H   0  0  0  0  0  0
  -20.5649  -26.2348   23.3638 H   0  0  0  0  0  0
  -21.6626  -26.7384   22.1202 H   0  0  0  0  0  0
  -19.6942  -25.6248   21.1273 H   0  0  0  0  0  0
  -19.6723  -27.3150   20.6702 H   0  0  0  0  0  0
  -17.4202  -26.6628   21.4072 H   0  0  0  0  0  0
  -18.0393  -26.0112   22.9075 H   0  0  0  0  0  0
  -19.7968  -30.7307   24.2203 H   0  0  0  0  0  0
  -17.5037  -31.6268   24.5147 H   0  0  0  0  0  0
  -15.5369  -30.2959   23.7702 H   0  0  0  0  0  0
  -15.8686  -28.0791   22.7100 H   0  0  0  0  0  0
  -24.5809  -30.7202   25.7625 H   0  0  0  0  0  0
  -24.8899  -32.3032   26.4647 H   0  0  0  0  0  0
  -25.7861  -30.9009   27.0191 H   0  0  0  0  0  0
  -26.3169  -29.6511   24.1465 H   0  0  0  0  0  0
  -27.3957  -29.7246   25.5182 H   0  0  0  0  0  0
  -27.9137  -30.4028   23.9959 H   0  0  0  0  0  0
  -27.2447  -33.3555   26.2205 H   0  0  0  0  0  0
  -28.3761  -32.7159   25.0368 H   0  0  0  0  0  0
  -28.0800  -31.8492   26.5375 H   0  0  0  0  0  0
  -28.2523  -38.0127   24.7481 H   0  0  0  0  0  0
  -28.1176  -36.2619   24.6265 H   0  0  0  0  0  0
  -27.2297  -37.1350   25.8855 H   0  0  0  0  0  0
  -20.9612  -29.8729   21.6654 H   0  0  0  0  0  0
  -26.0150  -38.2741   24.1403 H   0  0  0  0  0  0
  -30.9444  -16.6400   22.5196 H   0  0  0  0  0  0
  -31.6555  -18.0416   24.2638 H   0  0  0  0  0  0
  -30.1322  -21.4381   22.4442 H   0  0  0  0  0  0
  -27.0031  -23.9132   20.5802 H   0  0  0  0  0  0
  -27.9066  -23.9455   19.1189 H   0  0  0  0  0  0
  -28.6935  -22.6157   21.7878 H   0  0  0  0  0  0
  -29.9410  -22.7778   20.5919 H   0  0  0  0  0  0
  -28.7036  -16.5168   20.2853 H   0  0  0  0  0  0
  1 25  1  0  0  0
  1 30  2  0  0  0
  1 79  1  0  0  0
  2  3  1  0  0  0
  2 25  1  0  0  0
  2 82  1  0  0  0
  2 83  1  0  0  0
  3  4  1  0  0  0
  3 84  1  0  0  0
  3 85  1  0  0  0
  4  5  1  0  0  0
  4 86  1  0  0  0
  4 87  1  0  0  0
  5  6  1  0  0  0
  5 26  1  0  0  0
  5 88  1  0  0  0
  6 25  1  0  0  0
  6 89  1  0  0  0
  6 90  1  0  0  0
  7  8  2  0  0  0
  7 26  1  0  0  0
  7 29  1  0  0  0
  8  9  1  0  0  0
  8 22  1  0  0  0
  9 10  1  0  0  0
  9 27  2  0  0  0
 10 11  2  0  0  0
 10 15  1  0  0  0
 11 12  1  0  0  0
 11 91  1  0  0  0
 12 13  2  0  0  0
 12 92  1  0  0  0
 13 14  1  0  0  0
 13 31  1  0  0  0
 14 15  2  0  0  0
 14 93  1  0  0  0
 15 94  1  0  0  0
 16 17  2  0  0  0
 16 21  1  0  0  0
 16 31  1  0  0  0
 17 18  1  0  0  0
 17 95  1  0  0  0
 18 19  2  0  0  0
 18 96  1  0  0  0
 19 20  1  0  0  0
 19 24  1  0  0  0
 20 21  2  0  0  0
 20 97  1  0  0  0
 21 23  1  0  0  0
 22 28  1  0  0  0
 22 32  2  0  0  0
 26 27  1  0  0  0
 28 98  1  0  0  0
 28 99  1  0  0  0
 29100  1  0  0  0
 29101  1  0  0  0
 33 34  1  0  0  0
 33 66  1  0  0  0
 33 70  2  0  0  0
 34 36  1  0  0  0
 34 59  1  0  0  0
 34102  1  0  0  0
 35 44  2  0  0  0
 35 45  1  0  0  0
 35 68  1  0  0  0
 36 56  1  0  0  0
 36103  1  0  0  0
 37 39  1  0  0  0
 37 47  1  0  0  0
 37 66  1  0  0  0
 37104  1  0  0  0
 38 43  2  0  0  0
 38 46  1  0  0  0
 38 47  1  0  0  0
 39 64  1  0  0  0
 39 67  2  0  0  0
 40 52  1  0  0  0
 40 53  2  0  0  0
 40 58  1  0  0  0
 41105  1  0  0  0
 41106  1  0  0  0
 41107  1  0  0  0
 41 48  1  0  0  0
 42 43  1  0  0  0
 42 66  1  0  0  0
 42108  1  0  0  0
 42109  1  0  0  0
 43 44  1  0  0  0
 44110  1  0  0  0
 45 46  2  0  0  0
 45111  1  0  0  0
 46112  1  0  0  0
 47113  1  0  0  0
 47114  1  0  0  0
 48 56  1  0  0  0
 48 65  1  0  0  0
 48115  1  0  0  0
 49 50  1  0  0  0
 49 53  1  0  0  0
 49 64  1  0  0  0
 49116  1  0  0  0
 50 51  1  0  0  0
 50117  1  0  0  0
 50118  1  0  0  0
 51 52  1  0  0  0
 51119  1  0  0  0
 51120  1  0  0  0
 52121  1  0  0  0
 52122  1  0  0  0
 53 54  1  0  0  0
 54 55  2  0  0  0
 54123  1  0  0  0
 55 57  1  0  0  0
 55124  1  0  0  0
 56 69  2  0  0  0
 57 58  2  0  0  0
 57125  1  0  0  0
 58126  1  0  0  0
 59 60  1  0  0  0
 59 61  1  0  0  0
 59 62  1  0  0  0
 60127  1  0  0  0
 60128  1  0  0  0
 60129  1  0  0  0
 61130  1  0  0  0
 61131  1  0  0  0
 61132  1  0  0  0
 62133  1  0  0  0
 62134  1  0  0  0
 62135  1  0  0  0
 63 65  1  0  0  0
 63136  1  0  0  0
 63137  1  0  0  0
 63138  1  0  0  0
 64139  1  0  0  0
 65140  1  0  0  0
 68 77  1  0  0  0
 71 72  2  0  0  0
 71 74  1  0  0  0
 71141  1  0  0  0
 72 76  1  0  0  0
 72142  1  0  0  0
 73 75  1  0  0  0
 73 76  2  0  0  0
 73143  1  0  0  0
 74 75  2  0  0  0
 74 79  1  0  0  0
 75 80  1  0  0  0
 76 81  1  0  0  0
 77 78  1  0  0  0
 77144  1  0  0  0
 77145  1  0  0  0
 78 80  1  0  0  0
 78146  1  0  0  0
 78147  1  0  0  0
 79148  1  0  0  0
M  ISO  4   1 100  68 101  77 101  79 100
M  END
> <chiral flag>
0

> <version>
0

> <s_m_source_file>
/data/baiqing/PycharmProjects/Reinvent-master-3.2/result/LINK_invent/BTK/process_docking_weight1_custom_sum_contain_oxygen_bond_distance_aromatic_linkinvent_7_9_3/rearranged_h_0009.sdf

> <i_m_source_file_index>
34

> <r_mmod_Potential_Energy-OPLS-2005>
1720.45385742188

> <r_mmod_Stretch_Energy-OPLS-2005>
777.170349121094

> <r_mmod_Bend_Energy-OPLS-2005>
604.395263671875

> <r_mmod_Torsional_Energy-OPLS-2005>
235.412857055664

> <r_mmod_Improper_Torsional_Energy-OPLS-2005>
7.37830924987793

> <r_mmod_Van_der_Waal_Energy-OPLS-2005>
148.584884643555

> <r_mmod_Electrostatic_Energy-OPLS-2005>
-383.864715576172

> <r_mmod_Solvation_Energy-OPLS-2005>
-223.155532836914

> <b_mmod_Minimization_Converged-OPLS-2005>
0

> <r_mmod_RMS_Derivative-OPLS-2005>
8.28860759735107

$$$$
35
                    3D
 Structure written by MMmdl.
149157  0  0  1  0            999 V2000
  -30.5150  -14.8954   20.4360 C   0  0  0  0  0  0
  -30.4548  -12.5501   19.4855 C   0  0  0  0  0  0
  -29.5255  -12.5296   18.2479 C   0  0  0  0  0  0
  -28.0541  -12.3244   18.6607 C   0  0  0  0  0  0
  -27.6398  -13.2342   19.8461 C   0  0  2  0  0  0
  -28.6851  -13.2014   20.9829 C   0  0  0  0  0  0
  -25.2505  -13.8180   20.5684 C   0  0  0  0  0  0
  -24.1807  -13.0431   20.9230 C   0  0  0  0  0  0
  -24.6398  -11.6910   20.8754 C   0  0  0  0  0  0
  -23.9072  -10.4290   21.0412 C   0  0  0  0  0  0
  -24.3623   -9.4203   21.9186 C   0  0  0  0  0  0
  -23.6294   -8.2241   22.0755 C   0  0  0  0  0  0
  -22.4275   -8.0282   21.3547 C   0  0  0  0  0  0
  -21.9910   -9.0258   20.4652 C   0  0  0  0  0  0
  -22.7243  -10.2135   20.3062 C   0  0  0  0  0  0
  -21.6853   -6.0734   22.5277 C   0  0  0  0  0  0
  -21.4015   -6.5637   23.8211 C   0  0  0  0  0  0
  -21.3660   -5.6790   24.9173 C   0  0  0  0  0  0
  -21.6043   -4.3053   24.7225 C   0  0  0  0  0  0
  -21.8819   -3.8146   23.4346 C   0  0  0  0  0  0
  -21.9193   -4.6962   22.3401 C   0  0  0  0  0  0
  -22.7829  -13.5221   21.1882 C   0  0  0  0  0  0
  -22.1661   -4.2148   21.0980 F   0  0  0  0  0  0
  -21.5628   -3.4537   25.7737 F   0  0  0  0  0  0
  -29.9716  -13.6161   20.4026 N   0  0  0  0  0  0
  -26.2927  -12.9387   20.3242 N   0  0  0  0  0  0
  -25.9325  -11.6532   20.5730 N   0  0  0  0  0  0
  -22.0469  -12.8221   22.0440 N   0  0  0  0  0  0
  -25.4172  -15.1898   20.4041 N   0  0  0  0  0  0
  -31.7019  -15.0420   20.1227 O   0  0  0  0  0  0
  -21.6639   -6.8879   21.4241 O   0  0  0  0  0  0
  -22.3522  -14.5525   20.6717 O   0  0  0  0  0  0
  -24.6416  -31.8463   23.1901 C   0  0  0  0  0  0
  -25.9197  -32.4707   23.8283 C   0  0  1  0  0  0
  -27.2219  -27.1606   20.1448 C   0  0  0  0  0  0
  -25.5953  -33.8512   24.2201 N   0  0  0  0  0  0
  -23.4438  -30.4665   21.5353 C   0  0  2  0  0  0
  -24.8936  -28.8979   20.1105 C   0  0  0  0  0  0
  -22.7555  -29.4558   22.4865 C   0  0  0  0  0  0
  -18.0304  -28.1391   22.8477 C   0  0  0  0  0  0
  -24.1492  -36.7260   23.2641 C   0  0  0  0  0  0
  -25.9987  -30.7278   21.3853 C   0  0  0  0  0  0
  -26.0710  -29.3418   20.7256 C   0  0  0  0  0  0
  -27.2364  -28.4899   20.7246 C   0  0  0  0  0  0
  -26.0155  -26.8127   19.4952 C   0  0  0  0  0  0
  -24.8775  -27.6455   19.4806 C   0  0  0  0  0  0
  -23.6693  -29.7976   20.1539 C   0  0  0  0  0  0
  -25.4122  -36.3036   24.0317 C   0  0  1  0  0  0
  -20.5915  -28.3717   23.1237 C   0  0  2  0  0  0
  -20.6787  -26.9421   22.5404 C   0  0  0  0  0  0
  -19.5761  -26.6377   21.5210 C   0  0  0  0  0  0
  -18.1944  -26.7930   22.1624 C   0  0  0  0  0  0
  -19.1560  -28.8872   23.2851 C   0  0  0  0  0  0
  -18.9478  -30.1467   23.8877 C   0  0  0  0  0  0
  -17.6476  -30.6589   24.0557 C   0  0  0  0  0  0
  -25.9072  -34.9412   23.5066 C   0  0  0  0  0  0
  -16.5367  -29.9082   23.6333 C   0  0  0  0  0  0
  -16.7289  -28.6500   23.0355 C   0  0  0  0  0  0
  -26.4524  -31.6568   25.0717 C   0  0  0  0  0  0
  -25.3717  -31.3758   26.1419 C   0  0  0  0  0  0
  -27.0383  -30.2964   24.6289 C   0  0  0  0  0  0
  -27.6059  -32.4328   25.7500 C   0  0  0  0  0  0
  -27.5578  -37.1780   24.8461 C   0  0  0  0  0  0
  -21.4250  -29.3046   22.3610 N   0  0  0  0  0  0
  -26.4283  -37.3750   23.9413 N   0  0  0  0  0  0
  -24.7143  -31.0341   22.0921 N   0  0  0  0  0  0
  -23.4207  -28.8101   23.3005 O   0  0  0  0  0  0
  -28.2844  -26.1912   20.2110 O   0  0  0  0  0  0
  -26.5656  -34.8907   22.4643 O   0  0  0  0  0  0
  -23.5540  -32.1327   23.7135 O   0  0  0  0  0  0
  -30.5255  -18.5107   20.3632 C   0  0  0  0  0  0
  -30.2336  -19.9479   20.2963 C   0  0  0  0  0  0
  -28.2226  -18.0759   20.6189 C   0  0  0  0  0  0
  -29.5224  -17.4880   20.5312 C   0  0  0  0  0  0
  -28.9098  -20.5172   20.3744 C   0  0  0  0  0  0
  -27.9276  -19.4845   20.5382 C   0  0  0  0  0  0
  -29.0151  -23.3640   20.3352 C   0  0  0  0  0  0
  -27.9929  -24.6748   20.0881 C   0  0  0  0  0  0
  -29.6250  -15.9675   20.6597 N   0  0  0  0  0  0
  -28.4402  -21.9256   20.2801 N   0  0  0  0  0  0
  -26.2620  -19.9432   20.6484 Cl  0  0  0  0  0  0
  -31.4865  -12.7219   19.1752 H   0  0  0  0  0  0
  -30.4517  -11.5818   19.9885 H   0  0  0  0  0  0
  -29.8326  -11.7437   17.5562 H   0  0  0  0  0  0
  -29.6235  -13.4703   17.7034 H   0  0  0  0  0  0
  -27.9343  -11.2777   18.9428 H   0  0  0  0  0  0
  -27.3954  -12.4867   17.8069 H   0  0  0  0  0  0
  -27.6195  -14.2478   19.4452 H   0  0  0  0  0  0
  -28.7578  -12.2023   21.4153 H   0  0  0  0  0  0
  -28.3922  -13.8634   21.7993 H   0  0  0  0  0  0
  -25.2767   -9.5679   22.4760 H   0  0  0  0  0  0
  -24.0004   -7.4631   22.7469 H   0  0  0  0  0  0
  -21.0840   -8.8781   19.8957 H   0  0  0  0  0  0
  -22.3701  -10.9678   19.6175 H   0  0  0  0  0  0
  -21.2006   -7.6145   23.9714 H   0  0  0  0  0  0
  -21.1482   -6.0521   25.9077 H   0  0  0  0  0  0
  -22.0597   -2.7608   23.2846 H   0  0  0  0  0  0
  -22.4088  -11.9891   22.4842 H   0  0  0  0  0  0
  -21.1087  -13.1248   22.2641 H   0  0  0  0  0  0
  -24.6322  -15.8272   20.4838 H   0  0  0  0  0  0
  -26.2195  -15.6076   19.9538 H   0  0  0  0  0  0
  -26.7265  -32.5321   23.1017 H   0  0  0  0  0  0
  -25.0072  -33.9630   25.0329 H   0  0  0  0  0  0
  -22.7452  -31.2916   21.3824 H   0  0  0  0  0  0
  -23.3761  -35.9583   23.3284 H   0  0  0  0  0  0
  -24.3582  -36.8912   22.2060 H   0  0  0  0  0  0
  -23.7240  -37.6448   23.6691 H   0  0  0  0  0  0
  -26.1525  -31.4843   20.6145 H   0  0  0  0  0  0
  -26.8699  -30.7763   22.0270 H   0  0  0  0  0  0
  -28.1340  -28.8263   21.2241 H   0  0  0  0  0  0
  -25.9136  -25.8570   19.0054 H   0  0  0  0  0  0
  -23.9784  -27.3001   18.9888 H   0  0  0  0  0  0
  -23.8043  -30.5732   19.3989 H   0  0  0  0  0  0
  -22.7848  -29.2389   19.8434 H   0  0  0  0  0  0
  -25.1306  -36.1862   25.0808 H   0  0  0  0  0  0
  -21.0008  -28.3309   24.1357 H   0  0  0  0  0  0
  -20.5672  -26.2333   23.3624 H   0  0  0  0  0  0
  -21.6656  -26.7420   22.1208 H   0  0  0  0  0  0
  -19.6920  -25.6280   21.1258 H   0  0  0  0  0  0
  -19.6695  -27.3172   20.6728 H   0  0  0  0  0  0
  -17.4208  -26.6667   21.4034 H   0  0  0  0  0  0
  -18.0347  -26.0080   22.9029 H   0  0  0  0  0  0
  -19.7955  -30.7286   24.2239 H   0  0  0  0  0  0
  -17.5030  -31.6269   24.5160 H   0  0  0  0  0  0
  -15.5366  -30.2978   23.7667 H   0  0  0  0  0  0
  -15.8690  -28.0810   22.7083 H   0  0  0  0  0  0
  -24.5886  -30.7118   25.7741 H   0  0  0  0  0  0
  -24.8920  -32.2942   26.4811 H   0  0  0  0  0  0
  -25.8001  -30.8946   27.0220 H   0  0  0  0  0  0
  -26.2995  -29.6692   24.1288 H   0  0  0  0  0  0
  -27.3989  -29.7259   25.4860 H   0  0  0  0  0  0
  -27.8907  -30.4200   23.9606 H   0  0  0  0  0  0
  -27.2655  -33.3641   26.2039 H   0  0  0  0  0  0
  -28.3891  -32.6869   25.0344 H   0  0  0  0  0  0
  -28.0707  -31.8481   26.5450 H   0  0  0  0  0  0
  -28.2576  -38.0096   24.7529 H   0  0  0  0  0  0
  -28.1093  -36.2628   24.6255 H   0  0  0  0  0  0
  -27.2303  -37.1392   25.8865 H   0  0  0  0  0  0
  -20.9452  -29.8765   21.6799 H   0  0  0  0  0  0
  -26.0149  -38.2814   24.1434 H   0  0  0  0  0  0
  -31.5589  -18.2024   20.2897 H   0  0  0  0  0  0
  -31.0674  -20.6227   20.1667 H   0  0  0  0  0  0
  -27.3781  -17.4175   20.7552 H   0  0  0  0  0  0
  -29.4793  -23.4821   21.3151 H   0  0  0  0  0  0
  -29.8335  -23.4246   19.6169 H   0  0  0  0  0  0
  -27.1363  -24.5017   20.7407 H   0  0  0  0  0  0
  -27.6157  -24.5342   19.0754 H   0  0  0  0  0  0
  -28.7328  -15.5646   20.9001 H   0  0  0  0  0  0
  -27.4221  -21.9456   20.2974 H   0  0  0  0  0  0
  1 25  1  0  0  0
  1 30  2  0  0  0
  1 79  1  0  0  0
  2  3  1  0  0  0
  2 25  1  0  0  0
  2 82  1  0  0  0
  2 83  1  0  0  0
  3  4  1  0  0  0
  3 84  1  0  0  0
  3 85  1  0  0  0
  4  5  1  0  0  0
  4 86  1  0  0  0
  4 87  1  0  0  0
  5  6  1  0  0  0
  5 26  1  0  0  0
  5 88  1  0  0  0
  6 25  1  0  0  0
  6 89  1  0  0  0
  6 90  1  0  0  0
  7  8  2  0  0  0
  7 26  1  0  0  0
  7 29  1  0  0  0
  8  9  1  0  0  0
  8 22  1  0  0  0
  9 10  1  0  0  0
  9 27  2  0  0  0
 10 11  2  0  0  0
 10 15  1  0  0  0
 11 12  1  0  0  0
 11 91  1  0  0  0
 12 13  2  0  0  0
 12 92  1  0  0  0
 13 14  1  0  0  0
 13 31  1  0  0  0
 14 15  2  0  0  0
 14 93  1  0  0  0
 15 94  1  0  0  0
 16 17  2  0  0  0
 16 21  1  0  0  0
 16 31  1  0  0  0
 17 18  1  0  0  0
 17 95  1  0  0  0
 18 19  2  0  0  0
 18 96  1  0  0  0
 19 20  1  0  0  0
 19 24  1  0  0  0
 20 21  2  0  0  0
 20 97  1  0  0  0
 21 23  1  0  0  0
 22 28  1  0  0  0
 22 32  2  0  0  0
 26 27  1  0  0  0
 28 98  1  0  0  0
 28 99  1  0  0  0
 29100  1  0  0  0
 29101  1  0  0  0
 33 34  1  0  0  0
 33 66  1  0  0  0
 33 70  2  0  0  0
 34 36  1  0  0  0
 34 59  1  0  0  0
 34102  1  0  0  0
 35 44  2  0  0  0
 35 45  1  0  0  0
 35 68  1  0  0  0
 36 56  1  0  0  0
 36103  1  0  0  0
 37 39  1  0  0  0
 37 47  1  0  0  0
 37 66  1  0  0  0
 37104  1  0  0  0
 38 43  2  0  0  0
 38 46  1  0  0  0
 38 47  1  0  0  0
 39 64  1  0  0  0
 39 67  2  0  0  0
 40 52  1  0  0  0
 40 53  2  0  0  0
 40 58  1  0  0  0
 41105  1  0  0  0
 41106  1  0  0  0
 41107  1  0  0  0
 41 48  1  0  0  0
 42 43  1  0  0  0
 42 66  1  0  0  0
 42108  1  0  0  0
 42109  1  0  0  0
 43 44  1  0  0  0
 44110  1  0  0  0
 45 46  2  0  0  0
 45111  1  0  0  0
 46112  1  0  0  0
 47113  1  0  0  0
 47114  1  0  0  0
 48 56  1  0  0  0
 48 65  1  0  0  0
 48115  1  0  0  0
 49 50  1  0  0  0
 49 53  1  0  0  0
 49 64  1  0  0  0
 49116  1  0  0  0
 50 51  1  0  0  0
 50117  1  0  0  0
 50118  1  0  0  0
 51 52  1  0  0  0
 51119  1  0  0  0
 51120  1  0  0  0
 52121  1  0  0  0
 52122  1  0  0  0
 53 54  1  0  0  0
 54 55  2  0  0  0
 54123  1  0  0  0
 55 57  1  0  0  0
 55124  1  0  0  0
 56 69  2  0  0  0
 57 58  2  0  0  0
 57125  1  0  0  0
 58126  1  0  0  0
 59 60  1  0  0  0
 59 61  1  0  0  0
 59 62  1  0  0  0
 60127  1  0  0  0
 60128  1  0  0  0
 60129  1  0  0  0
 61130  1  0  0  0
 61131  1  0  0  0
 61132  1  0  0  0
 62133  1  0  0  0
 62134  1  0  0  0
 62135  1  0  0  0
 63 65  1  0  0  0
 63136  1  0  0  0
 63137  1  0  0  0
 63138  1  0  0  0
 64139  1  0  0  0
 65140  1  0  0  0
 68 78  1  0  0  0
 71 72  2  0  0  0
 71 74  1  0  0  0
 71141  1  0  0  0
 72 75  1  0  0  0
 72142  1  0  0  0
 73 74  2  0  0  0
 73 76  1  0  0  0
 73143  1  0  0  0
 74 79  1  0  0  0
 75 76  2  0  0  0
 75 80  1  0  0  0
 76 81  1  0  0  0
 77 78  1  0  0  0
 77 80  1  0  0  0
 77144  1  0  0  0
 77145  1  0  0  0
 78146  1  0  0  0
 78147  1  0  0  0
 79148  1  0  0  0
 80149  1  0  0  0
M  ISO  4   1 100  68 101  78 101  79 100
M  END
> <chiral flag>
0

> <version>
0

> <s_m_source_file>
/data/baiqing/PycharmProjects/Reinvent-master-3.2/result/LINK_invent/BTK/process_docking_weight1_custom_sum_contain_oxygen_bond_distance_aromatic_linkinvent_7_9_3/rearranged_h_0009.sdf

> <i_m_source_file_index>
35

> <r_mmod_Potential_Energy-OPLS-2005>
434.757629394531

> <r_mmod_Stretch_Energy-OPLS-2005>
203.795028686523

> <r_mmod_Bend_Energy-OPLS-2005>
289.144775390625

> <r_mmod_Torsional_Energy-OPLS-2005>
203.676208496094

> <r_mmod_Improper_Torsional_Energy-OPLS-2005>
5.00387287139893

> <r_mmod_Van_der_Waal_Energy-OPLS-2005>
132.333953857422

> <r_mmod_Electrostatic_Energy-OPLS-2005>
-346.195495605469

> <r_mmod_Solvation_Energy-OPLS-2005>
-217.362655639648

> <b_mmod_Minimization_Converged-OPLS-2005>
0

> <r_mmod_RMS_Derivative-OPLS-2005>
0.520153820514679

$$$$
36
                    3D
 Structure written by MMmdl.
154162  0  0  1  0            999 V2000
  -30.6261  -14.6508   20.4881 C   0  0  0  0  0  0
  -30.4378  -12.3971   19.4538 C   0  0  0  0  0  0
  -29.5069  -12.5027   18.2250 C   0  0  0  0  0  0
  -28.0298  -12.3445   18.6371 C   0  0  0  0  0  0
  -27.6525  -13.2191   19.8623 C   0  0  2  0  0  0
  -28.6989  -13.0836   20.9920 C   0  0  0  0  0  0
  -25.2533  -13.8147   20.5631 C   0  0  0  0  0  0
  -24.1827  -13.0420   20.9204 C   0  0  0  0  0  0
  -24.6408  -11.6899   20.8767 C   0  0  0  0  0  0
  -23.9075  -10.4284   21.0422 C   0  0  0  0  0  0
  -24.3624   -9.4195   21.9195 C   0  0  0  0  0  0
  -23.6296   -8.2231   22.0755 C   0  0  0  0  0  0
  -22.4278   -8.0276   21.3542 C   0  0  0  0  0  0
  -21.9918   -9.0253   20.4647 C   0  0  0  0  0  0
  -22.7250  -10.2130   20.3065 C   0  0  0  0  0  0
  -21.6850   -6.0738   22.5279 C   0  0  0  0  0  0
  -21.4010   -6.5642   23.8213 C   0  0  0  0  0  0
  -21.3657   -5.6793   24.9176 C   0  0  0  0  0  0
  -21.6045   -4.3055   24.7225 C   0  0  0  0  0  0
  -21.8821   -3.8150   23.4345 C   0  0  0  0  0  0
  -21.9194   -4.6967   22.3403 C   0  0  0  0  0  0
  -22.7849  -13.5211   21.1863 C   0  0  0  0  0  0
  -22.1663   -4.2153   21.0979 F   0  0  0  0  0  0
  -21.5632   -3.4539   25.7738 F   0  0  0  0  0  0
  -30.0133  -13.4250   20.4258 N   0  0  0  0  0  0
  -26.2986  -12.9350   20.3315 N   0  0  0  0  0  0
  -25.9340  -11.6506   20.5790 N   0  0  0  0  0  0
  -22.0497  -12.8203   22.0427 N   0  0  0  0  0  0
  -25.4177  -15.1843   20.3876 N   0  0  0  0  0  0
  -31.7919  -14.7959   20.1106 O   0  0  0  0  0  0
  -21.6637   -6.8878   21.4239 O   0  0  0  0  0  0
  -22.3534  -14.5522   20.6716 O   0  0  0  0  0  0
  -24.6274  -31.8592   23.2045 C   0  0  0  0  0  0
  -25.9114  -32.4778   23.8371 C   0  0  1  0  0  0
  -27.2243  -27.3165   20.1077 C   0  0  0  0  0  0
  -25.5926  -33.8578   24.2296 N   0  0  0  0  0  0
  -23.4213  -30.4853   21.5465 C   0  0  2  0  0  0
  -24.8666  -28.9434   20.1101 C   0  0  0  0  0  0
  -22.7483  -29.4626   22.4930 C   0  0  0  0  0  0
  -18.0287  -28.1393   22.8499 C   0  0  0  0  0  0
  -24.1481  -36.7286   23.2639 C   0  0  0  0  0  0
  -25.9633  -30.7899   21.3758 C   0  0  0  0  0  0
  -26.0373  -29.4180   20.7150 C   0  0  0  0  0  0
  -27.2189  -28.6167   20.7047 C   0  0  0  0  0  0
  -26.0258  -26.8989   19.4808 C   0  0  0  0  0  0
  -24.8634  -27.6889   19.4846 C   0  0  0  0  0  0
  -23.6355  -29.8247   20.1604 C   0  0  0  0  0  0
  -25.4108  -36.3079   24.0334 C   0  0  1  0  0  0
  -20.5893  -28.3690   23.1285 C   0  0  2  0  0  0
  -20.6775  -26.9412   22.5410 C   0  0  0  0  0  0
  -19.5743  -26.6389   21.5217 C   0  0  0  0  0  0
  -18.1925  -26.7944   22.1630 C   0  0  0  0  0  0
  -19.1546  -28.8860   23.2889 C   0  0  0  0  0  0
  -18.9467  -30.1467   23.8897 C   0  0  0  0  0  0
  -17.6468  -30.6598   24.0571 C   0  0  0  0  0  0
  -25.9042  -34.9451   23.5112 C   0  0  0  0  0  0
  -16.5356  -29.9101   23.6341 C   0  0  0  0  0  0
  -16.7275  -28.6518   23.0361 C   0  0  0  0  0  0
  -26.4500  -31.6588   25.0737 C   0  0  0  0  0  0
  -25.3744  -31.3738   26.1471 C   0  0  0  0  0  0
  -27.0332  -30.3011   24.6191 C   0  0  0  0  0  0
  -27.6062  -32.4319   25.7506 C   0  0  0  0  0  0
  -27.5574  -37.1800   24.8471 C   0  0  0  0  0  0
  -21.4191  -29.3047   22.3679 N   0  0  0  0  0  0
  -26.4282  -37.3778   23.9416 N   0  0  0  0  0  0
  -24.6896  -31.0615   22.0989 N   0  0  0  0  0  0
  -23.4209  -28.8152   23.2999 O   0  0  0  0  0  0
  -28.3394  -26.4599   20.1512 O   0  0  0  0  0  0
  -26.5603  -34.8919   22.4675 O   0  0  0  0  0  0
  -23.5437  -32.1371   23.7380 O   0  0  0  0  0  0
  -28.9812  -19.4628   21.0154 C   0  0  0  0  0  0
  -31.0074  -17.8194   19.9926 C   0  0  0  0  0  0
  -28.9237  -18.0402   21.1782 C   0  0  0  0  0  0
  -30.0588  -20.1046   20.3579 C   0  0  0  0  0  0
  -29.9402  -17.1691   20.6684 C   0  0  0  0  0  0
  -31.0685  -19.2371   19.8509 C   0  0  0  0  0  0
  -29.2995  -24.0329   20.2742 C   0  0  0  0  0  0
  -27.7320  -17.4789   21.9351 C   0  0  0  0  0  0
  -30.2635  -21.6679   20.2899 C   0  0  0  0  0  0
  -28.0955  -25.0044   19.9670 C   0  0  0  0  0  0
  -29.8244  -15.7105   20.8358 N   0  0  0  0  0  0
  -29.1424  -22.6677   20.2000 N   0  0  0  0  0  0
  -30.3963  -24.5236   20.5534 O   0  0  0  0  0  0
  -32.1451  -19.7704   19.2243 F   0  0  0  0  0  0
  -31.4781  -12.5215   19.1487 H   0  0  0  0  0  0
  -30.3751  -11.4047   19.9020 H   0  0  0  0  0  0
  -29.7695  -11.7435   17.4867 H   0  0  0  0  0  0
  -29.6495  -13.4673   17.7349 H   0  0  0  0  0  0
  -27.8653  -11.2925   18.8720 H   0  0  0  0  0  0
  -27.3753  -12.5720   17.7946 H   0  0  0  0  0  0
  -27.6675  -14.2531   19.5176 H   0  0  0  0  0  0
  -28.7122  -12.0647   21.3818 H   0  0  0  0  0  0
  -28.4445  -13.7226   21.8388 H   0  0  0  0  0  0
  -25.2767   -9.5665   22.4771 H   0  0  0  0  0  0
  -24.0006   -7.4617   22.7467 H   0  0  0  0  0  0
  -21.0852   -8.8776   19.8946 H   0  0  0  0  0  0
  -22.3716  -10.9674   19.6176 H   0  0  0  0  0  0
  -21.1997   -7.6149   23.9716 H   0  0  0  0  0  0
  -21.1476   -6.0523   25.9077 H   0  0  0  0  0  0
  -22.0601   -2.7613   23.2844 H   0  0  0  0  0  0
  -22.4116  -11.9866   22.4814 H   0  0  0  0  0  0
  -21.1114  -13.1223   22.2634 H   0  0  0  0  0  0
  -24.6299  -15.8200   20.4436 H   0  0  0  0  0  0
  -26.2333  -15.6017   19.9589 H   0  0  0  0  0  0
  -26.7184  -32.5446   23.1123 H   0  0  0  0  0  0
  -25.0099  -33.9730   25.0458 H   0  0  0  0  0  0
  -22.7156  -31.3071   21.4072 H   0  0  0  0  0  0
  -23.3744  -35.9616   23.3299 H   0  0  0  0  0  0
  -24.3575  -36.8902   22.2054 H   0  0  0  0  0  0
  -23.7232  -37.6492   23.6659 H   0  0  0  0  0  0
  -26.0980  -31.5559   20.6110 H   0  0  0  0  0  0
  -26.8431  -30.8359   22.0058 H   0  0  0  0  0  0
  -28.1173  -28.9770   21.1867 H   0  0  0  0  0  0
  -25.9518  -25.9443   18.9826 H   0  0  0  0  0  0
  -23.9675  -27.3204   19.0032 H   0  0  0  0  0  0
  -23.7557  -30.6042   19.4064 H   0  0  0  0  0  0
  -22.7541  -29.2564   19.8568 H   0  0  0  0  0  0
  -25.1288  -36.1924   25.0826 H   0  0  0  0  0  0
  -20.9997  -28.3256   24.1399 H   0  0  0  0  0  0
  -20.5678  -26.2295   23.3608 H   0  0  0  0  0  0
  -21.6641  -26.7437   22.1196 H   0  0  0  0  0  0
  -19.6893  -25.6301   21.1244 H   0  0  0  0  0  0
  -19.6684  -27.3204   20.6756 H   0  0  0  0  0  0
  -17.4196  -26.6699   21.4031 H   0  0  0  0  0  0
  -18.0313  -26.0091   22.9029 H   0  0  0  0  0  0
  -19.7939  -30.7291   24.2254 H   0  0  0  0  0  0
  -17.5021  -31.6279   24.5171 H   0  0  0  0  0  0
  -15.5357  -30.3002   23.7673 H   0  0  0  0  0  0
  -15.8670  -28.0843   22.7071 H   0  0  0  0  0  0
  -24.5923  -30.7068   25.7822 H   0  0  0  0  0  0
  -24.8928  -32.2905   26.4884 H   0  0  0  0  0  0
  -25.8077  -30.8942   27.0253 H   0  0  0  0  0  0
  -26.2899  -29.6769   24.1216 H   0  0  0  0  0  0
  -27.4027  -29.7265   25.4693 H   0  0  0  0  0  0
  -27.8774  -30.4300   23.9416 H   0  0  0  0  0  0
  -27.2688  -33.3643   26.2047 H   0  0  0  0  0  0
  -28.3895  -32.6825   25.0339 H   0  0  0  0  0  0
  -28.0693  -31.8453   26.5451 H   0  0  0  0  0  0
  -28.2595  -38.0093   24.7506 H   0  0  0  0  0  0
  -28.1060  -36.2623   24.6302 H   0  0  0  0  0  0
  -27.2293  -37.1459   25.8875 H   0  0  0  0  0  0
  -20.9354  -29.8795   21.6918 H   0  0  0  0  0  0
  -26.0156  -38.2844   24.1430 H   0  0  0  0  0  0
  -28.1964  -20.0756   21.4367 H   0  0  0  0  0  0
  -31.8164  -17.2412   19.5737 H   0  0  0  0  0  0
  -27.4125  -18.1732   22.7125 H   0  0  0  0  0  0
  -27.9494  -16.5308   22.4261 H   0  0  0  0  0  0
  -26.8941  -17.3348   21.2547 H   0  0  0  0  0  0
  -30.9190  -21.8738   19.4427 H   0  0  0  0  0  0
  -30.8537  -21.9232   21.1714 H   0  0  0  0  0  0
  -27.2594  -24.6923   20.5947 H   0  0  0  0  0  0
  -27.8132  -24.8188   18.9304 H   0  0  0  0  0  0
  -28.9315  -15.4079   21.1919 H   0  0  0  0  0  0
  -28.2259  -22.3144   19.9603 H   0  0  0  0  0  0
  1 25  1  0  0  0
  1 30  2  0  0  0
  1 81  1  0  0  0
  2  3  1  0  0  0
  2 25  1  0  0  0
  2 85  1  0  0  0
  2 86  1  0  0  0
  3  4  1  0  0  0
  3 87  1  0  0  0
  3 88  1  0  0  0
  4  5  1  0  0  0
  4 89  1  0  0  0
  4 90  1  0  0  0
  5  6  1  0  0  0
  5 26  1  0  0  0
  5 91  1  0  0  0
  6 25  1  0  0  0
  6 92  1  0  0  0
  6 93  1  0  0  0
  7  8  2  0  0  0
  7 26  1  0  0  0
  7 29  1  0  0  0
  8  9  1  0  0  0
  8 22  1  0  0  0
  9 10  1  0  0  0
  9 27  2  0  0  0
 10 11  2  0  0  0
 10 15  1  0  0  0
 11 12  1  0  0  0
 11 94  1  0  0  0
 12 13  2  0  0  0
 12 95  1  0  0  0
 13 14  1  0  0  0
 13 31  1  0  0  0
 14 15  2  0  0  0
 14 96  1  0  0  0
 15 97  1  0  0  0
 16 17  2  0  0  0
 16 21  1  0  0  0
 16 31  1  0  0  0
 17 18  1  0  0  0
 17 98  1  0  0  0
 18 19  2  0  0  0
 18 99  1  0  0  0
 19 20  1  0  0  0
 19 24  1  0  0  0
 20 21  2  0  0  0
 20100  1  0  0  0
 21 23  1  0  0  0
 22 28  1  0  0  0
 22 32  2  0  0  0
 26 27  1  0  0  0
 28101  1  0  0  0
 28102  1  0  0  0
 29103  1  0  0  0
 29104  1  0  0  0
 33 34  1  0  0  0
 33 66  1  0  0  0
 33 70  2  0  0  0
 34 36  1  0  0  0
 34 59  1  0  0  0
 34105  1  0  0  0
 35 44  2  0  0  0
 35 45  1  0  0  0
 35 68  1  0  0  0
 36 56  1  0  0  0
 36106  1  0  0  0
 37 39  1  0  0  0
 37 47  1  0  0  0
 37 66  1  0  0  0
 37107  1  0  0  0
 38 43  2  0  0  0
 38 46  1  0  0  0
 38 47  1  0  0  0
 39 64  1  0  0  0
 39 67  2  0  0  0
 40 52  1  0  0  0
 40 53  2  0  0  0
 40 58  1  0  0  0
 41108  1  0  0  0
 41109  1  0  0  0
 41110  1  0  0  0
 41 48  1  0  0  0
 42 43  1  0  0  0
 42 66  1  0  0  0
 42111  1  0  0  0
 42112  1  0  0  0
 43 44  1  0  0  0
 44113  1  0  0  0
 45 46  2  0  0  0
 45114  1  0  0  0
 46115  1  0  0  0
 47116  1  0  0  0
 47117  1  0  0  0
 48 56  1  0  0  0
 48 65  1  0  0  0
 48118  1  0  0  0
 49 50  1  0  0  0
 49 53  1  0  0  0
 49 64  1  0  0  0
 49119  1  0  0  0
 50 51  1  0  0  0
 50120  1  0  0  0
 50121  1  0  0  0
 51 52  1  0  0  0
 51122  1  0  0  0
 51123  1  0  0  0
 52124  1  0  0  0
 52125  1  0  0  0
 53 54  1  0  0  0
 54 55  2  0  0  0
 54126  1  0  0  0
 55 57  1  0  0  0
 55127  1  0  0  0
 56 69  2  0  0  0
 57 58  2  0  0  0
 57128  1  0  0  0
 58129  1  0  0  0
 59 60  1  0  0  0
 59 61  1  0  0  0
 59 62  1  0  0  0
 60130  1  0  0  0
 60131  1  0  0  0
 60132  1  0  0  0
 61133  1  0  0  0
 61134  1  0  0  0
 61135  1  0  0  0
 62136  1  0  0  0
 62137  1  0  0  0
 62138  1  0  0  0
 63 65  1  0  0  0
 63139  1  0  0  0
 63140  1  0  0  0
 63141  1  0  0  0
 64142  1  0  0  0
 65143  1  0  0  0
 68 80  1  0  0  0
 71 73  2  0  0  0
 71 74  1  0  0  0
 71144  1  0  0  0
 72 75  2  0  0  0
 72 76  1  0  0  0
 72145  1  0  0  0
 73 75  1  0  0  0
 73 78  1  0  0  0
 74 76  2  0  0  0
 74 79  1  0  0  0
 75 81  1  0  0  0
 76 84  1  0  0  0
 77 80  1  0  0  0
 77 82  1  0  0  0
 77 83  2  0  0  0
 78146  1  0  0  0
 78147  1  0  0  0
 78148  1  0  0  0
 79 82  1  0  0  0
 79149  1  0  0  0
 79150  1  0  0  0
 80151  1  0  0  0
 80152  1  0  0  0
 81153  1  0  0  0
 82154  1  0  0  0
M  ISO  4   1 100  68 101  80 101  81 100
M  END
> <chiral flag>
0

> <version>
0

> <s_m_source_file>
/data/baiqing/PycharmProjects/Reinvent-master-3.2/result/LINK_invent/BTK/process_docking_weight1_custom_sum_contain_oxygen_bond_distance_aromatic_linkinvent_7_9_3/rearranged_h_0009.sdf

> <i_m_source_file_index>
36

> <r_mmod_Potential_Energy-OPLS-2005>
-11.3325729370117

> <r_mmod_Stretch_Energy-OPLS-2005>
82.6859817504883

> <r_mmod_Bend_Energy-OPLS-2005>
139.713302612305

> <r_mmod_Torsional_Energy-OPLS-2005>
209.088302612305

> <r_mmod_Improper_Torsional_Energy-OPLS-2005>
5.04839086532593

> <r_mmod_Van_der_Waal_Energy-OPLS-2005>
147.401000976562

> <r_mmod_Electrostatic_Energy-OPLS-2005>
-402.110290527344

> <r_mmod_Solvation_Energy-OPLS-2005>
-244.133666992188

> <b_mmod_Minimization_Converged-OPLS-2005>
0

> <r_mmod_RMS_Derivative-OPLS-2005>
1.14509701728821

$$$$
37
                    3D
 Structure written by MMmdl.
155163  0  0  1  0            999 V2000
  -30.5143  -14.9234   20.4466 C   0  0  0  0  0  0
  -30.4524  -12.5715   19.4960 C   0  0  0  0  0  0
  -29.5299  -12.5431   18.2532 C   0  0  0  0  0  0
  -28.0594  -12.3292   18.6655 C   0  0  0  0  0  0
  -27.6400  -13.2420   19.8479 C   0  0  2  0  0  0
  -28.6814  -13.2233   20.9882 C   0  0  0  0  0  0
  -25.2512  -13.8212   20.5692 C   0  0  0  0  0  0
  -24.1814  -13.0447   20.9208 C   0  0  0  0  0  0
  -24.6420  -11.6926   20.8744 C   0  0  0  0  0  0
  -23.9103  -10.4299   21.0410 C   0  0  0  0  0  0
  -24.3646   -9.4212   21.9188 C   0  0  0  0  0  0
  -23.6314   -8.2250   22.0758 C   0  0  0  0  0  0
  -22.4293   -8.0297   21.3549 C   0  0  0  0  0  0
  -21.9933   -9.0275   20.4652 C   0  0  0  0  0  0
  -22.7275  -10.2146   20.3065 C   0  0  0  0  0  0
  -21.6856   -6.0752   22.5284 C   0  0  0  0  0  0
  -21.4015   -6.5649   23.8222 C   0  0  0  0  0  0
  -21.3654   -5.6794   24.9175 C   0  0  0  0  0  0
  -21.6041   -4.3059   24.7221 C   0  0  0  0  0  0
  -21.8817   -3.8157   23.4339 C   0  0  0  0  0  0
  -21.9193   -4.6979   22.3396 C   0  0  0  0  0  0
  -22.7833  -13.5226   21.1860 C   0  0  0  0  0  0
  -22.1661   -4.2166   21.0976 F   0  0  0  0  0  0
  -21.5627   -3.4536   25.7729 F   0  0  0  0  0  0
  -29.9631  -13.6450   20.4061 N   0  0  0  0  0  0
  -26.2943  -12.9432   20.3258 N   0  0  0  0  0  0
  -25.9356  -11.6564   20.5732 N   0  0  0  0  0  0
  -22.0475  -12.8221   22.0417 N   0  0  0  0  0  0
  -25.4176  -15.1942   20.4086 N   0  0  0  0  0  0
  -31.7007  -15.0505   20.1216 O   0  0  0  0  0  0
  -21.6646   -6.8900   21.4251 O   0  0  0  0  0  0
  -22.3516  -14.5530   20.6698 O   0  0  0  0  0  0
  -24.6422  -31.8442   23.1886 C   0  0  0  0  0  0
  -25.9200  -32.4694   23.8272 C   0  0  1  0  0  0
  -27.2219  -27.1465   20.1630 C   0  0  0  0  0  0
  -25.5952  -33.8498   24.2196 N   0  0  0  0  0  0
  -23.4457  -30.4638   21.5331 C   0  0  2  0  0  0
  -24.8978  -28.8878   20.1157 C   0  0  0  0  0  0
  -22.7553  -29.4555   22.4855 C   0  0  0  0  0  0
  -18.0301  -28.1391   22.8487 C   0  0  0  0  0  0
  -24.1491  -36.7259   23.2644 C   0  0  0  0  0  0
  -26.0011  -30.7224   21.3868 C   0  0  0  0  0  0
  -26.0740  -29.3329   20.7323 C   0  0  0  0  0  0
  -27.2392  -28.4787   20.7368 C   0  0  0  0  0  0
  -26.0232  -26.7998   19.5041 C   0  0  0  0  0  0
  -24.8840  -27.6336   19.4857 C   0  0  0  0  0  0
  -23.6730  -29.7883   20.1545 C   0  0  0  0  0  0
  -25.4120  -36.3031   24.0320 C   0  0  1  0  0  0
  -20.5912  -28.3719   23.1236 C   0  0  2  0  0  0
  -20.6787  -26.9421   22.5409 C   0  0  0  0  0  0
  -19.5762  -26.6378   21.5219 C   0  0  0  0  0  0
  -18.1941  -26.7932   22.1627 C   0  0  0  0  0  0
  -19.1558  -28.8871   23.2856 C   0  0  0  0  0  0
  -18.9472  -30.1469   23.8875 C   0  0  0  0  0  0
  -17.6470  -30.6591   24.0558 C   0  0  0  0  0  0
  -25.9070  -34.9405   23.5065 C   0  0  0  0  0  0
  -16.5361  -29.9083   23.6339 C   0  0  0  0  0  0
  -16.7286  -28.6501   23.0363 C   0  0  0  0  0  0
  -26.4526  -31.6555   25.0706 C   0  0  0  0  0  0
  -25.3713  -31.3756   26.1403 C   0  0  0  0  0  0
  -27.0400  -30.2946   24.6297 C   0  0  0  0  0  0
  -27.6047  -32.4326   25.7501 C   0  0  0  0  0  0
  -27.5577  -37.1783   24.8460 C   0  0  0  0  0  0
  -21.4244  -29.3048   22.3602 N   0  0  0  0  0  0
  -26.4284  -37.3743   23.9409 N   0  0  0  0  0  0
  -24.7160  -31.0308   22.0914 N   0  0  0  0  0  0
  -23.4197  -28.8103   23.3005 O   0  0  0  0  0  0
  -28.2834  -26.1743   20.1876 O   0  0  0  0  0  0
  -26.5650  -34.8899   22.4641 O   0  0  0  0  0  0
  -23.5547  -32.1311   23.7117 O   0  0  0  0  0  0
  -29.6858  -18.3482   21.8551 C   0  0  0  0  0  0
  -29.4332  -19.7728   21.8926 C   0  0  0  0  0  0
  -29.2175  -19.8281   19.5519 C   0  0  0  0  0  0
  -29.7055  -17.5560   20.6644 C   0  0  0  0  0  0
  -29.1726  -20.6096   20.7591 C   0  0  0  0  0  0
  -29.4362  -18.3692   19.5009 C   0  0  0  0  0  0
  -28.3778  -17.1850   16.1859 C   0  0  0  0  0  0
  -28.6682  -18.2632   17.2308 C   0  0  0  0  0  0
  -28.0252  -24.6891   20.5788 C   0  0  0  0  0  0
  -28.7943  -23.2652   20.0901 C   0  0  0  0  0  0
  -29.6630  -16.0248   20.7110 N   0  0  0  0  0  0
  -28.8286  -22.0180   20.9872 O   0  0  0  0  0  0
  -29.3369  -17.6539   18.3265 O   0  0  0  0  0  0
  -31.4871  -12.7394   19.1906 H   0  0  0  0  0  0
  -30.4452  -11.6047   20.0021 H   0  0  0  0  0  0
  -29.8475  -11.7596   17.5638 H   0  0  0  0  0  0
  -29.6238  -13.4849   17.7099 H   0  0  0  0  0  0
  -27.9489  -11.2834   18.9532 H   0  0  0  0  0  0
  -27.3991  -12.4814   17.8104 H   0  0  0  0  0  0
  -27.6176  -14.2549   19.4450 H   0  0  0  0  0  0
  -28.7605  -12.2297   21.4314 H   0  0  0  0  0  0
  -28.3819  -13.8914   21.7977 H   0  0  0  0  0  0
  -25.2794   -9.5682   22.4759 H   0  0  0  0  0  0
  -24.0018   -7.4641   22.7480 H   0  0  0  0  0  0
  -21.0861   -8.8808   19.8958 H   0  0  0  0  0  0
  -22.3750  -10.9687   19.6167 H   0  0  0  0  0  0
  -21.2015   -7.6156   23.9730 H   0  0  0  0  0  0
  -21.1473   -6.0521   25.9080 H   0  0  0  0  0  0
  -22.0601   -2.7623   23.2828 H   0  0  0  0  0  0
  -22.4071  -11.9886   22.4827 H   0  0  0  0  0  0
  -21.1093  -13.1257   22.2600 H   0  0  0  0  0  0
  -24.6440  -15.8421   20.5178 H   0  0  0  0  0  0
  -26.2534  -15.6352   20.0483 H   0  0  0  0  0  0
  -26.7261  -32.5314   23.1002 H   0  0  0  0  0  0
  -25.0072  -33.9611   25.0323 H   0  0  0  0  0  0
  -22.7487  -31.2897   21.3765 H   0  0  0  0  0  0
  -23.3754  -35.9591   23.3289 H   0  0  0  0  0  0
  -24.3583  -36.8907   22.2062 H   0  0  0  0  0  0
  -23.7242  -37.6452   23.6686 H   0  0  0  0  0  0
  -26.1533  -31.4760   20.6129 H   0  0  0  0  0  0
  -26.8723  -30.7751   22.0283 H   0  0  0  0  0  0
  -28.1370  -28.8164   21.2352 H   0  0  0  0  0  0
  -25.9510  -25.8433   19.0068 H   0  0  0  0  0  0
  -23.9870  -27.2886   18.9901 H   0  0  0  0  0  0
  -23.8096  -30.5599   19.3963 H   0  0  0  0  0  0
  -22.7890  -29.2277   19.8448 H   0  0  0  0  0  0
  -25.1306  -36.1864   25.0814 H   0  0  0  0  0  0
  -21.0016  -28.3318   24.1352 H   0  0  0  0  0  0
  -20.5692  -26.2327   23.3626 H   0  0  0  0  0  0
  -21.6649  -26.7432   22.1198 H   0  0  0  0  0  0
  -19.6922  -25.6285   21.1254 H   0  0  0  0  0  0
  -19.6701  -27.3179   20.6744 H   0  0  0  0  0  0
  -17.4213  -26.6684   21.4026 H   0  0  0  0  0  0
  -18.0335  -26.0073   22.9020 H   0  0  0  0  0  0
  -19.7947  -30.7294   24.2226 H   0  0  0  0  0  0
  -17.5023  -31.6270   24.5163 H   0  0  0  0  0  0
  -15.5360  -30.2979   23.7671 H   0  0  0  0  0  0
  -15.8687  -28.0815   22.7088 H   0  0  0  0  0  0
  -24.5878  -30.7124   25.7717 H   0  0  0  0  0  0
  -24.8923  -32.2952   26.4774 H   0  0  0  0  0  0
  -25.7991  -30.8950   27.0209 H   0  0  0  0  0  0
  -26.3026  -29.6657   24.1294 H   0  0  0  0  0  0
  -27.3992  -29.7256   25.4882 H   0  0  0  0  0  0
  -27.8939  -30.4166   23.9629 H   0  0  0  0  0  0
  -27.2616  -33.3630   26.2038 H   0  0  0  0  0  0
  -28.3883  -32.6886   25.0358 H   0  0  0  0  0  0
  -28.0686  -31.8484   26.5458 H   0  0  0  0  0  0
  -28.2572  -38.0099   24.7516 H   0  0  0  0  0  0
  -28.1091  -36.2627   24.6268 H   0  0  0  0  0  0
  -27.2296  -37.1409   25.8862 H   0  0  0  0  0  0
  -20.9442  -29.8756   21.6783 H   0  0  0  0  0  0
  -26.0152  -38.2813   24.1413 H   0  0  0  0  0  0
  -29.8158  -17.8430   22.8017 H   0  0  0  0  0  0
  -29.4068  -20.2408   22.8666 H   0  0  0  0  0  0
  -29.0195  -20.3698   18.6406 H   0  0  0  0  0  0
  -27.8348  -17.6034   15.3381 H   0  0  0  0  0  0
  -27.7684  -16.3856   16.6094 H   0  0  0  0  0  0
  -29.2998  -16.7432   15.8080 H   0  0  0  0  0  0
  -27.7267  -18.7111   17.5529 H   0  0  0  0  0  0
  -29.2876  -19.0492   16.7973 H   0  0  0  0  0  0
  -28.1766  -24.7103   21.6579 H   0  0  0  0  0  0
  -26.9579  -24.4943   20.4820 H   0  0  0  0  0  0
  -29.8391  -23.5133   19.9032 H   0  0  0  0  0  0
  -28.3931  -22.9724   19.1200 H   0  0  0  0  0  0
  -28.7543  -15.6880   20.9878 H   0  0  0  0  0  0
  1 25  1  0  0  0
  1 30  2  0  0  0
  1 81  1  0  0  0
  2  3  1  0  0  0
  2 25  1  0  0  0
  2 84  1  0  0  0
  2 85  1  0  0  0
  3  4  1  0  0  0
  3 86  1  0  0  0
  3 87  1  0  0  0
  4  5  1  0  0  0
  4 88  1  0  0  0
  4 89  1  0  0  0
  5  6  1  0  0  0
  5 26  1  0  0  0
  5 90  1  0  0  0
  6 25  1  0  0  0
  6 91  1  0  0  0
  6 92  1  0  0  0
  7  8  2  0  0  0
  7 26  1  0  0  0
  7 29  1  0  0  0
  8  9  1  0  0  0
  8 22  1  0  0  0
  9 10  1  0  0  0
  9 27  2  0  0  0
 10 11  2  0  0  0
 10 15  1  0  0  0
 11 12  1  0  0  0
 11 93  1  0  0  0
 12 13  2  0  0  0
 12 94  1  0  0  0
 13 14  1  0  0  0
 13 31  1  0  0  0
 14 15  2  0  0  0
 14 95  1  0  0  0
 15 96  1  0  0  0
 16 17  2  0  0  0
 16 21  1  0  0  0
 16 31  1  0  0  0
 17 18  1  0  0  0
 17 97  1  0  0  0
 18 19  2  0  0  0
 18 98  1  0  0  0
 19 20  1  0  0  0
 19 24  1  0  0  0
 20 21  2  0  0  0
 20 99  1  0  0  0
 21 23  1  0  0  0
 22 28  1  0  0  0
 22 32  2  0  0  0
 26 27  1  0  0  0
 28100  1  0  0  0
 28101  1  0  0  0
 29102  1  0  0  0
 29103  1  0  0  0
 33 34  1  0  0  0
 33 66  1  0  0  0
 33 70  2  0  0  0
 34 36  1  0  0  0
 34 59  1  0  0  0
 34104  1  0  0  0
 35 44  2  0  0  0
 35 45  1  0  0  0
 35 68  1  0  0  0
 36 56  1  0  0  0
 36105  1  0  0  0
 37 39  1  0  0  0
 37 47  1  0  0  0
 37 66  1  0  0  0
 37106  1  0  0  0
 38 43  2  0  0  0
 38 46  1  0  0  0
 38 47  1  0  0  0
 39 64  1  0  0  0
 39 67  2  0  0  0
 40 52  1  0  0  0
 40 53  2  0  0  0
 40 58  1  0  0  0
 41107  1  0  0  0
 41108  1  0  0  0
 41109  1  0  0  0
 41 48  1  0  0  0
 42 43  1  0  0  0
 42 66  1  0  0  0
 42110  1  0  0  0
 42111  1  0  0  0
 43 44  1  0  0  0
 44112  1  0  0  0
 45 46  2  0  0  0
 45113  1  0  0  0
 46114  1  0  0  0
 47115  1  0  0  0
 47116  1  0  0  0
 48 56  1  0  0  0
 48 65  1  0  0  0
 48117  1  0  0  0
 49 50  1  0  0  0
 49 53  1  0  0  0
 49 64  1  0  0  0
 49118  1  0  0  0
 50 51  1  0  0  0
 50119  1  0  0  0
 50120  1  0  0  0
 51 52  1  0  0  0
 51121  1  0  0  0
 51122  1  0  0  0
 52123  1  0  0  0
 52124  1  0  0  0
 53 54  1  0  0  0
 54 55  2  0  0  0
 54125  1  0  0  0
 55 57  1  0  0  0
 55126  1  0  0  0
 56 69  2  0  0  0
 57 58  2  0  0  0
 57127  1  0  0  0
 58128  1  0  0  0
 59 60  1  0  0  0
 59 61  1  0  0  0
 59 62  1  0  0  0
 60129  1  0  0  0
 60130  1  0  0  0
 60131  1  0  0  0
 61132  1  0  0  0
 61133  1  0  0  0
 61134  1  0  0  0
 62135  1  0  0  0
 62136  1  0  0  0
 62137  1  0  0  0
 63 65  1  0  0  0
 63138  1  0  0  0
 63139  1  0  0  0
 63140  1  0  0  0
 64141  1  0  0  0
 65142  1  0  0  0
 68 79  1  0  0  0
 71 72  2  0  0  0
 71 74  1  0  0  0
 71143  1  0  0  0
 72 75  1  0  0  0
 72144  1  0  0  0
 73 75  2  0  0  0
 73 76  1  0  0  0
 73145  1  0  0  0
 74 76  2  0  0  0
 74 81  1  0  0  0
 75 82  1  0  0  0
 76 83  1  0  0  0
 77 78  1  0  0  0
 77146  1  0  0  0
 77147  1  0  0  0
 77148  1  0  0  0
 78 83  1  0  0  0
 78149  1  0  0  0
 78150  1  0  0  0
 79 80  1  0  0  0
 79151  1  0  0  0
 79152  1  0  0  0
 80 82  1  0  0  0
 80153  1  0  0  0
 80154  1  0  0  0
 81155  1  0  0  0
M  ISO  4   1 100  68 101  79 101  81 100
M  END
> <chiral flag>
0

> <version>
0

> <s_m_source_file>
/data/baiqing/PycharmProjects/Reinvent-master-3.2/result/LINK_invent/BTK/process_docking_weight1_custom_sum_contain_oxygen_bond_distance_aromatic_linkinvent_7_9_3/rearranged_h_0009.sdf

> <i_m_source_file_index>
37

> <r_mmod_Potential_Energy-OPLS-2005>
459.687927246094

> <r_mmod_Stretch_Energy-OPLS-2005>
225.274673461914

> <r_mmod_Bend_Energy-OPLS-2005>
285.426177978516

> <r_mmod_Torsional_Energy-OPLS-2005>
262.754791259766

> <r_mmod_Improper_Torsional_Energy-OPLS-2005>
6.33556222915649

> <r_mmod_Van_der_Waal_Energy-OPLS-2005>
130.391250610352

> <r_mmod_Electrostatic_Energy-OPLS-2005>
-406.842407226562

> <r_mmod_Solvation_Energy-OPLS-2005>
-220.723037719727

> <b_mmod_Minimization_Converged-OPLS-2005>
0

> <r_mmod_RMS_Derivative-OPLS-2005>
1.22996664047241

$$$$
38
                    3D
 Structure written by MMmdl.
171179  0  0  1  0            999 V2000
  -30.6274  -14.6267   20.5110 C   0  0  0  0  0  0
  -30.4375  -12.3863   19.4424 C   0  0  0  0  0  0
  -29.5005  -12.5016   18.2186 C   0  0  0  0  0  0
  -28.0247  -12.3417   18.6370 C   0  0  0  0  0  0
  -27.6533  -13.2131   19.8655 C   0  0  2  0  0  0
  -28.6999  -13.0554   20.9905 C   0  0  0  0  0  0
  -25.2612  -13.8147   20.5799 C   0  0  0  0  0  0
  -24.1862  -13.0452   20.9250 C   0  0  0  0  0  0
  -24.6391  -11.6905   20.8745 C   0  0  0  0  0  0
  -23.9065  -10.4296   21.0412 C   0  0  0  0  0  0
  -24.3610   -9.4215   21.9195 C   0  0  0  0  0  0
  -23.6296   -8.2243   22.0759 C   0  0  0  0  0  0
  -22.4277   -8.0280   21.3544 C   0  0  0  0  0  0
  -21.9913   -9.0250   20.4650 C   0  0  0  0  0  0
  -22.7231  -10.2141   20.3067 C   0  0  0  0  0  0
  -21.6851   -6.0744   22.5284 C   0  0  0  0  0  0
  -21.4001   -6.5649   23.8216 C   0  0  0  0  0  0
  -21.3670   -5.6794   24.9179 C   0  0  0  0  0  0
  -21.6035   -4.3056   24.7221 C   0  0  0  0  0  0
  -21.8826   -3.8158   23.4342 C   0  0  0  0  0  0
  -21.9193   -4.6980   22.3400 C   0  0  0  0  0  0
  -22.7873  -13.5249   21.1873 C   0  0  0  0  0  0
  -22.1668   -4.2165   21.0982 F   0  0  0  0  0  0
  -21.5639   -3.4539   25.7739 F   0  0  0  0  0  0
  -30.0153  -13.4017   20.4289 N   0  0  0  0  0  0
  -26.3002  -12.9331   20.3346 N   0  0  0  0  0  0
  -25.9314  -11.6494   20.5766 N   0  0  0  0  0  0
  -22.0516  -12.8240   22.0422 N   0  0  0  0  0  0
  -25.4446  -15.1881   20.4444 N   0  0  0  0  0  0
  -31.7843  -14.7923   20.1122 O   0  0  0  0  0  0
  -21.6647   -6.8877   21.4240 O   0  0  0  0  0  0
  -22.3601  -14.5584   20.6756 O   0  0  0  0  0  0
  -24.6242  -31.8616   23.2036 C   0  0  0  0  0  0
  -25.9109  -32.4789   23.8356 C   0  0  1  0  0  0
  -27.2315  -27.3444   20.1210 C   0  0  0  0  0  0
  -25.5912  -33.8585   24.2290 N   0  0  0  0  0  0
  -23.4187  -30.4826   21.5472 C   0  0  2  0  0  0
  -24.8657  -28.9347   20.1202 C   0  0  0  0  0  0
  -22.7479  -29.4632   22.4986 C   0  0  0  0  0  0
  -18.0268  -28.1347   22.8459 C   0  0  0  0  0  0
  -24.1502  -36.7285   23.2646 C   0  0  0  0  0  0
  -25.9546  -30.8007   21.3701 C   0  0  0  0  0  0
  -26.0328  -29.4257   20.7212 C   0  0  0  0  0  0
  -27.2217  -28.6413   20.7128 C   0  0  0  0  0  0
  -26.0456  -26.8981   19.4979 C   0  0  0  0  0  0
  -24.8710  -27.6728   19.5030 C   0  0  0  0  0  0
  -23.6345  -29.8151   20.1629 C   0  0  0  0  0  0
  -25.4118  -36.3084   24.0339 C   0  0  1  0  0  0
  -20.5872  -28.3654   23.1270 C   0  0  2  0  0  0
  -20.6761  -26.9390   22.5379 C   0  0  0  0  0  0
  -19.5751  -26.6354   21.5172 C   0  0  0  0  0  0
  -18.1931  -26.7891   22.1588 C   0  0  0  0  0  0
  -19.1520  -28.8815   23.2862 C   0  0  0  0  0  0
  -18.9487  -30.1419   23.8881 C   0  0  0  0  0  0
  -17.6493  -30.6564   24.0537 C   0  0  0  0  0  0
  -25.9055  -34.9447   23.5121 C   0  0  0  0  0  0
  -16.5369  -29.9065   23.6320 C   0  0  0  0  0  0
  -16.7261  -28.6480   23.0337 C   0  0  0  0  0  0
  -26.4492  -31.6591   25.0712 C   0  0  0  0  0  0
  -25.3729  -31.3697   26.1446 C   0  0  0  0  0  0
  -27.0346  -30.3026   24.6114 C   0  0  0  0  0  0
  -27.6066  -32.4326   25.7456 C   0  0  0  0  0  0
  -27.5592  -37.1782   24.8465 C   0  0  0  0  0  0
  -21.4194  -29.3035   22.3717 N   0  0  0  0  0  0
  -26.4289  -37.3779   23.9420 N   0  0  0  0  0  0
  -24.6849  -31.0642   22.0972 N   0  0  0  0  0  0
  -23.4215  -28.8192   23.3084 O   0  0  0  0  0  0
  -28.3489  -26.5066   20.1326 O   0  0  0  0  0  0
  -26.5631  -34.8902   22.4696 O   0  0  0  0  0  0
  -23.5410  -32.1398   23.7375 O   0  0  0  0  0  0
  -30.9073  -19.2390   19.9726 C   0  0  0  0  0  0
  -30.9032  -17.8164   20.0556 C   0  0  0  0  0  0
  -28.9469  -19.3460   21.3542 C   0  0  0  0  0  0
  -29.9260  -20.0451   20.6091 C   0  0  0  0  0  0
  -29.9260  -17.1154   20.8115 C   0  0  0  0  0  0
  -28.9528  -17.9183   21.4775 C   0  0  0  0  0  0
  -31.0235  -21.9175   21.5624 C   0  0  0  0  0  0
  -28.1589  -14.8876   24.5645 C   0  0  0  0  0  0
  -25.7112  -14.7166   24.3517 C   0  0  0  0  0  0
  -29.1224  -23.9609   20.3466 C   0  0  0  0  0  0
  -28.8444  -22.3696   20.3806 C   0  0  0  0  0  0
  -26.7799  -16.9373   24.2925 C   0  0  0  0  0  0
  -28.1550  -25.1845   20.7531 C   0  0  0  0  0  0
  -27.8431  -17.7818   23.5738 C   0  0  0  0  0  0
  -29.8326  -15.6595   20.9295 N   0  0  0  0  0  0
  -30.0298  -21.4773   20.5849 N   0  0  0  0  0  0
  -26.9243  -15.4888   24.0000 N   0  3  0  0  0  0
  -28.0077  -17.2735   22.2446 O   0  0  0  0  0  0
  -31.4755  -12.5182   19.1308 H   0  0  0  0  0  0
  -30.3790  -11.3873   19.8765 H   0  0  0  0  0  0
  -29.7491  -11.7406   17.4774 H   0  0  0  0  0  0
  -29.6426  -13.4661   17.7288 H   0  0  0  0  0  0
  -27.8583  -11.2878   18.8663 H   0  0  0  0  0  0
  -27.3660  -12.5730   17.7985 H   0  0  0  0  0  0
  -27.6741  -14.2496   19.5283 H   0  0  0  0  0  0
  -28.7136  -12.0281   21.3565 H   0  0  0  0  0  0
  -28.4453  -13.6708   21.8534 H   0  0  0  0  0  0
  -25.2749   -9.5697   22.4780 H   0  0  0  0  0  0
  -24.0012   -7.4626   22.7466 H   0  0  0  0  0  0
  -21.0846   -8.8756   19.8941 H   0  0  0  0  0  0
  -22.3674  -10.9684   19.6185 H   0  0  0  0  0  0
  -21.1988   -7.6153   23.9718 H   0  0  0  0  0  0
  -21.1482   -6.0533   25.9080 H   0  0  0  0  0  0
  -22.0601   -2.7623   23.2838 H   0  0  0  0  0  0
  -22.4077  -11.9829   22.4718 H   0  0  0  0  0  0
  -21.1140  -13.1275   22.2627 H   0  0  0  0  0  0
  -24.6488  -15.8165   20.4707 H   0  0  0  0  0  0
  -26.2408  -15.5923   19.9694 H   0  0  0  0  0  0
  -26.7201  -32.5461   23.1134 H   0  0  0  0  0  0
  -25.0003  -33.9731   25.0391 H   0  0  0  0  0  0
  -22.7089  -31.3007   21.4053 H   0  0  0  0  0  0
  -23.3753  -35.9636   23.3315 H   0  0  0  0  0  0
  -24.3599  -36.8905   22.2062 H   0  0  0  0  0  0
  -23.7253  -37.6484   23.6667 H   0  0  0  0  0  0
  -26.0772  -31.5669   20.6044 H   0  0  0  0  0  0
  -26.8374  -30.8545   21.9931 H   0  0  0  0  0  0
  -28.1191  -29.0112   21.1894 H   0  0  0  0  0  0
  -26.0192  -25.9332   19.0119 H   0  0  0  0  0  0
  -23.9761  -27.2857   19.0344 H   0  0  0  0  0  0
  -23.7506  -30.5916   19.4043 H   0  0  0  0  0  0
  -22.7541  -29.2417   19.8662 H   0  0  0  0  0  0
  -25.1291  -36.1963   25.0833 H   0  0  0  0  0  0
  -20.9918  -28.3230   24.1397 H   0  0  0  0  0  0
  -20.5681  -26.2273   23.3567 H   0  0  0  0  0  0
  -21.6640  -26.7413   22.1225 H   0  0  0  0  0  0
  -19.6937  -25.6263   21.1205 H   0  0  0  0  0  0
  -19.6713  -27.3176   20.6721 H   0  0  0  0  0  0
  -17.4205  -26.6601   21.3993 H   0  0  0  0  0  0
  -18.0367  -26.0015   22.8982 H   0  0  0  0  0  0
  -19.7991  -30.7191   24.2258 H   0  0  0  0  0  0
  -17.5072  -31.6253   24.5119 H   0  0  0  0  0  0
  -15.5376  -30.2956   23.7669 H   0  0  0  0  0  0
  -15.8657  -28.0791   22.7053 H   0  0  0  0  0  0
  -24.5907  -30.7048   25.7741 H   0  0  0  0  0  0
  -24.8899  -32.2862   26.4847 H   0  0  0  0  0  0
  -25.8052  -30.8868   27.0224 H   0  0  0  0  0  0
  -26.2911  -29.6740   24.1207 H   0  0  0  0  0  0
  -27.4167  -29.7292   25.4569 H   0  0  0  0  0  0
  -27.8725  -30.4325   23.9262 H   0  0  0  0  0  0
  -27.2695  -33.3649   26.1992 H   0  0  0  0  0  0
  -28.3872  -32.6861   25.0265 H   0  0  0  0  0  0
  -28.0733  -31.8467   26.5380 H   0  0  0  0  0  0
  -28.2573  -38.0112   24.7543 H   0  0  0  0  0  0
  -28.1130  -36.2643   24.6270 H   0  0  0  0  0  0
  -27.2318  -37.1384   25.8866 H   0  0  0  0  0  0
  -20.9363  -29.8742   21.6924 H   0  0  0  0  0  0
  -26.0187  -38.2850   24.1448 H   0  0  0  0  0  0
  -31.6962  -19.7192   19.4113 H   0  0  0  0  0  0
  -31.6746  -17.2753   19.5277 H   0  0  0  0  0  0
  -28.1927  -19.9277   21.8594 H   0  0  0  0  0  0
  -31.8620  -21.2241   21.6403 H   0  0  0  0  0  0
  -30.5742  -22.0051   22.5535 H   0  0  0  0  0  0
  -31.4417  -22.8844   21.2874 H   0  0  0  0  0  0
  -28.2123  -13.8215   24.3402 H   0  0  0  0  0  0
  -28.1973  -15.0030   25.6486 H   0  0  0  0  0  0
  -29.0560  -15.3450   24.1450 H   0  0  0  0  0  0
  -25.8128  -13.6737   24.0506 H   0  0  0  0  0  0
  -24.8330  -15.1156   23.8426 H   0  0  0  0  0  0
  -25.5242  -14.7463   25.4255 H   0  0  0  0  0  0
  -29.0945  -23.7786   21.4208 H   0  0  0  0  0  0
  -28.4482  -23.9424   19.4875 H   0  0  0  0  0  0
  -28.4064  -22.0366   19.4350 H   0  0  0  0  0  0
  -28.0761  -22.1266   21.1186 H   0  0  0  0  0  0
  -25.7988  -17.2702   23.9484 H   0  0  0  0  0  0
  -26.8084  -17.1188   25.3693 H   0  0  0  0  0  0
  -28.2324  -25.4209   21.8198 H   0  0  0  0  0  0
  -27.1173  -24.8532   20.6570 H   0  0  0  0  0  0
  -28.7932  -17.7266   24.1106 H   0  0  0  0  0  0
  -27.5270  -18.8251   23.5908 H   0  0  0  0  0  0
  -28.9499  -15.3476   21.2960 H   0  0  0  0  0  0
  -26.9949  -15.4388   22.9921 H   0  0  0  0  0  0
  1 25  1  0  0  0
  1 30  2  0  0  0
  1 85  1  0  0  0
  2  3  1  0  0  0
  2 25  1  0  0  0
  2 89  1  0  0  0
  2 90  1  0  0  0
  3  4  1  0  0  0
  3 91  1  0  0  0
  3 92  1  0  0  0
  4  5  1  0  0  0
  4 93  1  0  0  0
  4 94  1  0  0  0
  5  6  1  0  0  0
  5 26  1  0  0  0
  5 95  1  0  0  0
  6 25  1  0  0  0
  6 96  1  0  0  0
  6 97  1  0  0  0
  7  8  2  0  0  0
  7 26  1  0  0  0
  7 29  1  0  0  0
  8  9  1  0  0  0
  8 22  1  0  0  0
  9 10  1  0  0  0
  9 27  2  0  0  0
 10 11  2  0  0  0
 10 15  1  0  0  0
 11 12  1  0  0  0
 11 98  1  0  0  0
 12 13  2  0  0  0
 12 99  1  0  0  0
 13 14  1  0  0  0
 13 31  1  0  0  0
 14 15  2  0  0  0
 14100  1  0  0  0
 15101  1  0  0  0
 16 17  2  0  0  0
 16 21  1  0  0  0
 16 31  1  0  0  0
 17 18  1  0  0  0
 17102  1  0  0  0
 18 19  2  0  0  0
 18103  1  0  0  0
 19 20  1  0  0  0
 19 24  1  0  0  0
 20 21  2  0  0  0
 20104  1  0  0  0
 21 23  1  0  0  0
 22 28  1  0  0  0
 22 32  2  0  0  0
 26 27  1  0  0  0
 28105  1  0  0  0
 28106  1  0  0  0
 29107  1  0  0  0
 29108  1  0  0  0
 33 34  1  0  0  0
 33 66  1  0  0  0
 33 70  2  0  0  0
 34 36  1  0  0  0
 34 59  1  0  0  0
 34109  1  0  0  0
 35 44  2  0  0  0
 35 45  1  0  0  0
 35 68  1  0  0  0
 36 56  1  0  0  0
 36110  1  0  0  0
 37 39  1  0  0  0
 37 47  1  0  0  0
 37 66  1  0  0  0
 37111  1  0  0  0
 38 43  2  0  0  0
 38 46  1  0  0  0
 38 47  1  0  0  0
 39 64  1  0  0  0
 39 67  2  0  0  0
 40 52  1  0  0  0
 40 53  2  0  0  0
 40 58  1  0  0  0
 41112  1  0  0  0
 41113  1  0  0  0
 41114  1  0  0  0
 41 48  1  0  0  0
 42 43  1  0  0  0
 42 66  1  0  0  0
 42115  1  0  0  0
 42116  1  0  0  0
 43 44  1  0  0  0
 44117  1  0  0  0
 45 46  2  0  0  0
 45118  1  0  0  0
 46119  1  0  0  0
 47120  1  0  0  0
 47121  1  0  0  0
 48 56  1  0  0  0
 48 65  1  0  0  0
 48122  1  0  0  0
 49 50  1  0  0  0
 49 53  1  0  0  0
 49 64  1  0  0  0
 49123  1  0  0  0
 50 51  1  0  0  0
 50124  1  0  0  0
 50125  1  0  0  0
 51 52  1  0  0  0
 51126  1  0  0  0
 51127  1  0  0  0
 52128  1  0  0  0
 52129  1  0  0  0
 53 54  1  0  0  0
 54 55  2  0  0  0
 54130  1  0  0  0
 55 57  1  0  0  0
 55131  1  0  0  0
 56 69  2  0  0  0
 57 58  2  0  0  0
 57132  1  0  0  0
 58133  1  0  0  0
 59 60  1  0  0  0
 59 61  1  0  0  0
 59 62  1  0  0  0
 60134  1  0  0  0
 60135  1  0  0  0
 60136  1  0  0  0
 61137  1  0  0  0
 61138  1  0  0  0
 61139  1  0  0  0
 62140  1  0  0  0
 62141  1  0  0  0
 62142  1  0  0  0
 63 65  1  0  0  0
 63143  1  0  0  0
 63144  1  0  0  0
 63145  1  0  0  0
 64146  1  0  0  0
 65147  1  0  0  0
 68 83  1  0  0  0
 71 72  2  0  0  0
 71 74  1  0  0  0
 71148  1  0  0  0
 72 75  1  0  0  0
 72149  1  0  0  0
 73 74  2  0  0  0
 73 76  1  0  0  0
 73150  1  0  0  0
 74 86  1  0  0  0
 75 76  2  0  0  0
 75 85  1  0  0  0
 76 88  1  0  0  0
 77 86  1  0  0  0
 77151  1  0  0  0
 77152  1  0  0  0
 77153  1  0  0  0
 78154  1  0  0  0
 78155  1  0  0  0
 78156  1  0  0  0
 78 87  1  0  0  0
 79 87  1  0  0  0
 79157  1  0  0  0
 79158  1  0  0  0
 79159  1  0  0  0
 80 81  1  0  0  0
 80 83  1  0  0  0
 80160  1  0  0  0
 80161  1  0  0  0
 81 86  1  0  0  0
 81162  1  0  0  0
 81163  1  0  0  0
 82 84  1  0  0  0
 82 87  1  0  0  0
 82164  1  0  0  0
 82165  1  0  0  0
 83166  1  0  0  0
 83167  1  0  0  0
 84 88  1  0  0  0
 84168  1  0  0  0
 84169  1  0  0  0
 85170  1  0  0  0
 87171  1  0  0  0
M  CHG  1  87   1
M  ISO  4   1 100  68 101  83 101  85 100
M  END
> <chiral flag>
0

> <version>
0

> <s_m_source_file>
/data/baiqing/PycharmProjects/Reinvent-master-3.2/result/LINK_invent/BTK/process_docking_weight1_custom_sum_contain_oxygen_bond_distance_aromatic_linkinvent_7_9_3/rearranged_h_0009.sdf

> <i_m_source_file_index>
38

> <r_mmod_Potential_Energy-OPLS-2005>
193.329315185547

> <r_mmod_Stretch_Energy-OPLS-2005>
81.5646057128906

> <r_mmod_Bend_Energy-OPLS-2005>
363.012817382812

> <r_mmod_Torsional_Energy-OPLS-2005>
297.468811035156

> <r_mmod_Improper_Torsional_Energy-OPLS-2005>
8.18286037445068

> <r_mmod_Van_der_Waal_Energy-OPLS-2005>
148.28889465332

> <r_mmod_Electrostatic_Energy-OPLS-2005>
-285.497161865234

> <r_mmod_Solvation_Energy-OPLS-2005>
-460.603302001953

> <b_mmod_Minimization_Converged-OPLS-2005>
0

> <r_mmod_RMS_Derivative-OPLS-2005>
3.63023161888123

$$$$
39
                    3D
 Structure written by MMmdl.
148156  0  0  1  0            999 V2000
  -30.5089  -14.9122   20.4351 C   0  0  0  0  0  0
  -30.4555  -12.5616   19.4901 C   0  0  0  0  0  0
  -29.5264  -12.5317   18.2520 C   0  0  0  0  0  0
  -28.0565  -12.3206   18.6662 C   0  0  0  0  0  0
  -27.6389  -13.2354   19.8464 C   0  0  2  0  0  0
  -28.6835  -13.2119   20.9840 C   0  0  0  0  0  0
  -25.2500  -13.8182   20.5681 C   0  0  0  0  0  0
  -24.1806  -13.0431   20.9230 C   0  0  0  0  0  0
  -24.6402  -11.6911   20.8760 C   0  0  0  0  0  0
  -23.9076  -10.4289   21.0416 C   0  0  0  0  0  0
  -24.3624   -9.4201   21.9190 C   0  0  0  0  0  0
  -23.6294   -8.2240   22.0758 C   0  0  0  0  0  0
  -22.4276   -8.0282   21.3547 C   0  0  0  0  0  0
  -21.9915   -9.0259   20.4652 C   0  0  0  0  0  0
  -22.7249  -10.2135   20.3063 C   0  0  0  0  0  0
  -21.6853   -6.0736   22.5279 C   0  0  0  0  0  0
  -21.4015   -6.5640   23.8212 C   0  0  0  0  0  0
  -21.3659   -5.6793   24.9175 C   0  0  0  0  0  0
  -21.6044   -4.3056   24.7225 C   0  0  0  0  0  0
  -21.8818   -3.8147   23.4347 C   0  0  0  0  0  0
  -21.9192   -4.6963   22.3402 C   0  0  0  0  0  0
  -22.7826  -13.5218   21.1880 C   0  0  0  0  0  0
  -22.1661   -4.2149   21.0979 F   0  0  0  0  0  0
  -21.5626   -3.4539   25.7738 F   0  0  0  0  0  0
  -29.9682  -13.6307   20.4025 N   0  0  0  0  0  0
  -26.2925  -12.9392   20.3247 N   0  0  0  0  0  0
  -25.9332  -11.6537   20.5742 N   0  0  0  0  0  0
  -22.0465  -12.8213   22.0434 N   0  0  0  0  0  0
  -25.4162  -15.1901   20.4026 N   0  0  0  0  0  0
  -31.6970  -15.0562   20.1234 O   0  0  0  0  0  0
  -21.6639   -6.8881   21.4242 O   0  0  0  0  0  0
  -22.3518  -14.5520   20.6717 O   0  0  0  0  0  0
  -24.6422  -31.8456   23.1895 C   0  0  0  0  0  0
  -25.9199  -32.4704   23.8282 C   0  0  1  0  0  0
  -27.2214  -27.1519   20.1469 C   0  0  0  0  0  0
  -25.5952  -33.8509   24.2201 N   0  0  0  0  0  0
  -23.4453  -30.4654   21.5351 C   0  0  2  0  0  0
  -24.8953  -28.8959   20.1105 C   0  0  0  0  0  0
  -22.7562  -29.4552   22.4864 C   0  0  0  0  0  0
  -18.0305  -28.1392   22.8480 C   0  0  0  0  0  0
  -24.1492  -36.7261   23.2642 C   0  0  0  0  0  0
  -26.0006  -30.7245   21.3860 C   0  0  0  0  0  0
  -26.0728  -29.3373   20.7273 C   0  0  0  0  0  0
  -27.2369  -28.4820   20.7280 C   0  0  0  0  0  0
  -26.0152  -26.8096   19.4937 C   0  0  0  0  0  0
  -24.8787  -27.6448   19.4786 C   0  0  0  0  0  0
  -23.6712  -29.7962   20.1539 C   0  0  0  0  0  0
  -25.4122  -36.3038   24.0318 C   0  0  1  0  0  0
  -20.5917  -28.3717   23.1239 C   0  0  2  0  0  0
  -20.6789  -26.9422   22.5403 C   0  0  0  0  0  0
  -19.5760  -26.6380   21.5213 C   0  0  0  0  0  0
  -18.1944  -26.7931   22.1628 C   0  0  0  0  0  0
  -19.1562  -28.8873   23.2853 C   0  0  0  0  0  0
  -18.9477  -30.1469   23.8878 C   0  0  0  0  0  0
  -17.6473  -30.6589   24.0558 C   0  0  0  0  0  0
  -25.9071  -34.9412   23.5068 C   0  0  0  0  0  0
  -16.5365  -29.9082   23.6333 C   0  0  0  0  0  0
  -16.7289  -28.6500   23.0357 C   0  0  0  0  0  0
  -26.4522  -31.6564   25.0716 C   0  0  0  0  0  0
  -25.3712  -31.3749   26.1414 C   0  0  0  0  0  0
  -27.0385  -30.2963   24.6283 C   0  0  0  0  0  0
  -27.6053  -32.4328   25.7502 C   0  0  0  0  0  0
  -27.5575  -37.1788   24.8465 C   0  0  0  0  0  0
  -21.4255  -29.3048   22.3615 N   0  0  0  0  0  0
  -26.4286  -37.3749   23.9408 N   0  0  0  0  0  0
  -24.7158  -31.0325   22.0923 N   0  0  0  0  0  0
  -23.4210  -28.8096   23.3008 O   0  0  0  0  0  0
  -28.2796  -26.1752   20.2158 O   0  0  0  0  0  0
  -26.5655  -34.8906   22.4645 O   0  0  0  0  0  0
  -23.5543  -32.1325   23.7122 O   0  0  0  0  0  0
  -30.4979  -18.5502   20.3681 C   0  0  0  0  0  0
  -30.1918  -19.9876   20.3030 C   0  0  0  0  0  0
  -28.2013  -18.0915   20.6159 C   0  0  0  0  0  0
  -29.5058  -17.5125   20.5303 C   0  0  0  0  0  0
  -28.8604  -20.5427   20.3787 C   0  0  0  0  0  0
  -27.8953  -19.4982   20.5370 C   0  0  0  0  0  0
  -27.9814  -24.6559   20.0800 C   0  0  0  0  0  0
  -28.9666  -23.3090   20.3181 C   0  0  0  0  0  0
  -29.6181  -15.9877   20.6567 N   0  0  0  0  0  0
  -28.3436  -21.9122   20.2867 O   0  0  0  0  0  0
  -26.5907  -19.8568   20.6201 F   0  0  0  0  0  0
  -31.4867  -12.7370   19.1791 H   0  0  0  0  0  0
  -30.4561  -11.5962   19.9987 H   0  0  0  0  0  0
  -29.8377  -11.7454   17.5632 H   0  0  0  0  0  0
  -29.6191  -13.4710   17.7045 H   0  0  0  0  0  0
  -27.9424  -11.2750   18.9545 H   0  0  0  0  0  0
  -27.3955  -12.4747   17.8124 H   0  0  0  0  0  0
  -27.6160  -14.2467   19.4405 H   0  0  0  0  0  0
  -28.7608  -12.2155   21.4218 H   0  0  0  0  0  0
  -28.3869  -13.8773   21.7964 H   0  0  0  0  0  0
  -25.2769   -9.5672   22.4767 H   0  0  0  0  0  0
  -24.0000   -7.4629   22.7477 H   0  0  0  0  0  0
  -21.0844   -8.8784   19.8957 H   0  0  0  0  0  0
  -22.3712  -10.9678   19.6174 H   0  0  0  0  0  0
  -21.2010   -7.6149   23.9716 H   0  0  0  0  0  0
  -21.1480   -6.0523   25.9077 H   0  0  0  0  0  0
  -22.0597   -2.7608   23.2848 H   0  0  0  0  0  0
  -22.4083  -11.9878   22.4830 H   0  0  0  0  0  0
  -21.1084  -13.1242   22.2641 H   0  0  0  0  0  0
  -24.6295  -15.8261   20.4770 H   0  0  0  0  0  0
  -26.2182  -15.6066   19.9499 H   0  0  0  0  0  0
  -26.7265  -32.5316   23.1014 H   0  0  0  0  0  0
  -25.0077  -33.9626   25.0333 H   0  0  0  0  0  0
  -22.7472  -31.2910   21.3818 H   0  0  0  0  0  0
  -23.3757  -35.9590   23.3292 H   0  0  0  0  0  0
  -24.3578  -36.8903   22.2059 H   0  0  0  0  0  0
  -23.7245  -37.6454   23.6684 H   0  0  0  0  0  0
  -26.1536  -31.4794   20.6136 H   0  0  0  0  0  0
  -26.8721  -30.7754   22.0269 H   0  0  0  0  0  0
  -28.1335  -28.8156   21.2313 H   0  0  0  0  0  0
  -25.9102  -25.8553   19.0018 H   0  0  0  0  0  0
  -23.9801  -27.3016   18.9846 H   0  0  0  0  0  0
  -23.8070  -30.5716   19.3992 H   0  0  0  0  0  0
  -22.7864  -29.2380   19.8427 H   0  0  0  0  0  0
  -25.1309  -36.1869   25.0810 H   0  0  0  0  0  0
  -21.0010  -28.3306   24.1360 H   0  0  0  0  0  0
  -20.5685  -26.2330   23.3621 H   0  0  0  0  0  0
  -21.6654  -26.7429   22.1199 H   0  0  0  0  0  0
  -19.6921  -25.6286   21.1255 H   0  0  0  0  0  0
  -19.6694  -27.3179   20.6734 H   0  0  0  0  0  0
  -17.4210  -26.6673   21.4035 H   0  0  0  0  0  0
  -18.0346  -26.0078   22.9030 H   0  0  0  0  0  0
  -19.7952  -30.7291   24.2241 H   0  0  0  0  0  0
  -17.5025  -31.6268   24.5163 H   0  0  0  0  0  0
  -15.5364  -30.2977   23.7663 H   0  0  0  0  0  0
  -15.8691  -28.0808   22.7085 H   0  0  0  0  0  0
  -24.5894  -30.7094   25.7734 H   0  0  0  0  0  0
  -24.8898  -32.2930   26.4792 H   0  0  0  0  0  0
  -25.7998  -30.8952   27.0222 H   0  0  0  0  0  0
  -26.2998  -29.6690   24.1281 H   0  0  0  0  0  0
  -27.3997  -29.7256   25.4848 H   0  0  0  0  0  0
  -27.8906  -30.4204   23.9597 H   0  0  0  0  0  0
  -27.2645  -33.3646   26.2028 H   0  0  0  0  0  0
  -28.3892  -32.6860   25.0352 H   0  0  0  0  0  0
  -28.0689  -31.8488   26.5463 H   0  0  0  0  0  0
  -28.2585  -38.0091   24.7510 H   0  0  0  0  0  0
  -28.1079  -36.2622   24.6295 H   0  0  0  0  0  0
  -27.2293  -37.1437   25.8868 H   0  0  0  0  0  0
  -20.9461  -29.8768   21.6802 H   0  0  0  0  0  0
  -26.0155  -38.2818   24.1409 H   0  0  0  0  0  0
  -31.5349  -18.2525   20.2974 H   0  0  0  0  0  0
  -31.0171  -20.6732   20.1773 H   0  0  0  0  0  0
  -27.3590  -17.4297   20.7477 H   0  0  0  0  0  0
  -27.1214  -24.4889   20.7294 H   0  0  0  0  0  0
  -27.6025  -24.5258   19.0670 H   0  0  0  0  0  0
  -29.4518  -23.4117   21.2888 H   0  0  0  0  0  0
  -29.7707  -23.3307   19.5826 H   0  0  0  0  0  0
  -28.7268  -15.5824   20.8973 H   0  0  0  0  0  0
  1 25  1  0  0  0
  1 30  2  0  0  0
  1 79  1  0  0  0
  2  3  1  0  0  0
  2 25  1  0  0  0
  2 82  1  0  0  0
  2 83  1  0  0  0
  3  4  1  0  0  0
  3 84  1  0  0  0
  3 85  1  0  0  0
  4  5  1  0  0  0
  4 86  1  0  0  0
  4 87  1  0  0  0
  5  6  1  0  0  0
  5 26  1  0  0  0
  5 88  1  0  0  0
  6 25  1  0  0  0
  6 89  1  0  0  0
  6 90  1  0  0  0
  7  8  2  0  0  0
  7 26  1  0  0  0
  7 29  1  0  0  0
  8  9  1  0  0  0
  8 22  1  0  0  0
  9 10  1  0  0  0
  9 27  2  0  0  0
 10 11  2  0  0  0
 10 15  1  0  0  0
 11 12  1  0  0  0
 11 91  1  0  0  0
 12 13  2  0  0  0
 12 92  1  0  0  0
 13 14  1  0  0  0
 13 31  1  0  0  0
 14 15  2  0  0  0
 14 93  1  0  0  0
 15 94  1  0  0  0
 16 17  2  0  0  0
 16 21  1  0  0  0
 16 31  1  0  0  0
 17 18  1  0  0  0
 17 95  1  0  0  0
 18 19  2  0  0  0
 18 96  1  0  0  0
 19 20  1  0  0  0
 19 24  1  0  0  0
 20 21  2  0  0  0
 20 97  1  0  0  0
 21 23  1  0  0  0
 22 28  1  0  0  0
 22 32  2  0  0  0
 26 27  1  0  0  0
 28 98  1  0  0  0
 28 99  1  0  0  0
 29100  1  0  0  0
 29101  1  0  0  0
 33 34  1  0  0  0
 33 66  1  0  0  0
 33 70  2  0  0  0
 34 36  1  0  0  0
 34 59  1  0  0  0
 34102  1  0  0  0
 35 44  2  0  0  0
 35 45  1  0  0  0
 35 68  1  0  0  0
 36 56  1  0  0  0
 36103  1  0  0  0
 37 39  1  0  0  0
 37 47  1  0  0  0
 37 66  1  0  0  0
 37104  1  0  0  0
 38 43  2  0  0  0
 38 46  1  0  0  0
 38 47  1  0  0  0
 39 64  1  0  0  0
 39 67  2  0  0  0
 40 52  1  0  0  0
 40 53  2  0  0  0
 40 58  1  0  0  0
 41105  1  0  0  0
 41106  1  0  0  0
 41107  1  0  0  0
 41 48  1  0  0  0
 42 43  1  0  0  0
 42 66  1  0  0  0
 42108  1  0  0  0
 42109  1  0  0  0
 43 44  1  0  0  0
 44110  1  0  0  0
 45 46  2  0  0  0
 45111  1  0  0  0
 46112  1  0  0  0
 47113  1  0  0  0
 47114  1  0  0  0
 48 56  1  0  0  0
 48 65  1  0  0  0
 48115  1  0  0  0
 49 50  1  0  0  0
 49 53  1  0  0  0
 49 64  1  0  0  0
 49116  1  0  0  0
 50 51  1  0  0  0
 50117  1  0  0  0
 50118  1  0  0  0
 51 52  1  0  0  0
 51119  1  0  0  0
 51120  1  0  0  0
 52121  1  0  0  0
 52122  1  0  0  0
 53 54  1  0  0  0
 54 55  2  0  0  0
 54123  1  0  0  0
 55 57  1  0  0  0
 55124  1  0  0  0
 56 69  2  0  0  0
 57 58  2  0  0  0
 57125  1  0  0  0
 58126  1  0  0  0
 59 60  1  0  0  0
 59 61  1  0  0  0
 59 62  1  0  0  0
 60127  1  0  0  0
 60128  1  0  0  0
 60129  1  0  0  0
 61130  1  0  0  0
 61131  1  0  0  0
 61132  1  0  0  0
 62133  1  0  0  0
 62134  1  0  0  0
 62135  1  0  0  0
 63 65  1  0  0  0
 63136  1  0  0  0
 63137  1  0  0  0
 63138  1  0  0  0
 64139  1  0  0  0
 65140  1  0  0  0
 68 77  1  0  0  0
 71 72  2  0  0  0
 71 74  1  0  0  0
 71141  1  0  0  0
 72 75  1  0  0  0
 72142  1  0  0  0
 73 74  2  0  0  0
 73 76  1  0  0  0
 73143  1  0  0  0
 74 79  1  0  0  0
 75 76  2  0  0  0
 75 80  1  0  0  0
 76 81  1  0  0  0
 77 78  1  0  0  0
 77144  1  0  0  0
 77145  1  0  0  0
 78 80  1  0  0  0
 78146  1  0  0  0
 78147  1  0  0  0
 79148  1  0  0  0
M  ISO  4   1 100  68 101  77 101  79 100
M  END
> <chiral flag>
0

> <version>
0

> <s_m_source_file>
/data/baiqing/PycharmProjects/Reinvent-master-3.2/result/LINK_invent/BTK/process_docking_weight1_custom_sum_contain_oxygen_bond_distance_aromatic_linkinvent_7_9_3/rearranged_h_0009.sdf

> <i_m_source_file_index>
39

> <r_mmod_Potential_Energy-OPLS-2005>
491.091247558594

> <r_mmod_Stretch_Energy-OPLS-2005>
216.953765869141

> <r_mmod_Bend_Energy-OPLS-2005>
302.484619140625

> <r_mmod_Torsional_Energy-OPLS-2005>
212.021713256836

> <r_mmod_Improper_Torsional_Energy-OPLS-2005>
4.76716709136963

> <r_mmod_Van_der_Waal_Energy-OPLS-2005>
130.573699951172

> <r_mmod_Electrostatic_Energy-OPLS-2005>
-337.487060546875

> <r_mmod_Solvation_Energy-OPLS-2005>
-212.451721191406

> <b_mmod_Minimization_Converged-OPLS-2005>
0

> <r_mmod_RMS_Derivative-OPLS-2005>
0.366873770952225

$$$$
40
                    3D
 Structure written by MMmdl.
150158  0  0  1  0            999 V2000
  -30.3942  -15.3918   20.3519 C   0  0  0  0  0  0
  -30.4359  -12.8991   19.5357 C   0  0  0  0  0  0
  -29.5445  -12.6037   18.3010 C   0  0  0  0  0  0
  -28.0977  -12.3026   18.7268 C   0  0  0  0  0  0
  -27.6063  -13.2882   19.8150 C   0  0  2  0  0  0
  -28.6338  -13.5154   20.9472 C   0  0  0  0  0  0
  -25.2373  -13.8258   20.5747 C   0  0  0  0  0  0
  -24.1745  -13.0428   20.9257 C   0  0  0  0  0  0
  -24.6413  -11.6935   20.8745 C   0  0  0  0  0  0
  -23.9111  -10.4293   21.0386 C   0  0  0  0  0  0
  -24.3647   -9.4197   21.9160 C   0  0  0  0  0  0
  -23.6308   -8.2240   22.0745 C   0  0  0  0  0  0
  -22.4291   -8.0276   21.3536 C   0  0  0  0  0  0
  -21.9934   -9.0254   20.4640 C   0  0  0  0  0  0
  -22.7278  -10.2125   20.3041 C   0  0  0  0  0  0
  -21.6855   -6.0732   22.5277 C   0  0  0  0  0  0
  -21.4014   -6.5635   23.8207 C   0  0  0  0  0  0
  -21.3665   -5.6787   24.9171 C   0  0  0  0  0  0
  -21.6046   -4.3052   24.7220 C   0  0  0  0  0  0
  -21.8817   -3.8139   23.4339 C   0  0  0  0  0  0
  -21.9196   -4.6957   22.3396 C   0  0  0  0  0  0
  -22.7760  -13.5185   21.1889 C   0  0  0  0  0  0
  -22.1662   -4.2144   21.0972 F   0  0  0  0  0  0
  -21.5638   -3.4536   25.7729 F   0  0  0  0  0  0
  -29.8487  -14.0617   20.3161 N   0  0  0  0  0  0
  -26.2802  -12.9554   20.3188 N   0  0  0  0  0  0
  -25.9348  -11.6648   20.5686 N   0  0  0  0  0  0
  -22.0413  -12.8179   22.0447 N   0  0  0  0  0  0
  -25.3989  -15.1994   20.4198 N   0  0  0  0  0  0
  -31.6166  -15.3740   20.1365 O   0  0  0  0  0  0
  -21.6650   -6.8872   21.4239 O   0  0  0  0  0  0
  -22.3429  -14.5473   20.6698 O   0  0  0  0  0  0
  -24.6715  -31.8152   23.1647 C   0  0  0  0  0  0
  -25.9348  -32.4554   23.8149 C   0  0  1  0  0  0
  -27.2242  -26.8419   20.2011 C   0  0  0  0  0  0
  -25.5984  -33.8378   24.2046 N   0  0  0  0  0  0
  -23.4925  -30.4241   21.5153 C   0  0  2  0  0  0
  -24.9510  -28.7959   20.1183 C   0  0  0  0  0  0
  -22.7704  -29.4393   22.4735 C   0  0  0  0  0  0
  -18.0331  -28.1420   22.8463 C   0  0  0  0  0  0
  -24.1496  -36.7190   23.2645 C   0  0  0  0  0  0
  -26.0681  -30.5913   21.4134 C   0  0  0  0  0  0
  -26.1375  -29.1722   20.7624 C   0  0  0  0  0  0
  -27.2674  -28.2180   20.7817 C   0  0  0  0  0  0
  -26.0121  -26.6483   19.4990 C   0  0  0  0  0  0
  -24.9186  -27.5546   19.4656 C   0  0  0  0  0  0
  -23.7410  -29.7336   20.1461 C   0  0  0  0  0  0
  -25.4144  -36.2950   24.0289 C   0  0  1  0  0  0
  -20.5963  -28.3776   23.1161 C   0  0  2  0  0  0
  -20.6801  -26.9442   22.5404 C   0  0  0  0  0  0
  -19.5782  -26.6375   21.5220 C   0  0  0  0  0  0
  -18.1959  -26.7952   22.1626 C   0  0  0  0  0  0
  -19.1591  -28.8922   23.2803 C   0  0  0  0  0  0
  -18.9500  -30.1504   23.8844 C   0  0  0  0  0  0
  -17.6488  -30.6606   24.0557 C   0  0  0  0  0  0
  -25.9117  -34.9331   23.4996 C   0  0  0  0  0  0
  -16.5381  -29.9091   23.6347 C   0  0  0  0  0  0
  -16.7308  -28.6516   23.0364 C   0  0  0  0  0  0
  -26.4571  -31.6523   25.0711 C   0  0  0  0  0  0
  -25.3665  -31.3813   26.1345 C   0  0  0  0  0  0
  -27.0471  -30.2866   24.6524 C   0  0  0  0  0  0
  -27.6053  -32.4342   25.7523 C   0  0  0  0  0  0
  -27.5572  -37.1754   24.8462 C   0  0  0  0  0  0
  -21.4361  -29.3038   22.3487 N   0  0  0  0  0  0
  -26.4283  -37.3692   23.9398 N   0  0  0  0  0  0
  -24.7660  -30.9725   22.0843 N   0  0  0  0  0  0
  -23.4203  -28.7957   23.3011 O   0  0  0  0  0  0
  -28.1655  -25.6400   20.2237 O   0  0  0  0  0  0
  -26.5739  -34.8876   22.4602 O   0  0  0  0  0  0
  -23.5758  -32.1167   23.6674 O   0  0  0  0  0  0
  -27.1713  -24.1265   23.3926 C   0  0  0  0  0  0
  -27.4952  -24.8264   22.2351 C   0  0  0  0  0  0
  -27.9542  -22.1211   22.3409 C   0  0  0  0  0  0
  -27.4004  -22.7675   23.4467 C   0  0  0  0  0  0
  -28.3283  -22.6886   21.0795 C   0  0  0  0  0  0
  -28.0384  -24.3054   21.0217 C   0  0  0  0  0  0
  -28.8496  -19.8357   20.5230 C   0  0  0  0  0  0
  -29.8559  -18.3820   20.2388 C   0  0  0  0  0  0
  -27.1122  -22.0575   24.6118 N   0  0  0  0  0  0
  -28.9965  -21.3498   20.3505 N   0  0  0  0  0  0
  -29.6318  -16.6932   20.4279 N   0  0  0  0  0  0
  -27.7370  -19.4740   20.9132 O   0  0  0  0  0  0
  -31.4472  -13.1189   19.1941 H   0  0  0  0  0  0
  -30.5335  -12.0136   20.1666 H   0  0  0  0  0  0
  -29.9525  -11.7688   17.7291 H   0  0  0  0  0  0
  -29.5560  -13.4677   17.6341 H   0  0  0  0  0  0
  -28.0724  -11.2852   19.1181 H   0  0  0  0  0  0
  -27.4341  -12.3167   17.8618 H   0  0  0  0  0  0
  -27.5022  -14.2407   19.2932 H   0  0  0  0  0  0
  -28.8343  -12.5973   21.5017 H   0  0  0  0  0  0
  -28.2475  -14.2348   21.6707 H   0  0  0  0  0  0
  -25.2785   -9.5683   22.4747 H   0  0  0  0  0  0
  -24.0008   -7.4651   22.7482 H   0  0  0  0  0  0
  -21.0855   -8.8770   19.8971 H   0  0  0  0  0  0
  -22.3715  -10.9651   19.6158 H   0  0  0  0  0  0
  -21.1996   -7.6139   23.9707 H   0  0  0  0  0  0
  -21.1501   -6.0518   25.9076 H   0  0  0  0  0  0
  -22.0594   -2.7600   23.2835 H   0  0  0  0  0  0
  -22.4050  -11.9873   22.4870 H   0  0  0  0  0  0
  -21.1012  -13.1177   22.2622 H   0  0  0  0  0  0
  -24.6277  -15.8483   20.5373 H   0  0  0  0  0  0
  -26.2362  -15.6404   20.0624 H   0  0  0  0  0  0
  -26.7416  -32.5071   23.0859 H   0  0  0  0  0  0
  -25.0040  -33.9455   25.0132 H   0  0  0  0  0  0
  -22.8104  -31.2586   21.3370 H   0  0  0  0  0  0
  -23.3776  -35.9504   23.3290 H   0  0  0  0  0  0
  -24.3554  -36.8864   22.2060 H   0  0  0  0  0  0
  -23.7242  -37.6366   23.6725 H   0  0  0  0  0  0
  -26.2584  -31.3234   20.6285 H   0  0  0  0  0  0
  -26.9237  -30.6544   22.0732 H   0  0  0  0  0  0
  -28.1621  -28.5064   21.3140 H   0  0  0  0  0  0
  -25.8762  -25.7000   18.9996 H   0  0  0  0  0  0
  -24.0205  -27.2592   18.9401 H   0  0  0  0  0  0
  -23.9044  -30.5010   19.3889 H   0  0  0  0  0  0
  -22.8506  -29.1915   19.8237 H   0  0  0  0  0  0
  -25.1345  -36.1741   25.0781 H   0  0  0  0  0  0
  -21.0060  -28.3404   24.1284 H   0  0  0  0  0  0
  -20.5689  -26.2391   23.3656 H   0  0  0  0  0  0
  -21.6661  -26.7410   22.1207 H   0  0  0  0  0  0
  -19.6939  -25.6269   21.1288 H   0  0  0  0  0  0
  -19.6730  -27.3151   20.6726 H   0  0  0  0  0  0
  -17.4229  -26.6694   21.4031 H   0  0  0  0  0  0
  -18.0361  -26.0108   22.9041 H   0  0  0  0  0  0
  -19.7973  -30.7337   24.2186 H   0  0  0  0  0  0
  -17.5042  -31.6283   24.5168 H   0  0  0  0  0  0
  -15.5380  -30.2979   23.7707 H   0  0  0  0  0  0
  -15.8707  -28.0817   22.7109 H   0  0  0  0  0  0
  -24.5851  -30.7175   25.7625 H   0  0  0  0  0  0
  -24.8865  -32.3037   26.4622 H   0  0  0  0  0  0
  -25.7854  -30.9047   27.0216 H   0  0  0  0  0  0
  -26.3147  -29.6525   24.1516 H   0  0  0  0  0  0
  -27.3922  -29.7261   25.5222 H   0  0  0  0  0  0
  -27.9133  -30.4001   24.0006 H   0  0  0  0  0  0
  -27.2614  -33.3685   26.1971 H   0  0  0  0  0  0
  -28.3940  -32.6835   25.0412 H   0  0  0  0  0  0
  -28.0645  -31.8559   26.5552 H   0  0  0  0  0  0
  -28.2569  -38.0064   24.7504 H   0  0  0  0  0  0
  -28.1087  -36.2593   24.6303 H   0  0  0  0  0  0
  -27.2281  -37.1400   25.8860 H   0  0  0  0  0  0
  -20.9624  -29.8712   21.6586 H   0  0  0  0  0  0
  -26.0133  -38.2748   24.1413 H   0  0  0  0  0  0
  -26.7705  -24.6600   24.2428 H   0  0  0  0  0  0
  -27.3203  -25.8808   22.3643 H   0  0  0  0  0  0
  -28.1429  -21.0886   22.5643 H   0  0  0  0  0  0
  -30.7644  -18.5855   20.8054 H   0  0  0  0  0  0
  -30.1650  -18.4861   19.1984 H   0  0  0  0  0  0
  -27.0196  -22.5586   25.4900 H   0  0  0  0  0  0
  -27.4745  -21.1155   24.7288 H   0  0  0  0  0  0
  -29.7785  -21.5815   19.7525 H   0  0  0  0  0  0
  -28.6565  -16.5014   20.6035 H   0  0  0  0  0  0
  1 25  1  0  0  0
  1 30  2  0  0  0
  1 81  1  0  0  0
  2  3  1  0  0  0
  2 25  1  0  0  0
  2 83  1  0  0  0
  2 84  1  0  0  0
  3  4  1  0  0  0
  3 85  1  0  0  0
  3 86  1  0  0  0
  4  5  1  0  0  0
  4 87  1  0  0  0
  4 88  1  0  0  0
  5  6  1  0  0  0
  5 26  1  0  0  0
  5 89  1  0  0  0
  6 25  1  0  0  0
  6 90  1  0  0  0
  6 91  1  0  0  0
  7  8  2  0  0  0
  7 26  1  0  0  0
  7 29  1  0  0  0
  8  9  1  0  0  0
  8 22  1  0  0  0
  9 10  1  0  0  0
  9 27  2  0  0  0
 10 11  2  0  0  0
 10 15  1  0  0  0
 11 12  1  0  0  0
 11 92  1  0  0  0
 12 13  2  0  0  0
 12 93  1  0  0  0
 13 14  1  0  0  0
 13 31  1  0  0  0
 14 15  2  0  0  0
 14 94  1  0  0  0
 15 95  1  0  0  0
 16 17  2  0  0  0
 16 21  1  0  0  0
 16 31  1  0  0  0
 17 18  1  0  0  0
 17 96  1  0  0  0
 18 19  2  0  0  0
 18 97  1  0  0  0
 19 20  1  0  0  0
 19 24  1  0  0  0
 20 21  2  0  0  0
 20 98  1  0  0  0
 21 23  1  0  0  0
 22 28  1  0  0  0
 22 32  2  0  0  0
 26 27  1  0  0  0
 28 99  1  0  0  0
 28100  1  0  0  0
 29101  1  0  0  0
 29102  1  0  0  0
 33 34  1  0  0  0
 33 66  1  0  0  0
 33 70  2  0  0  0
 34 36  1  0  0  0
 34 59  1  0  0  0
 34103  1  0  0  0
 35 44  2  0  0  0
 35 45  1  0  0  0
 35 68  1  0  0  0
 36 56  1  0  0  0
 36104  1  0  0  0
 37 39  1  0  0  0
 37 47  1  0  0  0
 37 66  1  0  0  0
 37105  1  0  0  0
 38 43  2  0  0  0
 38 46  1  0  0  0
 38 47  1  0  0  0
 39 64  1  0  0  0
 39 67  2  0  0  0
 40 52  1  0  0  0
 40 53  2  0  0  0
 40 58  1  0  0  0
 41106  1  0  0  0
 41107  1  0  0  0
 41108  1  0  0  0
 41 48  1  0  0  0
 42 43  1  0  0  0
 42 66  1  0  0  0
 42109  1  0  0  0
 42110  1  0  0  0
 43 44  1  0  0  0
 44111  1  0  0  0
 45 46  2  0  0  0
 45112  1  0  0  0
 46113  1  0  0  0
 47114  1  0  0  0
 47115  1  0  0  0
 48 56  1  0  0  0
 48 65  1  0  0  0
 48116  1  0  0  0
 49 50  1  0  0  0
 49 53  1  0  0  0
 49 64  1  0  0  0
 49117  1  0  0  0
 50 51  1  0  0  0
 50118  1  0  0  0
 50119  1  0  0  0
 51 52  1  0  0  0
 51120  1  0  0  0
 51121  1  0  0  0
 52122  1  0  0  0
 52123  1  0  0  0
 53 54  1  0  0  0
 54 55  2  0  0  0
 54124  1  0  0  0
 55 57  1  0  0  0
 55125  1  0  0  0
 56 69  2  0  0  0
 57 58  2  0  0  0
 57126  1  0  0  0
 58127  1  0  0  0
 59 60  1  0  0  0
 59 61  1  0  0  0
 59 62  1  0  0  0
 60128  1  0  0  0
 60129  1  0  0  0
 60130  1  0  0  0
 61131  1  0  0  0
 61132  1  0  0  0
 61133  1  0  0  0
 62134  1  0  0  0
 62135  1  0  0  0
 62136  1  0  0  0
 63 65  1  0  0  0
 63137  1  0  0  0
 63138  1  0  0  0
 63139  1  0  0  0
 64140  1  0  0  0
 65141  1  0  0  0
 68 76  1  0  0  0
 71 72  2  0  0  0
 71 74  1  0  0  0
 71142  1  0  0  0
 72 76  1  0  0  0
 72143  1  0  0  0
 73 74  2  0  0  0
 73 75  1  0  0  0
 73144  1  0  0  0
 74 79  1  0  0  0
 75 76  2  0  0  0
 75 80  1  0  0  0
 77 78  1  0  0  0
 77 80  1  0  0  0
 77 82  2  0  0  0
 78 81  1  0  0  0
 78145  1  0  0  0
 78146  1  0  0  0
 79147  1  0  0  0
 79148  1  0  0  0
 80149  1  0  0  0
 81150  1  0  0  0
M  ISO  4   1 100  68 101  76 101  81 100
M  END
> <chiral flag>
0

> <version>
0

> <s_m_source_file>
/data/baiqing/PycharmProjects/Reinvent-master-3.2/result/LINK_invent/BTK/process_docking_weight1_custom_sum_contain_oxygen_bond_distance_aromatic_linkinvent_7_9_3/rearranged_h_0009.sdf

> <i_m_source_file_index>
40

> <r_mmod_Potential_Energy-OPLS-2005>
1652.43115234375

> <r_mmod_Stretch_Energy-OPLS-2005>
779.806701660156

> <r_mmod_Bend_Energy-OPLS-2005>
610.189147949219

> <r_mmod_Torsional_Energy-OPLS-2005>
237.118515014648

> <r_mmod_Improper_Torsional_Energy-OPLS-2005>
8.02288818359375

> <r_mmod_Van_der_Waal_Energy-OPLS-2005>
149.937927246094

> <r_mmod_Electrostatic_Energy-OPLS-2005>
-492.084716796875

> <r_mmod_Solvation_Energy-OPLS-2005>
-249.841445922852

> <b_mmod_Minimization_Converged-OPLS-2005>
0

> <r_mmod_RMS_Derivative-OPLS-2005>
1.96344590187073

$$$$
41
                    3D
 Structure written by MMmdl.
164172  0  0  1  0            999 V2000
  -30.7164  -14.4190   20.5616 C   0  0  0  0  0  0
  -30.4147  -12.2674   19.4243 C   0  0  0  0  0  0
  -29.4954  -12.4979   18.2071 C   0  0  0  0  0  0
  -28.0145  -12.3688   18.6159 C   0  0  0  0  0  0
  -27.6649  -13.2030   19.8778 C   0  0  2  0  0  0
  -28.7019  -12.9692   21.0011 C   0  0  0  0  0  0
  -25.2604  -13.8154   20.5673 C   0  0  0  0  0  0
  -24.1844  -13.0436   20.9155 C   0  0  0  0  0  0
  -24.6386  -11.6902   20.8710 C   0  0  0  0  0  0
  -23.9044  -10.4291   21.0386 C   0  0  0  0  0  0
  -24.3604   -9.4214   21.9170 C   0  0  0  0  0  0
  -23.6285   -8.2245   22.0751 C   0  0  0  0  0  0
  -22.4264   -8.0277   21.3545 C   0  0  0  0  0  0
  -21.9891   -9.0245   20.4642 C   0  0  0  0  0  0
  -22.7212  -10.2128   20.3045 C   0  0  0  0  0  0
  -21.6852   -6.0729   22.5279 C   0  0  0  0  0  0
  -21.4017   -6.5634   23.8213 C   0  0  0  0  0  0
  -21.3664   -5.6788   24.9175 C   0  0  0  0  0  0
  -21.6042   -4.3051   24.7225 C   0  0  0  0  0  0
  -21.8820   -3.8141   23.4347 C   0  0  0  0  0  0
  -21.9194   -4.6957   22.3401 C   0  0  0  0  0  0
  -22.7871  -13.5245   21.1830 C   0  0  0  0  0  0
  -22.1663   -4.2147   21.0978 F   0  0  0  0  0  0
  -21.5630   -3.4532   25.7738 F   0  0  0  0  0  0
  -30.0416  -13.2462   20.4549 N   0  0  0  0  0  0
  -26.3036  -12.9320   20.3363 N   0  0  0  0  0  0
  -25.9314  -11.6478   20.5740 N   0  0  0  0  0  0
  -22.0506  -12.8250   22.0389 N   0  0  0  0  0  0
  -25.4341  -15.1871   20.4106 N   0  0  0  0  0  0
  -31.8470  -14.5906   20.0958 O   0  0  0  0  0  0
  -21.6640   -6.8869   21.4239 O   0  0  0  0  0  0
  -22.3561  -14.5553   20.6677 O   0  0  0  0  0  0
  -24.6128  -31.8708   23.2113 C   0  0  0  0  0  0
  -25.9042  -32.4838   23.8391 C   0  0  1  0  0  0
  -27.2316  -27.4488   20.0863 C   0  0  0  0  0  0
  -25.5909  -33.8634   24.2333 N   0  0  0  0  0  0
  -23.3971  -30.4945   21.5540 C   0  0  2  0  0  0
  -24.8383  -28.9594   20.1188 C   0  0  0  0  0  0
  -22.7393  -29.4679   22.5030 C   0  0  0  0  0  0
  -18.0263  -28.1387   22.8490 C   0  0  0  0  0  0
  -24.1491  -36.7315   23.2635 C   0  0  0  0  0  0
  -25.9233  -30.8396   21.3599 C   0  0  0  0  0  0
  -25.9968  -29.4733   20.7107 C   0  0  0  0  0  0
  -27.1920  -28.7236   20.6936 C   0  0  0  0  0  0
  -26.0511  -26.9453   19.4897 C   0  0  0  0  0  0
  -24.8586  -27.6932   19.5099 C   0  0  0  0  0  0
  -23.6010  -29.8259   20.1685 C   0  0  0  0  0  0
  -25.4114  -36.3120   24.0338 C   0  0  1  0  0  0
  -20.5853  -28.3663   23.1342 C   0  0  2  0  0  0
  -20.6766  -26.9410   22.5430 C   0  0  0  0  0  0
  -19.5748  -26.6396   21.5220 C   0  0  0  0  0  0
  -18.1918  -26.7935   22.1621 C   0  0  0  0  0  0
  -19.1513  -28.8840   23.2908 C   0  0  0  0  0  0
  -18.9444  -30.1446   23.8916 C   0  0  0  0  0  0
  -17.6450  -30.6591   24.0570 C   0  0  0  0  0  0
  -25.9041  -34.9488   23.5131 C   0  0  0  0  0  0
  -16.5339  -29.9098   23.6325 C   0  0  0  0  0  0
  -16.7254  -28.6519   23.0335 C   0  0  0  0  0  0
  -26.4468  -31.6609   25.0711 C   0  0  0  0  0  0
  -25.3735  -31.3708   26.1458 C   0  0  0  0  0  0
  -27.0280  -30.3055   24.6057 C   0  0  0  0  0  0
  -27.6051  -32.4313   25.7473 C   0  0  0  0  0  0
  -27.5584  -37.1816   24.8465 C   0  0  0  0  0  0
  -21.4130  -29.3029   22.3761 N   0  0  0  0  0  0
  -26.4300  -37.3804   23.9406 N   0  0  0  0  0  0
  -24.6630  -31.0824   22.1003 N   0  0  0  0  0  0
  -23.4179  -28.8220   23.3064 O   0  0  0  0  0  0
  -28.4426  -26.7901   20.0785 O   0  0  0  0  0  0
  -26.5597  -34.8935   22.4688 O   0  0  0  0  0  0
  -23.5335  -32.1452   23.7525 O   0  0  0  0  0  0
  -29.9021  -19.1699   21.2268 C   0  0  0  0  0  0
  -30.2722  -19.5160   19.9103 C   0  0  0  0  0  0
  -29.8166  -17.8182   21.6161 C   0  0  0  0  0  0
  -30.4670  -17.1613   19.3668 C   0  0  0  0  0  0
  -30.5536  -18.5096   18.9600 C   0  0  0  0  0  0
  -30.1224  -16.7999   20.6919 C   0  0  0  0  0  0
  -30.9195  -18.7484   17.5470 C   0  0  0  0  0  0
  -30.7350  -19.7976   16.7138 C   0  0  0  0  0  0
  -29.6480  -25.0409   18.9401 C   0  0  0  0  0  0
  -31.2679  -19.7220   15.2909 C   0  0  0  0  0  0
  -30.0113  -21.1040   17.0255 C   0  0  0  0  0  0
  -28.5132  -25.3678   19.9180 C   0  0  0  0  0  0
  -30.9884  -22.2807   17.2284 C   0  0  0  0  0  0
  -30.3620  -23.6660   16.9925 C   0  0  0  0  0  0
  -30.0206  -15.4372   21.0931 N   0  0  0  0  0  0
  -29.4410  -24.0510   18.0596 N   0  0  0  0  0  0
  -30.6967  -25.6920   18.9705 O   0  0  0  0  0  0
  -31.4638  -12.3427   19.1316 H   0  0  0  0  0  0
  -30.2888  -11.2551   19.8103 H   0  0  0  0  0  0
  -29.7285  -11.7815   17.4178 H   0  0  0  0  0  0
  -29.6769  -13.4876   17.7848 H   0  0  0  0  0  0
  -27.8154  -11.3128   18.8027 H   0  0  0  0  0  0
  -27.3693  -12.6568   17.7857 H   0  0  0  0  0  0
  -27.7158  -14.2527   19.5866 H   0  0  0  0  0  0
  -28.6599  -11.9355   21.3477 H   0  0  0  0  0  0
  -28.4719  -13.5765   21.8776 H   0  0  0  0  0  0
  -25.2750   -9.5703   22.4739 H   0  0  0  0  0  0
  -24.0003   -7.4642   22.7471 H   0  0  0  0  0  0
  -21.0823   -8.8746   19.8952 H   0  0  0  0  0  0
  -22.3655  -10.9660   19.6153 H   0  0  0  0  0  0
  -21.2013   -7.6143   23.9717 H   0  0  0  0  0  0
  -21.1487   -6.0517   25.9079 H   0  0  0  0  0  0
  -22.0596   -2.7603   23.2843 H   0  0  0  0  0  0
  -22.4114  -11.9916   22.4794 H   0  0  0  0  0  0
  -21.1127  -13.1289   22.2587 H   0  0  0  0  0  0
  -24.6685  -15.8437   20.5165 H   0  0  0  0  0  0
  -26.2946  -15.6263   20.1076 H   0  0  0  0  0  0
  -26.7116  -32.5543   23.1160 H   0  0  0  0  0  0
  -25.0088  -33.9802   25.0497 H   0  0  0  0  0  0
  -22.6839  -31.3100   21.4179 H   0  0  0  0  0  0
  -23.3752  -35.9647   23.3315 H   0  0  0  0  0  0
  -24.3582  -36.8905   22.2044 H   0  0  0  0  0  0
  -23.7248  -37.6530   23.6631 H   0  0  0  0  0  0
  -26.0290  -31.6036   20.5879 H   0  0  0  0  0  0
  -26.8154  -30.8970   21.9722 H   0  0  0  0  0  0
  -28.0897  -29.1219   21.1455 H   0  0  0  0  0  0
  -26.0179  -25.9964   18.9784 H   0  0  0  0  0  0
  -23.9669  -27.2937   19.0464 H   0  0  0  0  0  0
  -23.7084  -30.5991   19.4069 H   0  0  0  0  0  0
  -22.7236  -29.2464   19.8766 H   0  0  0  0  0  0
  -25.1295  -36.1987   25.0833 H   0  0  0  0  0  0
  -20.9923  -28.3225   24.1471 H   0  0  0  0  0  0
  -20.5692  -26.2268   23.3605 H   0  0  0  0  0  0
  -21.6639  -26.7483   22.1211 H   0  0  0  0  0  0
  -19.6916  -25.6311   21.1236 H   0  0  0  0  0  0
  -19.6690  -27.3219   20.6759 H   0  0  0  0  0  0
  -17.4196  -26.6674   21.4015 H   0  0  0  0  0  0
  -18.0311  -26.0084   22.9023 H   0  0  0  0  0  0
  -19.7921  -30.7253   24.2299 H   0  0  0  0  0  0
  -17.5008  -31.6273   24.5167 H   0  0  0  0  0  0
  -15.5343  -30.3004   23.7649 H   0  0  0  0  0  0
  -15.8650  -28.0852   22.7030 H   0  0  0  0  0  0
  -24.5916  -30.7045   25.7800 H   0  0  0  0  0  0
  -24.8911  -32.2856   26.4907 H   0  0  0  0  0  0
  -25.8094  -30.8882   27.0214 H   0  0  0  0  0  0
  -26.2809  -29.6835   24.1111 H   0  0  0  0  0  0
  -27.4068  -29.7270   25.4494 H   0  0  0  0  0  0
  -27.8637  -30.4384   23.9178 H   0  0  0  0  0  0
  -27.2687  -33.3606   26.2082 H   0  0  0  0  0  0
  -28.3850  -32.6886   25.0292 H   0  0  0  0  0  0
  -28.0730  -31.8411   26.5362 H   0  0  0  0  0  0
  -28.2623  -38.0094   24.7513 H   0  0  0  0  0  0
  -28.1062  -36.2632   24.6299 H   0  0  0  0  0  0
  -27.2298  -37.1482   25.8867 H   0  0  0  0  0  0
  -20.9293  -29.8740   21.6973 H   0  0  0  0  0  0
  -26.0191  -38.2886   24.1397 H   0  0  0  0  0  0
  -29.6872  -19.9483   21.9452 H   0  0  0  0  0  0
  -30.3560  -20.5618   19.6607 H   0  0  0  0  0  0
  -29.5323  -17.5716   22.6297 H   0  0  0  0  0  0
  -30.6706  -16.3914   18.6352 H   0  0  0  0  0  0
  -31.4565  -17.9145   17.1156 H   0  0  0  0  0  0
  -32.0547  -20.4562   15.1215 H   0  0  0  0  0  0
  -30.4681  -19.9081   14.5739 H   0  0  0  0  0  0
  -31.6864  -18.7405   15.0646 H   0  0  0  0  0  0
  -29.3255  -21.0055   17.8639 H   0  0  0  0  0  0
  -29.3624  -21.3169   16.1745 H   0  0  0  0  0  0
  -28.7667  -24.9329   20.8853 H   0  0  0  0  0  0
  -27.5987  -24.8741   19.6025 H   0  0  0  0  0  0
  -31.8192  -22.1879   16.5297 H   0  0  0  0  0  0
  -31.4416  -22.2291   18.2192 H   0  0  0  0  0  0
  -29.8241  -23.6798   16.0435 H   0  0  0  0  0  0
  -31.1601  -24.4026   16.8784 H   0  0  0  0  0  0
  -29.2128  -15.1884   21.6437 H   0  0  0  0  0  0
  -28.5553  -23.5641   18.1052 H   0  0  0  0  0  0
  1 25  1  0  0  0
  1 30  2  0  0  0
  1 85  1  0  0  0
  2  3  1  0  0  0
  2 25  1  0  0  0
  2 88  1  0  0  0
  2 89  1  0  0  0
  3  4  1  0  0  0
  3 90  1  0  0  0
  3 91  1  0  0  0
  4  5  1  0  0  0
  4 92  1  0  0  0
  4 93  1  0  0  0
  5  6  1  0  0  0
  5 26  1  0  0  0
  5 94  1  0  0  0
  6 25  1  0  0  0
  6 95  1  0  0  0
  6 96  1  0  0  0
  7  8  2  0  0  0
  7 26  1  0  0  0
  7 29  1  0  0  0
  8  9  1  0  0  0
  8 22  1  0  0  0
  9 10  1  0  0  0
  9 27  2  0  0  0
 10 11  2  0  0  0
 10 15  1  0  0  0
 11 12  1  0  0  0
 11 97  1  0  0  0
 12 13  2  0  0  0
 12 98  1  0  0  0
 13 14  1  0  0  0
 13 31  1  0  0  0
 14 15  2  0  0  0
 14 99  1  0  0  0
 15100  1  0  0  0
 16 17  2  0  0  0
 16 21  1  0  0  0
 16 31  1  0  0  0
 17 18  1  0  0  0
 17101  1  0  0  0
 18 19  2  0  0  0
 18102  1  0  0  0
 19 20  1  0  0  0
 19 24  1  0  0  0
 20 21  2  0  0  0
 20103  1  0  0  0
 21 23  1  0  0  0
 22 28  1  0  0  0
 22 32  2  0  0  0
 26 27  1  0  0  0
 28104  1  0  0  0
 28105  1  0  0  0
 29106  1  0  0  0
 29107  1  0  0  0
 33 34  1  0  0  0
 33 66  1  0  0  0
 33 70  2  0  0  0
 34 36  1  0  0  0
 34 59  1  0  0  0
 34108  1  0  0  0
 35 44  2  0  0  0
 35 45  1  0  0  0
 35 68  1  0  0  0
 36 56  1  0  0  0
 36109  1  0  0  0
 37 39  1  0  0  0
 37 47  1  0  0  0
 37 66  1  0  0  0
 37110  1  0  0  0
 38 43  2  0  0  0
 38 46  1  0  0  0
 38 47  1  0  0  0
 39 64  1  0  0  0
 39 67  2  0  0  0
 40 52  1  0  0  0
 40 53  2  0  0  0
 40 58  1  0  0  0
 41111  1  0  0  0
 41112  1  0  0  0
 41113  1  0  0  0
 41 48  1  0  0  0
 42 43  1  0  0  0
 42 66  1  0  0  0
 42114  1  0  0  0
 42115  1  0  0  0
 43 44  1  0  0  0
 44116  1  0  0  0
 45 46  2  0  0  0
 45117  1  0  0  0
 46118  1  0  0  0
 47119  1  0  0  0
 47120  1  0  0  0
 48 56  1  0  0  0
 48 65  1  0  0  0
 48121  1  0  0  0
 49 50  1  0  0  0
 49 53  1  0  0  0
 49 64  1  0  0  0
 49122  1  0  0  0
 50 51  1  0  0  0
 50123  1  0  0  0
 50124  1  0  0  0
 51 52  1  0  0  0
 51125  1  0  0  0
 51126  1  0  0  0
 52127  1  0  0  0
 52128  1  0  0  0
 53 54  1  0  0  0
 54 55  2  0  0  0
 54129  1  0  0  0
 55 57  1  0  0  0
 55130  1  0  0  0
 56 69  2  0  0  0
 57 58  2  0  0  0
 57131  1  0  0  0
 58132  1  0  0  0
 59 60  1  0  0  0
 59 61  1  0  0  0
 59 62  1  0  0  0
 60133  1  0  0  0
 60134  1  0  0  0
 60135  1  0  0  0
 61136  1  0  0  0
 61137  1  0  0  0
 61138  1  0  0  0
 62139  1  0  0  0
 62140  1  0  0  0
 62141  1  0  0  0
 63 65  1  0  0  0
 63142  1  0  0  0
 63143  1  0  0  0
 63144  1  0  0  0
 64145  1  0  0  0
 65146  1  0  0  0
 68 82  1  0  0  0
 71 72  2  0  0  0
 71 73  1  0  0  0
 71147  1  0  0  0
 72 75  1  0  0  0
 72148  1  0  0  0
 73 76  2  0  0  0
 73149  1  0  0  0
 74 75  2  0  0  0
 74 76  1  0  0  0
 74150  1  0  0  0
 75 77  1  0  0  0
 76 85  1  0  0  0
 77 78  2  0  0  0
 77151  1  0  0  0
 78 80  1  0  0  0
 78 81  1  0  0  0
 79 82  1  0  0  0
 79 86  1  0  0  0
 79 87  2  0  0  0
 80152  1  0  0  0
 80153  1  0  0  0
 80154  1  0  0  0
 81 83  1  0  0  0
 81155  1  0  0  0
 81156  1  0  0  0
 82157  1  0  0  0
 82158  1  0  0  0
 83 84  1  0  0  0
 83159  1  0  0  0
 83160  1  0  0  0
 84 86  1  0  0  0
 84161  1  0  0  0
 84162  1  0  0  0
 85163  1  0  0  0
 86164  1  0  0  0
M  ISO  4   1 100  68 101  82 101  85 100
M  END
> <chiral flag>
0

> <version>
0

> <s_m_source_file>
/data/baiqing/PycharmProjects/Reinvent-master-3.2/result/LINK_invent/BTK/process_docking_weight1_custom_sum_contain_oxygen_bond_distance_aromatic_linkinvent_7_9_3/rearranged_h_0009.sdf

> <i_m_source_file_index>
41

> <r_mmod_Potential_Energy-OPLS-2005>
-47.867488861084

> <r_mmod_Stretch_Energy-OPLS-2005>
34.0919456481934

> <r_mmod_Bend_Energy-OPLS-2005>
116.273788452148

> <r_mmod_Torsional_Energy-OPLS-2005>
239.526306152344

> <r_mmod_Improper_Torsional_Energy-OPLS-2005>
4.02795839309692

> <r_mmod_Van_der_Waal_Energy-OPLS-2005>
165.130706787109

> <r_mmod_Electrostatic_Energy-OPLS-2005>
-376.466979980469

> <r_mmod_Solvation_Energy-OPLS-2005>
-241.500335693359

> <b_mmod_Minimization_Converged-OPLS-2005>
0

> <r_mmod_RMS_Derivative-OPLS-2005>
1.16987276077271

$$$$
42
                    3D
 Structure written by MMmdl.
151159  0  0  1  0            999 V2000
  -30.5144  -14.9178   20.4216 C   0  0  0  0  0  0
  -30.4560  -12.5635   19.4882 C   0  0  0  0  0  0
  -29.5264  -12.5230   18.2513 C   0  0  0  0  0  0
  -28.0577  -12.3107   18.6687 C   0  0  0  0  0  0
  -27.6385  -13.2351   19.8408 C   0  0  2  0  0  0
  -28.6835  -13.2240   20.9781 C   0  0  0  0  0  0
  -25.2517  -13.8197   20.5688 C   0  0  0  0  0  0
  -24.1817  -13.0447   20.9226 C   0  0  0  0  0  0
  -24.6407  -11.6925   20.8751 C   0  0  0  0  0  0
  -23.9077  -10.4301   21.0411 C   0  0  0  0  0  0
  -24.3626   -9.4211   21.9183 C   0  0  0  0  0  0
  -23.6293   -8.2252   22.0756 C   0  0  0  0  0  0
  -22.4274   -8.0294   21.3548 C   0  0  0  0  0  0
  -21.9910   -9.0271   20.4653 C   0  0  0  0  0  0
  -22.7247  -10.2144   20.3061 C   0  0  0  0  0  0
  -21.6856   -6.0735   22.5278 C   0  0  0  0  0  0
  -21.4013   -6.5638   23.8210 C   0  0  0  0  0  0
  -21.3655   -5.6791   24.9175 C   0  0  0  0  0  0
  -21.6042   -4.3053   24.7227 C   0  0  0  0  0  0
  -21.8819   -3.8147   23.4347 C   0  0  0  0  0  0
  -21.9191   -4.6961   22.3399 C   0  0  0  0  0  0
  -22.7834  -13.5231   21.1879 C   0  0  0  0  0  0
  -22.1661   -4.2145   21.0976 F   0  0  0  0  0  0
  -21.5626   -3.4539   25.7741 F   0  0  0  0  0  0
  -29.9688  -13.6382   20.3941 N   0  0  0  0  0  0
  -26.2930  -12.9401   20.3226 N   0  0  0  0  0  0
  -25.9332  -11.6544   20.5721 N   0  0  0  0  0  0
  -22.0471  -12.8227   22.0434 N   0  0  0  0  0  0
  -25.4206  -15.1921   20.4086 N   0  0  0  0  0  0
  -31.7037  -15.0545   20.1122 O   0  0  0  0  0  0
  -21.6645   -6.8885   21.4243 O   0  0  0  0  0  0
  -22.3518  -14.5535   20.6722 O   0  0  0  0  0  0
  -24.6453  -31.8441   23.1886 C   0  0  0  0  0  0
  -25.9228  -32.4687   23.8285 C   0  0  1  0  0  0
  -27.2215  -27.1380   20.1428 C   0  0  0  0  0  0
  -25.5979  -33.8495   24.2202 N   0  0  0  0  0  0
  -23.4494  -30.4652   21.5334 C   0  0  2  0  0  0
  -24.8997  -28.8955   20.1096 C   0  0  0  0  0  0
  -22.7585  -29.4551   22.4839 C   0  0  0  0  0  0
  -18.0323  -28.1388   22.8471 C   0  0  0  0  0  0
  -24.1499  -36.7250   23.2636 C   0  0  0  0  0  0
  -26.0067  -30.7174   21.3895 C   0  0  0  0  0  0
  -26.0784  -29.3297   20.7290 C   0  0  0  0  0  0
  -27.2403  -28.4676   20.7297 C   0  0  0  0  0  0
  -26.0137  -26.8102   19.4837 C   0  0  0  0  0  0
  -24.8804  -27.6480   19.4724 C   0  0  0  0  0  0
  -23.6771  -29.7977   20.1520 C   0  0  0  0  0  0
  -25.4129  -36.3024   24.0310 C   0  0  1  0  0  0
  -20.5936  -28.3723   23.1217 C   0  0  2  0  0  0
  -20.6803  -26.9423   22.5390 C   0  0  0  0  0  0
  -19.5769  -26.6378   21.5203 C   0  0  0  0  0  0
  -18.1958  -26.7921   22.1627 C   0  0  0  0  0  0
  -19.1578  -28.8874   23.2837 C   0  0  0  0  0  0
  -18.9489  -30.1467   23.8864 C   0  0  0  0  0  0
  -17.6484  -30.6578   24.0561 C   0  0  0  0  0  0
  -25.9084  -34.9398   23.5063 C   0  0  0  0  0  0
  -16.5378  -29.9071   23.6329 C   0  0  0  0  0  0
  -16.7306  -28.6494   23.0344 C   0  0  0  0  0  0
  -26.4542  -31.6547   25.0722 C   0  0  0  0  0  0
  -25.3735  -31.3761   26.1429 C   0  0  0  0  0  0
  -27.0384  -30.2926   24.6319 C   0  0  0  0  0  0
  -27.6082  -32.4303   25.7506 C   0  0  0  0  0  0
  -27.5571  -37.1794   24.8473 C   0  0  0  0  0  0
  -21.4276  -29.3050   22.3584 N   0  0  0  0  0  0
  -26.4295  -37.3731   23.9395 N   0  0  0  0  0  0
  -24.7201  -31.0306   22.0916 N   0  0  0  0  0  0
  -23.4223  -28.8097   23.2992 O   0  0  0  0  0  0
  -28.2633  -26.1376   20.2110 O   0  0  0  0  0  0
  -26.5658  -34.8894   22.4634 O   0  0  0  0  0  0
  -23.5572  -32.1322   23.7099 O   0  0  0  0  0  0
  -30.5010  -18.5328   20.1498 C   0  0  0  0  0  0
  -30.2088  -19.9711   20.0805 C   0  0  0  0  0  0
  -28.2809  -18.1368   20.8248 C   0  0  0  0  0  0
  -27.9796  -19.5497   20.7531 C   0  0  0  0  0  0
  -29.5385  -17.5266   20.5263 C   0  0  0  0  0  0
  -28.9240  -20.5643   20.3727 C   0  0  0  0  0  0
  -28.9212  -23.3481   20.2721 C   0  0  0  0  0  0
  -26.5588  -19.9644   21.1017 C   0  0  0  0  0  0
  -27.9030  -24.6331   20.0204 C   0  0  0  0  0  0
  -28.4403  -22.0162   20.2307 N   0  0  0  0  0  0
  -29.6325  -16.0010   20.6400 N   0  0  0  0  0  0
  -30.1160  -23.5721   20.4861 O   0  0  0  0  0  0
  -31.4858  -12.7382   19.1738 H   0  0  0  0  0  0
  -30.4598  -11.6021   20.0044 H   0  0  0  0  0  0
  -29.8392  -11.7314   17.5690 H   0  0  0  0  0  0
  -29.6159  -13.4575   17.6962 H   0  0  0  0  0  0
  -27.9498  -11.2672   18.9676 H   0  0  0  0  0  0
  -27.3954  -12.4519   17.8138 H   0  0  0  0  0  0
  -27.6115  -14.2425   19.4245 H   0  0  0  0  0  0
  -28.7614  -12.2332   21.4284 H   0  0  0  0  0  0
  -28.3849  -13.9001   21.7808 H   0  0  0  0  0  0
  -25.2769   -9.5681   22.4759 H   0  0  0  0  0  0
  -23.9997   -7.4639   22.7478 H   0  0  0  0  0  0
  -21.0831   -8.8796   19.8962 H   0  0  0  0  0  0
  -22.3704  -10.9687   19.6177 H   0  0  0  0  0  0
  -21.2010   -7.6146   23.9710 H   0  0  0  0  0  0
  -21.1472   -6.0525   25.9072 H   0  0  0  0  0  0
  -22.0599   -2.7611   23.2855 H   0  0  0  0  0  0
  -22.4081  -11.9890   22.4828 H   0  0  0  0  0  0
  -21.1089  -13.1261   22.2637 H   0  0  0  0  0  0
  -24.6472  -15.8400   20.5114 H   0  0  0  0  0  0
  -26.2404  -15.6209   20.0005 H   0  0  0  0  0  0
  -26.7297  -32.5292   23.1019 H   0  0  0  0  0  0
  -25.0120  -33.9613   25.0345 H   0  0  0  0  0  0
  -22.7525  -31.2914   21.3793 H   0  0  0  0  0  0
  -23.3744  -35.9602   23.3325 H   0  0  0  0  0  0
  -24.3579  -36.8847   22.2044 H   0  0  0  0  0  0
  -23.7285  -37.6470   23.6650 H   0  0  0  0  0  0
  -26.1686  -31.4734   20.6200 H   0  0  0  0  0  0
  -26.8745  -30.7635   22.0355 H   0  0  0  0  0  0
  -28.1362  -28.7953   21.2380 H   0  0  0  0  0  0
  -25.9003  -25.8626   18.9816 H   0  0  0  0  0  0
  -23.9828  -27.3108   18.9725 H   0  0  0  0  0  0
  -23.8161  -30.5734   19.3977 H   0  0  0  0  0  0
  -22.7919  -29.2419   19.8383 H   0  0  0  0  0  0
  -25.1318  -36.1855   25.0801 H   0  0  0  0  0  0
  -21.0043  -28.3318   24.1332 H   0  0  0  0  0  0
  -20.5693  -26.2339   23.3614 H   0  0  0  0  0  0
  -21.6668  -26.7416   22.1188 H   0  0  0  0  0  0
  -19.6929  -25.6287   21.1238 H   0  0  0  0  0  0
  -19.6689  -27.3181   20.6725 H   0  0  0  0  0  0
  -17.4218  -26.6651   21.4045 H   0  0  0  0  0  0
  -18.0374  -26.0073   22.9037 H   0  0  0  0  0  0
  -19.7967  -30.7295   24.2214 H   0  0  0  0  0  0
  -17.5035  -31.6252   24.5173 H   0  0  0  0  0  0
  -15.5375  -30.2959   23.7666 H   0  0  0  0  0  0
  -15.8712  -28.0804   22.7059 H   0  0  0  0  0  0
  -24.5883  -30.7142   25.7758 H   0  0  0  0  0  0
  -24.8970  -32.2956   26.4835 H   0  0  0  0  0  0
  -25.8020  -30.8936   27.0222 H   0  0  0  0  0  0
  -26.2991  -29.6660   24.1314 H   0  0  0  0  0  0
  -27.3953  -29.7222   25.4906 H   0  0  0  0  0  0
  -27.8930  -30.4126   23.9657 H   0  0  0  0  0  0
  -27.2674  -33.3600   26.2076 H   0  0  0  0  0  0
  -28.3903  -32.6870   25.0347 H   0  0  0  0  0  0
  -28.0742  -31.8436   26.5435 H   0  0  0  0  0  0
  -28.2618  -38.0057   24.7456 H   0  0  0  0  0  0
  -28.1037  -36.2588   24.6381 H   0  0  0  0  0  0
  -27.2280  -37.1537   25.8875 H   0  0  0  0  0  0
  -20.9488  -29.8769   21.6764 H   0  0  0  0  0  0
  -26.0161  -38.2807   24.1355 H   0  0  0  0  0  0
  -31.4990  -18.2091   19.8898 H   0  0  0  0  0  0
  -31.0046  -20.6281   19.7592 H   0  0  0  0  0  0
  -27.4782  -17.4766   21.1222 H   0  0  0  0  0  0
  -26.0229  -19.1654   21.6150 H   0  0  0  0  0  0
  -26.0022  -20.2111   20.1976 H   0  0  0  0  0  0
  -26.5511  -20.8296   21.7648 H   0  0  0  0  0  0
  -27.0215  -24.4334   20.6310 H   0  0  0  0  0  0
  -27.5869  -24.5146   18.9844 H   0  0  0  0  0  0
  -27.4372  -22.0463   20.1106 H   0  0  0  0  0  0
  -28.7418  -15.6070   20.9001 H   0  0  0  0  0  0
  1 25  1  0  0  0
  1 30  2  0  0  0
  1 81  1  0  0  0
  2  3  1  0  0  0
  2 25  1  0  0  0
  2 83  1  0  0  0
  2 84  1  0  0  0
  3  4  1  0  0  0
  3 85  1  0  0  0
  3 86  1  0  0  0
  4  5  1  0  0  0
  4 87  1  0  0  0
  4 88  1  0  0  0
  5  6  1  0  0  0
  5 26  1  0  0  0
  5 89  1  0  0  0
  6 25  1  0  0  0
  6 90  1  0  0  0
  6 91  1  0  0  0
  7  8  2  0  0  0
  7 26  1  0  0  0
  7 29  1  0  0  0
  8  9  1  0  0  0
  8 22  1  0  0  0
  9 10  1  0  0  0
  9 27  2  0  0  0
 10 11  2  0  0  0
 10 15  1  0  0  0
 11 12  1  0  0  0
 11 92  1  0  0  0
 12 13  2  0  0  0
 12 93  1  0  0  0
 13 14  1  0  0  0
 13 31  1  0  0  0
 14 15  2  0  0  0
 14 94  1  0  0  0
 15 95  1  0  0  0
 16 17  2  0  0  0
 16 21  1  0  0  0
 16 31  1  0  0  0
 17 18  1  0  0  0
 17 96  1  0  0  0
 18 19  2  0  0  0
 18 97  1  0  0  0
 19 20  1  0  0  0
 19 24  1  0  0  0
 20 21  2  0  0  0
 20 98  1  0  0  0
 21 23  1  0  0  0
 22 28  1  0  0  0
 22 32  2  0  0  0
 26 27  1  0  0  0
 28 99  1  0  0  0
 28100  1  0  0  0
 29101  1  0  0  0
 29102  1  0  0  0
 33 34  1  0  0  0
 33 66  1  0  0  0
 33 70  2  0  0  0
 34 36  1  0  0  0
 34 59  1  0  0  0
 34103  1  0  0  0
 35 44  2  0  0  0
 35 45  1  0  0  0
 35 68  1  0  0  0
 36 56  1  0  0  0
 36104  1  0  0  0
 37 39  1  0  0  0
 37 47  1  0  0  0
 37 66  1  0  0  0
 37105  1  0  0  0
 38 43  2  0  0  0
 38 46  1  0  0  0
 38 47  1  0  0  0
 39 64  1  0  0  0
 39 67  2  0  0  0
 40 52  1  0  0  0
 40 53  2  0  0  0
 40 58  1  0  0  0
 41106  1  0  0  0
 41107  1  0  0  0
 41108  1  0  0  0
 41 48  1  0  0  0
 42 43  1  0  0  0
 42 66  1  0  0  0
 42109  1  0  0  0
 42110  1  0  0  0
 43 44  1  0  0  0
 44111  1  0  0  0
 45 46  2  0  0  0
 45112  1  0  0  0
 46113  1  0  0  0
 47114  1  0  0  0
 47115  1  0  0  0
 48 56  1  0  0  0
 48 65  1  0  0  0
 48116  1  0  0  0
 49 50  1  0  0  0
 49 53  1  0  0  0
 49 64  1  0  0  0
 49117  1  0  0  0
 50 51  1  0  0  0
 50118  1  0  0  0
 50119  1  0  0  0
 51 52  1  0  0  0
 51120  1  0  0  0
 51121  1  0  0  0
 52122  1  0  0  0
 52123  1  0  0  0
 53 54  1  0  0  0
 54 55  2  0  0  0
 54124  1  0  0  0
 55 57  1  0  0  0
 55125  1  0  0  0
 56 69  2  0  0  0
 57 58  2  0  0  0
 57126  1  0  0  0
 58127  1  0  0  0
 59 60  1  0  0  0
 59 61  1  0  0  0
 59 62  1  0  0  0
 60128  1  0  0  0
 60129  1  0  0  0
 60130  1  0  0  0
 61131  1  0  0  0
 61132  1  0  0  0
 61133  1  0  0  0
 62134  1  0  0  0
 62135  1  0  0  0
 62136  1  0  0  0
 63 65  1  0  0  0
 63137  1  0  0  0
 63138  1  0  0  0
 63139  1  0  0  0
 64140  1  0  0  0
 65141  1  0  0  0
 68 79  1  0  0  0
 71 72  2  0  0  0
 71 75  1  0  0  0
 71142  1  0  0  0
 72 76  1  0  0  0
 72143  1  0  0  0
 73 74  1  0  0  0
 73 75  2  0  0  0
 73144  1  0  0  0
 74 76  2  0  0  0
 74 78  1  0  0  0
 75 81  1  0  0  0
 76 80  1  0  0  0
 77 79  1  0  0  0
 77 80  1  0  0  0
 77 82  2  0  0  0
 78145  1  0  0  0
 78146  1  0  0  0
 78147  1  0  0  0
 79148  1  0  0  0
 79149  1  0  0  0
 80150  1  0  0  0
 81151  1  0  0  0
M  ISO  4   1 100  68 101  79 101  81 100
M  END
> <chiral flag>
0

> <version>
0

> <s_m_source_file>
/data/baiqing/PycharmProjects/Reinvent-master-3.2/result/LINK_invent/BTK/process_docking_weight1_custom_sum_contain_oxygen_bond_distance_aromatic_linkinvent_7_9_3/rearranged_h_0009.sdf

> <i_m_source_file_index>
42

> <r_mmod_Potential_Energy-OPLS-2005>
406.607940673828

> <r_mmod_Stretch_Energy-OPLS-2005>
220.072738647461

> <r_mmod_Bend_Energy-OPLS-2005>
280.334228515625

> <r_mmod_Torsional_Energy-OPLS-2005>
222.647247314453

> <r_mmod_Improper_Torsional_Energy-OPLS-2005>
4.48283672332764

> <r_mmod_Van_der_Waal_Energy-OPLS-2005>
131.61994934082

> <r_mmod_Electrostatic_Energy-OPLS-2005>
-387.265258789062

> <r_mmod_Solvation_Energy-OPLS-2005>
-249.595458984375

> <b_mmod_Minimization_Converged-OPLS-2005>
0

> <r_mmod_RMS_Derivative-OPLS-2005>
1.20512986183167

$$$$
43
                    3D
 Structure written by MMmdl.
164172  0  0  1  0            999 V2000
  -30.5947  -14.5056   20.4503 C   0  0  0  0  0  0
  -30.4436  -12.3022   19.3885 C   0  0  0  0  0  0
  -29.4847  -12.4421   18.1846 C   0  0  0  0  0  0
  -28.0031  -12.3095   18.6057 C   0  0  0  0  0  0
  -27.6392  -13.1605   19.8488 C   0  0  2  0  0  0
  -28.7004  -12.9692   20.9613 C   0  0  0  0  0  0
  -25.2469  -13.7960   20.5633 C   0  0  0  0  0  0
  -24.1732  -13.0336   20.9199 C   0  0  0  0  0  0
  -24.6276  -11.6784   20.8824 C   0  0  0  0  0  0
  -23.8949  -10.4231   21.0473 C   0  0  0  0  0  0
  -24.3532   -9.4148   21.9231 C   0  0  0  0  0  0
  -23.6228   -8.2178   22.0755 C   0  0  0  0  0  0
  -22.4202   -8.0223   21.3551 C   0  0  0  0  0  0
  -21.9845   -9.0190   20.4640 C   0  0  0  0  0  0
  -22.7151  -10.2081   20.3087 C   0  0  0  0  0  0
  -21.6807   -6.0695   22.5283 C   0  0  0  0  0  0
  -21.3981   -6.5610   23.8223 C   0  0  0  0  0  0
  -21.3665   -5.6772   24.9193 C   0  0  0  0  0  0
  -21.6057   -4.3035   24.7251 C   0  0  0  0  0  0
  -21.8808   -3.8113   23.4378 C   0  0  0  0  0  0
  -21.9192   -4.6926   22.3430 C   0  0  0  0  0  0
  -22.7793  -13.5190   21.1877 C   0  0  0  0  0  0
  -22.1664   -4.2115   21.1007 F   0  0  0  0  0  0
  -21.5657   -3.4529   25.7771 F   0  0  0  0  0  0
  -30.0266  -13.2771   20.3967 N   0  0  0  0  0  0
  -26.2868  -12.9069   20.3284 N   0  0  0  0  0  0
  -25.9164  -11.6285   20.5790 N   0  0  0  0  0  0
  -22.0407  -12.8265   22.0450 N   0  0  0  0  0  0
  -25.4062  -15.1667   20.3991 N   0  0  0  0  0  0
  -31.7898  -14.7380   20.2563 O   0  0  0  0  0  0
  -21.6585   -6.8809   21.4226 O   0  0  0  0  0  0
  -22.3554  -14.5534   20.6706 O   0  0  0  0  0  0
  -24.6133  -31.8639   23.2120 C   0  0  0  0  0  0
  -25.9014  -32.4784   23.8411 C   0  0  1  0  0  0
  -27.2293  -27.4460   20.0829 C   0  0  0  0  0  0
  -25.5875  -33.8589   24.2339 N   0  0  0  0  0  0
  -23.4006  -30.4884   21.5553 C   0  0  2  0  0  0
  -24.8418  -28.9651   20.1168 C   0  0  0  0  0  0
  -22.7383  -29.4598   22.4985 C   0  0  0  0  0  0
  -18.0279  -28.1325   22.8453 C   0  0  0  0  0  0
  -24.1475  -36.7306   23.2644 C   0  0  0  0  0  0
  -25.9284  -30.8374   21.3598 C   0  0  0  0  0  0
  -26.0062  -29.4763   20.7016 C   0  0  0  0  0  0
  -27.2042  -28.7270   20.6793 C   0  0  0  0  0  0
  -26.0453  -26.9566   19.4834 C   0  0  0  0  0  0
  -24.8548  -27.7019   19.5060 C   0  0  0  0  0  0
  -23.6056  -29.8311   20.1690 C   0  0  0  0  0  0
  -25.4086  -36.3084   24.0348 C   0  0  1  0  0  0
  -20.5893  -28.3543   23.1334 C   0  0  2  0  0  0
  -20.6722  -26.9215   22.5565 C   0  0  0  0  0  0
  -19.5687  -26.6157   21.5383 C   0  0  0  0  0  0
  -18.1872  -26.7794   22.1785 C   0  0  0  0  0  0
  -19.1545  -28.8749   23.2878 C   0  0  0  0  0  0
  -18.9483  -30.1326   23.8933 C   0  0  0  0  0  0
  -17.6498  -30.6453   24.0658 C   0  0  0  0  0  0
  -25.9005  -34.9450   23.5137 C   0  0  0  0  0  0
  -16.5365  -29.8976   23.6428 C   0  0  0  0  0  0
  -16.7289  -28.6439   23.0396 C   0  0  0  0  0  0
  -26.4460  -31.6544   25.0725 C   0  0  0  0  0  0
  -25.3752  -31.3673   26.1502 C   0  0  0  0  0  0
  -27.0290  -30.2990   24.6061 C   0  0  0  0  0  0
  -27.6006  -32.4300   25.7484 C   0  0  0  0  0  0
  -27.5569  -37.1815   24.8475 C   0  0  0  0  0  0
  -21.4148  -29.2818   22.3584 N   0  0  0  0  0  0
  -26.4278  -37.3772   23.9414 N   0  0  0  0  0  0
  -24.6653  -31.0756   22.1018 N   0  0  0  0  0  0
  -23.4113  -28.8299   23.3195 O   0  0  0  0  0  0
  -28.3995  -26.7135   20.1106 O   0  0  0  0  0  0
  -26.5582  -34.8919   22.4714 O   0  0  0  0  0  0
  -23.5337  -32.1362   23.7545 O   0  0  0  0  0  0
  -29.7789  -18.7069   22.0123 C   0  0  0  0  0  0
  -28.5179  -19.2270   21.6437 C   0  0  0  0  0  0
  -30.2238  -17.4570   21.5369 C   0  0  0  0  0  0
  -27.6829  -18.5018   20.7638 C   0  0  0  0  0  0
  -29.3939  -16.7300   20.6644 C   0  0  0  0  0  0
  -28.1556  -17.2722   20.2543 C   0  0  0  0  0  0
  -26.3694  -19.0016   20.3074 C   0  0  0  0  0  0
  -26.0008  -20.2937   20.2245 C   0  0  0  0  0  0
  -24.6820  -20.6506   19.7276 C   0  0  0  0  0  0
  -27.9104  -23.2969   18.5024 C   0  0  0  0  0  0
  -26.3764  -23.2144   18.4712 C   0  0  0  0  0  0
  -28.4460  -24.7283   18.6784 C   0  0  0  0  0  0
  -25.8694  -21.8841   17.8960 C   0  0  0  0  0  0
  -28.2802  -25.2852   20.1004 C   0  0  0  0  0  0
  -29.6561  -15.4261   20.1895 N   0  0  0  0  0  0
  -24.6952  -21.4086   18.6206 N   0  0  0  0  0  0
  -23.6194  -20.3157   20.2459 O   0  0  0  0  0  0
  -27.4091  -16.5875   19.3538 F   0  0  0  0  0  0
  -31.4725  -12.4666   19.0637 H   0  0  0  0  0  0
  -30.4145  -11.2936   19.7996 H   0  0  0  0  0  0
  -29.7170  -11.6741   17.4462 H   0  0  0  0  0  0
  -29.6445  -13.3963   17.6789 H   0  0  0  0  0  0
  -27.8125  -11.2561   18.8149 H   0  0  0  0  0  0
  -27.3524  -12.5760   17.7709 H   0  0  0  0  0  0
  -27.6328  -14.1881   19.5032 H   0  0  0  0  0  0
  -28.6826  -11.9406   21.3263 H   0  0  0  0  0  0
  -28.4768  -13.5999   21.8234 H   0  0  0  0  0  0
  -25.2659   -9.5657   22.4822 H   0  0  0  0  0  0
  -23.9950   -7.4567   22.7455 H   0  0  0  0  0  0
  -21.0800   -8.8695   19.8928 H   0  0  0  0  0  0
  -22.3602  -10.9635   19.6219 H   0  0  0  0  0  0
  -21.1912   -7.6111   23.9712 H   0  0  0  0  0  0
  -21.1519   -6.0512   25.9108 H   0  0  0  0  0  0
  -22.0581   -2.7571   23.2896 H   0  0  0  0  0  0
  -22.3978  -11.9923   22.4888 H   0  0  0  0  0  0
  -21.1041  -13.1356   22.2618 H   0  0  0  0  0  0
  -24.6014  -15.7781   20.4170 H   0  0  0  0  0  0
  -26.2225  -15.6096   19.9875 H   0  0  0  0  0  0
  -26.7085  -32.5507   23.1191 H   0  0  0  0  0  0
  -25.0059  -33.9731   25.0505 H   0  0  0  0  0  0
  -22.6890  -31.3036   21.4242 H   0  0  0  0  0  0
  -23.3710  -35.9667   23.3309 H   0  0  0  0  0  0
  -24.3576  -36.8912   22.2061 H   0  0  0  0  0  0
  -23.7267  -37.6545   23.6633 H   0  0  0  0  0  0
  -26.0362  -31.6076   20.5951 H   0  0  0  0  0  0
  -26.8190  -30.8876   21.9756 H   0  0  0  0  0  0
  -28.1042  -29.1185   21.1347 H   0  0  0  0  0  0
  -26.0222  -25.9998   18.9881 H   0  0  0  0  0  0
  -23.9633  -27.2981   19.0467 H   0  0  0  0  0  0
  -23.7194  -30.6119   19.4152 H   0  0  0  0  0  0
  -22.7284  -29.2580   19.8645 H   0  0  0  0  0  0
  -25.1261  -36.1966   25.0843 H   0  0  0  0  0  0
  -20.9934  -28.3264   24.1504 H   0  0  0  0  0  0
  -20.5495  -26.2253   23.3858 H   0  0  0  0  0  0
  -21.6579  -26.7115   22.1363 H   0  0  0  0  0  0
  -19.6857  -25.6018   21.1511 H   0  0  0  0  0  0
  -19.6659  -27.2937   20.6896 H   0  0  0  0  0  0
  -17.4029  -26.6348   21.4323 H   0  0  0  0  0  0
  -18.0461  -26.0090   22.9397 H   0  0  0  0  0  0
  -19.7964  -30.7062   24.2382 H   0  0  0  0  0  0
  -17.5043  -31.6055   24.5396 H   0  0  0  0  0  0
  -15.5331  -30.2762   23.7813 H   0  0  0  0  0  0
  -15.8730  -28.0678   22.7224 H   0  0  0  0  0  0
  -24.5890  -30.7025   25.7917 H   0  0  0  0  0  0
  -24.8966  -32.2837   26.4953 H   0  0  0  0  0  0
  -25.8128  -30.8884   27.0257 H   0  0  0  0  0  0
  -26.2837  -29.6778   24.1073 H   0  0  0  0  0  0
  -27.4059  -29.7187   25.4487 H   0  0  0  0  0  0
  -27.8653  -30.4333   23.9197 H   0  0  0  0  0  0
  -27.2550  -33.3577   26.2059 H   0  0  0  0  0  0
  -28.3791  -32.6905   25.0299 H   0  0  0  0  0  0
  -28.0666  -31.8434   26.5413 H   0  0  0  0  0  0
  -28.2602  -38.0096   24.7475 H   0  0  0  0  0  0
  -28.1045  -36.2628   24.6325 H   0  0  0  0  0  0
  -27.2281  -37.1500   25.8881 H   0  0  0  0  0  0
  -20.9412  -29.7999   21.6316 H   0  0  0  0  0  0
  -26.0160  -38.2855   24.1404 H   0  0  0  0  0  0
  -30.4051  -19.2548   22.6977 H   0  0  0  0  0  0
  -28.1903  -20.1706   22.0563 H   0  0  0  0  0  0
  -31.1768  -17.0656   21.8614 H   0  0  0  0  0  0
  -25.6534  -18.2409   20.0140 H   0  0  0  0  0  0
  -26.6755  -21.0911   20.4929 H   0  0  0  0  0  0
  -28.2993  -22.9064   17.5631 H   0  0  0  0  0  0
  -28.3069  -22.6383   19.2750 H   0  0  0  0  0  0
  -25.9713  -24.0142   17.8528 H   0  0  0  0  0  0
  -25.9839  -23.3841   19.4745 H   0  0  0  0  0  0
  -27.9576  -25.3786   17.9520 H   0  0  0  0  0  0
  -29.5039  -24.7567   18.4186 H   0  0  0  0  0  0
  -26.6493  -21.1244   17.8991 H   0  0  0  0  0  0
  -25.6105  -22.0123   16.8446 H   0  0  0  0  0  0
  -29.0457  -24.8602   20.7518 H   0  0  0  0  0  0
  -27.3409  -24.9632   20.5495 H   0  0  0  0  0  0
  -28.8246  -14.9938   19.8221 H   0  0  0  0  0  0
  -23.7952  -21.6434   18.2203 H   0  0  0  0  0  0
  1 25  1  0  0  0
  1 30  2  0  0  0
  1 85  1  0  0  0
  2  3  1  0  0  0
  2 25  1  0  0  0
  2 89  1  0  0  0
  2 90  1  0  0  0
  3  4  1  0  0  0
  3 91  1  0  0  0
  3 92  1  0  0  0
  4  5  1  0  0  0
  4 93  1  0  0  0
  4 94  1  0  0  0
  5  6  1  0  0  0
  5 26  1  0  0  0
  5 95  1  0  0  0
  6 25  1  0  0  0
  6 96  1  0  0  0
  6 97  1  0  0  0
  7  8  2  0  0  0
  7 26  1  0  0  0
  7 29  1  0  0  0
  8  9  1  0  0  0
  8 22  1  0  0  0
  9 10  1  0  0  0
  9 27  2  0  0  0
 10 11  2  0  0  0
 10 15  1  0  0  0
 11 12  1  0  0  0
 11 98  1  0  0  0
 12 13  2  0  0  0
 12 99  1  0  0  0
 13 14  1  0  0  0
 13 31  1  0  0  0
 14 15  2  0  0  0
 14100  1  0  0  0
 15101  1  0  0  0
 16 17  2  0  0  0
 16 21  1  0  0  0
 16 31  1  0  0  0
 17 18  1  0  0  0
 17102  1  0  0  0
 18 19  2  0  0  0
 18103  1  0  0  0
 19 20  1  0  0  0
 19 24  1  0  0  0
 20 21  2  0  0  0
 20104  1  0  0  0
 21 23  1  0  0  0
 22 28  1  0  0  0
 22 32  2  0  0  0
 26 27  1  0  0  0
 28105  1  0  0  0
 28106  1  0  0  0
 29107  1  0  0  0
 29108  1  0  0  0
 33 34  1  0  0  0
 33 66  1  0  0  0
 33 70  2  0  0  0
 34 36  1  0  0  0
 34 59  1  0  0  0
 34109  1  0  0  0
 35 44  2  0  0  0
 35 45  1  0  0  0
 35 68  1  0  0  0
 36 56  1  0  0  0
 36110  1  0  0  0
 37 39  1  0  0  0
 37 47  1  0  0  0
 37 66  1  0  0  0
 37111  1  0  0  0
 38 43  2  0  0  0
 38 46  1  0  0  0
 38 47  1  0  0  0
 39 64  1  0  0  0
 39 67  2  0  0  0
 40 52  1  0  0  0
 40 53  2  0  0  0
 40 58  1  0  0  0
 41112  1  0  0  0
 41113  1  0  0  0
 41114  1  0  0  0
 41 48  1  0  0  0
 42 43  1  0  0  0
 42 66  1  0  0  0
 42115  1  0  0  0
 42116  1  0  0  0
 43 44  1  0  0  0
 44117  1  0  0  0
 45 46  2  0  0  0
 45118  1  0  0  0
 46119  1  0  0  0
 47120  1  0  0  0
 47121  1  0  0  0
 48 56  1  0  0  0
 48 65  1  0  0  0
 48122  1  0  0  0
 49 50  1  0  0  0
 49 53  1  0  0  0
 49 64  1  0  0  0
 49123  1  0  0  0
 50 51  1  0  0  0
 50124  1  0  0  0
 50125  1  0  0  0
 51 52  1  0  0  0
 51126  1  0  0  0
 51127  1  0  0  0
 52128  1  0  0  0
 52129  1  0  0  0
 53 54  1  0  0  0
 54 55  2  0  0  0
 54130  1  0  0  0
 55 57  1  0  0  0
 55131  1  0  0  0
 56 69  2  0  0  0
 57 58  2  0  0  0
 57132  1  0  0  0
 58133  1  0  0  0
 59 60  1  0  0  0
 59 61  1  0  0  0
 59 62  1  0  0  0
 60134  1  0  0  0
 60135  1  0  0  0
 60136  1  0  0  0
 61137  1  0  0  0
 61138  1  0  0  0
 61139  1  0  0  0
 62140  1  0  0  0
 62141  1  0  0  0
 62142  1  0  0  0
 63 65  1  0  0  0
 63143  1  0  0  0
 63144  1  0  0  0
 63145  1  0  0  0
 64146  1  0  0  0
 65147  1  0  0  0
 68 84  1  0  0  0
 71 72  2  0  0  0
 71 73  1  0  0  0
 71148  1  0  0  0
 72 74  1  0  0  0
 72149  1  0  0  0
 73 75  2  0  0  0
 73150  1  0  0  0
 74 76  2  0  0  0
 74 77  1  0  0  0
 75 76  1  0  0  0
 75 85  1  0  0  0
 76 88  1  0  0  0
 77 78  2  0  0  0
 77151  1  0  0  0
 78 79  1  0  0  0
 78152  1  0  0  0
 79 86  1  0  0  0
 79 87  2  0  0  0
 80 81  1  0  0  0
 80 82  1  0  0  0
 80153  1  0  0  0
 80154  1  0  0  0
 81 83  1  0  0  0
 81155  1  0  0  0
 81156  1  0  0  0
 82 84  1  0  0  0
 82157  1  0  0  0
 82158  1  0  0  0
 83 86  1  0  0  0
 83159  1  0  0  0
 83160  1  0  0  0
 84161  1  0  0  0
 84162  1  0  0  0
 85163  1  0  0  0
 86164  1  0  0  0
M  ISO  4   1 100  68 101  84 101  85 100
M  END
> <chiral flag>
0

> <version>
0

> <s_m_source_file>
/data/baiqing/PycharmProjects/Reinvent-master-3.2/result/LINK_invent/BTK/process_docking_weight1_custom_sum_contain_oxygen_bond_distance_aromatic_linkinvent_7_9_3/rearranged_h_0009.sdf

> <i_m_source_file_index>
43

> <r_mmod_Potential_Energy-OPLS-2005>
-32.2837905883789

> <r_mmod_Stretch_Energy-OPLS-2005>
31.746898651123

> <r_mmod_Bend_Energy-OPLS-2005>
113.744667053223

> <r_mmod_Torsional_Energy-OPLS-2005>
293.330657958984

> <r_mmod_Improper_Torsional_Energy-OPLS-2005>
19.7640399932861

> <r_mmod_Van_der_Waal_Energy-OPLS-2005>
164.276184082031

> <r_mmod_Electrostatic_Energy-OPLS-2005>
-452.899963378906

> <r_mmod_Solvation_Energy-OPLS-2005>
-228.931411743164

> <b_mmod_Minimization_Converged-OPLS-2005>
0

> <r_mmod_RMS_Derivative-OPLS-2005>
6.58684778213501

$$$$
44
                    3D
 Structure written by MMmdl.
158166  0  0  1  0            999 V2000
  -30.5033  -15.0197   20.4030 C   0  0  0  0  0  0
  -30.4417  -12.6339   19.5191 C   0  0  0  0  0  0
  -29.5286  -12.5412   18.2725 C   0  0  0  0  0  0
  -28.0659  -12.3136   18.6906 C   0  0  0  0  0  0
  -27.6308  -13.2510   19.8464 C   0  0  2  0  0  0
  -28.6674  -13.3015   20.9899 C   0  0  0  0  0  0
  -25.2494  -13.8229   20.5764 C   0  0  0  0  0  0
  -24.1795  -13.0459   20.9246 C   0  0  0  0  0  0
  -24.6398  -11.6936   20.8776 C   0  0  0  0  0  0
  -23.9073  -10.4312   21.0419 C   0  0  0  0  0  0
  -24.3634   -9.4221   21.9194 C   0  0  0  0  0  0
  -23.6303   -8.2258   22.0754 C   0  0  0  0  0  0
  -22.4284   -8.0304   21.3545 C   0  0  0  0  0  0
  -21.9918   -9.0284   20.4657 C   0  0  0  0  0  0
  -22.7242  -10.2160   20.3071 C   0  0  0  0  0  0
  -21.6871   -6.0754   22.5282 C   0  0  0  0  0  0
  -21.4021   -6.5655   23.8216 C   0  0  0  0  0  0
  -21.3649   -5.6803   24.9174 C   0  0  0  0  0  0
  -21.6035   -4.3063   24.7217 C   0  0  0  0  0  0
  -21.8818   -3.8158   23.4335 C   0  0  0  0  0  0
  -21.9198   -4.6978   22.3395 C   0  0  0  0  0  0
  -22.7816  -13.5247   21.1858 C   0  0  0  0  0  0
  -22.1670   -4.2161   21.0971 F   0  0  0  0  0  0
  -21.5604   -3.4542   25.7728 F   0  0  0  0  0  0
  -29.9354  -13.7391   20.3946 N   0  0  0  0  0  0
  -26.2902  -12.9444   20.3300 N   0  0  0  0  0  0
  -25.9340  -11.6571   20.5779 N   0  0  0  0  0  0
  -22.0446  -12.8276   22.0425 N   0  0  0  0  0  0
  -25.4197  -15.1962   20.4210 N   0  0  0  0  0  0
  -31.7053  -15.0708   20.1158 O   0  0  0  0  0  0
  -21.6648   -6.8904   21.4247 O   0  0  0  0  0  0
  -22.3518  -14.5537   20.6665 O   0  0  0  0  0  0
  -24.6493  -31.8401   23.1852 C   0  0  0  0  0  0
  -25.9236  -32.4682   23.8261 C   0  0  1  0  0  0
  -27.2000  -27.0698   20.1641 C   0  0  0  0  0  0
  -25.5967  -33.8490   24.2168 N   0  0  0  0  0  0
  -23.4550  -30.4591   21.5324 C   0  0  2  0  0  0
  -24.9008  -28.8756   20.1126 C   0  0  0  0  0  0
  -22.7605  -29.4506   22.4832 C   0  0  0  0  0  0
  -18.0318  -28.1400   22.8456 C   0  0  0  0  0  0
  -24.1488  -36.7253   23.2639 C   0  0  0  0  0  0
  -26.0162  -30.6918   21.3946 C   0  0  0  0  0  0
  -26.0831  -29.2976   20.7349 C   0  0  0  0  0  0
  -27.2340  -28.4125   20.7386 C   0  0  0  0  0  0
  -25.9902  -26.7653   19.5016 C   0  0  0  0  0  0
  -24.8713  -27.6263   19.4783 C   0  0  0  0  0  0
  -23.6848  -29.7909   20.1520 C   0  0  0  0  0  0
  -25.4126  -36.3029   24.0310 C   0  0  1  0  0  0
  -20.5929  -28.3720   23.1224 C   0  0  2  0  0  0
  -20.6788  -26.9415   22.5402 C   0  0  0  0  0  0
  -19.5762  -26.6360   21.5214 C   0  0  0  0  0  0
  -18.1950  -26.7929   22.1621 C   0  0  0  0  0  0
  -19.1572  -28.8879   23.2827 C   0  0  0  0  0  0
  -18.9486  -30.1480   23.8848 C   0  0  0  0  0  0
  -17.6477  -30.6589   24.0553 C   0  0  0  0  0  0
  -25.9076  -34.9404   23.5048 C   0  0  0  0  0  0
  -16.5369  -29.9078   23.6331 C   0  0  0  0  0  0
  -16.7302  -28.6505   23.0334 C   0  0  0  0  0  0
  -26.4515  -31.6579   25.0740 C   0  0  0  0  0  0
  -25.3676  -31.3824   26.1432 C   0  0  0  0  0  0
  -27.0378  -30.2960   24.6382 C   0  0  0  0  0  0
  -27.6041  -32.4350   25.7523 C   0  0  0  0  0  0
  -27.5582  -37.1785   24.8455 C   0  0  0  0  0  0
  -21.4284  -29.3048   22.3603 N   0  0  0  0  0  0
  -26.4287  -37.3752   23.9404 N   0  0  0  0  0  0
  -24.7273  -31.0199   22.0924 N   0  0  0  0  0  0
  -23.4224  -28.8057   23.2999 O   0  0  0  0  0  0
  -28.2279  -26.0396   20.2292 O   0  0  0  0  0  0
  -26.5669  -34.8900   22.4629 O   0  0  0  0  0  0
  -23.5591  -32.1302   23.7032 O   0  0  0  0  0  0
  -29.9391  -19.0874   17.9804 C   0  0  0  0  0  0
  -29.2457  -18.9620   20.6174 C   0  0  0  0  0  0
  -30.0337  -17.8281   18.6205 C   0  0  0  0  0  0
  -29.4855  -20.2748   18.5995 C   0  0  0  0  0  0
  -29.7107  -17.6652   19.9988 C   0  0  0  0  0  0
  -29.1393  -20.3260   19.9737 C   0  0  0  0  0  0
  -28.2980  -21.5740   16.9135 C   0  0  0  0  0  0
  -30.3902  -16.6560   17.7185 C   0  0  0  0  0  0
  -28.2279  -22.9120   16.1891 C   0  0  0  0  0  0
  -27.9110  -24.4841   20.1774 C   0  0  0  0  0  0
  -28.9448  -23.1111   20.2789 C   0  0  0  0  0  0
  -29.3171  -21.4031   17.7664 N   0  0  0  0  0  0
  -29.7230  -16.2192   20.5964 N   0  0  0  0  0  0
  -27.4395  -20.7149   16.6957 O   0  0  0  0  0  0
  -28.5978  -21.5877   20.5501 O   0  0  0  0  0  0
  -31.4740  -12.7975   19.2045 H   0  0  0  0  0  0
  -30.4503  -11.6883   20.0625 H   0  0  0  0  0  0
  -29.8599  -11.7316   17.6202 H   0  0  0  0  0  0
  -29.6086  -13.4569   17.6862 H   0  0  0  0  0  0
  -27.9767  -11.2739   19.0089 H   0  0  0  0  0  0
  -27.4002  -12.4299   17.8334 H   0  0  0  0  0  0
  -27.5878  -14.2490   19.4096 H   0  0  0  0  0  0
  -28.7730  -12.3260   21.4674 H   0  0  0  0  0  0
  -28.3537  -13.9972   21.7708 H   0  0  0  0  0  0
  -25.2787   -9.5676   22.4769 H   0  0  0  0  0  0
  -24.0004   -7.4645   22.7482 H   0  0  0  0  0  0
  -21.0834   -8.8809   19.8989 H   0  0  0  0  0  0
  -22.3698  -10.9706   19.6186 H   0  0  0  0  0  0
  -21.2028   -7.6170   23.9720 H   0  0  0  0  0  0
  -21.1462   -6.0537   25.9077 H   0  0  0  0  0  0
  -22.0599   -2.7619   23.2836 H   0  0  0  0  0  0
  -22.4080  -11.9971   22.4860 H   0  0  0  0  0  0
  -21.1054  -13.1292   22.2590 H   0  0  0  0  0  0
  -24.6512  -15.8475   20.5364 H   0  0  0  0  0  0
  -26.2605  -15.6347   20.0665 H   0  0  0  0  0  0
  -26.7305  -32.5252   23.0978 H   0  0  0  0  0  0
  -25.0094  -33.9603   25.0304 H   0  0  0  0  0  0
  -22.7589  -31.2865   21.3780 H   0  0  0  0  0  0
  -23.3763  -35.9570   23.3272 H   0  0  0  0  0  0
  -24.3562  -36.8921   22.2057 H   0  0  0  0  0  0
  -23.7221  -37.6429   23.6699 H   0  0  0  0  0  0
  -26.1806  -31.4429   20.6214 H   0  0  0  0  0  0
  -26.8846  -30.7425   22.0404 H   0  0  0  0  0  0
  -28.1325  -28.7301   21.2490 H   0  0  0  0  0  0
  -25.8660  -25.8139   19.0106 H   0  0  0  0  0  0
  -23.9701  -27.2999   18.9771 H   0  0  0  0  0  0
  -23.8351  -30.5687   19.4027 H   0  0  0  0  0  0
  -22.7960  -29.2461   19.8305 H   0  0  0  0  0  0
  -25.1306  -36.1856   25.0805 H   0  0  0  0  0  0
  -21.0010  -28.3313   24.1351 H   0  0  0  0  0  0
  -20.5664  -26.2342   23.3629 H   0  0  0  0  0  0
  -21.6659  -26.7402   22.1220 H   0  0  0  0  0  0
  -19.6923  -25.6262   21.1268 H   0  0  0  0  0  0
  -19.6709  -27.3139   20.6721 H   0  0  0  0  0  0
  -17.4218  -26.6672   21.4031 H   0  0  0  0  0  0
  -18.0347  -26.0088   22.9031 H   0  0  0  0  0  0
  -19.7964  -30.7313   24.2189 H   0  0  0  0  0  0
  -17.5032  -31.6257   24.5176 H   0  0  0  0  0  0
  -15.5365  -30.2962   23.7687 H   0  0  0  0  0  0
  -15.8705  -28.0822   22.7047 H   0  0  0  0  0  0
  -24.5814  -30.7220   25.7757 H   0  0  0  0  0  0
  -24.8921  -32.3044   26.4796 H   0  0  0  0  0  0
  -25.7929  -30.9017   27.0252 H   0  0  0  0  0  0
  -26.3018  -29.6680   24.1359 H   0  0  0  0  0  0
  -27.3915  -29.7271   25.4988 H   0  0  0  0  0  0
  -27.8950  -30.4168   23.9760 H   0  0  0  0  0  0
  -27.2634  -33.3657   26.2063 H   0  0  0  0  0  0
  -28.3874  -32.6910   25.0379 H   0  0  0  0  0  0
  -28.0686  -31.8512   26.5476 H   0  0  0  0  0  0
  -28.2585  -38.0097   24.7514 H   0  0  0  0  0  0
  -28.1093  -36.2629   24.6257 H   0  0  0  0  0  0
  -27.2304  -37.1397   25.8859 H   0  0  0  0  0  0
  -20.9504  -29.8804   21.6813 H   0  0  0  0  0  0
  -26.0149  -38.2814   24.1428 H   0  0  0  0  0  0
  -30.1682  -19.1350   16.9254 H   0  0  0  0  0  0
  -28.9283  -18.9128   21.6485 H   0  0  0  0  0  0
  -30.3050  -16.9208   16.6641 H   0  0  0  0  0  0
  -29.7094  -15.8203   17.8754 H   0  0  0  0  0  0
  -31.4160  -16.3298   17.8874 H   0  0  0  0  0  0
  -28.0980  -23.7252   16.9039 H   0  0  0  0  0  0
  -27.3842  -22.9316   15.4987 H   0  0  0  0  0  0
  -29.1384  -23.0906   15.6164 H   0  0  0  0  0  0
  -27.1687  -24.3425   20.9629 H   0  0  0  0  0  0
  -27.3613  -24.3218   19.2528 H   0  0  0  0  0  0
  -29.5812  -23.3366   21.1352 H   0  0  0  0  0  0
  -29.6393  -23.1790   19.4465 H   0  0  0  0  0  0
  -29.9624  -22.1694   17.8912 H   0  0  0  0  0  0
  -28.8915  -16.0189   21.1339 H   0  0  0  0  0  0
  1 25  1  0  0  0
  1 30  2  0  0  0
  1 83  1  0  0  0
  2  3  1  0  0  0
  2 25  1  0  0  0
  2 86  1  0  0  0
  2 87  1  0  0  0
  3  4  1  0  0  0
  3 88  1  0  0  0
  3 89  1  0  0  0
  4  5  1  0  0  0
  4 90  1  0  0  0
  4 91  1  0  0  0
  5  6  1  0  0  0
  5 26  1  0  0  0
  5 92  1  0  0  0
  6 25  1  0  0  0
  6 93  1  0  0  0
  6 94  1  0  0  0
  7  8  2  0  0  0
  7 26  1  0  0  0
  7 29  1  0  0  0
  8  9  1  0  0  0
  8 22  1  0  0  0
  9 10  1  0  0  0
  9 27  2  0  0  0
 10 11  2  0  0  0
 10 15  1  0  0  0
 11 12  1  0  0  0
 11 95  1  0  0  0
 12 13  2  0  0  0
 12 96  1  0  0  0
 13 14  1  0  0  0
 13 31  1  0  0  0
 14 15  2  0  0  0
 14 97  1  0  0  0
 15 98  1  0  0  0
 16 17  2  0  0  0
 16 21  1  0  0  0
 16 31  1  0  0  0
 17 18  1  0  0  0
 17 99  1  0  0  0
 18 19  2  0  0  0
 18100  1  0  0  0
 19 20  1  0  0  0
 19 24  1  0  0  0
 20 21  2  0  0  0
 20101  1  0  0  0
 21 23  1  0  0  0
 22 28  1  0  0  0
 22 32  2  0  0  0
 26 27  1  0  0  0
 28102  1  0  0  0
 28103  1  0  0  0
 29104  1  0  0  0
 29105  1  0  0  0
 33 34  1  0  0  0
 33 66  1  0  0  0
 33 70  2  0  0  0
 34 36  1  0  0  0
 34 59  1  0  0  0
 34106  1  0  0  0
 35 44  2  0  0  0
 35 45  1  0  0  0
 35 68  1  0  0  0
 36 56  1  0  0  0
 36107  1  0  0  0
 37 39  1  0  0  0
 37 47  1  0  0  0
 37 66  1  0  0  0
 37108  1  0  0  0
 38 43  2  0  0  0
 38 46  1  0  0  0
 38 47  1  0  0  0
 39 64  1  0  0  0
 39 67  2  0  0  0
 40 52  1  0  0  0
 40 53  2  0  0  0
 40 58  1  0  0  0
 41109  1  0  0  0
 41110  1  0  0  0
 41111  1  0  0  0
 41 48  1  0  0  0
 42 43  1  0  0  0
 42 66  1  0  0  0
 42112  1  0  0  0
 42113  1  0  0  0
 43 44  1  0  0  0
 44114  1  0  0  0
 45 46  2  0  0  0
 45115  1  0  0  0
 46116  1  0  0  0
 47117  1  0  0  0
 47118  1  0  0  0
 48 56  1  0  0  0
 48 65  1  0  0  0
 48119  1  0  0  0
 49 50  1  0  0  0
 49 53  1  0  0  0
 49 64  1  0  0  0
 49120  1  0  0  0
 50 51  1  0  0  0
 50121  1  0  0  0
 50122  1  0  0  0
 51 52  1  0  0  0
 51123  1  0  0  0
 51124  1  0  0  0
 52125  1  0  0  0
 52126  1  0  0  0
 53 54  1  0  0  0
 54 55  2  0  0  0
 54127  1  0  0  0
 55 57  1  0  0  0
 55128  1  0  0  0
 56 69  2  0  0  0
 57 58  2  0  0  0
 57129  1  0  0  0
 58130  1  0  0  0
 59 60  1  0  0  0
 59 61  1  0  0  0
 59 62  1  0  0  0
 60131  1  0  0  0
 60132  1  0  0  0
 60133  1  0  0  0
 61134  1  0  0  0
 61135  1  0  0  0
 61136  1  0  0  0
 62137  1  0  0  0
 62138  1  0  0  0
 62139  1  0  0  0
 63 65  1  0  0  0
 63140  1  0  0  0
 63141  1  0  0  0
 63142  1  0  0  0
 64143  1  0  0  0
 65144  1  0  0  0
 68 80  1  0  0  0
 71 73  2  0  0  0
 71 74  1  0  0  0
 71145  1  0  0  0
 72 75  2  0  0  0
 72 76  1  0  0  0
 72146  1  0  0  0
 73 75  1  0  0  0
 73 78  1  0  0  0
 74 76  2  0  0  0
 74 82  1  0  0  0
 75 83  1  0  0  0
 76 85  1  0  0  0
 77 79  1  0  0  0
 77 82  1  0  0  0
 77 84  2  0  0  0
 78147  1  0  0  0
 78148  1  0  0  0
 78149  1  0  0  0
 79150  1  0  0  0
 79151  1  0  0  0
 79152  1  0  0  0
 80 81  1  0  0  0
 80153  1  0  0  0
 80154  1  0  0  0
 81 85  1  0  0  0
 81155  1  0  0  0
 81156  1  0  0  0
 82157  1  0  0  0
 83158  1  0  0  0
M  ISO  4   1 100  68 101  80 101  83 100
M  END
> <chiral flag>
0

> <version>
0

> <s_m_source_file>
/data/baiqing/PycharmProjects/Reinvent-master-3.2/result/LINK_invent/BTK/process_docking_weight1_custom_sum_contain_oxygen_bond_distance_aromatic_linkinvent_7_9_3/rearranged_h_0009.sdf

> <i_m_source_file_index>
44

> <r_mmod_Potential_Energy-OPLS-2005>
637.32373046875

> <r_mmod_Stretch_Energy-OPLS-2005>
342.601837158203

> <r_mmod_Bend_Energy-OPLS-2005>
308.793060302734

> <r_mmod_Torsional_Energy-OPLS-2005>
286.234680175781

> <r_mmod_Improper_Torsional_Energy-OPLS-2005>
5.07237529754639

> <r_mmod_Van_der_Waal_Energy-OPLS-2005>
137.317733764648

> <r_mmod_Electrostatic_Energy-OPLS-2005>
-451.006469726562

> <r_mmod_Solvation_Energy-OPLS-2005>
-242.502075195312

> <b_mmod_Minimization_Converged-OPLS-2005>
0

> <r_mmod_RMS_Derivative-OPLS-2005>
2.5938196182251

$$$$
45
                    3D
 Structure written by MMmdl.
174182  0  0  1  0            999 V2000
  -30.7664  -14.3112   20.7287 C   0  0  0  0  0  0
  -30.4239  -12.2723   19.3792 C   0  0  0  0  0  0
  -29.4850  -12.5471   18.1901 C   0  0  0  0  0  0
  -28.0104  -12.3884   18.6056 C   0  0  0  0  0  0
  -27.6740  -13.1946   19.8867 C   0  0  2  0  0  0
  -28.7084  -12.8959   20.9947 C   0  0  0  0  0  0
  -25.2642  -13.8152   20.5668 C   0  0  0  0  0  0
  -24.1863  -13.0431   20.9159 C   0  0  0  0  0  0
  -24.6412  -11.6902   20.8702 C   0  0  0  0  0  0
  -23.9079  -10.4285   21.0390 C   0  0  0  0  0  0
  -24.3621   -9.4194   21.9168 C   0  0  0  0  0  0
  -23.6285   -8.2242   22.0752 C   0  0  0  0  0  0
  -22.4272   -8.0279   21.3537 C   0  0  0  0  0  0
  -21.9902   -9.0271   20.4656 C   0  0  0  0  0  0
  -22.7242  -10.2152   20.3058 C   0  0  0  0  0  0
  -21.6855   -6.0724   22.5271 C   0  0  0  0  0  0
  -21.4012   -6.5642   23.8206 C   0  0  0  0  0  0
  -21.3672   -5.6808   24.9185 C   0  0  0  0  0  0
  -21.6055   -4.3069   24.7229 C   0  0  0  0  0  0
  -21.8825   -3.8150   23.4358 C   0  0  0  0  0  0
  -21.9183   -4.6953   22.3408 C   0  0  0  0  0  0
  -22.7898  -13.5247   21.1847 C   0  0  0  0  0  0
  -22.1644   -4.2139   21.0978 F   0  0  0  0  0  0
  -21.5635   -3.4555   25.7743 F   0  0  0  0  0  0
  -30.0669  -13.1750   20.4817 N   0  0  0  0  0  0
  -26.3086  -12.9293   20.3409 N   0  0  0  0  0  0
  -25.9325  -11.6454   20.5728 N   0  0  0  0  0  0
  -22.0518  -12.8219   22.0396 N   0  0  0  0  0  0
  -25.4399  -15.1844   20.4051 N   0  0  0  0  0  0
  -31.6903  -14.7282   20.0229 O   0  0  0  0  0  0
  -21.6651   -6.8868   21.4231 O   0  0  0  0  0  0
  -22.3594  -14.5570   20.6733 O   0  0  0  0  0  0
  -24.6109  -31.8694   23.2156 C   0  0  0  0  0  0
  -25.9022  -32.4824   23.8438 C   0  0  1  0  0  0
  -27.2505  -27.4867   20.0771 C   0  0  0  0  0  0
  -25.5903  -33.8626   24.2355 N   0  0  0  0  0  0
  -23.3987  -30.4926   21.5528 C   0  0  2  0  0  0
  -24.8476  -28.9602   20.1219 C   0  0  0  0  0  0
  -22.7395  -29.4676   22.5014 C   0  0  0  0  0  0
  -18.0310  -28.1334   22.8525 C   0  0  0  0  0  0
  -24.1496  -36.7318   23.2645 C   0  0  0  0  0  0
  -25.9245  -30.8457   21.3659 C   0  0  0  0  0  0
  -26.0035  -29.4824   20.7169 C   0  0  0  0  0  0
  -27.2075  -28.7496   20.6988 C   0  0  0  0  0  0
  -26.0834  -26.9688   19.4765 C   0  0  0  0  0  0
  -24.8784  -27.6956   19.5067 C   0  0  0  0  0  0
  -23.6067  -29.8228   20.1672 C   0  0  0  0  0  0
  -25.4103  -36.3101   24.0355 C   0  0  1  0  0  0
  -20.5876  -28.3662   23.1338 C   0  0  2  0  0  0
  -20.6792  -26.9367   22.5484 C   0  0  0  0  0  0
  -19.5789  -26.6304   21.5271 C   0  0  0  0  0  0
  -18.1973  -26.7855   22.1708 C   0  0  0  0  0  0
  -19.1542  -28.8826   23.2909 C   0  0  0  0  0  0
  -18.9448  -30.1447   23.8876 C   0  0  0  0  0  0
  -17.6448  -30.6580   24.0497 C   0  0  0  0  0  0
  -25.9037  -34.9465   23.5149 C   0  0  0  0  0  0
  -16.5347  -29.9055   23.6291 C   0  0  0  0  0  0
  -16.7292  -28.6445   23.0379 C   0  0  0  0  0  0
  -26.4482  -31.6595   25.0756 C   0  0  0  0  0  0
  -25.3796  -31.3687   26.1546 C   0  0  0  0  0  0
  -27.0331  -30.3047   24.6124 C   0  0  0  0  0  0
  -27.6074  -32.4311   25.7496 C   0  0  0  0  0  0
  -27.5576  -37.1806   24.8468 C   0  0  0  0  0  0
  -21.4135  -29.3015   22.3727 N   0  0  0  0  0  0
  -26.4276  -37.3778   23.9422 N   0  0  0  0  0  0
  -24.6623  -31.0825   22.1031 N   0  0  0  0  0  0
  -23.4174  -28.8221   23.3056 O   0  0  0  0  0  0
  -28.4435  -26.8249   19.9584 O   0  0  0  0  0  0
  -26.5574  -34.8903   22.4689 O   0  0  0  0  0  0
  -23.5309  -32.1436   23.7560 O   0  0  0  0  0  0
  -28.0274  -17.6491   21.3494 C   0  0  0  0  0  0
  -29.0434  -16.7156   21.0755 C   0  0  0  0  0  0
  -28.1980  -17.1372   23.7241 C   0  0  0  0  0  0
  -27.5722  -17.8426   22.6740 C   0  0  0  0  0  0
  -29.6061  -15.9537   22.1250 C   0  0  0  0  0  0
  -29.2094  -16.1785   23.4600 C   0  0  0  0  0  0
  -29.5485  -15.6985   25.7926 C   0  0  0  0  0  0
  -24.8375  -22.5770   21.2373 C   0  0  0  0  0  0
  -24.1134  -21.4363   20.5037 C   0  0  0  0  0  0
  -25.9721  -23.1718   20.4036 C   0  0  0  0  0  0
  -23.4029  -20.4491   21.4493 C   0  0  0  0  0  0
  -26.7853  -24.1931   21.2050 C   0  0  0  0  0  0
  -24.3134  -19.7699   22.4984 C   0  0  0  0  0  0
  -28.1345  -24.4919   20.5376 C   0  0  0  0  0  0
  -25.6077  -19.1580   21.9284 C   0  0  0  0  0  0
  -28.7322  -25.8453   20.9444 C   0  0  0  0  0  0
  -30.4970  -14.8732   21.9102 N   0  0  0  0  0  0
  -26.5060  -18.7020   22.9836 N   0  0  0  0  0  0
  -29.8211  -15.4076   24.4297 O   0  0  0  0  0  0
  -31.4674  -12.3852   19.0782 H   0  0  0  0  0  0
  -30.3224  -11.2371   19.7100 H   0  0  0  0  0  0
  -29.7194  -11.8718   17.3659 H   0  0  0  0  0  0
  -29.6524  -13.5606   17.8196 H   0  0  0  0  0  0
  -27.8232  -11.3267   18.7737 H   0  0  0  0  0  0
  -27.3504  -12.6869   17.7894 H   0  0  0  0  0  0
  -27.7418  -14.2536   19.6361 H   0  0  0  0  0  0
  -28.6522  -11.8452   21.2812 H   0  0  0  0  0  0
  -28.4519  -13.4499   21.8974 H   0  0  0  0  0  0
  -25.2767   -9.5677   22.4735 H   0  0  0  0  0  0
  -23.9995   -7.4627   22.7454 H   0  0  0  0  0  0
  -21.0840   -8.8806   19.8954 H   0  0  0  0  0  0
  -22.3679  -10.9707   19.6190 H   0  0  0  0  0  0
  -21.1999   -7.6147   23.9711 H   0  0  0  0  0  0
  -21.1492   -6.0539   25.9094 H   0  0  0  0  0  0
  -22.0585   -2.7600   23.2863 H   0  0  0  0  0  0
  -22.4093  -11.9828   22.4728 H   0  0  0  0  0  0
  -21.1157  -13.1282   22.2659 H   0  0  0  0  0  0
  -24.6863  -15.8524   20.5229 H   0  0  0  0  0  0
  -26.3197  -15.6187   20.1600 H   0  0  0  0  0  0
  -26.7103  -32.5561   23.1217 H   0  0  0  0  0  0
  -25.0122  -33.9817   25.0538 H   0  0  0  0  0  0
  -22.6890  -31.3115   21.4146 H   0  0  0  0  0  0
  -23.3736  -35.9674   23.3306 H   0  0  0  0  0  0
  -24.3604  -36.8913   22.2061 H   0  0  0  0  0  0
  -23.7275  -37.6543   23.6638 H   0  0  0  0  0  0
  -26.0440  -31.6131   20.6000 H   0  0  0  0  0  0
  -26.8085  -30.8911   21.9902 H   0  0  0  0  0  0
  -28.1054  -29.1651   21.1330 H   0  0  0  0  0  0
  -26.1166  -26.0153   18.9707 H   0  0  0  0  0  0
  -23.9941  -27.2910   19.0348 H   0  0  0  0  0  0
  -23.7120  -30.5977   19.4070 H   0  0  0  0  0  0
  -22.7314  -29.2405   19.8741 H   0  0  0  0  0  0
  -25.1264  -36.1975   25.0846 H   0  0  0  0  0  0
  -20.9975  -28.3270   24.1446 H   0  0  0  0  0  0
  -20.5672  -26.2249   23.3682 H   0  0  0  0  0  0
  -21.6686  -26.7418   22.1319 H   0  0  0  0  0  0
  -19.6935  -25.6172   21.1390 H   0  0  0  0  0  0
  -19.6721  -27.3063   20.6761 H   0  0  0  0  0  0
  -17.4224  -26.6569   21.4135 H   0  0  0  0  0  0
  -18.0408  -26.0019   22.9138 H   0  0  0  0  0  0
  -19.7910  -30.7288   24.2236 H   0  0  0  0  0  0
  -17.5009  -31.6289   24.5023 H   0  0  0  0  0  0
  -15.5350  -30.2975   23.7574 H   0  0  0  0  0  0
  -15.8696  -28.0728   22.7129 H   0  0  0  0  0  0
  -24.5939  -30.7055   25.7908 H   0  0  0  0  0  0
  -24.9051  -32.2858   26.5056 H   0  0  0  0  0  0
  -25.8208  -30.8828   27.0265 H   0  0  0  0  0  0
  -26.2876  -29.6785   24.1222 H   0  0  0  0  0  0
  -27.4165  -29.7292   25.4561 H   0  0  0  0  0  0
  -27.8670  -30.4383   23.9231 H   0  0  0  0  0  0
  -27.2692  -33.3571   26.2150 H   0  0  0  0  0  0
  -28.3833  -32.6931   25.0293 H   0  0  0  0  0  0
  -28.0816  -31.8417   26.5361 H   0  0  0  0  0  0
  -28.2594  -38.0100   24.7472 H   0  0  0  0  0  0
  -28.1069  -36.2625   24.6307 H   0  0  0  0  0  0
  -27.2314  -37.1463   25.8880 H   0  0  0  0  0  0
  -20.9309  -29.8665   21.6885 H   0  0  0  0  0  0
  -26.0172  -38.2867   24.1374 H   0  0  0  0  0  0
  -27.5968  -18.1920   20.5211 H   0  0  0  0  0  0
  -29.3437  -16.5653   20.0492 H   0  0  0  0  0  0
  -27.8584  -17.3181   24.7325 H   0  0  0  0  0  0
  -30.1253  -15.0236   26.4253 H   0  0  0  0  0  0
  -28.4960  -15.5504   26.0328 H   0  0  0  0  0  0
  -29.8415  -16.7171   26.0505 H   0  0  0  0  0  0
  -25.2840  -22.2145   22.1611 H   0  0  0  0  0  0
  -24.1251  -23.3492   21.5324 H   0  0  0  0  0  0
  -24.8123  -20.8867   19.8714 H   0  0  0  0  0  0
  -23.3902  -21.8666   19.8098 H   0  0  0  0  0  0
  -25.5729  -23.6330   19.4984 H   0  0  0  0  0  0
  -26.6356  -22.3683   20.0778 H   0  0  0  0  0  0
  -22.9116  -19.6828   20.8469 H   0  0  0  0  0  0
  -22.6039  -20.9755   21.9731 H   0  0  0  0  0  0
  -26.9744  -23.8213   22.2143 H   0  0  0  0  0  0
  -26.1969  -25.1011   21.3365 H   0  0  0  0  0  0
  -23.7397  -18.9908   23.0002 H   0  0  0  0  0  0
  -24.5568  -20.4929   23.2772 H   0  0  0  0  0  0
  -28.0512  -24.4454   19.4503 H   0  0  0  0  0  0
  -28.8323  -23.6992   20.8080 H   0  0  0  0  0  0
  -26.1478  -19.8982   21.3370 H   0  0  0  0  0  0
  -25.3573  -18.3314   21.2606 H   0  0  0  0  0  0
  -29.8183  -25.7544   20.9827 H   0  0  0  0  0  0
  -28.4155  -26.1565   21.9407 H   0  0  0  0  0  0
  -30.4249  -14.1976   22.6582 H   0  0  0  0  0  0
  -26.1600  -18.7191   23.9403 H   0  0  0  0  0  0
  1 25  1  0  0  0
  1 30  2  0  0  0
  1 87  1  0  0  0
  2  3  1  0  0  0
  2 25  1  0  0  0
  2 90  1  0  0  0
  2 91  1  0  0  0
  3  4  1  0  0  0
  3 92  1  0  0  0
  3 93  1  0  0  0
  4  5  1  0  0  0
  4 94  1  0  0  0
  4 95  1  0  0  0
  5  6  1  0  0  0
  5 26  1  0  0  0
  5 96  1  0  0  0
  6 25  1  0  0  0
  6 97  1  0  0  0
  6 98  1  0  0  0
  7  8  2  0  0  0
  7 26  1  0  0  0
  7 29  1  0  0  0
  8  9  1  0  0  0
  8 22  1  0  0  0
  9 10  1  0  0  0
  9 27  2  0  0  0
 10 11  2  0  0  0
 10 15  1  0  0  0
 11 12  1  0  0  0
 11 99  1  0  0  0
 12 13  2  0  0  0
 12100  1  0  0  0
 13 14  1  0  0  0
 13 31  1  0  0  0
 14 15  2  0  0  0
 14101  1  0  0  0
 15102  1  0  0  0
 16 17  2  0  0  0
 16 21  1  0  0  0
 16 31  1  0  0  0
 17 18  1  0  0  0
 17103  1  0  0  0
 18 19  2  0  0  0
 18104  1  0  0  0
 19 20  1  0  0  0
 19 24  1  0  0  0
 20 21  2  0  0  0
 20105  1  0  0  0
 21 23  1  0  0  0
 22 28  1  0  0  0
 22 32  2  0  0  0
 26 27  1  0  0  0
 28106  1  0  0  0
 28107  1  0  0  0
 29108  1  0  0  0
 29109  1  0  0  0
 33 34  1  0  0  0
 33 66  1  0  0  0
 33 70  2  0  0  0
 34 36  1  0  0  0
 34 59  1  0  0  0
 34110  1  0  0  0
 35 44  2  0  0  0
 35 45  1  0  0  0
 35 68  1  0  0  0
 36 56  1  0  0  0
 36111  1  0  0  0
 37 39  1  0  0  0
 37 47  1  0  0  0
 37 66  1  0  0  0
 37112  1  0  0  0
 38 43  2  0  0  0
 38 46  1  0  0  0
 38 47  1  0  0  0
 39 64  1  0  0  0
 39 67  2  0  0  0
 40 52  1  0  0  0
 40 53  2  0  0  0
 40 58  1  0  0  0
 41113  1  0  0  0
 41114  1  0  0  0
 41115  1  0  0  0
 41 48  1  0  0  0
 42 43  1  0  0  0
 42 66  1  0  0  0
 42116  1  0  0  0
 42117  1  0  0  0
 43 44  1  0  0  0
 44118  1  0  0  0
 45 46  2  0  0  0
 45119  1  0  0  0
 46120  1  0  0  0
 47121  1  0  0  0
 47122  1  0  0  0
 48 56  1  0  0  0
 48 65  1  0  0  0
 48123  1  0  0  0
 49 50  1  0  0  0
 49 53  1  0  0  0
 49 64  1  0  0  0
 49124  1  0  0  0
 50 51  1  0  0  0
 50125  1  0  0  0
 50126  1  0  0  0
 51 52  1  0  0  0
 51127  1  0  0  0
 51128  1  0  0  0
 52129  1  0  0  0
 52130  1  0  0  0
 53 54  1  0  0  0
 54 55  2  0  0  0
 54131  1  0  0  0
 55 57  1  0  0  0
 55132  1  0  0  0
 56 69  2  0  0  0
 57 58  2  0  0  0
 57133  1  0  0  0
 58134  1  0  0  0
 59 60  1  0  0  0
 59 61  1  0  0  0
 59 62  1  0  0  0
 60135  1  0  0  0
 60136  1  0  0  0
 60137  1  0  0  0
 61138  1  0  0  0
 61139  1  0  0  0
 61140  1  0  0  0
 62141  1  0  0  0
 62142  1  0  0  0
 62143  1  0  0  0
 63 65  1  0  0  0
 63144  1  0  0  0
 63145  1  0  0  0
 63146  1  0  0  0
 64147  1  0  0  0
 65148  1  0  0  0
 68 86  1  0  0  0
 71 72  2  0  0  0
 71 74  1  0  0  0
 71149  1  0  0  0
 72 75  1  0  0  0
 72150  1  0  0  0
 73 74  2  0  0  0
 73 76  1  0  0  0
 73151  1  0  0  0
 74 88  1  0  0  0
 75 76  2  0  0  0
 75 87  1  0  0  0
 76 89  1  0  0  0
 77 89  1  0  0  0
 77152  1  0  0  0
 77153  1  0  0  0
 77154  1  0  0  0
 78 79  1  0  0  0
 78 80  1  0  0  0
 78155  1  0  0  0
 78156  1  0  0  0
 79 81  1  0  0  0
 79157  1  0  0  0
 79158  1  0  0  0
 80 82  1  0  0  0
 80159  1  0  0  0
 80160  1  0  0  0
 81 83  1  0  0  0
 81161  1  0  0  0
 81162  1  0  0  0
 82 84  1  0  0  0
 82163  1  0  0  0
 82164  1  0  0  0
 83 85  1  0  0  0
 83165  1  0  0  0
 83166  1  0  0  0
 84 86  1  0  0  0
 84167  1  0  0  0
 84168  1  0  0  0
 85 88  1  0  0  0
 85169  1  0  0  0
 85170  1  0  0  0
 86171  1  0  0  0
 86172  1  0  0  0
 87173  1  0  0  0
 88174  1  0  0  0
M  ISO  4   1 100  68 101  86 101  87 100
M  END
> <chiral flag>
0

> <version>
0

> <s_m_source_file>
/data/baiqing/PycharmProjects/Reinvent-master-3.2/result/LINK_invent/BTK/process_docking_weight1_custom_sum_contain_oxygen_bond_distance_aromatic_linkinvent_7_9_3/rearranged_h_0009.sdf

> <i_m_source_file_index>
45

> <r_mmod_Potential_Energy-OPLS-2005>
-19.8264198303223

> <r_mmod_Stretch_Energy-OPLS-2005>
32.6252288818359

> <r_mmod_Bend_Energy-OPLS-2005>
111.963226318359

> <r_mmod_Torsional_Energy-OPLS-2005>
289.140686035156

> <r_mmod_Improper_Torsional_Energy-OPLS-2005>
8.86931133270264

> <r_mmod_Van_der_Waal_Energy-OPLS-2005>
151.12614440918

> <r_mmod_Electrostatic_Energy-OPLS-2005>
-418.794830322266

> <r_mmod_Solvation_Energy-OPLS-2005>
-204.516525268555

> <b_mmod_Minimization_Converged-OPLS-2005>
0

> <r_mmod_RMS_Derivative-OPLS-2005>
3.38519382476807

$$$$
46
                    3D
 Structure written by MMmdl.
198205  0  0  1  0            999 V2000
  -30.7577  -14.3686   20.6912 C   0  0  0  0  0  0
  -30.4179  -12.2914   19.4029 C   0  0  0  0  0  0
  -29.4895  -12.5219   18.1957 C   0  0  0  0  0  0
  -28.0127  -12.3792   18.6094 C   0  0  0  0  0  0
  -27.6648  -13.2016   19.8786 C   0  0  2  0  0  0
  -28.6962  -12.9425   20.9960 C   0  0  0  0  0  0
  -25.2621  -13.8153   20.5680 C   0  0  0  0  0  0
  -24.1866  -13.0434   20.9165 C   0  0  0  0  0  0
  -24.6406  -11.6897   20.8695 C   0  0  0  0  0  0
  -23.9059  -10.4284   21.0382 C   0  0  0  0  0  0
  -24.3613   -9.4203   21.9162 C   0  0  0  0  0  0
  -23.6285   -8.2248   22.0729 C   0  0  0  0  0  0
  -22.4261   -8.0287   21.3529 C   0  0  0  0  0  0
  -21.9902   -9.0261   20.4626 C   0  0  0  0  0  0
  -22.7228  -10.2134   20.3040 C   0  0  0  0  0  0
  -21.6858   -6.0751   22.5283 C   0  0  0  0  0  0
  -21.4018   -6.5653   23.8218 C   0  0  0  0  0  0
  -21.3649   -5.6796   24.9176 C   0  0  0  0  0  0
  -21.6044   -4.3060   24.7217 C   0  0  0  0  0  0
  -21.8810   -3.8162   23.4334 C   0  0  0  0  0  0
  -21.9197   -4.6989   22.3396 C   0  0  0  0  0  0
  -22.7906  -13.5234   21.1861 C   0  0  0  0  0  0
  -22.1664   -4.2178   21.0974 F   0  0  0  0  0  0
  -21.5619   -3.4526   25.7724 F   0  0  0  0  0  0
  -30.0384  -13.2387   20.4602 N   0  0  0  0  0  0
  -26.3028  -12.9309   20.3344 N   0  0  0  0  0  0
  -25.9320  -11.6466   20.5723 N   0  0  0  0  0  0
  -22.0561  -12.8213   22.0415 N   0  0  0  0  0  0
  -25.4392  -15.1856   20.4140 N   0  0  0  0  0  0
  -31.7904  -14.6527   20.0789 O   0  0  0  0  0  0
  -21.6628   -6.8882   21.4235 O   0  0  0  0  0  0
  -22.3588  -14.5554   20.6736 O   0  0  0  0  0  0
  -24.6126  -31.8724   23.2117 C   0  0  0  0  0  0
  -25.9016  -32.4859   23.8425 C   0  0  1  0  0  0
  -27.2200  -27.4425   20.1045 C   0  0  0  0  0  0
  -25.5867  -33.8663   24.2365 N   0  0  0  0  0  0
  -23.4007  -30.4986   21.5541 C   0  0  2  0  0  0
  -24.8480  -28.9731   20.1117 C   0  0  0  0  0  0
  -22.7412  -29.4677   22.4993 C   0  0  0  0  0  0
  -18.0271  -28.1377   22.8496 C   0  0  0  0  0  0
  -24.1490  -36.7334   23.2645 C   0  0  0  0  0  0
  -25.9298  -30.8454   21.3643 C   0  0  0  0  0  0
  -26.0086  -29.4827   20.7065 C   0  0  0  0  0  0
  -27.2050  -28.7274   20.6934 C   0  0  0  0  0  0
  -26.0447  -26.9560   19.4974 C   0  0  0  0  0  0
  -24.8608  -27.7113   19.4968 C   0  0  0  0  0  0
  -23.6086  -29.8377   20.1671 C   0  0  0  0  0  0
  -25.4113  -36.3153   24.0359 C   0  0  1  0  0  0
  -20.5860  -28.3674   23.1324 C   0  0  2  0  0  0
  -20.6782  -26.9415   22.5417 C   0  0  0  0  0  0
  -19.5755  -26.6398   21.5221 C   0  0  0  0  0  0
  -18.1924  -26.7927   22.1633 C   0  0  0  0  0  0
  -19.1509  -28.8838   23.2916 C   0  0  0  0  0  0
  -18.9435  -30.1446   23.8919 C   0  0  0  0  0  0
  -17.6432  -30.6579   24.0556 C   0  0  0  0  0  0
  -25.9021  -34.9509   23.5165 C   0  0  0  0  0  0
  -16.5334  -29.9079   23.6326 C   0  0  0  0  0  0
  -16.7256  -28.6501   23.0341 C   0  0  0  0  0  0
  -26.4464  -31.6601   25.0720 C   0  0  0  0  0  0
  -25.3734  -31.3650   26.1457 C   0  0  0  0  0  0
  -27.0284  -30.3058   24.6064 C   0  0  0  0  0  0
  -27.6066  -32.4283   25.7459 C   0  0  0  0  0  0
  -27.5593  -37.1822   24.8478 C   0  0  0  0  0  0
  -21.4131  -29.3061   22.3758 N   0  0  0  0  0  0
  -26.4313  -37.3823   23.9410 N   0  0  0  0  0  0
  -24.6658  -31.0855   22.1021 N   0  0  0  0  0  0
  -23.4177  -28.8205   23.3028 O   0  0  0  0  0  0
  -28.3465  -26.6516   20.1553 O   0  0  0  0  0  0
  -26.5604  -34.8936   22.4733 O   0  0  0  0  0  0
  -23.5317  -32.1472   23.7519 O   0  0  0  0  0  0
  -31.2596  -22.1290   22.4446 C   0  0  0  0  0  0
  -30.3024  -24.9197   15.5297 C   0  0  0  0  0  0
  -30.2081  -25.0268   18.0580 C   0  0  0  0  0  0
  -27.1554  -23.8093   16.4900 C   0  0  0  0  0  0
  -33.1435  -24.5905   21.8893 C   0  0  0  0  0  0
  -32.8883  -24.4116   19.0031 C   0  0  0  0  0  0
  -25.6716  -25.8108   15.8535 C   0  0  0  0  0  0
  -25.3219  -23.5613   14.7901 C   0  0  0  0  0  0
  -24.7293  -23.8742   17.1926 C   0  0  0  0  0  0
  -30.2623  -21.3685   23.3332 C   0  0  0  0  0  0
  -29.6889  -20.0814   22.6911 C   0  0  0  0  0  0
  -30.6062  -18.8380   22.7885 C   0  0  0  0  0  0
  -29.9740  -17.5632   22.2006 C   0  0  0  0  0  0
  -27.9691  -24.1548   20.0340 C   0  0  0  0  0  0
  -30.9220  -16.3471   22.2210 C   0  0  0  0  0  0
  -29.2254  -23.3743   19.5682 C   0  0  0  0  0  0
  -28.1602  -25.4288   20.8969 C   0  0  0  0  0  0
  -29.5552  -24.4057   16.7830 C   0  0  1  0  0  0
  -31.7209  -24.3632   21.3264 C   0  0  1  0  0  0
  -31.6584  -23.9207   19.8158 C   0  0  1  0  0  0
  -25.7337  -24.2824   16.0911 C   0  0  0  0  0  0
  -31.3740  -24.2587   15.0989 N   0  0  0  0  0  0
  -28.1356  -24.7169   16.6021 N   0  0  0  0  0  0
  -31.0156  -23.4340   22.2280 N   0  0  0  0  0  0
  -30.2856  -15.1465   21.6758 N   0  0  0  0  0  0
  -30.3514  -24.2223   19.1463 N   0  0  0  0  0  0
  -32.2201  -21.5376   21.9499 O   0  0  0  0  0  0
  -29.8894  -25.8958   14.9007 O   0  0  0  0  0  0
  -30.6810  -26.1700   18.0358 O   0  0  0  0  0  0
  -27.3616  -22.6094   16.6804 O   0  0  0  0  0  0
  -31.4659  -12.3891   19.1068 H   0  0  0  0  0  0
  -30.3095  -11.2733   19.7774 H   0  0  0  0  0  0
  -29.7264  -11.8144   17.4014 H   0  0  0  0  0  0
  -29.6644  -13.5155   17.7812 H   0  0  0  0  0  0
  -27.8154  -11.3217   18.7853 H   0  0  0  0  0  0
  -27.3592  -12.6691   17.7839 H   0  0  0  0  0  0
  -27.7221  -14.2569   19.6083 H   0  0  0  0  0  0
  -28.6619  -11.8966   21.3027 H   0  0  0  0  0  0
  -28.4401  -13.5044   21.8939 H   0  0  0  0  0  0
  -25.2766   -9.5699   22.4710 H   0  0  0  0  0  0
  -24.0010   -7.4643   22.7447 H   0  0  0  0  0  0
  -21.0829   -8.8794   19.8923 H   0  0  0  0  0  0
  -22.3702  -10.9677   19.6154 H   0  0  0  0  0  0
  -21.2015   -7.6167   23.9733 H   0  0  0  0  0  0
  -21.1473   -6.0521   25.9075 H   0  0  0  0  0  0
  -22.0597   -2.7630   23.2829 H   0  0  0  0  0  0
  -22.4202  -11.9851   22.4739 H   0  0  0  0  0  0
  -21.1188  -13.1242   22.2645 H   0  0  0  0  0  0
  -24.6822  -15.8480   20.5315 H   0  0  0  0  0  0
  -26.3004  -15.6186   20.1050 H   0  0  0  0  0  0
  -26.7071  -32.5596   23.1171 H   0  0  0  0  0  0
  -24.9961  -33.9835   25.0479 H   0  0  0  0  0  0
  -22.6879  -31.3146   21.4213 H   0  0  0  0  0  0
  -23.3757  -35.9658   23.3326 H   0  0  0  0  0  0
  -24.3562  -36.8919   22.2046 H   0  0  0  0  0  0
  -23.7237  -37.6552   23.6632 H   0  0  0  0  0  0
  -26.0442  -31.6139   20.5988 H   0  0  0  0  0  0
  -26.8164  -30.8930   21.9842 H   0  0  0  0  0  0
  -28.1021  -29.1132   21.1586 H   0  0  0  0  0  0
  -26.0292  -25.9912   19.0258 H   0  0  0  0  0  0
  -23.9698  -27.3157   19.0293 H   0  0  0  0  0  0
  -23.7135  -30.6184   19.4139 H   0  0  0  0  0  0
  -22.7327  -29.2587   19.8699 H   0  0  0  0  0  0
  -25.1283  -36.2035   25.0855 H   0  0  0  0  0  0
  -20.9942  -28.3220   24.1439 H   0  0  0  0  0  0
  -20.5722  -26.2252   23.3584 H   0  0  0  0  0  0
  -21.6645  -26.7491   22.1168 H   0  0  0  0  0  0
  -19.6919  -25.6320   21.1206 H   0  0  0  0  0  0
  -19.6681  -27.3236   20.6765 H   0  0  0  0  0  0
  -17.4199  -26.6663   21.4026 H   0  0  0  0  0  0
  -18.0327  -26.0067   22.9022 H   0  0  0  0  0  0
  -19.7907  -30.7270   24.2270 H   0  0  0  0  0  0
  -17.4985  -31.6248   24.5172 H   0  0  0  0  0  0
  -15.5330  -30.2976   23.7653 H   0  0  0  0  0  0
  -15.8659  -28.0832   22.7036 H   0  0  0  0  0  0
  -24.5944  -30.6981   25.7761 H   0  0  0  0  0  0
  -24.8889  -32.2770   26.4940 H   0  0  0  0  0  0
  -25.8093  -30.8800   27.0190 H   0  0  0  0  0  0
  -26.2801  -29.6800   24.1190 H   0  0  0  0  0  0
  -27.4109  -29.7313   25.4507 H   0  0  0  0  0  0
  -27.8613  -30.4381   23.9156 H   0  0  0  0  0  0
  -27.2726  -33.3578   26.2069 H   0  0  0  0  0  0
  -28.3845  -32.6815   25.0252 H   0  0  0  0  0  0
  -28.0760  -31.8379   26.5331 H   0  0  0  0  0  0
  -28.2640  -38.0094   24.7531 H   0  0  0  0  0  0
  -28.1066  -36.2632   24.6317 H   0  0  0  0  0  0
  -27.2297  -37.1482   25.8878 H   0  0  0  0  0  0
  -20.9263  -29.8773   21.6992 H   0  0  0  0  0  0
  -26.0229  -38.2914   24.1395 H   0  0  0  0  0  0
  -33.6197  -25.4609   21.4365 H   0  0  0  0  0  0
  -33.7888  -23.7273   21.7232 H   0  0  0  0  0  0
  -33.1180  -24.7728   22.9638 H   0  0  0  0  0  0
  -33.8185  -23.9866   19.3768 H   0  0  0  0  0  0
  -32.9955  -25.4971   19.0269 H   0  0  0  0  0  0
  -32.8313  -24.1057   17.9590 H   0  0  0  0  0  0
  -26.3373  -26.1170   15.0444 H   0  0  0  0  0  0
  -25.9472  -26.3796   16.7409 H   0  0  0  0  0  0
  -24.6652  -26.1262   15.5743 H   0  0  0  0  0  0
  -26.0093  -23.7825   13.9733 H   0  0  0  0  0  0
  -24.3227  -23.8599   14.4692 H   0  0  0  0  0  0
  -25.3064  -22.4786   14.9227 H   0  0  0  0  0  0
  -24.9728  -24.3132   18.1589 H   0  0  0  0  0  0
  -24.7073  -22.7916   17.3302 H   0  0  0  0  0  0
  -23.7151  -24.1832   16.9371 H   0  0  0  0  0  0
  -29.4299  -22.0328   23.5768 H   0  0  0  0  0  0
  -30.7384  -21.1378   24.2885 H   0  0  0  0  0  0
  -29.4299  -20.2756   21.6467 H   0  0  0  0  0  0
  -28.7434  -19.8517   23.1849 H   0  0  0  0  0  0
  -31.5542  -19.0232   22.2823 H   0  0  0  0  0  0
  -30.8578  -18.6560   23.8337 H   0  0  0  0  0  0
  -29.6745  -17.7584   21.1711 H   0  0  0  0  0  0
  -29.0659  -17.3287   22.7581 H   0  0  0  0  0  0
  -27.3686  -23.4529   20.6122 H   0  0  0  0  0  0
  -27.3525  -24.3898   19.1764 H   0  0  0  0  0  0
  -31.8431  -16.5858   21.6844 H   0  0  0  0  0  0
  -31.2202  -16.1216   23.2440 H   0  0  0  0  0  0
  -28.9501  -22.6847   18.7741 H   0  0  0  0  0  0
  -29.5207  -22.6997   20.3635 H   0  0  0  0  0  0
  -28.9951  -25.3018   21.5837 H   0  0  0  0  0  0
  -27.2928  -25.5255   21.5544 H   0  0  0  0  0  0
  -29.7256  -23.3293   16.8077 H   0  0  0  0  0  0
  -31.2217  -25.3277   21.4102 H   0  0  0  0  0  0
  -31.7563  -22.8366   19.7717 H   0  0  0  0  0  0
  -31.7315  -23.4505   15.5884 H   0  0  0  0  0  0
  -31.8472  -24.5636   14.2593 H   0  0  0  0  0  0
  -27.9265  -25.6806   16.3846 H   0  0  0  0  0  0
  -30.2318  -23.8278   22.7329 H   0  0  0  0  0  0
  -29.4306  -14.8343   22.1150 H   0  0  0  0  0  0
  1 25  1  0  0  0
  1 30  2  0  0  0
  1 95  1  0  0  0
  2  3  1  0  0  0
  2 25  1  0  0  0
  2101  1  0  0  0
  2102  1  0  0  0
  3  4  1  0  0  0
  3103  1  0  0  0
  3104  1  0  0  0
  4  5  1  0  0  0
  4105  1  0  0  0
  4106  1  0  0  0
  5  6  1  0  0  0
  5 26  1  0  0  0
  5107  1  0  0  0
  6 25  1  0  0  0
  6108  1  0  0  0
  6109  1  0  0  0
  7  8  2  0  0  0
  7 26  1  0  0  0
  7 29  1  0  0  0
  8  9  1  0  0  0
  8 22  1  0  0  0
  9 10  1  0  0  0
  9 27  2  0  0  0
 10 11  2  0  0  0
 10 15  1  0  0  0
 11 12  1  0  0  0
 11110  1  0  0  0
 12 13  2  0  0  0
 12111  1  0  0  0
 13 14  1  0  0  0
 13 31  1  0  0  0
 14 15  2  0  0  0
 14112  1  0  0  0
 15113  1  0  0  0
 16 17  2  0  0  0
 16 21  1  0  0  0
 16 31  1  0  0  0
 17 18  1  0  0  0
 17114  1  0  0  0
 18 19  2  0  0  0
 18115  1  0  0  0
 19 20  1  0  0  0
 19 24  1  0  0  0
 20 21  2  0  0  0
 20116  1  0  0  0
 21 23  1  0  0  0
 22 28  1  0  0  0
 22 32  2  0  0  0
 26 27  1  0  0  0
 28117  1  0  0  0
 28118  1  0  0  0
 29119  1  0  0  0
 29120  1  0  0  0
 33 34  1  0  0  0
 33 66  1  0  0  0
 33 70  2  0  0  0
 34 36  1  0  0  0
 34 59  1  0  0  0
 34121  1  0  0  0
 35 44  2  0  0  0
 35 45  1  0  0  0
 35 68  1  0  0  0
 36 56  1  0  0  0
 36122  1  0  0  0
 37 39  1  0  0  0
 37 47  1  0  0  0
 37 66  1  0  0  0
 37123  1  0  0  0
 38 43  2  0  0  0
 38 46  1  0  0  0
 38 47  1  0  0  0
 39 64  1  0  0  0
 39 67  2  0  0  0
 40 52  1  0  0  0
 40 53  2  0  0  0
 40 58  1  0  0  0
 41124  1  0  0  0
 41125  1  0  0  0
 41126  1  0  0  0
 41 48  1  0  0  0
 42 43  1  0  0  0
 42 66  1  0  0  0
 42127  1  0  0  0
 42128  1  0  0  0
 43 44  1  0  0  0
 44129  1  0  0  0
 45 46  2  0  0  0
 45130  1  0  0  0
 46131  1  0  0  0
 47132  1  0  0  0
 47133  1  0  0  0
 48 56  1  0  0  0
 48 65  1  0  0  0
 48134  1  0  0  0
 49 50  1  0  0  0
 49 53  1  0  0  0
 49 64  1  0  0  0
 49135  1  0  0  0
 50 51  1  0  0  0
 50136  1  0  0  0
 50137  1  0  0  0
 51 52  1  0  0  0
 51138  1  0  0  0
 51139  1  0  0  0
 52140  1  0  0  0
 52141  1  0  0  0
 53 54  1  0  0  0
 54 55  2  0  0  0
 54142  1  0  0  0
 55 57  1  0  0  0
 55143  1  0  0  0
 56 69  2  0  0  0
 57 58  2  0  0  0
 57144  1  0  0  0
 58145  1  0  0  0
 59 60  1  0  0  0
 59 61  1  0  0  0
 59 62  1  0  0  0
 60146  1  0  0  0
 60147  1  0  0  0
 60148  1  0  0  0
 61149  1  0  0  0
 61150  1  0  0  0
 61151  1  0  0  0
 62152  1  0  0  0
 62153  1  0  0  0
 62154  1  0  0  0
 63 65  1  0  0  0
 63155  1  0  0  0
 63156  1  0  0  0
 63157  1  0  0  0
 64158  1  0  0  0
 65159  1  0  0  0
 68 87  1  0  0  0
 71 80  1  0  0  0
 71 94  1  0  0  0
 71 97  2  0  0  0
 72 88  1  0  0  0
 72 92  1  0  0  0
 72 98  2  0  0  0
 73 88  1  0  0  0
 73 96  1  0  0  0
 73 99  2  0  0  0
 74 91  1  0  0  0
 74 93  1  0  0  0
 74100  2  0  0  0
 75160  1  0  0  0
 75161  1  0  0  0
 75162  1  0  0  0
 75 89  1  0  0  0
 76163  1  0  0  0
 76164  1  0  0  0
 76165  1  0  0  0
 76 90  1  0  0  0
 77166  1  0  0  0
 77167  1  0  0  0
 77168  1  0  0  0
 77 91  1  0  0  0
 78 91  1  0  0  0
 78169  1  0  0  0
 78170  1  0  0  0
 78171  1  0  0  0
 79 91  1  0  0  0
 79172  1  0  0  0
 79173  1  0  0  0
 79174  1  0  0  0
 80 81  1  0  0  0
 80175  1  0  0  0
 80176  1  0  0  0
 81 82  1  0  0  0
 81177  1  0  0  0
 81178  1  0  0  0
 82 83  1  0  0  0
 82179  1  0  0  0
 82180  1  0  0  0
 83 85  1  0  0  0
 83181  1  0  0  0
 83182  1  0  0  0
 84 86  1  0  0  0
 84 87  1  0  0  0
 84183  1  0  0  0
 84184  1  0  0  0
 85 95  1  0  0  0
 85185  1  0  0  0
 85186  1  0  0  0
 86 96  1  0  0  0
 86187  1  0  0  0
 86188  1  0  0  0
 87189  1  0  0  0
 87190  1  0  0  0
 88 93  1  0  0  0
 88191  1  0  0  0
 89 90  1  0  0  0
 89 94  1  0  0  0
 89192  1  0  0  0
 90 96  1  0  0  0
 90193  1  0  0  0
 92194  1  0  0  0
 92195  1  0  0  0
 93196  1  0  0  0
 94197  1  0  0  0
 95198  1  0  0  0
M  ISO  4   1 100  68 101  87 101  95 100
M  END
> <chiral flag>
0

> <version>
0

> <s_m_source_file>
/data/baiqing/PycharmProjects/Reinvent-master-3.2/result/LINK_invent/BTK/process_docking_weight1_custom_sum_contain_oxygen_bond_distance_aromatic_linkinvent_7_9_3/rearranged_h_0009.sdf

> <i_m_source_file_index>
46

> <r_mmod_Potential_Energy-OPLS-2005>
-279.997467041016

> <r_mmod_Stretch_Energy-OPLS-2005>
48.8010101318359

> <r_mmod_Bend_Energy-OPLS-2005>
123.53816986084

> <r_mmod_Torsional_Energy-OPLS-2005>
312.189117431641

> <r_mmod_Improper_Torsional_Energy-OPLS-2005>
3.77021956443787

> <r_mmod_Van_der_Waal_Energy-OPLS-2005>
148.238037109375

> <r_mmod_Electrostatic_Energy-OPLS-2005>
-636.265319824219

> <r_mmod_Solvation_Energy-OPLS-2005>
-290.543640136719

> <b_mmod_Minimization_Converged-OPLS-2005>
0

> <r_mmod_RMS_Derivative-OPLS-2005>
4.12480068206787

$$$$
47
                    3D
 Structure written by MMmdl.
150158  0  0  1  0            999 V2000
  -30.3748  -15.3407   20.3617 C   0  0  0  0  0  0
  -30.4346  -12.8574   19.5572 C   0  0  0  0  0  0
  -29.5399  -12.6050   18.3183 C   0  0  0  0  0  0
  -28.0922  -12.3164   18.7412 C   0  0  0  0  0  0
  -27.6086  -13.2903   19.8419 C   0  0  2  0  0  0
  -28.6343  -13.4595   20.9834 C   0  0  0  0  0  0
  -25.2289  -13.8302   20.5744 C   0  0  0  0  0  0
  -24.1690  -13.0469   20.9313 C   0  0  0  0  0  0
  -24.6356  -11.6962   20.8784 C   0  0  0  0  0  0
  -23.9054  -10.4311   21.0408 C   0  0  0  0  0  0
  -24.3600   -9.4218   21.9193 C   0  0  0  0  0  0
  -23.6290   -8.2247   22.0748 C   0  0  0  0  0  0
  -22.4275   -8.0268   21.3530 C   0  0  0  0  0  0
  -21.9896   -9.0232   20.4618 C   0  0  0  0  0  0
  -22.7211  -10.2126   20.3041 C   0  0  0  0  0  0
  -21.6843   -6.0721   22.5271 C   0  0  0  0  0  0
  -21.4019   -6.5630   23.8208 C   0  0  0  0  0  0
  -21.3678   -5.6793   24.9178 C   0  0  0  0  0  0
  -21.6046   -4.3051   24.7231 C   0  0  0  0  0  0
  -21.8825   -3.8130   23.4355 C   0  0  0  0  0  0
  -21.9191   -4.6949   22.3404 C   0  0  0  0  0  0
  -22.7679  -13.5164   21.1983 C   0  0  0  0  0  0
  -22.1655   -4.2135   21.0982 F   0  0  0  0  0  0
  -21.5636   -3.4519   25.7746 F   0  0  0  0  0  0
  -29.8636  -14.0009   20.3756 N   0  0  0  0  0  0
  -26.2767  -12.9603   20.3269 N   0  0  0  0  0  0
  -25.9302  -11.6685   20.5758 N   0  0  0  0  0  0
  -22.0345  -12.8138   22.0529 N   0  0  0  0  0  0
  -25.3758  -15.2041   20.4058 N   0  0  0  0  0  0
  -31.5720  -15.3609   20.0308 O   0  0  0  0  0  0
  -21.6644   -6.8842   21.4221 O   0  0  0  0  0  0
  -22.3327  -14.5456   20.6801 O   0  0  0  0  0  0
  -24.6644  -31.8216   23.1649 C   0  0  0  0  0  0
  -25.9323  -32.4570   23.8142 C   0  0  1  0  0  0
  -27.2165  -26.8725   20.2108 C   0  0  0  0  0  0
  -25.6007  -33.8389   24.2065 N   0  0  0  0  0  0
  -23.4830  -30.4316   21.5110 C   0  0  2  0  0  0
  -24.9381  -28.8046   20.1060 C   0  0  0  0  0  0
  -22.7663  -29.4456   22.4725 C   0  0  0  0  0  0
  -18.0376  -28.1325   22.8376 C   0  0  0  0  0  0
  -24.1497  -36.7201   23.2651 C   0  0  0  0  0  0
  -26.0532  -30.6085   21.4066 C   0  0  0  0  0  0
  -26.1170  -29.1912   20.7560 C   0  0  0  0  0  0
  -27.2421  -28.2445   20.7852 C   0  0  0  0  0  0
  -26.0142  -26.6529   19.4985 C   0  0  0  0  0  0
  -24.9152  -27.5578   19.4532 C   0  0  0  0  0  0
  -23.7283  -29.7424   20.1377 C   0  0  0  0  0  0
  -25.4147  -36.2947   24.0276 C   0  0  1  0  0  0
  -20.5999  -28.3715   23.1028 C   0  0  2  0  0  0
  -20.6868  -26.9422   22.5159 C   0  0  0  0  0  0
  -19.5771  -26.6331   21.5080 C   0  0  0  0  0  0
  -18.2032  -26.7781   22.1626 C   0  0  0  0  0  0
  -19.1632  -28.8839   23.2694 C   0  0  0  0  0  0
  -18.9529  -30.1394   23.8773 C   0  0  0  0  0  0
  -17.6518  -30.6494   24.0493 C   0  0  0  0  0  0
  -25.9118  -34.9330   23.5003 C   0  0  0  0  0  0
  -16.5419  -29.8966   23.6256 C   0  0  0  0  0  0
  -16.7352  -28.6402   23.0259 C   0  0  0  0  0  0
  -26.4572  -31.6527   25.0688 C   0  0  0  0  0  0
  -25.3684  -31.3767   26.1335 C   0  0  0  0  0  0
  -27.0469  -30.2875   24.6461 C   0  0  0  0  0  0
  -27.6074  -32.4330   25.7503 C   0  0  0  0  0  0
  -27.5575  -37.1761   24.8469 C   0  0  0  0  0  0
  -21.4347  -29.3012   22.3354 N   0  0  0  0  0  0
  -26.4309  -37.3672   23.9376 N   0  0  0  0  0  0
  -24.7544  -30.9820   22.0803 N   0  0  0  0  0  0
  -23.4149  -28.8093   23.3058 O   0  0  0  0  0  0
  -28.2086  -25.7470   20.3564 O   0  0  0  0  0  0
  -26.5726  -34.8895   22.4597 O   0  0  0  0  0  0
  -23.5710  -32.1204   23.6731 O   0  0  0  0  0  0
  -26.7200  -18.6734   20.3170 C   0  0  0  0  0  0
  -27.6214  -19.3734   21.1467 C   0  0  0  0  0  0
  -28.5916  -17.8738   18.9394 C   0  0  0  0  0  0
  -27.1963  -18.0692   19.1281 C   0  0  0  0  0  0
  -29.4222  -18.1230   20.0570 C   0  0  0  0  0  0
  -28.9245  -19.5135   20.6318 C   0  0  0  0  0  0
  -28.1554  -24.1156   19.9667 C   0  0  0  0  0  0
  -28.5552  -22.4735   20.7052 C   0  0  0  0  0  0
  -26.2837  -17.6147   18.1817 N   0  0  0  0  0  0
  -29.6151  -16.6025   20.6487 N   0  0  0  0  0  0
  -29.1157  -20.9844   20.1780 O   0  0  0  0  0  0
  -31.4445  -13.0790   19.2119 H   0  0  0  0  0  0
  -30.5277  -11.9590   20.1701 H   0  0  0  0  0  0
  -29.9354  -11.7786   17.7263 H   0  0  0  0  0  0
  -29.5610  -13.4848   17.6749 H   0  0  0  0  0  0
  -28.0628  -11.2959   19.1237 H   0  0  0  0  0  0
  -27.4245  -12.3451   17.8809 H   0  0  0  0  0  0
  -27.5250  -14.2613   19.3559 H   0  0  0  0  0  0
  -28.8211  -12.5171   21.4986 H   0  0  0  0  0  0
  -28.2557  -14.1501   21.7379 H   0  0  0  0  0  0
  -25.2724   -9.5725   22.4781 H   0  0  0  0  0  0
  -24.0009   -7.4632   22.7464 H   0  0  0  0  0  0
  -21.0833   -8.8700   19.8906 H   0  0  0  0  0  0
  -22.3629  -10.9652   19.6147 H   0  0  0  0  0  0
  -21.2012   -7.6131   23.9705 H   0  0  0  0  0  0
  -21.1492   -6.0517   25.9087 H   0  0  0  0  0  0
  -22.0589   -2.7580   23.2849 H   0  0  0  0  0  0
  -22.3988  -11.9841   22.4997 H   0  0  0  0  0  0
  -21.0929  -13.1077   22.2724 H   0  0  0  0  0  0
  -24.5526  -15.7955   20.4369 H   0  0  0  0  0  0
  -26.1097  -15.6184   19.8417 H   0  0  0  0  0  0
  -26.7426  -32.5070   23.0893 H   0  0  0  0  0  0
  -25.0080  -33.9458   25.0160 H   0  0  0  0  0  0
  -22.8024  -31.2673   21.3284 H   0  0  0  0  0  0
  -23.3755  -35.9537   23.3282 H   0  0  0  0  0  0
  -24.3599  -36.8886   22.2081 H   0  0  0  0  0  0
  -23.7268  -37.6389   23.6728 H   0  0  0  0  0  0
  -26.2443  -31.3389   20.6196 H   0  0  0  0  0  0
  -26.9124  -30.6680   22.0623 H   0  0  0  0  0  0
  -28.1241  -28.5250   21.3409 H   0  0  0  0  0  0
  -25.8818  -25.7028   19.0057 H   0  0  0  0  0  0
  -24.0272  -27.2582   18.9149 H   0  0  0  0  0  0
  -23.8884  -30.5044   19.3715 H   0  0  0  0  0  0
  -22.8363  -29.2018   19.8210 H   0  0  0  0  0  0
  -25.1347  -36.1761   25.0761 H   0  0  0  0  0  0
  -21.0151  -28.3265   24.1115 H   0  0  0  0  0  0
  -20.5991  -26.2271   23.3342 H   0  0  0  0  0  0
  -21.6680  -26.7468   22.0807 H   0  0  0  0  0  0
  -19.6987  -25.6239   21.1120 H   0  0  0  0  0  0
  -19.6582  -27.3180   20.6624 H   0  0  0  0  0  0
  -17.4198  -26.6432   21.4160 H   0  0  0  0  0  0
  -18.0655  -25.9898   22.9081 H   0  0  0  0  0  0
  -19.8025  -30.7184   24.2152 H   0  0  0  0  0  0
  -17.5015  -31.6167   24.5104 H   0  0  0  0  0  0
  -15.5421  -30.2826   23.7604 H   0  0  0  0  0  0
  -15.8777  -28.0658   22.6981 H   0  0  0  0  0  0
  -24.5916  -30.7072   25.7631 H   0  0  0  0  0  0
  -24.8809  -32.2947   26.4618 H   0  0  0  0  0  0
  -25.7925  -30.9042   27.0205 H   0  0  0  0  0  0
  -26.3132  -29.6537   24.1487 H   0  0  0  0  0  0
  -27.3984  -29.7277   25.5141 H   0  0  0  0  0  0
  -27.9088  -30.4020   23.9887 H   0  0  0  0  0  0
  -27.2675  -33.3693   26.1950 H   0  0  0  0  0  0
  -28.3987  -32.6811   25.0404 H   0  0  0  0  0  0
  -28.0642  -31.8536   26.5541 H   0  0  0  0  0  0
  -28.2569  -38.0072   24.7489 H   0  0  0  0  0  0
  -28.1095  -36.2600   24.6327 H   0  0  0  0  0  0
  -27.2300  -37.1446   25.8878 H   0  0  0  0  0  0
  -20.9682  -29.8409   21.6193 H   0  0  0  0  0  0
  -26.0151  -38.2740   24.1340 H   0  0  0  0  0  0
  -25.6606  -18.7283   20.5303 H   0  0  0  0  0  0
  -27.1840  -20.0913   21.8239 H   0  0  0  0  0  0
  -28.9041  -17.1953   18.1553 H   0  0  0  0  0  0
  -27.1658  -23.9704   19.5401 H   0  0  0  0  0  0
  -28.7993  -24.1146   19.0893 H   0  0  0  0  0  0
  -29.2994  -22.7092   21.4706 H   0  0  0  0  0  0
  -27.6740  -22.2345   21.3011 H   0  0  0  0  0  0
  -25.3770  -18.0722   18.1785 H   0  0  0  0  0  0
  -26.6280  -17.4998   17.2354 H   0  0  0  0  0  0
  -28.8111  -16.3558   21.2067 H   0  0  0  0  0  0
  1 25  1  0  0  0
  1 30  2  0  0  0
  1 80  1  0  0  0
  2  3  1  0  0  0
  2 25  1  0  0  0
  2 82  1  0  0  0
  2 83  1  0  0  0
  3  4  1  0  0  0
  3 84  1  0  0  0
  3 85  1  0  0  0
  4  5  1  0  0  0
  4 86  1  0  0  0
  4 87  1  0  0  0
  5  6  1  0  0  0
  5 26  1  0  0  0
  5 88  1  0  0  0
  6 25  1  0  0  0
  6 89  1  0  0  0
  6 90  1  0  0  0
  7  8  2  0  0  0
  7 26  1  0  0  0
  7 29  1  0  0  0
  8  9  1  0  0  0
  8 22  1  0  0  0
  9 10  1  0  0  0
  9 27  2  0  0  0
 10 11  2  0  0  0
 10 15  1  0  0  0
 11 12  1  0  0  0
 11 91  1  0  0  0
 12 13  2  0  0  0
 12 92  1  0  0  0
 13 14  1  0  0  0
 13 31  1  0  0  0
 14 15  2  0  0  0
 14 93  1  0  0  0
 15 94  1  0  0  0
 16 17  2  0  0  0
 16 21  1  0  0  0
 16 31  1  0  0  0
 17 18  1  0  0  0
 17 95  1  0  0  0
 18 19  2  0  0  0
 18 96  1  0  0  0
 19 20  1  0  0  0
 19 24  1  0  0  0
 20 21  2  0  0  0
 20 97  1  0  0  0
 21 23  1  0  0  0
 22 28  1  0  0  0
 22 32  2  0  0  0
 26 27  1  0  0  0
 28 98  1  0  0  0
 28 99  1  0  0  0
 29100  1  0  0  0
 29101  1  0  0  0
 33 34  1  0  0  0
 33 66  1  0  0  0
 33 70  2  0  0  0
 34 36  1  0  0  0
 34 59  1  0  0  0
 34102  1  0  0  0
 35 44  2  0  0  0
 35 45  1  0  0  0
 35 68  1  0  0  0
 36 56  1  0  0  0
 36103  1  0  0  0
 37 39  1  0  0  0
 37 47  1  0  0  0
 37 66  1  0  0  0
 37104  1  0  0  0
 38 43  2  0  0  0
 38 46  1  0  0  0
 38 47  1  0  0  0
 39 64  1  0  0  0
 39 67  2  0  0  0
 40 52  1  0  0  0
 40 53  2  0  0  0
 40 58  1  0  0  0
 41105  1  0  0  0
 41106  1  0  0  0
 41107  1  0  0  0
 41 48  1  0  0  0
 42 43  1  0  0  0
 42 66  1  0  0  0
 42108  1  0  0  0
 42109  1  0  0  0
 43 44  1  0  0  0
 44110  1  0  0  0
 45 46  2  0  0  0
 45111  1  0  0  0
 46112  1  0  0  0
 47113  1  0  0  0
 47114  1  0  0  0
 48 56  1  0  0  0
 48 65  1  0  0  0
 48115  1  0  0  0
 49 50  1  0  0  0
 49 53  1  0  0  0
 49 64  1  0  0  0
 49116  1  0  0  0
 50 51  1  0  0  0
 50117  1  0  0  0
 50118  1  0  0  0
 51 52  1  0  0  0
 51119  1  0  0  0
 51120  1  0  0  0
 52121  1  0  0  0
 52122  1  0  0  0
 53 54  1  0  0  0
 54 55  2  0  0  0
 54123  1  0  0  0
 55 57  1  0  0  0
 55124  1  0  0  0
 56 69  2  0  0  0
 57 58  2  0  0  0
 57125  1  0  0  0
 58126  1  0  0  0
 59 60  1  0  0  0
 59 61  1  0  0  0
 59 62  1  0  0  0
 60127  1  0  0  0
 60128  1  0  0  0
 60129  1  0  0  0
 61130  1  0  0  0
 61131  1  0  0  0
 61132  1  0  0  0
 62133  1  0  0  0
 62134  1  0  0  0
 62135  1  0  0  0
 63 65  1  0  0  0
 63136  1  0  0  0
 63137  1  0  0  0
 63138  1  0  0  0
 64139  1  0  0  0
 65140  1  0  0  0
 68 77  1  0  0  0
 71 72  2  0  0  0
 71 74  1  0  0  0
 71141  1  0  0  0
 72 76  1  0  0  0
 72142  1  0  0  0
 73 74  2  0  0  0
 73 75  1  0  0  0
 73143  1  0  0  0
 74 79  1  0  0  0
 75 76  2  0  0  0
 75 80  1  0  0  0
 76 81  1  0  0  0
 77 78  1  0  0  0
 77144  1  0  0  0
 77145  1  0  0  0
 78 81  1  0  0  0
 78146  1  0  0  0
 78147  1  0  0  0
 79148  1  0  0  0
 79149  1  0  0  0
 80150  1  0  0  0
M  ISO  4   1 100  68 101  77 101  80 100
M  END
> <chiral flag>
0

> <version>
0

> <s_m_source_file>
/data/baiqing/PycharmProjects/Reinvent-master-3.2/result/LINK_invent/BTK/process_docking_weight1_custom_sum_contain_oxygen_bond_distance_aromatic_linkinvent_7_9_3/rearranged_h_0009.sdf

> <i_m_source_file_index>
47

> <r_mmod_Potential_Energy-OPLS-2005>
1838.85705566406

> <r_mmod_Stretch_Energy-OPLS-2005>
709.675354003906

> <r_mmod_Bend_Energy-OPLS-2005>
542.688842773438

> <r_mmod_Torsional_Energy-OPLS-2005>
481.076293945312

> <r_mmod_Improper_Torsional_Energy-OPLS-2005>
48.0386199951172

> <r_mmod_Van_der_Waal_Energy-OPLS-2005>
127.881996154785

> <r_mmod_Electrostatic_Energy-OPLS-2005>
-399.344024658203

> <r_mmod_Solvation_Energy-OPLS-2005>
-219.162872314453

> <b_mmod_Minimization_Converged-OPLS-2005>
0

> <r_mmod_RMS_Derivative-OPLS-2005>
5.71053409576416

$$$$
48
                    3D
 Structure written by MMmdl.
162170  0  0  1  0            999 V2000
  -30.7929  -14.3620   20.7146 C   0  0  0  0  0  0
  -30.4174  -12.3030   19.3994 C   0  0  0  0  0  0
  -29.4842  -12.5274   18.1964 C   0  0  0  0  0  0
  -28.0127  -12.3739   18.6194 C   0  0  0  0  0  0
  -27.6668  -13.2063   19.8808 C   0  0  2  0  0  0
  -28.7046  -12.9677   20.9997 C   0  0  0  0  0  0
  -25.2593  -13.8164   20.5668 C   0  0  0  0  0  0
  -24.1843  -13.0452   20.9176 C   0  0  0  0  0  0
  -24.6398  -11.6914   20.8732 C   0  0  0  0  0  0
  -23.9052  -10.4301   21.0411 C   0  0  0  0  0  0
  -24.3612   -9.4207   21.9183 C   0  0  0  0  0  0
  -23.6291   -8.2240   22.0745 C   0  0  0  0  0  0
  -22.4269   -8.0283   21.3537 C   0  0  0  0  0  0
  -21.9909   -9.0256   20.4636 C   0  0  0  0  0  0
  -22.7237  -10.2135   20.3052 C   0  0  0  0  0  0
  -21.6849   -6.0733   22.5273 C   0  0  0  0  0  0
  -21.4012   -6.5634   23.8205 C   0  0  0  0  0  0
  -21.3661   -5.6790   24.9166 C   0  0  0  0  0  0
  -21.6048   -4.3055   24.7218 C   0  0  0  0  0  0
  -21.8818   -3.8144   23.4342 C   0  0  0  0  0  0
  -21.9190   -4.6960   22.3398 C   0  0  0  0  0  0
  -22.7867  -13.5246   21.1873 C   0  0  0  0  0  0
  -22.1657   -4.2146   21.0972 F   0  0  0  0  0  0
  -21.5636   -3.4537   25.7726 F   0  0  0  0  0  0
  -30.0505  -13.2512   20.4628 N   0  0  0  0  0  0
  -26.3042  -12.9338   20.3394 N   0  0  0  0  0  0
  -25.9322  -11.6492   20.5777 N   0  0  0  0  0  0
  -22.0509  -12.8196   22.0413 N   0  0  0  0  0  0
  -25.4365  -15.1886   20.4085 N   0  0  0  0  0  0
  -31.7889  -14.6760   20.0562 O   0  0  0  0  0  0
  -21.6630   -6.8882   21.4241 O   0  0  0  0  0  0
  -22.3537  -14.5560   20.6761 O   0  0  0  0  0  0
  -24.6091  -31.8691   23.2119 C   0  0  0  0  0  0
  -25.8984  -32.4837   23.8388 C   0  0  1  0  0  0
  -27.2497  -27.4758   20.1223 C   0  0  0  0  0  0
  -25.5855  -33.8627   24.2341 N   0  0  0  0  0  0
  -23.3960  -30.4929   21.5466 C   0  0  2  0  0  0
  -24.8478  -28.9664   20.1046 C   0  0  0  0  0  0
  -22.7401  -29.4651   22.4972 C   0  0  0  0  0  0
  -18.0255  -28.1387   22.8462 C   0  0  0  0  0  0
  -24.1484  -36.7319   23.2651 C   0  0  0  0  0  0
  -25.9141  -30.8619   21.3469 C   0  0  0  0  0  0
  -25.9971  -29.4985   20.6988 C   0  0  0  0  0  0
  -27.1981  -28.7660   20.6975 C   0  0  0  0  0  0
  -26.0929  -26.9601   19.5030 C   0  0  0  0  0  0
  -24.8910  -27.6972   19.4987 C   0  0  0  0  0  0
  -23.6021  -29.8235   20.1594 C   0  0  0  0  0  0
  -25.4094  -36.3124   24.0371 C   0  0  1  0  0  0
  -20.5844  -28.3658   23.1328 C   0  0  2  0  0  0
  -20.6751  -26.9396   22.5424 C   0  0  0  0  0  0
  -19.5743  -26.6373   21.5223 C   0  0  0  0  0  0
  -18.1909  -26.7924   22.1612 C   0  0  0  0  0  0
  -19.1502  -28.8834   23.2890 C   0  0  0  0  0  0
  -18.9444  -30.1421   23.8922 C   0  0  0  0  0  0
  -17.6465  -30.6582   24.0574 C   0  0  0  0  0  0
  -25.9010  -34.9488   23.5168 C   0  0  0  0  0  0
  -16.5350  -29.9102   23.6331 C   0  0  0  0  0  0
  -16.7251  -28.6524   23.0333 C   0  0  0  0  0  0
  -26.4427  -31.6591   25.0696 C   0  0  0  0  0  0
  -25.3737  -31.3681   26.1490 C   0  0  0  0  0  0
  -27.0245  -30.3068   24.5960 C   0  0  0  0  0  0
  -27.6001  -32.4307   25.7466 C   0  0  0  0  0  0
  -27.5575  -37.1803   24.8471 C   0  0  0  0  0  0
  -21.4116  -29.3039   22.3748 N   0  0  0  0  0  0
  -26.4282  -37.3810   23.9426 N   0  0  0  0  0  0
  -24.6582  -31.0859   22.0969 N   0  0  0  0  0  0
  -23.4218  -28.8196   23.2972 O   0  0  0  0  0  0
  -28.3801  -26.6902   20.1748 O   0  0  0  0  0  0
  -26.5583  -34.8942   22.4736 O   0  0  0  0  0  0
  -23.5294  -32.1377   23.7569 O   0  0  0  0  0  0
  -30.6571  -22.0360   21.5944 C   0  0  0  0  0  0
  -30.5695  -20.6302   21.6950 C   0  0  0  0  0  0
  -32.4934  -22.0381   23.1766 C   0  0  0  0  0  0
  -31.6320  -22.7673   22.3192 C   0  0  0  0  0  0
  -31.4609  -19.9151   22.5263 C   0  0  0  0  0  0
  -32.4049  -20.6374   23.2812 C   0  0  0  0  0  0
  -30.9124  -17.5170   21.9621 C   0  0  0  0  0  0
  -32.5215  -24.9135   23.2064 C   0  0  0  0  0  0
  -31.2327  -16.0984   22.4531 C   0  0  0  0  0  0
  -29.6221  -25.4266   21.9140 C   0  0  0  0  0  0
  -30.9373  -24.9596   21.2668 C   0  0  0  0  0  0
  -29.1108  -26.7858   21.4064 C   0  0  0  0  0  0
  -31.4783  -18.4994   22.6847 N   0  0  0  0  0  0
  -30.4466  -15.0351   21.8190 N   0  0  0  0  0  0
  -31.7602  -24.1750   22.1946 N   0  0  0  0  0  0
  -30.1864  -17.6945   20.9799 O   0  0  0  0  0  0
  -33.2508  -19.9715   24.1078 F   0  0  0  0  0  0
  -31.4597  -12.4049   19.0930 H   0  0  0  0  0  0
  -30.3183  -11.2823   19.7722 H   0  0  0  0  0  0
  -29.7212  -11.8209   17.3997 H   0  0  0  0  0  0
  -29.6503  -13.5236   17.7842 H   0  0  0  0  0  0
  -27.8341  -11.3166   18.8177 H   0  0  0  0  0  0
  -27.3522  -12.6457   17.7951 H   0  0  0  0  0  0
  -27.7235  -14.2586   19.6005 H   0  0  0  0  0  0
  -28.6638  -11.9315   21.3380 H   0  0  0  0  0  0
  -28.4447  -13.5684   21.8708 H   0  0  0  0  0  0
  -25.2768   -9.5666   22.4752 H   0  0  0  0  0  0
  -23.9992   -7.4628   22.7459 H   0  0  0  0  0  0
  -21.0843   -8.8790   19.8939 H   0  0  0  0  0  0
  -22.3724  -10.9673   19.6155 H   0  0  0  0  0  0
  -21.1998   -7.6144   23.9707 H   0  0  0  0  0  0
  -21.1491   -6.0515   25.9064 H   0  0  0  0  0  0
  -22.0598   -2.7609   23.2836 H   0  0  0  0  0  0
  -22.4118  -11.9823   22.4740 H   0  0  0  0  0  0
  -21.1144  -13.1223   22.2678 H   0  0  0  0  0  0
  -24.6834  -15.8579   20.5162 H   0  0  0  0  0  0
  -26.3048  -15.6164   20.1095 H   0  0  0  0  0  0
  -26.7076  -32.5586   23.1168 H   0  0  0  0  0  0
  -25.0025  -33.9778   25.0506 H   0  0  0  0  0  0
  -22.6776  -31.3044   21.4054 H   0  0  0  0  0  0
  -23.3757  -35.9648   23.3323 H   0  0  0  0  0  0
  -24.3600  -36.8912   22.2066 H   0  0  0  0  0  0
  -23.7221  -37.6533   23.6639 H   0  0  0  0  0  0
  -26.0071  -31.6265   20.5747 H   0  0  0  0  0  0
  -26.8100  -30.9266   21.9529 H   0  0  0  0  0  0
  -28.0799  -29.1927   21.1542 H   0  0  0  0  0  0
  -26.1173  -25.9787   19.0534 H   0  0  0  0  0  0
  -24.0085  -27.2802   19.0348 H   0  0  0  0  0  0
  -23.7037  -30.5999   19.3984 H   0  0  0  0  0  0
  -22.7285  -29.2389   19.8655 H   0  0  0  0  0  0
  -25.1256  -36.2025   25.0869 H   0  0  0  0  0  0
  -20.9898  -28.3207   24.1464 H   0  0  0  0  0  0
  -20.5680  -26.2241   23.3589 H   0  0  0  0  0  0
  -21.6608  -26.7436   22.1209 H   0  0  0  0  0  0
  -19.6929  -25.6307   21.1212 H   0  0  0  0  0  0
  -19.6719  -27.3210   20.6795 H   0  0  0  0  0  0
  -17.4182  -26.6663   21.4018 H   0  0  0  0  0  0
  -18.0293  -26.0062   22.8998 H   0  0  0  0  0  0
  -19.7941  -30.7184   24.2315 H   0  0  0  0  0  0
  -17.5057  -31.6276   24.5150 H   0  0  0  0  0  0
  -15.5368  -30.3048   23.7637 H   0  0  0  0  0  0
  -15.8628  -28.0885   22.7037 H   0  0  0  0  0  0
  -24.5894  -30.7019   25.7862 H   0  0  0  0  0  0
  -24.8938  -32.2835   26.4955 H   0  0  0  0  0  0
  -25.8122  -30.8861   27.0236 H   0  0  0  0  0  0
  -26.2751  -29.6871   24.1024 H   0  0  0  0  0  0
  -27.4108  -29.7234   25.4322 H   0  0  0  0  0  0
  -27.8529  -30.4451   23.9018 H   0  0  0  0  0  0
  -27.2589  -33.3593   26.2050 H   0  0  0  0  0  0
  -28.3791  -32.6891   25.0278 H   0  0  0  0  0  0
  -28.0683  -31.8446   26.5376 H   0  0  0  0  0  0
  -28.2574  -38.0117   24.7501 H   0  0  0  0  0  0
  -28.1078  -36.2632   24.6291 H   0  0  0  0  0  0
  -27.2301  -37.1442   25.8882 H   0  0  0  0  0  0
  -20.9250  -29.8793   21.7012 H   0  0  0  0  0  0
  -26.0196  -38.2907   24.1433 H   0  0  0  0  0  0
  -29.9490  -22.5312   20.9467 H   0  0  0  0  0  0
  -29.8097  -20.1218   21.1216 H   0  0  0  0  0  0
  -33.2514  -22.5289   23.7669 H   0  0  0  0  0  0
  -32.2162  -24.6280   24.2144 H   0  0  0  0  0  0
  -32.3732  -25.9912   23.1125 H   0  0  0  0  0  0
  -33.5931  -24.7317   23.1076 H   0  0  0  0  0  0
  -31.0492  -16.0502   23.5276 H   0  0  0  0  0  0
  -32.3006  -15.9123   22.3155 H   0  0  0  0  0  0
  -29.7839  -25.5348   22.9879 H   0  0  0  0  0  0
  -28.8474  -24.6650   21.8131 H   0  0  0  0  0  0
  -31.5221  -25.8342   20.9759 H   0  0  0  0  0  0
  -30.7452  -24.4292   20.3329 H   0  0  0  0  0  0
  -29.9326  -27.4961   21.3034 H   0  0  0  0  0  0
  -28.4814  -27.1681   22.2142 H   0  0  0  0  0  0
  -32.0788  -18.1843   23.4354 H   0  0  0  0  0  0
  -29.6187  -14.7285   22.3056 H   0  0  0  0  0  0
  1 25  1  0  0  0
  1 30  2  0  0  0
  1 84  1  0  0  0
  2  3  1  0  0  0
  2 25  1  0  0  0
  2 88  1  0  0  0
  2 89  1  0  0  0
  3  4  1  0  0  0
  3 90  1  0  0  0
  3 91  1  0  0  0
  4  5  1  0  0  0
  4 92  1  0  0  0
  4 93  1  0  0  0
  5  6  1  0  0  0
  5 26  1  0  0  0
  5 94  1  0  0  0
  6 25  1  0  0  0
  6 95  1  0  0  0
  6 96  1  0  0  0
  7  8  2  0  0  0
  7 26  1  0  0  0
  7 29  1  0  0  0
  8  9  1  0  0  0
  8 22  1  0  0  0
  9 10  1  0  0  0
  9 27  2  0  0  0
 10 11  2  0  0  0
 10 15  1  0  0  0
 11 12  1  0  0  0
 11 97  1  0  0  0
 12 13  2  0  0  0
 12 98  1  0  0  0
 13 14  1  0  0  0
 13 31  1  0  0  0
 14 15  2  0  0  0
 14 99  1  0  0  0
 15100  1  0  0  0
 16 17  2  0  0  0
 16 21  1  0  0  0
 16 31  1  0  0  0
 17 18  1  0  0  0
 17101  1  0  0  0
 18 19  2  0  0  0
 18102  1  0  0  0
 19 20  1  0  0  0
 19 24  1  0  0  0
 20 21  2  0  0  0
 20103  1  0  0  0
 21 23  1  0  0  0
 22 28  1  0  0  0
 22 32  2  0  0  0
 26 27  1  0  0  0
 28104  1  0  0  0
 28105  1  0  0  0
 29106  1  0  0  0
 29107  1  0  0  0
 33 34  1  0  0  0
 33 66  1  0  0  0
 33 70  2  0  0  0
 34 36  1  0  0  0
 34 59  1  0  0  0
 34108  1  0  0  0
 35 44  2  0  0  0
 35 45  1  0  0  0
 35 68  1  0  0  0
 36 56  1  0  0  0
 36109  1  0  0  0
 37 39  1  0  0  0
 37 47  1  0  0  0
 37 66  1  0  0  0
 37110  1  0  0  0
 38 43  2  0  0  0
 38 46  1  0  0  0
 38 47  1  0  0  0
 39 64  1  0  0  0
 39 67  2  0  0  0
 40 52  1  0  0  0
 40 53  2  0  0  0
 40 58  1  0  0  0
 41111  1  0  0  0
 41112  1  0  0  0
 41113  1  0  0  0
 41 48  1  0  0  0
 42 43  1  0  0  0
 42 66  1  0  0  0
 42114  1  0  0  0
 42115  1  0  0  0
 43 44  1  0  0  0
 44116  1  0  0  0
 45 46  2  0  0  0
 45117  1  0  0  0
 46118  1  0  0  0
 47119  1  0  0  0
 47120  1  0  0  0
 48 56  1  0  0  0
 48 65  1  0  0  0
 48121  1  0  0  0
 49 50  1  0  0  0
 49 53  1  0  0  0
 49 64  1  0  0  0
 49122  1  0  0  0
 50 51  1  0  0  0
 50123  1  0  0  0
 50124  1  0  0  0
 51 52  1  0  0  0
 51125  1  0  0  0
 51126  1  0  0  0
 52127  1  0  0  0
 52128  1  0  0  0
 53 54  1  0  0  0
 54 55  2  0  0  0
 54129  1  0  0  0
 55 57  1  0  0  0
 55130  1  0  0  0
 56 69  2  0  0  0
 57 58  2  0  0  0
 57131  1  0  0  0
 58132  1  0  0  0
 59 60  1  0  0  0
 59 61  1  0  0  0
 59 62  1  0  0  0
 60133  1  0  0  0
 60134  1  0  0  0
 60135  1  0  0  0
 61136  1  0  0  0
 61137  1  0  0  0
 61138  1  0  0  0
 62139  1  0  0  0
 62140  1  0  0  0
 62141  1  0  0  0
 63 65  1  0  0  0
 63142  1  0  0  0
 63143  1  0  0  0
 63144  1  0  0  0
 64145  1  0  0  0
 65146  1  0  0  0
 68 82  1  0  0  0
 71 72  2  0  0  0
 71 74  1  0  0  0
 71147  1  0  0  0
 72 75  1  0  0  0
 72148  1  0  0  0
 73 74  2  0  0  0
 73 76  1  0  0  0
 73149  1  0  0  0
 74 85  1  0  0  0
 75 76  2  0  0  0
 75 83  1  0  0  0
 76 87  1  0  0  0
 77 79  1  0  0  0
 77 83  1  0  0  0
 77 86  2  0  0  0
 78 85  1  0  0  0
 78150  1  0  0  0
 78151  1  0  0  0
 78152  1  0  0  0
 79 84  1  0  0  0
 79153  1  0  0  0
 79154  1  0  0  0
 80 81  1  0  0  0
 80 82  1  0  0  0
 80155  1  0  0  0
 80156  1  0  0  0
 81 85  1  0  0  0
 81157  1  0  0  0
 81158  1  0  0  0
 82159  1  0  0  0
 82160  1  0  0  0
 83161  1  0  0  0
 84162  1  0  0  0
M  ISO  4   1 100  68 101  82 101  84 100
M  END
> <chiral flag>
0

> <version>
0

> <s_m_source_file>
/data/baiqing/PycharmProjects/Reinvent-master-3.2/result/LINK_invent/BTK/process_docking_weight1_custom_sum_contain_oxygen_bond_distance_aromatic_linkinvent_7_9_3/rearranged_h_0009.sdf

> <i_m_source_file_index>
48

> <r_mmod_Potential_Energy-OPLS-2005>
-239.940628051758

> <r_mmod_Stretch_Energy-OPLS-2005>
36.1102027893066

> <r_mmod_Bend_Energy-OPLS-2005>
118.659202575684

> <r_mmod_Torsional_Energy-OPLS-2005>
199.715637207031

> <r_mmod_Improper_Torsional_Energy-OPLS-2005>
3.11187148094177

> <r_mmod_Van_der_Waal_Energy-OPLS-2005>
173.151321411133

> <r_mmod_Electrostatic_Energy-OPLS-2005>
-530.134460449219

> <r_mmod_Solvation_Energy-OPLS-2005>
-249.658599853516

> <b_mmod_Minimization_Converged-OPLS-2005>
0

> <r_mmod_RMS_Derivative-OPLS-2005>
3.19771409034729

$$$$
49
                    3D
 Structure written by MMmdl.
171180  0  0  1  0            999 V2000
  -30.7802  -14.3183   20.7436 C   0  0  0  0  0  0
  -30.4258  -12.2969   19.3643 C   0  0  0  0  0  0
  -29.4772  -12.5418   18.1770 C   0  0  0  0  0  0
  -28.0064  -12.3837   18.6034 C   0  0  0  0  0  0
  -27.6709  -13.1961   19.8792 C   0  0  2  0  0  0
  -28.7099  -12.9144   20.9854 C   0  0  0  0  0  0
  -25.2635  -13.8143   20.5678 C   0  0  0  0  0  0
  -24.1865  -13.0435   20.9165 C   0  0  0  0  0  0
  -24.6393  -11.6897   20.8708 C   0  0  0  0  0  0
  -23.9043  -10.4293   21.0382 C   0  0  0  0  0  0
  -24.3604   -9.4218   21.9163 C   0  0  0  0  0  0
  -23.6288   -8.2250   22.0742 C   0  0  0  0  0  0
  -22.4268   -8.0279   21.3539 C   0  0  0  0  0  0
  -21.9896   -9.0244   20.4636 C   0  0  0  0  0  0
  -22.7212  -10.2130   20.3039 C   0  0  0  0  0  0
  -21.6854   -6.0737   22.5279 C   0  0  0  0  0  0
  -21.4015   -6.5640   23.8213 C   0  0  0  0  0  0
  -21.3657   -5.6790   24.9174 C   0  0  0  0  0  0
  -21.6046   -4.3053   24.7223 C   0  0  0  0  0  0
  -21.8819   -3.8148   23.4342 C   0  0  0  0  0  0
  -21.9195   -4.6966   22.3401 C   0  0  0  0  0  0
  -22.7890  -13.5242   21.1845 C   0  0  0  0  0  0
  -22.1664   -4.2153   21.0978 F   0  0  0  0  0  0
  -21.5627   -3.4535   25.7734 F   0  0  0  0  0  0
  -30.0619  -13.2032   20.4602 N   0  0  0  0  0  0
  -26.3073  -12.9291   20.3383 N   0  0  0  0  0  0
  -25.9320  -11.6456   20.5744 N   0  0  0  0  0  0
  -22.0532  -12.8231   22.0401 N   0  0  0  0  0  0
  -25.4384  -15.1858   20.4096 N   0  0  0  0  0  0
  -31.7170  -14.7294   20.0507 O   0  0  0  0  0  0
  -21.6638   -6.8874   21.4236 O   0  0  0  0  0  0
  -22.3573  -14.5555   20.6707 O   0  0  0  0  0  0
  -24.6113  -31.8696   23.2108 C   0  0  0  0  0  0
  -25.9016  -32.4828   23.8401 C   0  0  1  0  0  0
  -27.2446  -27.4618   20.0968 C   0  0  0  0  0  0
  -25.5885  -33.8628   24.2331 N   0  0  0  0  0  0
  -23.3985  -30.4887   21.5522 C   0  0  2  0  0  0
  -24.8462  -28.9495   20.1246 C   0  0  0  0  0  0
  -22.7389  -29.4650   22.5032 C   0  0  0  0  0  0
  -18.0261  -28.1378   22.8484 C   0  0  0  0  0  0
  -24.1485  -36.7312   23.2639 C   0  0  0  0  0  0
  -25.9226  -30.8424   21.3587 C   0  0  0  0  0  0
  -26.0032  -29.4745   20.7146 C   0  0  0  0  0  0
  -27.2058  -28.7387   20.6941 C   0  0  0  0  0  0
  -26.0728  -26.9366   19.5118 C   0  0  0  0  0  0
  -24.8746  -27.6775   19.5227 C   0  0  0  0  0  0
  -23.6065  -29.8136   20.1694 C   0  0  0  0  0  0
  -25.4107  -36.3112   24.0344 C   0  0  1  0  0  0
  -20.5844  -28.3652   23.1334 C   0  0  2  0  0  0
  -20.6753  -26.9399   22.5416 C   0  0  0  0  0  0
  -19.5737  -26.6387   21.5203 C   0  0  0  0  0  0
  -18.1911  -26.7923   22.1614 C   0  0  0  0  0  0
  -19.1511  -28.8832   23.2901 C   0  0  0  0  0  0
  -18.9445  -30.1436   23.8915 C   0  0  0  0  0  0
  -17.6452  -30.6586   24.0560 C   0  0  0  0  0  0
  -25.9030  -34.9479   23.5136 C   0  0  0  0  0  0
  -16.5340  -29.9093   23.6318 C   0  0  0  0  0  0
  -16.7249  -28.6508   23.0337 C   0  0  0  0  0  0
  -26.4465  -31.6609   25.0713 C   0  0  0  0  0  0
  -25.3737  -31.3708   26.1462 C   0  0  0  0  0  0
  -27.0285  -30.3064   24.6049 C   0  0  0  0  0  0
  -27.6049  -32.4335   25.7462 C   0  0  0  0  0  0
  -27.5587  -37.1802   24.8464 C   0  0  0  0  0  0
  -21.4123  -29.3020   22.3758 N   0  0  0  0  0  0
  -26.4293  -37.3798   23.9419 N   0  0  0  0  0  0
  -24.6620  -31.0812   22.0995 N   0  0  0  0  0  0
  -23.4173  -28.8194   23.3063 O   0  0  0  0  0  0
  -28.4400  -26.7924   20.0231 O   0  0  0  0  0  0
  -26.5591  -34.8926   22.4695 O   0  0  0  0  0  0
  -23.5313  -32.1431   23.7524 O   0  0  0  0  0  0
  -31.1388  -17.2345   21.8254 C   0  0  0  0  0  0
  -30.2924  -17.4552   24.4923 C   0  0  0  0  0  0
  -31.1936  -18.5031   22.4670 C   0  0  0  0  0  0
  -30.7369  -18.6101   23.8100 C   0  0  0  0  0  0
  -30.6597  -16.0944   22.5125 C   0  0  0  0  0  0
  -30.2448  -16.2144   23.8472 C   0  0  0  0  0  0
  -31.7180  -19.7076   21.7650 C   0  0  0  0  0  0
  -31.5220  -20.9432   22.2884 C   0  0  0  0  0  0
  -31.2331  -22.8999   20.5720 C   0  0  0  0  0  0
  -30.7184  -21.1399   23.5638 C   0  0  0  0  0  0
  -30.7813  -19.9520   24.5480 C   0  0  0  0  0  0
  -32.5243  -19.4623   20.4931 C   0  0  0  0  0  0
  -29.6064  -20.1161   25.5400 C   0  0  0  0  0  0
  -32.1046  -20.0185   25.3334 C   0  0  0  0  0  0
  -32.0528  -22.2448   21.6862 C   0  0  0  0  0  0
  -29.7042  -24.7603   20.0063 C   0  0  0  0  0  0
  -28.5004  -25.5002   20.6185 C   0  0  0  0  0  0
  -30.5071  -14.8003   21.9592 N   0  0  0  0  0  0
  -30.3232  -23.8141   20.9332 N   0  0  0  0  0  0
  -31.4684  -22.6329   19.3926 O   0  0  0  0  0  0
  -29.7869  -15.1234   24.5103 F   0  0  0  0  0  0
  -31.4637  -12.4266   19.0501 H   0  0  0  0  0  0
  -30.3465  -11.2640   19.7074 H   0  0  0  0  0  0
  -29.7051  -11.8499   17.3651 H   0  0  0  0  0  0
  -29.6376  -13.5447   17.7777 H   0  0  0  0  0  0
  -27.8188  -11.3238   18.7799 H   0  0  0  0  0  0
  -27.3454  -12.6783   17.7874 H   0  0  0  0  0  0
  -27.7366  -14.2529   19.6191 H   0  0  0  0  0  0
  -28.6685  -11.8666   21.2871 H   0  0  0  0  0  0
  -28.4440  -13.4821   21.8774 H   0  0  0  0  0  0
  -25.2750   -9.5706   22.4730 H   0  0  0  0  0  0
  -24.0006   -7.4643   22.7461 H   0  0  0  0  0  0
  -21.0829   -8.8748   19.8942 H   0  0  0  0  0  0
  -22.3654  -10.9663   19.6150 H   0  0  0  0  0  0
  -21.2006   -7.6147   23.9717 H   0  0  0  0  0  0
  -21.1480   -6.0521   25.9078 H   0  0  0  0  0  0
  -22.0601   -2.7609   23.2841 H   0  0  0  0  0  0
  -22.4144  -11.9888   22.4784 H   0  0  0  0  0  0
  -21.1152  -13.1256   22.2616 H   0  0  0  0  0  0
  -24.6789  -15.8483   20.5241 H   0  0  0  0  0  0
  -26.3035  -15.6212   20.1142 H   0  0  0  0  0  0
  -26.7089  -32.5553   23.1175 H   0  0  0  0  0  0
  -25.0048  -33.9800   25.0481 H   0  0  0  0  0  0
  -22.6839  -31.3023   21.4104 H   0  0  0  0  0  0
  -23.3743  -35.9644   23.3306 H   0  0  0  0  0  0
  -24.3585  -36.8917   22.2051 H   0  0  0  0  0  0
  -23.7241  -37.6521   23.6646 H   0  0  0  0  0  0
  -26.0246  -31.6038   20.5846 H   0  0  0  0  0  0
  -26.8151  -30.9051   21.9695 H   0  0  0  0  0  0
  -28.1062  -29.1476   21.1311 H   0  0  0  0  0  0
  -26.0887  -25.9702   19.0279 H   0  0  0  0  0  0
  -23.9870  -27.2663   19.0617 H   0  0  0  0  0  0
  -23.7156  -30.5843   19.4056 H   0  0  0  0  0  0
  -22.7301  -29.2315   19.8766 H   0  0  0  0  0  0
  -25.1279  -36.1977   25.0840 H   0  0  0  0  0  0
  -20.9927  -28.3207   24.1460 H   0  0  0  0  0  0
  -20.5654  -26.2261   23.3592 H   0  0  0  0  0  0
  -21.6629  -26.7451   22.1214 H   0  0  0  0  0  0
  -19.6900  -25.6297   21.1230 H   0  0  0  0  0  0
  -19.6689  -27.3199   20.6733 H   0  0  0  0  0  0
  -17.4185  -26.6658   21.4013 H   0  0  0  0  0  0
  -18.0319  -26.0065   22.9012 H   0  0  0  0  0  0
  -19.7925  -30.7234   24.2308 H   0  0  0  0  0  0
  -17.5015  -31.6271   24.5160 H   0  0  0  0  0  0
  -15.5346  -30.3012   23.7644 H   0  0  0  0  0  0
  -15.8634  -28.0845   22.7053 H   0  0  0  0  0  0
  -24.5903  -30.7067   25.7792 H   0  0  0  0  0  0
  -24.8925  -32.2855   26.4928 H   0  0  0  0  0  0
  -25.8083  -30.8857   27.0207 H   0  0  0  0  0  0
  -26.2802  -29.6833   24.1128 H   0  0  0  0  0  0
  -27.4110  -29.7290   25.4474 H   0  0  0  0  0  0
  -27.8611  -30.4404   23.9138 H   0  0  0  0  0  0
  -27.2677  -33.3628   26.2069 H   0  0  0  0  0  0
  -28.3828  -32.6923   25.0266 H   0  0  0  0  0  0
  -28.0748  -31.8444   26.5347 H   0  0  0  0  0  0
  -28.2595  -38.0104   24.7532 H   0  0  0  0  0  0
  -28.1095  -36.2644   24.6261 H   0  0  0  0  0  0
  -27.2311  -37.1413   25.8866 H   0  0  0  0  0  0
  -20.9288  -29.8739   21.6977 H   0  0  0  0  0  0
  -26.0177  -38.2875   24.1426 H   0  0  0  0  0  0
  -31.4537  -17.1324   20.7991 H   0  0  0  0  0  0
  -29.9811  -17.4947   25.5235 H   0  0  0  0  0  0
  -29.6890  -21.3110   23.2446 H   0  0  0  0  0  0
  -31.0255  -22.0485   24.0829 H   0  0  0  0  0  0
  -31.9000  -19.0012   19.7282 H   0  0  0  0  0  0
  -33.3622  -18.7968   20.7023 H   0  0  0  0  0  0
  -32.9353  -20.3636   20.0452 H   0  0  0  0  0  0
  -28.6453  -19.9582   25.0479 H   0  0  0  0  0  0
  -29.5881  -21.1190   25.9676 H   0  0  0  0  0  0
  -29.6649  -19.4303   26.3840 H   0  0  0  0  0  0
  -32.9675  -19.9564   24.6688 H   0  0  0  0  0  0
  -32.1860  -19.1965   26.0456 H   0  0  0  0  0  0
  -32.1898  -20.9486   25.8958 H   0  0  0  0  0  0
  -33.0637  -22.0802   21.3149 H   0  0  0  0  0  0
  -32.2032  -22.9794   22.4778 H   0  0  0  0  0  0
  -30.4733  -25.4864   19.7358 H   0  0  0  0  0  0
  -29.4038  -24.2684   19.0797 H   0  0  0  0  0  0
  -27.5906  -24.9161   20.4753 H   0  0  0  0  0  0
  -28.6292  -25.6356   21.6931 H   0  0  0  0  0  0
  -29.9351  -14.1883   22.5231 H   0  0  0  0  0  0
  -30.1804  -23.9746   21.9217 H   0  0  0  0  0  0
  1 25  1  0  0  0
  1 30  2  0  0  0
  1 88  1  0  0  0
  2  3  1  0  0  0
  2 25  1  0  0  0
  2 92  1  0  0  0
  2 93  1  0  0  0
  3  4  1  0  0  0
  3 94  1  0  0  0
  3 95  1  0  0  0
  4  5  1  0  0  0
  4 96  1  0  0  0
  4 97  1  0  0  0
  5  6  1  0  0  0
  5 26  1  0  0  0
  5 98  1  0  0  0
  6 25  1  0  0  0
  6 99  1  0  0  0
  6100  1  0  0  0
  7  8  2  0  0  0
  7 26  1  0  0  0
  7 29  1  0  0  0
  8  9  1  0  0  0
  8 22  1  0  0  0
  9 10  1  0  0  0
  9 27  2  0  0  0
 10 11  2  0  0  0
 10 15  1  0  0  0
 11 12  1  0  0  0
 11101  1  0  0  0
 12 13  2  0  0  0
 12102  1  0  0  0
 13 14  1  0  0  0
 13 31  1  0  0  0
 14 15  2  0  0  0
 14103  1  0  0  0
 15104  1  0  0  0
 16 17  2  0  0  0
 16 21  1  0  0  0
 16 31  1  0  0  0
 17 18  1  0  0  0
 17105  1  0  0  0
 18 19  2  0  0  0
 18106  1  0  0  0
 19 20  1  0  0  0
 19 24  1  0  0  0
 20 21  2  0  0  0
 20107  1  0  0  0
 21 23  1  0  0  0
 22 28  1  0  0  0
 22 32  2  0  0  0
 26 27  1  0  0  0
 28108  1  0  0  0
 28109  1  0  0  0
 29110  1  0  0  0
 29111  1  0  0  0
 33 34  1  0  0  0
 33 66  1  0  0  0
 33 70  2  0  0  0
 34 36  1  0  0  0
 34 59  1  0  0  0
 34112  1  0  0  0
 35 44  2  0  0  0
 35 45  1  0  0  0
 35 68  1  0  0  0
 36 56  1  0  0  0
 36113  1  0  0  0
 37 39  1  0  0  0
 37 47  1  0  0  0
 37 66  1  0  0  0
 37114  1  0  0  0
 38 43  2  0  0  0
 38 46  1  0  0  0
 38 47  1  0  0  0
 39 64  1  0  0  0
 39 67  2  0  0  0
 40 52  1  0  0  0
 40 53  2  0  0  0
 40 58  1  0  0  0
 41115  1  0  0  0
 41116  1  0  0  0
 41117  1  0  0  0
 41 48  1  0  0  0
 42 43  1  0  0  0
 42 66  1  0  0  0
 42118  1  0  0  0
 42119  1  0  0  0
 43 44  1  0  0  0
 44120  1  0  0  0
 45 46  2  0  0  0
 45121  1  0  0  0
 46122  1  0  0  0
 47123  1  0  0  0
 47124  1  0  0  0
 48 56  1  0  0  0
 48 65  1  0  0  0
 48125  1  0  0  0
 49 50  1  0  0  0
 49 53  1  0  0  0
 49 64  1  0  0  0
 49126  1  0  0  0
 50 51  1  0  0  0
 50127  1  0  0  0
 50128  1  0  0  0
 51 52  1  0  0  0
 51129  1  0  0  0
 51130  1  0  0  0
 52131  1  0  0  0
 52132  1  0  0  0
 53 54  1  0  0  0
 54 55  2  0  0  0
 54133  1  0  0  0
 55 57  1  0  0  0
 55134  1  0  0  0
 56 69  2  0  0  0
 57 58  2  0  0  0
 57135  1  0  0  0
 58136  1  0  0  0
 59 60  1  0  0  0
 59 61  1  0  0  0
 59 62  1  0  0  0
 60137  1  0  0  0
 60138  1  0  0  0
 60139  1  0  0  0
 61140  1  0  0  0
 61141  1  0  0  0
 61142  1  0  0  0
 62143  1  0  0  0
 62144  1  0  0  0
 62145  1  0  0  0
 63 65  1  0  0  0
 63146  1  0  0  0
 63147  1  0  0  0
 63148  1  0  0  0
 64149  1  0  0  0
 65150  1  0  0  0
 68 87  1  0  0  0
 71 73  2  0  0  0
 71 75  1  0  0  0
 71151  1  0  0  0
 72 74  2  0  0  0
 72 76  1  0  0  0
 72152  1  0  0  0
 73 74  1  0  0  0
 73 77  1  0  0  0
 74 81  1  0  0  0
 75 76  2  0  0  0
 75 88  1  0  0  0
 76 91  1  0  0  0
 77 78  2  0  0  0
 77 82  1  0  0  0
 78 80  1  0  0  0
 78 85  1  0  0  0
 79 85  1  0  0  0
 79 89  1  0  0  0
 79 90  2  0  0  0
 80 81  1  0  0  0
 80153  1  0  0  0
 80154  1  0  0  0
 81 83  1  0  0  0
 81 84  1  0  0  0
 82155  1  0  0  0
 82156  1  0  0  0
 82157  1  0  0  0
 83158  1  0  0  0
 83159  1  0  0  0
 83160  1  0  0  0
 84161  1  0  0  0
 84162  1  0  0  0
 84163  1  0  0  0
 85164  1  0  0  0
 85165  1  0  0  0
 86 87  1  0  0  0
 86 89  1  0  0  0
 86166  1  0  0  0
 86167  1  0  0  0
 87168  1  0  0  0
 87169  1  0  0  0
 88170  1  0  0  0
 89171  1  0  0  0
M  ISO  4   1 100  68 101  87 101  88 100
M  END
> <chiral flag>
0

> <version>
0

> <s_m_source_file>
/data/baiqing/PycharmProjects/Reinvent-master-3.2/result/LINK_invent/BTK/process_docking_weight1_custom_sum_contain_oxygen_bond_distance_aromatic_linkinvent_7_9_3/rearranged_h_0009.sdf

> <i_m_source_file_index>
49

> <r_mmod_Potential_Energy-OPLS-2005>
-160.140670776367

> <r_mmod_Stretch_Energy-OPLS-2005>
36.2653160095215

> <r_mmod_Bend_Energy-OPLS-2005>
111.115013122559

> <r_mmod_Torsional_Energy-OPLS-2005>
234.274566650391

> <r_mmod_Improper_Torsional_Energy-OPLS-2005>
5.73835229873657

> <r_mmod_Van_der_Waal_Energy-OPLS-2005>
173.044616699219

> <r_mmod_Electrostatic_Energy-OPLS-2005>
-510.782379150391

> <r_mmod_Solvation_Energy-OPLS-2005>
-218.459182739258

> <b_mmod_Minimization_Converged-OPLS-2005>
0

> <r_mmod_RMS_Derivative-OPLS-2005>
1.3055100440979

$$$$
50
                    3D
 Structure written by MMmdl.
148156  0  0  1  0            999 V2000
  -30.5228  -14.9167   20.4313 C   0  0  0  0  0  0
  -30.4527  -12.5651   19.4877 C   0  0  0  0  0  0
  -29.5223  -12.5321   18.2510 C   0  0  0  0  0  0
  -28.0527  -12.3252   18.6684 C   0  0  0  0  0  0
  -27.6371  -13.2417   19.8490 C   0  0  2  0  0  0
  -28.6854  -13.2233   20.9832 C   0  0  0  0  0  0
  -25.2448  -13.8158   20.5686 C   0  0  0  0  0  0
  -24.1761  -13.0385   20.9174 C   0  0  0  0  0  0
  -24.6398  -11.6886   20.8731 C   0  0  0  0  0  0
  -23.9080  -10.4267   21.0394 C   0  0  0  0  0  0
  -24.3625   -9.4188   21.9179 C   0  0  0  0  0  0
  -23.6292   -8.2230   22.0755 C   0  0  0  0  0  0
  -22.4274   -8.0271   21.3544 C   0  0  0  0  0  0
  -21.9911   -9.0243   20.4644 C   0  0  0  0  0  0
  -22.7248  -10.2114   20.3049 C   0  0  0  0  0  0
  -21.6850   -6.0728   22.5280 C   0  0  0  0  0  0
  -21.4012   -6.5634   23.8212 C   0  0  0  0  0  0
  -21.3660   -5.6789   24.9174 C   0  0  0  0  0  0
  -21.6045   -4.3052   24.7226 C   0  0  0  0  0  0
  -21.8819   -3.8143   23.4348 C   0  0  0  0  0  0
  -21.9192   -4.6957   22.3403 C   0  0  0  0  0  0
  -22.7788  -13.5170   21.1852 C   0  0  0  0  0  0
  -22.1660   -4.2142   21.0982 F   0  0  0  0  0  0
  -21.5629   -3.4538   25.7740 F   0  0  0  0  0  0
  -29.9694  -13.6394   20.3971 N   0  0  0  0  0  0
  -26.2925  -12.9417   20.3307 N   0  0  0  0  0  0
  -25.9345  -11.6543   20.5765 N   0  0  0  0  0  0
  -22.0456  -12.8166   22.0431 N   0  0  0  0  0  0
  -25.3980  -15.1883   20.4162 N   0  0  0  0  0  0
  -31.7121  -15.0435   20.1228 O   0  0  0  0  0  0
  -21.6635   -6.8872   21.4244 O   0  0  0  0  0  0
  -22.3462  -14.5480   20.6716 O   0  0  0  0  0  0
  -24.6428  -31.8455   23.1893 C   0  0  0  0  0  0
  -25.9209  -32.4700   23.8276 C   0  0  1  0  0  0
  -27.2212  -27.1510   20.1471 C   0  0  0  0  0  0
  -25.5964  -33.8504   24.2195 N   0  0  0  0  0  0
  -23.4449  -30.4655   21.5359 C   0  0  2  0  0  0
  -24.8944  -28.8950   20.1116 C   0  0  0  0  0  0
  -22.7562  -29.4554   22.4876 C   0  0  0  0  0  0
  -18.0303  -28.1391   22.8474 C   0  0  0  0  0  0
  -24.1491  -36.7254   23.2643 C   0  0  0  0  0  0
  -26.0006  -30.7234   21.3865 C   0  0  0  0  0  0
  -26.0726  -29.3366   20.7270 C   0  0  0  0  0  0
  -27.2368  -28.4816   20.7267 C   0  0  0  0  0  0
  -26.0137  -26.8076   19.4968 C   0  0  0  0  0  0
  -24.8771  -27.6429   19.4817 C   0  0  0  0  0  0
  -23.6701  -29.7953   20.1550 C   0  0  0  0  0  0
  -25.4124  -36.3031   24.0314 C   0  0  1  0  0  0
  -20.5913  -28.3716   23.1235 C   0  0  2  0  0  0
  -20.6789  -26.9421   22.5402 C   0  0  0  0  0  0
  -19.5763  -26.6379   21.5207 C   0  0  0  0  0  0
  -18.1943  -26.7929   22.1619 C   0  0  0  0  0  0
  -19.1560  -28.8871   23.2842 C   0  0  0  0  0  0
  -18.9482  -30.1469   23.8864 C   0  0  0  0  0  0
  -17.6481  -30.6589   24.0555 C   0  0  0  0  0  0
  -25.9077  -34.9407   23.5060 C   0  0  0  0  0  0
  -16.5369  -29.9083   23.6336 C   0  0  0  0  0  0
  -16.7289  -28.6501   23.0355 C   0  0  0  0  0  0
  -26.4531  -31.6565   25.0715 C   0  0  0  0  0  0
  -25.3716  -31.3757   26.1412 C   0  0  0  0  0  0
  -27.0405  -30.2964   24.6293 C   0  0  0  0  0  0
  -27.6058  -32.4335   25.7502 C   0  0  0  0  0  0
  -27.5572  -37.1784   24.8468 C   0  0  0  0  0  0
  -21.4257  -29.3048   22.3615 N   0  0  0  0  0  0
  -26.4286  -37.3746   23.9406 N   0  0  0  0  0  0
  -24.7159  -31.0322   22.0923 N   0  0  0  0  0  0
  -23.4206  -28.8102   23.3024 O   0  0  0  0  0  0
  -28.2815  -26.1757   20.2129 O   0  0  0  0  0  0
  -26.5659  -34.8900   22.4636 O   0  0  0  0  0  0
  -23.5548  -32.1335   23.7117 O   0  0  0  0  0  0
  -27.9545  -19.4976   20.6062 C   0  0  0  0  0  0
  -30.2294  -19.9959   20.2757 C   0  0  0  0  0  0
  -29.5582  -17.5258   20.5345 C   0  0  0  0  0  0
  -28.9008  -20.5481   20.4056 C   0  0  0  0  0  0
  -28.2565  -18.0910   20.6717 C   0  0  0  0  0  0
  -30.5473  -18.5603   20.3325 C   0  0  0  0  0  0
  -27.9825  -24.6539   20.1089 C   0  0  0  0  0  0
  -28.9862  -23.3142   20.3044 C   0  0  0  0  0  0
  -29.6483  -16.0013   20.6502 N   0  0  0  0  0  0
  -28.3697  -21.9133   20.3406 O   0  0  0  0  0  0
  -27.2305  -17.2317   20.8750 F   0  0  0  0  0  0
  -31.8433  -18.1912   20.1953 F   0  0  0  0  0  0
  -31.4836  -12.7360   19.1734 H   0  0  0  0  0  0
  -30.4520  -11.6013   19.9993 H   0  0  0  0  0  0
  -29.8312  -11.7411   17.5661 H   0  0  0  0  0  0
  -29.6158  -13.4680   17.6981 H   0  0  0  0  0  0
  -27.9382  -11.2801   18.9580 H   0  0  0  0  0  0
  -27.3899  -12.4788   17.8159 H   0  0  0  0  0  0
  -27.6087  -14.2533   19.4431 H   0  0  0  0  0  0
  -28.7637  -12.2292   21.4259 H   0  0  0  0  0  0
  -28.3912  -13.8934   21.7926 H   0  0  0  0  0  0
  -25.2769   -9.5662   22.4755 H   0  0  0  0  0  0
  -23.9993   -7.4622   22.7481 H   0  0  0  0  0  0
  -21.0840   -8.8767   19.8953 H   0  0  0  0  0  0
  -22.3712  -10.9652   19.6157 H   0  0  0  0  0  0
  -21.2007   -7.6142   23.9711 H   0  0  0  0  0  0
  -21.1481   -6.0521   25.9077 H   0  0  0  0  0  0
  -22.0600   -2.7605   23.2852 H   0  0  0  0  0  0
  -22.4085  -11.9830   22.4812 H   0  0  0  0  0  0
  -21.1083  -13.1194   22.2663 H   0  0  0  0  0  0
  -24.6245  -15.8238   20.5731 H   0  0  0  0  0  0
  -26.2675  -15.6807   20.2466 H   0  0  0  0  0  0
  -26.7276  -32.5313   23.1006 H   0  0  0  0  0  0
  -25.0101  -33.9624   25.0335 H   0  0  0  0  0  0
  -22.7461  -31.2907   21.3828 H   0  0  0  0  0  0
  -23.3755  -35.9585   23.3307 H   0  0  0  0  0  0
  -24.3578  -36.8885   22.2058 H   0  0  0  0  0  0
  -23.7241  -37.6446   23.6684 H   0  0  0  0  0  0
  -26.1550  -31.4790   20.6151 H   0  0  0  0  0  0
  -26.8708  -30.7721   22.0293 H   0  0  0  0  0  0
  -28.1343  -28.8162   21.2277 H   0  0  0  0  0  0
  -25.9066  -25.8535   19.0054 H   0  0  0  0  0  0
  -23.9780  -27.2978   18.9900 H   0  0  0  0  0  0
  -23.8054  -30.5707   19.4003 H   0  0  0  0  0  0
  -22.7848  -29.2374   19.8444 H   0  0  0  0  0  0
  -25.1307  -36.1863   25.0806 H   0  0  0  0  0  0
  -20.9996  -28.3311   24.1359 H   0  0  0  0  0  0
  -20.5682  -26.2333   23.3623 H   0  0  0  0  0  0
  -21.6656  -26.7433   22.1198 H   0  0  0  0  0  0
  -19.6928  -25.6283   21.1256 H   0  0  0  0  0  0
  -19.6700  -27.3170   20.6719 H   0  0  0  0  0  0
  -17.4211  -26.6668   21.4024 H   0  0  0  0  0  0
  -18.0345  -26.0073   22.9017 H   0  0  0  0  0  0
  -19.7961  -30.7288   24.2218 H   0  0  0  0  0  0
  -17.5039  -31.6268   24.5163 H   0  0  0  0  0  0
  -15.5367  -30.2973   23.7687 H   0  0  0  0  0  0
  -15.8688  -28.0812   22.7085 H   0  0  0  0  0  0
  -24.5897  -30.7101   25.7737 H   0  0  0  0  0  0
  -24.8902  -32.2942   26.4781 H   0  0  0  0  0  0
  -25.7994  -30.8970   27.0229 H   0  0  0  0  0  0
  -26.3028  -29.6681   24.1289 H   0  0  0  0  0  0
  -27.4016  -29.7264   25.4865 H   0  0  0  0  0  0
  -27.8932  -30.4208   23.9614 H   0  0  0  0  0  0
  -27.2650  -33.3660   26.2015 H   0  0  0  0  0  0
  -28.3902  -32.6859   25.0355 H   0  0  0  0  0  0
  -28.0692  -31.8506   26.5474 H   0  0  0  0  0  0
  -28.2587  -38.0082   24.7503 H   0  0  0  0  0  0
  -28.1068  -36.2608   24.6312 H   0  0  0  0  0  0
  -27.2290  -37.1447   25.8873 H   0  0  0  0  0  0
  -20.9472  -29.8764   21.6795 H   0  0  0  0  0  0
  -26.0153  -38.2813   24.1409 H   0  0  0  0  0  0
  -26.9177  -19.7781   20.7194 H   0  0  0  0  0  0
  -31.0484  -20.6814   20.1165 H   0  0  0  0  0  0
  -27.1596  -24.4925   20.8063 H   0  0  0  0  0  0
  -27.5501  -24.5063   19.1205 H   0  0  0  0  0  0
  -29.5391  -23.4368   21.2357 H   0  0  0  0  0  0
  -29.7356  -23.3258   19.5129 H   0  0  0  0  0  0
  -28.7382  -15.6339   20.8804 H   0  0  0  0  0  0
  1 25  1  0  0  0
  1 30  2  0  0  0
  1 79  1  0  0  0
  2  3  1  0  0  0
  2 25  1  0  0  0
  2 83  1  0  0  0
  2 84  1  0  0  0
  3  4  1  0  0  0
  3 85  1  0  0  0
  3 86  1  0  0  0
  4  5  1  0  0  0
  4 87  1  0  0  0
  4 88  1  0  0  0
  5  6  1  0  0  0
  5 26  1  0  0  0
  5 89  1  0  0  0
  6 25  1  0  0  0
  6 90  1  0  0  0
  6 91  1  0  0  0
  7  8  2  0  0  0
  7 26  1  0  0  0
  7 29  1  0  0  0
  8  9  1  0  0  0
  8 22  1  0  0  0
  9 10  1  0  0  0
  9 27  2  0  0  0
 10 11  2  0  0  0
 10 15  1  0  0  0
 11 12  1  0  0  0
 11 92  1  0  0  0
 12 13  2  0  0  0
 12 93  1  0  0  0
 13 14  1  0  0  0
 13 31  1  0  0  0
 14 15  2  0  0  0
 14 94  1  0  0  0
 15 95  1  0  0  0
 16 17  2  0  0  0
 16 21  1  0  0  0
 16 31  1  0  0  0
 17 18  1  0  0  0
 17 96  1  0  0  0
 18 19  2  0  0  0
 18 97  1  0  0  0
 19 20  1  0  0  0
 19 24  1  0  0  0
 20 21  2  0  0  0
 20 98  1  0  0  0
 21 23  1  0  0  0
 22 28  1  0  0  0
 22 32  2  0  0  0
 26 27  1  0  0  0
 28 99  1  0  0  0
 28100  1  0  0  0
 29101  1  0  0  0
 29102  1  0  0  0
 33 34  1  0  0  0
 33 66  1  0  0  0
 33 70  2  0  0  0
 34 36  1  0  0  0
 34 59  1  0  0  0
 34103  1  0  0  0
 35 44  2  0  0  0
 35 45  1  0  0  0
 35 68  1  0  0  0
 36 56  1  0  0  0
 36104  1  0  0  0
 37 39  1  0  0  0
 37 47  1  0  0  0
 37 66  1  0  0  0
 37105  1  0  0  0
 38 43  2  0  0  0
 38 46  1  0  0  0
 38 47  1  0  0  0
 39 64  1  0  0  0
 39 67  2  0  0  0
 40 52  1  0  0  0
 40 53  2  0  0  0
 40 58  1  0  0  0
 41106  1  0  0  0
 41107  1  0  0  0
 41108  1  0  0  0
 41 48  1  0  0  0
 42 43  1  0  0  0
 42 66  1  0  0  0
 42109  1  0  0  0
 42110  1  0  0  0
 43 44  1  0  0  0
 44111  1  0  0  0
 45 46  2  0  0  0
 45112  1  0  0  0
 46113  1  0  0  0
 47114  1  0  0  0
 47115  1  0  0  0
 48 56  1  0  0  0
 48 65  1  0  0  0
 48116  1  0  0  0
 49 50  1  0  0  0
 49 53  1  0  0  0
 49 64  1  0  0  0
 49117  1  0  0  0
 50 51  1  0  0  0
 50118  1  0  0  0
 50119  1  0  0  0
 51 52  1  0  0  0
 51120  1  0  0  0
 51121  1  0  0  0
 52122  1  0  0  0
 52123  1  0  0  0
 53 54  1  0  0  0
 54 55  2  0  0  0
 54124  1  0  0  0
 55 57  1  0  0  0
 55125  1  0  0  0
 56 69  2  0  0  0
 57 58  2  0  0  0
 57126  1  0  0  0
 58127  1  0  0  0
 59 60  1  0  0  0
 59 61  1  0  0  0
 59 62  1  0  0  0
 60128  1  0  0  0
 60129  1  0  0  0
 60130  1  0  0  0
 61131  1  0  0  0
 61132  1  0  0  0
 61133  1  0  0  0
 62134  1  0  0  0
 62135  1  0  0  0
 62136  1  0  0  0
 63 65  1  0  0  0
 63137  1  0  0  0
 63138  1  0  0  0
 63139  1  0  0  0
 64140  1  0  0  0
 65141  1  0  0  0
 68 77  1  0  0  0
 71 74  2  0  0  0
 71 75  1  0  0  0
 71142  1  0  0  0
 72 74  1  0  0  0
 72 76  2  0  0  0
 72143  1  0  0  0
 73 75  2  0  0  0
 73 76  1  0  0  0
 73 79  1  0  0  0
 74 80  1  0  0  0
 75 81  1  0  0  0
 76 82  1  0  0  0
 77 78  1  0  0  0
 77144  1  0  0  0
 77145  1  0  0  0
 78 80  1  0  0  0
 78146  1  0  0  0
 78147  1  0  0  0
 79148  1  0  0  0
M  ISO  4   1 100  68 101  77 101  79 100
M  END
> <chiral flag>
0

> <version>
0

> <s_m_source_file>
/data/baiqing/PycharmProjects/Reinvent-master-3.2/result/LINK_invent/BTK/process_docking_weight1_custom_sum_contain_oxygen_bond_distance_aromatic_linkinvent_7_9_3/rearranged_h_0009.sdf

> <i_m_source_file_index>
50

> <r_mmod_Potential_Energy-OPLS-2005>
399.469116210938

> <r_mmod_Stretch_Energy-OPLS-2005>
214.641143798828

> <r_mmod_Bend_Energy-OPLS-2005>
307.445495605469

> <r_mmod_Torsional_Energy-OPLS-2005>
210.494476318359

> <r_mmod_Improper_Torsional_Energy-OPLS-2005>
3.88823580741882

> <r_mmod_Van_der_Waal_Energy-OPLS-2005>
132.977157592773

> <r_mmod_Electrostatic_Energy-OPLS-2005>
-434.508483886719

> <r_mmod_Solvation_Energy-OPLS-2005>
-210.045440673828

> <b_mmod_Minimization_Converged-OPLS-2005>
0

> <r_mmod_RMS_Derivative-OPLS-2005>
0.629383087158203

$$$$
51
                    3D
 Structure written by MMmdl.
148156  0  0  1  0            999 V2000
  -30.5229  -14.9232   20.4181 C   0  0  0  0  0  0
  -30.4522  -12.5679   19.4857 C   0  0  0  0  0  0
  -29.5227  -12.5332   18.2487 C   0  0  0  0  0  0
  -28.0534  -12.3247   18.6659 C   0  0  0  0  0  0
  -27.6357  -13.2432   19.8441 C   0  0  2  0  0  0
  -28.6845  -13.2333   20.9779 C   0  0  0  0  0  0
  -25.2456  -13.8175   20.5705 C   0  0  0  0  0  0
  -24.1773  -13.0399   20.9199 C   0  0  0  0  0  0
  -24.6405  -11.6897   20.8735 C   0  0  0  0  0  0
  -23.9085  -10.4272   21.0392 C   0  0  0  0  0  0
  -24.3628   -9.4192   21.9179 C   0  0  0  0  0  0
  -23.6291   -8.2235   22.0754 C   0  0  0  0  0  0
  -22.4274   -8.0279   21.3544 C   0  0  0  0  0  0
  -21.9913   -9.0252   20.4647 C   0  0  0  0  0  0
  -22.7251  -10.2121   20.3049 C   0  0  0  0  0  0
  -21.6852   -6.0729   22.5276 C   0  0  0  0  0  0
  -21.4014   -6.5632   23.8209 C   0  0  0  0  0  0
  -21.3661   -5.6786   24.9172 C   0  0  0  0  0  0
  -21.6045   -4.3049   24.7224 C   0  0  0  0  0  0
  -21.8819   -3.8140   23.4346 C   0  0  0  0  0  0
  -21.9192   -4.6956   22.3400 C   0  0  0  0  0  0
  -22.7793  -13.5178   21.1865 C   0  0  0  0  0  0
  -22.1662   -4.2142   21.0978 F   0  0  0  0  0  0
  -21.5629   -3.4535   25.7738 F   0  0  0  0  0  0
  -29.9675  -13.6465   20.3882 N   0  0  0  0  0  0
  -26.2919  -12.9426   20.3274 N   0  0  0  0  0  0
  -25.9344  -11.6552   20.5738 N   0  0  0  0  0  0
  -22.0453  -12.8180   22.0439 N   0  0  0  0  0  0
  -25.3985  -15.1905   20.4184 N   0  0  0  0  0  0
  -31.7200  -15.0470   20.1363 O   0  0  0  0  0  0
  -21.6638   -6.8877   21.4241 O   0  0  0  0  0  0
  -22.3469  -14.5485   20.6719 O   0  0  0  0  0  0
  -24.6439  -31.8448   23.1893 C   0  0  0  0  0  0
  -25.9212  -32.4700   23.8284 C   0  0  1  0  0  0
  -27.2223  -27.1432   20.1398 C   0  0  0  0  0  0
  -25.5958  -33.8506   24.2198 N   0  0  0  0  0  0
  -23.4477  -30.4650   21.5350 C   0  0  2  0  0  0
  -24.8980  -28.8964   20.1096 C   0  0  0  0  0  0
  -22.7575  -29.4549   22.4860 C   0  0  0  0  0  0
  -18.0310  -28.1394   22.8479 C   0  0  0  0  0  0
  -24.1494  -36.7257   23.2643 C   0  0  0  0  0  0
  -26.0046  -30.7195   21.3893 C   0  0  0  0  0  0
  -26.0766  -29.3321   20.7284 C   0  0  0  0  0  0
  -27.2389  -28.4715   20.7288 C   0  0  0  0  0  0
  -26.0152  -26.8130   19.4806 C   0  0  0  0  0  0
  -24.8797  -27.6491   19.4716 C   0  0  0  0  0  0
  -23.6743  -29.7971   20.1537 C   0  0  0  0  0  0
  -25.4126  -36.3034   24.0315 C   0  0  1  0  0  0
  -20.5923  -28.3721   23.1235 C   0  0  2  0  0  0
  -20.6792  -26.9422   22.5404 C   0  0  0  0  0  0
  -19.5763  -26.6377   21.5215 C   0  0  0  0  0  0
  -18.1947  -26.7931   22.1629 C   0  0  0  0  0  0
  -19.1567  -28.8877   23.2848 C   0  0  0  0  0  0
  -18.9481  -30.1472   23.8873 C   0  0  0  0  0  0
  -17.6475  -30.6587   24.0559 C   0  0  0  0  0  0
  -25.9075  -34.9408   23.5066 C   0  0  0  0  0  0
  -16.5367  -29.9078   23.6333 C   0  0  0  0  0  0
  -16.7295  -28.6499   23.0353 C   0  0  0  0  0  0
  -26.4526  -31.6565   25.0726 C   0  0  0  0  0  0
  -25.3704  -31.3764   26.1418 C   0  0  0  0  0  0
  -27.0383  -30.2952   24.6315 C   0  0  0  0  0  0
  -27.6058  -32.4329   25.7509 C   0  0  0  0  0  0
  -27.5573  -37.1795   24.8471 C   0  0  0  0  0  0
  -21.4268  -29.3048   22.3605 N   0  0  0  0  0  0
  -26.4295  -37.3740   23.9396 N   0  0  0  0  0  0
  -24.7183  -31.0306   22.0927 N   0  0  0  0  0  0
  -23.4220  -28.8092   23.3006 O   0  0  0  0  0  0
  -28.2679  -26.1479   20.2098 O   0  0  0  0  0  0
  -26.5660  -34.8903   22.4644 O   0  0  0  0  0  0
  -23.5556  -32.1328   23.7105 O   0  0  0  0  0  0
  -30.2961  -20.0170   20.4256 C   0  0  0  0  0  0
  -30.5838  -18.5770   20.5039 C   0  0  0  0  0  0
  -28.0053  -19.5294   20.1717 C   0  0  0  0  0  0
  -28.9753  -20.5791   20.2571 C   0  0  0  0  0  0
  -29.5783  -17.5427   20.4311 C   0  0  0  0  0  0
  -28.2822  -18.1155   20.2590 C   0  0  0  0  0  0
  -28.9344  -23.3662   20.2880 C   0  0  0  0  0  0
  -27.9293  -24.6471   19.9728 C   0  0  0  0  0  0
  -28.4899  -22.0311   20.1185 N   0  0  0  0  0  0
  -29.6452  -16.0185   20.5765 N   0  0  0  0  0  0
  -30.0846  -23.5963   20.6703 O   0  0  0  0  0  0
  -27.2386  -17.2582   20.1703 F   0  0  0  0  0  0
  -31.4835  -12.7374   19.1725 H   0  0  0  0  0  0
  -30.4493  -11.6058   20.0004 H   0  0  0  0  0  0
  -29.8323  -11.7426   17.5639 H   0  0  0  0  0  0
  -29.6152  -13.4694   17.6962 H   0  0  0  0  0  0
  -27.9392  -11.2796   18.9559 H   0  0  0  0  0  0
  -27.3917  -12.4779   17.8127 H   0  0  0  0  0  0
  -27.6038  -14.2530   19.4341 H   0  0  0  0  0  0
  -28.7633  -12.2428   21.4286 H   0  0  0  0  0  0
  -28.3903  -13.9113   21.7806 H   0  0  0  0  0  0
  -25.2773   -9.5664   22.4755 H   0  0  0  0  0  0
  -23.9994   -7.4627   22.7479 H   0  0  0  0  0  0
  -21.0839   -8.8777   19.8956 H   0  0  0  0  0  0
  -22.3714  -10.9663   19.6160 H   0  0  0  0  0  0
  -21.2007   -7.6141   23.9710 H   0  0  0  0  0  0
  -21.1483   -6.0517   25.9074 H   0  0  0  0  0  0
  -22.0597   -2.7603   23.2849 H   0  0  0  0  0  0
  -22.4080  -11.9853   22.4836 H   0  0  0  0  0  0
  -21.1076  -13.1210   22.2656 H   0  0  0  0  0  0
  -24.6180  -15.8228   20.5520 H   0  0  0  0  0  0
  -26.2437  -15.6829   20.1485 H   0  0  0  0  0  0
  -26.7281  -32.5307   23.1018 H   0  0  0  0  0  0
  -25.0079  -33.9622   25.0327 H   0  0  0  0  0  0
  -22.7503  -31.2911   21.3817 H   0  0  0  0  0  0
  -23.3749  -35.9597   23.3317 H   0  0  0  0  0  0
  -24.3572  -36.8874   22.2054 H   0  0  0  0  0  0
  -23.7264  -37.6465   23.6670 H   0  0  0  0  0  0
  -26.1626  -31.4759   20.6192 H   0  0  0  0  0  0
  -26.8744  -30.7677   22.0330 H   0  0  0  0  0  0
  -28.1348  -28.7996   21.2373 H   0  0  0  0  0  0
  -25.9045  -25.8650   18.9778 H   0  0  0  0  0  0
  -23.9813  -27.3108   18.9740 H   0  0  0  0  0  0
  -23.8102  -30.5729   19.3992 H   0  0  0  0  0  0
  -22.7896  -29.2391   19.8428 H   0  0  0  0  0  0
  -25.1316  -36.1868   25.0809 H   0  0  0  0  0  0
  -21.0022  -28.3313   24.1353 H   0  0  0  0  0  0
  -20.5686  -26.2335   23.3625 H   0  0  0  0  0  0
  -21.6658  -26.7423   22.1202 H   0  0  0  0  0  0
  -19.6920  -25.6283   21.1257 H   0  0  0  0  0  0
  -19.6691  -27.3177   20.6736 H   0  0  0  0  0  0
  -17.4212  -26.6676   21.4036 H   0  0  0  0  0  0
  -18.0343  -26.0079   22.9032 H   0  0  0  0  0  0
  -19.7955  -30.7300   24.2230 H   0  0  0  0  0  0
  -17.5023  -31.6265   24.5165 H   0  0  0  0  0  0
  -15.5365  -30.2969   23.7664 H   0  0  0  0  0  0
  -15.8699  -28.0805   22.7076 H   0  0  0  0  0  0
  -24.5888  -30.7108   25.7740 H   0  0  0  0  0  0
  -24.8889  -32.2949   26.4781 H   0  0  0  0  0  0
  -25.7979  -30.8978   27.0237 H   0  0  0  0  0  0
  -26.3001  -29.6681   24.1303 H   0  0  0  0  0  0
  -27.3961  -29.7250   25.4899 H   0  0  0  0  0  0
  -27.8927  -30.4174   23.9656 H   0  0  0  0  0  0
  -27.2650  -33.3642   26.2044 H   0  0  0  0  0  0
  -28.3889  -32.6872   25.0355 H   0  0  0  0  0  0
  -28.0704  -31.8486   26.5461 H   0  0  0  0  0  0
  -28.2612  -38.0067   24.7470 H   0  0  0  0  0  0
  -28.1046  -36.2597   24.6360 H   0  0  0  0  0  0
  -27.2283  -37.1519   25.8873 H   0  0  0  0  0  0
  -20.9477  -29.8763   21.6786 H   0  0  0  0  0  0
  -26.0164  -38.2818   24.1361 H   0  0  0  0  0  0
  -31.1302  -20.7013   20.4938 H   0  0  0  0  0  0
  -31.6119  -18.2747   20.6419 H   0  0  0  0  0  0
  -26.9705  -19.8057   20.0355 H   0  0  0  0  0  0
  -27.0130  -24.4341   20.5243 H   0  0  0  0  0  0
  -27.6767  -24.5464   18.9172 H   0  0  0  0  0  0
  -27.5204  -22.0610   19.8323 H   0  0  0  0  0  0
  -28.7156  -15.6558   20.7243 H   0  0  0  0  0  0
  1 25  1  0  0  0
  1 30  2  0  0  0
  1 80  1  0  0  0
  2  3  1  0  0  0
  2 25  1  0  0  0
  2 83  1  0  0  0
  2 84  1  0  0  0
  3  4  1  0  0  0
  3 85  1  0  0  0
  3 86  1  0  0  0
  4  5  1  0  0  0
  4 87  1  0  0  0
  4 88  1  0  0  0
  5  6  1  0  0  0
  5 26  1  0  0  0
  5 89  1  0  0  0
  6 25  1  0  0  0
  6 90  1  0  0  0
  6 91  1  0  0  0
  7  8  2  0  0  0
  7 26  1  0  0  0
  7 29  1  0  0  0
  8  9  1  0  0  0
  8 22  1  0  0  0
  9 10  1  0  0  0
  9 27  2  0  0  0
 10 11  2  0  0  0
 10 15  1  0  0  0
 11 12  1  0  0  0
 11 92  1  0  0  0
 12 13  2  0  0  0
 12 93  1  0  0  0
 13 14  1  0  0  0
 13 31  1  0  0  0
 14 15  2  0  0  0
 14 94  1  0  0  0
 15 95  1  0  0  0
 16 17  2  0  0  0
 16 21  1  0  0  0
 16 31  1  0  0  0
 17 18  1  0  0  0
 17 96  1  0  0  0
 18 19  2  0  0  0
 18 97  1  0  0  0
 19 20  1  0  0  0
 19 24  1  0  0  0
 20 21  2  0  0  0
 20 98  1  0  0  0
 21 23  1  0  0  0
 22 28  1  0  0  0
 22 32  2  0  0  0
 26 27  1  0  0  0
 28 99  1  0  0  0
 28100  1  0  0  0
 29101  1  0  0  0
 29102  1  0  0  0
 33 34  1  0  0  0
 33 66  1  0  0  0
 33 70  2  0  0  0
 34 36  1  0  0  0
 34 59  1  0  0  0
 34103  1  0  0  0
 35 44  2  0  0  0
 35 45  1  0  0  0
 35 68  1  0  0  0
 36 56  1  0  0  0
 36104  1  0  0  0
 37 39  1  0  0  0
 37 47  1  0  0  0
 37 66  1  0  0  0
 37105  1  0  0  0
 38 43  2  0  0  0
 38 46  1  0  0  0
 38 47  1  0  0  0
 39 64  1  0  0  0
 39 67  2  0  0  0
 40 52  1  0  0  0
 40 53  2  0  0  0
 40 58  1  0  0  0
 41106  1  0  0  0
 41107  1  0  0  0
 41108  1  0  0  0
 41 48  1  0  0  0
 42 43  1  0  0  0
 42 66  1  0  0  0
 42109  1  0  0  0
 42110  1  0  0  0
 43 44  1  0  0  0
 44111  1  0  0  0
 45 46  2  0  0  0
 45112  1  0  0  0
 46113  1  0  0  0
 47114  1  0  0  0
 47115  1  0  0  0
 48 56  1  0  0  0
 48 65  1  0  0  0
 48116  1  0  0  0
 49 50  1  0  0  0
 49 53  1  0  0  0
 49 64  1  0  0  0
 49117  1  0  0  0
 50 51  1  0  0  0
 50118  1  0  0  0
 50119  1  0  0  0
 51 52  1  0  0  0
 51120  1  0  0  0
 51121  1  0  0  0
 52122  1  0  0  0
 52123  1  0  0  0
 53 54  1  0  0  0
 54 55  2  0  0  0
 54124  1  0  0  0
 55 57  1  0  0  0
 55125  1  0  0  0
 56 69  2  0  0  0
 57 58  2  0  0  0
 57126  1  0  0  0
 58127  1  0  0  0
 59 60  1  0  0  0
 59 61  1  0  0  0
 59 62  1  0  0  0
 60128  1  0  0  0
 60129  1  0  0  0
 60130  1  0  0  0
 61131  1  0  0  0
 61132  1  0  0  0
 61133  1  0  0  0
 62134  1  0  0  0
 62135  1  0  0  0
 62136  1  0  0  0
 63 65  1  0  0  0
 63137  1  0  0  0
 63138  1  0  0  0
 63139  1  0  0  0
 64140  1  0  0  0
 65141  1  0  0  0
 68 78  1  0  0  0
 71 72  2  0  0  0
 71 74  1  0  0  0
 71142  1  0  0  0
 72 75  1  0  0  0
 72143  1  0  0  0
 73 74  2  0  0  0
 73 76  1  0  0  0
 73144  1  0  0  0
 74 79  1  0  0  0
 75 76  2  0  0  0
 75 80  1  0  0  0
 76 82  1  0  0  0
 77 78  1  0  0  0
 77 79  1  0  0  0
 77 81  2  0  0  0
 78145  1  0  0  0
 78146  1  0  0  0
 79147  1  0  0  0
 80148  1  0  0  0
M  ISO  4   1 100  68 101  78 101  80 100
M  END
> <chiral flag>
0

> <version>
0

> <s_m_source_file>
/data/baiqing/PycharmProjects/Reinvent-master-3.2/result/LINK_invent/BTK/process_docking_weight1_custom_sum_contain_oxygen_bond_distance_aromatic_linkinvent_7_9_3/rearranged_h_0009.sdf

> <i_m_source_file_index>
51

> <r_mmod_Potential_Energy-OPLS-2005>
393.216552734375

> <r_mmod_Stretch_Energy-OPLS-2005>
217.871948242188

> <r_mmod_Bend_Energy-OPLS-2005>
284.265167236328

> <r_mmod_Torsional_Energy-OPLS-2005>
220.855941772461

> <r_mmod_Improper_Torsional_Energy-OPLS-2005>
4.66032266616821

> <r_mmod_Van_der_Waal_Energy-OPLS-2005>
131.992782592773

> <r_mmod_Electrostatic_Energy-OPLS-2005>
-408.452697753906

> <r_mmod_Solvation_Energy-OPLS-2005>
-240.841186523438

> <b_mmod_Minimization_Converged-OPLS-2005>
0

> <r_mmod_RMS_Derivative-OPLS-2005>
0.679981827735901

$$$$
52
                    3D
 Structure written by MMmdl.
160168  0  0  1  0            999 V2000
  -30.6758  -14.4513   20.6165 C   0  0  0  0  0  0
  -30.4295  -12.3059   19.4135 C   0  0  0  0  0  0
  -29.4939  -12.5109   18.2029 C   0  0  0  0  0  0
  -28.0128  -12.3731   18.6121 C   0  0  0  0  0  0
  -27.6619  -13.1979   19.8791 C   0  0  2  0  0  0
  -28.6978  -12.9306   20.9929 C   0  0  0  0  0  0
  -25.2584  -13.8144   20.5683 C   0  0  0  0  0  0
  -24.1821  -13.0434   20.9177 C   0  0  0  0  0  0
  -24.6355  -11.6900   20.8719 C   0  0  0  0  0  0
  -23.9028  -10.4287   21.0396 C   0  0  0  0  0  0
  -24.3588   -9.4215   21.9181 C   0  0  0  0  0  0
  -23.6284   -8.2243   22.0749 C   0  0  0  0  0  0
  -22.4267   -8.0262   21.3538 C   0  0  0  0  0  0
  -21.9888   -9.0231   20.4646 C   0  0  0  0  0  0
  -22.7201  -10.2122   20.3052 C   0  0  0  0  0  0
  -21.6846   -6.0729   22.5289 C   0  0  0  0  0  0
  -21.4007   -6.5637   23.8219 C   0  0  0  0  0  0
  -21.3661   -5.6789   24.9183 C   0  0  0  0  0  0
  -21.6042   -4.3050   24.7233 C   0  0  0  0  0  0
  -21.8820   -3.8145   23.4351 C   0  0  0  0  0  0
  -21.9195   -4.6960   22.3410 C   0  0  0  0  0  0
  -22.7847  -13.5249   21.1861 C   0  0  0  0  0  0
  -22.1664   -4.2147   21.0987 F   0  0  0  0  0  0
  -21.5631   -3.4528   25.7746 F   0  0  0  0  0  0
  -30.0330  -13.2603   20.4607 N   0  0  0  0  0  0
  -26.3003  -12.9299   20.3357 N   0  0  0  0  0  0
  -25.9274  -11.6462   20.5730 N   0  0  0  0  0  0
  -22.0480  -12.8230   22.0407 N   0  0  0  0  0  0
  -25.4345  -15.1860   20.4130 N   0  0  0  0  0  0
  -31.7767  -14.6799   20.1053 O   0  0  0  0  0  0
  -21.6635   -6.8864   21.4241 O   0  0  0  0  0  0
  -22.3545  -14.5570   20.6735 O   0  0  0  0  0  0
  -24.6096  -31.8692   23.2110 C   0  0  0  0  0  0
  -25.8995  -32.4833   23.8383 C   0  0  1  0  0  0
  -27.2327  -27.4513   20.0954 C   0  0  0  0  0  0
  -25.5863  -33.8630   24.2327 N   0  0  0  0  0  0
  -23.3974  -30.4917   21.5496 C   0  0  2  0  0  0
  -24.8441  -28.9551   20.1193 C   0  0  0  0  0  0
  -22.7394  -29.4650   22.4998 C   0  0  0  0  0  0
  -18.0272  -28.1341   22.8513 C   0  0  0  0  0  0
  -24.1485  -36.7289   23.2640 C   0  0  0  0  0  0
  -25.9236  -30.8404   21.3602 C   0  0  0  0  0  0
  -26.0020  -29.4714   20.7144 C   0  0  0  0  0  0
  -27.2005  -28.7249   20.7047 C   0  0  0  0  0  0
  -26.0610  -26.9391   19.5013 C   0  0  0  0  0  0
  -24.8659  -27.6846   19.5134 C   0  0  0  0  0  0
  -23.6060  -29.8222   20.1646 C   0  0  0  0  0  0
  -25.4110  -36.3113   24.0350 C   0  0  1  0  0  0
  -20.5867  -28.3610   23.1336 C   0  0  2  0  0  0
  -20.6762  -26.9345   22.5418 C   0  0  0  0  0  0
  -19.5749  -26.6359   21.5202 C   0  0  0  0  0  0
  -18.1927  -26.7906   22.1614 C   0  0  0  0  0  0
  -19.1528  -28.8797   23.2923 C   0  0  0  0  0  0
  -18.9466  -30.1417   23.8907 C   0  0  0  0  0  0
  -17.6476  -30.6572   24.0561 C   0  0  0  0  0  0
  -25.9031  -34.9483   23.5142 C   0  0  0  0  0  0
  -16.5358  -29.9074   23.6331 C   0  0  0  0  0  0
  -16.7262  -28.6481   23.0360 C   0  0  0  0  0  0
  -26.4430  -31.6603   25.0700 C   0  0  0  0  0  0
  -25.3699  -31.3730   26.1459 C   0  0  0  0  0  0
  -27.0276  -30.3080   24.6011 C   0  0  0  0  0  0
  -27.6016  -32.4300   25.7466 C   0  0  0  0  0  0
  -27.5585  -37.1804   24.8473 C   0  0  0  0  0  0
  -21.4126  -29.2999   22.3751 N   0  0  0  0  0  0
  -26.4296  -37.3797   23.9420 N   0  0  0  0  0  0
  -24.6610  -31.0816   22.0980 N   0  0  0  0  0  0
  -23.4201  -28.8179   23.2998 O   0  0  0  0  0  0
  -28.3917  -26.7162   20.0424 O   0  0  0  0  0  0
  -26.5601  -34.8933   22.4717 O   0  0  0  0  0  0
  -23.5299  -32.1412   23.7537 O   0  0  0  0  0  0
  -31.1305  -18.9535   20.8491 C   0  0  0  0  0  0
  -31.1259  -17.5444   20.7769 C   0  0  0  0  0  0
  -28.9890  -18.9080   21.9956 C   0  0  0  0  0  0
  -30.0694  -19.6467   21.4697 C   0  0  0  0  0  0
  -30.0549  -16.7958   21.3266 C   0  0  0  0  0  0
  -28.9749  -17.4861   21.9351 C   0  0  0  0  0  0
  -30.1316  -21.1074   21.6462 C   0  0  0  0  0  0
  -26.8320  -17.3803   23.0262 C   0  0  0  0  0  0
  -28.5207  -24.2968   20.6129 C   0  0  0  0  0  0
  -28.9070  -23.3334   21.7600 C   0  0  0  0  0  0
  -28.5561  -25.7667   21.0975 C   0  0  0  0  0  0
  -31.2539  -21.6399   22.1228 N   0  0  0  0  0  0
  -29.9786  -15.3678   21.3158 N   0  0  0  0  0  0
  -29.0847  -21.9107   21.3682 N   0  3  0  0  0  0
  -27.9530  -16.7126   22.4564 O   0  0  0  0  0  0
  -31.4720  -12.4273   19.1135 H   0  0  0  0  0  0
  -30.3490  -11.2852   19.7909 H   0  0  0  0  0  0
  -29.7333  -11.7905   17.4197 H   0  0  0  0  0  0
  -29.6639  -13.4973   17.7698 H   0  0  0  0  0  0
  -27.8150  -11.3160   18.7928 H   0  0  0  0  0  0
  -27.3653  -12.6603   17.7832 H   0  0  0  0  0  0
  -27.7193  -14.2524   19.6069 H   0  0  0  0  0  0
  -28.6710  -11.8756   21.2704 H   0  0  0  0  0  0
  -28.4439  -13.4678   21.9085 H   0  0  0  0  0  0
  -25.2724   -9.5699   22.4753 H   0  0  0  0  0  0
  -24.0001   -7.4627   22.7452 H   0  0  0  0  0  0
  -21.0824   -8.8734   19.8940 H   0  0  0  0  0  0
  -22.3648  -10.9653   19.6157 H   0  0  0  0  0  0
  -21.1986   -7.6143   23.9725 H   0  0  0  0  0  0
  -21.1483   -6.0517   25.9090 H   0  0  0  0  0  0
  -22.0596   -2.7604   23.2854 H   0  0  0  0  0  0
  -22.4065  -11.9870   22.4776 H   0  0  0  0  0  0
  -21.1098  -13.1257   22.2615 H   0  0  0  0  0  0
  -24.6752  -15.8458   20.5363 H   0  0  0  0  0  0
  -26.3003  -15.6235   20.1250 H   0  0  0  0  0  0
  -26.7057  -32.5546   23.1129 H   0  0  0  0  0  0
  -25.0040  -33.9784   25.0496 H   0  0  0  0  0  0
  -22.6843  -31.3077   21.4108 H   0  0  0  0  0  0
  -23.3763  -35.9602   23.3319 H   0  0  0  0  0  0
  -24.3596  -36.8876   22.2053 H   0  0  0  0  0  0
  -23.7223  -37.6497   23.6636 H   0  0  0  0  0  0
  -26.0364  -31.6048   20.5906 H   0  0  0  0  0  0
  -26.8133  -30.8968   21.9760 H   0  0  0  0  0  0
  -28.0964  -29.1239   21.1608 H   0  0  0  0  0  0
  -26.0787  -25.9688   19.0264 H   0  0  0  0  0  0
  -23.9743  -27.2820   19.0515 H   0  0  0  0  0  0
  -23.7111  -30.5959   19.4027 H   0  0  0  0  0  0
  -22.7321  -29.2384   19.8688 H   0  0  0  0  0  0
  -25.1294  -36.1969   25.0841 H   0  0  0  0  0  0
  -20.9950  -28.3114   24.1454 H   0  0  0  0  0  0
  -20.5632  -26.2185   23.3578 H   0  0  0  0  0  0
  -21.6635  -26.7367   22.1223 H   0  0  0  0  0  0
  -19.6900  -25.6273   21.1197 H   0  0  0  0  0  0
  -19.6708  -27.3201   20.6766 H   0  0  0  0  0  0
  -17.4201  -26.6653   21.4005 H   0  0  0  0  0  0
  -18.0336  -26.0037   22.8998 H   0  0  0  0  0  0
  -19.7948  -30.7240   24.2238 H   0  0  0  0  0  0
  -17.5039  -31.6257   24.5155 H   0  0  0  0  0  0
  -15.5365  -30.2988   23.7657 H   0  0  0  0  0  0
  -15.8659  -28.0818   22.7054 H   0  0  0  0  0  0
  -24.5845  -30.7091   25.7811 H   0  0  0  0  0  0
  -24.8906  -32.2905   26.4884 H   0  0  0  0  0  0
  -25.8041  -30.8916   27.0232 H   0  0  0  0  0  0
  -26.2829  -29.6855   24.1035 H   0  0  0  0  0  0
  -27.4106  -29.7273   25.4407 H   0  0  0  0  0  0
  -27.8604  -30.4481   23.9126 H   0  0  0  0  0  0
  -27.2645  -33.3589   26.2080 H   0  0  0  0  0  0
  -28.3810  -32.6871   25.0278 H   0  0  0  0  0  0
  -28.0680  -31.8392   26.5357 H   0  0  0  0  0  0
  -28.2602  -38.0097   24.7555 H   0  0  0  0  0  0
  -28.1087  -36.2652   24.6269 H   0  0  0  0  0  0
  -27.2324  -37.1409   25.8875 H   0  0  0  0  0  0
  -20.9247  -29.8758   21.7042 H   0  0  0  0  0  0
  -26.0186  -38.2869   24.1439 H   0  0  0  0  0  0
  -31.9624  -19.5043   20.4301 H   0  0  0  0  0  0
  -31.9679  -17.0622   20.3046 H   0  0  0  0  0  0
  -28.1969  -19.4566   22.4833 H   0  0  0  0  0  0
  -26.1583  -16.6545   23.4818 H   0  0  0  0  0  0
  -26.2694  -17.9205   22.2621 H   0  0  0  0  0  0
  -27.1291  -18.0731   23.8150 H   0  0  0  0  0  0
  -27.5226  -24.0581   20.2418 H   0  0  0  0  0  0
  -29.2047  -24.1726   19.7721 H   0  0  0  0  0  0
  -28.1422  -23.3795   22.5378 H   0  0  0  0  0  0
  -29.8186  -23.7077   22.2269 H   0  0  0  0  0  0
  -29.5306  -25.9698   21.5407 H   0  0  0  0  0  0
  -27.8273  -25.9161   21.8984 H   0  0  0  0  0  0
  -32.0066  -21.0263   22.3976 H   0  0  0  0  0  0
  -31.3922  -22.6322   22.2091 H   0  0  0  0  0  0
  -29.1375  -15.0107   21.7444 H   0  0  0  0  0  0
  -28.2915  -21.4578   20.9278 H   0  0  0  0  0  0
  1 25  1  0  0  0
  1 30  2  0  0  0
  1 83  1  0  0  0
  2  3  1  0  0  0
  2 25  1  0  0  0
  2 86  1  0  0  0
  2 87  1  0  0  0
  3  4  1  0  0  0
  3 88  1  0  0  0
  3 89  1  0  0  0
  4  5  1  0  0  0
  4 90  1  0  0  0
  4 91  1  0  0  0
  5  6  1  0  0  0
  5 26  1  0  0  0
  5 92  1  0  0  0
  6 25  1  0  0  0
  6 93  1  0  0  0
  6 94  1  0  0  0
  7  8  2  0  0  0
  7 26  1  0  0  0
  7 29  1  0  0  0
  8  9  1  0  0  0
  8 22  1  0  0  0
  9 10  1  0  0  0
  9 27  2  0  0  0
 10 11  2  0  0  0
 10 15  1  0  0  0
 11 12  1  0  0  0
 11 95  1  0  0  0
 12 13  2  0  0  0
 12 96  1  0  0  0
 13 14  1  0  0  0
 13 31  1  0  0  0
 14 15  2  0  0  0
 14 97  1  0  0  0
 15 98  1  0  0  0
 16 17  2  0  0  0
 16 21  1  0  0  0
 16 31  1  0  0  0
 17 18  1  0  0  0
 17 99  1  0  0  0
 18 19  2  0  0  0
 18100  1  0  0  0
 19 20  1  0  0  0
 19 24  1  0  0  0
 20 21  2  0  0  0
 20101  1  0  0  0
 21 23  1  0  0  0
 22 28  1  0  0  0
 22 32  2  0  0  0
 26 27  1  0  0  0
 28102  1  0  0  0
 28103  1  0  0  0
 29104  1  0  0  0
 29105  1  0  0  0
 33 34  1  0  0  0
 33 66  1  0  0  0
 33 70  2  0  0  0
 34 36  1  0  0  0
 34 59  1  0  0  0
 34106  1  0  0  0
 35 44  2  0  0  0
 35 45  1  0  0  0
 35 68  1  0  0  0
 36 56  1  0  0  0
 36107  1  0  0  0
 37 39  1  0  0  0
 37 47  1  0  0  0
 37 66  1  0  0  0
 37108  1  0  0  0
 38 43  2  0  0  0
 38 46  1  0  0  0
 38 47  1  0  0  0
 39 64  1  0  0  0
 39 67  2  0  0  0
 40 52  1  0  0  0
 40 53  2  0  0  0
 40 58  1  0  0  0
 41109  1  0  0  0
 41110  1  0  0  0
 41111  1  0  0  0
 41 48  1  0  0  0
 42 43  1  0  0  0
 42 66  1  0  0  0
 42112  1  0  0  0
 42113  1  0  0  0
 43 44  1  0  0  0
 44114  1  0  0  0
 45 46  2  0  0  0
 45115  1  0  0  0
 46116  1  0  0  0
 47117  1  0  0  0
 47118  1  0  0  0
 48 56  1  0  0  0
 48 65  1  0  0  0
 48119  1  0  0  0
 49 50  1  0  0  0
 49 53  1  0  0  0
 49 64  1  0  0  0
 49120  1  0  0  0
 50 51  1  0  0  0
 50121  1  0  0  0
 50122  1  0  0  0
 51 52  1  0  0  0
 51123  1  0  0  0
 51124  1  0  0  0
 52125  1  0  0  0
 52126  1  0  0  0
 53 54  1  0  0  0
 54 55  2  0  0  0
 54127  1  0  0  0
 55 57  1  0  0  0
 55128  1  0  0  0
 56 69  2  0  0  0
 57 58  2  0  0  0
 57129  1  0  0  0
 58130  1  0  0  0
 59 60  1  0  0  0
 59 61  1  0  0  0
 59 62  1  0  0  0
 60131  1  0  0  0
 60132  1  0  0  0
 60133  1  0  0  0
 61134  1  0  0  0
 61135  1  0  0  0
 61136  1  0  0  0
 62137  1  0  0  0
 62138  1  0  0  0
 62139  1  0  0  0
 63 65  1  0  0  0
 63140  1  0  0  0
 63141  1  0  0  0
 63142  1  0  0  0
 64143  1  0  0  0
 65144  1  0  0  0
 68 81  1  0  0  0
 71 72  2  0  0  0
 71 74  1  0  0  0
 71145  1  0  0  0
 72 75  1  0  0  0
 72146  1  0  0  0
 73 74  2  0  0  0
 73 76  1  0  0  0
 73147  1  0  0  0
 74 77  1  0  0  0
 75 76  2  0  0  0
 75 83  1  0  0  0
 76 85  1  0  0  0
 77 82  1  0  0  0
 77 84  2  0  0  0
 78 85  1  0  0  0
 78148  1  0  0  0
 78149  1  0  0  0
 78150  1  0  0  0
 79 80  1  0  0  0
 79 81  1  0  0  0
 79151  1  0  0  0
 79152  1  0  0  0
 80 84  1  0  0  0
 80153  1  0  0  0
 80154  1  0  0  0
 81155  1  0  0  0
 81156  1  0  0  0
 82157  1  0  0  0
 82158  1  0  0  0
 83159  1  0  0  0
 84160  1  0  0  0
M  CHG  1  84   1
M  ISO  4   1 100  68 101  81 101  83 100
M  END
> <chiral flag>
0

> <version>
0

> <s_m_source_file>
/data/baiqing/PycharmProjects/Reinvent-master-3.2/result/LINK_invent/BTK/process_docking_weight1_custom_sum_contain_oxygen_bond_distance_aromatic_linkinvent_7_9_3/rearranged_h_0009.sdf

> <i_m_source_file_index>
52

> <r_mmod_Potential_Energy-OPLS-2005>
-310.029174804688

> <r_mmod_Stretch_Energy-OPLS-2005>
37.6706962585449

> <r_mmod_Bend_Energy-OPLS-2005>
107.005073547363

> <r_mmod_Torsional_Energy-OPLS-2005>
237.638916015625

> <r_mmod_Improper_Torsional_Energy-OPLS-2005>
3.13725423812866

> <r_mmod_Van_der_Waal_Energy-OPLS-2005>
160.009353637695

> <r_mmod_Electrostatic_Energy-OPLS-2005>
-452.045989990234

> <r_mmod_Solvation_Energy-OPLS-2005>
-412.940246582031

> <b_mmod_Minimization_Converged-OPLS-2005>
0

> <r_mmod_RMS_Derivative-OPLS-2005>
2.89196419715881

$$$$
53
                    3D
 Structure written by MMmdl.
154162  0  0  1  0            999 V2000
  -30.6121  -14.6321   20.5191 C   0  0  0  0  0  0
  -30.4464  -12.3909   19.4485 C   0  0  0  0  0  0
  -29.5097  -12.5086   18.2255 C   0  0  0  0  0  0
  -28.0332  -12.3459   18.6381 C   0  0  0  0  0  0
  -27.6559  -13.2130   19.8680 C   0  0  2  0  0  0
  -28.7002  -13.0423   20.9947 C   0  0  0  0  0  0
  -25.2555  -13.8171   20.5658 C   0  0  0  0  0  0
  -24.1812  -13.0447   20.9178 C   0  0  0  0  0  0
  -24.6378  -11.6916   20.8753 C   0  0  0  0  0  0
  -23.9060  -10.4294   21.0415 C   0  0  0  0  0  0
  -24.3614   -9.4210   21.9191 C   0  0  0  0  0  0
  -23.6283   -8.2250   22.0753 C   0  0  0  0  0  0
  -22.4272   -8.0278   21.3546 C   0  0  0  0  0  0
  -21.9907   -9.0257   20.4650 C   0  0  0  0  0  0
  -22.7238  -10.2132   20.3062 C   0  0  0  0  0  0
  -21.6843   -6.0737   22.5282 C   0  0  0  0  0  0
  -21.4008   -6.5641   23.8219 C   0  0  0  0  0  0
  -21.3664   -5.6797   24.9180 C   0  0  0  0  0  0
  -21.6041   -4.3055   24.7231 C   0  0  0  0  0  0
  -21.8823   -3.8147   23.4347 C   0  0  0  0  0  0
  -21.9191   -4.6961   22.3406 C   0  0  0  0  0  0
  -22.7833  -13.5220   21.1856 C   0  0  0  0  0  0
  -22.1652   -4.2152   21.0980 F   0  0  0  0  0  0
  -21.5637   -3.4540   25.7743 F   0  0  0  0  0  0
  -30.0196  -13.3959   20.4448 N   0  0  0  0  0  0
  -26.2994  -12.9347   20.3327 N   0  0  0  0  0  0
  -25.9314  -11.6514   20.5771 N   0  0  0  0  0  0
  -22.0479  -12.8238   22.0407 N   0  0  0  0  0  0
  -25.4291  -15.1882   20.4054 N   0  0  0  0  0  0
  -31.7409  -14.8322   20.0704 O   0  0  0  0  0  0
  -21.6628   -6.8878   21.4243 O   0  0  0  0  0  0
  -22.3521  -14.5553   20.6711 O   0  0  0  0  0  0
  -24.6262  -31.8597   23.2026 C   0  0  0  0  0  0
  -25.9113  -32.4784   23.8354 C   0  0  1  0  0  0
  -27.2771  -27.3795   20.1553 C   0  0  0  0  0  0
  -25.5920  -33.8587   24.2308 N   0  0  0  0  0  0
  -23.4219  -30.4741   21.5407 C   0  0  2  0  0  0
  -24.8847  -28.9530   20.1101 C   0  0  0  0  0  0
  -22.7493  -29.4614   22.4944 C   0  0  0  0  0  0
  -18.0280  -28.1377   22.8500 C   0  0  0  0  0  0
  -24.1477  -36.7296   23.2638 C   0  0  0  0  0  0
  -25.9513  -30.8187   21.3726 C   0  0  0  0  0  0
  -26.0407  -29.4507   20.7210 C   0  0  0  0  0  0
  -27.2418  -28.6813   20.7337 C   0  0  0  0  0  0
  -26.0964  -26.9275   19.5132 C   0  0  0  0  0  0
  -24.9180  -27.6904   19.4930 C   0  0  0  0  0  0
  -23.6378  -29.8092   20.1564 C   0  0  0  0  0  0
  -25.4095  -36.3097   24.0328 C   0  0  1  0  0  0
  -20.5877  -28.3687   23.1295 C   0  0  2  0  0  0
  -20.6772  -26.9402   22.5431 C   0  0  0  0  0  0
  -19.5764  -26.6388   21.5223 C   0  0  0  0  0  0
  -18.1929  -26.7930   22.1620 C   0  0  0  0  0  0
  -19.1510  -28.8834   23.2894 C   0  0  0  0  0  0
  -18.9460  -30.1452   23.8893 C   0  0  0  0  0  0
  -17.6455  -30.6580   24.0543 C   0  0  0  0  0  0
  -25.9033  -34.9466   23.5122 C   0  0  0  0  0  0
  -16.5351  -29.9096   23.6311 C   0  0  0  0  0  0
  -16.7251  -28.6508   23.0331 C   0  0  0  0  0  0
  -26.4504  -31.6585   25.0706 C   0  0  0  0  0  0
  -25.3750  -31.3725   26.1438 C   0  0  0  0  0  0
  -27.0310  -30.2991   24.6156 C   0  0  0  0  0  0
  -27.6064  -32.4325   25.7483 C   0  0  0  0  0  0
  -27.5560  -37.1785   24.8463 C   0  0  0  0  0  0
  -21.4160  -29.3063   22.3685 N   0  0  0  0  0  0
  -26.4275  -37.3786   23.9403 N   0  0  0  0  0  0
  -24.6813  -31.0643   22.0991 N   0  0  0  0  0  0
  -23.4209  -28.8215   23.3022 O   0  0  0  0  0  0
  -28.4190  -26.5670   20.2508 O   0  0  0  0  0  0
  -26.5608  -34.8952   22.4704 O   0  0  0  0  0  0
  -23.5442  -32.1383   23.7352 O   0  0  0  0  0  0
  -30.4370  -17.8769   19.9081 C   0  0  0  0  0  0
  -30.2996  -19.3085   19.8734 C   0  0  0  0  0  0
  -29.0540  -17.8221   21.8768 C   0  0  0  0  0  0
  -28.9360  -19.2484   21.8543 C   0  0  0  0  0  0
  -29.8184  -17.0910   20.9246 C   0  0  0  0  0  0
  -29.5441  -20.0381   20.8425 C   0  0  0  0  0  0
  -29.1643  -22.5120   20.1092 C   0  0  0  0  0  0
  -28.1151  -19.9072   22.9533 C   0  0  0  0  0  0
  -29.3338  -24.0208   20.5492 C   0  0  0  0  0  0
  -28.2751  -25.1076   20.0455 C   0  0  0  0  0  0
  -29.5291  -21.4985   20.9593 N   0  0  0  0  0  0
  -29.8190  -15.6280   21.0320 N   0  0  0  0  0  0
  -28.6988  -22.2904   18.9923 O   0  0  0  0  0  0
  -31.4863  -12.5337   19.1469 H   0  0  0  0  0  0
  -30.3963  -11.3925   19.8852 H   0  0  0  0  0  0
  -29.7708  -11.7603   17.4783 H   0  0  0  0  0  0
  -29.6487  -13.4797   17.7467 H   0  0  0  0  0  0
  -27.8674  -11.2914   18.8672 H   0  0  0  0  0  0
  -27.3779  -12.5757   17.7980 H   0  0  0  0  0  0
  -27.6809  -14.2514   19.5369 H   0  0  0  0  0  0
  -28.7107  -12.0116   21.3491 H   0  0  0  0  0  0
  -28.4393  -13.6497   21.8629 H   0  0  0  0  0  0
  -25.2770   -9.5673   22.4757 H   0  0  0  0  0  0
  -24.0000   -7.4629   22.7466 H   0  0  0  0  0  0
  -21.0846   -8.8787   19.8938 H   0  0  0  0  0  0
  -22.3722  -10.9675   19.6161 H   0  0  0  0  0  0
  -21.1995   -7.6152   23.9725 H   0  0  0  0  0  0
  -21.1477   -6.0520   25.9085 H   0  0  0  0  0  0
  -22.0596   -2.7604   23.2852 H   0  0  0  0  0  0
  -22.4089  -11.9878   22.4786 H   0  0  0  0  0  0
  -21.1091  -13.1246   22.2628 H   0  0  0  0  0  0
  -24.6667  -15.8495   20.5088 H   0  0  0  0  0  0
  -26.2836  -15.6208   20.0777 H   0  0  0  0  0  0
  -26.7183  -32.5397   23.1096 H   0  0  0  0  0  0
  -25.0046  -33.9736   25.0440 H   0  0  0  0  0  0
  -22.7178  -31.2939   21.3967 H   0  0  0  0  0  0
  -23.3746  -35.9611   23.3314 H   0  0  0  0  0  0
  -24.3621  -36.8910   22.2064 H   0  0  0  0  0  0
  -23.7254  -37.6500   23.6670 H   0  0  0  0  0  0
  -26.0828  -31.5724   20.5998 H   0  0  0  0  0  0
  -26.8322  -30.8567   21.9976 H   0  0  0  0  0  0
  -28.1252  -29.0806   21.2265 H   0  0  0  0  0  0
  -26.0790  -25.9537   19.0546 H   0  0  0  0  0  0
  -24.0405  -27.2720   19.0150 H   0  0  0  0  0  0
  -23.7536  -30.5821   19.4049 H   0  0  0  0  0  0
  -22.7637  -29.2341   19.8538 H   0  0  0  0  0  0
  -25.1304  -36.1916   25.0809 H   0  0  0  0  0  0
  -20.9915  -28.3212   24.1428 H   0  0  0  0  0  0
  -20.5683  -26.2271   23.3636 H   0  0  0  0  0  0
  -21.6639  -26.7455   22.1205 H   0  0  0  0  0  0
  -19.6944  -25.6313   21.1221 H   0  0  0  0  0  0
  -19.6681  -27.3225   20.6773 H   0  0  0  0  0  0
  -17.4211  -26.6645   21.4013 H   0  0  0  0  0  0
  -18.0283  -26.0075   22.9000 H   0  0  0  0  0  0
  -19.7943  -30.7230   24.2256 H   0  0  0  0  0  0
  -17.5045  -31.6261   24.5167 H   0  0  0  0  0  0
  -15.5352  -30.3008   23.7695 H   0  0  0  0  0  0
  -15.8642  -28.0863   22.7054 H   0  0  0  0  0  0
  -24.5932  -30.7070   25.7791 H   0  0  0  0  0  0
  -24.8931  -32.2891   26.4833 H   0  0  0  0  0  0
  -25.8075  -30.8934   27.0235 H   0  0  0  0  0  0
  -26.2853  -29.6742   24.1203 H   0  0  0  0  0  0
  -27.4055  -29.7244   25.4642 H   0  0  0  0  0  0
  -27.8726  -30.4283   23.9351 H   0  0  0  0  0  0
  -27.2669  -33.3661   26.2002 H   0  0  0  0  0  0
  -28.3887  -32.6799   25.0306 H   0  0  0  0  0  0
  -28.0697  -31.8454   26.5449 H   0  0  0  0  0  0
  -28.2570  -38.0075   24.7504 H   0  0  0  0  0  0
  -28.1074  -36.2618   24.6295 H   0  0  0  0  0  0
  -27.2307  -37.1442   25.8873 H   0  0  0  0  0  0
  -20.9363  -29.8777   21.6873 H   0  0  0  0  0  0
  -26.0153  -38.2858   24.1411 H   0  0  0  0  0  0
  -31.0261  -17.3785   19.1381 H   0  0  0  0  0  0
  -30.8201  -19.8402   19.0941 H   0  0  0  0  0  0
  -28.5524  -17.2596   22.6629 H   0  0  0  0  0  0
  -27.8011  -19.1916   23.7171 H   0  0  0  0  0  0
  -27.2185  -20.3505   22.5234 H   0  0  0  0  0  0
  -28.6915  -20.6882   23.4478 H   0  0  0  0  0  0
  -30.3566  -24.3007   20.2498 H   0  0  0  0  0  0
  -29.3841  -24.0291   21.6402 H   0  0  0  0  0  0
  -28.1078  -24.9926   18.9829 H   0  0  0  0  0  0
  -27.3493  -24.8346   20.5177 H   0  0  0  0  0  0
  -29.7784  -21.8355   21.8767 H   0  0  0  0  0  0
  -29.0126  -15.2499   21.5006 H   0  0  0  0  0  0
  1 25  1  0  0  0
  1 30  2  0  0  0
  1 82  1  0  0  0
  2  3  1  0  0  0
  2 25  1  0  0  0
  2 84  1  0  0  0
  2 85  1  0  0  0
  3  4  1  0  0  0
  3 86  1  0  0  0
  3 87  1  0  0  0
  4  5  1  0  0  0
  4 88  1  0  0  0
  4 89  1  0  0  0
  5  6  1  0  0  0
  5 26  1  0  0  0
  5 90  1  0  0  0
  6 25  1  0  0  0
  6 91  1  0  0  0
  6 92  1  0  0  0
  7  8  2  0  0  0
  7 26  1  0  0  0
  7 29  1  0  0  0
  8  9  1  0  0  0
  8 22  1  0  0  0
  9 10  1  0  0  0
  9 27  2  0  0  0
 10 11  2  0  0  0
 10 15  1  0  0  0
 11 12  1  0  0  0
 11 93  1  0  0  0
 12 13  2  0  0  0
 12 94  1  0  0  0
 13 14  1  0  0  0
 13 31  1  0  0  0
 14 15  2  0  0  0
 14 95  1  0  0  0
 15 96  1  0  0  0
 16 17  2  0  0  0
 16 21  1  0  0  0
 16 31  1  0  0  0
 17 18  1  0  0  0
 17 97  1  0  0  0
 18 19  2  0  0  0
 18 98  1  0  0  0
 19 20  1  0  0  0
 19 24  1  0  0  0
 20 21  2  0  0  0
 20 99  1  0  0  0
 21 23  1  0  0  0
 22 28  1  0  0  0
 22 32  2  0  0  0
 26 27  1  0  0  0
 28100  1  0  0  0
 28101  1  0  0  0
 29102  1  0  0  0
 29103  1  0  0  0
 33 34  1  0  0  0
 33 66  1  0  0  0
 33 70  2  0  0  0
 34 36  1  0  0  0
 34 59  1  0  0  0
 34104  1  0  0  0
 35 44  2  0  0  0
 35 45  1  0  0  0
 35 68  1  0  0  0
 36 56  1  0  0  0
 36105  1  0  0  0
 37 39  1  0  0  0
 37 47  1  0  0  0
 37 66  1  0  0  0
 37106  1  0  0  0
 38 43  2  0  0  0
 38 46  1  0  0  0
 38 47  1  0  0  0
 39 64  1  0  0  0
 39 67  2  0  0  0
 40 52  1  0  0  0
 40 53  2  0  0  0
 40 58  1  0  0  0
 41107  1  0  0  0
 41108  1  0  0  0
 41109  1  0  0  0
 41 48  1  0  0  0
 42 43  1  0  0  0
 42 66  1  0  0  0
 42110  1  0  0  0
 42111  1  0  0  0
 43 44  1  0  0  0
 44112  1  0  0  0
 45 46  2  0  0  0
 45113  1  0  0  0
 46114  1  0  0  0
 47115  1  0  0  0
 47116  1  0  0  0
 48 56  1  0  0  0
 48 65  1  0  0  0
 48117  1  0  0  0
 49 50  1  0  0  0
 49 53  1  0  0  0
 49 64  1  0  0  0
 49118  1  0  0  0
 50 51  1  0  0  0
 50119  1  0  0  0
 50120  1  0  0  0
 51 52  1  0  0  0
 51121  1  0  0  0
 51122  1  0  0  0
 52123  1  0  0  0
 52124  1  0  0  0
 53 54  1  0  0  0
 54 55  2  0  0  0
 54125  1  0  0  0
 55 57  1  0  0  0
 55126  1  0  0  0
 56 69  2  0  0  0
 57 58  2  0  0  0
 57127  1  0  0  0
 58128  1  0  0  0
 59 60  1  0  0  0
 59 61  1  0  0  0
 59 62  1  0  0  0
 60129  1  0  0  0
 60130  1  0  0  0
 60131  1  0  0  0
 61132  1  0  0  0
 61133  1  0  0  0
 61134  1  0  0  0
 62135  1  0  0  0
 62136  1  0  0  0
 62137  1  0  0  0
 63 65  1  0  0  0
 63138  1  0  0  0
 63139  1  0  0  0
 63140  1  0  0  0
 64141  1  0  0  0
 65142  1  0  0  0
 68 80  1  0  0  0
 71 72  2  0  0  0
 71 75  1  0  0  0
 71143  1  0  0  0
 72 76  1  0  0  0
 72144  1  0  0  0
 73 74  1  0  0  0
 73 75  2  0  0  0
 73145  1  0  0  0
 74 76  2  0  0  0
 74 78  1  0  0  0
 75 82  1  0  0  0
 76 81  1  0  0  0
 77 79  1  0  0  0
 77 81  1  0  0  0
 77 83  2  0  0  0
 78146  1  0  0  0
 78147  1  0  0  0
 78148  1  0  0  0
 79 80  1  0  0  0
 79149  1  0  0  0
 79150  1  0  0  0
 80151  1  0  0  0
 80152  1  0  0  0
 81153  1  0  0  0
 82154  1  0  0  0
M  ISO  4   1 100  68 101  80 101  82 100
M  END
> <chiral flag>
0

> <version>
0

> <s_m_source_file>
/data/baiqing/PycharmProjects/Reinvent-master-3.2/result/LINK_invent/BTK/process_docking_weight1_custom_sum_contain_oxygen_bond_distance_aromatic_linkinvent_7_9_3/rearranged_h_0009.sdf

> <i_m_source_file_index>
53

> <r_mmod_Potential_Energy-OPLS-2005>
9.01202869415283

> <r_mmod_Stretch_Energy-OPLS-2005>
81.5442276000977

> <r_mmod_Bend_Energy-OPLS-2005>
157.286102294922

> <r_mmod_Torsional_Energy-OPLS-2005>
240.361633300781

> <r_mmod_Improper_Torsional_Energy-OPLS-2005>
4.1756443977356

> <r_mmod_Van_der_Waal_Energy-OPLS-2005>
145.451858520508

> <r_mmod_Electrostatic_Energy-OPLS-2005>
-427.27587890625

> <r_mmod_Solvation_Energy-OPLS-2005>
-233.540664672852

> <b_mmod_Minimization_Converged-OPLS-2005>
0

> <r_mmod_RMS_Derivative-OPLS-2005>
17.2577610015869

$$$$
54
                    3D
 Structure written by MMmdl.
138145  0  0  1  0            999 V2000
  -29.9142  -16.6726   20.2526 C   0  0  0  0  0  0
  -30.3165  -13.8504   19.5910 C   0  0  0  0  0  0
  -29.5872  -13.0036   18.4599 C   0  0  0  0  0  0
  -28.2543  -12.4186   18.9255 C   0  0  0  0  0  0
  -27.5742  -13.4569   19.8266 C   0  0  2  0  0  0
  -28.4892  -14.1903   20.8845 C   0  0  0  0  0  0
  -25.2117  -13.8551   20.5934 C   0  0  0  0  0  0
  -24.1659  -13.0488   20.9320 C   0  0  0  0  0  0
  -24.6575  -11.7072   20.8722 C   0  0  0  0  0  0
  -23.9294  -10.4345   21.0322 C   0  0  0  0  0  0
  -24.3769   -9.4246   21.9132 C   0  0  0  0  0  0
  -23.6389   -8.2298   22.0736 C   0  0  0  0  0  0
  -22.4359   -8.0337   21.3536 C   0  0  0  0  0  0
  -22.0041   -9.0316   20.4623 C   0  0  0  0  0  0
  -22.7432  -10.2167   20.3007 C   0  0  0  0  0  0
  -21.6882   -6.0775   22.5275 C   0  0  0  0  0  0
  -21.4036   -6.5661   23.8214 C   0  0  0  0  0  0
  -21.3666   -5.6803   24.9169 C   0  0  0  0  0  0
  -21.6042   -4.3065   24.7212 C   0  0  0  0  0  0
  -21.8817   -3.8165   23.4331 C   0  0  0  0  0  0
  -21.9202   -4.6994   22.3394 C   0  0  0  0  0  0
  -22.7629  -13.5075   21.1933 C   0  0  0  0  0  0
  -22.1666   -4.2178   21.0974 F   0  0  0  0  0  0
  -21.5624   -3.4545   25.7721 F   0  0  0  0  0  0
  -29.5304  -15.1114   20.2320 N   0  0  0  0  0  0
  -26.2793  -13.0198   20.3467 N   0  0  0  0  0  0
  -25.9593  -11.7089   20.5649 N   0  0  0  0  0  0
  -22.0355  -12.8012   22.0500 N   0  0  0  0  0  0
  -25.3451  -15.2321   20.4385 N   0  0  0  0  0  0
  -31.1334  -16.4348   20.0022 O   0  0  0  0  0  0
  -21.6688   -6.8945   21.4250 O   0  0  0  0  0  0
  -22.3245  -14.5356   20.6780 O   0  0  0  0  0  0
  -24.7510  -31.7120   23.0916 C   0  0  0  0  0  0
  -25.9732  -32.4048   23.7743 C   0  0  1  0  0  0
  -27.2781  -25.9934   20.2686 C   0  0  0  0  0  0
  -25.6014  -33.7920   24.1547 N   0  0  0  0  0  0
  -23.6125  -30.2756   21.4616 C   0  0  2  0  0  0
  -25.0809  -28.4655   20.1340 C   0  0  0  0  0  0
  -22.8071  -29.3834   22.4509 C   0  0  0  0  0  0
  -18.0390  -28.1463   22.8416 C   0  0  0  0  0  0
  -24.1486  -36.6963   23.2667 C   0  0  0  0  0  0
  -26.2112  -30.2058   21.4688 C   0  0  0  0  0  0
  -26.2717  -28.6906   20.8304 C   0  0  0  0  0  0
  -27.3099  -27.5066   20.8545 C   0  0  0  0  0  0
  -26.0594  -26.1657   19.4917 C   0  0  0  0  0  0
  -25.0572  -27.2333   19.4383 C   0  0  0  0  0  0
  -23.9060  -29.5013   20.1294 C   0  0  0  0  0  0
  -25.4160  -36.2647   24.0236 C   0  0  1  0  0  0
  -20.6053  -28.3848   23.1014 C   0  0  2  0  0  0
  -20.6808  -26.9439   22.5427 C   0  0  0  0  0  0
  -19.5803  -26.6348   21.5224 C   0  0  0  0  0  0
  -18.1982  -26.7978   22.1596 C   0  0  0  0  0  0
  -19.1671  -28.8999   23.2672 C   0  0  0  0  0  0
  -18.9562  -30.1556   23.8754 C   0  0  0  0  0  0
  -17.6543  -30.6624   24.0540 C   0  0  0  0  0  0
  -25.9199  -34.9059   23.4786 C   0  0  0  0  0  0
  -16.5430  -29.9094   23.6371 C   0  0  0  0  0  0
  -16.7362  -28.6526   23.0380 C   0  0  0  0  0  0
  -26.4693  -31.6400   25.0654 C   0  0  0  0  0  0
  -25.3585  -31.3926   26.1142 C   0  0  0  0  0  0
  -27.0734  -30.2664   24.7083 C   0  0  0  0  0  0
  -27.6023  -32.4425   25.7486 C   0  0  0  0  0  0
  -27.5554  -37.1606   24.8444 C   0  0  0  0  0  0
  -21.4661  -29.2933   22.3244 N   0  0  0  0  0  0
  -26.4212  -37.3503   23.9445 N   0  0  0  0  0  0
  -24.8908  -30.7826   22.0588 N   0  0  0  0  0  0
  -23.4160  -28.7574   23.3206 O   0  0  0  0  0  0
  -28.1474  -24.4582   20.4043 O   0  0  0  0  0  0
  -26.5948  -34.8781   22.4479 O   0  0  0  0  0  0
  -23.6383  -32.0522   23.5407 O   0  0  0  0  0  0
  -28.7407  -20.1072   20.5327 C   0  0  0  0  0  0
  -27.9835  -20.2428   21.8377 C   0  0  0  0  0  0
  -28.4321  -22.3839   19.9631 C   0  0  0  0  0  0
  -29.1606  -18.4150   20.5674 N   0  0  0  0  0  0
  -31.2330  -14.2130   19.1249 H   0  0  0  0  0  0
  -30.6888  -13.1882   20.3773 H   0  0  0  0  0  0
  -30.2413  -12.2091   18.0981 H   0  0  0  0  0  0
  -29.4062  -13.6592   17.6075 H   0  0  0  0  0  0
  -28.4477  -11.5113   19.4980 H   0  0  0  0  0  0
  -27.6232  -12.1393   18.0796 H   0  0  0  0  0  0
  -27.3208  -14.2453   19.1157 H   0  0  0  0  0  0
  -28.9234  -13.4840   21.5943 H   0  0  0  0  0  0
  -27.8687  -14.8419   21.5004 H   0  0  0  0  0  0
  -25.2897   -9.5708   22.4741 H   0  0  0  0  0  0
  -24.0067   -7.4701   22.7486 H   0  0  0  0  0  0
  -21.0953   -8.8864   19.8944 H   0  0  0  0  0  0
  -22.3875  -10.9704   19.6120 H   0  0  0  0  0  0
  -21.2042   -7.6170   23.9726 H   0  0  0  0  0  0
  -21.1482   -6.0529   25.9070 H   0  0  0  0  0  0
  -22.0590   -2.7632   23.2820 H   0  0  0  0  0  0
  -22.4060  -11.9721   22.4911 H   0  0  0  0  0  0
  -21.0937  -13.0936   22.2688 H   0  0  0  0  0  0
  -24.5692  -15.8735   20.5602 H   0  0  0  0  0  0
  -26.2007  -15.6904   20.1507 H   0  0  0  0  0  0
  -26.7906  -32.4389   23.0538 H   0  0  0  0  0  0
  -24.9941  -33.8830   24.9550 H   0  0  0  0  0  0
  -22.9811  -31.1290   21.2071 H   0  0  0  0  0  0
  -23.3840  -35.9190   23.3096 H   0  0  0  0  0  0
  -24.3560  -36.8911   22.2137 H   0  0  0  0  0  0
  -23.7135  -37.5990   23.6962 H   0  0  0  0  0  0
  -26.4866  -30.8823   20.6586 H   0  0  0  0  0  0
  -27.0374  -30.2957   22.1596 H   0  0  0  0  0  0
  -28.1783  -27.7133   21.4634 H   0  0  0  0  0  0
  -25.7915  -25.2899   18.9174 H   0  0  0  0  0  0
  -24.1853  -27.0337   18.8315 H   0  0  0  0  0  0
  -24.1307  -30.2292   19.3479 H   0  0  0  0  0  0
  -23.0001  -28.9933   19.7946 H   0  0  0  0  0  0
  -25.1395  -36.1296   25.0720 H   0  0  0  0  0  0
  -21.0107  -28.3535   24.1149 H   0  0  0  0  0  0
  -20.5583  -26.2502   23.3757 H   0  0  0  0  0  0
  -21.6673  -26.7247   22.1309 H   0  0  0  0  0  0
  -19.6945  -25.6218   21.1353 H   0  0  0  0  0  0
  -19.6783  -27.3079   20.6696 H   0  0  0  0  0  0
  -17.4264  -26.6741   21.3982 H   0  0  0  0  0  0
  -18.0319  -26.0148   22.9012 H   0  0  0  0  0  0
  -19.8042  -30.7403   24.2063 H   0  0  0  0  0  0
  -17.5099  -31.6283   24.5173 H   0  0  0  0  0  0
  -15.5428  -30.2954   23.7776 H   0  0  0  0  0  0
  -15.8762  -28.0796   22.7170 H   0  0  0  0  0  0
  -24.5843  -30.7203   25.7430 H   0  0  0  0  0  0
  -24.8705  -32.3205   26.4128 H   0  0  0  0  0  0
  -25.7595  -30.9381   27.0212 H   0  0  0  0  0  0
  -26.3566  -29.6032   24.2242 H   0  0  0  0  0  0
  -27.4020  -29.7433   25.6077 H   0  0  0  0  0  0
  -27.9598  -30.3619   24.0816 H   0  0  0  0  0  0
  -27.2514  -33.3916   26.1552 H   0  0  0  0  0  0
  -28.4076  -32.6677   25.0479 H   0  0  0  0  0  0
  -28.0423  -31.8911   26.5806 H   0  0  0  0  0  0
  -28.2420  -38.0043   24.7624 H   0  0  0  0  0  0
  -28.1199  -36.2572   24.6092 H   0  0  0  0  0  0
  -27.2305  -37.1002   25.8843 H   0  0  0  0  0  0
  -21.0137  -29.8462   21.6095 H   0  0  0  0  0  0
  -25.9974  -38.2494   24.1567 H   0  0  0  0  0  0
  -27.2656  -21.0599   21.7845 H   0  0  0  0  0  0
  -28.6804  -20.4568   22.6488 H   0  0  0  0  0  0
  -27.4328  -19.3339   22.0759 H   0  0  0  0  0  0
  -27.5633  -22.2785   19.3168 H   0  0  0  0  0  0
  -29.2466  -22.5072   19.2510 H   0  0  0  0  0  0
  1 25  1  0  0  0
  1 30  2  0  0  0
  1 74  1  0  0  0
  2  3  1  0  0  0
  2 25  1  0  0  0
  2 75  1  0  0  0
  2 76  1  0  0  0
  3  4  1  0  0  0
  3 77  1  0  0  0
  3 78  1  0  0  0
  4  5  1  0  0  0
  4 79  1  0  0  0
  4 80  1  0  0  0
  5  6  1  0  0  0
  5 26  1  0  0  0
  5 81  1  0  0  0
  6 25  1  0  0  0
  6 82  1  0  0  0
  6 83  1  0  0  0
  7  8  2  0  0  0
  7 26  1  0  0  0
  7 29  1  0  0  0
  8  9  1  0  0  0
  8 22  1  0  0  0
  9 10  1  0  0  0
  9 27  2  0  0  0
 10 11  2  0  0  0
 10 15  1  0  0  0
 11 12  1  0  0  0
 11 84  1  0  0  0
 12 13  2  0  0  0
 12 85  1  0  0  0
 13 14  1  0  0  0
 13 31  1  0  0  0
 14 15  2  0  0  0
 14 86  1  0  0  0
 15 87  1  0  0  0
 16 17  2  0  0  0
 16 21  1  0  0  0
 16 31  1  0  0  0
 17 18  1  0  0  0
 17 88  1  0  0  0
 18 19  2  0  0  0
 18 89  1  0  0  0
 19 20  1  0  0  0
 19 24  1  0  0  0
 20 21  2  0  0  0
 20 90  1  0  0  0
 21 23  1  0  0  0
 22 28  1  0  0  0
 22 32  2  0  0  0
 26 27  1  0  0  0
 28 91  1  0  0  0
 28 92  1  0  0  0
 29 93  1  0  0  0
 29 94  1  0  0  0
 33 34  1  0  0  0
 33 66  1  0  0  0
 33 70  2  0  0  0
 34 36  1  0  0  0
 34 59  1  0  0  0
 34 95  1  0  0  0
 35 44  2  0  0  0
 35 45  1  0  0  0
 35 68  1  0  0  0
 36 56  1  0  0  0
 36 96  1  0  0  0
 37 39  1  0  0  0
 37 47  1  0  0  0
 37 66  1  0  0  0
 37 97  1  0  0  0
 38 43  2  0  0  0
 38 46  1  0  0  0
 38 47  1  0  0  0
 39 64  1  0  0  0
 39 67  2  0  0  0
 40 52  1  0  0  0
 40 53  2  0  0  0
 40 58  1  0  0  0
 41 98  1  0  0  0
 41 99  1  0  0  0
 41100  1  0  0  0
 41 48  1  0  0  0
 42 43  1  0  0  0
 42 66  1  0  0  0
 42101  1  0  0  0
 42102  1  0  0  0
 43 44  1  0  0  0
 44103  1  0  0  0
 45 46  2  0  0  0
 45104  1  0  0  0
 46105  1  0  0  0
 47106  1  0  0  0
 47107  1  0  0  0
 48 56  1  0  0  0
 48 65  1  0  0  0
 48108  1  0  0  0
 49 50  1  0  0  0
 49 53  1  0  0  0
 49 64  1  0  0  0
 49109  1  0  0  0
 50 51  1  0  0  0
 50110  1  0  0  0
 50111  1  0  0  0
 51 52  1  0  0  0
 51112  1  0  0  0
 51113  1  0  0  0
 52114  1  0  0  0
 52115  1  0  0  0
 53 54  1  0  0  0
 54 55  2  0  0  0
 54116  1  0  0  0
 55 57  1  0  0  0
 55117  1  0  0  0
 56 69  2  0  0  0
 57 58  2  0  0  0
 57118  1  0  0  0
 58119  1  0  0  0
 59 60  1  0  0  0
 59 61  1  0  0  0
 59 62  1  0  0  0
 60120  1  0  0  0
 60121  1  0  0  0
 60122  1  0  0  0
 61123  1  0  0  0
 61124  1  0  0  0
 61125  1  0  0  0
 62126  1  0  0  0
 62127  1  0  0  0
 62128  1  0  0  0
 63 65  1  0  0  0
 63129  1  0  0  0
 63130  1  0  0  0
 63131  1  0  0  0
 64132  1  0  0  0
 65133  1  0  0  0
 68 73  1  0  0  0
 71 72  1  0  0  0
 71 73  1  0  0  0
 71 74  2  0  0  0
 72134  1  0  0  0
 72135  1  0  0  0
 72136  1  0  0  0
 73137  1  0  0  0
 73138  1  0  0  0
M  ISO  4   1 100  68 101  73 101  74 100
M  END
> <chiral flag>
0

> <version>
0

> <s_m_source_file>
/data/baiqing/PycharmProjects/Reinvent-master-3.2/result/LINK_invent/BTK/process_docking_weight1_custom_sum_contain_oxygen_bond_distance_aromatic_linkinvent_7_9_3/rearranged_h_0009.sdf

> <i_m_source_file_index>
54

> <r_mmod_Potential_Energy-OPLS-2005>
7713.30322265625

> <r_mmod_Stretch_Energy-OPLS-2005>
3348.72729492188

> <r_mmod_Bend_Energy-OPLS-2005>
1469.92419433594

> <r_mmod_Torsional_Energy-OPLS-2005>
187.900634765625

> <r_mmod_Improper_Torsional_Energy-OPLS-2005>
2.58998727798462

> <r_mmod_Van_der_Waal_Energy-OPLS-2005>
123.905937194824

> <r_mmod_Electrostatic_Energy-OPLS-2005>
-329.911102294922

> <r_mmod_Solvation_Energy-OPLS-2005>
-195.182189941406

> <b_mmod_Minimization_Converged-OPLS-2005>
0

> <r_mmod_RMS_Derivative-OPLS-2005>
2.21889233589172

$$$$
55
                    3D
 Structure written by MMmdl.
143150  0  0  1  0            999 V2000
  -30.4332  -15.2666   20.3635 C   0  0  0  0  0  0
  -30.4373  -12.8043   19.5388 C   0  0  0  0  0  0
  -29.5386  -12.5811   18.2956 C   0  0  0  0  0  0
  -28.0858  -12.3051   18.7181 C   0  0  0  0  0  0
  -27.6132  -13.2768   19.8280 C   0  0  2  0  0  0
  -28.6434  -13.4483   20.9661 C   0  0  0  0  0  0
  -25.2386  -13.8250   20.5744 C   0  0  0  0  0  0
  -24.1740  -13.0437   20.9255 C   0  0  0  0  0  0
  -24.6398  -11.6935   20.8760 C   0  0  0  0  0  0
  -23.9094  -10.4293   21.0404 C   0  0  0  0  0  0
  -24.3638   -9.4207   21.9183 C   0  0  0  0  0  0
  -23.6305   -8.2245   22.0754 C   0  0  0  0  0  0
  -22.4286   -8.0284   21.3544 C   0  0  0  0  0  0
  -21.9928   -9.0259   20.4645 C   0  0  0  0  0  0
  -22.7263  -10.2134   20.3053 C   0  0  0  0  0  0
  -21.6857   -6.0738   22.5279 C   0  0  0  0  0  0
  -21.4017   -6.5641   23.8212 C   0  0  0  0  0  0
  -21.3660   -5.6793   24.9174 C   0  0  0  0  0  0
  -21.6044   -4.3056   24.7224 C   0  0  0  0  0  0
  -21.8819   -3.8148   23.4345 C   0  0  0  0  0  0
  -21.9194   -4.6965   22.3401 C   0  0  0  0  0  0
  -22.7757  -13.5188   21.1902 C   0  0  0  0  0  0
  -22.1662   -4.2151   21.0979 F   0  0  0  0  0  0
  -21.5628   -3.4539   25.7736 F   0  0  0  0  0  0
  -29.8805  -13.9527   20.3485 N   0  0  0  0  0  0
  -26.2818  -12.9530   20.3229 N   0  0  0  0  0  0
  -25.9337  -11.6632   20.5725 N   0  0  0  0  0  0
  -22.0417  -12.8169   22.0456 N   0  0  0  0  0  0
  -25.4014  -15.1985   20.4174 N   0  0  0  0  0  0
  -31.6431  -15.2759   20.0950 O   0  0  0  0  0  0
  -21.6646   -6.8884   21.4242 O   0  0  0  0  0  0
  -22.3435  -14.5490   20.6743 O   0  0  0  0  0  0
  -24.6626  -31.8227   23.1698 C   0  0  0  0  0  0
  -25.9307  -32.4582   23.8164 C   0  0  1  0  0  0
  -27.2203  -26.9233   20.1841 C   0  0  0  0  0  0
  -25.5973  -33.8398   24.2067 N   0  0  0  0  0  0
  -23.4779  -30.4332   21.5185 C   0  0  2  0  0  0
  -24.9325  -28.8196   20.1087 C   0  0  0  0  0  0
  -22.7666  -29.4432   22.4777 C   0  0  0  0  0  0
  -18.0322  -28.1409   22.8466 C   0  0  0  0  0  0
  -24.1494  -36.7206   23.2648 C   0  0  0  0  0  0
  -26.0464  -30.6266   21.4021 C   0  0  0  0  0  0
  -26.1138  -29.2161   20.7467 C   0  0  0  0  0  0
  -27.2491  -28.2874   20.7629 C   0  0  0  0  0  0
  -26.0146  -26.6845   19.4859 C   0  0  0  0  0  0
  -24.9088  -27.5750   19.4578 C   0  0  0  0  0  0
  -23.7179  -29.7473   20.1446 C   0  0  0  0  0  0
  -25.4135  -36.2965   24.0298 C   0  0  1  0  0  0
  -20.5946  -28.3753   23.1188 C   0  0  2  0  0  0
  -20.6797  -26.9434   22.5404 C   0  0  0  0  0  0
  -19.5772  -26.6376   21.5215 C   0  0  0  0  0  0
  -18.1954  -26.7942   22.1622 C   0  0  0  0  0  0
  -19.1583  -28.8902   23.2814 C   0  0  0  0  0  0
  -18.9494  -30.1492   23.8850 C   0  0  0  0  0  0
  -17.6487  -30.6598   24.0555 C   0  0  0  0  0  0
  -25.9100  -34.9347   23.5006 C   0  0  0  0  0  0
  -16.5377  -29.9085   23.6344 C   0  0  0  0  0  0
  -16.7304  -28.6506   23.0362 C   0  0  0  0  0  0
  -26.4558  -31.6534   25.0698 C   0  0  0  0  0  0
  -25.3682  -31.3787   26.1352 C   0  0  0  0  0  0
  -27.0461  -30.2900   24.6442 C   0  0  0  0  0  0
  -27.6045  -32.4349   25.7501 C   0  0  0  0  0  0
  -27.5570  -37.1760   24.8466 C   0  0  0  0  0  0
  -21.4335  -29.3039   22.3532 N   0  0  0  0  0  0
  -26.4280  -37.3702   23.9407 N   0  0  0  0  0  0
  -24.7502  -30.9883   22.0836 N   0  0  0  0  0  0
  -23.4212  -28.8007   23.3024 O   0  0  0  0  0  0
  -28.2225  -25.8205   20.3024 O   0  0  0  0  0  0
  -26.5715  -34.8885   22.4605 O   0  0  0  0  0  0
  -23.5696  -32.1201   23.6788 O   0  0  0  0  0  0
  -29.1110  -19.5995   20.7025 C   0  0  0  0  0  0
  -29.8545  -18.1477   20.0664 C   0  0  0  0  0  0
  -28.0969  -24.2069   19.9408 C   0  0  0  0  0  0
  -28.7126  -22.6373   20.6125 C   0  0  0  0  0  0
  -29.6669  -16.5330   20.4758 N   0  0  0  0  0  0
  -28.5798  -19.4529   21.8042 O   0  0  0  0  0  0
  -29.0759  -21.1353   20.0299 O   0  0  0  0  0  0
  -31.4595  -13.0000   19.2125 H   0  0  0  0  0  0
  -30.4958  -11.8967   20.1417 H   0  0  0  0  0  0
  -29.9189  -11.7556   17.6924 H   0  0  0  0  0  0
  -29.5723  -13.4676   17.6604 H   0  0  0  0  0  0
  -28.0393  -11.2795   19.0863 H   0  0  0  0  0  0
  -27.4197  -12.3517   17.8557 H   0  0  0  0  0  0
  -27.5305  -14.2452   19.3331 H   0  0  0  0  0  0
  -28.2809  -14.1696   21.7001 H   0  0  0  0  0  0
  -28.8062  -12.5130   21.5037 H   0  0  0  0  0  0
  -25.2779   -9.5684   22.4764 H   0  0  0  0  0  0
  -24.0010   -7.4637   22.7476 H   0  0  0  0  0  0
  -21.0858   -8.8782   19.8951 H   0  0  0  0  0  0
  -22.3721  -10.9675   19.6165 H   0  0  0  0  0  0
  -21.2011   -7.6149   23.9716 H   0  0  0  0  0  0
  -21.1483   -6.0523   25.9077 H   0  0  0  0  0  0
  -22.0596   -2.7610   23.2844 H   0  0  0  0  0  0
  -22.4052  -11.9841   22.4850 H   0  0  0  0  0  0
  -21.1027  -13.1173   22.2659 H   0  0  0  0  0  0
  -24.6291  -15.8467   20.5282 H   0  0  0  0  0  0
  -26.2391  -15.6398   20.0615 H   0  0  0  0  0  0
  -26.7376  -32.5118   23.0877 H   0  0  0  0  0  0
  -25.0061  -33.9475   25.0178 H   0  0  0  0  0  0
  -22.7913  -31.2649   21.3470 H   0  0  0  0  0  0
  -23.3768  -35.9524   23.3278 H   0  0  0  0  0  0
  -24.3570  -36.8886   22.2068 H   0  0  0  0  0  0
  -23.7240  -37.6380   23.6726 H   0  0  0  0  0  0
  -26.2279  -31.3673   20.6221 H   0  0  0  0  0  0
  -26.9061  -30.6836   22.0578 H   0  0  0  0  0  0
  -28.1392  -28.5857   21.2987 H   0  0  0  0  0  0
  -25.8864  -25.7378   18.9829 H   0  0  0  0  0  0
  -24.0128  -27.2676   18.9362 H   0  0  0  0  0  0
  -23.8722  -30.5154   19.3860 H   0  0  0  0  0  0
  -22.8278  -29.2009   19.8280 H   0  0  0  0  0  0
  -25.1335  -36.1760   25.0789 H   0  0  0  0  0  0
  -21.0034  -28.3363   24.1311 H   0  0  0  0  0  0
  -20.5677  -26.2372   23.3645 H   0  0  0  0  0  0
  -21.6661  -26.7408   22.1211 H   0  0  0  0  0  0
  -19.6930  -25.6274   21.1277 H   0  0  0  0  0  0
  -19.6712  -27.3160   20.6724 H   0  0  0  0  0  0
  -17.4223  -26.6684   21.4026 H   0  0  0  0  0  0
  -18.0348  -26.0096   22.9030 H   0  0  0  0  0  0
  -19.7969  -30.7321   24.2197 H   0  0  0  0  0  0
  -17.5038  -31.6273   24.5166 H   0  0  0  0  0  0
  -15.5375  -30.2971   23.7695 H   0  0  0  0  0  0
  -15.8704  -28.0808   22.7105 H   0  0  0  0  0  0
  -24.5880  -30.7120   25.7661 H   0  0  0  0  0  0
  -24.8854  -32.2988   26.4651 H   0  0  0  0  0  0
  -25.7911  -30.9037   27.0214 H   0  0  0  0  0  0
  -26.3132  -29.6567   24.1431 H   0  0  0  0  0  0
  -27.3969  -29.7274   25.5104 H   0  0  0  0  0  0
  -27.9081  -30.4079   23.9874 H   0  0  0  0  0  0
  -27.2609  -33.3695   26.1949 H   0  0  0  0  0  0
  -28.3923  -32.6840   25.0379 H   0  0  0  0  0  0
  -28.0640  -31.8565   26.5526 H   0  0  0  0  0  0
  -28.2568  -38.0074   24.7514 H   0  0  0  0  0  0
  -28.1086  -36.2600   24.6294 H   0  0  0  0  0  0
  -27.2285  -37.1401   25.8868 H   0  0  0  0  0  0
  -20.9591  -29.8722   21.6653 H   0  0  0  0  0  0
  -26.0127  -38.2760   24.1414 H   0  0  0  0  0  0
  -30.9253  -18.3340   20.1485 H   0  0  0  0  0  0
  -29.6579  -18.1900   18.9954 H   0  0  0  0  0  0
  -27.0271  -24.0337   19.8358 H   0  0  0  0  0  0
  -28.4582  -24.1941   18.9126 H   0  0  0  0  0  0
  -28.0757  -22.4345   21.4736 H   0  0  0  0  0  0
  -29.6629  -22.9201   21.0648 H   0  0  0  0  0  0
  -28.7150  -16.3484   20.7569 H   0  0  0  0  0  0
  1 25  1  0  0  0
  1 30  2  0  0  0
  1 75  1  0  0  0
  2  3  1  0  0  0
  2 25  1  0  0  0
  2 78  1  0  0  0
  2 79  1  0  0  0
  3  4  1  0  0  0
  3 80  1  0  0  0
  3 81  1  0  0  0
  4  5  1  0  0  0
  4 82  1  0  0  0
  4 83  1  0  0  0
  5  6  1  0  0  0
  5 26  1  0  0  0
  5 84  1  0  0  0
  6 25  1  0  0  0
  6 85  1  0  0  0
  6 86  1  0  0  0
  7  8  2  0  0  0
  7 26  1  0  0  0
  7 29  1  0  0  0
  8  9  1  0  0  0
  8 22  1  0  0  0
  9 10  1  0  0  0
  9 27  2  0  0  0
 10 11  2  0  0  0
 10 15  1  0  0  0
 11 12  1  0  0  0
 11 87  1  0  0  0
 12 13  2  0  0  0
 12 88  1  0  0  0
 13 14  1  0  0  0
 13 31  1  0  0  0
 14 15  2  0  0  0
 14 89  1  0  0  0
 15 90  1  0  0  0
 16 17  2  0  0  0
 16 21  1  0  0  0
 16 31  1  0  0  0
 17 18  1  0  0  0
 17 91  1  0  0  0
 18 19  2  0  0  0
 18 92  1  0  0  0
 19 20  1  0  0  0
 19 24  1  0  0  0
 20 21  2  0  0  0
 20 93  1  0  0  0
 21 23  1  0  0  0
 22 28  1  0  0  0
 22 32  2  0  0  0
 26 27  1  0  0  0
 28 94  1  0  0  0
 28 95  1  0  0  0
 29 96  1  0  0  0
 29 97  1  0  0  0
 33 34  1  0  0  0
 33 66  1  0  0  0
 33 70  2  0  0  0
 34 36  1  0  0  0
 34 59  1  0  0  0
 34 98  1  0  0  0
 35 44  2  0  0  0
 35 45  1  0  0  0
 35 68  1  0  0  0
 36 56  1  0  0  0
 36 99  1  0  0  0
 37 39  1  0  0  0
 37 47  1  0  0  0
 37 66  1  0  0  0
 37100  1  0  0  0
 38 43  2  0  0  0
 38 46  1  0  0  0
 38 47  1  0  0  0
 39 64  1  0  0  0
 39 67  2  0  0  0
 40 52  1  0  0  0
 40 53  2  0  0  0
 40 58  1  0  0  0
 41101  1  0  0  0
 41102  1  0  0  0
 41103  1  0  0  0
 41 48  1  0  0  0
 42 43  1  0  0  0
 42 66  1  0  0  0
 42104  1  0  0  0
 42105  1  0  0  0
 43 44  1  0  0  0
 44106  1  0  0  0
 45 46  2  0  0  0
 45107  1  0  0  0
 46108  1  0  0  0
 47109  1  0  0  0
 47110  1  0  0  0
 48 56  1  0  0  0
 48 65  1  0  0  0
 48111  1  0  0  0
 49 50  1  0  0  0
 49 53  1  0  0  0
 49 64  1  0  0  0
 49112  1  0  0  0
 50 51  1  0  0  0
 50113  1  0  0  0
 50114  1  0  0  0
 51 52  1  0  0  0
 51115  1  0  0  0
 51116  1  0  0  0
 52117  1  0  0  0
 52118  1  0  0  0
 53 54  1  0  0  0
 54 55  2  0  0  0
 54119  1  0  0  0
 55 57  1  0  0  0
 55120  1  0  0  0
 56 69  2  0  0  0
 57 58  2  0  0  0
 57121  1  0  0  0
 58122  1  0  0  0
 59 60  1  0  0  0
 59 61  1  0  0  0
 59 62  1  0  0  0
 60123  1  0  0  0
 60124  1  0  0  0
 60125  1  0  0  0
 61126  1  0  0  0
 61127  1  0  0  0
 61128  1  0  0  0
 62129  1  0  0  0
 62130  1  0  0  0
 62131  1  0  0  0
 63 65  1  0  0  0
 63132  1  0  0  0
 63133  1  0  0  0
 63134  1  0  0  0
 64135  1  0  0  0
 65136  1  0  0  0
 68 73  1  0  0  0
 71 72  1  0  0  0
 71 76  2  0  0  0
 71 77  1  0  0  0
 72 75  1  0  0  0
 72137  1  0  0  0
 72138  1  0  0  0
 73 74  1  0  0  0
 73139  1  0  0  0
 73140  1  0  0  0
 74 77  1  0  0  0
 74141  1  0  0  0
 74142  1  0  0  0
 75143  1  0  0  0
M  ISO  4   1 100  68 101  73 101  75 100
M  END
> <chiral flag>
0

> <version>
0

> <s_m_source_file>
/data/baiqing/PycharmProjects/Reinvent-master-3.2/result/LINK_invent/BTK/process_docking_weight1_custom_sum_contain_oxygen_bond_distance_aromatic_linkinvent_7_9_3/rearranged_h_0009.sdf

> <i_m_source_file_index>
55

> <r_mmod_Potential_Energy-OPLS-2005>
1210.28430175781

> <r_mmod_Stretch_Energy-OPLS-2005>
663.156188964844

> <r_mmod_Bend_Energy-OPLS-2005>
446.455383300781

> <r_mmod_Torsional_Energy-OPLS-2005>
208.204925537109

> <r_mmod_Improper_Torsional_Energy-OPLS-2005>
4.49845218658447

> <r_mmod_Van_der_Waal_Energy-OPLS-2005>
110.773452758789

> <r_mmod_Electrostatic_Energy-OPLS-2005>
-451.974914550781

> <r_mmod_Solvation_Energy-OPLS-2005>
-233.559600830078

> <b_mmod_Minimization_Converged-OPLS-2005>
0

> <r_mmod_RMS_Derivative-OPLS-2005>
0.0545099303126335

$$$$
56
                    3D
 Structure written by MMmdl.
148156  0  0  1  0            999 V2000
  -30.5122  -14.9218   20.4210 C   0  0  0  0  0  0
  -30.4531  -12.5665   19.4870 C   0  0  0  0  0  0
  -29.5248  -12.5329   18.2489 C   0  0  0  0  0  0
  -28.0554  -12.3215   18.6638 C   0  0  0  0  0  0
  -27.6372  -13.2379   19.8425 C   0  0  2  0  0  0
  -28.6832  -13.2237   20.9788 C   0  0  0  0  0  0
  -25.2494  -13.8187   20.5681 C   0  0  0  0  0  0
  -24.1803  -13.0433   20.9229 C   0  0  0  0  0  0
  -24.6403  -11.6915   20.8752 C   0  0  0  0  0  0
  -23.9077  -10.4290   21.0406 C   0  0  0  0  0  0
  -24.3623   -9.4205   21.9184 C   0  0  0  0  0  0
  -23.6292   -8.2244   22.0754 C   0  0  0  0  0  0
  -22.4273   -8.0285   21.3544 C   0  0  0  0  0  0
  -21.9912   -9.0261   20.4649 C   0  0  0  0  0  0
  -22.7246  -10.2135   20.3058 C   0  0  0  0  0  0
  -21.6854   -6.0731   22.5275 C   0  0  0  0  0  0
  -21.4015   -6.5633   23.8208 C   0  0  0  0  0  0
  -21.3662   -5.6786   24.9171 C   0  0  0  0  0  0
  -21.6044   -4.3049   24.7222 C   0  0  0  0  0  0
  -21.8820   -3.8140   23.4345 C   0  0  0  0  0  0
  -21.9192   -4.6957   22.3399 C   0  0  0  0  0  0
  -22.7822  -13.5216   21.1875 C   0  0  0  0  0  0
  -22.1662   -4.2142   21.0977 F   0  0  0  0  0  0
  -21.5629   -3.4536   25.7739 F   0  0  0  0  0  0
  -29.9663  -13.6413   20.3934 N   0  0  0  0  0  0
  -26.2920  -12.9402   20.3233 N   0  0  0  0  0  0
  -25.9333  -11.6544   20.5726 N   0  0  0  0  0  0
  -22.0461  -12.8217   22.0433 N   0  0  0  0  0  0
  -25.4154  -15.1905   20.4032 N   0  0  0  0  0  0
  -31.7048  -15.0554   20.1240 O   0  0  0  0  0  0
  -21.6639   -6.8880   21.4240 O   0  0  0  0  0  0
  -22.3514  -14.5518   20.6710 O   0  0  0  0  0  0
  -24.6443  -31.8448   23.1896 C   0  0  0  0  0  0
  -25.9216  -32.4698   23.8287 C   0  0  1  0  0  0
  -27.2194  -27.1412   20.1396 C   0  0  0  0  0  0
  -25.5963  -33.8505   24.2200 N   0  0  0  0  0  0
  -23.4478  -30.4658   21.5355 C   0  0  2  0  0  0
  -24.8972  -28.8971   20.1102 C   0  0  0  0  0  0
  -22.7577  -29.4550   22.4860 C   0  0  0  0  0  0
  -18.0311  -28.1393   22.8478 C   0  0  0  0  0  0
  -24.1495  -36.7256   23.2642 C   0  0  0  0  0  0
  -26.0052  -30.7192   21.3896 C   0  0  0  0  0  0
  -26.0767  -29.3319   20.7282 C   0  0  0  0  0  0
  -27.2386  -28.4703   20.7274 C   0  0  0  0  0  0
  -26.0107  -26.8123   19.4826 C   0  0  0  0  0  0
  -24.8768  -27.6494   19.4737 C   0  0  0  0  0  0
  -23.6743  -29.7989   20.1540 C   0  0  0  0  0  0
  -25.4127  -36.3034   24.0315 C   0  0  1  0  0  0
  -20.5925  -28.3720   23.1235 C   0  0  2  0  0  0
  -20.6794  -26.9423   22.5404 C   0  0  0  0  0  0
  -19.5763  -26.6377   21.5215 C   0  0  0  0  0  0
  -18.1947  -26.7930   22.1628 C   0  0  0  0  0  0
  -19.1569  -28.8877   23.2847 C   0  0  0  0  0  0
  -18.9480  -30.1472   23.8872 C   0  0  0  0  0  0
  -17.6474  -30.6587   24.0560 C   0  0  0  0  0  0
  -25.9076  -34.9406   23.5066 C   0  0  0  0  0  0
  -16.5368  -29.9079   23.6333 C   0  0  0  0  0  0
  -16.7296  -28.6499   23.0353 C   0  0  0  0  0  0
  -26.4529  -31.6564   25.0728 C   0  0  0  0  0  0
  -25.3706  -31.3765   26.1420 C   0  0  0  0  0  0
  -27.0385  -30.2951   24.6320 C   0  0  0  0  0  0
  -27.6061  -32.4328   25.7511 C   0  0  0  0  0  0
  -27.5573  -37.1796   24.8471 C   0  0  0  0  0  0
  -21.4268  -29.3048   22.3606 N   0  0  0  0  0  0
  -26.4295  -37.3739   23.9395 N   0  0  0  0  0  0
  -24.7189  -31.0306   22.0930 N   0  0  0  0  0  0
  -23.4222  -28.8090   23.3003 O   0  0  0  0  0  0
  -28.2628  -26.1435   20.2061 O   0  0  0  0  0  0
  -26.5660  -34.8903   22.4643 O   0  0  0  0  0  0
  -23.5560  -32.1329   23.7109 O   0  0  0  0  0  0
  -30.5556  -18.5556   20.3651 C   0  0  0  0  0  0
  -30.2820  -19.9982   20.2907 C   0  0  0  0  0  0
  -28.2396  -18.1427   20.4896 C   0  0  0  0  0  0
  -29.5376  -17.5370   20.4734 C   0  0  0  0  0  0
  -28.9593  -20.5786   20.3041 C   0  0  0  0  0  0
  -27.9644  -19.5572   20.3992 C   0  0  0  0  0  0
  -28.9304  -23.3609   20.2667 C   0  0  0  0  0  0
  -27.9099  -24.6404   20.0006 C   0  0  0  0  0  0
  -28.4680  -22.0258   20.1786 N   0  0  0  0  0  0
  -29.6243  -16.0086   20.6072 N   0  0  0  0  0  0
  -30.1122  -23.5927   20.5350 O   0  0  0  0  0  0
  -26.6671  -19.9507   20.4038 F   0  0  0  0  0  0
  -31.4844  -12.7383   19.1752 H   0  0  0  0  0  0
  -30.4520  -11.6030   19.9989 H   0  0  0  0  0  0
  -29.8366  -11.7451   17.5617 H   0  0  0  0  0  0
  -29.6166  -13.4710   17.6997 H   0  0  0  0  0  0
  -27.9406  -11.2757   18.9515 H   0  0  0  0  0  0
  -27.3953  -12.4769   17.8097 H   0  0  0  0  0  0
  -27.6101  -14.2476   19.4324 H   0  0  0  0  0  0
  -28.7617  -12.2309   21.4245 H   0  0  0  0  0  0
  -28.3859  -13.8962   21.7849 H   0  0  0  0  0  0
  -25.2767   -9.5674   22.4762 H   0  0  0  0  0  0
  -23.9995   -7.4633   22.7476 H   0  0  0  0  0  0
  -21.0839   -8.8784   19.8959 H   0  0  0  0  0  0
  -22.3705  -10.9676   19.6171 H   0  0  0  0  0  0
  -21.2010   -7.6141   23.9709 H   0  0  0  0  0  0
  -21.1483   -6.0517   25.9072 H   0  0  0  0  0  0
  -22.0596   -2.7603   23.2848 H   0  0  0  0  0  0
  -22.4073  -11.9888   22.4838 H   0  0  0  0  0  0
  -21.1080  -13.1251   22.2629 H   0  0  0  0  0  0
  -24.6299  -15.8279   20.4806 H   0  0  0  0  0  0
  -26.2201  -15.6099   19.9582 H   0  0  0  0  0  0
  -26.7284  -32.5304   23.1019 H   0  0  0  0  0  0
  -25.0087  -33.9620   25.0332 H   0  0  0  0  0  0
  -22.7507  -31.2922   21.3828 H   0  0  0  0  0  0
  -23.3749  -35.9597   23.3319 H   0  0  0  0  0  0
  -24.3573  -36.8871   22.2053 H   0  0  0  0  0  0
  -23.7267  -37.6465   23.6669 H   0  0  0  0  0  0
  -26.1638  -31.4760   20.6202 H   0  0  0  0  0  0
  -26.8746  -30.7664   22.0337 H   0  0  0  0  0  0
  -28.1353  -28.7977   21.2346 H   0  0  0  0  0  0
  -25.8960  -25.8642   18.9812 H   0  0  0  0  0  0
  -23.9771  -27.3112   18.9782 H   0  0  0  0  0  0
  -23.8123  -30.5751   19.4004 H   0  0  0  0  0  0
  -22.7889  -29.2427   19.8418 H   0  0  0  0  0  0
  -25.1316  -36.1868   25.0809 H   0  0  0  0  0  0
  -21.0023  -28.3313   24.1353 H   0  0  0  0  0  0
  -20.5685  -26.2336   23.3623 H   0  0  0  0  0  0
  -21.6660  -26.7422   22.1202 H   0  0  0  0  0  0
  -19.6920  -25.6282   21.1257 H   0  0  0  0  0  0
  -19.6691  -27.3176   20.6736 H   0  0  0  0  0  0
  -17.4212  -26.6677   21.4036 H   0  0  0  0  0  0
  -18.0343  -26.0079   22.9031 H   0  0  0  0  0  0
  -19.7955  -30.7300   24.2228 H   0  0  0  0  0  0
  -17.5024  -31.6263   24.5165 H   0  0  0  0  0  0
  -15.5366  -30.2968   23.7664 H   0  0  0  0  0  0
  -15.8700  -28.0805   22.7076 H   0  0  0  0  0  0
  -24.5890  -30.7107   25.7742 H   0  0  0  0  0  0
  -24.8890  -32.2951   26.4780 H   0  0  0  0  0  0
  -25.7980  -30.8981   27.0239 H   0  0  0  0  0  0
  -26.3004  -29.6679   24.1307 H   0  0  0  0  0  0
  -27.3959  -29.7249   25.4905 H   0  0  0  0  0  0
  -27.8931  -30.4168   23.9663 H   0  0  0  0  0  0
  -27.2655  -33.3642   26.2046 H   0  0  0  0  0  0
  -28.3893  -32.6869   25.0356 H   0  0  0  0  0  0
  -28.0707  -31.8484   26.5461 H   0  0  0  0  0  0
  -28.2614  -38.0066   24.7468 H   0  0  0  0  0  0
  -28.1045  -36.2596   24.6362 H   0  0  0  0  0  0
  -27.2283  -37.1523   25.8873 H   0  0  0  0  0  0
  -20.9479  -29.8766   21.6786 H   0  0  0  0  0  0
  -26.0164  -38.2816   24.1359 H   0  0  0  0  0  0
  -31.5893  -18.2394   20.3456 H   0  0  0  0  0  0
  -31.1257  -20.6684   20.2073 H   0  0  0  0  0  0
  -27.3790  -17.4966   20.5727 H   0  0  0  0  0  0
  -27.0217  -24.4352   20.5988 H   0  0  0  0  0  0
  -27.6067  -24.5279   18.9598 H   0  0  0  0  0  0
  -27.4699  -22.0293   20.0105 H   0  0  0  0  0  0
  -28.7206  -15.6158   20.8204 H   0  0  0  0  0  0
  1 25  1  0  0  0
  1 30  2  0  0  0
  1 80  1  0  0  0
  2  3  1  0  0  0
  2 25  1  0  0  0
  2 83  1  0  0  0
  2 84  1  0  0  0
  3  4  1  0  0  0
  3 85  1  0  0  0
  3 86  1  0  0  0
  4  5  1  0  0  0
  4 87  1  0  0  0
  4 88  1  0  0  0
  5  6  1  0  0  0
  5 26  1  0  0  0
  5 89  1  0  0  0
  6 25  1  0  0  0
  6 90  1  0  0  0
  6 91  1  0  0  0
  7  8  2  0  0  0
  7 26  1  0  0  0
  7 29  1  0  0  0
  8  9  1  0  0  0
  8 22  1  0  0  0
  9 10  1  0  0  0
  9 27  2  0  0  0
 10 11  2  0  0  0
 10 15  1  0  0  0
 11 12  1  0  0  0
 11 92  1  0  0  0
 12 13  2  0  0  0
 12 93  1  0  0  0
 13 14  1  0  0  0
 13 31  1  0  0  0
 14 15  2  0  0  0
 14 94  1  0  0  0
 15 95  1  0  0  0
 16 17  2  0  0  0
 16 21  1  0  0  0
 16 31  1  0  0  0
 17 18  1  0  0  0
 17 96  1  0  0  0
 18 19  2  0  0  0
 18 97  1  0  0  0
 19 20  1  0  0  0
 19 24  1  0  0  0
 20 21  2  0  0  0
 20 98  1  0  0  0
 21 23  1  0  0  0
 22 28  1  0  0  0
 22 32  2  0  0  0
 26 27  1  0  0  0
 28 99  1  0  0  0
 28100  1  0  0  0
 29101  1  0  0  0
 29102  1  0  0  0
 33 34  1  0  0  0
 33 66  1  0  0  0
 33 70  2  0  0  0
 34 36  1  0  0  0
 34 59  1  0  0  0
 34103  1  0  0  0
 35 44  2  0  0  0
 35 45  1  0  0  0
 35 68  1  0  0  0
 36 56  1  0  0  0
 36104  1  0  0  0
 37 39  1  0  0  0
 37 47  1  0  0  0
 37 66  1  0  0  0
 37105  1  0  0  0
 38 43  2  0  0  0
 38 46  1  0  0  0
 38 47  1  0  0  0
 39 64  1  0  0  0
 39 67  2  0  0  0
 40 52  1  0  0  0
 40 53  2  0  0  0
 40 58  1  0  0  0
 41106  1  0  0  0
 41107  1  0  0  0
 41108  1  0  0  0
 41 48  1  0  0  0
 42 43  1  0  0  0
 42 66  1  0  0  0
 42109  1  0  0  0
 42110  1  0  0  0
 43 44  1  0  0  0
 44111  1  0  0  0
 45 46  2  0  0  0
 45112  1  0  0  0
 46113  1  0  0  0
 47114  1  0  0  0
 47115  1  0  0  0
 48 56  1  0  0  0
 48 65  1  0  0  0
 48116  1  0  0  0
 49 50  1  0  0  0
 49 53  1  0  0  0
 49 64  1  0  0  0
 49117  1  0  0  0
 50 51  1  0  0  0
 50118  1  0  0  0
 50119  1  0  0  0
 51 52  1  0  0  0
 51120  1  0  0  0
 51121  1  0  0  0
 52122  1  0  0  0
 52123  1  0  0  0
 53 54  1  0  0  0
 54 55  2  0  0  0
 54124  1  0  0  0
 55 57  1  0  0  0
 55125  1  0  0  0
 56 69  2  0  0  0
 57 58  2  0  0  0
 57126  1  0  0  0
 58127  1  0  0  0
 59 60  1  0  0  0
 59 61  1  0  0  0
 59 62  1  0  0  0
 60128  1  0  0  0
 60129  1  0  0  0
 60130  1  0  0  0
 61131  1  0  0  0
 61132  1  0  0  0
 61133  1  0  0  0
 62134  1  0  0  0
 62135  1  0  0  0
 62136  1  0  0  0
 63 65  1  0  0  0
 63137  1  0  0  0
 63138  1  0  0  0
 63139  1  0  0  0
 64140  1  0  0  0
 65141  1  0  0  0
 68 78  1  0  0  0
 71 72  2  0  0  0
 71 74  1  0  0  0
 71142  1  0  0  0
 72 75  1  0  0  0
 72143  1  0  0  0
 73 74  2  0  0  0
 73 76  1  0  0  0
 73144  1  0  0  0
 74 80  1  0  0  0
 75 76  2  0  0  0
 75 79  1  0  0  0
 76 82  1  0  0  0
 77 78  1  0  0  0
 77 79  1  0  0  0
 77 81  2  0  0  0
 78145  1  0  0  0
 78146  1  0  0  0
 79147  1  0  0  0
 80148  1  0  0  0
M  ISO  4   1 100  68 101  78 101  80 100
M  END
> <chiral flag>
0

> <version>
0

> <s_m_source_file>
/data/baiqing/PycharmProjects/Reinvent-master-3.2/result/LINK_invent/BTK/process_docking_weight1_custom_sum_contain_oxygen_bond_distance_aromatic_linkinvent_7_9_3/rearranged_h_0009.sdf

> <i_m_source_file_index>
56

> <r_mmod_Potential_Energy-OPLS-2005>
408.086791992188

> <r_mmod_Stretch_Energy-OPLS-2005>
218.79460144043

> <r_mmod_Bend_Energy-OPLS-2005>
281.798767089844

> <r_mmod_Torsional_Energy-OPLS-2005>
220.497772216797

> <r_mmod_Improper_Torsional_Energy-OPLS-2005>
5.07187652587891

> <r_mmod_Van_der_Waal_Energy-OPLS-2005>
130.193206787109

> <r_mmod_Electrostatic_Energy-OPLS-2005>
-389.395721435547

> <r_mmod_Solvation_Energy-OPLS-2005>
-242.372695922852

> <b_mmod_Minimization_Converged-OPLS-2005>
0

> <r_mmod_RMS_Derivative-OPLS-2005>
0.813941478729248

$$$$
57
                    3D
 Structure written by MMmdl.
155163  0  0  1  0            999 V2000
  -30.5167  -14.9197   20.4436 C   0  0  0  0  0  0
  -30.4545  -12.5683   19.4970 C   0  0  0  0  0  0
  -29.5267  -12.5356   18.2584 C   0  0  0  0  0  0
  -28.0579  -12.3222   18.6734 C   0  0  0  0  0  0
  -27.6405  -13.2399   19.8517 C   0  0  2  0  0  0
  -28.6835  -13.2213   20.9908 C   0  0  0  0  0  0
  -25.2502  -13.8194   20.5670 C   0  0  0  0  0  0
  -24.1805  -13.0434   20.9188 C   0  0  0  0  0  0
  -24.6409  -11.6918   20.8746 C   0  0  0  0  0  0
  -23.9085  -10.4295   21.0411 C   0  0  0  0  0  0
  -24.3631   -9.4206   21.9188 C   0  0  0  0  0  0
  -23.6298   -8.2246   22.0757 C   0  0  0  0  0  0
  -22.4279   -8.0290   21.3549 C   0  0  0  0  0  0
  -21.9922   -9.0263   20.4650 C   0  0  0  0  0  0
  -22.7257  -10.2139   20.3060 C   0  0  0  0  0  0
  -21.6858   -6.0744   22.5277 C   0  0  0  0  0  0
  -21.4014   -6.5644   23.8211 C   0  0  0  0  0  0
  -21.3656   -5.6795   24.9171 C   0  0  0  0  0  0
  -21.6044   -4.3059   24.7220 C   0  0  0  0  0  0
  -21.8817   -3.8151   23.4342 C   0  0  0  0  0  0
  -21.9191   -4.6971   22.3399 C   0  0  0  0  0  0
  -22.7831  -13.5224   21.1851 C   0  0  0  0  0  0
  -22.1662   -4.2157   21.0978 F   0  0  0  0  0  0
  -21.5625   -3.4539   25.7730 F   0  0  0  0  0  0
  -29.9692  -13.6397   20.4105 N   0  0  0  0  0  0
  -26.2944  -12.9415   20.3299 N   0  0  0  0  0  0
  -25.9351  -11.6554   20.5773 N   0  0  0  0  0  0
  -22.0477  -12.8219   22.0415 N   0  0  0  0  0  0
  -25.4150  -15.1911   20.4049 N   0  0  0  0  0  0
  -31.6963  -15.0567   20.0993 O   0  0  0  0  0  0
  -21.6642   -6.8888   21.4244 O   0  0  0  0  0  0
  -22.3510  -14.5531   20.6704 O   0  0  0  0  0  0
  -24.6441  -31.8448   23.1894 C   0  0  0  0  0  0
  -25.9212  -32.4701   23.8284 C   0  0  1  0  0  0
  -27.2154  -27.1342   20.1478 C   0  0  0  0  0  0
  -25.5964  -33.8507   24.2204 N   0  0  0  0  0  0
  -23.4480  -30.4667   21.5347 C   0  0  2  0  0  0
  -24.8974  -28.8966   20.1117 C   0  0  0  0  0  0
  -22.7579  -29.4555   22.4849 C   0  0  0  0  0  0
  -18.0310  -28.1393   22.8480 C   0  0  0  0  0  0
  -24.1492  -36.7247   23.2643 C   0  0  0  0  0  0
  -26.0058  -30.7180   21.3899 C   0  0  0  0  0  0
  -26.0770  -29.3302   20.7295 C   0  0  0  0  0  0
  -27.2378  -28.4660   20.7310 C   0  0  0  0  0  0
  -26.0066  -26.8086   19.4897 C   0  0  0  0  0  0
  -24.8755  -27.6486   19.4770 C   0  0  0  0  0  0
  -23.6750  -29.7988   20.1544 C   0  0  0  0  0  0
  -25.4121  -36.3031   24.0324 C   0  0  1  0  0  0
  -20.5927  -28.3716   23.1231 C   0  0  2  0  0  0
  -20.6795  -26.9418   22.5395 C   0  0  0  0  0  0
  -19.5768  -26.6372   21.5211 C   0  0  0  0  0  0
  -18.1948  -26.7932   22.1622 C   0  0  0  0  0  0
  -19.1570  -28.8869   23.2849 C   0  0  0  0  0  0
  -18.9486  -30.1467   23.8872 C   0  0  0  0  0  0
  -17.6482  -30.6591   24.0556 C   0  0  0  0  0  0
  -25.9070  -34.9409   23.5067 C   0  0  0  0  0  0
  -16.5371  -29.9078   23.6340 C   0  0  0  0  0  0
  -16.7295  -28.6497   23.0361 C   0  0  0  0  0  0
  -26.4536  -31.6565   25.0718 C   0  0  0  0  0  0
  -25.3728  -31.3765   26.1417 C   0  0  0  0  0  0
  -27.0400  -30.2959   24.6293 C   0  0  0  0  0  0
  -27.6068  -32.4334   25.7499 C   0  0  0  0  0  0
  -27.5576  -37.1777   24.8472 C   0  0  0  0  0  0
  -21.4265  -29.3055   22.3605 N   0  0  0  0  0  0
  -26.4283  -37.3743   23.9418 N   0  0  0  0  0  0
  -24.7189  -31.0303   22.0932 N   0  0  0  0  0  0
  -23.4221  -28.8084   23.2990 O   0  0  0  0  0  0
  -28.2540  -26.1303   20.2170 O   0  0  0  0  0  0
  -26.5643  -34.8909   22.4637 O   0  0  0  0  0  0
  -23.5558  -32.1320   23.7109 O   0  0  0  0  0  0
  -30.1237  -19.9456   19.9522 C   0  0  0  0  0  0
  -30.4170  -18.5093   20.0099 C   0  0  0  0  0  0
  -28.1279  -19.5725   21.1499 C   0  0  0  0  0  0
  -28.9450  -20.5622   20.5093 C   0  0  0  0  0  0
  -29.5674  -17.5315   20.6439 C   0  0  0  0  0  0
  -28.4194  -18.1482   21.2387 C   0  0  0  0  0  0
  -28.9107  -23.3368   20.2764 C   0  0  0  0  0  0
  -26.1645  -16.6276   23.7148 C   0  0  0  0  0  0
  -27.8736  -24.6214   20.1044 C   0  0  0  0  0  0
  -26.6108  -17.7681   22.7957 C   0  0  0  0  0  0
  -28.4293  -22.0083   20.4047 N   0  0  0  0  0  0
  -29.6600  -16.0043   20.7376 N   0  0  0  0  0  0
  -30.1244  -23.5577   20.2724 O   0  0  0  0  0  0
  -27.5920  -17.2607   21.9003 O   0  0  0  0  0  0
  -31.4856  -12.7416   19.1852 H   0  0  0  0  0  0
  -30.4558  -11.6037   20.0066 H   0  0  0  0  0  0
  -29.8401  -11.7475   17.5726 H   0  0  0  0  0  0
  -29.6177  -13.4738   17.7086 H   0  0  0  0  0  0
  -27.9480  -11.2771   18.9657 H   0  0  0  0  0  0
  -27.3948  -12.4703   17.8204 H   0  0  0  0  0  0
  -27.6170  -14.2514   19.4457 H   0  0  0  0  0  0
  -28.7612  -12.2269   21.4328 H   0  0  0  0  0  0
  -28.3824  -13.8902   21.7989 H   0  0  0  0  0  0
  -25.2770   -9.5683   22.4765 H   0  0  0  0  0  0
  -24.0001   -7.4641   22.7479 H   0  0  0  0  0  0
  -21.0848   -8.8787   19.8957 H   0  0  0  0  0  0
  -22.3713  -10.9683   19.6170 H   0  0  0  0  0  0
  -21.2009   -7.6150   23.9718 H   0  0  0  0  0  0
  -21.1478   -6.0522   25.9075 H   0  0  0  0  0  0
  -22.0597   -2.7613   23.2834 H   0  0  0  0  0  0
  -22.4094  -11.9878   22.4800 H   0  0  0  0  0  0
  -21.1100  -13.1255   22.2626 H   0  0  0  0  0  0
  -24.6483  -15.8411   20.5322 H   0  0  0  0  0  0
  -26.2803  -15.6482   20.1493 H   0  0  0  0  0  0
  -26.7268  -32.5308   23.1006 H   0  0  0  0  0  0
  -25.0140  -33.9629   25.0371 H   0  0  0  0  0  0
  -22.7512  -31.2926   21.3802 H   0  0  0  0  0  0
  -23.3774  -35.9562   23.3286 H   0  0  0  0  0  0
  -24.3577  -36.8888   22.2062 H   0  0  0  0  0  0
  -23.7228  -37.6431   23.6681 H   0  0  0  0  0  0
  -26.1636  -31.4742   20.6194 H   0  0  0  0  0  0
  -26.8762  -30.7660   22.0326 H   0  0  0  0  0  0
  -28.1343  -28.7922   21.2394 H   0  0  0  0  0  0
  -25.8870  -25.8613   18.9890 H   0  0  0  0  0  0
  -23.9750  -27.3102   18.9834 H   0  0  0  0  0  0
  -23.8141  -30.5738   19.4001 H   0  0  0  0  0  0
  -22.7907  -29.2408   19.8399 H   0  0  0  0  0  0
  -25.1307  -36.1858   25.0816 H   0  0  0  0  0  0
  -21.0023  -28.3299   24.1350 H   0  0  0  0  0  0
  -20.5694  -26.2330   23.3611 H   0  0  0  0  0  0
  -21.6661  -26.7421   22.1185 H   0  0  0  0  0  0
  -19.6930  -25.6275   21.1250 H   0  0  0  0  0  0
  -19.6704  -27.3176   20.6737 H   0  0  0  0  0  0
  -17.4216  -26.6683   21.4025 H   0  0  0  0  0  0
  -18.0344  -26.0077   22.9020 H   0  0  0  0  0  0
  -19.7968  -30.7291   24.2227 H   0  0  0  0  0  0
  -17.5041  -31.6275   24.5154 H   0  0  0  0  0  0
  -15.5376  -30.2975   23.7682 H   0  0  0  0  0  0
  -15.8696  -28.0805   22.7096 H   0  0  0  0  0  0
  -24.5900  -30.7116   25.7740 H   0  0  0  0  0  0
  -24.8934  -32.2960   26.4789 H   0  0  0  0  0  0
  -25.8015  -30.8967   27.0227 H   0  0  0  0  0  0
  -26.3014  -29.6679   24.1293 H   0  0  0  0  0  0
  -27.4016  -29.7248   25.4855 H   0  0  0  0  0  0
  -27.8924  -30.4200   23.9611 H   0  0  0  0  0  0
  -27.2668  -33.3675   26.1982 H   0  0  0  0  0  0
  -28.3930  -32.6820   25.0357 H   0  0  0  0  0  0
  -28.0676  -31.8517   26.5492 H   0  0  0  0  0  0
  -28.2578  -38.0087   24.7515 H   0  0  0  0  0  0
  -28.1083  -36.2612   24.6297 H   0  0  0  0  0  0
  -27.2293  -37.1420   25.8874 H   0  0  0  0  0  0
  -20.9463  -29.8780   21.6796 H   0  0  0  0  0  0
  -26.0153  -38.2809   24.1426 H   0  0  0  0  0  0
  -30.8186  -20.5799   19.4202 H   0  0  0  0  0  0
  -31.3172  -18.1589   19.5247 H   0  0  0  0  0  0
  -27.2096  -19.9366   21.5844 H   0  0  0  0  0  0
  -25.3841  -16.9624   24.3989 H   0  0  0  0  0  0
  -26.9971  -16.2616   24.3160 H   0  0  0  0  0  0
  -25.7701  -15.7860   23.1462 H   0  0  0  0  0  0
  -27.0477  -24.4445   20.7942 H   0  0  0  0  0  0
  -27.4709  -24.4723   19.1041 H   0  0  0  0  0  0
  -27.0115  -18.5756   23.4107 H   0  0  0  0  0  0
  -25.7593  -18.1552   22.2347 H   0  0  0  0  0  0
  -27.4220  -22.0417   20.4845 H   0  0  0  0  0  0
  -28.7897  -15.6387   21.0946 H   0  0  0  0  0  0
  1 25  1  0  0  0
  1 30  2  0  0  0
  1 82  1  0  0  0
  2  3  1  0  0  0
  2 25  1  0  0  0
  2 85  1  0  0  0
  2 86  1  0  0  0
  3  4  1  0  0  0
  3 87  1  0  0  0
  3 88  1  0  0  0
  4  5  1  0  0  0
  4 89  1  0  0  0
  4 90  1  0  0  0
  5  6  1  0  0  0
  5 26  1  0  0  0
  5 91  1  0  0  0
  6 25  1  0  0  0
  6 92  1  0  0  0
  6 93  1  0  0  0
  7  8  2  0  0  0
  7 26  1  0  0  0
  7 29  1  0  0  0
  8  9  1  0  0  0
  8 22  1  0  0  0
  9 10  1  0  0  0
  9 27  2  0  0  0
 10 11  2  0  0  0
 10 15  1  0  0  0
 11 12  1  0  0  0
 11 94  1  0  0  0
 12 13  2  0  0  0
 12 95  1  0  0  0
 13 14  1  0  0  0
 13 31  1  0  0  0
 14 15  2  0  0  0
 14 96  1  0  0  0
 15 97  1  0  0  0
 16 17  2  0  0  0
 16 21  1  0  0  0
 16 31  1  0  0  0
 17 18  1  0  0  0
 17 98  1  0  0  0
 18 19  2  0  0  0
 18 99  1  0  0  0
 19 20  1  0  0  0
 19 24  1  0  0  0
 20 21  2  0  0  0
 20100  1  0  0  0
 21 23  1  0  0  0
 22 28  1  0  0  0
 22 32  2  0  0  0
 26 27  1  0  0  0
 28101  1  0  0  0
 28102  1  0  0  0
 29103  1  0  0  0
 29104  1  0  0  0
 33 34  1  0  0  0
 33 66  1  0  0  0
 33 70  2  0  0  0
 34 36  1  0  0  0
 34 59  1  0  0  0
 34105  1  0  0  0
 35 44  2  0  0  0
 35 45  1  0  0  0
 35 68  1  0  0  0
 36 56  1  0  0  0
 36106  1  0  0  0
 37 39  1  0  0  0
 37 47  1  0  0  0
 37 66  1  0  0  0
 37107  1  0  0  0
 38 43  2  0  0  0
 38 46  1  0  0  0
 38 47  1  0  0  0
 39 64  1  0  0  0
 39 67  2  0  0  0
 40 52  1  0  0  0
 40 53  2  0  0  0
 40 58  1  0  0  0
 41108  1  0  0  0
 41109  1  0  0  0
 41110  1  0  0  0
 41 48  1  0  0  0
 42 43  1  0  0  0
 42 66  1  0  0  0
 42111  1  0  0  0
 42112  1  0  0  0
 43 44  1  0  0  0
 44113  1  0  0  0
 45 46  2  0  0  0
 45114  1  0  0  0
 46115  1  0  0  0
 47116  1  0  0  0
 47117  1  0  0  0
 48 56  1  0  0  0
 48 65  1  0  0  0
 48118  1  0  0  0
 49 50  1  0  0  0
 49 53  1  0  0  0
 49 64  1  0  0  0
 49119  1  0  0  0
 50 51  1  0  0  0
 50120  1  0  0  0
 50121  1  0  0  0
 51 52  1  0  0  0
 51122  1  0  0  0
 51123  1  0  0  0
 52124  1  0  0  0
 52125  1  0  0  0
 53 54  1  0  0  0
 54 55  2  0  0  0
 54126  1  0  0  0
 55 57  1  0  0  0
 55127  1  0  0  0
 56 69  2  0  0  0
 57 58  2  0  0  0
 57128  1  0  0  0
 58129  1  0  0  0
 59 60  1  0  0  0
 59 61  1  0  0  0
 59 62  1  0  0  0
 60130  1  0  0  0
 60131  1  0  0  0
 60132  1  0  0  0
 61133  1  0  0  0
 61134  1  0  0  0
 61135  1  0  0  0
 62136  1  0  0  0
 62137  1  0  0  0
 62138  1  0  0  0
 63 65  1  0  0  0
 63139  1  0  0  0
 63140  1  0  0  0
 63141  1  0  0  0
 64142  1  0  0  0
 65143  1  0  0  0
 68 79  1  0  0  0
 71 72  2  0  0  0
 71 74  1  0  0  0
 71144  1  0  0  0
 72 75  1  0  0  0
 72145  1  0  0  0
 73 74  2  0  0  0
 73 76  1  0  0  0
 73146  1  0  0  0
 74 81  1  0  0  0
 75 76  2  0  0  0
 75 82  1  0  0  0
 76 84  1  0  0  0
 77 79  1  0  0  0
 77 81  1  0  0  0
 77 83  2  0  0  0
 78 80  1  0  0  0
 78147  1  0  0  0
 78148  1  0  0  0
 78149  1  0  0  0
 79150  1  0  0  0
 79151  1  0  0  0
 80 84  1  0  0  0
 80152  1  0  0  0
 80153  1  0  0  0
 81154  1  0  0  0
 82155  1  0  0  0
M  ISO  4   1 100  68 101  79 101  82 100
M  END
> <chiral flag>
0

> <version>
0

> <s_m_source_file>
/data/baiqing/PycharmProjects/Reinvent-master-3.2/result/LINK_invent/BTK/process_docking_weight1_custom_sum_contain_oxygen_bond_distance_aromatic_linkinvent_7_9_3/rearranged_h_0009.sdf

> <i_m_source_file_index>
57

> <r_mmod_Potential_Energy-OPLS-2005>
391.687438964844

> <r_mmod_Stretch_Energy-OPLS-2005>
224.541213989258

> <r_mmod_Bend_Energy-OPLS-2005>
287.023162841797

> <r_mmod_Torsional_Energy-OPLS-2005>
228.551940917969

> <r_mmod_Improper_Torsional_Energy-OPLS-2005>
3.51475477218628

> <r_mmod_Van_der_Waal_Energy-OPLS-2005>
130.241592407227

> <r_mmod_Electrostatic_Energy-OPLS-2005>
-422.3271484375

> <r_mmod_Solvation_Energy-OPLS-2005>
-245.056076049805

> <b_mmod_Minimization_Converged-OPLS-2005>
0

> <r_mmod_RMS_Derivative-OPLS-2005>
1.20860064029694

$$$$
58
                    3D
 Structure written by MMmdl.
148156  0  0  1  0            999 V2000
  -30.5114  -14.9205   20.4353 C   0  0  0  0  0  0
  -30.4549  -12.5673   19.4922 C   0  0  0  0  0  0
  -29.5268  -12.5346   18.2535 C   0  0  0  0  0  0
  -28.0572  -12.3215   18.6680 C   0  0  0  0  0  0
  -27.6390  -13.2376   19.8470 C   0  0  2  0  0  0
  -28.6835  -13.2190   20.9848 C   0  0  0  0  0  0
  -25.2503  -13.8190   20.5691 C   0  0  0  0  0  0
  -24.1807  -13.0434   20.9226 C   0  0  0  0  0  0
  -24.6405  -11.6914   20.8755 C   0  0  0  0  0  0
  -23.9078  -10.4290   21.0412 C   0  0  0  0  0  0
  -24.3625   -9.4204   21.9188 C   0  0  0  0  0  0
  -23.6297   -8.2241   22.0756 C   0  0  0  0  0  0
  -22.4279   -8.0282   21.3545 C   0  0  0  0  0  0
  -21.9918   -9.0256   20.4646 C   0  0  0  0  0  0
  -22.7250  -10.2133   20.3058 C   0  0  0  0  0  0
  -21.6852   -6.0736   22.5280 C   0  0  0  0  0  0
  -21.4014   -6.5640   23.8213 C   0  0  0  0  0  0
  -21.3661   -5.6793   24.9175 C   0  0  0  0  0  0
  -21.6046   -4.3055   24.7225 C   0  0  0  0  0  0
  -21.8819   -3.8147   23.4346 C   0  0  0  0  0  0
  -21.9192   -4.6964   22.3403 C   0  0  0  0  0  0
  -22.7826  -13.5215   21.1878 C   0  0  0  0  0  0
  -22.1661   -4.2152   21.0980 F   0  0  0  0  0  0
  -21.5630   -3.4538   25.7737 F   0  0  0  0  0  0
  -29.9672  -13.6392   20.4024 N   0  0  0  0  0  0
  -26.2929  -12.9403   20.3256 N   0  0  0  0  0  0
  -25.9336  -11.6544   20.5741 N   0  0  0  0  0  0
  -22.0467  -12.8206   22.0429 N   0  0  0  0  0  0
  -25.4169  -15.1913   20.4062 N   0  0  0  0  0  0
  -31.6995  -15.0581   20.1214 O   0  0  0  0  0  0
  -21.6640   -6.8880   21.4242 O   0  0  0  0  0  0
  -22.3514  -14.5520   20.6719 O   0  0  0  0  0  0
  -24.6438  -31.8449   23.1897 C   0  0  0  0  0  0
  -25.9212  -32.4699   23.8283 C   0  0  1  0  0  0
  -27.2193  -27.1419   20.1447 C   0  0  0  0  0  0
  -25.5962  -33.8505   24.2199 N   0  0  0  0  0  0
  -23.4471  -30.4658   21.5355 C   0  0  2  0  0  0
  -24.8972  -28.8971   20.1103 C   0  0  0  0  0  0
  -22.7569  -29.4554   22.4861 C   0  0  0  0  0  0
  -18.0306  -28.1397   22.8477 C   0  0  0  0  0  0
  -24.1494  -36.7255   23.2641 C   0  0  0  0  0  0
  -26.0043  -30.7201   21.3890 C   0  0  0  0  0  0
  -26.0760  -29.3328   20.7288 C   0  0  0  0  0  0
  -27.2382  -28.4719   20.7298 C   0  0  0  0  0  0
  -26.0119  -26.8124   19.4852 C   0  0  0  0  0  0
  -24.8781  -27.6496   19.4735 C   0  0  0  0  0  0
  -23.6735  -29.7979   20.1543 C   0  0  0  0  0  0
  -25.4126  -36.3034   24.0315 C   0  0  1  0  0  0
  -20.5919  -28.3725   23.1233 C   0  0  2  0  0  0
  -20.6792  -26.9428   22.5402 C   0  0  0  0  0  0
  -19.5764  -26.6384   21.5212 C   0  0  0  0  0  0
  -18.1946  -26.7935   22.1624 C   0  0  0  0  0  0
  -19.1563  -28.8879   23.2847 C   0  0  0  0  0  0
  -18.9478  -30.1475   23.8873 C   0  0  0  0  0  0
  -17.6474  -30.6593   24.0560 C   0  0  0  0  0  0
  -25.9074  -34.9409   23.5064 C   0  0  0  0  0  0
  -16.5366  -29.9085   23.6337 C   0  0  0  0  0  0
  -16.7290  -28.6504   23.0357 C   0  0  0  0  0  0
  -26.4533  -31.6563   25.0721 C   0  0  0  0  0  0
  -25.3718  -31.3750   26.1415 C   0  0  0  0  0  0
  -27.0398  -30.2959   24.6302 C   0  0  0  0  0  0
  -27.6062  -32.4328   25.7508 C   0  0  0  0  0  0
  -27.5577  -37.1786   24.8466 C   0  0  0  0  0  0
  -21.4262  -29.3051   22.3605 N   0  0  0  0  0  0
  -26.4290  -37.3746   23.9406 N   0  0  0  0  0  0
  -24.7182  -31.0309   22.0931 N   0  0  0  0  0  0
  -23.4211  -28.8097   23.3008 O   0  0  0  0  0  0
  -28.2625  -26.1444   20.2158 O   0  0  0  0  0  0
  -26.5654  -34.8904   22.4638 O   0  0  0  0  0  0
  -23.5557  -32.1324   23.7117 O   0  0  0  0  0  0
  -27.9747  -19.5529   20.6422 C   0  0  0  0  0  0
  -30.2517  -19.9892   20.2292 C   0  0  0  0  0  0
  -28.2527  -18.1388   20.7224 C   0  0  0  0  0  0
  -30.5328  -18.5470   20.2971 C   0  0  0  0  0  0
  -28.9418  -20.5772   20.3930 C   0  0  0  0  0  0
  -29.5365  -17.5311   20.5470 C   0  0  0  0  0  0
  -28.9267  -23.3605   20.2937 C   0  0  0  0  0  0
  -27.9013  -24.6395   20.0445 C   0  0  0  0  0  0
  -28.4495  -22.0266   20.2703 N   0  0  0  0  0  0
  -29.6297  -16.0040   20.6635 N   0  0  0  0  0  0
  -30.1229  -23.5910   20.4895 O   0  0  0  0  0  0
  -31.4864  -12.7415   19.1813 H   0  0  0  0  0  0
  -30.4554  -11.6027   20.0023 H   0  0  0  0  0  0
  -29.8401  -11.7482   17.5656 H   0  0  0  0  0  0
  -29.6180  -13.4738   17.7054 H   0  0  0  0  0  0
  -27.9451  -11.2762   18.9579 H   0  0  0  0  0  0
  -27.3957  -12.4733   17.8143 H   0  0  0  0  0  0
  -27.6148  -14.2484   19.4398 H   0  0  0  0  0  0
  -28.7626  -12.2241   21.4257 H   0  0  0  0  0  0
  -28.3856  -13.8864   21.7950 H   0  0  0  0  0  0
  -25.2770   -9.5679   22.4764 H   0  0  0  0  0  0
  -24.0004   -7.4632   22.7476 H   0  0  0  0  0  0
  -21.0850   -8.8777   19.8951 H   0  0  0  0  0  0
  -22.3712  -10.9674   19.6168 H   0  0  0  0  0  0
  -21.2005   -7.6149   23.9718 H   0  0  0  0  0  0
  -21.1485   -6.0523   25.9079 H   0  0  0  0  0  0
  -22.0597   -2.7609   23.2845 H   0  0  0  0  0  0
  -22.4083  -11.9868   22.4820 H   0  0  0  0  0  0
  -21.1082  -13.1231   22.2628 H   0  0  0  0  0  0
  -24.6348  -15.8318   20.4896 H   0  0  0  0  0  0
  -26.2317  -15.6172   19.9853 H   0  0  0  0  0  0
  -26.7277  -32.5307   23.1011 H   0  0  0  0  0  0
  -25.0101  -33.9623   25.0342 H   0  0  0  0  0  0
  -22.7496  -31.2920   21.3822 H   0  0  0  0  0  0
  -23.3760  -35.9583   23.3294 H   0  0  0  0  0  0
  -24.3578  -36.8897   22.2058 H   0  0  0  0  0  0
  -23.7246  -37.6448   23.6682 H   0  0  0  0  0  0
  -26.1607  -31.4756   20.6179 H   0  0  0  0  0  0
  -26.8743  -30.7686   22.0321 H   0  0  0  0  0  0
  -28.1343  -28.8006   21.2370 H   0  0  0  0  0  0
  -25.8980  -25.8642   18.9841 H   0  0  0  0  0  0
  -23.9793  -27.3113   18.9762 H   0  0  0  0  0  0
  -23.8099  -30.5737   19.4000 H   0  0  0  0  0  0
  -22.7884  -29.2404   19.8425 H   0  0  0  0  0  0
  -25.1314  -36.1864   25.0807 H   0  0  0  0  0  0
  -21.0012  -28.3317   24.1353 H   0  0  0  0  0  0
  -20.5691  -26.2338   23.3621 H   0  0  0  0  0  0
  -21.6656  -26.7436   22.1197 H   0  0  0  0  0  0
  -19.6926  -25.6289   21.1256 H   0  0  0  0  0  0
  -19.6700  -27.3182   20.6732 H   0  0  0  0  0  0
  -17.4214  -26.6680   21.4028 H   0  0  0  0  0  0
  -18.0346  -26.0083   22.9026 H   0  0  0  0  0  0
  -19.7954  -30.7301   24.2231 H   0  0  0  0  0  0
  -17.5025  -31.6269   24.5167 H   0  0  0  0  0  0
  -15.5364  -30.2977   23.7675 H   0  0  0  0  0  0
  -15.8692  -28.0813   22.7085 H   0  0  0  0  0  0
  -24.5907  -30.7087   25.7737 H   0  0  0  0  0  0
  -24.8897  -32.2931   26.4783 H   0  0  0  0  0  0
  -25.8004  -30.8964   27.0230 H   0  0  0  0  0  0
  -26.3018  -29.6679   24.1299 H   0  0  0  0  0  0
  -27.4000  -29.7258   25.4876 H   0  0  0  0  0  0
  -27.8931  -30.4193   23.9629 H   0  0  0  0  0  0
  -27.2656  -33.3649   26.2029 H   0  0  0  0  0  0
  -28.3906  -32.6854   25.0361 H   0  0  0  0  0  0
  -28.0694  -31.8490   26.5473 H   0  0  0  0  0  0
  -28.2587  -38.0090   24.7509 H   0  0  0  0  0  0
  -28.1082  -36.2617   24.6299 H   0  0  0  0  0  0
  -27.2290  -37.1441   25.8868 H   0  0  0  0  0  0
  -20.9473  -29.8764   21.6784 H   0  0  0  0  0  0
  -26.0157  -38.2815   24.1407 H   0  0  0  0  0  0
  -26.9454  -19.8521   20.7809 H   0  0  0  0  0  0
  -31.0796  -20.6531   20.0229 H   0  0  0  0  0  0
  -27.4098  -17.4937   20.9252 H   0  0  0  0  0  0
  -31.5547  -18.2269   20.1490 H   0  0  0  0  0  0
  -27.0275  -24.4465   20.6678 H   0  0  0  0  0  0
  -27.5723  -24.5107   19.0136 H   0  0  0  0  0  0
  -27.4446  -22.0564   20.1609 H   0  0  0  0  0  0
  -28.7368  -15.6100   20.9166 H   0  0  0  0  0  0
  1 25  1  0  0  0
  1 30  2  0  0  0
  1 80  1  0  0  0
  2  3  1  0  0  0
  2 25  1  0  0  0
  2 82  1  0  0  0
  2 83  1  0  0  0
  3  4  1  0  0  0
  3 84  1  0  0  0
  3 85  1  0  0  0
  4  5  1  0  0  0
  4 86  1  0  0  0
  4 87  1  0  0  0
  5  6  1  0  0  0
  5 26  1  0  0  0
  5 88  1  0  0  0
  6 25  1  0  0  0
  6 89  1  0  0  0
  6 90  1  0  0  0
  7  8  2  0  0  0
  7 26  1  0  0  0
  7 29  1  0  0  0
  8  9  1  0  0  0
  8 22  1  0  0  0
  9 10  1  0  0  0
  9 27  2  0  0  0
 10 11  2  0  0  0
 10 15  1  0  0  0
 11 12  1  0  0  0
 11 91  1  0  0  0
 12 13  2  0  0  0
 12 92  1  0  0  0
 13 14  1  0  0  0
 13 31  1  0  0  0
 14 15  2  0  0  0
 14 93  1  0  0  0
 15 94  1  0  0  0
 16 17  2  0  0  0
 16 21  1  0  0  0
 16 31  1  0  0  0
 17 18  1  0  0  0
 17 95  1  0  0  0
 18 19  2  0  0  0
 18 96  1  0  0  0
 19 20  1  0  0  0
 19 24  1  0  0  0
 20 21  2  0  0  0
 20 97  1  0  0  0
 21 23  1  0  0  0
 22 28  1  0  0  0
 22 32  2  0  0  0
 26 27  1  0  0  0
 28 98  1  0  0  0
 28 99  1  0  0  0
 29100  1  0  0  0
 29101  1  0  0  0
 33 34  1  0  0  0
 33 66  1  0  0  0
 33 70  2  0  0  0
 34 36  1  0  0  0
 34 59  1  0  0  0
 34102  1  0  0  0
 35 44  2  0  0  0
 35 45  1  0  0  0
 35 68  1  0  0  0
 36 56  1  0  0  0
 36103  1  0  0  0
 37 39  1  0  0  0
 37 47  1  0  0  0
 37 66  1  0  0  0
 37104  1  0  0  0
 38 43  2  0  0  0
 38 46  1  0  0  0
 38 47  1  0  0  0
 39 64  1  0  0  0
 39 67  2  0  0  0
 40 52  1  0  0  0
 40 53  2  0  0  0
 40 58  1  0  0  0
 41105  1  0  0  0
 41106  1  0  0  0
 41107  1  0  0  0
 41 48  1  0  0  0
 42 43  1  0  0  0
 42 66  1  0  0  0
 42108  1  0  0  0
 42109  1  0  0  0
 43 44  1  0  0  0
 44110  1  0  0  0
 45 46  2  0  0  0
 45111  1  0  0  0
 46112  1  0  0  0
 47113  1  0  0  0
 47114  1  0  0  0
 48 56  1  0  0  0
 48 65  1  0  0  0
 48115  1  0  0  0
 49 50  1  0  0  0
 49 53  1  0  0  0
 49 64  1  0  0  0
 49116  1  0  0  0
 50 51  1  0  0  0
 50117  1  0  0  0
 50118  1  0  0  0
 51 52  1  0  0  0
 51119  1  0  0  0
 51120  1  0  0  0
 52121  1  0  0  0
 52122  1  0  0  0
 53 54  1  0  0  0
 54 55  2  0  0  0
 54123  1  0  0  0
 55 57  1  0  0  0
 55124  1  0  0  0
 56 69  2  0  0  0
 57 58  2  0  0  0
 57125  1  0  0  0
 58126  1  0  0  0
 59 60  1  0  0  0
 59 61  1  0  0  0
 59 62  1  0  0  0
 60127  1  0  0  0
 60128  1  0  0  0
 60129  1  0  0  0
 61130  1  0  0  0
 61131  1  0  0  0
 61132  1  0  0  0
 62133  1  0  0  0
 62134  1  0  0  0
 62135  1  0  0  0
 63 65  1  0  0  0
 63136  1  0  0  0
 63137  1  0  0  0
 63138  1  0  0  0
 64139  1  0  0  0
 65140  1  0  0  0
 68 78  1  0  0  0
 71 73  2  0  0  0
 71 75  1  0  0  0
 71141  1  0  0  0
 72 74  1  0  0  0
 72 75  2  0  0  0
 72142  1  0  0  0
 73 76  1  0  0  0
 73143  1  0  0  0
 74 76  2  0  0  0
 74144  1  0  0  0
 75 79  1  0  0  0
 76 80  1  0  0  0
 77 78  1  0  0  0
 77 79  1  0  0  0
 77 81  2  0  0  0
 78145  1  0  0  0
 78146  1  0  0  0
 79147  1  0  0  0
 80148  1  0  0  0
M  ISO  4   1 100  68 101  78 101  80 100
M  END
> <chiral flag>
0

> <version>
0

> <s_m_source_file>
/data/baiqing/PycharmProjects/Reinvent-master-3.2/result/LINK_invent/BTK/process_docking_weight1_custom_sum_contain_oxygen_bond_distance_aromatic_linkinvent_7_9_3/rearranged_h_0009.sdf

> <i_m_source_file_index>
58

> <r_mmod_Potential_Energy-OPLS-2005>
411.609313964844

> <r_mmod_Stretch_Energy-OPLS-2005>
219.232482910156

> <r_mmod_Bend_Energy-OPLS-2005>
281.814636230469

> <r_mmod_Torsional_Energy-OPLS-2005>
220.372116088867

> <r_mmod_Improper_Torsional_Energy-OPLS-2005>
4.48748207092285

> <r_mmod_Van_der_Waal_Energy-OPLS-2005>
130.148376464844

> <r_mmod_Electrostatic_Energy-OPLS-2005>
-374.771942138672

> <r_mmod_Solvation_Energy-OPLS-2005>
-252.214736938477

> <b_mmod_Minimization_Converged-OPLS-2005>
0

> <r_mmod_RMS_Derivative-OPLS-2005>
0.218703597784042

$$$$
59
                    3D
 Structure written by MMmdl.
153161  0  0  1  0            999 V2000
  -30.6158  -14.6487   20.4806 C   0  0  0  0  0  0
  -30.4435  -12.3939   19.4478 C   0  0  0  0  0  0
  -29.5094  -12.5023   18.2216 C   0  0  0  0  0  0
  -28.0319  -12.3411   18.6357 C   0  0  0  0  0  0
  -27.6528  -13.2151   19.8609 C   0  0  2  0  0  0
  -28.7020  -13.0775   20.9873 C   0  0  0  0  0  0
  -25.2563  -13.8174   20.5701 C   0  0  0  0  0  0
  -24.1826  -13.0427   20.9164 C   0  0  0  0  0  0
  -24.6400  -11.6903   20.8722 C   0  0  0  0  0  0
  -23.9066  -10.4288   21.0394 C   0  0  0  0  0  0
  -24.3617   -9.4210   21.9179 C   0  0  0  0  0  0
  -23.6291   -8.2248   22.0756 C   0  0  0  0  0  0
  -22.4271   -8.0284   21.3543 C   0  0  0  0  0  0
  -21.9902   -9.0257   20.4646 C   0  0  0  0  0  0
  -22.7237  -10.2132   20.3049 C   0  0  0  0  0  0
  -21.6853   -6.0737   22.5277 C   0  0  0  0  0  0
  -21.4017   -6.5642   23.8212 C   0  0  0  0  0  0
  -21.3657   -5.6792   24.9174 C   0  0  0  0  0  0
  -21.6041   -4.3054   24.7224 C   0  0  0  0  0  0
  -21.8820   -3.8145   23.4346 C   0  0  0  0  0  0
  -21.9193   -4.6964   22.3402 C   0  0  0  0  0  0
  -22.7848  -13.5223   21.1835 C   0  0  0  0  0  0
  -22.1661   -4.2150   21.0978 F   0  0  0  0  0  0
  -21.5624   -3.4538   25.7737 F   0  0  0  0  0  0
  -30.0146  -13.4193   20.4164 N   0  0  0  0  0  0
  -26.2997  -12.9355   20.3325 N   0  0  0  0  0  0
  -25.9332  -11.6506   20.5753 N   0  0  0  0  0  0
  -22.0487  -12.8226   22.0400 N   0  0  0  0  0  0
  -25.4195  -15.1922   20.4239 N   0  0  0  0  0  0
  -31.7969  -14.8088   20.1587 O   0  0  0  0  0  0
  -21.6639   -6.8881   21.4242 O   0  0  0  0  0  0
  -22.3532  -14.5533   20.6694 O   0  0  0  0  0  0
  -24.6266  -31.8600   23.2035 C   0  0  0  0  0  0
  -25.9114  -32.4778   23.8361 C   0  0  1  0  0  0
  -27.2232  -27.3185   20.1092 C   0  0  0  0  0  0
  -25.5928  -33.8579   24.2287 N   0  0  0  0  0  0
  -23.4199  -30.4846   21.5468 C   0  0  2  0  0  0
  -24.8656  -28.9430   20.1099 C   0  0  0  0  0  0
  -22.7479  -29.4620   22.4938 C   0  0  0  0  0  0
  -18.0289  -28.1380   22.8484 C   0  0  0  0  0  0
  -24.1490  -36.7294   23.2640 C   0  0  0  0  0  0
  -25.9625  -30.7894   21.3764 C   0  0  0  0  0  0
  -26.0356  -29.4183   20.7151 C   0  0  0  0  0  0
  -27.2172  -28.6178   20.7062 C   0  0  0  0  0  0
  -26.0276  -26.9007   19.4778 C   0  0  0  0  0  0
  -24.8635  -27.6895   19.4826 C   0  0  0  0  0  0
  -23.6339  -29.8230   20.1610 C   0  0  0  0  0  0
  -25.4113  -36.3083   24.0332 C   0  0  1  0  0  0
  -20.5889  -28.3685   23.1281 C   0  0  2  0  0  0
  -20.6778  -26.9409   22.5406 C   0  0  0  0  0  0
  -19.5751  -26.6380   21.5210 C   0  0  0  0  0  0
  -18.1933  -26.7924   22.1624 C   0  0  0  0  0  0
  -19.1541  -28.8851   23.2877 C   0  0  0  0  0  0
  -18.9463  -30.1453   23.8895 C   0  0  0  0  0  0
  -17.6462  -30.6581   24.0564 C   0  0  0  0  0  0
  -25.9048  -34.9451   23.5108 C   0  0  0  0  0  0
  -16.5355  -29.9078   23.6329 C   0  0  0  0  0  0
  -16.7276  -28.6495   23.0351 C   0  0  0  0  0  0
  -26.4496  -31.6586   25.0731 C   0  0  0  0  0  0
  -25.3730  -31.3728   26.1460 C   0  0  0  0  0  0
  -27.0339  -30.3009   24.6189 C   0  0  0  0  0  0
  -27.6058  -32.4322   25.7495 C   0  0  0  0  0  0
  -27.5576  -37.1806   24.8466 C   0  0  0  0  0  0
  -21.4192  -29.3037   22.3677 N   0  0  0  0  0  0
  -26.4294  -37.3773   23.9401 N   0  0  0  0  0  0
  -24.6884  -31.0611   22.0989 N   0  0  0  0  0  0
  -23.4202  -28.8157   23.3016 O   0  0  0  0  0  0
  -28.3388  -26.4632   20.1608 O   0  0  0  0  0  0
  -26.5613  -34.8916   22.4672 O   0  0  0  0  0  0
  -23.5429  -32.1402   23.7361 O   0  0  0  0  0  0
  -31.0173  -17.8956   21.0170 C   0  0  0  0  0  0
  -31.0035  -19.3227   20.9961 C   0  0  0  0  0  0
  -28.7782  -19.3258   20.0851 C   0  0  0  0  0  0
  -29.9002  -17.1454   20.5758 C   0  0  0  0  0  0
  -28.7903  -17.8942   20.0936 C   0  0  0  0  0  0
  -29.8889  -20.0833   20.5466 C   0  0  0  0  0  0
  -29.2274  -23.9532   20.3712 C   0  0  0  0  0  0
  -28.1103  -25.0096   19.9667 C   0  0  0  0  0  0
  -28.8941  -22.3972   20.2027 C   0  0  0  0  0  0
  -27.6922  -17.1932   19.5918 N   0  0  0  0  0  0
  -29.7640  -15.6967   20.6926 N   0  0  0  0  0  0
  -29.9784  -21.4927   20.5909 O   0  0  0  0  0  0
  -31.4841  -12.5251   19.1447 H   0  0  0  0  0  0
  -30.3828  -11.4009   19.8962 H   0  0  0  0  0  0
  -29.7732  -11.7483   17.4793 H   0  0  0  0  0  0
  -29.6509  -13.4701   17.7374 H   0  0  0  0  0  0
  -27.8700  -11.2884   18.8711 H   0  0  0  0  0  0
  -27.3773  -12.5674   17.7932 H   0  0  0  0  0  0
  -27.6629  -14.2467   19.5124 H   0  0  0  0  0  0
  -28.7166  -12.0587   21.3772 H   0  0  0  0  0  0
  -28.4537  -13.7184   21.8349 H   0  0  0  0  0  0
  -25.2766   -9.5685   22.4749 H   0  0  0  0  0  0
  -23.9997   -7.4641   22.7478 H   0  0  0  0  0  0
  -21.0830   -8.8782   19.8955 H   0  0  0  0  0  0
  -22.3702  -10.9670   19.6154 H   0  0  0  0  0  0
  -21.2016   -7.6151   23.9718 H   0  0  0  0  0  0
  -21.1473   -6.0520   25.9073 H   0  0  0  0  0  0
  -22.0600   -2.7609   23.2848 H   0  0  0  0  0  0
  -22.4105  -11.9895   22.4800 H   0  0  0  0  0  0
  -21.1106  -13.1260   22.2598 H   0  0  0  0  0  0
  -24.6441  -15.8304   20.5618 H   0  0  0  0  0  0
  -26.2794  -15.6854   20.1906 H   0  0  0  0  0  0
  -26.7182  -32.5444   23.1110 H   0  0  0  0  0  0
  -25.0079  -33.9724   25.0434 H   0  0  0  0  0  0
  -22.7133  -31.3052   21.4060 H   0  0  0  0  0  0
  -23.3743  -35.9636   23.3320 H   0  0  0  0  0  0
  -24.3579  -36.8894   22.2050 H   0  0  0  0  0  0
  -23.7256  -37.6509   23.6647 H   0  0  0  0  0  0
  -26.0980  -31.5545   20.6110 H   0  0  0  0  0  0
  -26.8417  -30.8340   22.0077 H   0  0  0  0  0  0
  -28.1140  -28.9771   21.1915 H   0  0  0  0  0  0
  -25.9581  -25.9463   18.9786 H   0  0  0  0  0  0
  -23.9678  -27.3204   19.0019 H   0  0  0  0  0  0
  -23.7529  -30.6018   19.4069 H   0  0  0  0  0  0
  -22.7535  -29.2536   19.8575 H   0  0  0  0  0  0
  -25.1295  -36.1942   25.0826 H   0  0  0  0  0  0
  -20.9980  -28.3261   24.1404 H   0  0  0  0  0  0
  -20.5683  -26.2296   23.3605 H   0  0  0  0  0  0
  -21.6648  -26.7439   22.1198 H   0  0  0  0  0  0
  -19.6913  -25.6292   21.1238 H   0  0  0  0  0  0
  -19.6684  -27.3192   20.6742 H   0  0  0  0  0  0
  -17.4201  -26.6671   21.4029 H   0  0  0  0  0  0
  -18.0333  -26.0064   22.9019 H   0  0  0  0  0  0
  -19.7940  -30.7270   24.2263 H   0  0  0  0  0  0
  -17.5016  -31.6263   24.5163 H   0  0  0  0  0  0
  -15.5355  -30.2980   23.7648 H   0  0  0  0  0  0
  -15.8677  -28.0811   22.7068 H   0  0  0  0  0  0
  -24.5892  -30.7092   25.7788 H   0  0  0  0  0  0
  -24.8938  -32.2899   26.4898 H   0  0  0  0  0  0
  -25.8052  -30.8890   27.0227 H   0  0  0  0  0  0
  -26.2914  -29.6756   24.1214 H   0  0  0  0  0  0
  -27.4038  -29.7267   25.4694 H   0  0  0  0  0  0
  -27.8785  -30.4295   23.9416 H   0  0  0  0  0  0
  -27.2670  -33.3619   26.2079 H   0  0  0  0  0  0
  -28.3859  -32.6887   25.0315 H   0  0  0  0  0  0
  -28.0737  -31.8446   26.5404 H   0  0  0  0  0  0
  -28.2610  -38.0086   24.7490 H   0  0  0  0  0  0
  -28.1057  -36.2619   24.6322 H   0  0  0  0  0  0
  -27.2293  -37.1493   25.8870 H   0  0  0  0  0  0
  -20.9370  -29.8769   21.6893 H   0  0  0  0  0  0
  -26.0179  -38.2855   24.1380 H   0  0  0  0  0  0
  -31.8863  -17.3849   21.4064 H   0  0  0  0  0  0
  -31.8766  -19.8483   21.3556 H   0  0  0  0  0  0
  -27.9070  -19.8448   19.7135 H   0  0  0  0  0  0
  -29.4968  -24.1291   21.4125 H   0  0  0  0  0  0
  -30.1256  -24.1737   19.7949 H   0  0  0  0  0  0
  -27.2123  -24.7299   20.5197 H   0  0  0  0  0  0
  -27.8861  -24.8494   18.9113 H   0  0  0  0  0  0
  -28.6311  -22.1971   19.1632 H   0  0  0  0  0  0
  -28.0126  -22.1557   20.7980 H   0  0  0  0  0  0
  -27.0097  -17.7712   19.1126 H   0  0  0  0  0  0
  -27.9589  -16.4219   18.9912 H   0  0  0  0  0  0
  -28.8031  -15.4089   20.7959 H   0  0  0  0  0  0
  1 25  1  0  0  0
  1 30  2  0  0  0
  1 81  1  0  0  0
  2  3  1  0  0  0
  2 25  1  0  0  0
  2 83  1  0  0  0
  2 84  1  0  0  0
  3  4  1  0  0  0
  3 85  1  0  0  0
  3 86  1  0  0  0
  4  5  1  0  0  0
  4 87  1  0  0  0
  4 88  1  0  0  0
  5  6  1  0  0  0
  5 26  1  0  0  0
  5 89  1  0  0  0
  6 25  1  0  0  0
  6 90  1  0  0  0
  6 91  1  0  0  0
  7  8  2  0  0  0
  7 26  1  0  0  0
  7 29  1  0  0  0
  8  9  1  0  0  0
  8 22  1  0  0  0
  9 10  1  0  0  0
  9 27  2  0  0  0
 10 11  2  0  0  0
 10 15  1  0  0  0
 11 12  1  0  0  0
 11 92  1  0  0  0
 12 13  2  0  0  0
 12 93  1  0  0  0
 13 14  1  0  0  0
 13 31  1  0  0  0
 14 15  2  0  0  0
 14 94  1  0  0  0
 15 95  1  0  0  0
 16 17  2  0  0  0
 16 21  1  0  0  0
 16 31  1  0  0  0
 17 18  1  0  0  0
 17 96  1  0  0  0
 18 19  2  0  0  0
 18 97  1  0  0  0
 19 20  1  0  0  0
 19 24  1  0  0  0
 20 21  2  0  0  0
 20 98  1  0  0  0
 21 23  1  0  0  0
 22 28  1  0  0  0
 22 32  2  0  0  0
 26 27  1  0  0  0
 28 99  1  0  0  0
 28100  1  0  0  0
 29101  1  0  0  0
 29102  1  0  0  0
 33 34  1  0  0  0
 33 66  1  0  0  0
 33 70  2  0  0  0
 34 36  1  0  0  0
 34 59  1  0  0  0
 34103  1  0  0  0
 35 44  2  0  0  0
 35 45  1  0  0  0
 35 68  1  0  0  0
 36 56  1  0  0  0
 36104  1  0  0  0
 37 39  1  0  0  0
 37 47  1  0  0  0
 37 66  1  0  0  0
 37105  1  0  0  0
 38 43  2  0  0  0
 38 46  1  0  0  0
 38 47  1  0  0  0
 39 64  1  0  0  0
 39 67  2  0  0  0
 40 52  1  0  0  0
 40 53  2  0  0  0
 40 58  1  0  0  0
 41106  1  0  0  0
 41107  1  0  0  0
 41108  1  0  0  0
 41 48  1  0  0  0
 42 43  1  0  0  0
 42 66  1  0  0  0
 42109  1  0  0  0
 42110  1  0  0  0
 43 44  1  0  0  0
 44111  1  0  0  0
 45 46  2  0  0  0
 45112  1  0  0  0
 46113  1  0  0  0
 47114  1  0  0  0
 47115  1  0  0  0
 48 56  1  0  0  0
 48 65  1  0  0  0
 48116  1  0  0  0
 49 50  1  0  0  0
 49 53  1  0  0  0
 49 64  1  0  0  0
 49117  1  0  0  0
 50 51  1  0  0  0
 50118  1  0  0  0
 50119  1  0  0  0
 51 52  1  0  0  0
 51120  1  0  0  0
 51121  1  0  0  0
 52122  1  0  0  0
 52123  1  0  0  0
 53 54  1  0  0  0
 54 55  2  0  0  0
 54124  1  0  0  0
 55 57  1  0  0  0
 55125  1  0  0  0
 56 69  2  0  0  0
 57 58  2  0  0  0
 57126  1  0  0  0
 58127  1  0  0  0
 59 60  1  0  0  0
 59 61  1  0  0  0
 59 62  1  0  0  0
 60128  1  0  0  0
 60129  1  0  0  0
 60130  1  0  0  0
 61131  1  0  0  0
 61132  1  0  0  0
 61133  1  0  0  0
 62134  1  0  0  0
 62135  1  0  0  0
 62136  1  0  0  0
 63 65  1  0  0  0
 63137  1  0  0  0
 63138  1  0  0  0
 63139  1  0  0  0
 64140  1  0  0  0
 65141  1  0  0  0
 68 78  1  0  0  0
 71 72  2  0  0  0
 71 74  1  0  0  0
 71142  1  0  0  0
 72 76  1  0  0  0
 72143  1  0  0  0
 73 75  1  0  0  0
 73 76  2  0  0  0
 73144  1  0  0  0
 74 75  2  0  0  0
 74 81  1  0  0  0
 75 80  1  0  0  0
 76 82  1  0  0  0
 77 78  1  0  0  0
 77 79  1  0  0  0
 77145  1  0  0  0
 77146  1  0  0  0
 78147  1  0  0  0
 78148  1  0  0  0
 79 82  1  0  0  0
 79149  1  0  0  0
 79150  1  0  0  0
 80151  1  0  0  0
 80152  1  0  0  0
 81153  1  0  0  0
M  ISO  4   1 100  68 101  78 101  81 100
M  END
> <chiral flag>
0

> <version>
0

> <s_m_source_file>
/data/baiqing/PycharmProjects/Reinvent-master-3.2/result/LINK_invent/BTK/process_docking_weight1_custom_sum_contain_oxygen_bond_distance_aromatic_linkinvent_7_9_3/rearranged_h_0009.sdf

> <i_m_source_file_index>
59

> <r_mmod_Potential_Energy-OPLS-2005>
-45.419075012207

> <r_mmod_Stretch_Energy-OPLS-2005>
77.1667785644531

> <r_mmod_Bend_Energy-OPLS-2005>
143.598175048828

> <r_mmod_Torsional_Energy-OPLS-2005>
225.850723266602

> <r_mmod_Improper_Torsional_Energy-OPLS-2005>
11.3645906448364

> <r_mmod_Van_der_Waal_Energy-OPLS-2005>
146.308181762695

> <r_mmod_Electrostatic_Energy-OPLS-2005>
-488.858123779297

> <r_mmod_Solvation_Energy-OPLS-2005>
-212.818878173828

> <b_mmod_Minimization_Converged-OPLS-2005>
0

> <r_mmod_RMS_Derivative-OPLS-2005>
0.688582718372345

$$$$
60
                    3D
 Structure written by MMmdl.
165173  0  0  1  0            999 V2000
  -29.8341  -14.8340   21.0440 C   0  0  0  0  0  0
  -30.3933  -12.7022   19.7293 C   0  0  0  0  0  0
  -29.5422  -12.6329   18.4129 C   0  0  0  0  0  0
  -28.0410  -12.3750   18.6373 C   0  0  0  0  0  0
  -27.5516  -13.1474   19.8910 C   0  0  2  0  0  0
  -28.4861  -12.7986   21.0595 C   0  0  0  0  0  0
  -25.2143  -13.7411   20.3529 C   0  0  0  0  0  0
  -24.0981  -12.9981   20.7184 C   0  0  0  0  0  0
  -24.5418  -11.6452   20.7996 C   0  0  0  0  0  0
  -23.8324  -10.3794   20.9935 C   0  0  0  0  0  0
  -24.3139   -9.3819   21.8917 C   0  0  0  0  0  0
  -23.5837   -8.1927   22.0837 C   0  0  0  0  0  0
  -22.3904   -7.9945   21.3880 C   0  0  0  0  0  0
  -21.9337   -8.9349   20.4546 C   0  0  0  0  0  0
  -22.6629  -10.1314   20.2584 C   0  0  0  0  0  0
  -21.6546   -6.0515   22.5570 C   0  0  0  0  0  0
  -21.3859   -6.5409   23.8397 C   0  0  0  0  0  0
  -21.3755   -5.6557   24.9347 C   0  0  0  0  0  0
  -21.6053   -4.2896   24.7428 C   0  0  0  0  0  0
  -21.8862   -3.8012   23.4504 C   0  0  0  0  0  0
  -21.9037   -4.6735   22.3548 C   0  0  0  0  0  0
  -22.8124  -13.7954   20.8165 C   0  0  0  0  0  0
  -22.1566   -4.1998   21.1066 F   0  0  0  0  0  0
  -21.5655   -3.4408   25.7849 F   0  0  0  0  0  0
  -29.6699  -13.5001   20.7350 N   0  0  0  0  0  0
  -26.2205  -12.8467   20.2816 N   0  0  0  0  0  0
  -25.8475  -11.5816   20.6233 N   0  0  0  0  0  0
  -21.9821  -13.8312   21.7940 N   0  0  0  0  0  0
  -25.2917  -15.1009   20.1870 N   0  0  0  0  0  0
  -30.9594  -15.2530   20.6877 O   0  0  0  0  0  0
  -21.6361   -6.8604   21.4548 O   0  0  0  0  0  0
  -22.4915  -14.4485   19.8453 O   0  0  0  0  0  0
  -24.6838  -31.8039   23.1658 C   0  0  0  0  0  0
  -25.9365  -32.4513   23.8163 C   0  0  1  0  0  0
  -26.8483  -26.6358   20.4091 C   0  0  0  0  0  0
  -25.6020  -33.8345   24.2047 N   0  0  0  0  0  0
  -23.4902  -30.4390   21.5306 C   0  0  2  0  0  0
  -24.8884  -28.8145   20.0907 C   0  0  0  0  0  0
  -22.7778  -29.4385   22.4865 C   0  0  0  0  0  0
  -18.0309  -28.1427   22.8477 C   0  0  0  0  0  0
  -24.1494  -36.7165   23.2641 C   0  0  0  0  0  0
  -26.0646  -30.5198   21.4465 C   0  0  0  0  0  0
  -26.0492  -29.0703   20.8174 C   0  0  0  0  0  0
  -27.0466  -27.9896   20.9183 C   0  0  0  0  0  0
  -25.7780  -26.5789   19.5106 C   0  0  0  0  0  0
  -24.8159  -27.5965   19.3849 C   0  0  0  0  0  0
  -23.7264  -29.7879   20.1328 C   0  0  0  0  0  0
  -25.4138  -36.2963   24.0301 C   0  0  1  0  0  0
  -20.5941  -28.3736   23.1233 C   0  0  2  0  0  0
  -20.6790  -26.9421   22.5433 C   0  0  0  0  0  0
  -19.5739  -26.6373   21.5259 C   0  0  0  0  0  0
  -18.1923  -26.7962   22.1665 C   0  0  0  0  0  0
  -19.1578  -28.8895   23.2832 C   0  0  0  0  0  0
  -18.9484  -30.1505   23.8811 C   0  0  0  0  0  0
  -17.6471  -30.6588   24.0524 C   0  0  0  0  0  0
  -25.9145  -34.9311   23.4999 C   0  0  0  0  0  0
  -16.5354  -29.9071   23.6359 C   0  0  0  0  0  0
  -16.7300  -28.6529   23.0333 C   0  0  0  0  0  0
  -26.4546  -31.6562   25.0770 C   0  0  0  0  0  0
  -25.3593  -31.3775   26.1379 C   0  0  0  0  0  0
  -27.0462  -30.2888   24.6703 C   0  0  0  0  0  0
  -27.6090  -32.4397   25.7480 C   0  0  0  0  0  0
  -27.5610  -37.1739   24.8461 C   0  0  0  0  0  0
  -21.4482  -29.3025   22.3584 N   0  0  0  0  0  0
  -26.4295  -37.3717   23.9449 N   0  0  0  0  0  0
  -24.7689  -30.9547   22.0933 N   0  0  0  0  0  0
  -23.4229  -28.7989   23.3107 O   0  0  0  0  0  0
  -27.4930  -25.2940   20.7054 O   0  0  0  0  0  0
  -26.5780  -34.8877   22.4640 O   0  0  0  0  0  0
  -23.5830  -32.1115   23.6835 O   0  0  0  0  0  0
  -24.5326  -16.1136   23.4964 C   0  0  0  0  0  0
  -25.3138  -17.2615   23.0314 C   0  0  0  0  0  0
  -26.4329  -14.8316   22.8905 C   0  0  0  0  0  0
  -24.9885  -14.7850   23.4268 C   0  0  0  0  0  0
  -27.2838  -15.9568   22.2543 C   0  0  0  0  0  0
  -26.5815  -17.3763   22.3206 C   0  0  0  0  0  0
  -21.8559  -12.9596   25.5891 C   0  0  0  0  0  0
  -21.9968  -11.9690   23.5146 C   0  0  0  0  0  0
  -24.6734  -12.4166   24.7532 C   0  0  0  0  0  0
  -27.1280  -21.9576   21.3553 C   0  0  0  0  0  0
  -26.7102  -23.7401   20.9927 C   0  0  0  0  0  0
  -26.4266  -20.2670   21.7733 C   0  0  0  0  0  0
  -22.5825  -13.3435   24.2567 C   0  0  0  0  0  0
  -28.7731  -15.6747   21.6285 N   0  0  0  0  0  0
  -24.1347  -13.6224   24.0903 N   0  0  0  0  0  0
  -27.1308  -18.7923   21.8864 O   0  0  0  0  0  0
  -31.3582  -13.1443   19.4861 H   0  0  0  0  0  0
  -30.6754  -11.7361   20.1375 H   0  0  0  0  0  0
  -30.0015  -11.9363   17.7213 H   0  0  0  0  0  0
  -29.6069  -13.6290   17.9609 H   0  0  0  0  0  0
  -27.9042  -11.3140   18.8533 H   0  0  0  0  0  0
  -27.4339  -12.5902   17.7540 H   0  0  0  0  0  0
  -27.5320  -14.2395   19.6467 H   0  0  0  0  0  0
  -28.5525  -11.7361   21.0071 H   0  0  0  0  0  0
  -28.1541  -13.0523   22.0255 H   0  0  0  0  0  0
  -25.2637   -9.5344   22.4398 H   0  0  0  0  0  0
  -23.9397   -7.4434   22.7863 H   0  0  0  0  0  0
  -21.0190   -8.7685   19.8897 H   0  0  0  0  0  0
  -22.3082  -10.8516   19.5047 H   0  0  0  0  0  0
  -21.1967   -7.6008   23.9933 H   0  0  0  0  0  0
  -21.1559   -6.0294   25.9247 H   0  0  0  0  0  0
  -22.0582   -2.7511   23.3067 H   0  0  0  0  0  0
  -22.1613  -13.4449   22.7099 H   0  0  0  0  0  0
  -21.1002  -14.2462   21.8231 H   0  0  0  0  0  0
  -24.4043  -15.4855   19.8589 H   0  0  0  0  0  0
  -26.1103  -15.4034   19.7137 H   0  0  0  0  0  0
  -26.7388  -32.4884   23.0842 H   0  0  0  0  0  0
  -25.0086  -33.9323   25.0117 H   0  0  0  0  0  0
  -22.8041  -31.2760   21.3823 H   0  0  0  0  0  0
  -23.3852  -35.9416   23.3222 H   0  0  0  0  0  0
  -24.3560  -36.8911   22.2085 H   0  0  0  0  0  0
  -23.7117  -37.6267   23.6743 H   0  0  0  0  0  0
  -26.3037  -31.2304   20.6532 H   0  0  0  0  0  0
  -26.9131  -30.5369   22.1140 H   0  0  0  0  0  0
  -27.9562  -28.1556   21.5014 H   0  0  0  0  0  0
  -25.5757  -25.6706   18.9504 H   0  0  0  0  0  0
  -23.9385  -27.4263   18.7691 H   0  0  0  0  0  0
  -23.9334  -30.5810   19.4118 H   0  0  0  0  0  0
  -22.8054  -29.3207   19.7871 H   0  0  0  0  0  0
  -25.1342  -36.1796   25.0796 H   0  0  0  0  0  0
  -20.9915  -28.3322   24.1394 H   0  0  0  0  0  0
  -20.5750  -26.2318   23.3643 H   0  0  0  0  0  0
  -21.6659  -26.7450   22.1186 H   0  0  0  0  0  0
  -19.6860  -25.6275   21.1311 H   0  0  0  0  0  0
  -19.6659  -27.3173   20.6772 H   0  0  0  0  0  0
  -17.4212  -26.6723   21.4058 H   0  0  0  0  0  0
  -18.0288  -26.0116   22.9062 H   0  0  0  0  0  0
  -19.7926  -30.7385   24.2145 H   0  0  0  0  0  0
  -17.4967  -31.6263   24.5192 H   0  0  0  0  0  0
  -15.5341  -30.2884   23.7719 H   0  0  0  0  0  0
  -15.8730  -28.0780   22.7060 H   0  0  0  0  0  0
  -24.5801  -30.7150   25.7598 H   0  0  0  0  0  0
  -24.8699  -32.2915   26.4758 H   0  0  0  0  0  0
  -25.7710  -30.8891   27.0218 H   0  0  0  0  0  0
  -26.3130  -29.6497   24.1785 H   0  0  0  0  0  0
  -27.3919  -29.7384   25.5470 H   0  0  0  0  0  0
  -27.9145  -30.4015   24.0202 H   0  0  0  0  0  0
  -27.2763  -33.3831   26.1857 H   0  0  0  0  0  0
  -28.3940  -32.6785   25.0263 H   0  0  0  0  0  0
  -28.0749  -31.8636   26.5514 H   0  0  0  0  0  0
  -28.2571  -38.0109   24.7677 H   0  0  0  0  0  0
  -28.1182  -36.2646   24.6130 H   0  0  0  0  0  0
  -27.2326  -37.1193   25.8855 H   0  0  0  0  0  0
  -20.9747  -29.8649   21.6638 H   0  0  0  0  0  0
  -26.0173  -38.2793   24.1490 H   0  0  0  0  0  0
  -23.5108  -16.2452   23.9531 H   0  0  0  0  0  0
  -24.8781  -18.2349   23.2773 H   0  0  0  0  0  0
  -26.7916  -13.8391   23.0011 H   0  0  0  0  0  0
  -20.7535  -13.0953   25.3845 H   0  0  0  0  0  0
  -22.0908  -13.4938   26.4517 H   0  0  0  0  0  0
  -21.8856  -11.9035   25.8621 H   0  0  0  0  0  0
  -22.2742  -11.6548   22.4891 H   0  0  0  0  0  0
  -22.4202  -11.0881   23.9802 H   0  0  0  0  0  0
  -20.8852  -11.9359   23.4686 H   0  0  0  0  0  0
  -24.1881  -12.3750   25.7395 H   0  0  0  0  0  0
  -25.7137  -12.3138   24.9216 H   0  0  0  0  0  0
  -24.4032  -11.4027   24.3503 H   0  0  0  0  0  0
  -27.9279  -21.9682   22.0810 H   0  0  0  0  0  0
  -27.6091  -21.6006   20.4576 H   0  0  0  0  0  0
  -25.9489  -23.9387   21.7578 H   0  0  0  0  0  0
  -26.0780  -23.5580   20.1011 H   0  0  0  0  0  0
  -25.6696  -19.9930   21.0551 H   0  0  0  0  0  0
  -25.8546  -20.2464   22.7019 H   0  0  0  0  0  0
  -22.0723  -14.2620   24.0257 H   0  0  0  0  0  0
  -29.2966  -16.5451   21.6212 H   0  0  0  0  0  0
  1 25  1  0  0  0
  1 30  2  0  0  0
  1 84  1  0  0  0
  2  3  1  0  0  0
  2 25  1  0  0  0
  2 87  1  0  0  0
  2 88  1  0  0  0
  3  4  1  0  0  0
  3 89  1  0  0  0
  3 90  1  0  0  0
  4  5  1  0  0  0
  4 91  1  0  0  0
  4 92  1  0  0  0
  5  6  1  0  0  0
  5 26  1  0  0  0
  5 93  1  0  0  0
  6 25  1  0  0  0
  6 94  1  0  0  0
  6 95  1  0  0  0
  7  8  2  0  0  0
  7 26  1  0  0  0
  7 29  1  0  0  0
  8  9  1  0  0  0
  8 22  1  0  0  0
  9 10  1  0  0  0
  9 27  2  0  0  0
 10 11  2  0  0  0
 10 15  1  0  0  0
 11 12  1  0  0  0
 11 96  1  0  0  0
 12 13  2  0  0  0
 12 97  1  0  0  0
 13 14  1  0  0  0
 13 31  1  0  0  0
 14 15  2  0  0  0
 14 98  1  0  0  0
 15 99  1  0  0  0
 16 17  2  0  0  0
 16 21  1  0  0  0
 16 31  1  0  0  0
 17 18  1  0  0  0
 17100  1  0  0  0
 18 19  2  0  0  0
 18101  1  0  0  0
 19 20  1  0  0  0
 19 24  1  0  0  0
 20 21  2  0  0  0
 20102  1  0  0  0
 21 23  1  0  0  0
 22 28  1  0  0  0
 22 32  2  0  0  0
 26 27  1  0  0  0
 28103  1  0  0  0
 28104  1  0  0  0
 29105  1  0  0  0
 29106  1  0  0  0
 33 34  1  0  0  0
 33 66  1  0  0  0
 33 70  2  0  0  0
 34 36  1  0  0  0
 34 59  1  0  0  0
 34107  1  0  0  0
 35 44  2  0  0  0
 35 45  1  0  0  0
 35 68  1  0  0  0
 36 56  1  0  0  0
 36108  1  0  0  0
 37 39  1  0  0  0
 37 47  1  0  0  0
 37 66  1  0  0  0
 37109  1  0  0  0
 38 43  2  0  0  0
 38 46  1  0  0  0
 38 47  1  0  0  0
 39 64  1  0  0  0
 39 67  2  0  0  0
 40 52  1  0  0  0
 40 53  2  0  0  0
 40 58  1  0  0  0
 41110  1  0  0  0
 41111  1  0  0  0
 41112  1  0  0  0
 41 48  1  0  0  0
 42 43  1  0  0  0
 42 66  1  0  0  0
 42113  1  0  0  0
 42114  1  0  0  0
 43 44  1  0  0  0
 44115  1  0  0  0
 45 46  2  0  0  0
 45116  1  0  0  0
 46117  1  0  0  0
 47118  1  0  0  0
 47119  1  0  0  0
 48 56  1  0  0  0
 48 65  1  0  0  0
 48120  1  0  0  0
 49 50  1  0  0  0
 49 53  1  0  0  0
 49 64  1  0  0  0
 49121  1  0  0  0
 50 51  1  0  0  0
 50122  1  0  0  0
 50123  1  0  0  0
 51 52  1  0  0  0
 51124  1  0  0  0
 51125  1  0  0  0
 52126  1  0  0  0
 52127  1  0  0  0
 53 54  1  0  0  0
 54 55  2  0  0  0
 54128  1  0  0  0
 55 57  1  0  0  0
 55129  1  0  0  0
 56 69  2  0  0  0
 57 58  2  0  0  0
 57130  1  0  0  0
 58131  1  0  0  0
 59 60  1  0  0  0
 59 61  1  0  0  0
 59 62  1  0  0  0
 60132  1  0  0  0
 60133  1  0  0  0
 60134  1  0  0  0
 61135  1  0  0  0
 61136  1  0  0  0
 61137  1  0  0  0
 62138  1  0  0  0
 62139  1  0  0  0
 62140  1  0  0  0
 63 65  1  0  0  0
 63141  1  0  0  0
 63142  1  0  0  0
 63143  1  0  0  0
 64144  1  0  0  0
 65145  1  0  0  0
 68 81  1  0  0  0
 71 72  2  0  0  0
 71 74  1  0  0  0
 71146  1  0  0  0
 72 76  1  0  0  0
 72147  1  0  0  0
 73 74  2  0  0  0
 73 75  1  0  0  0
 73148  1  0  0  0
 74 85  1  0  0  0
 75 76  2  0  0  0
 75 84  1  0  0  0
 76 86  1  0  0  0
 77149  1  0  0  0
 77150  1  0  0  0
 77151  1  0  0  0
 77 83  1  0  0  0
 78 83  1  0  0  0
 78152  1  0  0  0
 78153  1  0  0  0
 78154  1  0  0  0
 79 85  1  0  0  0
 79155  1  0  0  0
 79156  1  0  0  0
 79157  1  0  0  0
 80 81  1  0  0  0
 80 82  1  0  0  0
 80158  1  0  0  0
 80159  1  0  0  0
 81160  1  0  0  0
 81161  1  0  0  0
 82 86  1  0  0  0
 82162  1  0  0  0
 82163  1  0  0  0
 83 85  1  0  0  0
 83164  1  0  0  0
 84165  1  0  0  0
M  ISO  4   1 100  68 101  81 101  84 100
M  END
> <chiral flag>
0

> <version>
0

> <s_m_source_file>
/data/baiqing/PycharmProjects/Reinvent-master-3.2/result/LINK_invent/BTK/process_docking_weight1_custom_sum_contain_oxygen_bond_distance_aromatic_linkinvent_7_9_3/rearranged_h_0009.sdf

> <i_m_source_file_index>
60

> <r_mmod_Potential_Energy-OPLS-2005>
3180.17211914062

> <r_mmod_Stretch_Energy-OPLS-2005>
1154.33959960938

> <r_mmod_Bend_Energy-OPLS-2005>
942.409973144531

> <r_mmod_Torsional_Energy-OPLS-2005>
281.985137939453

> <r_mmod_Improper_Torsional_Energy-OPLS-2005>
10.3323135375977

> <r_mmod_Van_der_Waal_Energy-OPLS-2005>
283.138275146484

> <r_mmod_Electrostatic_Energy-OPLS-2005>
-448.467742919922

> <r_mmod_Solvation_Energy-OPLS-2005>
-203.159027099609

> <b_mmod_Minimization_Converged-OPLS-2005>
0

> <r_mmod_RMS_Derivative-OPLS-2005>
80.1659317016602

$$$$
61
                    3D
 Structure written by MMmdl.
179187  0  0  1  0            999 V2000
  -30.7757  -14.3733   20.5748 C   0  0  0  0  0  0
  -30.3960  -12.2502   19.4023 C   0  0  0  0  0  0
  -29.4727  -12.4946   18.1930 C   0  0  0  0  0  0
  -27.9992  -12.3692   18.6156 C   0  0  0  0  0  0
  -27.6632  -13.2075   19.8800 C   0  0  2  0  0  0
  -28.7121  -12.9794   20.9948 C   0  0  0  0  0  0
  -25.2604  -13.8167   20.5702 C   0  0  0  0  0  0
  -24.1870  -13.0434   20.9154 C   0  0  0  0  0  0
  -24.6460  -11.6893   20.8791 C   0  0  0  0  0  0
  -23.9111  -10.4291   21.0433 C   0  0  0  0  0  0
  -24.3637   -9.4200   21.9207 C   0  0  0  0  0  0
  -23.6312   -8.2242   22.0774 C   0  0  0  0  0  0
  -22.4306   -8.0284   21.3551 C   0  0  0  0  0  0
  -21.9938   -9.0271   20.4645 C   0  0  0  0  0  0
  -22.7290  -10.2144   20.3067 C   0  0  0  0  0  0
  -21.6850   -6.0753   22.5291 C   0  0  0  0  0  0
  -21.4011   -6.5658   23.8209 C   0  0  0  0  0  0
  -21.3658   -5.6823   24.9176 C   0  0  0  0  0  0
  -21.6033   -4.3080   24.7232 C   0  0  0  0  0  0
  -21.8821   -3.8168   23.4349 C   0  0  0  0  0  0
  -21.9184   -4.6987   22.3403 C   0  0  0  0  0  0
  -22.7896  -13.5217   21.1819 C   0  0  0  0  0  0
  -22.1657   -4.2187   21.0974 F   0  0  0  0  0  0
  -21.5623   -3.4538   25.7728 F   0  0  0  0  0  0
  -30.0482  -13.2389   20.4378 N   0  0  0  0  0  0
  -26.3062  -12.9353   20.3470 N   0  0  0  0  0  0
  -25.9383  -11.6510   20.5853 N   0  0  0  0  0  0
  -22.0512  -12.8221   22.0346 N   0  0  0  0  0  0
  -25.4319  -15.1866   20.4114 N   0  0  0  0  0  0
  -31.8857  -14.5207   20.0540 O   0  0  0  0  0  0
  -21.6632   -6.8910   21.4277 O   0  0  0  0  0  0
  -22.3555  -14.5507   20.6619 O   0  0  0  0  0  0
  -24.6137  -31.8762   23.2294 C   0  0  0  0  0  0
  -25.9067  -32.4860   23.8507 C   0  0  1  0  0  0
  -27.1600  -27.4504   20.0095 C   0  0  0  0  0  0
  -25.5954  -33.8658   24.2382 N   0  0  0  0  0  0
  -23.3926  -30.5175   21.5722 C   0  0  2  0  0  0
  -24.8074  -28.9934   20.1184 C   0  0  0  0  0  0
  -22.7347  -29.4765   22.5112 C   0  0  0  0  0  0
  -18.0289  -28.1335   22.8542 C   0  0  0  0  0  0
  -24.1509  -36.7320   23.2631 C   0  0  0  0  0  0
  -25.9291  -30.8209   21.4016 C   0  0  0  0  0  0
  -25.9799  -29.4654   20.7261 C   0  0  0  0  0  0
  -27.1568  -28.6888   20.6807 C   0  0  0  0  0  0
  -25.9779  -27.0187   19.3720 C   0  0  0  0  0  0
  -24.8002  -27.7641   19.4458 C   0  0  0  0  0  0
  -23.5919  -29.8740   20.1787 C   0  0  0  0  0  0
  -25.4120  -36.3112   24.0323 C   0  0  1  0  0  0
  -20.5874  -28.3660   23.1325 C   0  0  2  0  0  0
  -20.6826  -26.9441   22.5321 C   0  0  0  0  0  0
  -19.5754  -26.6450   21.5171 C   0  0  0  0  0  0
  -18.1970  -26.7898   22.1672 C   0  0  0  0  0  0
  -19.1534  -28.8825   23.2954 C   0  0  0  0  0  0
  -18.9461  -30.1448   23.8921 C   0  0  0  0  0  0
  -17.6435  -30.6559   24.0569 C   0  0  0  0  0  0
  -25.9045  -34.9477   23.5128 C   0  0  0  0  0  0
  -16.5362  -29.9049   23.6321 C   0  0  0  0  0  0
  -16.7292  -28.6452   23.0367 C   0  0  0  0  0  0
  -26.4467  -31.6634   25.0829 C   0  0  0  0  0  0
  -25.3708  -31.3781   26.1565 C   0  0  0  0  0  0
  -27.0320  -30.3051   24.6303 C   0  0  0  0  0  0
  -27.6007  -32.4378   25.7612 C   0  0  0  0  0  0
  -27.5564  -37.1832   24.8438 C   0  0  0  0  0  0
  -21.4121  -29.3089   22.3763 N   0  0  0  0  0  0
  -26.4304  -37.3781   23.9387 N   0  0  0  0  0  0
  -24.6633  -31.0848   22.1227 N   0  0  0  0  0  0
  -23.4170  -28.8203   23.3022 O   0  0  0  0  0  0
  -28.3280  -26.7218   19.9563 O   0  0  0  0  0  0
  -26.5567  -34.8890   22.4665 O   0  0  0  0  0  0
  -23.5326  -32.1566   23.7650 O   0  0  0  0  0  0
  -29.3215  -22.0691   24.9631 C   0  0  0  0  0  0
  -27.6602  -22.5274   23.2448 C   0  0  0  0  0  0
  -29.8162  -23.6429   23.1722 C   0  0  0  0  0  0
  -28.0210  -21.8667   24.4495 C   0  0  0  0  0  0
  -30.2268  -22.8887   24.2715 C   0  0  0  0  0  0
  -28.5616  -23.3938   22.5899 C   0  0  0  0  0  0
  -32.4298  -22.2231   23.6215 C   0  0  0  0  0  0
  -29.0020  -24.5150   20.4291 C   0  0  0  0  0  0
  -25.6310  -21.0762   24.8205 C   0  0  0  0  0  0
  -27.2824  -20.8259   26.6725 C   0  0  0  0  0  0
  -27.5110  -19.4511   24.5545 C   0  0  0  0  0  0
  -31.8559  -21.4064   22.4311 C   0  0  0  0  0  0
  -28.2879  -25.3886   19.4281 C   0  0  0  0  0  0
  -31.1570  -20.1053   22.8955 C   0  0  0  0  0  0
  -31.2285  -19.0251   21.8189 C   0  0  0  0  0  0
  -30.4797  -17.7217   22.1567 C   0  0  0  0  0  0
  -30.6437  -16.7804   20.9565 C   0  0  0  0  0  0
  -27.1222  -20.8272   25.1227 C   0  0  0  0  0  0
  -31.5943  -22.7835   24.5297 N   0  0  0  0  0  0
  -28.2018  -23.9773   21.3557 N   0  0  0  0  0  0
  -30.1617  -15.4076   21.1596 N   0  0  0  0  0  0
  -33.6503  -22.3806   23.7058 O   0  0  0  0  0  0
  -30.2271  -24.3757   20.3518 O   0  0  0  0  0  0
  -31.4458  -12.2935   19.1016 H   0  0  0  0  0  0
  -30.2462  -11.2394   19.7953 H   0  0  0  0  0  0
  -29.6946  -11.7843   17.3967 H   0  0  0  0  0  0
  -29.6522  -13.4874   17.7804 H   0  0  0  0  0  0
  -27.8008  -11.3151   18.8109 H   0  0  0  0  0  0
  -27.3408  -12.6521   17.7955 H   0  0  0  0  0  0
  -27.7109  -14.2540   19.5823 H   0  0  0  0  0  0
  -28.6716  -11.9467   21.3523 H   0  0  0  0  0  0
  -28.5066  -13.5943   21.8727 H   0  0  0  0  0  0
  -25.2772   -9.5659   22.4816 H   0  0  0  0  0  0
  -23.9996   -7.4622   22.7490 H   0  0  0  0  0  0
  -21.0868   -8.8805   19.8942 H   0  0  0  0  0  0
  -22.3758  -10.9700   19.6180 H   0  0  0  0  0  0
  -21.2017   -7.6170   23.9752 H   0  0  0  0  0  0
  -21.1471   -6.0521   25.9081 H   0  0  0  0  0  0
  -22.0602   -2.7647   23.2819 H   0  0  0  0  0  0
  -22.4096  -11.9844   22.4729 H   0  0  0  0  0  0
  -21.1141  -13.1299   22.2579 H   0  0  0  0  0  0
  -24.6737  -15.8435   20.5389 H   0  0  0  0  0  0
  -26.2921  -15.6327   20.1230 H   0  0  0  0  0  0
  -26.7100  -32.5510   23.1227 H   0  0  0  0  0  0
  -25.0142  -33.9881   25.0553 H   0  0  0  0  0  0
  -22.6811  -31.3382   21.4532 H   0  0  0  0  0  0
  -23.3738  -35.9682   23.3306 H   0  0  0  0  0  0
  -24.3592  -36.8924   22.2031 H   0  0  0  0  0  0
  -23.7290  -37.6547   23.6640 H   0  0  0  0  0  0
  -26.0773  -31.5983   20.6506 H   0  0  0  0  0  0
  -26.8058  -30.8357   22.0403 H   0  0  0  0  0  0
  -28.0676  -29.0407   21.1459 H   0  0  0  0  0  0
  -25.9080  -26.1502   18.7403 H   0  0  0  0  0  0
  -23.9052  -27.4364   18.9344 H   0  0  0  0  0  0
  -23.7209  -30.6640   19.4364 H   0  0  0  0  0  0
  -22.7026  -29.3213   19.8767 H   0  0  0  0  0  0
  -25.1302  -36.1984   25.0812 H   0  0  0  0  0  0
  -21.0030  -28.3187   24.1428 H   0  0  0  0  0  0
  -20.5837  -26.2248   23.3465 H   0  0  0  0  0  0
  -21.6664  -26.7578   22.1017 H   0  0  0  0  0  0
  -19.6916  -25.6406   21.1086 H   0  0  0  0  0  0
  -19.6587  -27.3351   20.6761 H   0  0  0  0  0  0
  -17.4200  -26.6653   21.4125 H   0  0  0  0  0  0
  -18.0456  -26.0009   22.9048 H   0  0  0  0  0  0
  -19.7934  -30.7306   24.2264 H   0  0  0  0  0  0
  -17.4989  -31.6250   24.5159 H   0  0  0  0  0  0
  -15.5354  -30.2936   23.7602 H   0  0  0  0  0  0
  -15.8743  -28.0772   22.7043 H   0  0  0  0  0  0
  -24.5878  -30.7134   25.7910 H   0  0  0  0  0  0
  -24.8913  -32.2964   26.4963 H   0  0  0  0  0  0
  -25.8031  -30.8984   27.0361 H   0  0  0  0  0  0
  -26.2924  -29.6824   24.1266 H   0  0  0  0  0  0
  -27.3920  -29.7293   25.4843 H   0  0  0  0  0  0
  -27.8835  -30.4318   23.9618 H   0  0  0  0  0  0
  -27.2584  -33.3657   26.2222 H   0  0  0  0  0  0
  -28.3826  -32.6997   25.0466 H   0  0  0  0  0  0
  -28.0687  -31.8511   26.5539 H   0  0  0  0  0  0
  -28.2578  -38.0136   24.7468 H   0  0  0  0  0  0
  -28.1091  -36.2648   24.6317 H   0  0  0  0  0  0
  -27.2273  -37.1519   25.8848 H   0  0  0  0  0  0
  -20.9225  -29.8886   21.7091 H   0  0  0  0  0  0
  -26.0176  -38.2871   24.1373 H   0  0  0  0  0  0
  -29.6585  -21.4854   25.8015 H   0  0  0  0  0  0
  -26.7239  -22.3305   22.7474 H   0  0  0  0  0  0
  -30.5461  -24.2740   22.6918 H   0  0  0  0  0  0
  -25.3292  -22.0908   25.1077 H   0  0  0  0  0  0
  -24.9951  -20.3702   25.3530 H   0  0  0  0  0  0
  -25.4146  -20.9474   23.7581 H   0  0  0  0  0  0
  -27.2006  -21.8331   27.0987 H   0  0  0  0  0  0
  -28.2488  -20.4243   26.9933 H   0  0  0  0  0  0
  -26.5335  -20.2086   27.1652 H   0  0  0  0  0  0
  -27.3108  -19.4137   23.4780 H   0  0  0  0  0  0
  -26.9636  -18.6402   25.0228 H   0  0  0  0  0  0
  -28.5795  -19.2574   24.6903 H   0  0  0  0  0  0
  -32.6955  -21.1600   21.7789 H   0  0  0  0  0  0
  -31.1894  -21.9716   21.7631 H   0  0  0  0  0  0
  -27.3155  -24.9128   19.3311 H   0  0  0  0  0  0
  -28.7540  -25.3526   18.4485 H   0  0  0  0  0  0
  -30.1134  -20.3108   23.1247 H   0  0  0  0  0  0
  -31.6244  -19.7410   23.8100 H   0  0  0  0  0  0
  -32.2815  -18.7847   21.6627 H   0  0  0  0  0  0
  -30.8525  -19.4281   20.8755 H   0  0  0  0  0  0
  -29.4210  -17.9087   22.3578 H   0  0  0  0  0  0
  -30.9078  -17.2677   23.0538 H   0  0  0  0  0  0
  -31.7032  -16.7879   20.7032 H   0  0  0  0  0  0
  -30.1260  -17.1887   20.0872 H   0  0  0  0  0  0
  -31.9587  -23.2672   25.3458 H   0  0  0  0  0  0
  -27.2159  -24.0377   21.1503 H   0  0  0  0  0  0
  -29.2368  -15.2658   21.5252 H   0  0  0  0  0  0
  1 25  1  0  0  0
  1 30  2  0  0  0
  1 91  1  0  0  0
  2  3  1  0  0  0
  2 25  1  0  0  0
  2 94  1  0  0  0
  2 95  1  0  0  0
  3  4  1  0  0  0
  3 96  1  0  0  0
  3 97  1  0  0  0
  4  5  1  0  0  0
  4 98  1  0  0  0
  4 99  1  0  0  0
  5  6  1  0  0  0
  5 26  1  0  0  0
  5100  1  0  0  0
  6 25  1  0  0  0
  6101  1  0  0  0
  6102  1  0  0  0
  7  8  2  0  0  0
  7 26  1  0  0  0
  7 29  1  0  0  0
  8  9  1  0  0  0
  8 22  1  0  0  0
  9 10  1  0  0  0
  9 27  2  0  0  0
 10 11  2  0  0  0
 10 15  1  0  0  0
 11 12  1  0  0  0
 11103  1  0  0  0
 12 13  2  0  0  0
 12104  1  0  0  0
 13 14  1  0  0  0
 13 31  1  0  0  0
 14 15  2  0  0  0
 14105  1  0  0  0
 15106  1  0  0  0
 16 17  2  0  0  0
 16 21  1  0  0  0
 16 31  1  0  0  0
 17 18  1  0  0  0
 17107  1  0  0  0
 18 19  2  0  0  0
 18108  1  0  0  0
 19 20  1  0  0  0
 19 24  1  0  0  0
 20 21  2  0  0  0
 20109  1  0  0  0
 21 23  1  0  0  0
 22 28  1  0  0  0
 22 32  2  0  0  0
 26 27  1  0  0  0
 28110  1  0  0  0
 28111  1  0  0  0
 29112  1  0  0  0
 29113  1  0  0  0
 33 34  1  0  0  0
 33 66  1  0  0  0
 33 70  2  0  0  0
 34 36  1  0  0  0
 34 59  1  0  0  0
 34114  1  0  0  0
 35 44  2  0  0  0
 35 45  1  0  0  0
 35 68  1  0  0  0
 36 56  1  0  0  0
 36115  1  0  0  0
 37 39  1  0  0  0
 37 47  1  0  0  0
 37 66  1  0  0  0
 37116  1  0  0  0
 38 43  2  0  0  0
 38 46  1  0  0  0
 38 47  1  0  0  0
 39 64  1  0  0  0
 39 67  2  0  0  0
 40 52  1  0  0  0
 40 53  2  0  0  0
 40 58  1  0  0  0
 41117  1  0  0  0
 41118  1  0  0  0
 41119  1  0  0  0
 41 48  1  0  0  0
 42 43  1  0  0  0
 42 66  1  0  0  0
 42120  1  0  0  0
 42121  1  0  0  0
 43 44  1  0  0  0
 44122  1  0  0  0
 45 46  2  0  0  0
 45123  1  0  0  0
 46124  1  0  0  0
 47125  1  0  0  0
 47126  1  0  0  0
 48 56  1  0  0  0
 48 65  1  0  0  0
 48127  1  0  0  0
 49 50  1  0  0  0
 49 53  1  0  0  0
 49 64  1  0  0  0
 49128  1  0  0  0
 50 51  1  0  0  0
 50129  1  0  0  0
 50130  1  0  0  0
 51 52  1  0  0  0
 51131  1  0  0  0
 51132  1  0  0  0
 52133  1  0  0  0
 52134  1  0  0  0
 53 54  1  0  0  0
 54 55  2  0  0  0
 54135  1  0  0  0
 55 57  1  0  0  0
 55136  1  0  0  0
 56 69  2  0  0  0
 57 58  2  0  0  0
 57137  1  0  0  0
 58138  1  0  0  0
 59 60  1  0  0  0
 59 61  1  0  0  0
 59 62  1  0  0  0
 60139  1  0  0  0
 60140  1  0  0  0
 60141  1  0  0  0
 61142  1  0  0  0
 61143  1  0  0  0
 61144  1  0  0  0
 62145  1  0  0  0
 62146  1  0  0  0
 62147  1  0  0  0
 63 65  1  0  0  0
 63148  1  0  0  0
 63149  1  0  0  0
 63150  1  0  0  0
 64151  1  0  0  0
 65152  1  0  0  0
 68 83  1  0  0  0
 71 74  2  0  0  0
 71 75  1  0  0  0
 71153  1  0  0  0
 72 74  1  0  0  0
 72 76  2  0  0  0
 72154  1  0  0  0
 73 75  2  0  0  0
 73 76  1  0  0  0
 73155  1  0  0  0
 74 88  1  0  0  0
 75 89  1  0  0  0
 76 90  1  0  0  0
 77 82  1  0  0  0
 77 89  1  0  0  0
 77 92  2  0  0  0
 78 83  1  0  0  0
 78 90  1  0  0  0
 78 93  2  0  0  0
 79156  1  0  0  0
 79157  1  0  0  0
 79158  1  0  0  0
 79 88  1  0  0  0
 80 88  1  0  0  0
 80159  1  0  0  0
 80160  1  0  0  0
 80161  1  0  0  0
 81 88  1  0  0  0
 81162  1  0  0  0
 81163  1  0  0  0
 81164  1  0  0  0
 82 84  1  0  0  0
 82165  1  0  0  0
 82166  1  0  0  0
 83167  1  0  0  0
 83168  1  0  0  0
 84 85  1  0  0  0
 84169  1  0  0  0
 84170  1  0  0  0
 85 86  1  0  0  0
 85171  1  0  0  0
 85172  1  0  0  0
 86 87  1  0  0  0
 86173  1  0  0  0
 86174  1  0  0  0
 87 91  1  0  0  0
 87175  1  0  0  0
 87176  1  0  0  0
 89177  1  0  0  0
 90178  1  0  0  0
 91179  1  0  0  0
M  ISO  4   1 100  68 101  83 101  91 100
M  END
> <chiral flag>
0

> <version>
0

> <s_m_source_file>
/data/baiqing/PycharmProjects/Reinvent-master-3.2/result/LINK_invent/BTK/process_docking_weight1_custom_sum_contain_oxygen_bond_distance_aromatic_linkinvent_7_9_3/rearranged_h_0009.sdf

> <i_m_source_file_index>
61

> <r_mmod_Potential_Energy-OPLS-2005>
-39.7660179138184

> <r_mmod_Stretch_Energy-OPLS-2005>
35.5781517028809

> <r_mmod_Bend_Energy-OPLS-2005>
120.472595214844

> <r_mmod_Torsional_Energy-OPLS-2005>
286.175354003906

> <r_mmod_Improper_Torsional_Energy-OPLS-2005>
7.18005418777466

> <r_mmod_Van_der_Waal_Energy-OPLS-2005>
196.395904541016

> <r_mmod_Electrostatic_Energy-OPLS-2005>
-458.737762451172

> <r_mmod_Solvation_Energy-OPLS-2005>
-248.463806152344

> <b_mmod_Minimization_Converged-OPLS-2005>
0

> <r_mmod_RMS_Derivative-OPLS-2005>
12.3188238143921

$$$$
62
                    3D
 Structure written by MMmdl.
179187  0  0  1  0            999 V2000
  -30.7354  -14.4214   20.6115 C   0  0  0  0  0  0
  -30.4220  -12.2889   19.4163 C   0  0  0  0  0  0
  -29.4936  -12.4947   18.2026 C   0  0  0  0  0  0
  -28.0221  -12.3353   18.6232 C   0  0  0  0  0  0
  -27.6700  -13.1931   19.8743 C   0  0  2  0  0  0
  -28.7042  -12.9555   20.9955 C   0  0  0  0  0  0
  -25.2627  -13.8154   20.5559 C   0  0  0  0  0  0
  -24.1879  -13.0422   20.9092 C   0  0  0  0  0  0
  -24.6424  -11.6884   20.8705 C   0  0  0  0  0  0
  -23.9050  -10.4278   21.0384 C   0  0  0  0  0  0
  -24.3583   -9.4177   21.9139 C   0  0  0  0  0  0
  -23.6215   -8.2267   22.0785 C   0  0  0  0  0  0
  -22.4187   -8.0317   21.3620 C   0  0  0  0  0  0
  -21.9839   -9.0284   20.4694 C   0  0  0  0  0  0
  -22.7212  -10.2126   20.3039 C   0  0  0  0  0  0
  -21.6834   -6.0749   22.5303 C   0  0  0  0  0  0
  -21.4018   -6.5647   23.8243 C   0  0  0  0  0  0
  -21.3637   -5.6777   24.9188 C   0  0  0  0  0  0
  -21.5992   -4.3040   24.7219 C   0  0  0  0  0  0
  -21.8795   -3.8169   23.4347 C   0  0  0  0  0  0
  -21.9179   -4.6986   22.3409 C   0  0  0  0  0  0
  -22.7922  -13.5243   21.1807 C   0  0  0  0  0  0
  -22.1653   -4.2181   21.0972 F   0  0  0  0  0  0
  -21.5577   -3.4515   25.7735 F   0  0  0  0  0  0
  -30.0402  -13.2618   20.4490 N   0  0  0  0  0  0
  -26.3075  -12.9323   20.3310 N   0  0  0  0  0  0
  -25.9318  -11.6491   20.5700 N   0  0  0  0  0  0
  -22.0590  -12.8246   22.0371 N   0  0  0  0  0  0
  -25.4254  -15.1878   20.3964 N   0  0  0  0  0  0
  -31.8343  -14.6155   20.0856 O   0  0  0  0  0  0
  -21.6595   -6.8904   21.4278 O   0  0  0  0  0  0
  -22.3622  -14.5568   20.6692 O   0  0  0  0  0  0
  -24.6121  -31.8784   23.2182 C   0  0  0  0  0  0
  -25.9094  -32.4848   23.8417 C   0  0  1  0  0  0
  -27.1994  -27.4521   20.0721 C   0  0  0  0  0  0
  -25.5991  -33.8638   24.2367 N   0  0  0  0  0  0
  -23.3886  -30.5114   21.5650 C   0  0  2  0  0  0
  -24.8229  -28.9849   20.1218 C   0  0  0  0  0  0
  -22.7331  -29.4751   22.5078 C   0  0  0  0  0  0
  -18.0261  -28.1382   22.8547 C   0  0  0  0  0  0
  -24.1465  -36.7240   23.2617 C   0  0  0  0  0  0
  -25.9211  -30.8450   21.3745 C   0  0  0  0  0  0
  -25.9899  -29.4867   20.7105 C   0  0  0  0  0  0
  -27.1845  -28.7277   20.6785 C   0  0  0  0  0  0
  -26.0052  -26.9728   19.4783 C   0  0  0  0  0  0
  -24.8226  -27.7273   19.5074 C   0  0  0  0  0  0
  -23.5916  -29.8614   20.1726 C   0  0  0  0  0  0
  -25.4098  -36.3076   24.0319 C   0  0  1  0  0  0
  -20.5829  -28.3662   23.1369 C   0  0  2  0  0  0
  -20.6758  -26.9429   22.5426 C   0  0  0  0  0  0
  -19.5755  -26.6411   21.5227 C   0  0  0  0  0  0
  -18.1918  -26.7920   22.1642 C   0  0  0  0  0  0
  -19.1493  -28.8839   23.2939 C   0  0  0  0  0  0
  -18.9452  -30.1446   23.8979 C   0  0  0  0  0  0
  -17.6464  -30.6618   24.0568 C   0  0  0  0  0  0
  -25.9058  -34.9483   23.5098 C   0  0  0  0  0  0
  -16.5355  -29.9138   23.6335 C   0  0  0  0  0  0
  -16.7244  -28.6504   23.0423 C   0  0  0  0  0  0
  -26.4513  -31.6595   25.0729 C   0  0  0  0  0  0
  -25.3745  -31.3810   26.1457 C   0  0  0  0  0  0
  -27.0321  -30.2981   24.6182 C   0  0  0  0  0  0
  -27.6076  -32.4301   25.7524 C   0  0  0  0  0  0
  -27.5572  -37.1780   24.8475 C   0  0  0  0  0  0
  -21.4090  -29.3015   22.3746 N   0  0  0  0  0  0
  -26.4294  -37.3760   23.9394 N   0  0  0  0  0  0
  -24.6573  -31.0894   22.1123 N   0  0  0  0  0  0
  -23.4086  -28.8305   23.3140 O   0  0  0  0  0  0
  -28.3634  -26.7107   20.0872 O   0  0  0  0  0  0
  -26.5554  -34.8931   22.4644 O   0  0  0  0  0  0
  -23.5337  -32.1658   23.7602 O   0  0  0  0  0  0
  -32.2075  -18.3095   22.3895 C   0  0  0  0  0  0
  -31.8678  -17.0244   21.9219 C   0  0  0  0  0  0
  -29.8906  -18.9982   22.1583 C   0  0  0  0  0  0
  -31.2074  -19.2932   22.5661 C   0  0  0  0  0  0
  -30.5240  -16.6975   21.6122 C   0  0  0  0  0  0
  -29.5468  -17.7106   21.7023 C   0  0  0  0  0  0
  -25.1817  -23.8731   23.3693 C   0  0  0  0  0  0
  -32.2891  -20.7528   24.2279 C   0  0  0  0  0  0
  -25.1901  -24.0368   24.8934 C   0  0  0  0  0  0
  -31.7349  -21.4260   25.4987 C   0  0  0  0  0  0
  -30.3929  -20.8006   25.9629 C   0  0  0  0  0  0
  -29.1845  -21.4686   25.3133 C   0  0  0  0  0  0
  -27.9815  -20.5424   25.0278 C   0  0  0  0  0  0
  -26.7878  -21.3067   24.4016 C   0  0  0  0  0  0
  -27.6844  -24.7719   21.4378 C   0  0  0  0  0  0
  -27.2213  -22.3947   23.3836 C   0  0  0  0  0  0
  -26.6121  -23.6467   21.3761 C   0  0  0  0  0  0
  -28.2246  -25.2855   20.0781 C   0  0  0  0  0  0
  -31.4332  -20.5397   23.2164 N   0  0  0  0  0  0
  -30.0932  -15.3757   21.3028 N   0  0  0  0  0  0
  -26.1996  -23.2330   22.7365 N   0  0  0  0  0  0
  -24.2624  -24.4262   22.7548 O   0  0  0  0  0  0
  -33.4893  -20.4843   24.1593 O   0  0  0  0  0  0
  -28.2540  -17.4325   21.3953 F   0  0  0  0  0  0
  -31.4666  -12.3894   19.1145 H   0  0  0  0  0  0
  -30.3197  -11.2748   19.8075 H   0  0  0  0  0  0
  -29.7297  -11.7756   17.4161 H   0  0  0  0  0  0
  -29.6486  -13.4848   17.7719 H   0  0  0  0  0  0
  -27.8690  -11.2745   18.8367 H   0  0  0  0  0  0
  -27.3650  -12.5781   17.7825 H   0  0  0  0  0  0
  -27.7308  -14.2402   19.5798 H   0  0  0  0  0  0
  -28.6737  -11.9094   21.3138 H   0  0  0  0  0  0
  -28.4542  -13.5380   21.8823 H   0  0  0  0  0  0
  -25.2782   -9.5629   22.4628 H   0  0  0  0  0  0
  -23.9973   -7.4720   22.7515 H   0  0  0  0  0  0
  -21.0805   -8.8827   19.9000 H   0  0  0  0  0  0
  -22.3730  -10.9598   19.6080 H   0  0  0  0  0  0
  -21.2041   -7.6153   23.9787 H   0  0  0  0  0  0
  -21.1425   -6.0475   25.9095 H   0  0  0  0  0  0
  -22.0553   -2.7623   23.2838 H   0  0  0  0  0  0
  -22.4252  -11.9845   22.4554 H   0  0  0  0  0  0
  -21.1253  -13.1293   22.2777 H   0  0  0  0  0  0
  -24.6489  -15.8315   20.5078 H   0  0  0  0  0  0
  -26.2833  -15.6457   20.1155 H   0  0  0  0  0  0
  -26.7113  -32.5556   23.1115 H   0  0  0  0  0  0
  -25.0182  -33.9790   25.0539 H   0  0  0  0  0  0
  -22.6782  -31.3290   21.4388 H   0  0  0  0  0  0
  -23.3759  -35.9540   23.3316 H   0  0  0  0  0  0
  -24.3564  -36.8838   22.2018 H   0  0  0  0  0  0
  -23.7187  -37.6447   23.6623 H   0  0  0  0  0  0
  -26.0498  -31.6422   20.6398 H   0  0  0  0  0  0
  -26.7940  -30.8703   22.0136 H   0  0  0  0  0  0
  -28.0838  -29.1222   21.1278 H   0  0  0  0  0  0
  -25.9427  -26.0264   18.9707 H   0  0  0  0  0  0
  -23.9220  -27.3369   19.0518 H   0  0  0  0  0  0
  -23.7087  -30.6505   19.4269 H   0  0  0  0  0  0
  -22.7102  -29.2931   19.8655 H   0  0  0  0  0  0
  -25.1274  -36.1929   25.0808 H   0  0  0  0  0  0
  -20.9947  -28.3262   24.1490 H   0  0  0  0  0  0
  -20.5697  -26.2310   23.3600 H   0  0  0  0  0  0
  -21.6643  -26.7534   22.1240 H   0  0  0  0  0  0
  -19.6932  -25.6327   21.1276 H   0  0  0  0  0  0
  -19.6667  -27.3215   20.6735 H   0  0  0  0  0  0
  -17.4191  -26.6731   21.4015 H   0  0  0  0  0  0
  -18.0334  -26.0008   22.8984 H   0  0  0  0  0  0
  -19.7926  -30.7211   24.2414 H   0  0  0  0  0  0
  -17.5029  -31.6314   24.5126 H   0  0  0  0  0  0
  -15.5367  -30.3064   23.7588 H   0  0  0  0  0  0
  -15.8637  -28.0780   22.7225 H   0  0  0  0  0  0
  -24.5909  -30.7162   25.7802 H   0  0  0  0  0  0
  -24.8971  -32.3016   26.4798 H   0  0  0  0  0  0
  -25.8051  -30.9054   27.0261 H   0  0  0  0  0  0
  -26.2962  -29.6789   24.1050 H   0  0  0  0  0  0
  -27.3784  -29.7172   25.4739 H   0  0  0  0  0  0
  -27.8879  -30.4168   23.9550 H   0  0  0  0  0  0
  -27.2700  -33.3592   26.2097 H   0  0  0  0  0  0
  -28.3904  -32.6894   25.0397 H   0  0  0  0  0  0
  -28.0663  -31.8421   26.5465 H   0  0  0  0  0  0
  -28.2604  -38.0062   24.7520 H   0  0  0  0  0  0
  -28.1067  -36.2615   24.6317 H   0  0  0  0  0  0
  -27.2297  -37.1439   25.8885 H   0  0  0  0  0  0
  -20.9270  -29.8671   21.6911 H   0  0  0  0  0  0
  -26.0177  -38.2829   24.1458 H   0  0  0  0  0  0
  -33.2338  -18.5065   22.6682 H   0  0  0  0  0  0
  -32.6439  -16.2795   21.8518 H   0  0  0  0  0  0
  -29.1035  -19.7307   22.2545 H   0  0  0  0  0  0
  -24.7225  -24.9824   25.1658 H   0  0  0  0  0  0
  -26.1997  -24.0615   25.3028 H   0  0  0  0  0  0
  -24.6190  -23.2348   25.3690 H   0  0  0  0  0  0
  -31.6689  -22.5114   25.3730 H   0  0  0  0  0  0
  -32.4622  -21.2764   26.2965 H   0  0  0  0  0  0
  -30.2818  -20.8736   27.0471 H   0  0  0  0  0  0
  -30.4010  -19.7350   25.7264 H   0  0  0  0  0  0
  -29.5281  -21.8981   24.3750 H   0  0  0  0  0  0
  -28.8649  -22.3032   25.9352 H   0  0  0  0  0  0
  -27.6735  -20.0408   25.9457 H   0  0  0  0  0  0
  -28.2840  -19.7367   24.3645 H   0  0  0  0  0  0
  -26.2645  -21.7545   25.2335 H   0  0  0  0  0  0
  -26.0840  -20.6055   23.9448 H   0  0  0  0  0  0
  -28.5490  -24.3972   21.9881 H   0  0  0  0  0  0
  -27.3019  -25.5997   22.0369 H   0  0  0  0  0  0
  -27.8165  -21.8773   22.6260 H   0  0  0  0  0  0
  -27.8673  -23.1254   23.8671 H   0  0  0  0  0  0
  -27.0128  -22.7888   20.8342 H   0  0  0  0  0  0
  -25.7479  -23.9707   20.7928 H   0  0  0  0  0  0
  -27.6455  -24.9196   19.2276 H   0  0  0  0  0  0
  -29.2202  -24.8757   19.9061 H   0  0  0  0  0  0
  -30.6052  -21.1120   23.2745 H   0  0  0  0  0  0
  -29.1381  -15.1588   21.5451 H   0  0  0  0  0  0
  1 25  1  0  0  0
  1 30  2  0  0  0
  1 90  1  0  0  0
  2  3  1  0  0  0
  2 25  1  0  0  0
  2 95  1  0  0  0
  2 96  1  0  0  0
  3  4  1  0  0  0
  3 97  1  0  0  0
  3 98  1  0  0  0
  4  5  1  0  0  0
  4 99  1  0  0  0
  4100  1  0  0  0
  5  6  1  0  0  0
  5 26  1  0  0  0
  5101  1  0  0  0
  6 25  1  0  0  0
  6102  1  0  0  0
  6103  1  0  0  0
  7  8  2  0  0  0
  7 26  1  0  0  0
  7 29  1  0  0  0
  8  9  1  0  0  0
  8 22  1  0  0  0
  9 10  1  0  0  0
  9 27  2  0  0  0
 10 11  2  0  0  0
 10 15  1  0  0  0
 11 12  1  0  0  0
 11104  1  0  0  0
 12 13  2  0  0  0
 12105  1  0  0  0
 13 14  1  0  0  0
 13 31  1  0  0  0
 14 15  2  0  0  0
 14106  1  0  0  0
 15107  1  0  0  0
 16 17  2  0  0  0
 16 21  1  0  0  0
 16 31  1  0  0  0
 17 18  1  0  0  0
 17108  1  0  0  0
 18 19  2  0  0  0
 18109  1  0  0  0
 19 20  1  0  0  0
 19 24  1  0  0  0
 20 21  2  0  0  0
 20110  1  0  0  0
 21 23  1  0  0  0
 22 28  1  0  0  0
 22 32  2  0  0  0
 26 27  1  0  0  0
 28111  1  0  0  0
 28112  1  0  0  0
 29113  1  0  0  0
 29114  1  0  0  0
 33 34  1  0  0  0
 33 66  1  0  0  0
 33 70  2  0  0  0
 34 36  1  0  0  0
 34 59  1  0  0  0
 34115  1  0  0  0
 35 44  2  0  0  0
 35 45  1  0  0  0
 35 68  1  0  0  0
 36 56  1  0  0  0
 36116  1  0  0  0
 37 39  1  0  0  0
 37 47  1  0  0  0
 37 66  1  0  0  0
 37117  1  0  0  0
 38 43  2  0  0  0
 38 46  1  0  0  0
 38 47  1  0  0  0
 39 64  1  0  0  0
 39 67  2  0  0  0
 40 52  1  0  0  0
 40 53  2  0  0  0
 40 58  1  0  0  0
 41118  1  0  0  0
 41119  1  0  0  0
 41120  1  0  0  0
 41 48  1  0  0  0
 42 43  1  0  0  0
 42 66  1  0  0  0
 42121  1  0  0  0
 42122  1  0  0  0
 43 44  1  0  0  0
 44123  1  0  0  0
 45 46  2  0  0  0
 45124  1  0  0  0
 46125  1  0  0  0
 47126  1  0  0  0
 47127  1  0  0  0
 48 56  1  0  0  0
 48 65  1  0  0  0
 48128  1  0  0  0
 49 50  1  0  0  0
 49 53  1  0  0  0
 49 64  1  0  0  0
 49129  1  0  0  0
 50 51  1  0  0  0
 50130  1  0  0  0
 50131  1  0  0  0
 51 52  1  0  0  0
 51132  1  0  0  0
 51133  1  0  0  0
 52134  1  0  0  0
 52135  1  0  0  0
 53 54  1  0  0  0
 54 55  2  0  0  0
 54136  1  0  0  0
 55 57  1  0  0  0
 55137  1  0  0  0
 56 69  2  0  0  0
 57 58  2  0  0  0
 57138  1  0  0  0
 58139  1  0  0  0
 59 60  1  0  0  0
 59 61  1  0  0  0
 59 62  1  0  0  0
 60140  1  0  0  0
 60141  1  0  0  0
 60142  1  0  0  0
 61143  1  0  0  0
 61144  1  0  0  0
 61145  1  0  0  0
 62146  1  0  0  0
 62147  1  0  0  0
 62148  1  0  0  0
 63 65  1  0  0  0
 63149  1  0  0  0
 63150  1  0  0  0
 63151  1  0  0  0
 64152  1  0  0  0
 65153  1  0  0  0
 68 88  1  0  0  0
 71 72  2  0  0  0
 71 74  1  0  0  0
 71154  1  0  0  0
 72 75  1  0  0  0
 72155  1  0  0  0
 73 74  2  0  0  0
 73 76  1  0  0  0
 73156  1  0  0  0
 74 89  1  0  0  0
 75 76  2  0  0  0
 75 90  1  0  0  0
 76 94  1  0  0  0
 77 79  1  0  0  0
 77 91  1  0  0  0
 77 92  2  0  0  0
 78 80  1  0  0  0
 78 89  1  0  0  0
 78 93  2  0  0  0
 79157  1  0  0  0
 79158  1  0  0  0
 79159  1  0  0  0
 80 81  1  0  0  0
 80160  1  0  0  0
 80161  1  0  0  0
 81 82  1  0  0  0
 81162  1  0  0  0
 81163  1  0  0  0
 82 83  1  0  0  0
 82164  1  0  0  0
 82165  1  0  0  0
 83 84  1  0  0  0
 83166  1  0  0  0
 83167  1  0  0  0
 84 86  1  0  0  0
 84168  1  0  0  0
 84169  1  0  0  0
 85 87  1  0  0  0
 85 88  1  0  0  0
 85170  1  0  0  0
 85171  1  0  0  0
 86 91  1  0  0  0
 86172  1  0  0  0
 86173  1  0  0  0
 87 91  1  0  0  0
 87174  1  0  0  0
 87175  1  0  0  0
 88176  1  0  0  0
 88177  1  0  0  0
 89178  1  0  0  0
 90179  1  0  0  0
M  ISO  4   1 100  68 101  88 101  90 100
M  END
> <chiral flag>
0

> <version>
0

> <s_m_source_file>
/data/baiqing/PycharmProjects/Reinvent-master-3.2/result/LINK_invent/BTK/process_docking_weight1_custom_sum_contain_oxygen_bond_distance_aromatic_linkinvent_7_9_3/rearranged_h_0009.sdf

> <i_m_source_file_index>
62

> <r_mmod_Potential_Energy-OPLS-2005>
-19.1395969390869

> <r_mmod_Stretch_Energy-OPLS-2005>
40.7334136962891

> <r_mmod_Bend_Energy-OPLS-2005>
123.534019470215

> <r_mmod_Torsional_Energy-OPLS-2005>
317.091705322266

> <r_mmod_Improper_Torsional_Energy-OPLS-2005>
7.42419672012329

> <r_mmod_Van_der_Waal_Energy-OPLS-2005>
175.864776611328

> <r_mmod_Electrostatic_Energy-OPLS-2005>
-447.378692626953

> <r_mmod_Solvation_Energy-OPLS-2005>
-248.90510559082

> <b_mmod_Minimization_Converged-OPLS-2005>
0

> <r_mmod_RMS_Derivative-OPLS-2005>
8.65995407104492

$$$$
63
                    3D
 Structure written by MMmdl.
152160  0  0  1  0            999 V2000
  -30.5254  -14.9178   20.4311 C   0  0  0  0  0  0
  -30.4525  -12.5627   19.4979 C   0  0  0  0  0  0
  -29.5263  -12.5329   18.2579 C   0  0  0  0  0  0
  -28.0573  -12.3219   18.6736 C   0  0  0  0  0  0
  -27.6395  -13.2424   19.8500 C   0  0  2  0  0  0
  -28.6837  -13.2294   20.9881 C   0  0  0  0  0  0
  -25.2490  -13.8207   20.5704 C   0  0  0  0  0  0
  -24.1790  -13.0437   20.9194 C   0  0  0  0  0  0
  -24.6404  -11.6922   20.8742 C   0  0  0  0  0  0
  -23.9085  -10.4290   21.0405 C   0  0  0  0  0  0
  -24.3628   -9.4205   21.9188 C   0  0  0  0  0  0
  -23.6294   -8.2244   22.0759 C   0  0  0  0  0  0
  -22.4278   -8.0286   21.3548 C   0  0  0  0  0  0
  -21.9919   -9.0263   20.4652 C   0  0  0  0  0  0
  -22.7254  -10.2137   20.3059 C   0  0  0  0  0  0
  -21.6855   -6.0738   22.5281 C   0  0  0  0  0  0
  -21.4018   -6.5643   23.8213 C   0  0  0  0  0  0
  -21.3658   -5.6793   24.9175 C   0  0  0  0  0  0
  -21.6042   -4.3054   24.7223 C   0  0  0  0  0  0
  -21.8816   -3.8147   23.4343 C   0  0  0  0  0  0
  -21.9191   -4.6967   22.3404 C   0  0  0  0  0  0
  -22.7810  -13.5215   21.1857 C   0  0  0  0  0  0
  -22.1656   -4.2153   21.0982 F   0  0  0  0  0  0
  -21.5626   -3.4538   25.7738 F   0  0  0  0  0  0
  -29.9707  -13.6408   20.4051 N   0  0  0  0  0  0
  -26.2937  -12.9433   20.3297 N   0  0  0  0  0  0
  -25.9347  -11.6564   20.5760 N   0  0  0  0  0  0
  -22.0461  -12.8215   22.0421 N   0  0  0  0  0  0
  -25.4135  -15.1936   20.4153 N   0  0  0  0  0  0
  -31.7072  -15.0465   20.0926 O   0  0  0  0  0  0
  -21.6639   -6.8886   21.4249 O   0  0  0  0  0  0
  -22.3491  -14.5520   20.6707 O   0  0  0  0  0  0
  -24.6443  -31.8445   23.1897 C   0  0  0  0  0  0
  -25.9217  -32.4696   23.8282 C   0  0  1  0  0  0
  -27.2198  -27.1377   20.1458 C   0  0  0  0  0  0
  -25.5972  -33.8507   24.2199 N   0  0  0  0  0  0
  -23.4482  -30.4654   21.5345 C   0  0  2  0  0  0
  -24.8983  -28.8956   20.1093 C   0  0  0  0  0  0
  -22.7573  -29.4551   22.4847 C   0  0  0  0  0  0
  -18.0304  -28.1395   22.8463 C   0  0  0  0  0  0
  -24.1492  -36.7248   23.2642 C   0  0  0  0  0  0
  -26.0061  -30.7173   21.3911 C   0  0  0  0  0  0
  -26.0771  -29.3311   20.7283 C   0  0  0  0  0  0
  -27.2381  -28.4685   20.7293 C   0  0  0  0  0  0
  -26.0117  -26.8074   19.4886 C   0  0  0  0  0  0
  -24.8788  -27.6463   19.4747 C   0  0  0  0  0  0
  -23.6768  -29.7994   20.1524 C   0  0  0  0  0  0
  -25.4126  -36.3032   24.0322 C   0  0  1  0  0  0
  -20.5917  -28.3728   23.1220 C   0  0  2  0  0  0
  -20.6791  -26.9428   22.5395 C   0  0  0  0  0  0
  -19.5769  -26.6376   21.5201 C   0  0  0  0  0  0
  -18.1946  -26.7932   22.1608 C   0  0  0  0  0  0
  -19.1561  -28.8878   23.2836 C   0  0  0  0  0  0
  -18.9484  -30.1465   23.8876 C   0  0  0  0  0  0
  -17.6487  -30.6593   24.0551 C   0  0  0  0  0  0
  -25.9074  -34.9410   23.5063 C   0  0  0  0  0  0
  -16.5378  -29.9087   23.6337 C   0  0  0  0  0  0
  -16.7290  -28.6505   23.0358 C   0  0  0  0  0  0
  -26.4545  -31.6570   25.0726 C   0  0  0  0  0  0
  -25.3727  -31.3764   26.1421 C   0  0  0  0  0  0
  -27.0422  -30.2968   24.6313 C   0  0  0  0  0  0
  -27.6064  -32.4354   25.7512 C   0  0  0  0  0  0
  -27.5571  -37.1774   24.8466 C   0  0  0  0  0  0
  -21.4264  -29.3060   22.3601 N   0  0  0  0  0  0
  -26.4279  -37.3749   23.9420 N   0  0  0  0  0  0
  -24.7190  -31.0297   22.0930 N   0  0  0  0  0  0
  -23.4213  -28.8076   23.2982 O   0  0  0  0  0  0
  -28.2648  -26.1414   20.2192 O   0  0  0  0  0  0
  -26.5648  -34.8908   22.4631 O   0  0  0  0  0  0
  -23.5558  -32.1325   23.7109 O   0  0  0  0  0  0
  -28.1887  -19.6128   21.0437 C   0  0  0  0  0  0
  -30.4792  -18.5009   19.9626 C   0  0  0  0  0  0
  -29.0301  -20.5805   20.4049 C   0  0  0  0  0  0
  -29.6050  -17.5429   20.5922 C   0  0  0  0  0  0
  -28.4557  -18.1861   21.1557 C   0  0  0  0  0  0
  -30.2113  -19.9407   19.8691 C   0  0  0  0  0  0
  -28.9451  -23.3624   20.3234 C   0  0  0  0  0  0
  -26.6286  -17.8763   22.6900 C   0  0  0  0  0  0
  -27.9200  -24.6337   20.0276 C   0  0  0  0  0  0
  -28.5078  -22.0167   20.2152 N   0  0  0  0  0  0
  -29.6759  -16.0138   20.7047 N   0  0  0  0  0  0
  -30.1076  -23.6149   20.6488 O   0  0  0  0  0  0
  -27.5942  -17.3251   21.8041 O   0  0  0  0  0  0
  -31.3491  -20.9025   18.9964 Cl  0  0  0  0  0  0
  -31.4862  -12.7272   19.1886 H   0  0  0  0  0  0
  -30.4458  -11.5992   20.0107 H   0  0  0  0  0  0
  -29.8381  -11.7449   17.5714 H   0  0  0  0  0  0
  -29.6197  -13.4717   17.7098 H   0  0  0  0  0  0
  -27.9474  -11.2778   18.9692 H   0  0  0  0  0  0
  -27.3949  -12.4683   17.8198 H   0  0  0  0  0  0
  -27.6148  -14.2527   19.4410 H   0  0  0  0  0  0
  -28.7575  -12.2380   21.4374 H   0  0  0  0  0  0
  -28.3868  -13.9067   21.7906 H   0  0  0  0  0  0
  -25.2774   -9.5678   22.4765 H   0  0  0  0  0  0
  -23.9999   -7.4639   22.7485 H   0  0  0  0  0  0
  -21.0846   -8.8790   19.8962 H   0  0  0  0  0  0
  -22.3717  -10.9679   19.6170 H   0  0  0  0  0  0
  -21.2013   -7.6150   23.9723 H   0  0  0  0  0  0
  -21.1480   -6.0520   25.9080 H   0  0  0  0  0  0
  -22.0593   -2.7610   23.2845 H   0  0  0  0  0  0
  -22.4072  -11.9879   22.4816 H   0  0  0  0  0  0
  -21.1088  -13.1258   22.2638 H   0  0  0  0  0  0
  -24.6427  -15.8413   20.5319 H   0  0  0  0  0  0
  -26.2751  -15.6530   20.1507 H   0  0  0  0  0  0
  -26.7278  -32.5298   23.1006 H   0  0  0  0  0  0
  -25.0151  -33.9628   25.0370 H   0  0  0  0  0  0
  -22.7514  -31.2925   21.3808 H   0  0  0  0  0  0
  -23.3769  -35.9558   23.3283 H   0  0  0  0  0  0
  -24.3575  -36.8894   22.2059 H   0  0  0  0  0  0
  -23.7223  -37.6432   23.6693 H   0  0  0  0  0  0
  -26.1661  -31.4738   20.6226 H   0  0  0  0  0  0
  -26.8752  -30.7620   22.0358 H   0  0  0  0  0  0
  -28.1339  -28.7956   21.2369 H   0  0  0  0  0  0
  -25.8969  -25.8552   18.9954 H   0  0  0  0  0  0
  -23.9789  -27.3063   18.9806 H   0  0  0  0  0  0
  -23.8204  -30.5788   19.4028 H   0  0  0  0  0  0
  -22.7908  -29.2487   19.8323 H   0  0  0  0  0  0
  -25.1302  -36.1857   25.0816 H   0  0  0  0  0  0
  -21.0004  -28.3313   24.1346 H   0  0  0  0  0  0
  -20.5676  -26.2343   23.3617 H   0  0  0  0  0  0
  -21.6653  -26.7425   22.1197 H   0  0  0  0  0  0
  -19.6935  -25.6277   21.1259 H   0  0  0  0  0  0
  -19.6711  -27.3158   20.6711 H   0  0  0  0  0  0
  -17.4213  -26.6674   21.4015 H   0  0  0  0  0  0
  -18.0343  -26.0081   22.9011 H   0  0  0  0  0  0
  -19.7967  -30.7271   24.2245 H   0  0  0  0  0  0
  -17.5051  -31.6275   24.5147 H   0  0  0  0  0  0
  -15.5378  -30.2989   23.7682 H   0  0  0  0  0  0
  -15.8684  -28.0814   22.7110 H   0  0  0  0  0  0
  -24.5906  -30.7120   25.7738 H   0  0  0  0  0  0
  -24.8931  -32.2953   26.4803 H   0  0  0  0  0  0
  -25.8006  -30.8961   27.0227 H   0  0  0  0  0  0
  -26.3048  -29.6683   24.1311 H   0  0  0  0  0  0
  -27.4033  -29.7280   25.4890 H   0  0  0  0  0  0
  -27.8954  -30.4221   23.9644 H   0  0  0  0  0  0
  -27.2648  -33.3681   26.2022 H   0  0  0  0  0  0
  -28.3909  -32.6875   25.0363 H   0  0  0  0  0  0
  -28.0703  -31.8534   26.5486 H   0  0  0  0  0  0
  -28.2567  -38.0091   24.7524 H   0  0  0  0  0  0
  -28.1093  -36.2618   24.6279 H   0  0  0  0  0  0
  -27.2295  -37.1396   25.8869 H   0  0  0  0  0  0
  -20.9479  -29.8811   21.6809 H   0  0  0  0  0  0
  -26.0147  -38.2810   24.1446 H   0  0  0  0  0  0
  -27.2660  -19.9987   21.4482 H   0  0  0  0  0  0
  -31.3800  -18.1279   19.4975 H   0  0  0  0  0  0
  -26.1815  -17.0739   23.2771 H   0  0  0  0  0  0
  -25.8249  -18.3712   22.1442 H   0  0  0  0  0  0
  -27.0779  -18.5819   23.3915 H   0  0  0  0  0  0
  -27.0320  -24.4338   20.6278 H   0  0  0  0  0  0
  -27.6171  -24.5040   18.9887 H   0  0  0  0  0  0
  -27.5164  -22.0183   20.0191 H   0  0  0  0  0  0
  -28.7964  -15.6592   21.0512 H   0  0  0  0  0  0
  1 25  1  0  0  0
  1 30  2  0  0  0
  1 81  1  0  0  0
  2  3  1  0  0  0
  2 25  1  0  0  0
  2 85  1  0  0  0
  2 86  1  0  0  0
  3  4  1  0  0  0
  3 87  1  0  0  0
  3 88  1  0  0  0
  4  5  1  0  0  0
  4 89  1  0  0  0
  4 90  1  0  0  0
  5  6  1  0  0  0
  5 26  1  0  0  0
  5 91  1  0  0  0
  6 25  1  0  0  0
  6 92  1  0  0  0
  6 93  1  0  0  0
  7  8  2  0  0  0
  7 26  1  0  0  0
  7 29  1  0  0  0
  8  9  1  0  0  0
  8 22  1  0  0  0
  9 10  1  0  0  0
  9 27  2  0  0  0
 10 11  2  0  0  0
 10 15  1  0  0  0
 11 12  1  0  0  0
 11 94  1  0  0  0
 12 13  2  0  0  0
 12 95  1  0  0  0
 13 14  1  0  0  0
 13 31  1  0  0  0
 14 15  2  0  0  0
 14 96  1  0  0  0
 15 97  1  0  0  0
 16 17  2  0  0  0
 16 21  1  0  0  0
 16 31  1  0  0  0
 17 18  1  0  0  0
 17 98  1  0  0  0
 18 19  2  0  0  0
 18 99  1  0  0  0
 19 20  1  0  0  0
 19 24  1  0  0  0
 20 21  2  0  0  0
 20100  1  0  0  0
 21 23  1  0  0  0
 22 28  1  0  0  0
 22 32  2  0  0  0
 26 27  1  0  0  0
 28101  1  0  0  0
 28102  1  0  0  0
 29103  1  0  0  0
 29104  1  0  0  0
 33 34  1  0  0  0
 33 66  1  0  0  0
 33 70  2  0  0  0
 34 36  1  0  0  0
 34 59  1  0  0  0
 34105  1  0  0  0
 35 44  2  0  0  0
 35 45  1  0  0  0
 35 68  1  0  0  0
 36 56  1  0  0  0
 36106  1  0  0  0
 37 39  1  0  0  0
 37 47  1  0  0  0
 37 66  1  0  0  0
 37107  1  0  0  0
 38 43  2  0  0  0
 38 46  1  0  0  0
 38 47  1  0  0  0
 39 64  1  0  0  0
 39 67  2  0  0  0
 40 52  1  0  0  0
 40 53  2  0  0  0
 40 58  1  0  0  0
 41108  1  0  0  0
 41109  1  0  0  0
 41110  1  0  0  0
 41 48  1  0  0  0
 42 43  1  0  0  0
 42 66  1  0  0  0
 42111  1  0  0  0
 42112  1  0  0  0
 43 44  1  0  0  0
 44113  1  0  0  0
 45 46  2  0  0  0
 45114  1  0  0  0
 46115  1  0  0  0
 47116  1  0  0  0
 47117  1  0  0  0
 48 56  1  0  0  0
 48 65  1  0  0  0
 48118  1  0  0  0
 49 50  1  0  0  0
 49 53  1  0  0  0
 49 64  1  0  0  0
 49119  1  0  0  0
 50 51  1  0  0  0
 50120  1  0  0  0
 50121  1  0  0  0
 51 52  1  0  0  0
 51122  1  0  0  0
 51123  1  0  0  0
 52124  1  0  0  0
 52125  1  0  0  0
 53 54  1  0  0  0
 54 55  2  0  0  0
 54126  1  0  0  0
 55 57  1  0  0  0
 55127  1  0  0  0
 56 69  2  0  0  0
 57 58  2  0  0  0
 57128  1  0  0  0
 58129  1  0  0  0
 59 60  1  0  0  0
 59 61  1  0  0  0
 59 62  1  0  0  0
 60130  1  0  0  0
 60131  1  0  0  0
 60132  1  0  0  0
 61133  1  0  0  0
 61134  1  0  0  0
 61135  1  0  0  0
 62136  1  0  0  0
 62137  1  0  0  0
 62138  1  0  0  0
 63 65  1  0  0  0
 63139  1  0  0  0
 63140  1  0  0  0
 63141  1  0  0  0
 64142  1  0  0  0
 65143  1  0  0  0
 68 79  1  0  0  0
 71 73  2  0  0  0
 71 75  1  0  0  0
 71144  1  0  0  0
 72 74  1  0  0  0
 72 76  2  0  0  0
 72145  1  0  0  0
 73 76  1  0  0  0
 73 80  1  0  0  0
 74 75  2  0  0  0
 74 81  1  0  0  0
 75 83  1  0  0  0
 76 84  1  0  0  0
 77 79  1  0  0  0
 77 80  1  0  0  0
 77 82  2  0  0  0
 78 83  1  0  0  0
 78146  1  0  0  0
 78147  1  0  0  0
 78148  1  0  0  0
 79149  1  0  0  0
 79150  1  0  0  0
 80151  1  0  0  0
 81152  1  0  0  0
M  ISO  4   1 100  68 101  79 101  81 100
M  END
> <chiral flag>
0

> <version>
0

> <s_m_source_file>
/data/baiqing/PycharmProjects/Reinvent-master-3.2/result/LINK_invent/BTK/process_docking_weight1_custom_sum_contain_oxygen_bond_distance_aromatic_linkinvent_7_9_3/rearranged_h_0009.sdf

> <i_m_source_file_index>
63

> <r_mmod_Potential_Energy-OPLS-2005>
388.152282714844

> <r_mmod_Stretch_Energy-OPLS-2005>
225.065658569336

> <r_mmod_Bend_Energy-OPLS-2005>
282.093322753906

> <r_mmod_Torsional_Energy-OPLS-2005>
236.30158996582

> <r_mmod_Improper_Torsional_Energy-OPLS-2005>
4.37084913253784

> <r_mmod_Van_der_Waal_Energy-OPLS-2005>
131.518798828125

> <r_mmod_Electrostatic_Energy-OPLS-2005>
-418.022033691406

> <r_mmod_Solvation_Energy-OPLS-2005>
-255.7333984375

> <b_mmod_Minimization_Converged-OPLS-2005>
0

> <r_mmod_RMS_Derivative-OPLS-2005>
1.3631317615509

$$$$
64
                    3D
 Structure written by MMmdl.
148156  0  0  1  0            999 V2000
  -30.5114  -14.9205   20.4353 C   0  0  0  0  0  0
  -30.4549  -12.5673   19.4922 C   0  0  0  0  0  0
  -29.5268  -12.5346   18.2535 C   0  0  0  0  0  0
  -28.0572  -12.3215   18.6680 C   0  0  0  0  0  0
  -27.6390  -13.2376   19.8470 C   0  0  2  0  0  0
  -28.6835  -13.2190   20.9848 C   0  0  0  0  0  0
  -25.2503  -13.8190   20.5691 C   0  0  0  0  0  0
  -24.1807  -13.0434   20.9226 C   0  0  0  0  0  0
  -24.6405  -11.6914   20.8755 C   0  0  0  0  0  0
  -23.9078  -10.4290   21.0412 C   0  0  0  0  0  0
  -24.3625   -9.4204   21.9188 C   0  0  0  0  0  0
  -23.6297   -8.2241   22.0756 C   0  0  0  0  0  0
  -22.4279   -8.0282   21.3545 C   0  0  0  0  0  0
  -21.9918   -9.0256   20.4646 C   0  0  0  0  0  0
  -22.7250  -10.2133   20.3058 C   0  0  0  0  0  0
  -21.6852   -6.0736   22.5280 C   0  0  0  0  0  0
  -21.4014   -6.5640   23.8213 C   0  0  0  0  0  0
  -21.3661   -5.6793   24.9175 C   0  0  0  0  0  0
  -21.6046   -4.3055   24.7225 C   0  0  0  0  0  0
  -21.8819   -3.8147   23.4346 C   0  0  0  0  0  0
  -21.9192   -4.6964   22.3403 C   0  0  0  0  0  0
  -22.7826  -13.5215   21.1878 C   0  0  0  0  0  0
  -22.1661   -4.2152   21.0980 F   0  0  0  0  0  0
  -21.5630   -3.4538   25.7737 F   0  0  0  0  0  0
  -29.9672  -13.6392   20.4024 N   0  0  0  0  0  0
  -26.2929  -12.9403   20.3256 N   0  0  0  0  0  0
  -25.9336  -11.6544   20.5741 N   0  0  0  0  0  0
  -22.0467  -12.8206   22.0429 N   0  0  0  0  0  0
  -25.4169  -15.1913   20.4062 N   0  0  0  0  0  0
  -31.6995  -15.0581   20.1214 O   0  0  0  0  0  0
  -21.6640   -6.8880   21.4242 O   0  0  0  0  0  0
  -22.3514  -14.5520   20.6719 O   0  0  0  0  0  0
  -24.6438  -31.8449   23.1897 C   0  0  0  0  0  0
  -25.9212  -32.4699   23.8283 C   0  0  1  0  0  0
  -27.2193  -27.1419   20.1447 C   0  0  0  0  0  0
  -25.5962  -33.8505   24.2199 N   0  0  0  0  0  0
  -23.4471  -30.4658   21.5355 C   0  0  2  0  0  0
  -24.8972  -28.8971   20.1103 C   0  0  0  0  0  0
  -22.7569  -29.4554   22.4861 C   0  0  0  0  0  0
  -18.0306  -28.1397   22.8477 C   0  0  0  0  0  0
  -24.1494  -36.7255   23.2641 C   0  0  0  0  0  0
  -26.0043  -30.7201   21.3890 C   0  0  0  0  0  0
  -26.0760  -29.3328   20.7288 C   0  0  0  0  0  0
  -27.2382  -28.4719   20.7298 C   0  0  0  0  0  0
  -26.0119  -26.8124   19.4852 C   0  0  0  0  0  0
  -24.8781  -27.6496   19.4735 C   0  0  0  0  0  0
  -23.6735  -29.7979   20.1543 C   0  0  0  0  0  0
  -25.4126  -36.3034   24.0315 C   0  0  1  0  0  0
  -20.5919  -28.3725   23.1233 C   0  0  2  0  0  0
  -20.6792  -26.9428   22.5402 C   0  0  0  0  0  0
  -19.5764  -26.6384   21.5212 C   0  0  0  0  0  0
  -18.1946  -26.7935   22.1624 C   0  0  0  0  0  0
  -19.1563  -28.8879   23.2847 C   0  0  0  0  0  0
  -18.9478  -30.1475   23.8873 C   0  0  0  0  0  0
  -17.6474  -30.6593   24.0560 C   0  0  0  0  0  0
  -25.9074  -34.9409   23.5064 C   0  0  0  0  0  0
  -16.5366  -29.9085   23.6337 C   0  0  0  0  0  0
  -16.7290  -28.6504   23.0357 C   0  0  0  0  0  0
  -26.4533  -31.6563   25.0721 C   0  0  0  0  0  0
  -25.3718  -31.3750   26.1415 C   0  0  0  0  0  0
  -27.0398  -30.2959   24.6302 C   0  0  0  0  0  0
  -27.6062  -32.4328   25.7508 C   0  0  0  0  0  0
  -27.5577  -37.1786   24.8466 C   0  0  0  0  0  0
  -21.4262  -29.3051   22.3605 N   0  0  0  0  0  0
  -26.4290  -37.3746   23.9406 N   0  0  0  0  0  0
  -24.7182  -31.0309   22.0931 N   0  0  0  0  0  0
  -23.4211  -28.8097   23.3008 O   0  0  0  0  0  0
  -28.2625  -26.1444   20.2158 O   0  0  0  0  0  0
  -26.5654  -34.8904   22.4638 O   0  0  0  0  0  0
  -23.5557  -32.1324   23.7117 O   0  0  0  0  0  0
  -27.9747  -19.5529   20.6422 C   0  0  0  0  0  0
  -30.2517  -19.9892   20.2292 C   0  0  0  0  0  0
  -28.2527  -18.1388   20.7224 C   0  0  0  0  0  0
  -30.5328  -18.5470   20.2971 C   0  0  0  0  0  0
  -28.9418  -20.5772   20.3930 C   0  0  0  0  0  0
  -29.5365  -17.5311   20.5470 C   0  0  0  0  0  0
  -28.9267  -23.3605   20.2937 C   0  0  0  0  0  0
  -27.9013  -24.6395   20.0445 C   0  0  0  0  0  0
  -28.4495  -22.0266   20.2703 N   0  0  0  0  0  0
  -29.6297  -16.0040   20.6635 N   0  0  0  0  0  0
  -30.1229  -23.5910   20.4895 O   0  0  0  0  0  0
  -31.4864  -12.7415   19.1813 H   0  0  0  0  0  0
  -30.4554  -11.6027   20.0023 H   0  0  0  0  0  0
  -29.8401  -11.7482   17.5656 H   0  0  0  0  0  0
  -29.6180  -13.4738   17.7054 H   0  0  0  0  0  0
  -27.9451  -11.2762   18.9579 H   0  0  0  0  0  0
  -27.3957  -12.4733   17.8143 H   0  0  0  0  0  0
  -27.6148  -14.2484   19.4398 H   0  0  0  0  0  0
  -28.7626  -12.2241   21.4257 H   0  0  0  0  0  0
  -28.3856  -13.8864   21.7950 H   0  0  0  0  0  0
  -25.2770   -9.5679   22.4764 H   0  0  0  0  0  0
  -24.0004   -7.4632   22.7476 H   0  0  0  0  0  0
  -21.0850   -8.8777   19.8951 H   0  0  0  0  0  0
  -22.3712  -10.9674   19.6168 H   0  0  0  0  0  0
  -21.2005   -7.6149   23.9718 H   0  0  0  0  0  0
  -21.1485   -6.0523   25.9079 H   0  0  0  0  0  0
  -22.0597   -2.7609   23.2845 H   0  0  0  0  0  0
  -22.4083  -11.9868   22.4820 H   0  0  0  0  0  0
  -21.1082  -13.1231   22.2628 H   0  0  0  0  0  0
  -24.6348  -15.8318   20.4896 H   0  0  0  0  0  0
  -26.2317  -15.6172   19.9853 H   0  0  0  0  0  0
  -26.7277  -32.5307   23.1011 H   0  0  0  0  0  0
  -25.0101  -33.9623   25.0342 H   0  0  0  0  0  0
  -22.7496  -31.2920   21.3822 H   0  0  0  0  0  0
  -23.3760  -35.9583   23.3294 H   0  0  0  0  0  0
  -24.3578  -36.8897   22.2058 H   0  0  0  0  0  0
  -23.7246  -37.6448   23.6682 H   0  0  0  0  0  0
  -26.1607  -31.4756   20.6179 H   0  0  0  0  0  0
  -26.8743  -30.7686   22.0321 H   0  0  0  0  0  0
  -28.1343  -28.8006   21.2370 H   0  0  0  0  0  0
  -25.8980  -25.8642   18.9841 H   0  0  0  0  0  0
  -23.9793  -27.3113   18.9762 H   0  0  0  0  0  0
  -23.8099  -30.5737   19.4000 H   0  0  0  0  0  0
  -22.7884  -29.2404   19.8425 H   0  0  0  0  0  0
  -25.1314  -36.1864   25.0807 H   0  0  0  0  0  0
  -21.0012  -28.3317   24.1353 H   0  0  0  0  0  0
  -20.5691  -26.2338   23.3621 H   0  0  0  0  0  0
  -21.6656  -26.7436   22.1197 H   0  0  0  0  0  0
  -19.6926  -25.6289   21.1256 H   0  0  0  0  0  0
  -19.6700  -27.3182   20.6732 H   0  0  0  0  0  0
  -17.4214  -26.6680   21.4028 H   0  0  0  0  0  0
  -18.0346  -26.0083   22.9026 H   0  0  0  0  0  0
  -19.7954  -30.7301   24.2231 H   0  0  0  0  0  0
  -17.5025  -31.6269   24.5167 H   0  0  0  0  0  0
  -15.5364  -30.2977   23.7675 H   0  0  0  0  0  0
  -15.8692  -28.0813   22.7085 H   0  0  0  0  0  0
  -24.5907  -30.7087   25.7737 H   0  0  0  0  0  0
  -24.8897  -32.2931   26.4783 H   0  0  0  0  0  0
  -25.8004  -30.8964   27.0230 H   0  0  0  0  0  0
  -26.3018  -29.6679   24.1299 H   0  0  0  0  0  0
  -27.4000  -29.7258   25.4876 H   0  0  0  0  0  0
  -27.8931  -30.4193   23.9629 H   0  0  0  0  0  0
  -27.2656  -33.3649   26.2029 H   0  0  0  0  0  0
  -28.3906  -32.6854   25.0361 H   0  0  0  0  0  0
  -28.0694  -31.8490   26.5473 H   0  0  0  0  0  0
  -28.2587  -38.0090   24.7509 H   0  0  0  0  0  0
  -28.1082  -36.2617   24.6299 H   0  0  0  0  0  0
  -27.2290  -37.1441   25.8868 H   0  0  0  0  0  0
  -20.9473  -29.8764   21.6784 H   0  0  0  0  0  0
  -26.0157  -38.2815   24.1407 H   0  0  0  0  0  0
  -26.9454  -19.8521   20.7809 H   0  0  0  0  0  0
  -31.0796  -20.6531   20.0229 H   0  0  0  0  0  0
  -27.4098  -17.4937   20.9252 H   0  0  0  0  0  0
  -31.5547  -18.2269   20.1490 H   0  0  0  0  0  0
  -27.0275  -24.4465   20.6678 H   0  0  0  0  0  0
  -27.5723  -24.5107   19.0136 H   0  0  0  0  0  0
  -27.4446  -22.0564   20.1609 H   0  0  0  0  0  0
  -28.7368  -15.6100   20.9166 H   0  0  0  0  0  0
  1 25  1  0  0  0
  1 30  2  0  0  0
  1 80  1  0  0  0
  2  3  1  0  0  0
  2 25  1  0  0  0
  2 82  1  0  0  0
  2 83  1  0  0  0
  3  4  1  0  0  0
  3 84  1  0  0  0
  3 85  1  0  0  0
  4  5  1  0  0  0
  4 86  1  0  0  0
  4 87  1  0  0  0
  5  6  1  0  0  0
  5 26  1  0  0  0
  5 88  1  0  0  0
  6 25  1  0  0  0
  6 89  1  0  0  0
  6 90  1  0  0  0
  7  8  2  0  0  0
  7 26  1  0  0  0
  7 29  1  0  0  0
  8  9  1  0  0  0
  8 22  1  0  0  0
  9 10  1  0  0  0
  9 27  2  0  0  0
 10 11  2  0  0  0
 10 15  1  0  0  0
 11 12  1  0  0  0
 11 91  1  0  0  0
 12 13  2  0  0  0
 12 92  1  0  0  0
 13 14  1  0  0  0
 13 31  1  0  0  0
 14 15  2  0  0  0
 14 93  1  0  0  0
 15 94  1  0  0  0
 16 17  2  0  0  0
 16 21  1  0  0  0
 16 31  1  0  0  0
 17 18  1  0  0  0
 17 95  1  0  0  0
 18 19  2  0  0  0
 18 96  1  0  0  0
 19 20  1  0  0  0
 19 24  1  0  0  0
 20 21  2  0  0  0
 20 97  1  0  0  0
 21 23  1  0  0  0
 22 28  1  0  0  0
 22 32  2  0  0  0
 26 27  1  0  0  0
 28 98  1  0  0  0
 28 99  1  0  0  0
 29100  1  0  0  0
 29101  1  0  0  0
 33 34  1  0  0  0
 33 66  1  0  0  0
 33 70  2  0  0  0
 34 36  1  0  0  0
 34 59  1  0  0  0
 34102  1  0  0  0
 35 44  2  0  0  0
 35 45  1  0  0  0
 35 68  1  0  0  0
 36 56  1  0  0  0
 36103  1  0  0  0
 37 39  1  0  0  0
 37 47  1  0  0  0
 37 66  1  0  0  0
 37104  1  0  0  0
 38 43  2  0  0  0
 38 46  1  0  0  0
 38 47  1  0  0  0
 39 64  1  0  0  0
 39 67  2  0  0  0
 40 52  1  0  0  0
 40 53  2  0  0  0
 40 58  1  0  0  0
 41105  1  0  0  0
 41106  1  0  0  0
 41107  1  0  0  0
 41 48  1  0  0  0
 42 43  1  0  0  0
 42 66  1  0  0  0
 42108  1  0  0  0
 42109  1  0  0  0
 43 44  1  0  0  0
 44110  1  0  0  0
 45 46  2  0  0  0
 45111  1  0  0  0
 46112  1  0  0  0
 47113  1  0  0  0
 47114  1  0  0  0
 48 56  1  0  0  0
 48 65  1  0  0  0
 48115  1  0  0  0
 49 50  1  0  0  0
 49 53  1  0  0  0
 49 64  1  0  0  0
 49116  1  0  0  0
 50 51  1  0  0  0
 50117  1  0  0  0
 50118  1  0  0  0
 51 52  1  0  0  0
 51119  1  0  0  0
 51120  1  0  0  0
 52121  1  0  0  0
 52122  1  0  0  0
 53 54  1  0  0  0
 54 55  2  0  0  0
 54123  1  0  0  0
 55 57  1  0  0  0
 55124  1  0  0  0
 56 69  2  0  0  0
 57 58  2  0  0  0
 57125  1  0  0  0
 58126  1  0  0  0
 59 60  1  0  0  0
 59 61  1  0  0  0
 59 62  1  0  0  0
 60127  1  0  0  0
 60128  1  0  0  0
 60129  1  0  0  0
 61130  1  0  0  0
 61131  1  0  0  0
 61132  1  0  0  0
 62133  1  0  0  0
 62134  1  0  0  0
 62135  1  0  0  0
 63 65  1  0  0  0
 63136  1  0  0  0
 63137  1  0  0  0
 63138  1  0  0  0
 64139  1  0  0  0
 65140  1  0  0  0
 68 78  1  0  0  0
 71 73  2  0  0  0
 71 75  1  0  0  0
 71141  1  0  0  0
 72 74  1  0  0  0
 72 75  2  0  0  0
 72142  1  0  0  0
 73 76  1  0  0  0
 73143  1  0  0  0
 74 76  2  0  0  0
 74144  1  0  0  0
 75 79  1  0  0  0
 76 80  1  0  0  0
 77 78  1  0  0  0
 77 79  1  0  0  0
 77 81  2  0  0  0
 78145  1  0  0  0
 78146  1  0  0  0
 79147  1  0  0  0
 80148  1  0  0  0
M  ISO  4   1 100  68 101  78 101  80 100
M  END
> <chiral flag>
0

> <version>
0

> <s_m_source_file>
/data/baiqing/PycharmProjects/Reinvent-master-3.2/result/LINK_invent/BTK/process_docking_weight1_custom_sum_contain_oxygen_bond_distance_aromatic_linkinvent_7_9_3/rearranged_h_0009.sdf

> <i_m_source_file_index>
64

> <r_mmod_Potential_Energy-OPLS-2005>
411.609313964844

> <r_mmod_Stretch_Energy-OPLS-2005>
219.232482910156

> <r_mmod_Bend_Energy-OPLS-2005>
281.814636230469

> <r_mmod_Torsional_Energy-OPLS-2005>
220.372116088867

> <r_mmod_Improper_Torsional_Energy-OPLS-2005>
4.48748207092285

> <r_mmod_Van_der_Waal_Energy-OPLS-2005>
130.148376464844

> <r_mmod_Electrostatic_Energy-OPLS-2005>
-374.771942138672

> <r_mmod_Solvation_Energy-OPLS-2005>
-252.214736938477

> <b_mmod_Minimization_Converged-OPLS-2005>
0

> <r_mmod_RMS_Derivative-OPLS-2005>
0.218703597784042

$$$$
65
                    3D
 Structure written by MMmdl.
152160  0  0  1  0            999 V2000
  -30.5173  -14.9248   20.4308 C   0  0  0  0  0  0
  -30.4517  -12.5687   19.4956 C   0  0  0  0  0  0
  -29.5258  -12.5396   18.2555 C   0  0  0  0  0  0
  -28.0561  -12.3285   18.6687 C   0  0  0  0  0  0
  -27.6380  -13.2433   19.8489 C   0  0  2  0  0  0
  -28.6823  -13.2281   20.9870 C   0  0  0  0  0  0
  -25.2481  -13.8184   20.5687 C   0  0  0  0  0  0
  -24.1786  -13.0418   20.9181 C   0  0  0  0  0  0
  -24.6403  -11.6906   20.8724 C   0  0  0  0  0  0
  -23.9082  -10.4282   21.0392 C   0  0  0  0  0  0
  -24.3626   -9.4202   21.9176 C   0  0  0  0  0  0
  -23.6294   -8.2241   22.0753 C   0  0  0  0  0  0
  -22.4275   -8.0280   21.3542 C   0  0  0  0  0  0
  -21.9910   -9.0252   20.4645 C   0  0  0  0  0  0
  -22.7248  -10.2127   20.3050 C   0  0  0  0  0  0
  -21.6855   -6.0731   22.5275 C   0  0  0  0  0  0
  -21.4015   -6.5633   23.8209 C   0  0  0  0  0  0
  -21.3665   -5.6788   24.9171 C   0  0  0  0  0  0
  -21.6045   -4.3050   24.7224 C   0  0  0  0  0  0
  -21.8820   -3.8141   23.4346 C   0  0  0  0  0  0
  -21.9192   -4.6957   22.3399 C   0  0  0  0  0  0
  -22.7812  -13.5202   21.1852 C   0  0  0  0  0  0
  -22.1662   -4.2141   21.0979 F   0  0  0  0  0  0
  -21.5629   -3.4537   25.7739 F   0  0  0  0  0  0
  -29.9679  -13.6447   20.4044 N   0  0  0  0  0  0
  -26.2931  -12.9422   20.3280 N   0  0  0  0  0  0
  -25.9342  -11.6553   20.5737 N   0  0  0  0  0  0
  -22.0466  -12.8197   22.0420 N   0  0  0  0  0  0
  -25.4111  -15.1906   20.4132 N   0  0  0  0  0  0
  -31.7009  -15.0560   20.0984 O   0  0  0  0  0  0
  -21.6640   -6.8878   21.4239 O   0  0  0  0  0  0
  -22.3491  -14.5513   20.6718 O   0  0  0  0  0  0
  -24.6451  -31.8443   23.1894 C   0  0  0  0  0  0
  -25.9223  -32.4694   23.8285 C   0  0  1  0  0  0
  -27.2202  -27.1395   20.1423 C   0  0  0  0  0  0
  -25.5971  -33.8500   24.2200 N   0  0  0  0  0  0
  -23.4483  -30.4659   21.5341 C   0  0  2  0  0  0
  -24.8979  -28.8968   20.1096 C   0  0  0  0  0  0
  -22.7579  -29.4556   22.4847 C   0  0  0  0  0  0
  -18.0317  -28.1395   22.8475 C   0  0  0  0  0  0
  -24.1495  -36.7253   23.2640 C   0  0  0  0  0  0
  -26.0057  -30.7189   21.3893 C   0  0  0  0  0  0
  -26.0770  -29.3316   20.7284 C   0  0  0  0  0  0
  -27.2390  -28.4695   20.7287 C   0  0  0  0  0  0
  -26.0111  -26.8106   19.4857 C   0  0  0  0  0  0
  -24.8779  -27.6492   19.4736 C   0  0  0  0  0  0
  -23.6751  -29.7992   20.1526 C   0  0  0  0  0  0
  -25.4126  -36.3030   24.0315 C   0  0  1  0  0  0
  -20.5930  -28.3727   23.1224 C   0  0  2  0  0  0
  -20.6796  -26.9427   22.5402 C   0  0  0  0  0  0
  -19.5766  -26.6380   21.5211 C   0  0  0  0  0  0
  -18.1950  -26.7934   22.1624 C   0  0  0  0  0  0
  -19.1573  -28.8880   23.2844 C   0  0  0  0  0  0
  -18.9485  -30.1473   23.8872 C   0  0  0  0  0  0
  -17.6478  -30.6585   24.0561 C   0  0  0  0  0  0
  -25.9080  -34.9406   23.5065 C   0  0  0  0  0  0
  -16.5371  -29.9076   23.6332 C   0  0  0  0  0  0
  -16.7301  -28.6499   23.0350 C   0  0  0  0  0  0
  -26.4538  -31.6560   25.0728 C   0  0  0  0  0  0
  -25.3719  -31.3765   26.1422 C   0  0  0  0  0  0
  -27.0388  -30.2943   24.6327 C   0  0  0  0  0  0
  -27.6073  -32.4324   25.7507 C   0  0  0  0  0  0
  -27.5576  -37.1791   24.8469 C   0  0  0  0  0  0
  -21.4271  -29.3053   22.3591 N   0  0  0  0  0  0
  -26.4292  -37.3738   23.9403 N   0  0  0  0  0  0
  -24.7192  -31.0308   22.0923 N   0  0  0  0  0  0
  -23.4222  -28.8098   23.2995 O   0  0  0  0  0  0
  -28.2652  -26.1424   20.2083 O   0  0  0  0  0  0
  -26.5659  -34.8900   22.4640 O   0  0  0  0  0  0
  -23.5567  -32.1327   23.7105 O   0  0  0  0  0  0
  -30.2011  -19.9608   19.9523 C   0  0  0  0  0  0
  -30.4787  -18.5212   20.0238 C   0  0  0  0  0  0
  -28.1154  -19.5937   20.9859 C   0  0  0  0  0  0
  -28.9851  -20.5808   20.4207 C   0  0  0  0  0  0
  -29.5754  -17.5448   20.5839 C   0  0  0  0  0  0
  -28.3854  -18.1674   21.0839 C   0  0  0  0  0  0
  -28.9455  -23.3601   20.2621 C   0  0  0  0  0  0
  -26.4184  -17.8196   22.4321 C   0  0  0  0  0  0
  -27.9078  -24.6354   20.0412 C   0  0  0  0  0  0
  -28.4727  -22.0237   20.2831 N   0  0  0  0  0  0
  -29.6585  -16.0168   20.6940 N   0  0  0  0  0  0
  -30.1493  -23.5955   20.3965 O   0  0  0  0  0  0
  -27.4902  -17.2888   21.6620 O   0  0  0  0  0  0
  -31.4842  -12.7356   19.1857 H   0  0  0  0  0  0
  -30.4453  -11.6046   20.0061 H   0  0  0  0  0  0
  -29.8374  -11.7537   17.5661 H   0  0  0  0  0  0
  -29.6195  -13.4801   17.7107 H   0  0  0  0  0  0
  -27.9422  -11.2828   18.9554 H   0  0  0  0  0  0
  -27.3955  -12.4848   17.8148 H   0  0  0  0  0  0
  -27.6113  -14.2553   19.4436 H   0  0  0  0  0  0
  -28.7586  -12.2354   21.4329 H   0  0  0  0  0  0
  -28.3830  -13.9004   21.7927 H   0  0  0  0  0  0
  -25.2768   -9.5676   22.4754 H   0  0  0  0  0  0
  -23.9993   -7.4632   22.7480 H   0  0  0  0  0  0
  -21.0836   -8.8775   19.8959 H   0  0  0  0  0  0
  -22.3699  -10.9663   19.6163 H   0  0  0  0  0  0
  -21.2007   -7.6138   23.9708 H   0  0  0  0  0  0
  -21.1489   -6.0520   25.9074 H   0  0  0  0  0  0
  -22.0594   -2.7602   23.2848 H   0  0  0  0  0  0
  -22.4076  -11.9862   22.4816 H   0  0  0  0  0  0
  -21.1089  -13.1232   22.2629 H   0  0  0  0  0  0
  -24.6406  -15.8364   20.5410 H   0  0  0  0  0  0
  -26.2753  -15.6524   20.1607 H   0  0  0  0  0  0
  -26.7295  -32.5299   23.1019 H   0  0  0  0  0  0
  -25.0106  -33.9618   25.0341 H   0  0  0  0  0  0
  -22.7518  -31.2928   21.3810 H   0  0  0  0  0  0
  -23.3751  -35.9593   23.3308 H   0  0  0  0  0  0
  -24.3578  -36.8878   22.2054 H   0  0  0  0  0  0
  -23.7266  -37.6458   23.6674 H   0  0  0  0  0  0
  -26.1657  -31.4757   20.6199 H   0  0  0  0  0  0
  -26.8743  -30.7651   22.0345 H   0  0  0  0  0  0
  -28.1356  -28.7974   21.2357 H   0  0  0  0  0  0
  -25.8952  -25.8626   18.9851 H   0  0  0  0  0  0
  -23.9790  -27.3122   18.9757 H   0  0  0  0  0  0
  -23.8123  -30.5750   19.3980 H   0  0  0  0  0  0
  -22.7895  -29.2426   19.8408 H   0  0  0  0  0  0
  -25.1314  -36.1857   25.0807 H   0  0  0  0  0  0
  -21.0036  -28.3324   24.1340 H   0  0  0  0  0  0
  -20.5678  -26.2347   23.3626 H   0  0  0  0  0  0
  -21.6662  -26.7416   22.1207 H   0  0  0  0  0  0
  -19.6922  -25.6284   21.1255 H   0  0  0  0  0  0
  -19.6692  -27.3177   20.6729 H   0  0  0  0  0  0
  -17.4217  -26.6683   21.4030 H   0  0  0  0  0  0
  -18.0343  -26.0078   22.9024 H   0  0  0  0  0  0
  -19.7960  -30.7301   24.2227 H   0  0  0  0  0  0
  -17.5028  -31.6262   24.5168 H   0  0  0  0  0  0
  -15.5369  -30.2967   23.7663 H   0  0  0  0  0  0
  -15.8707  -28.0806   22.7070 H   0  0  0  0  0  0
  -24.5914  -30.7086   25.7758 H   0  0  0  0  0  0
  -24.8887  -32.2947   26.4769 H   0  0  0  0  0  0
  -25.8002  -30.9005   27.0253 H   0  0  0  0  0  0
  -26.3004  -29.6669   24.1319 H   0  0  0  0  0  0
  -27.3959  -29.7245   25.4919 H   0  0  0  0  0  0
  -27.8937  -30.4149   23.9670 H   0  0  0  0  0  0
  -27.2674  -33.3643   26.2035 H   0  0  0  0  0  0
  -28.3908  -32.6854   25.0352 H   0  0  0  0  0  0
  -28.0716  -31.8483   26.5464 H   0  0  0  0  0  0
  -28.2605  -38.0072   24.7481 H   0  0  0  0  0  0
  -28.1059  -36.2605   24.6334 H   0  0  0  0  0  0
  -27.2294  -37.1487   25.8872 H   0  0  0  0  0  0
  -20.9482  -29.8769   21.6769 H   0  0  0  0  0  0
  -26.0157  -38.2811   24.1376 H   0  0  0  0  0  0
  -30.9424  -20.5926   19.4824 H   0  0  0  0  0  0
  -31.4133  -18.1680   19.6119 H   0  0  0  0  0  0
  -27.1724  -19.9687   21.3515 H   0  0  0  0  0  0
  -25.9071  -17.0071   22.9480 H   0  0  0  0  0  0
  -25.6823  -18.3181   21.8007 H   0  0  0  0  0  0
  -26.7724  -18.5158   23.1940 H   0  0  0  0  0  0
  -27.0485  -24.4355   20.6824 H   0  0  0  0  0  0
  -27.5571  -24.5058   19.0179 H   0  0  0  0  0  0
  -27.4625  -22.0478   20.2401 H   0  0  0  0  0  0
  -28.7754  -15.6573   21.0259 H   0  0  0  0  0  0
  1 25  1  0  0  0
  1 30  2  0  0  0
  1 81  1  0  0  0
  2  3  1  0  0  0
  2 25  1  0  0  0
  2 84  1  0  0  0
  2 85  1  0  0  0
  3  4  1  0  0  0
  3 86  1  0  0  0
  3 87  1  0  0  0
  4  5  1  0  0  0
  4 88  1  0  0  0
  4 89  1  0  0  0
  5  6  1  0  0  0
  5 26  1  0  0  0
  5 90  1  0  0  0
  6 25  1  0  0  0
  6 91  1  0  0  0
  6 92  1  0  0  0
  7  8  2  0  0  0
  7 26  1  0  0  0
  7 29  1  0  0  0
  8  9  1  0  0  0
  8 22  1  0  0  0
  9 10  1  0  0  0
  9 27  2  0  0  0
 10 11  2  0  0  0
 10 15  1  0  0  0
 11 12  1  0  0  0
 11 93  1  0  0  0
 12 13  2  0  0  0
 12 94  1  0  0  0
 13 14  1  0  0  0
 13 31  1  0  0  0
 14 15  2  0  0  0
 14 95  1  0  0  0
 15 96  1  0  0  0
 16 17  2  0  0  0
 16 21  1  0  0  0
 16 31  1  0  0  0
 17 18  1  0  0  0
 17 97  1  0  0  0
 18 19  2  0  0  0
 18 98  1  0  0  0
 19 20  1  0  0  0
 19 24  1  0  0  0
 20 21  2  0  0  0
 20 99  1  0  0  0
 21 23  1  0  0  0
 22 28  1  0  0  0
 22 32  2  0  0  0
 26 27  1  0  0  0
 28100  1  0  0  0
 28101  1  0  0  0
 29102  1  0  0  0
 29103  1  0  0  0
 33 34  1  0  0  0
 33 66  1  0  0  0
 33 70  2  0  0  0
 34 36  1  0  0  0
 34 59  1  0  0  0
 34104  1  0  0  0
 35 44  2  0  0  0
 35 45  1  0  0  0
 35 68  1  0  0  0
 36 56  1  0  0  0
 36105  1  0  0  0
 37 39  1  0  0  0
 37 47  1  0  0  0
 37 66  1  0  0  0
 37106  1  0  0  0
 38 43  2  0  0  0
 38 46  1  0  0  0
 38 47  1  0  0  0
 39 64  1  0  0  0
 39 67  2  0  0  0
 40 52  1  0  0  0
 40 53  2  0  0  0
 40 58  1  0  0  0
 41107  1  0  0  0
 41108  1  0  0  0
 41109  1  0  0  0
 41 48  1  0  0  0
 42 43  1  0  0  0
 42 66  1  0  0  0
 42110  1  0  0  0
 42111  1  0  0  0
 43 44  1  0  0  0
 44112  1  0  0  0
 45 46  2  0  0  0
 45113  1  0  0  0
 46114  1  0  0  0
 47115  1  0  0  0
 47116  1  0  0  0
 48 56  1  0  0  0
 48 65  1  0  0  0
 48117  1  0  0  0
 49 50  1  0  0  0
 49 53  1  0  0  0
 49 64  1  0  0  0
 49118  1  0  0  0
 50 51  1  0  0  0
 50119  1  0  0  0
 50120  1  0  0  0
 51 52  1  0  0  0
 51121  1  0  0  0
 51122  1  0  0  0
 52123  1  0  0  0
 52124  1  0  0  0
 53 54  1  0  0  0
 54 55  2  0  0  0
 54125  1  0  0  0
 55 57  1  0  0  0
 55126  1  0  0  0
 56 69  2  0  0  0
 57 58  2  0  0  0
 57127  1  0  0  0
 58128  1  0  0  0
 59 60  1  0  0  0
 59 61  1  0  0  0
 59 62  1  0  0  0
 60129  1  0  0  0
 60130  1  0  0  0
 60131  1  0  0  0
 61132  1  0  0  0
 61133  1  0  0  0
 61134  1  0  0  0
 62135  1  0  0  0
 62136  1  0  0  0
 62137  1  0  0  0
 63 65  1  0  0  0
 63138  1  0  0  0
 63139  1  0  0  0
 63140  1  0  0  0
 64141  1  0  0  0
 65142  1  0  0  0
 68 79  1  0  0  0
 71 72  2  0  0  0
 71 74  1  0  0  0
 71143  1  0  0  0
 72 75  1  0  0  0
 72144  1  0  0  0
 73 74  2  0  0  0
 73 76  1  0  0  0
 73145  1  0  0  0
 74 80  1  0  0  0
 75 76  2  0  0  0
 75 81  1  0  0  0
 76 83  1  0  0  0
 77 79  1  0  0  0
 77 80  1  0  0  0
 77 82  2  0  0  0
 78 83  1  0  0  0
 78146  1  0  0  0
 78147  1  0  0  0
 78148  1  0  0  0
 79149  1  0  0  0
 79150  1  0  0  0
 80151  1  0  0  0
 81152  1  0  0  0
M  ISO  4   1 100  68 101  79 101  81 100
M  END
> <chiral flag>
0

> <version>
0

> <s_m_source_file>
/data/baiqing/PycharmProjects/Reinvent-master-3.2/result/LINK_invent/BTK/process_docking_weight1_custom_sum_contain_oxygen_bond_distance_aromatic_linkinvent_7_9_3/rearranged_h_0009.sdf

> <i_m_source_file_index>
65

> <r_mmod_Potential_Energy-OPLS-2005>
398.277862548828

> <r_mmod_Stretch_Energy-OPLS-2005>
222.967102050781

> <r_mmod_Bend_Energy-OPLS-2005>
287.100189208984

> <r_mmod_Torsional_Energy-OPLS-2005>
227.307083129883

> <r_mmod_Improper_Torsional_Energy-OPLS-2005>
3.75444746017456

> <r_mmod_Van_der_Waal_Energy-OPLS-2005>
134.696365356445

> <r_mmod_Electrostatic_Energy-OPLS-2005>
-413.936401367188

> <r_mmod_Solvation_Energy-OPLS-2005>
-247.73112487793

> <b_mmod_Minimization_Converged-OPLS-2005>
0

> <r_mmod_RMS_Derivative-OPLS-2005>
0.934446752071381

$$$$
66
                    3D
 Structure written by MMmdl.
158166  0  0  1  0            999 V2000
  -30.5359  -14.9143   20.4376 C   0  0  0  0  0  0
  -30.4553  -12.5610   19.5115 C   0  0  0  0  0  0
  -29.5350  -12.5335   18.2662 C   0  0  0  0  0  0
  -28.0564  -12.3430   18.6677 C   0  0  0  0  0  0
  -27.6392  -13.2517   19.8571 C   0  0  2  0  0  0
  -28.6843  -13.2349   20.9964 C   0  0  0  0  0  0
  -25.2486  -13.8200   20.5787 C   0  0  0  0  0  0
  -24.1776  -13.0418   20.9217 C   0  0  0  0  0  0
  -24.6416  -11.6905   20.8737 C   0  0  0  0  0  0
  -23.9115  -10.4274   21.0401 C   0  0  0  0  0  0
  -24.3638   -9.4185   21.9182 C   0  0  0  0  0  0
  -23.6285   -8.2237   22.0755 C   0  0  0  0  0  0
  -22.4259   -8.0286   21.3557 C   0  0  0  0  0  0
  -21.9913   -9.0278   20.4687 C   0  0  0  0  0  0
  -22.7264  -10.2138   20.3086 C   0  0  0  0  0  0
  -21.6845   -6.0768   22.5293 C   0  0  0  0  0  0
  -21.4013   -6.5671   23.8235 C   0  0  0  0  0  0
  -21.3637   -5.6810   24.9186 C   0  0  0  0  0  0
  -21.6016   -4.3069   24.7217 C   0  0  0  0  0  0
  -21.8802   -3.8168   23.4338 C   0  0  0  0  0  0
  -21.9198   -4.6995   22.3404 C   0  0  0  0  0  0
  -22.7791  -13.5221   21.1850 C   0  0  0  0  0  0
  -22.1658   -4.2195   21.0973 F   0  0  0  0  0  0
  -21.5605   -3.4549   25.7725 F   0  0  0  0  0  0
  -29.9719  -13.6410   20.4130 N   0  0  0  0  0  0
  -26.2946  -12.9460   20.3357 N   0  0  0  0  0  0
  -25.9369  -11.6587   20.5778 N   0  0  0  0  0  0
  -22.0419  -12.8259   22.0420 N   0  0  0  0  0  0
  -25.4082  -15.1943   20.4326 N   0  0  0  0  0  0
  -31.7156  -15.0375   20.0968 O   0  0  0  0  0  0
  -21.6596   -6.8902   21.4254 O   0  0  0  0  0  0
  -22.3497  -14.5542   20.6694 O   0  0  0  0  0  0
  -24.6376  -31.8448   23.1879 C   0  0  0  0  0  0
  -25.9157  -32.4702   23.8252 C   0  0  1  0  0  0
  -27.2303  -27.1675   20.1701 C   0  0  0  0  0  0
  -25.5898  -33.8505   24.2154 N   0  0  0  0  0  0
  -23.4418  -30.4647   21.5319 C   0  0  2  0  0  0
  -24.8964  -28.8922   20.1177 C   0  0  0  0  0  0
  -22.7536  -29.4557   22.4841 C   0  0  0  0  0  0
  -18.0302  -28.1409   22.8482 C   0  0  0  0  0  0
  -24.1487  -36.7279   23.2638 C   0  0  0  0  0  0
  -25.9926  -30.7411   21.3719 C   0  0  0  0  0  0
  -26.0721  -29.3493   20.7241 C   0  0  0  0  0  0
  -27.2413  -28.5055   20.7295 C   0  0  0  0  0  0
  -26.0264  -26.8040   19.5232 C   0  0  0  0  0  0
  -24.8832  -27.6314   19.5007 C   0  0  0  0  0  0
  -23.6692  -29.7881   20.1537 C   0  0  0  0  0  0
  -25.4118  -36.3031   24.0294 C   0  0  1  0  0  0
  -20.5915  -28.3713   23.1240 C   0  0  2  0  0  0
  -20.6789  -26.9411   22.5409 C   0  0  0  0  0  0
  -19.5758  -26.6378   21.5220 C   0  0  0  0  0  0
  -18.1945  -26.7949   22.1633 C   0  0  0  0  0  0
  -19.1562  -28.8876   23.2864 C   0  0  0  0  0  0
  -18.9484  -30.1484   23.8869 C   0  0  0  0  0  0
  -17.6479  -30.6591   24.0578 C   0  0  0  0  0  0
  -25.9060  -34.9405   23.5027 C   0  0  0  0  0  0
  -16.5365  -29.9097   23.6335 C   0  0  0  0  0  0
  -16.7292  -28.6535   23.0319 C   0  0  0  0  0  0
  -26.4507  -31.6561   25.0678 C   0  0  0  0  0  0
  -25.3702  -31.3766   26.1377 C   0  0  0  0  0  0
  -27.0351  -30.2951   24.6220 C   0  0  0  0  0  0
  -27.6016  -32.4327   25.7491 C   0  0  0  0  0  0
  -27.5570  -37.1788   24.8453 C   0  0  0  0  0  0
  -21.4234  -29.3047   22.3606 N   0  0  0  0  0  0
  -26.4273  -37.3747   23.9407 N   0  0  0  0  0  0
  -24.7110  -31.0369   22.0872 N   0  0  0  0  0  0
  -23.4200  -28.8095   23.2969 O   0  0  0  0  0  0
  -28.2967  -26.2056   20.2666 O   0  0  0  0  0  0
  -26.5683  -34.8905   22.4628 O   0  0  0  0  0  0
  -23.5502  -32.1255   23.7154 O   0  0  0  0  0  0
  -30.6244  -18.4644   20.0437 C   0  0  0  0  0  0
  -28.2601  -19.6458   20.9063 C   0  0  0  0  0  0
  -30.3900  -19.9010   19.9075 C   0  0  0  0  0  0
  -29.6607  -17.5380   20.5802 C   0  0  0  0  0  0
  -29.1801  -20.5763   20.3224 C   0  0  0  0  0  0
  -28.4729  -18.2092   21.0249 C   0  0  0  0  0  0
  -28.5350  -21.9973   18.4936 C   0  0  0  0  0  0
  -26.4622  -17.9141   22.3186 C   0  0  0  0  0  0
  -29.0167  -23.3818   20.5252 C   0  0  0  0  0  0
  -28.0473  -24.6887   20.0804 C   0  0  0  0  0  0
  -31.3648  -20.6909   19.2940 N   0  0  0  0  0  0
  -29.6959  -16.0143   20.7073 N   0  0  0  0  0  0
  -28.7742  -21.9596   19.9341 N   0  0  0  0  0  0
  -27.5151  -17.3583   21.5425 O   0  0  0  0  0  0
  -31.4931  -12.7185   19.2118 H   0  0  0  0  0  0
  -30.4445  -11.6034   20.0339 H   0  0  0  0  0  0
  -29.8427  -11.7374   17.5871 H   0  0  0  0  0  0
  -29.6490  -13.4699   17.7168 H   0  0  0  0  0  0
  -27.9200  -11.2934   18.9355 H   0  0  0  0  0  0
  -27.4070  -12.5276   17.8100 H   0  0  0  0  0  0
  -27.6081  -14.2673   19.4590 H   0  0  0  0  0  0
  -28.7619  -12.2449   21.4464 H   0  0  0  0  0  0
  -28.3920  -13.9094   21.8033 H   0  0  0  0  0  0
  -25.2780   -9.5645   22.4760 H   0  0  0  0  0  0
  -23.9999   -7.4615   22.7454 H   0  0  0  0  0  0
  -21.0837   -8.8807   19.8993 H   0  0  0  0  0  0
  -22.3714  -10.9681   19.6202 H   0  0  0  0  0  0
  -21.2001   -7.6174   23.9762 H   0  0  0  0  0  0
  -21.1468   -6.0531   25.9107 H   0  0  0  0  0  0
  -22.0602   -2.7639   23.2810 H   0  0  0  0  0  0
  -22.4012  -11.9940   22.4850 H   0  0  0  0  0  0
  -21.1058  -13.1354   22.2601 H   0  0  0  0  0  0
  -24.6368  -15.8319   20.5930 H   0  0  0  0  0  0
  -26.2815  -15.6743   20.2574 H   0  0  0  0  0  0
  -26.7238  -32.5369   23.1007 H   0  0  0  0  0  0
  -24.9962  -33.9622   25.0243 H   0  0  0  0  0  0
  -22.7436  -31.2887   21.3749 H   0  0  0  0  0  0
  -23.3725  -35.9631   23.3263 H   0  0  0  0  0  0
  -24.3583  -36.8952   22.2062 H   0  0  0  0  0  0
  -23.7257  -37.6463   23.6716 H   0  0  0  0  0  0
  -26.1182  -31.4910   20.5896 H   0  0  0  0  0  0
  -26.8732  -30.8133   21.9987 H   0  0  0  0  0  0
  -28.1378  -28.8565   21.2224 H   0  0  0  0  0  0
  -25.9360  -25.8361   19.0561 H   0  0  0  0  0  0
  -23.9812  -27.2729   19.0251 H   0  0  0  0  0  0
  -23.8001  -30.5536   19.3880 H   0  0  0  0  0  0
  -22.7882  -29.2215   19.8505 H   0  0  0  0  0  0
  -25.1309  -36.1834   25.0782 H   0  0  0  0  0  0
  -21.0043  -28.3313   24.1347 H   0  0  0  0  0  0
  -20.5652  -26.2336   23.3637 H   0  0  0  0  0  0
  -21.6662  -26.7402   22.1215 H   0  0  0  0  0  0
  -19.6904  -25.6281   21.1267 H   0  0  0  0  0  0
  -19.6669  -27.3178   20.6743 H   0  0  0  0  0  0
  -17.4194  -26.6659   21.4060 H   0  0  0  0  0  0
  -18.0342  -26.0112   22.9047 H   0  0  0  0  0  0
  -19.7955  -30.7340   24.2177 H   0  0  0  0  0  0
  -17.5022  -31.6267   24.5192 H   0  0  0  0  0  0
  -15.5362  -30.2987   23.7688 H   0  0  0  0  0  0
  -15.8702  -28.0888   22.6973 H   0  0  0  0  0  0
  -24.5841  -30.7165   25.7704 H   0  0  0  0  0  0
  -24.8962  -32.2973   26.4777 H   0  0  0  0  0  0
  -25.7977  -30.8929   27.0162 H   0  0  0  0  0  0
  -26.2951  -29.6690   24.1225 H   0  0  0  0  0  0
  -27.3959  -29.7227   25.4776 H   0  0  0  0  0  0
  -27.8852  -30.4168   23.9507 H   0  0  0  0  0  0
  -27.2557  -33.3612   26.2037 H   0  0  0  0  0  0
  -28.3863  -32.6894   25.0372 H   0  0  0  0  0  0
  -28.0631  -31.8465   26.5438 H   0  0  0  0  0  0
  -28.2553  -38.0121   24.7513 H   0  0  0  0  0  0
  -28.1082  -36.2629   24.6237 H   0  0  0  0  0  0
  -27.2296  -37.1419   25.8861 H   0  0  0  0  0  0
  -20.9413  -29.8766   21.6814 H   0  0  0  0  0  0
  -26.0107  -38.2786   24.1456 H   0  0  0  0  0  0
  -31.5625  -18.0549   19.6906 H   0  0  0  0  0  0
  -27.3164  -20.0681   21.2090 H   0  0  0  0  0  0
  -28.6266  -21.0207   18.0140 H   0  0  0  0  0  0
  -29.2512  -22.6584   18.0028 H   0  0  0  0  0  0
  -27.5310  -22.3708   18.2815 H   0  0  0  0  0  0
  -25.8102  -17.1105   22.6627 H   0  0  0  0  0  0
  -25.8331  -18.5917   21.7415 H   0  0  0  0  0  0
  -26.8564  -18.4270   23.1981 H   0  0  0  0  0  0
  -28.9981  -23.2944   21.6123 H   0  0  0  0  0  0
  -30.0477  -23.6434   20.2868 H   0  0  0  0  0  0
  -27.0856  -24.4945   20.5541 H   0  0  0  0  0  0
  -27.8686  -24.5857   19.0107 H   0  0  0  0  0  0
  -32.3318  -20.3869   19.3323 H   0  0  0  0  0  0
  -31.2604  -21.6859   19.4548 H   0  0  0  0  0  0
  -28.8033  -15.6770   21.0330 H   0  0  0  0  0  0
  1 25  1  0  0  0
  1 30  2  0  0  0
  1 82  1  0  0  0
  2  3  1  0  0  0
  2 25  1  0  0  0
  2 85  1  0  0  0
  2 86  1  0  0  0
  3  4  1  0  0  0
  3 87  1  0  0  0
  3 88  1  0  0  0
  4  5  1  0  0  0
  4 89  1  0  0  0
  4 90  1  0  0  0
  5  6  1  0  0  0
  5 26  1  0  0  0
  5 91  1  0  0  0
  6 25  1  0  0  0
  6 92  1  0  0  0
  6 93  1  0  0  0
  7  8  2  0  0  0
  7 26  1  0  0  0
  7 29  1  0  0  0
  8  9  1  0  0  0
  8 22  1  0  0  0
  9 10  1  0  0  0
  9 27  2  0  0  0
 10 11  2  0  0  0
 10 15  1  0  0  0
 11 12  1  0  0  0
 11 94  1  0  0  0
 12 13  2  0  0  0
 12 95  1  0  0  0
 13 14  1  0  0  0
 13 31  1  0  0  0
 14 15  2  0  0  0
 14 96  1  0  0  0
 15 97  1  0  0  0
 16 17  2  0  0  0
 16 21  1  0  0  0
 16 31  1  0  0  0
 17 18  1  0  0  0
 17 98  1  0  0  0
 18 19  2  0  0  0
 18 99  1  0  0  0
 19 20  1  0  0  0
 19 24  1  0  0  0
 20 21  2  0  0  0
 20100  1  0  0  0
 21 23  1  0  0  0
 22 28  1  0  0  0
 22 32  2  0  0  0
 26 27  1  0  0  0
 28101  1  0  0  0
 28102  1  0  0  0
 29103  1  0  0  0
 29104  1  0  0  0
 33 34  1  0  0  0
 33 66  1  0  0  0
 33 70  2  0  0  0
 34 36  1  0  0  0
 34 59  1  0  0  0
 34105  1  0  0  0
 35 44  2  0  0  0
 35 45  1  0  0  0
 35 68  1  0  0  0
 36 56  1  0  0  0
 36106  1  0  0  0
 37 39  1  0  0  0
 37 47  1  0  0  0
 37 66  1  0  0  0
 37107  1  0  0  0
 38 43  2  0  0  0
 38 46  1  0  0  0
 38 47  1  0  0  0
 39 64  1  0  0  0
 39 67  2  0  0  0
 40 52  1  0  0  0
 40 53  2  0  0  0
 40 58  1  0  0  0
 41108  1  0  0  0
 41109  1  0  0  0
 41110  1  0  0  0
 41 48  1  0  0  0
 42 43  1  0  0  0
 42 66  1  0  0  0
 42111  1  0  0  0
 42112  1  0  0  0
 43 44  1  0  0  0
 44113  1  0  0  0
 45 46  2  0  0  0
 45114  1  0  0  0
 46115  1  0  0  0
 47116  1  0  0  0
 47117  1  0  0  0
 48 56  1  0  0  0
 48 65  1  0  0  0
 48118  1  0  0  0
 49 50  1  0  0  0
 49 53  1  0  0  0
 49 64  1  0  0  0
 49119  1  0  0  0
 50 51  1  0  0  0
 50120  1  0  0  0
 50121  1  0  0  0
 51 52  1  0  0  0
 51122  1  0  0  0
 51123  1  0  0  0
 52124  1  0  0  0
 52125  1  0  0  0
 53 54  1  0  0  0
 54 55  2  0  0  0
 54126  1  0  0  0
 55 57  1  0  0  0
 55127  1  0  0  0
 56 69  2  0  0  0
 57 58  2  0  0  0
 57128  1  0  0  0
 58129  1  0  0  0
 59 60  1  0  0  0
 59 61  1  0  0  0
 59 62  1  0  0  0
 60130  1  0  0  0
 60131  1  0  0  0
 60132  1  0  0  0
 61133  1  0  0  0
 61134  1  0  0  0
 61135  1  0  0  0
 62136  1  0  0  0
 62137  1  0  0  0
 62138  1  0  0  0
 63 65  1  0  0  0
 63139  1  0  0  0
 63140  1  0  0  0
 63141  1  0  0  0
 64142  1  0  0  0
 65143  1  0  0  0
 68 80  1  0  0  0
 71 73  2  0  0  0
 71 74  1  0  0  0
 71144  1  0  0  0
 72 75  2  0  0  0
 72 76  1  0  0  0
 72145  1  0  0  0
 73 75  1  0  0  0
 73 81  1  0  0  0
 74 76  2  0  0  0
 74 82  1  0  0  0
 75 83  1  0  0  0
 76 84  1  0  0  0
 77 83  1  0  0  0
 77146  1  0  0  0
 77147  1  0  0  0
 77148  1  0  0  0
 78 84  1  0  0  0
 78149  1  0  0  0
 78150  1  0  0  0
 78151  1  0  0  0
 79 80  1  0  0  0
 79 83  1  0  0  0
 79152  1  0  0  0
 79153  1  0  0  0
 80154  1  0  0  0
 80155  1  0  0  0
 81156  1  0  0  0
 81157  1  0  0  0
 82158  1  0  0  0
M  ISO  4   1 100  68 101  80 101  82 100
M  END
> <chiral flag>
0

> <version>
0

> <s_m_source_file>
/data/baiqing/PycharmProjects/Reinvent-master-3.2/result/LINK_invent/BTK/process_docking_weight1_custom_sum_contain_oxygen_bond_distance_aromatic_linkinvent_7_9_3/rearranged_h_0009.sdf

> <i_m_source_file_index>
66

> <r_mmod_Potential_Energy-OPLS-2005>
406.064422607422

> <r_mmod_Stretch_Energy-OPLS-2005>
214.412811279297

> <r_mmod_Bend_Energy-OPLS-2005>
275.515411376953

> <r_mmod_Torsional_Energy-OPLS-2005>
251.531402587891

> <r_mmod_Improper_Torsional_Energy-OPLS-2005>
11.2020826339722

> <r_mmod_Van_der_Waal_Energy-OPLS-2005>
139.676010131836

> <r_mmod_Electrostatic_Energy-OPLS-2005>
-430.601196289062

> <r_mmod_Solvation_Energy-OPLS-2005>
-224.347259521484

> <b_mmod_Minimization_Converged-OPLS-2005>
0

> <r_mmod_RMS_Derivative-OPLS-2005>
4.28113317489624

$$$$
67
                    3D
 Structure written by MMmdl.
156163  0  0  1  0            999 V2000
  -30.7236  -14.4405   20.6071 C   0  0  0  0  0  0
  -30.4236  -12.3032   19.4111 C   0  0  0  0  0  0
  -29.4915  -12.5127   18.2003 C   0  0  0  0  0  0
  -28.0142  -12.3708   18.6159 C   0  0  0  0  0  0
  -27.6654  -13.2045   19.8784 C   0  0  2  0  0  0
  -28.7069  -12.9717   20.9957 C   0  0  0  0  0  0
  -25.2617  -13.8165   20.5691 C   0  0  0  0  0  0
  -24.1855  -13.0442   20.9166 C   0  0  0  0  0  0
  -24.6396  -11.6909   20.8722 C   0  0  0  0  0  0
  -23.9054  -10.4302   21.0402 C   0  0  0  0  0  0
  -24.3613   -9.4219   21.9181 C   0  0  0  0  0  0
  -23.6292   -8.2251   22.0752 C   0  0  0  0  0  0
  -22.4274   -8.0286   21.3540 C   0  0  0  0  0  0
  -21.9908   -9.0257   20.4637 C   0  0  0  0  0  0
  -22.7229  -10.2140   20.3048 C   0  0  0  0  0  0
  -21.6853   -6.0732   22.5279 C   0  0  0  0  0  0
  -21.4019   -6.5634   23.8209 C   0  0  0  0  0  0
  -21.3664   -5.6787   24.9173 C   0  0  0  0  0  0
  -21.6045   -4.3053   24.7221 C   0  0  0  0  0  0
  -21.8821   -3.8142   23.4344 C   0  0  0  0  0  0
  -21.9195   -4.6963   22.3403 C   0  0  0  0  0  0
  -22.7883  -13.5249   21.1823 C   0  0  0  0  0  0
  -22.1670   -4.2147   21.0981 F   0  0  0  0  0  0
  -21.5624   -3.4539   25.7733 F   0  0  0  0  0  0
  -30.0396  -13.2761   20.4459 N   0  0  0  0  0  0
  -26.3047  -12.9323   20.3384 N   0  0  0  0  0  0
  -25.9323  -11.6481   20.5763 N   0  0  0  0  0  0
  -22.0515  -12.8251   22.0384 N   0  0  0  0  0  0
  -25.4368  -15.1875   20.4115 N   0  0  0  0  0  0
  -31.8239  -14.6490   20.0890 O   0  0  0  0  0  0
  -21.6643   -6.8883   21.4237 O   0  0  0  0  0  0
  -22.3573  -14.5555   20.6667 O   0  0  0  0  0  0
  -24.6140  -31.8683   23.2094 C   0  0  0  0  0  0
  -25.9026  -32.4828   23.8396 C   0  0  1  0  0  0
  -27.2416  -27.4438   20.1026 C   0  0  0  0  0  0
  -25.5885  -33.8625   24.2339 N   0  0  0  0  0  0
  -23.4036  -30.4881   21.5493 C   0  0  2  0  0  0
  -24.8534  -28.9510   20.1179 C   0  0  0  0  0  0
  -22.7410  -29.4649   22.4995 C   0  0  0  0  0  0
  -18.0261  -28.1381   22.8486 C   0  0  0  0  0  0
  -24.1480  -36.7316   23.2640 C   0  0  0  0  0  0
  -25.9296  -30.8368   21.3596 C   0  0  0  0  0  0
  -26.0119  -29.4699   20.7112 C   0  0  0  0  0  0
  -27.2122  -28.7237   20.6991 C   0  0  0  0  0  0
  -26.0706  -26.9346   19.5050 C   0  0  0  0  0  0
  -24.8766  -27.6813   19.5128 C   0  0  0  0  0  0
  -23.6136  -29.8156   20.1657 C   0  0  0  0  0  0
  -25.4105  -36.3124   24.0342 C   0  0  1  0  0  0
  -20.5851  -28.3666   23.1322 C   0  0  2  0  0  0
  -20.6757  -26.9406   22.5421 C   0  0  0  0  0  0
  -19.5740  -26.6386   21.5213 C   0  0  0  0  0  0
  -18.1916  -26.7925   22.1620 C   0  0  0  0  0  0
  -19.1511  -28.8840   23.2895 C   0  0  0  0  0  0
  -18.9447  -30.1445   23.8910 C   0  0  0  0  0  0
  -17.6454  -30.6592   24.0566 C   0  0  0  0  0  0
  -25.9029  -34.9483   23.5142 C   0  0  0  0  0  0
  -16.5342  -29.9096   23.6326 C   0  0  0  0  0  0
  -16.7253  -28.6509   23.0350 C   0  0  0  0  0  0
  -26.4462  -31.6600   25.0718 C   0  0  0  0  0  0
  -25.3735  -31.3706   26.1474 C   0  0  0  0  0  0
  -27.0295  -30.3050   24.6076 C   0  0  0  0  0  0
  -27.6055  -32.4312   25.7465 C   0  0  0  0  0  0
  -27.5580  -37.1815   24.8468 C   0  0  0  0  0  0
  -21.4137  -29.3030   22.3729 N   0  0  0  0  0  0
  -26.4297  -37.3806   23.9409 N   0  0  0  0  0  0
  -24.6673  -31.0785   22.0989 N   0  0  0  0  0  0
  -23.4177  -28.8194   23.3043 O   0  0  0  0  0  0
  -28.3937  -26.6926   20.0952 O   0  0  0  0  0  0
  -26.5595  -34.8935   22.4707 O   0  0  0  0  0  0
  -23.5334  -32.1424   23.7490 O   0  0  0  0  0  0
  -28.8353  -24.2548   20.2962 C   0  0  0  0  0  0
  -28.4973  -22.9787   22.4163 C   0  0  0  0  0  0
  -28.3670  -25.5615   20.9877 C   0  0  0  0  0  0
  -29.7672  -19.2538   20.3991 C   0  0  0  0  0  0
  -29.5564  -17.8797   21.1306 C   0  0  0  0  0  0
  -29.2698  -20.5132   21.1664 C   0  0  0  0  0  0
  -30.5805  -16.7677   21.5507 C   0  0  0  0  0  0
  -29.2829  -21.8218   20.3174 C   0  0  0  0  0  0
  -30.0855  -15.4024   21.2959 N   0  0  0  0  0  0
  -28.8590  -23.0797   20.9927 N   0  0  0  0  0  0
  -29.1766  -24.3078   19.1085 O   0  0  0  0  0  0
  -31.4670  -12.4053   19.1065 H   0  0  0  0  0  0
  -30.3275  -11.2891   19.8000 H   0  0  0  0  0  0
  -29.7293  -11.7963   17.4126 H   0  0  0  0  0  0
  -29.6594  -13.5033   17.7733 H   0  0  0  0  0  0
  -27.8209  -11.3139   18.8032 H   0  0  0  0  0  0
  -27.3625  -12.6549   17.7895 H   0  0  0  0  0  0
  -27.7155  -14.2550   19.5899 H   0  0  0  0  0  0
  -28.6819  -11.9316   21.3238 H   0  0  0  0  0  0
  -28.4669  -13.5577   21.8838 H   0  0  0  0  0  0
  -25.2760   -9.5695   22.4750 H   0  0  0  0  0  0
  -24.0000   -7.4643   22.7470 H   0  0  0  0  0  0
  -21.0842   -8.8776   19.8943 H   0  0  0  0  0  0
  -22.3693  -10.9678   19.6157 H   0  0  0  0  0  0
  -21.2017   -7.6144   23.9714 H   0  0  0  0  0  0
  -21.1486   -6.0519   25.9076 H   0  0  0  0  0  0
  -22.0596   -2.7601   23.2843 H   0  0  0  0  0  0
  -22.4131  -11.9925   22.4801 H   0  0  0  0  0  0
  -21.1128  -13.1275   22.2565 H   0  0  0  0  0  0
  -24.6772  -15.8494   20.5275 H   0  0  0  0  0  0
  -26.2970  -15.6246   20.1036 H   0  0  0  0  0  0
  -26.7099  -32.5554   23.1166 H   0  0  0  0  0  0
  -25.0032  -33.9781   25.0480 H   0  0  0  0  0  0
  -22.6922  -31.3043   21.4072 H   0  0  0  0  0  0
  -23.3745  -35.9647   23.3324 H   0  0  0  0  0  0
  -24.3567  -36.8908   22.2049 H   0  0  0  0  0  0
  -23.7225  -37.6528   23.6635 H   0  0  0  0  0  0
  -26.0343  -31.6006   20.5875 H   0  0  0  0  0  0
  -26.8201  -30.8974   21.9738 H   0  0  0  0  0  0
  -28.1082  -29.1204   21.1558 H   0  0  0  0  0  0
  -26.0852  -25.9606   19.0373 H   0  0  0  0  0  0
  -23.9860  -27.2737   19.0549 H   0  0  0  0  0  0
  -23.7212  -30.5882   19.4039 H   0  0  0  0  0  0
  -22.7397  -29.2324   19.8715 H   0  0  0  0  0  0
  -25.1279  -36.2000   25.0836 H   0  0  0  0  0  0
  -20.9927  -28.3231   24.1449 H   0  0  0  0  0  0
  -20.5663  -26.2278   23.3605 H   0  0  0  0  0  0
  -21.6630  -26.7455   22.1219 H   0  0  0  0  0  0
  -19.6910  -25.6298   21.1239 H   0  0  0  0  0  0
  -19.6686  -27.3198   20.6748 H   0  0  0  0  0  0
  -17.4189  -26.6661   21.4022 H   0  0  0  0  0  0
  -18.0323  -26.0064   22.9019 H   0  0  0  0  0  0
  -19.7927  -30.7247   24.2294 H   0  0  0  0  0  0
  -17.5017  -31.6274   24.5166 H   0  0  0  0  0  0
  -15.5346  -30.3016   23.7649 H   0  0  0  0  0  0
  -15.8643  -28.0843   22.7068 H   0  0  0  0  0  0
  -24.5883  -30.7082   25.7809 H   0  0  0  0  0  0
  -24.8946  -32.2863   26.4958 H   0  0  0  0  0  0
  -25.8081  -30.8842   27.0213 H   0  0  0  0  0  0
  -26.2837  -29.6810   24.1140 H   0  0  0  0  0  0
  -27.4093  -29.7288   25.4521 H   0  0  0  0  0  0
  -27.8653  -30.4393   23.9205 H   0  0  0  0  0  0
  -27.2689  -33.3598   26.2091 H   0  0  0  0  0  0
  -28.3826  -32.6899   25.0259 H   0  0  0  0  0  0
  -28.0764  -31.8406   26.5333 H   0  0  0  0  0  0
  -28.2625  -38.0090   24.7511 H   0  0  0  0  0  0
  -28.1051  -36.2625   24.6303 H   0  0  0  0  0  0
  -27.2294  -37.1481   25.8872 H   0  0  0  0  0  0
  -20.9306  -29.8757   21.6947 H   0  0  0  0  0  0
  -26.0193  -38.2889   24.1413 H   0  0  0  0  0  0
  -27.6687  -22.2835   22.5510 H   0  0  0  0  0  0
  -28.1909  -23.9097   22.8883 H   0  0  0  0  0  0
  -29.3465  -22.6191   22.9974 H   0  0  0  0  0  0
  -29.0384  -25.7846   21.8182 H   0  0  0  0  0  0
  -27.3731  -25.4012   21.4108 H   0  0  0  0  0  0
  -29.2305  -19.2446   19.4458 H   0  0  0  0  0  0
  -30.8192  -19.3886   20.1304 H   0  0  0  0  0  0
  -30.1228  -18.4214   21.8876 H   0  0  0  0  0  0
  -29.7770  -17.4851   20.1359 H   0  0  0  0  0  0
  -29.8937  -20.6465   22.0508 H   0  0  0  0  0  0
  -28.2571  -20.3206   21.5220 H   0  0  0  0  0  0
  -30.7838  -16.7783   22.6279 H   0  0  0  0  0  0
  -31.5555  -16.9368   21.0835 H   0  0  0  0  0  0
  -28.6391  -21.6711   19.4489 H   0  0  0  0  0  0
  -30.2900  -21.9710   19.9241 H   0  0  0  0  0  0
  -29.1826  -15.1579   21.6756 H   0  0  0  0  0  0
  1 25  1  0  0  0
  1 30  2  0  0  0
  1 79  1  0  0  0
  2  3  1  0  0  0
  2 25  1  0  0  0
  2 82  1  0  0  0
  2 83  1  0  0  0
  3  4  1  0  0  0
  3 84  1  0  0  0
  3 85  1  0  0  0
  4  5  1  0  0  0
  4 86  1  0  0  0
  4 87  1  0  0  0
  5  6  1  0  0  0
  5 26  1  0  0  0
  5 88  1  0  0  0
  6 25  1  0  0  0
  6 89  1  0  0  0
  6 90  1  0  0  0
  7  8  2  0  0  0
  7 26  1  0  0  0
  7 29  1  0  0  0
  8  9  1  0  0  0
  8 22  1  0  0  0
  9 10  1  0  0  0
  9 27  2  0  0  0
 10 11  2  0  0  0
 10 15  1  0  0  0
 11 12  1  0  0  0
 11 91  1  0  0  0
 12 13  2  0  0  0
 12 92  1  0  0  0
 13 14  1  0  0  0
 13 31  1  0  0  0
 14 15  2  0  0  0
 14 93  1  0  0  0
 15 94  1  0  0  0
 16 17  2  0  0  0
 16 21  1  0  0  0
 16 31  1  0  0  0
 17 18  1  0  0  0
 17 95  1  0  0  0
 18 19  2  0  0  0
 18 96  1  0  0  0
 19 20  1  0  0  0
 19 24  1  0  0  0
 20 21  2  0  0  0
 20 97  1  0  0  0
 21 23  1  0  0  0
 22 28  1  0  0  0
 22 32  2  0  0  0
 26 27  1  0  0  0
 28 98  1  0  0  0
 28 99  1  0  0  0
 29100  1  0  0  0
 29101  1  0  0  0
 33 34  1  0  0  0
 33 66  1  0  0  0
 33 70  2  0  0  0
 34 36  1  0  0  0
 34 59  1  0  0  0
 34102  1  0  0  0
 35 44  2  0  0  0
 35 45  1  0  0  0
 35 68  1  0  0  0
 36 56  1  0  0  0
 36103  1  0  0  0
 37 39  1  0  0  0
 37 47  1  0  0  0
 37 66  1  0  0  0
 37104  1  0  0  0
 38 43  2  0  0  0
 38 46  1  0  0  0
 38 47  1  0  0  0
 39 64  1  0  0  0
 39 67  2  0  0  0
 40 52  1  0  0  0
 40 53  2  0  0  0
 40 58  1  0  0  0
 41105  1  0  0  0
 41106  1  0  0  0
 41107  1  0  0  0
 41 48  1  0  0  0
 42 43  1  0  0  0
 42 66  1  0  0  0
 42108  1  0  0  0
 42109  1  0  0  0
 43 44  1  0  0  0
 44110  1  0  0  0
 45 46  2  0  0  0
 45111  1  0  0  0
 46112  1  0  0  0
 47113  1  0  0  0
 47114  1  0  0  0
 48 56  1  0  0  0
 48 65  1  0  0  0
 48115  1  0  0  0
 49 50  1  0  0  0
 49 53  1  0  0  0
 49 64  1  0  0  0
 49116  1  0  0  0
 50 51  1  0  0  0
 50117  1  0  0  0
 50118  1  0  0  0
 51 52  1  0  0  0
 51119  1  0  0  0
 51120  1  0  0  0
 52121  1  0  0  0
 52122  1  0  0  0
 53 54  1  0  0  0
 54 55  2  0  0  0
 54123  1  0  0  0
 55 57  1  0  0  0
 55124  1  0  0  0
 56 69  2  0  0  0
 57 58  2  0  0  0
 57125  1  0  0  0
 58126  1  0  0  0
 59 60  1  0  0  0
 59 61  1  0  0  0
 59 62  1  0  0  0
 60127  1  0  0  0
 60128  1  0  0  0
 60129  1  0  0  0
 61130  1  0  0  0
 61131  1  0  0  0
 61132  1  0  0  0
 62133  1  0  0  0
 62134  1  0  0  0
 62135  1  0  0  0
 63 65  1  0  0  0
 63136  1  0  0  0
 63137  1  0  0  0
 63138  1  0  0  0
 64139  1  0  0  0
 65140  1  0  0  0
 68 73  1  0  0  0
 71 73  1  0  0  0
 71 80  1  0  0  0
 71 81  2  0  0  0
 72 80  1  0  0  0
 72141  1  0  0  0
 72142  1  0  0  0
 72143  1  0  0  0
 73144  1  0  0  0
 73145  1  0  0  0
 74 75  1  0  0  0
 74 76  1  0  0  0
 74146  1  0  0  0
 74147  1  0  0  0
 75 77  1  0  0  0
 75148  1  0  0  0
 75149  1  0  0  0
 76 78  1  0  0  0
 76150  1  0  0  0
 76151  1  0  0  0
 77 79  1  0  0  0
 77152  1  0  0  0
 77153  1  0  0  0
 78 80  1  0  0  0
 78154  1  0  0  0
 78155  1  0  0  0
 79156  1  0  0  0
M  ISO  4   1 100  68 101  73 101  79 100
M  END
> <chiral flag>
0

> <version>
0

> <s_m_source_file>
/data/baiqing/PycharmProjects/Reinvent-master-3.2/result/LINK_invent/BTK/process_docking_weight1_custom_sum_contain_oxygen_bond_distance_aromatic_linkinvent_7_9_3/rearranged_h_0009.sdf

> <i_m_source_file_index>
67

> <r_mmod_Potential_Energy-OPLS-2005>
231.720504760742

> <r_mmod_Stretch_Energy-OPLS-2005>
43.7357711791992

> <r_mmod_Bend_Energy-OPLS-2005>
322.181640625

> <r_mmod_Torsional_Energy-OPLS-2005>
255.828857421875

> <r_mmod_Improper_Torsional_Energy-OPLS-2005>
2.25589942932129

> <r_mmod_Van_der_Waal_Energy-OPLS-2005>
163.121795654297

> <r_mmod_Electrostatic_Energy-OPLS-2005>
-327.905578613281

> <r_mmod_Solvation_Energy-OPLS-2005>
-237.309387207031

> <b_mmod_Minimization_Converged-OPLS-2005>
0

> <r_mmod_RMS_Derivative-OPLS-2005>
1.41158890724182

$$$$
68
                    3D
 Structure written by MMmdl.
188195  0  0  1  0            999 V2000
  -30.7577  -14.3831   20.6663 C   0  0  0  0  0  0
  -30.4201  -12.2888   19.4072 C   0  0  0  0  0  0
  -29.5058  -12.5188   18.1926 C   0  0  0  0  0  0
  -28.0302  -12.3563   18.6059 C   0  0  0  0  0  0
  -27.6652  -13.2010   19.8597 C   0  0  2  0  0  0
  -28.6918  -12.9717   20.9908 C   0  0  0  0  0  0
  -25.2585  -13.8161   20.5610 C   0  0  0  0  0  0
  -24.1801  -13.0467   20.9066 C   0  0  0  0  0  0
  -24.6347  -11.6929   20.8654 C   0  0  0  0  0  0
  -23.9031  -10.4327   21.0412 C   0  0  0  0  0  0
  -24.3613   -9.4253   21.9204 C   0  0  0  0  0  0
  -23.6285   -8.2255   22.0789 C   0  0  0  0  0  0
  -22.4234   -8.0304   21.3590 C   0  0  0  0  0  0
  -21.9889   -9.0263   20.4663 C   0  0  0  0  0  0
  -22.7212  -10.2137   20.3068 C   0  0  0  0  0  0
  -21.6830   -6.0750   22.5298 C   0  0  0  0  0  0
  -21.4021   -6.5663   23.8227 C   0  0  0  0  0  0
  -21.3651   -5.6802   24.9176 C   0  0  0  0  0  0
  -21.6020   -4.3050   24.7210 C   0  0  0  0  0  0
  -21.8819   -3.8166   23.4317 C   0  0  0  0  0  0
  -21.9192   -4.7000   22.3397 C   0  0  0  0  0  0
  -22.7839  -13.5304   21.1746 C   0  0  0  0  0  0
  -22.1665   -4.2215   21.0970 F   0  0  0  0  0  0
  -21.5615   -3.4525   25.7691 F   0  0  0  0  0  0
  -30.0417  -13.2445   20.4610 N   0  0  0  0  0  0
  -26.3011  -12.9306   20.3177 N   0  0  0  0  0  0
  -25.9241  -11.6473   20.5553 N   0  0  0  0  0  0
  -22.0450  -12.8341   22.0291 N   0  0  0  0  0  0
  -25.4376  -15.1858   20.4231 N   0  0  0  0  0  0
  -31.8001  -14.6417   20.0603 O   0  0  0  0  0  0
  -21.6625   -6.8878   21.4247 O   0  0  0  0  0  0
  -22.3572  -14.5641   20.6622 O   0  0  0  0  0  0
  -24.6073  -31.8734   23.2123 C   0  0  0  0  0  0
  -25.9040  -32.4854   23.8344 C   0  0  1  0  0  0
  -27.2300  -27.4657   20.1131 C   0  0  0  0  0  0
  -25.5935  -33.8631   24.2290 N   0  0  0  0  0  0
  -23.3864  -30.4953   21.5533 C   0  0  2  0  0  0
  -24.8324  -28.9580   20.1205 C   0  0  0  0  0  0
  -22.7340  -29.4682   22.5056 C   0  0  0  0  0  0
  -18.0244  -28.1372   22.8524 C   0  0  0  0  0  0
  -24.1479  -36.7289   23.2618 C   0  0  0  0  0  0
  -25.9068  -30.8503   21.3581 C   0  0  0  0  0  0
  -25.9848  -29.4846   20.7136 C   0  0  0  0  0  0
  -27.1880  -28.7504   20.7023 C   0  0  0  0  0  0
  -26.0696  -26.9541   19.5033 C   0  0  0  0  0  0
  -24.8683  -27.6877   19.5113 C   0  0  0  0  0  0
  -23.5917  -29.8184   20.1693 C   0  0  0  0  0  0
  -25.4125  -36.3112   24.0303 C   0  0  1  0  0  0
  -20.5836  -28.3624   23.1360 C   0  0  2  0  0  0
  -20.6743  -26.9380   22.5426 C   0  0  0  0  0  0
  -19.5712  -26.6383   21.5207 C   0  0  0  0  0  0
  -18.1892  -26.7915   22.1626 C   0  0  0  0  0  0
  -19.1503  -28.8799   23.2928 C   0  0  0  0  0  0
  -18.9441  -30.1432   23.8910 C   0  0  0  0  0  0
  -17.6458  -30.6580   24.0561 C   0  0  0  0  0  0
  -25.9047  -34.9499   23.5070 C   0  0  0  0  0  0
  -16.5326  -29.9098   23.6336 C   0  0  0  0  0  0
  -16.7256  -28.6504   23.0356 C   0  0  0  0  0  0
  -26.4474  -31.6668   25.0681 C   0  0  0  0  0  0
  -25.3738  -31.3865   26.1440 C   0  0  0  0  0  0
  -27.0275  -30.3087   24.6089 C   0  0  0  0  0  0
  -27.6019  -32.4392   25.7482 C   0  0  0  0  0  0
  -27.5603  -37.1806   24.8451 C   0  0  0  0  0  0
  -21.4092  -29.3035   22.3807 N   0  0  0  0  0  0
  -26.4293  -37.3830   23.9425 N   0  0  0  0  0  0
  -24.6508  -31.0884   22.0995 N   0  0  0  0  0  0
  -23.4165  -28.8207   23.3059 O   0  0  0  0  0  0
  -28.3662  -26.6888   20.0725 O   0  0  0  0  0  0
  -26.5581  -34.8942   22.4636 O   0  0  0  0  0  0
  -23.5302  -32.1456   23.7585 O   0  0  0  0  0  0
  -31.1442  -21.4271   18.3963 C   0  0  0  0  0  0
  -30.8874  -17.5053   20.7585 C   0  0  0  0  0  0
  -28.9080  -25.3866   22.0864 C   0  0  0  0  0  0
  -30.8976  -20.0621   19.0433 C   0  0  0  0  0  0
  -30.8638  -16.5193   21.9349 C   0  0  0  0  0  0
  -29.1865  -26.6468   21.2467 C   0  0  0  0  0  0
  -24.8819  -21.6633   17.7825 C   0  0  0  0  0  0
  -25.8939  -21.5686   16.6388 C   0  0  0  0  0  0
  -25.3949  -20.9055   19.0194 C   0  0  0  0  0  0
  -26.9391  -22.6893   16.7368 C   0  0  0  0  0  0
  -24.8024  -21.4046   20.3427 C   0  0  0  0  0  0
  -28.2865  -22.2928   16.1347 C   0  0  0  0  0  0
  -25.5417  -22.6324   20.9185 C   0  0  0  0  0  0
  -29.4048  -23.2867   16.5090 C   0  0  0  0  0  0
  -26.8506  -22.2689   21.6519 C   0  0  0  0  0  0
  -32.1165  -19.5004   19.8132 C   0  0  0  0  0  0
  -30.8158  -22.7092   16.2836 C   0  0  0  0  0  0
  -27.4534  -23.4158   22.4904 C   0  0  0  0  0  0
  -30.9991  -21.4870   17.0655 N   0  0  0  0  0  0
  -31.7873  -18.4979   20.8353 N   0  0  0  0  0  0
  -27.9341  -24.5479   21.6928 N   0  0  0  0  0  0
  -30.2751  -15.2186   21.5957 N   0  0  0  0  0  0
  -31.3907  -22.4133   19.0905 O   0  0  0  0  0  0
  -30.1077  -17.3559   19.8187 O   0  0  0  0  0  0
  -29.5689  -25.1908   23.1120 O   0  0  0  0  0  0
  -31.4712  -12.3670   19.1197 H   0  0  0  0  0  0
  -30.2925  -11.2741   19.7856 H   0  0  0  0  0  0
  -29.7638  -11.8171   17.4003 H   0  0  0  0  0  0
  -29.6705  -13.5158   17.7826 H   0  0  0  0  0  0
  -27.8579  -11.2983   18.8055 H   0  0  0  0  0  0
  -27.3740  -12.6114   17.7742 H   0  0  0  0  0  0
  -27.7208  -14.2498   19.5703 H   0  0  0  0  0  0
  -28.6393  -11.9411   21.3393 H   0  0  0  0  0  0
  -28.4266  -13.5796   21.8571 H   0  0  0  0  0  0
  -25.2803   -9.5669   22.4732 H   0  0  0  0  0  0
  -24.0012   -7.4628   22.7476 H   0  0  0  0  0  0
  -21.0834   -8.8745   19.8958 H   0  0  0  0  0  0
  -22.3718  -10.9649   19.6115 H   0  0  0  0  0  0
  -21.2047   -7.6183   23.9757 H   0  0  0  0  0  0
  -21.1463   -6.0518   25.9073 H   0  0  0  0  0  0
  -22.0604   -2.7647   23.2774 H   0  0  0  0  0  0
  -22.4070  -12.0075   22.4797 H   0  0  0  0  0  0
  -21.1072  -13.1380   22.2432 H   0  0  0  0  0  0
  -24.6762  -15.8413   20.5678 H   0  0  0  0  0  0
  -26.3013  -15.6340   20.1419 H   0  0  0  0  0  0
  -26.7104  -32.5588   23.1105 H   0  0  0  0  0  0
  -25.0212  -33.9774   25.0507 H   0  0  0  0  0  0
  -22.6682  -31.3065   21.4188 H   0  0  0  0  0  0
  -23.3738  -35.9623   23.3296 H   0  0  0  0  0  0
  -24.3569  -36.8899   22.2031 H   0  0  0  0  0  0
  -23.7198  -37.6475   23.6624 H   0  0  0  0  0  0
  -26.0127  -31.6143   20.5855 H   0  0  0  0  0  0
  -26.7952  -30.9051   21.9771 H   0  0  0  0  0  0
  -28.0656  -29.1964   21.1386 H   0  0  0  0  0  0
  -26.0931  -25.9764   19.0391 H   0  0  0  0  0  0
  -23.9827  -27.2764   19.0468 H   0  0  0  0  0  0
  -23.6935  -30.5860   19.4004 H   0  0  0  0  0  0
  -22.7151  -29.2356   19.8792 H   0  0  0  0  0  0
  -25.1317  -36.1942   25.0784 H   0  0  0  0  0  0
  -20.9928  -28.3178   24.1474 H   0  0  0  0  0  0
  -20.5577  -26.2243   23.3595 H   0  0  0  0  0  0
  -21.6631  -26.7404   22.1261 H   0  0  0  0  0  0
  -19.6832  -25.6282   21.1259 H   0  0  0  0  0  0
  -19.6646  -27.3158   20.6700 H   0  0  0  0  0  0
  -17.4171  -26.6671   21.4008 H   0  0  0  0  0  0
  -18.0272  -26.0019   22.8972 H   0  0  0  0  0  0
  -19.7909  -30.7247   24.2264 H   0  0  0  0  0  0
  -17.5011  -31.6258   24.5162 H   0  0  0  0  0  0
  -15.5344  -30.3013   23.7646 H   0  0  0  0  0  0
  -15.8630  -28.0836   22.7099 H   0  0  0  0  0  0
  -24.5829  -30.7291   25.7803 H   0  0  0  0  0  0
  -24.9029  -32.3084   26.4871 H   0  0  0  0  0  0
  -25.8077  -30.9030   27.0202 H   0  0  0  0  0  0
  -26.2831  -29.6906   24.1043 H   0  0  0  0  0  0
  -27.3877  -29.7291   25.4605 H   0  0  0  0  0  0
  -27.8743  -30.4334   23.9326 H   0  0  0  0  0  0
  -27.2583  -33.3651   26.2112 H   0  0  0  0  0  0
  -28.3839  -32.7062   25.0354 H   0  0  0  0  0  0
  -28.0661  -31.8484   26.5392 H   0  0  0  0  0  0
  -28.2616  -38.0108   24.7598 H   0  0  0  0  0  0
  -28.1104  -36.2673   24.6182 H   0  0  0  0  0  0
  -27.2330  -37.1364   25.8840 H   0  0  0  0  0  0
  -20.9196  -29.8825   21.7127 H   0  0  0  0  0  0
  -26.0158  -38.2875   24.1509 H   0  0  0  0  0  0
  -30.5862  -19.3462   18.2845 H   0  0  0  0  0  0
  -30.0447  -20.1793   19.7158 H   0  0  0  0  0  0
  -30.2848  -16.9634   22.7427 H   0  0  0  0  0  0
  -31.8797  -16.3647   22.3068 H   0  0  0  0  0  0
  -30.2305  -26.6449   20.9283 H   0  0  0  0  0  0
  -29.0716  -27.5044   21.9106 H   0  0  0  0  0  0
  -23.9292  -21.2389   17.4662 H   0  0  0  0  0  0
  -24.6770  -22.7113   18.0119 H   0  0  0  0  0  0
  -25.3943  -21.6041   15.6696 H   0  0  0  0  0  0
  -26.3746  -20.5902   16.6790 H   0  0  0  0  0  0
  -26.4838  -20.9543   19.0754 H   0  0  0  0  0  0
  -25.1656  -19.8468   18.8903 H   0  0  0  0  0  0
  -27.0965  -22.9433   17.7851 H   0  0  0  0  0  0
  -26.5607  -23.5932   16.2571 H   0  0  0  0  0  0
  -24.8252  -20.5886   21.0649 H   0  0  0  0  0  0
  -23.7436  -21.6249   20.1943 H   0  0  0  0  0  0
  -28.2126  -22.1944   15.0536 H   0  0  0  0  0  0
  -28.5328  -21.3000   16.5094 H   0  0  0  0  0  0
  -24.8809  -23.1275   21.6299 H   0  0  0  0  0  0
  -25.7400  -23.3566   20.1300 H   0  0  0  0  0  0
  -29.3156  -23.5781   17.5578 H   0  0  0  0  0  0
  -29.2820  -24.2115   15.9407 H   0  0  0  0  0  0
  -27.5929  -21.8888   20.9518 H   0  0  0  0  0  0
  -26.6374  -21.4452   22.3360 H   0  0  0  0  0  0
  -32.6643  -20.3035   20.3092 H   0  0  0  0  0  0
  -32.8173  -19.0473   19.1114 H   0  0  0  0  0  0
  -31.5815  -23.4462   16.5359 H   0  0  0  0  0  0
  -30.9484  -22.4746   15.2275 H   0  0  0  0  0  0
  -28.2665  -23.0100   23.0962 H   0  0  0  0  0  0
  -26.7133  -23.7843   23.2006 H   0  0  0  0  0  0
  -30.8237  -20.6140   16.5839 H   0  0  0  0  0  0
  -32.3756  -18.5047   21.6590 H   0  0  0  0  0  0
  -27.4508  -24.7827   20.8349 H   0  0  0  0  0  0
  -29.4203  -14.9675   22.0677 H   0  0  0  0  0  0
  1 25  1  0  0  0
  1 30  2  0  0  0
  1 92  1  0  0  0
  2  3  1  0  0  0
  2 25  1  0  0  0
  2 96  1  0  0  0
  2 97  1  0  0  0
  3  4  1  0  0  0
  3 98  1  0  0  0
  3 99  1  0  0  0
  4  5  1  0  0  0
  4100  1  0  0  0
  4101  1  0  0  0
  5  6  1  0  0  0
  5 26  1  0  0  0
  5102  1  0  0  0
  6 25  1  0  0  0
  6103  1  0  0  0
  6104  1  0  0  0
  7  8  2  0  0  0
  7 26  1  0  0  0
  7 29  1  0  0  0
  8  9  1  0  0  0
  8 22  1  0  0  0
  9 10  1  0  0  0
  9 27  2  0  0  0
 10 11  2  0  0  0
 10 15  1  0  0  0
 11 12  1  0  0  0
 11105  1  0  0  0
 12 13  2  0  0  0
 12106  1  0  0  0
 13 14  1  0  0  0
 13 31  1  0  0  0
 14 15  2  0  0  0
 14107  1  0  0  0
 15108  1  0  0  0
 16 17  2  0  0  0
 16 21  1  0  0  0
 16 31  1  0  0  0
 17 18  1  0  0  0
 17109  1  0  0  0
 18 19  2  0  0  0
 18110  1  0  0  0
 19 20  1  0  0  0
 19 24  1  0  0  0
 20 21  2  0  0  0
 20111  1  0  0  0
 21 23  1  0  0  0
 22 28  1  0  0  0
 22 32  2  0  0  0
 26 27  1  0  0  0
 28112  1  0  0  0
 28113  1  0  0  0
 29114  1  0  0  0
 29115  1  0  0  0
 33 34  1  0  0  0
 33 66  1  0  0  0
 33 70  2  0  0  0
 34 36  1  0  0  0
 34 59  1  0  0  0
 34116  1  0  0  0
 35 44  2  0  0  0
 35 45  1  0  0  0
 35 68  1  0  0  0
 36 56  1  0  0  0
 36117  1  0  0  0
 37 39  1  0  0  0
 37 47  1  0  0  0
 37 66  1  0  0  0
 37118  1  0  0  0
 38 43  2  0  0  0
 38 46  1  0  0  0
 38 47  1  0  0  0
 39 64  1  0  0  0
 39 67  2  0  0  0
 40 52  1  0  0  0
 40 53  2  0  0  0
 40 58  1  0  0  0
 41119  1  0  0  0
 41120  1  0  0  0
 41121  1  0  0  0
 41 48  1  0  0  0
 42 43  1  0  0  0
 42 66  1  0  0  0
 42122  1  0  0  0
 42123  1  0  0  0
 43 44  1  0  0  0
 44124  1  0  0  0
 45 46  2  0  0  0
 45125  1  0  0  0
 46126  1  0  0  0
 47127  1  0  0  0
 47128  1  0  0  0
 48 56  1  0  0  0
 48 65  1  0  0  0
 48129  1  0  0  0
 49 50  1  0  0  0
 49 53  1  0  0  0
 49 64  1  0  0  0
 49130  1  0  0  0
 50 51  1  0  0  0
 50131  1  0  0  0
 50132  1  0  0  0
 51 52  1  0  0  0
 51133  1  0  0  0
 51134  1  0  0  0
 52135  1  0  0  0
 52136  1  0  0  0
 53 54  1  0  0  0
 54 55  2  0  0  0
 54137  1  0  0  0
 55 57  1  0  0  0
 55138  1  0  0  0
 56 69  2  0  0  0
 57 58  2  0  0  0
 57139  1  0  0  0
 58140  1  0  0  0
 59 60  1  0  0  0
 59 61  1  0  0  0
 59 62  1  0  0  0
 60141  1  0  0  0
 60142  1  0  0  0
 60143  1  0  0  0
 61144  1  0  0  0
 61145  1  0  0  0
 61146  1  0  0  0
 62147  1  0  0  0
 62148  1  0  0  0
 62149  1  0  0  0
 63 65  1  0  0  0
 63150  1  0  0  0
 63151  1  0  0  0
 63152  1  0  0  0
 64153  1  0  0  0
 65154  1  0  0  0
 68 76  1  0  0  0
 71 74  1  0  0  0
 71 89  1  0  0  0
 71 93  2  0  0  0
 72 75  1  0  0  0
 72 90  1  0  0  0
 72 94  2  0  0  0
 73 76  1  0  0  0
 73 91  1  0  0  0
 73 95  2  0  0  0
 74 86  1  0  0  0
 74155  1  0  0  0
 74156  1  0  0  0
 75 92  1  0  0  0
 75157  1  0  0  0
 75158  1  0  0  0
 76159  1  0  0  0
 76160  1  0  0  0
 77 78  1  0  0  0
 77 79  1  0  0  0
 77161  1  0  0  0
 77162  1  0  0  0
 78 80  1  0  0  0
 78163  1  0  0  0
 78164  1  0  0  0
 79 81  1  0  0  0
 79165  1  0  0  0
 79166  1  0  0  0
 80 82  1  0  0  0
 80167  1  0  0  0
 80168  1  0  0  0
 81 83  1  0  0  0
 81169  1  0  0  0
 81170  1  0  0  0
 82 84  1  0  0  0
 82171  1  0  0  0
 82172  1  0  0  0
 83 85  1  0  0  0
 83173  1  0  0  0
 83174  1  0  0  0
 84 87  1  0  0  0
 84175  1  0  0  0
 84176  1  0  0  0
 85 88  1  0  0  0
 85177  1  0  0  0
 85178  1  0  0  0
 86 90  1  0  0  0
 86179  1  0  0  0
 86180  1  0  0  0
 87 89  1  0  0  0
 87181  1  0  0  0
 87182  1  0  0  0
 88 91  1  0  0  0
 88183  1  0  0  0
 88184  1  0  0  0
 89185  1  0  0  0
 90186  1  0  0  0
 91187  1  0  0  0
 92188  1  0  0  0
M  ISO  4   1 100  68 101  76 101  92 100
M  END
> <chiral flag>
0

> <version>
0

> <s_m_source_file>
/data/baiqing/PycharmProjects/Reinvent-master-3.2/result/LINK_invent/BTK/process_docking_weight1_custom_sum_contain_oxygen_bond_distance_aromatic_linkinvent_7_9_3/rearranged_h_0009.sdf

> <i_m_source_file_index>
68

> <r_mmod_Potential_Energy-OPLS-2005>
-339.299377441406

> <r_mmod_Stretch_Energy-OPLS-2005>
34.6968879699707

> <r_mmod_Bend_Energy-OPLS-2005>
104.884506225586

> <r_mmod_Torsional_Energy-OPLS-2005>
227.875991821289

> <r_mmod_Improper_Torsional_Energy-OPLS-2005>
2.77796578407288

> <r_mmod_Van_der_Waal_Energy-OPLS-2005>
141.696075439453

> <r_mmod_Electrostatic_Energy-OPLS-2005>
-581.04248046875

> <r_mmod_Solvation_Energy-OPLS-2005>
-277.899780273438

> <b_mmod_Minimization_Converged-OPLS-2005>
0

> <r_mmod_RMS_Derivative-OPLS-2005>
7.20520401000977

$$$$
69
                    3D
 Structure written by MMmdl.
177185  0  0  1  0            999 V2000
  -28.1432  -13.9002   19.0922 C   0  0  0  0  0  0
  -30.3010  -12.6152   19.0487 C   0  0  0  0  0  0
  -29.4000  -11.5601   18.5181 C   0  0  0  0  0  0
  -28.2107  -11.2633   19.5596 C   0  0  0  0  0  0
  -27.9843  -12.2373   20.9875 C   0  0  2  0  0  0
  -29.2696  -12.9295   21.1313 C   0  0  0  0  0  0
  -25.9729  -14.1003   21.2066 C   0  0  0  0  0  0
  -24.7361  -13.7818   21.2993 C   0  0  0  0  0  0
  -24.9247  -12.2727   21.7243 C   0  0  0  0  0  0
  -24.2695  -10.9402   21.3706 C   0  0  0  0  0  0
  -24.3462   -9.6977   22.5512 C   0  0  0  0  0  0
  -23.5960   -8.2049   22.3294 C   0  0  0  0  0  0
  -22.6545   -7.7008   21.0081 C   0  0  0  0  0  0
  -22.3753   -8.5796   19.5522 C   0  0  0  0  0  0
  -23.0192  -10.1955   19.3132 C   0  0  0  0  0  0
  -21.7045   -5.9986   22.4495 C   0  0  0  0  0  0
  -21.3526   -6.5026   23.7323 C   0  0  0  0  0  0
  -21.3315   -5.6559   24.8589 C   0  0  0  0  0  0
  -21.6108   -4.2873   24.7065 C   0  0  0  0  0  0
  -21.9146   -3.7736   23.4343 C   0  0  0  0  0  0
  -21.9571   -4.6271   22.3189 C   0  0  0  0  0  0
  -23.5415  -14.8085   20.6607 C   0  0  0  0  0  0
  -22.2139   -4.1276   21.0887 F   0  0  0  0  0  0
  -21.5714   -3.4594   25.7762 F   0  0  0  0  0  0
  -29.2952  -13.3728   19.7740 N   0  0  0  0  0  0
  -26.7046  -12.8414   21.3068 N   0  0  0  0  0  0
  -26.0907  -11.8424   21.7603 N   0  0  0  0  0  0
  -22.2108  -14.9189   20.9689 N   0  0  0  0  0  0
  -26.3636  -15.3673   20.8153 N   0  0  0  0  0  0
  -28.9209  -14.9095   18.8722 O   0  0  0  0  0  0
  -21.7173   -6.7244   21.2737 O   0  0  0  0  0  0
  -23.5725  -15.3063   19.5930 O   0  0  0  0  0  0
  -24.6471  -31.8445   23.1949 C   0  0  0  0  0  0
  -25.9265  -32.4657   23.8300 C   0  0  1  0  0  0
  -26.9167  -26.9588   20.3309 C   0  0  0  0  0  0
  -25.6027  -33.8477   24.2198 N   0  0  0  0  0  0
  -23.4412  -30.4873   21.5366 C   0  0  2  0  0  0
  -24.8519  -28.9260   20.0783 C   0  0  0  0  0  0
  -22.7544  -29.4595   22.4752 C   0  0  0  0  0  0
  -18.0308  -28.1397   22.8467 C   0  0  0  0  0  0
  -24.1486  -36.7209   23.2642 C   0  0  0  0  0  0
  -26.0032  -30.6747   21.4147 C   0  0  0  0  0  0
  -26.0243  -29.2807   20.7591 C   0  0  0  0  0  0
  -27.0876  -28.3039   20.8712 C   0  0  0  0  0  0
  -25.8183  -26.7691   19.4926 C   0  0  0  0  0  0
  -24.7811  -27.7055   19.3973 C   0  0  0  0  0  0
  -23.6610  -29.8640   20.1338 C   0  0  0  0  0  0
  -25.4125  -36.3002   24.0311 C   0  0  1  0  0  0
  -20.5922  -28.3743   23.1184 C   0  0  2  0  0  0
  -20.6805  -26.9444   22.5375 C   0  0  0  0  0  0
  -19.5768  -26.6380   21.5199 C   0  0  0  0  0  0
  -18.1951  -26.7931   22.1624 C   0  0  0  0  0  0
  -19.1566  -28.8880   23.2824 C   0  0  0  0  0  0
  -18.9493  -30.1473   23.8854 C   0  0  0  0  0  0
  -17.6491  -30.6595   24.0553 C   0  0  0  0  0  0
  -25.9093  -34.9383   23.5047 C   0  0  0  0  0  0
  -16.5376  -29.9086   23.6348 C   0  0  0  0  0  0
  -16.7292  -28.6505   23.0368 C   0  0  0  0  0  0
  -26.4562  -31.6559   25.0777 C   0  0  0  0  0  0
  -25.3725  -31.3785   26.1457 C   0  0  0  0  0  0
  -27.0471  -30.2942   24.6470 C   0  0  0  0  0  0
  -27.6058  -32.4366   25.7574 C   0  0  0  0  0  0
  -27.5568  -37.1768   24.8467 C   0  0  0  0  0  0
  -21.4244  -29.3069   22.3519 N   0  0  0  0  0  0
  -26.4270  -37.3739   23.9421 N   0  0  0  0  0  0
  -24.7178  -31.0283   22.1001 N   0  0  0  0  0  0
  -23.4205  -28.8118   23.2880 O   0  0  0  0  0  0
  -27.6022  -25.7263   20.6116 O   0  0  0  0  0  0
  -26.5671  -34.8892   22.4622 O   0  0  0  0  0  0
  -23.5588  -32.1397   23.7144 O   0  0  0  0  0  0
  -21.9332  -11.5270   20.8697 C   0  0  0  0  0  0
  -25.3646  -10.3704   19.3559 C   0  0  0  0  0  0
  -22.3074  -10.0048   21.3761 C   0  0  0  0  0  0
  -24.5747   -9.0682   20.2975 C   0  0  0  0  0  0
  -24.8823  -12.0701   19.2414 C   0  0  0  0  0  0
  -23.0541  -12.4293   20.0545 C   0  0  0  0  0  0
  -21.1912   -9.5790   22.3720 C   0  0  0  0  0  0
  -26.3740   -7.5929   21.0865 C   0  0  0  0  0  0
  -25.4230   -7.3543   18.7977 C   0  0  0  0  0  0
  -25.0990  -19.9113   21.7994 C   0  0  0  0  0  0
  -24.8591  -18.4806   22.8248 C   0  0  0  0  0  0
  -25.9233  -21.4607   22.0698 C   0  0  0  0  0  0
  -23.8159  -17.0623   22.6356 C   0  0  0  0  0  0
  -26.2769  -22.8570   21.0263 C   0  0  0  0  0  0
  -23.7273  -15.3975   23.3661 C   0  0  0  0  0  0
  -26.8565  -24.4959   21.3811 C   0  0  0  0  0  0
  -22.8852  -13.7530   23.0491 C   0  0  0  0  0  0
  -26.4771  -13.2671   18.7997 N   0  0  0  0  0  0
  -25.2499   -7.8047   20.1770 N   0  0  0  0  0  0
  -22.5817  -12.7543   21.6251 O   0  0  0  0  0  0
  -30.7459  -13.1954   18.2373 H   0  0  0  0  0  0
  -31.1282  -12.2178   19.6364 H   0  0  0  0  0  0
  -29.9647  -10.6486   18.3175 H   0  0  0  0  0  0
  -29.0027  -11.8513   17.5406 H   0  0  0  0  0  0
  -28.2932  -10.2261   19.8885 H   0  0  0  0  0  0
  -27.4645  -11.2635   18.8184 H   0  0  0  0  0  0
  -27.9591  -13.2458   21.3747 H   0  0  0  0  0  0
  -30.0049  -12.1585   21.3646 H   0  0  0  0  0  0
  -29.5600  -13.7223   21.8636 H   0  0  0  0  0  0
  -24.8740   -9.8913   23.4730 H   0  0  0  0  0  0
  -23.6693   -7.5477   23.1815 H   0  0  0  0  0  0
  -21.7208   -8.1639   18.7984 H   0  0  0  0  0  0
  -22.8355  -10.7248   18.3835 H   0  0  0  0  0  0
  -21.0593   -7.5214   23.8828 H   0  0  0  0  0  0
  -21.0684   -6.0479   25.8310 H   0  0  0  0  0  0
  -22.1150   -2.7213   23.3111 H   0  0  0  0  0  0
  -21.8011  -14.2202   21.5735 H   0  0  0  0  0  0
  -21.6315  -15.5283   20.4133 H   0  0  0  0  0  0
  -25.7341  -16.1581   20.7899 H   0  0  0  0  0  0
  -27.3326  -15.6526   20.7580 H   0  0  0  0  0  0
  -26.7305  -32.5191   23.0983 H   0  0  0  0  0  0
  -25.0184  -33.9599   25.0351 H   0  0  0  0  0  0
  -22.7455  -31.3192   21.4085 H   0  0  0  0  0  0
  -23.3778  -35.9507   23.3268 H   0  0  0  0  0  0
  -24.3569  -36.8884   22.2063 H   0  0  0  0  0  0
  -23.7198  -37.6372   23.6711 H   0  0  0  0  0  0
  -26.1985  -31.4238   20.6453 H   0  0  0  0  0  0
  -26.8609  -30.6969   22.0744 H   0  0  0  0  0  0
  -27.9426  -28.5209   21.4967 H   0  0  0  0  0  0
  -25.6764  -25.8079   19.0176 H   0  0  0  0  0  0
  -23.8956  -27.4508   18.8321 H   0  0  0  0  0  0
  -23.8317  -30.6614   19.4090 H   0  0  0  0  0  0
  -22.7601  -29.3489   19.7975 H   0  0  0  0  0  0
  -25.1309  -36.1814   25.0801 H   0  0  0  0  0  0
  -21.0040  -28.3355   24.1293 H   0  0  0  0  0  0
  -20.5716  -26.2359   23.3599 H   0  0  0  0  0  0
  -21.6667  -26.7456   22.1157 H   0  0  0  0  0  0
  -19.6939  -25.6278   21.1255 H   0  0  0  0  0  0
  -19.6697  -27.3158   20.6700 H   0  0  0  0  0  0
  -17.4212  -26.6643   21.4041 H   0  0  0  0  0  0
  -18.0382  -26.0081   22.9035 H   0  0  0  0  0  0
  -19.7974  -30.7299   24.2199 H   0  0  0  0  0  0
  -17.5055  -31.6276   24.5163 H   0  0  0  0  0  0
  -15.5379  -30.2985   23.7710 H   0  0  0  0  0  0
  -15.8689  -28.0819   22.7122 H   0  0  0  0  0  0
  -24.5834  -30.7232   25.7758 H   0  0  0  0  0  0
  -24.9019  -32.2996   26.4905 H   0  0  0  0  0  0
  -25.7971  -30.8896   27.0233 H   0  0  0  0  0  0
  -26.3143  -29.6601   24.1473 H   0  0  0  0  0  0
  -27.4018  -29.7324   25.5121 H   0  0  0  0  0  0
  -27.9077  -30.4148   23.9887 H   0  0  0  0  0  0
  -27.2614  -33.3684   26.2080 H   0  0  0  0  0  0
  -28.3917  -32.6904   25.0445 H   0  0  0  0  0  0
  -28.0681  -31.8556   26.5567 H   0  0  0  0  0  0
  -28.2541  -38.0112   24.7570 H   0  0  0  0  0  0
  -28.1112  -36.2638   24.6229 H   0  0  0  0  0  0
  -27.2291  -37.1324   25.8872 H   0  0  0  0  0  0
  -20.9416  -29.8797   21.6734 H   0  0  0  0  0  0
  -26.0115  -38.2790   24.1469 H   0  0  0  0  0  0
  -20.9026  -11.8706   21.0287 H   0  0  0  0  0  0
  -26.1685   -9.9474   18.7887 H   0  0  0  0  0  0
  -20.4968  -10.4013   22.5370 H   0  0  0  0  0  0
  -21.6066   -9.4033   23.3616 H   0  0  0  0  0  0
  -20.5700   -8.7565   22.0262 H   0  0  0  0  0  0
  -26.6037   -8.4821   21.6770 H   0  0  0  0  0  0
  -27.2819   -7.3059   20.5528 H   0  0  0  0  0  0
  -26.1317   -6.7811   21.7759 H   0  0  0  0  0  0
  -24.9050   -7.9994   18.0850 H   0  0  0  0  0  0
  -25.0219   -6.3461   18.6813 H   0  0  0  0  0  0
  -26.4765   -7.3320   18.5152 H   0  0  0  0  0  0
  -24.1031  -20.1746   21.4416 H   0  0  0  0  0  0
  -25.5827  -19.5087   20.9069 H   0  0  0  0  0  0
  -24.6241  -18.8718   23.8139 H   0  0  0  0  0  0
  -25.8615  -18.0692   22.9410 H   0  0  0  0  0  0
  -26.9074  -21.1659   22.4353 H   0  0  0  0  0  0
  -25.4383  -21.8797   22.9519 H   0  0  0  0  0  0
  -23.9121  -17.0088   21.5634 H   0  0  0  0  0  0
  -22.8039  -17.4485   22.7612 H   0  0  0  0  0  0
  -25.3522  -23.0202   20.4719 H   0  0  0  0  0  0
  -26.9627  -22.4759   20.2713 H   0  0  0  0  0  0
  -23.4524  -15.6001   24.4006 H   0  0  0  0  0  0
  -24.7773  -15.1257   23.4789 H   0  0  0  0  0  0
  -27.5262  -24.3411   22.2266 H   0  0  0  0  0  0
  -25.9927  -24.9781   21.8408 H   0  0  0  0  0  0
  -21.8829  -13.8831   23.4612 H   0  0  0  0  0  0
  -23.3389  -13.0695   23.7661 H   0  0  0  0  0  0
  -26.0868  -14.0341   18.2696 H   0  0  0  0  0  0
  1 25  1  0  0  0
  1 30  2  0  0  0
  1 88  1  0  0  0
  2  3  1  0  0  0
  2 25  1  0  0  0
  2 91  1  0  0  0
  2 92  1  0  0  0
  3  4  1  0  0  0
  3 93  1  0  0  0
  3 94  1  0  0  0
  4  5  1  0  0  0
  4 95  1  0  0  0
  4 96  1  0  0  0
  5  6  1  0  0  0
  5 26  1  0  0  0
  5 97  1  0  0  0
  6 25  1  0  0  0
  6 98  1  0  0  0
  6 99  1  0  0  0
  7  8  2  0  0  0
  7 26  1  0  0  0
  7 29  1  0  0  0
  8  9  1  0  0  0
  8 22  1  0  0  0
  9 10  1  0  0  0
  9 27  2  0  0  0
 10 11  2  0  0  0
 10 15  1  0  0  0
 11 12  1  0  0  0
 11100  1  0  0  0
 12 13  2  0  0  0
 12101  1  0  0  0
 13 14  1  0  0  0
 13 31  1  0  0  0
 14 15  2  0  0  0
 14102  1  0  0  0
 15103  1  0  0  0
 16 17  2  0  0  0
 16 21  1  0  0  0
 16 31  1  0  0  0
 17 18  1  0  0  0
 17104  1  0  0  0
 18 19  2  0  0  0
 18105  1  0  0  0
 19 20  1  0  0  0
 19 24  1  0  0  0
 20 21  2  0  0  0
 20106  1  0  0  0
 21 23  1  0  0  0
 22 28  1  0  0  0
 22 32  2  0  0  0
 26 27  1  0  0  0
 28107  1  0  0  0
 28108  1  0  0  0
 29109  1  0  0  0
 29110  1  0  0  0
 33 34  1  0  0  0
 33 66  1  0  0  0
 33 70  2  0  0  0
 34 36  1  0  0  0
 34 59  1  0  0  0
 34111  1  0  0  0
 35 44  2  0  0  0
 35 45  1  0  0  0
 35 68  1  0  0  0
 36 56  1  0  0  0
 36112  1  0  0  0
 37 39  1  0  0  0
 37 47  1  0  0  0
 37 66  1  0  0  0
 37113  1  0  0  0
 38 43  2  0  0  0
 38 46  1  0  0  0
 38 47  1  0  0  0
 39 64  1  0  0  0
 39 67  2  0  0  0
 40 52  1  0  0  0
 40 53  2  0  0  0
 40 58  1  0  0  0
 41114  1  0  0  0
 41115  1  0  0  0
 41116  1  0  0  0
 41 48  1  0  0  0
 42 43  1  0  0  0
 42 66  1  0  0  0
 42117  1  0  0  0
 42118  1  0  0  0
 43 44  1  0  0  0
 44119  1  0  0  0
 45 46  2  0  0  0
 45120  1  0  0  0
 46121  1  0  0  0
 47122  1  0  0  0
 47123  1  0  0  0
 48 56  1  0  0  0
 48 65  1  0  0  0
 48124  1  0  0  0
 49 50  1  0  0  0
 49 53  1  0  0  0
 49 64  1  0  0  0
 49125  1  0  0  0
 50 51  1  0  0  0
 50126  1  0  0  0
 50127  1  0  0  0
 51 52  1  0  0  0
 51128  1  0  0  0
 51129  1  0  0  0
 52130  1  0  0  0
 52131  1  0  0  0
 53 54  1  0  0  0
 54 55  2  0  0  0
 54132  1  0  0  0
 55 57  1  0  0  0
 55133  1  0  0  0
 56 69  2  0  0  0
 57 58  2  0  0  0
 57134  1  0  0  0
 58135  1  0  0  0
 59 60  1  0  0  0
 59 61  1  0  0  0
 59 62  1  0  0  0
 60136  1  0  0  0
 60137  1  0  0  0
 60138  1  0  0  0
 61139  1  0  0  0
 61140  1  0  0  0
 61141  1  0  0  0
 62142  1  0  0  0
 62143  1  0  0  0
 62144  1  0  0  0
 63 65  1  0  0  0
 63145  1  0  0  0
 63146  1  0  0  0
 63147  1  0  0  0
 64148  1  0  0  0
 65149  1  0  0  0
 68 86  1  0  0  0
 71 73  2  0  0  0
 71 76  1  0  0  0
 71150  1  0  0  0
 72 74  2  0  0  0
 72 75  1  0  0  0
 72151  1  0  0  0
 73 74  1  0  0  0
 73 77  1  0  0  0
 74 89  1  0  0  0
 75 76  2  0  0  0
 75 88  1  0  0  0
 76 90  1  0  0  0
 77152  1  0  0  0
 77153  1  0  0  0
 77154  1  0  0  0
 78 89  1  0  0  0
 78155  1  0  0  0
 78156  1  0  0  0
 78157  1  0  0  0
 79 89  1  0  0  0
 79158  1  0  0  0
 79159  1  0  0  0
 79160  1  0  0  0
 80 81  1  0  0  0
 80 82  1  0  0  0
 80161  1  0  0  0
 80162  1  0  0  0
 81 83  1  0  0  0
 81163  1  0  0  0
 81164  1  0  0  0
 82 84  1  0  0  0
 82165  1  0  0  0
 82166  1  0  0  0
 83 85  1  0  0  0
 83167  1  0  0  0
 83168  1  0  0  0
 84 86  1  0  0  0
 84169  1  0  0  0
 84170  1  0  0  0
 85 87  1  0  0  0
 85171  1  0  0  0
 85172  1  0  0  0
 86173  1  0  0  0
 86174  1  0  0  0
 87 90  1  0  0  0
 87175  1  0  0  0
 87176  1  0  0  0
 88177  1  0  0  0
M  ISO  4   1 100  68 101  86 101  88 100
M  END
> <chiral flag>
0

> <version>
0

> <s_m_source_file>
/data/baiqing/PycharmProjects/Reinvent-master-3.2/result/LINK_invent/BTK/process_docking_weight1_custom_sum_contain_oxygen_bond_distance_aromatic_linkinvent_7_9_3/rearranged_h_0009.sdf

> <i_m_source_file_index>
69

> <r_mmod_Potential_Energy-OPLS-2005>
23201.08984375

> <r_mmod_Stretch_Energy-OPLS-2005>
10660.900390625

> <r_mmod_Bend_Energy-OPLS-2005>
2211.298828125

> <r_mmod_Torsional_Energy-OPLS-2005>
616.959350585938

> <r_mmod_Improper_Torsional_Energy-OPLS-2005>
66.6615905761719

> <r_mmod_Van_der_Waal_Energy-OPLS-2005>
5100.208984375

> <r_mmod_Electrostatic_Energy-OPLS-2005>
-386.388092041016

> <r_mmod_Solvation_Energy-OPLS-2005>
-182.205322265625

> <b_mmod_Minimization_Converged-OPLS-2005>
0

> <r_mmod_RMS_Derivative-OPLS-2005>
6.84286212921143

$$$$
70
                    3D
 Structure written by MMmdl.
143150  0  0  1  0            999 V2000
  -30.1636  -16.0165   20.2837 C   0  0  0  0  0  0
  -30.4021  -13.3807   19.5097 C   0  0  0  0  0  0
  -29.5672  -12.7447   18.3499 C   0  0  0  0  0  0
  -28.1808  -12.2975   18.8321 C   0  0  0  0  0  0
  -27.5888  -13.3376   19.8001 C   0  0  2  0  0  0
  -28.5861  -13.8471   20.8777 C   0  0  0  0  0  0
  -25.2337  -13.8308   20.5832 C   0  0  0  0  0  0
  -24.1745  -13.0427   20.9297 C   0  0  0  0  0  0
  -24.6485  -11.6955   20.8763 C   0  0  0  0  0  0
  -23.9183  -10.4297   21.0405 C   0  0  0  0  0  0
  -24.3690   -9.4205   21.9200 C   0  0  0  0  0  0
  -23.6323   -8.2263   22.0773 C   0  0  0  0  0  0
  -22.4301   -8.0322   21.3557 C   0  0  0  0  0  0
  -21.9971   -9.0311   20.4658 C   0  0  0  0  0  0
  -22.7347  -10.2160   20.3056 C   0  0  0  0  0  0
  -21.6865   -6.0767   22.5277 C   0  0  0  0  0  0
  -21.4023   -6.5660   23.8211 C   0  0  0  0  0  0
  -21.3650   -5.6801   24.9170 C   0  0  0  0  0  0
  -21.6034   -4.3069   24.7210 C   0  0  0  0  0  0
  -21.8818   -3.8167   23.4328 C   0  0  0  0  0  0
  -21.9194   -4.6989   22.3390 C   0  0  0  0  0  0
  -22.7748  -13.5156   21.1899 C   0  0  0  0  0  0
  -22.1667   -4.2180   21.0968 F   0  0  0  0  0  0
  -21.5617   -3.4544   25.7721 F   0  0  0  0  0  0
  -29.6793  -14.5908   20.1704 N   0  0  0  0  0  0
  -26.2827  -12.9698   20.3296 N   0  0  0  0  0  0
  -25.9450  -11.6736   20.5678 N   0  0  0  0  0  0
  -22.0376  -12.8144   22.0431 N   0  0  0  0  0  0
  -25.3914  -15.2038   20.4227 N   0  0  0  0  0  0
  -31.4110  -15.8730   20.3150 O   0  0  0  0  0  0
  -21.6650   -6.8922   21.4243 O   0  0  0  0  0  0
  -22.3446  -14.5464   20.6738 O   0  0  0  0  0  0
  -24.7056  -31.7721   23.1279 C   0  0  0  0  0  0
  -25.9532  -32.4316   23.7901 C   0  0  1  0  0  0
  -27.2397  -26.4470   20.2423 C   0  0  0  0  0  0
  -25.6018  -33.8158   24.1777 N   0  0  0  0  0  0
  -23.5424  -30.3631   21.4905 C   0  0  2  0  0  0
  -25.0002  -28.6446   20.1351 C   0  0  0  0  0  0
  -22.7854  -29.4187   22.4644 C   0  0  0  0  0  0
  -18.0371  -28.1416   22.8423 C   0  0  0  0  0  0
  -24.1517  -36.7085   23.2660 C   0  0  0  0  0  0
  -26.1337  -30.4200   21.4327 C   0  0  0  0  0  0
  -26.1981  -28.9547   20.7902 C   0  0  0  0  0  0
  -27.2916  -27.8963   20.7967 C   0  0  0  0  0  0
  -26.0015  -26.4115   19.5305 C   0  0  0  0  0  0
  -24.9557  -27.3989   19.4822 C   0  0  0  0  0  0
  -23.8105  -29.6337   20.1397 C   0  0  0  0  0  0
  -25.4171  -36.2793   24.0256 C   0  0  1  0  0  0
  -20.6014  -28.3800   23.1070 C   0  0  2  0  0  0
  -20.6839  -26.9442   22.5381 C   0  0  0  0  0  0
  -19.5827  -26.6358   21.5191 C   0  0  0  0  0  0
  -18.2003  -26.7940   22.1583 C   0  0  0  0  0  0
  -19.1638  -28.8931   23.2716 C   0  0  0  0  0  0
  -18.9548  -30.1508   23.8772 C   0  0  0  0  0  0
  -17.6539  -30.6592   24.0541 C   0  0  0  0  0  0
  -25.9163  -34.9196   23.4875 C   0  0  0  0  0  0
  -16.5425  -29.9075   23.6350 C   0  0  0  0  0  0
  -16.7348  -28.6498   23.0359 C   0  0  0  0  0  0
  -26.4636  -31.6450   25.0620 C   0  0  0  0  0  0
  -25.3610  -31.3840   26.1159 C   0  0  0  0  0  0
  -27.0610  -30.2754   24.6715 C   0  0  0  0  0  0
  -27.6057  -32.4362   25.7419 C   0  0  0  0  0  0
  -27.5566  -37.1691   24.8469 C   0  0  0  0  0  0
  -21.4482  -29.3015   22.3371 N   0  0  0  0  0  0
  -26.4271  -37.3581   23.9410 N   0  0  0  0  0  0
  -24.8204  -30.8911   22.0685 N   0  0  0  0  0  0
  -23.4189  -28.7845   23.3110 O   0  0  0  0  0  0
  -28.2103  -25.1382   20.2091 O   0  0  0  0  0  0
  -26.5834  -34.8827   22.4520 O   0  0  0  0  0  0
  -23.6030  -32.0923   23.6086 O   0  0  0  0  0  0
  -28.1464  -17.3478   19.4672 C   0  0  0  0  0  0
  -28.8124  -21.3013   19.9737 C   0  0  0  0  0  0
  -29.3809  -19.3622   20.5689 C   0  0  0  0  0  0
  -28.2518  -23.2636   20.5080 C   0  0  0  0  0  0
  -29.4090  -17.4905   20.1879 N   0  0  0  0  0  0
  -31.3491  -13.7206   19.0871 H   0  0  0  0  0  0
  -30.6891  -12.6298   20.2484 H   0  0  0  0  0  0
  -30.1007  -11.9032   17.9056 H   0  0  0  0  0  0
  -29.4507  -13.4882   17.5599 H   0  0  0  0  0  0
  -28.2969  -11.3475   19.3561 H   0  0  0  0  0  0
  -27.5119  -12.1116   17.9905 H   0  0  0  0  0  0
  -27.3888  -14.1854   19.1460 H   0  0  0  0  0  0
  -28.9521  -13.0395   21.5131 H   0  0  0  0  0  0
  -28.0824  -14.5461   21.5462 H   0  0  0  0  0  0
  -25.2818   -9.5670   22.4811 H   0  0  0  0  0  0
  -24.0006   -7.4646   22.7503 H   0  0  0  0  0  0
  -21.0901   -8.8859   19.8964 H   0  0  0  0  0  0
  -22.3825  -10.9720   19.6176 H   0  0  0  0  0  0
  -21.2033   -7.6171   23.9723 H   0  0  0  0  0  0
  -21.1463   -6.0535   25.9069 H   0  0  0  0  0  0
  -22.0599   -2.7631   23.2819 H   0  0  0  0  0  0
  -22.3953  -11.9803   22.4832 H   0  0  0  0  0  0
  -21.0994  -13.1198   22.2586 H   0  0  0  0  0  0
  -24.6180  -15.8537   20.5135 H   0  0  0  0  0  0
  -26.2365  -15.6377   20.0778 H   0  0  0  0  0  0
  -26.7628  -32.4715   23.0604 H   0  0  0  0  0  0
  -25.0022  -33.9142   24.9835 H   0  0  0  0  0  0
  -22.8827  -31.2078   21.2796 H   0  0  0  0  0  0
  -23.3793  -35.9400   23.3237 H   0  0  0  0  0  0
  -24.3589  -36.8852   22.2098 H   0  0  0  0  0  0
  -23.7284  -37.6231   23.6819 H   0  0  0  0  0  0
  -26.3696  -31.1317   20.6405 H   0  0  0  0  0  0
  -26.9701  -30.4928   22.1139 H   0  0  0  0  0  0
  -28.1969  -28.1645   21.3228 H   0  0  0  0  0  0
  -25.7942  -25.4939   18.9988 H   0  0  0  0  0  0
  -24.0597  -27.1443   18.9321 H   0  0  0  0  0  0
  -24.0068  -30.3831   19.3723 H   0  0  0  0  0  0
  -22.9079  -29.1151   19.8100 H   0  0  0  0  0  0
  -25.1403  -36.1503   25.0741 H   0  0  0  0  0  0
  -21.0074  -28.3462   24.1202 H   0  0  0  0  0  0
  -20.5710  -26.2429   23.3662 H   0  0  0  0  0  0
  -21.6702  -26.7377   22.1213 H   0  0  0  0  0  0
  -19.7002  -25.6243   21.1297 H   0  0  0  0  0  0
  -19.6788  -27.3096   20.6667 H   0  0  0  0  0  0
  -17.4282  -26.6659   21.3976 H   0  0  0  0  0  0
  -18.0400  -26.0087   22.8982 H   0  0  0  0  0  0
  -19.8041  -30.7337   24.2090 H   0  0  0  0  0  0
  -17.5110  -31.6270   24.5154 H   0  0  0  0  0  0
  -15.5426  -30.2945   23.7749 H   0  0  0  0  0  0
  -15.8745  -28.0788   22.7127 H   0  0  0  0  0  0
  -24.5835  -30.7168   25.7404 H   0  0  0  0  0  0
  -24.8745  -32.3083   26.4274 H   0  0  0  0  0  0
  -25.7670  -30.9167   27.0138 H   0  0  0  0  0  0
  -26.3378  -29.6279   24.1734 H   0  0  0  0  0  0
  -27.3964  -29.7306   25.5554 H   0  0  0  0  0  0
  -27.9394  -30.3809   24.0341 H   0  0  0  0  0  0
  -27.2609  -33.3796   26.1651 H   0  0  0  0  0  0
  -28.4001  -32.6704   25.0320 H   0  0  0  0  0  0
  -28.0563  -31.8717   26.5586 H   0  0  0  0  0  0
  -28.2518  -38.0043   24.7519 H   0  0  0  0  0  0
  -28.1127  -36.2561   24.6293 H   0  0  0  0  0  0
  -27.2274  -37.1305   25.8866 H   0  0  0  0  0  0
  -20.9828  -29.8607   21.6350 H   0  0  0  0  0  0
  -26.0066  -38.2612   24.1440 H   0  0  0  0  0  0
  -28.1011  -18.0711   18.6522 H   0  0  0  0  0  0
  -27.3084  -17.5390   20.1372 H   0  0  0  0  0  0
  -28.0019  -16.3666   19.0140 H   0  0  0  0  0  0
  -28.0363  -21.0683   19.2450 H   0  0  0  0  0  0
  -29.6673  -21.5348   19.3396 H   0  0  0  0  0  0
  -28.8748  -19.3113   21.5346 H   0  0  0  0  0  0
  -30.4241  -19.5134   20.8524 H   0  0  0  0  0  0
  -27.2187  -23.1099   20.8199 H   0  0  0  0  0  0
  -28.7962  -23.3194   21.4512 H   0  0  0  0  0  0
  1 25  1  0  0  0
  1 30  2  0  0  0
  1 75  1  0  0  0
  2  3  1  0  0  0
  2 25  1  0  0  0
  2 76  1  0  0  0
  2 77  1  0  0  0
  3  4  1  0  0  0
  3 78  1  0  0  0
  3 79  1  0  0  0
  4  5  1  0  0  0
  4 80  1  0  0  0
  4 81  1  0  0  0
  5  6  1  0  0  0
  5 26  1  0  0  0
  5 82  1  0  0  0
  6 25  1  0  0  0
  6 83  1  0  0  0
  6 84  1  0  0  0
  7  8  2  0  0  0
  7 26  1  0  0  0
  7 29  1  0  0  0
  8  9  1  0  0  0
  8 22  1  0  0  0
  9 10  1  0  0  0
  9 27  2  0  0  0
 10 11  2  0  0  0
 10 15  1  0  0  0
 11 12  1  0  0  0
 11 85  1  0  0  0
 12 13  2  0  0  0
 12 86  1  0  0  0
 13 14  1  0  0  0
 13 31  1  0  0  0
 14 15  2  0  0  0
 14 87  1  0  0  0
 15 88  1  0  0  0
 16 17  2  0  0  0
 16 21  1  0  0  0
 16 31  1  0  0  0
 17 18  1  0  0  0
 17 89  1  0  0  0
 18 19  2  0  0  0
 18 90  1  0  0  0
 19 20  1  0  0  0
 19 24  1  0  0  0
 20 21  2  0  0  0
 20 91  1  0  0  0
 21 23  1  0  0  0
 22 28  1  0  0  0
 22 32  2  0  0  0
 26 27  1  0  0  0
 28 92  1  0  0  0
 28 93  1  0  0  0
 29 94  1  0  0  0
 29 95  1  0  0  0
 33 34  1  0  0  0
 33 66  1  0  0  0
 33 70  2  0  0  0
 34 36  1  0  0  0
 34 59  1  0  0  0
 34 96  1  0  0  0
 35 44  2  0  0  0
 35 45  1  0  0  0
 35 68  1  0  0  0
 36 56  1  0  0  0
 36 97  1  0  0  0
 37 39  1  0  0  0
 37 47  1  0  0  0
 37 66  1  0  0  0
 37 98  1  0  0  0
 38 43  2  0  0  0
 38 46  1  0  0  0
 38 47  1  0  0  0
 39 64  1  0  0  0
 39 67  2  0  0  0
 40 52  1  0  0  0
 40 53  2  0  0  0
 40 58  1  0  0  0
 41 99  1  0  0  0
 41100  1  0  0  0
 41101  1  0  0  0
 41 48  1  0  0  0
 42 43  1  0  0  0
 42 66  1  0  0  0
 42102  1  0  0  0
 42103  1  0  0  0
 43 44  1  0  0  0
 44104  1  0  0  0
 45 46  2  0  0  0
 45105  1  0  0  0
 46106  1  0  0  0
 47107  1  0  0  0
 47108  1  0  0  0
 48 56  1  0  0  0
 48 65  1  0  0  0
 48109  1  0  0  0
 49 50  1  0  0  0
 49 53  1  0  0  0
 49 64  1  0  0  0
 49110  1  0  0  0
 50 51  1  0  0  0
 50111  1  0  0  0
 50112  1  0  0  0
 51 52  1  0  0  0
 51113  1  0  0  0
 51114  1  0  0  0
 52115  1  0  0  0
 52116  1  0  0  0
 53 54  1  0  0  0
 54 55  2  0  0  0
 54117  1  0  0  0
 55 57  1  0  0  0
 55118  1  0  0  0
 56 69  2  0  0  0
 57 58  2  0  0  0
 57119  1  0  0  0
 58120  1  0  0  0
 59 60  1  0  0  0
 59 61  1  0  0  0
 59 62  1  0  0  0
 60121  1  0  0  0
 60122  1  0  0  0
 60123  1  0  0  0
 61124  1  0  0  0
 61125  1  0  0  0
 61126  1  0  0  0
 62127  1  0  0  0
 62128  1  0  0  0
 62129  1  0  0  0
 63 65  1  0  0  0
 63130  1  0  0  0
 63131  1  0  0  0
 63132  1  0  0  0
 64133  1  0  0  0
 65134  1  0  0  0
 68 74  1  0  0  0
 71 75  1  0  0  0
 71135  1  0  0  0
 71136  1  0  0  0
 71137  1  0  0  0
 72 73  1  0  0  0
 72 74  1  0  0  0
 72138  1  0  0  0
 72139  1  0  0  0
 73 75  1  0  0  0
 73140  1  0  0  0
 73141  1  0  0  0
 74142  1  0  0  0
 74143  1  0  0  0
M  ISO  4   1 100  68 101  74 101  75 100
M  END
> <chiral flag>
0

> <version>
0

> <s_m_source_file>
/data/baiqing/PycharmProjects/Reinvent-master-3.2/result/LINK_invent/BTK/process_docking_weight1_custom_sum_contain_oxygen_bond_distance_aromatic_linkinvent_7_9_3/rearranged_h_0009.sdf

> <i_m_source_file_index>
70

> <r_mmod_Potential_Energy-OPLS-2005>
4303.49072265625

> <r_mmod_Stretch_Energy-OPLS-2005>
1937.3203125

> <r_mmod_Bend_Energy-OPLS-2005>
891.069641113281

> <r_mmod_Torsional_Energy-OPLS-2005>
308.0107421875

> <r_mmod_Improper_Torsional_Energy-OPLS-2005>
4.89766931533813

> <r_mmod_Van_der_Waal_Energy-OPLS-2005>
112.25927734375

> <r_mmod_Electrostatic_Energy-OPLS-2005>
-274.442291259766

> <r_mmod_Solvation_Energy-OPLS-2005>
-215.008483886719

> <b_mmod_Minimization_Converged-OPLS-2005>
0

> <r_mmod_RMS_Derivative-OPLS-2005>
2.3036835193634

$$$$
71
                    3D
 Structure written by MMmdl.
154162  0  0  1  0            999 V2000
  -30.6038  -14.7420   20.4268 C   0  0  0  0  0  0
  -30.4411  -12.4324   19.4949 C   0  0  0  0  0  0
  -29.5221  -12.4358   18.2522 C   0  0  0  0  0  0
  -28.0381  -12.3154   18.6548 C   0  0  0  0  0  0
  -27.6440  -13.2291   19.8474 C   0  0  2  0  0  0
  -28.6857  -13.1664   20.9851 C   0  0  0  0  0  0
  -25.2522  -13.8203   20.5685 C   0  0  0  0  0  0
  -24.1808  -13.0453   20.9208 C   0  0  0  0  0  0
  -24.6394  -11.6930   20.8753 C   0  0  0  0  0  0
  -23.9070  -10.4302   21.0413 C   0  0  0  0  0  0
  -24.3621   -9.4211   21.9189 C   0  0  0  0  0  0
  -23.6305   -8.2240   22.0751 C   0  0  0  0  0  0
  -22.4289   -8.0277   21.3543 C   0  0  0  0  0  0
  -21.9920   -9.0250   20.4647 C   0  0  0  0  0  0
  -22.7242  -10.2135   20.3061 C   0  0  0  0  0  0
  -21.6851   -6.0733   22.5279 C   0  0  0  0  0  0
  -21.4005   -6.5637   23.8211 C   0  0  0  0  0  0
  -21.3668   -5.6789   24.9172 C   0  0  0  0  0  0
  -21.6054   -4.3054   24.7227 C   0  0  0  0  0  0
  -21.8815   -3.8144   23.4348 C   0  0  0  0  0  0
  -21.9187   -4.6960   22.3402 C   0  0  0  0  0  0
  -22.7830  -13.5235   21.1869 C   0  0  0  0  0  0
  -22.1658   -4.2148   21.0981 F   0  0  0  0  0  0
  -21.5643   -3.4540   25.7739 F   0  0  0  0  0  0
  -29.9909  -13.5088   20.4079 N   0  0  0  0  0  0
  -26.2947  -12.9408   20.3266 N   0  0  0  0  0  0
  -25.9325  -11.6559   20.5771 N   0  0  0  0  0  0
  -22.0469  -12.8222   22.0416 N   0  0  0  0  0  0
  -25.4235  -15.1924   20.4104 N   0  0  0  0  0  0
  -31.7929  -14.8393   20.1118 O   0  0  0  0  0  0
  -21.6647   -6.8876   21.4242 O   0  0  0  0  0  0
  -22.3516  -14.5542   20.6719 O   0  0  0  0  0  0
  -24.6311  -31.8566   23.2001 C   0  0  0  0  0  0
  -25.9144  -32.4758   23.8340 C   0  0  1  0  0  0
  -27.2157  -27.2715   20.1299 C   0  0  0  0  0  0
  -25.5942  -33.8558   24.2267 N   0  0  0  0  0  0
  -23.4267  -30.4819   21.5425 C   0  0  2  0  0  0
  -24.8733  -28.9347   20.1069 C   0  0  0  0  0  0
  -22.7503  -29.4615   22.4902 C   0  0  0  0  0  0
  -18.0294  -28.1384   22.8479 C   0  0  0  0  0  0
  -24.1490  -36.7293   23.2641 C   0  0  0  0  0  0
  -25.9722  -30.7745   21.3779 C   0  0  0  0  0  0
  -26.0446  -29.3985   20.7193 C   0  0  0  0  0  0
  -27.2184  -28.5791   20.7210 C   0  0  0  0  0  0
  -26.0241  -26.8830   19.4737 C   0  0  0  0  0  0
  -24.8684  -27.6852   19.4716 C   0  0  0  0  0  0
  -23.6440  -29.8197   20.1569 C   0  0  0  0  0  0
  -25.4113  -36.3074   24.0331 C   0  0  1  0  0  0
  -20.5899  -28.3700   23.1259 C   0  0  2  0  0  0
  -20.6779  -26.9414   22.5404 C   0  0  0  0  0  0
  -19.5753  -26.6380   21.5207 C   0  0  0  0  0  0
  -18.1936  -26.7925   22.1622 C   0  0  0  0  0  0
  -19.1547  -28.8858   23.2866 C   0  0  0  0  0  0
  -18.9467  -30.1456   23.8889 C   0  0  0  0  0  0
  -17.6466  -30.6584   24.0559 C   0  0  0  0  0  0
  -25.9051  -34.9443   23.5100 C   0  0  0  0  0  0
  -16.5357  -29.9082   23.6327 C   0  0  0  0  0  0
  -16.7280  -28.6501   23.0344 C   0  0  0  0  0  0
  -26.4506  -31.6577   25.0728 C   0  0  0  0  0  0
  -25.3729  -31.3727   26.1449 C   0  0  0  0  0  0
  -27.0358  -30.2997   24.6211 C   0  0  0  0  0  0
  -27.6063  -32.4313   25.7505 C   0  0  0  0  0  0
  -27.5578  -37.1804   24.8464 C   0  0  0  0  0  0
  -21.4211  -29.3053   22.3651 N   0  0  0  0  0  0
  -26.4287  -37.3774   23.9411 N   0  0  0  0  0  0
  -24.6960  -31.0547   22.0968 N   0  0  0  0  0  0
  -23.4209  -28.8148   23.2992 O   0  0  0  0  0  0
  -28.3019  -26.3681   20.2159 O   0  0  0  0  0  0
  -26.5618  -34.8919   22.4665 O   0  0  0  0  0  0
  -23.5467  -32.1378   23.7307 O   0  0  0  0  0  0
  -29.9557  -18.5127   17.8562 C   0  0  0  0  0  0
  -29.6371  -18.4882   20.6173 C   0  0  0  0  0  0
  -29.9483  -17.2729   18.5253 C   0  0  0  0  0  0
  -29.8496  -17.2055   19.9462 C   0  0  0  0  0  0
  -29.5742  -19.7743   19.9237 C   0  0  0  0  0  0
  -29.7934  -19.7319   18.5270 C   0  0  0  0  0  0
  -28.7267  -22.2199   20.0545 C   0  0  0  0  0  0
  -29.9711  -16.0412   17.6406 C   0  0  0  0  0  0
  -29.0180  -23.7221   20.5279 C   0  0  0  0  0  0
  -28.0382  -24.9012   20.0100 C   0  0  0  0  0  0
  -29.4091  -21.1145   20.5469 N   0  0  0  0  0  0
  -29.8197  -15.8746   20.6216 N   0  0  0  0  0  0
  -27.8137  -22.0577   19.2418 O   0  0  0  0  0  0
  -29.8781  -20.8699   17.7955 F   0  0  0  0  0  0
  -31.4818  -12.5557   19.1905 H   0  0  0  0  0  0
  -30.3961  -11.4680   20.0031 H   0  0  0  0  0  0
  -29.7913  -11.6069   17.5954 H   0  0  0  0  0  0
  -29.6862  -13.3318   17.6609 H   0  0  0  0  0  0
  -27.8665  -11.2732   18.9261 H   0  0  0  0  0  0
  -27.3946  -12.5123   17.7971 H   0  0  0  0  0  0
  -27.6393  -14.2483   19.4605 H   0  0  0  0  0  0
  -28.7131  -12.1711   21.4314 H   0  0  0  0  0  0
  -28.4226  -13.8546   21.7900 H   0  0  0  0  0  0
  -25.2763   -9.5697   22.4766 H   0  0  0  0  0  0
  -24.0017   -7.4633   22.7475 H   0  0  0  0  0  0
  -21.0845   -8.8768   19.8960 H   0  0  0  0  0  0
  -22.3693  -10.9672   19.6176 H   0  0  0  0  0  0
  -21.1981   -7.6142   23.9712 H   0  0  0  0  0  0
  -21.1508   -6.0521   25.9076 H   0  0  0  0  0  0
  -22.0589   -2.7608   23.2845 H   0  0  0  0  0  0
  -22.4077  -11.9889   22.4820 H   0  0  0  0  0  0
  -21.1088  -13.1256   22.2619 H   0  0  0  0  0  0
  -24.6596  -15.8496   20.5233 H   0  0  0  0  0  0
  -26.2733  -15.6285   20.0761 H   0  0  0  0  0  0
  -26.7214  -32.5417   23.1086 H   0  0  0  0  0  0
  -25.0089  -33.9685   25.0414 H   0  0  0  0  0  0
  -22.7235  -31.3051   21.3985 H   0  0  0  0  0  0
  -23.3748  -35.9629   23.3295 H   0  0  0  0  0  0
  -24.3585  -36.8918   22.2056 H   0  0  0  0  0  0
  -23.7244  -37.6496   23.6662 H   0  0  0  0  0  0
  -26.1086  -31.5360   20.6085 H   0  0  0  0  0  0
  -26.8515  -30.8236   22.0088 H   0  0  0  0  0  0
  -28.1116  -28.9263   21.2215 H   0  0  0  0  0  0
  -25.9493  -25.9324   18.9682 H   0  0  0  0  0  0
  -23.9739  -27.3286   18.9801 H   0  0  0  0  0  0
  -23.7679  -30.5979   19.4029 H   0  0  0  0  0  0
  -22.7627  -29.2533   19.8497 H   0  0  0  0  0  0
  -25.1291  -36.1925   25.0823 H   0  0  0  0  0  0
  -20.9991  -28.3278   24.1378 H   0  0  0  0  0  0
  -20.5666  -26.2313   23.3613 H   0  0  0  0  0  0
  -21.6649  -26.7428   22.1205 H   0  0  0  0  0  0
  -19.6912  -25.6289   21.1242 H   0  0  0  0  0  0
  -19.6684  -27.3186   20.6731 H   0  0  0  0  0  0
  -17.4202  -26.6666   21.4028 H   0  0  0  0  0  0
  -18.0340  -26.0069   22.9022 H   0  0  0  0  0  0
  -19.7944  -30.7270   24.2258 H   0  0  0  0  0  0
  -17.5021  -31.6261   24.5163 H   0  0  0  0  0  0
  -15.5357  -30.2979   23.7654 H   0  0  0  0  0  0
  -15.8683  -28.0821   22.7051 H   0  0  0  0  0  0
  -24.5912  -30.7061   25.7786 H   0  0  0  0  0  0
  -24.8909  -32.2892   26.4860 H   0  0  0  0  0  0
  -25.8050  -30.8924   27.0236 H   0  0  0  0  0  0
  -26.2942  -29.6738   24.1231 H   0  0  0  0  0  0
  -27.4037  -29.7266   25.4731 H   0  0  0  0  0  0
  -27.8820  -30.4278   23.9458 H   0  0  0  0  0  0
  -27.2675  -33.3619   26.2070 H   0  0  0  0  0  0
  -28.3885  -32.6855   25.0340 H   0  0  0  0  0  0
  -28.0715  -31.8440   26.5431 H   0  0  0  0  0  0
  -28.2596  -38.0102   24.7510 H   0  0  0  0  0  0
  -28.1071  -36.2631   24.6284 H   0  0  0  0  0  0
  -27.2297  -37.1452   25.8869 H   0  0  0  0  0  0
  -20.9393  -29.8803   21.6885 H   0  0  0  0  0  0
  -26.0167  -38.2852   24.1400 H   0  0  0  0  0  0
  -30.0682  -18.5435   16.7823 H   0  0  0  0  0  0
  -29.5079  -18.4851   21.6898 H   0  0  0  0  0  0
  -29.8549  -16.2955   16.5863 H   0  0  0  0  0  0
  -29.1311  -15.4009   17.9023 H   0  0  0  0  0  0
  -30.9063  -15.4921   17.7377 H   0  0  0  0  0  0
  -30.0309  -23.9573   20.2024 H   0  0  0  0  0  0
  -29.0431  -23.7351   21.6172 H   0  0  0  0  0  0
  -27.0713  -24.6738   20.4620 H   0  0  0  0  0  0
  -27.9053  -24.7630   18.9364 H   0  0  0  0  0  0
  -29.9710  -21.2796   21.3708 H   0  0  0  0  0  0
  -28.9597  -15.6821   21.1124 H   0  0  0  0  0  0
  1 25  1  0  0  0
  1 30  2  0  0  0
  1 82  1  0  0  0
  2  3  1  0  0  0
  2 25  1  0  0  0
  2 85  1  0  0  0
  2 86  1  0  0  0
  3  4  1  0  0  0
  3 87  1  0  0  0
  3 88  1  0  0  0
  4  5  1  0  0  0
  4 89  1  0  0  0
  4 90  1  0  0  0
  5  6  1  0  0  0
  5 26  1  0  0  0
  5 91  1  0  0  0
  6 25  1  0  0  0
  6 92  1  0  0  0
  6 93  1  0  0  0
  7  8  2  0  0  0
  7 26  1  0  0  0
  7 29  1  0  0  0
  8  9  1  0  0  0
  8 22  1  0  0  0
  9 10  1  0  0  0
  9 27  2  0  0  0
 10 11  2  0  0  0
 10 15  1  0  0  0
 11 12  1  0  0  0
 11 94  1  0  0  0
 12 13  2  0  0  0
 12 95  1  0  0  0
 13 14  1  0  0  0
 13 31  1  0  0  0
 14 15  2  0  0  0
 14 96  1  0  0  0
 15 97  1  0  0  0
 16 17  2  0  0  0
 16 21  1  0  0  0
 16 31  1  0  0  0
 17 18  1  0  0  0
 17 98  1  0  0  0
 18 19  2  0  0  0
 18 99  1  0  0  0
 19 20  1  0  0  0
 19 24  1  0  0  0
 20 21  2  0  0  0
 20100  1  0  0  0
 21 23  1  0  0  0
 22 28  1  0  0  0
 22 32  2  0  0  0
 26 27  1  0  0  0
 28101  1  0  0  0
 28102  1  0  0  0
 29103  1  0  0  0
 29104  1  0  0  0
 33 34  1  0  0  0
 33 66  1  0  0  0
 33 70  2  0  0  0
 34 36  1  0  0  0
 34 59  1  0  0  0
 34105  1  0  0  0
 35 44  2  0  0  0
 35 45  1  0  0  0
 35 68  1  0  0  0
 36 56  1  0  0  0
 36106  1  0  0  0
 37 39  1  0  0  0
 37 47  1  0  0  0
 37 66  1  0  0  0
 37107  1  0  0  0
 38 43  2  0  0  0
 38 46  1  0  0  0
 38 47  1  0  0  0
 39 64  1  0  0  0
 39 67  2  0  0  0
 40 52  1  0  0  0
 40 53  2  0  0  0
 40 58  1  0  0  0
 41108  1  0  0  0
 41109  1  0  0  0
 41110  1  0  0  0
 41 48  1  0  0  0
 42 43  1  0  0  0
 42 66  1  0  0  0
 42111  1  0  0  0
 42112  1  0  0  0
 43 44  1  0  0  0
 44113  1  0  0  0
 45 46  2  0  0  0
 45114  1  0  0  0
 46115  1  0  0  0
 47116  1  0  0  0
 47117  1  0  0  0
 48 56  1  0  0  0
 48 65  1  0  0  0
 48118  1  0  0  0
 49 50  1  0  0  0
 49 53  1  0  0  0
 49 64  1  0  0  0
 49119  1  0  0  0
 50 51  1  0  0  0
 50120  1  0  0  0
 50121  1  0  0  0
 51 52  1  0  0  0
 51122  1  0  0  0
 51123  1  0  0  0
 52124  1  0  0  0
 52125  1  0  0  0
 53 54  1  0  0  0
 54 55  2  0  0  0
 54126  1  0  0  0
 55 57  1  0  0  0
 55127  1  0  0  0
 56 69  2  0  0  0
 57 58  2  0  0  0
 57128  1  0  0  0
 58129  1  0  0  0
 59 60  1  0  0  0
 59 61  1  0  0  0
 59 62  1  0  0  0
 60130  1  0  0  0
 60131  1  0  0  0
 60132  1  0  0  0
 61133  1  0  0  0
 61134  1  0  0  0
 61135  1  0  0  0
 62136  1  0  0  0
 62137  1  0  0  0
 62138  1  0  0  0
 63 65  1  0  0  0
 63139  1  0  0  0
 63140  1  0  0  0
 63141  1  0  0  0
 64142  1  0  0  0
 65143  1  0  0  0
 68 80  1  0  0  0
 71 73  2  0  0  0
 71 76  1  0  0  0
 71144  1  0  0  0
 72 74  2  0  0  0
 72 75  1  0  0  0
 72145  1  0  0  0
 73 74  1  0  0  0
 73 78  1  0  0  0
 74 82  1  0  0  0
 75 76  2  0  0  0
 75 81  1  0  0  0
 76 84  1  0  0  0
 77 79  1  0  0  0
 77 81  1  0  0  0
 77 83  2  0  0  0
 78146  1  0  0  0
 78147  1  0  0  0
 78148  1  0  0  0
 79 80  1  0  0  0
 79149  1  0  0  0
 79150  1  0  0  0
 80151  1  0  0  0
 80152  1  0  0  0
 81153  1  0  0  0
 82154  1  0  0  0
M  ISO  4   1 100  68 101  80 101  82 100
M  END
> <chiral flag>
0

> <version>
0

> <s_m_source_file>
/data/baiqing/PycharmProjects/Reinvent-master-3.2/result/LINK_invent/BTK/process_docking_weight1_custom_sum_contain_oxygen_bond_distance_aromatic_linkinvent_7_9_3/rearranged_h_0009.sdf

> <i_m_source_file_index>
71

> <r_mmod_Potential_Energy-OPLS-2005>
128.853927612305

> <r_mmod_Stretch_Energy-OPLS-2005>
124.163940429688

> <r_mmod_Bend_Energy-OPLS-2005>
153.430953979492

> <r_mmod_Torsional_Energy-OPLS-2005>
271.090942382812

> <r_mmod_Improper_Torsional_Energy-OPLS-2005>
6.11272430419922

> <r_mmod_Van_der_Waal_Energy-OPLS-2005>
151.153686523438

> <r_mmod_Electrostatic_Energy-OPLS-2005>
-427.701843261719

> <r_mmod_Solvation_Energy-OPLS-2005>
-235.979598999023

> <b_mmod_Minimization_Converged-OPLS-2005>
0

> <r_mmod_RMS_Derivative-OPLS-2005>
1.05693030357361

$$$$
72
                    3D
 Structure written by MMmdl.
157165  0  0  1  0            999 V2000
  -30.6137  -14.6271   20.4577 C   0  0  0  0  0  0
  -30.4418  -12.3620   19.4477 C   0  0  0  0  0  0
  -29.5118  -12.4861   18.2192 C   0  0  0  0  0  0
  -28.0348  -12.3330   18.6345 C   0  0  0  0  0  0
  -27.6589  -13.2111   19.8575 C   0  0  2  0  0  0
  -28.7097  -13.0566   20.9830 C   0  0  0  0  0  0
  -25.2575  -13.8160   20.5655 C   0  0  0  0  0  0
  -24.1847  -13.0426   20.9225 C   0  0  0  0  0  0
  -24.6391  -11.6907   20.8718 C   0  0  0  0  0  0
  -23.9034  -10.4290   21.0373 C   0  0  0  0  0  0
  -24.3583   -9.4221   21.9171 C   0  0  0  0  0  0
  -23.6270   -8.2251   22.0751 C   0  0  0  0  0  0
  -22.4259   -8.0258   21.3532 C   0  0  0  0  0  0
  -21.9877   -9.0220   20.4640 C   0  0  0  0  0  0
  -22.7198  -10.2118   20.3041 C   0  0  0  0  0  0
  -21.6844   -6.0707   22.5272 C   0  0  0  0  0  0
  -21.4010   -6.5610   23.8205 C   0  0  0  0  0  0
  -21.3666   -5.6777   24.9172 C   0  0  0  0  0  0
  -21.6051   -4.3035   24.7226 C   0  0  0  0  0  0
  -21.8816   -3.8124   23.4350 C   0  0  0  0  0  0
  -21.9190   -4.6937   22.3402 C   0  0  0  0  0  0
  -22.7852  -13.5227   21.1853 C   0  0  0  0  0  0
  -22.1658   -4.2115   21.0986 F   0  0  0  0  0  0
  -21.5640   -3.4527   25.7746 F   0  0  0  0  0  0
  -30.0270  -13.3917   20.4190 N   0  0  0  0  0  0
  -26.3017  -12.9335   20.3284 N   0  0  0  0  0  0
  -25.9326  -11.6502   20.5745 N   0  0  0  0  0  0
  -22.0477  -12.8224   22.0417 N   0  0  0  0  0  0
  -25.4252  -15.1874   20.3993 N   0  0  0  0  0  0
  -31.7751  -14.8025   20.0721 O   0  0  0  0  0  0
  -21.6629   -6.8847   21.4236 O   0  0  0  0  0  0
  -22.3555  -14.5533   20.6704 O   0  0  0  0  0  0
  -24.6273  -31.8616   23.2056 C   0  0  0  0  0  0
  -25.9135  -32.4772   23.8374 C   0  0  1  0  0  0
  -27.2042  -27.3079   20.1111 C   0  0  0  0  0  0
  -25.5991  -33.8576   24.2325 N   0  0  0  0  0  0
  -23.4198  -30.4837   21.5478 C   0  0  2  0  0  0
  -24.8663  -28.9467   20.1043 C   0  0  0  0  0  0
  -22.7507  -29.4577   22.4942 C   0  0  0  0  0  0
  -18.0278  -28.1322   22.8447 C   0  0  0  0  0  0
  -24.1507  -36.7294   23.2640 C   0  0  0  0  0  0
  -25.9614  -30.7868   21.3766 C   0  0  0  0  0  0
  -26.0346  -29.4125   20.7200 C   0  0  0  0  0  0
  -27.2100  -28.6035   20.7141 C   0  0  0  0  0  0
  -26.0179  -26.9021   19.4597 C   0  0  0  0  0  0
  -24.8595  -27.6970   19.4677 C   0  0  0  0  0  0
  -23.6366  -29.8308   20.1576 C   0  0  0  0  0  0
  -25.4107  -36.3076   24.0348 C   0  0  1  0  0  0
  -20.5884  -28.3626   23.1276 C   0  0  2  0  0  0
  -20.6756  -26.9360   22.5383 C   0  0  0  0  0  0
  -19.5742  -26.6349   21.5171 C   0  0  0  0  0  0
  -18.1917  -26.7867   22.1584 C   0  0  0  0  0  0
  -19.1533  -28.8791   23.2831 C   0  0  0  0  0  0
  -18.9463  -30.1388   23.8858 C   0  0  0  0  0  0
  -17.6475  -30.6544   24.0506 C   0  0  0  0  0  0
  -25.9052  -34.9441   23.5117 C   0  0  0  0  0  0
  -16.5363  -29.9039   23.6280 C   0  0  0  0  0  0
  -16.7267  -28.6439   23.0320 C   0  0  0  0  0  0
  -26.4530  -31.6582   25.0722 C   0  0  0  0  0  0
  -25.3761  -31.3722   26.1454 C   0  0  0  0  0  0
  -27.0348  -30.3012   24.6114 C   0  0  0  0  0  0
  -27.6113  -32.4295   25.7505 C   0  0  0  0  0  0
  -27.5584  -37.1791   24.8453 C   0  0  0  0  0  0
  -21.4218  -29.3008   22.3722 N   0  0  0  0  0  0
  -26.4279  -37.3772   23.9424 N   0  0  0  0  0  0
  -24.6883  -31.0601   22.1016 N   0  0  0  0  0  0
  -23.4233  -28.8104   23.2990 O   0  0  0  0  0  0
  -28.3041  -26.4421   20.1347 O   0  0  0  0  0  0
  -26.5590  -34.8907   22.4667 O   0  0  0  0  0  0
  -23.5419  -32.1487   23.7341 O   0  0  0  0  0  0
  -28.5847  -17.8111   20.8616 C   0  0  0  0  0  0
  -30.7443  -17.8419   19.8309 C   0  0  0  0  0  0
  -28.4012  -19.2016   20.6009 C   0  0  0  0  0  0
  -30.5813  -19.2427   19.5745 C   0  0  0  0  0  0
  -29.7453  -17.0854   20.4948 C   0  0  0  0  0  0
  -29.4220  -19.9801   19.9727 C   0  0  0  0  0  0
  -27.0412  -19.7736   20.9472 C   0  0  0  0  0  0
  -31.7071  -19.9472   18.8363 C   0  0  0  0  0  0
  -28.8994  -23.8718   19.8633 C   0  0  0  0  0  0
  -28.0427  -25.0319   20.5142 C   0  0  0  0  0  0
  -28.5297  -22.3847   20.2765 C   0  0  0  0  0  0
  -29.7800  -15.6546   20.7984 N   0  0  0  0  0  0
  -29.3829  -21.3633   19.6584 O   0  0  0  0  0  0
  -31.4904  -12.4612   19.1576 H   0  0  0  0  0  0
  -30.3521  -11.3704   19.8937 H   0  0  0  0  0  0
  -29.7719  -11.7341   17.4716 H   0  0  0  0  0  0
  -29.6633  -13.4563   17.7429 H   0  0  0  0  0  0
  -27.8716  -11.2826   18.8764 H   0  0  0  0  0  0
  -27.3799  -12.5524   17.7920 H   0  0  0  0  0  0
  -27.6773  -14.2439   19.5115 H   0  0  0  0  0  0
  -28.7203  -12.0310   21.3533 H   0  0  0  0  0  0
  -28.4703  -13.6794   21.8454 H   0  0  0  0  0  0
  -25.2707   -9.5699   22.4762 H   0  0  0  0  0  0
  -23.9959   -7.4643   22.7474 H   0  0  0  0  0  0
  -21.0807   -8.8711   19.8948 H   0  0  0  0  0  0
  -22.3612  -10.9637   19.6148 H   0  0  0  0  0  0
  -21.1994   -7.6114   23.9688 H   0  0  0  0  0  0
  -21.1506   -6.0513   25.9072 H   0  0  0  0  0  0
  -22.0594   -2.7580   23.2858 H   0  0  0  0  0  0
  -22.4047  -11.9878   22.4828 H   0  0  0  0  0  0
  -21.1085  -13.1258   22.2594 H   0  0  0  0  0  0
  -24.6369  -15.8231   20.4644 H   0  0  0  0  0  0
  -26.2460  -15.6121   19.9867 H   0  0  0  0  0  0
  -26.7231  -32.5467   23.1146 H   0  0  0  0  0  0
  -25.0149  -33.9736   25.0476 H   0  0  0  0  0  0
  -22.7033  -31.2966   21.4110 H   0  0  0  0  0  0
  -23.3760  -35.9644   23.3274 H   0  0  0  0  0  0
  -24.3606  -36.8950   22.2060 H   0  0  0  0  0  0
  -23.7272  -37.6485   23.6674 H   0  0  0  0  0  0
  -26.0807  -31.5471   20.6030 H   0  0  0  0  0  0
  -26.8458  -30.8440   22.0001 H   0  0  0  0  0  0
  -28.1092  -28.9389   21.2113 H   0  0  0  0  0  0
  -25.9597  -25.9584   18.9359 H   0  0  0  0  0  0
  -23.9657  -27.3484   18.9698 H   0  0  0  0  0  0
  -23.7600  -30.6157   19.4123 H   0  0  0  0  0  0
  -22.7515  -29.2718   19.8454 H   0  0  0  0  0  0
  -25.1265  -36.1936   25.0837 H   0  0  0  0  0  0
  -20.9913  -28.3204   24.1420 H   0  0  0  0  0  0
  -20.5609  -26.2248   23.3569 H   0  0  0  0  0  0
  -21.6636  -26.7333   22.1210 H   0  0  0  0  0  0
  -19.6901  -25.6261   21.1193 H   0  0  0  0  0  0
  -19.6724  -27.3130   20.6669 H   0  0  0  0  0  0
  -17.4186  -26.6581   21.3993 H   0  0  0  0  0  0
  -18.0317  -25.9997   22.8961 H   0  0  0  0  0  0
  -19.7961  -30.7129   24.2288 H   0  0  0  0  0  0
  -17.5052  -31.6228   24.5094 H   0  0  0  0  0  0
  -15.5350  -30.2905   23.7654 H   0  0  0  0  0  0
  -15.8664  -28.0737   22.7073 H   0  0  0  0  0  0
  -24.5955  -30.7028   25.7820 H   0  0  0  0  0  0
  -24.8885  -32.2862   26.4849 H   0  0  0  0  0  0
  -25.8077  -30.8958   27.0262 H   0  0  0  0  0  0
  -26.2853  -29.6779   24.1186 H   0  0  0  0  0  0
  -27.4140  -29.7250   25.4564 H   0  0  0  0  0  0
  -27.8718  -30.4327   23.9246 H   0  0  0  0  0  0
  -27.2762  -33.3634   26.2038 H   0  0  0  0  0  0
  -28.3959  -32.6798   25.0353 H   0  0  0  0  0  0
  -28.0726  -31.8412   26.5465 H   0  0  0  0  0  0
  -28.2552  -38.0129   24.7489 H   0  0  0  0  0  0
  -28.1136  -36.2633   24.6270 H   0  0  0  0  0  0
  -27.2285  -37.1386   25.8857 H   0  0  0  0  0  0
  -20.9401  -29.8855   21.7048 H   0  0  0  0  0  0
  -26.0166  -38.2851   24.1434 H   0  0  0  0  0  0
  -27.7774  -17.2797   21.3462 H   0  0  0  0  0  0
  -31.6518  -17.3529   19.5026 H   0  0  0  0  0  0
  -26.3027  -18.9851   21.0987 H   0  0  0  0  0  0
  -26.6613  -20.3715   20.1225 H   0  0  0  0  0  0
  -27.0944  -20.3726   21.8553 H   0  0  0  0  0  0
  -32.0246  -19.3531   17.9795 H   0  0  0  0  0  0
  -32.5607  -20.0789   19.4987 H   0  0  0  0  0  0
  -31.4254  -20.9285   18.4560 H   0  0  0  0  0  0
  -29.9540  -24.0444   20.0825 H   0  0  0  0  0  0
  -28.8006  -23.9493   18.7803 H   0  0  0  0  0  0
  -26.9983  -24.7556   20.3709 H   0  0  0  0  0  0
  -28.1831  -24.9646   21.5944 H   0  0  0  0  0  0
  -27.4922  -22.2619   19.9724 H   0  0  0  0  0  0
  -28.5633  -22.2759   21.3606 H   0  0  0  0  0  0
  -28.9169  -15.2983   21.1792 H   0  0  0  0  0  0
  1 25  1  0  0  0
  1 30  2  0  0  0
  1 82  1  0  0  0
  2  3  1  0  0  0
  2 25  1  0  0  0
  2 84  1  0  0  0
  2 85  1  0  0  0
  3  4  1  0  0  0
  3 86  1  0  0  0
  3 87  1  0  0  0
  4  5  1  0  0  0
  4 88  1  0  0  0
  4 89  1  0  0  0
  5  6  1  0  0  0
  5 26  1  0  0  0
  5 90  1  0  0  0
  6 25  1  0  0  0
  6 91  1  0  0  0
  6 92  1  0  0  0
  7  8  2  0  0  0
  7 26  1  0  0  0
  7 29  1  0  0  0
  8  9  1  0  0  0
  8 22  1  0  0  0
  9 10  1  0  0  0
  9 27  2  0  0  0
 10 11  2  0  0  0
 10 15  1  0  0  0
 11 12  1  0  0  0
 11 93  1  0  0  0
 12 13  2  0  0  0
 12 94  1  0  0  0
 13 14  1  0  0  0
 13 31  1  0  0  0
 14 15  2  0  0  0
 14 95  1  0  0  0
 15 96  1  0  0  0
 16 17  2  0  0  0
 16 21  1  0  0  0
 16 31  1  0  0  0
 17 18  1  0  0  0
 17 97  1  0  0  0
 18 19  2  0  0  0
 18 98  1  0  0  0
 19 20  1  0  0  0
 19 24  1  0  0  0
 20 21  2  0  0  0
 20 99  1  0  0  0
 21 23  1  0  0  0
 22 28  1  0  0  0
 22 32  2  0  0  0
 26 27  1  0  0  0
 28100  1  0  0  0
 28101  1  0  0  0
 29102  1  0  0  0
 29103  1  0  0  0
 33 34  1  0  0  0
 33 66  1  0  0  0
 33 70  2  0  0  0
 34 36  1  0  0  0
 34 59  1  0  0  0
 34104  1  0  0  0
 35 44  2  0  0  0
 35 45  1  0  0  0
 35 68  1  0  0  0
 36 56  1  0  0  0
 36105  1  0  0  0
 37 39  1  0  0  0
 37 47  1  0  0  0
 37 66  1  0  0  0
 37106  1  0  0  0
 38 43  2  0  0  0
 38 46  1  0  0  0
 38 47  1  0  0  0
 39 64  1  0  0  0
 39 67  2  0  0  0
 40 52  1  0  0  0
 40 53  2  0  0  0
 40 58  1  0  0  0
 41107  1  0  0  0
 41108  1  0  0  0
 41109  1  0  0  0
 41 48  1  0  0  0
 42 43  1  0  0  0
 42 66  1  0  0  0
 42110  1  0  0  0
 42111  1  0  0  0
 43 44  1  0  0  0
 44112  1  0  0  0
 45 46  2  0  0  0
 45113  1  0  0  0
 46114  1  0  0  0
 47115  1  0  0  0
 47116  1  0  0  0
 48 56  1  0  0  0
 48 65  1  0  0  0
 48117  1  0  0  0
 49 50  1  0  0  0
 49 53  1  0  0  0
 49 64  1  0  0  0
 49118  1  0  0  0
 50 51  1  0  0  0
 50119  1  0  0  0
 50120  1  0  0  0
 51 52  1  0  0  0
 51121  1  0  0  0
 51122  1  0  0  0
 52123  1  0  0  0
 52124  1  0  0  0
 53 54  1  0  0  0
 54 55  2  0  0  0
 54125  1  0  0  0
 55 57  1  0  0  0
 55126  1  0  0  0
 56 69  2  0  0  0
 57 58  2  0  0  0
 57127  1  0  0  0
 58128  1  0  0  0
 59 60  1  0  0  0
 59 61  1  0  0  0
 59 62  1  0  0  0
 60129  1  0  0  0
 60130  1  0  0  0
 60131  1  0  0  0
 61132  1  0  0  0
 61133  1  0  0  0
 61134  1  0  0  0
 62135  1  0  0  0
 62136  1  0  0  0
 62137  1  0  0  0
 63 65  1  0  0  0
 63138  1  0  0  0
 63139  1  0  0  0
 63140  1  0  0  0
 64141  1  0  0  0
 65142  1  0  0  0
 68 80  1  0  0  0
 71 73  2  0  0  0
 71 75  1  0  0  0
 71143  1  0  0  0
 72 74  1  0  0  0
 72 75  2  0  0  0
 72144  1  0  0  0
 73 76  1  0  0  0
 73 77  1  0  0  0
 74 76  2  0  0  0
 74 78  1  0  0  0
 75 82  1  0  0  0
 76 83  1  0  0  0
 77145  1  0  0  0
 77146  1  0  0  0
 77147  1  0  0  0
 78148  1  0  0  0
 78149  1  0  0  0
 78150  1  0  0  0
 79 80  1  0  0  0
 79 81  1  0  0  0
 79151  1  0  0  0
 79152  1  0  0  0
 80153  1  0  0  0
 80154  1  0  0  0
 81 83  1  0  0  0
 81155  1  0  0  0
 81156  1  0  0  0
 82157  1  0  0  0
M  ISO  4   1 100  68 101  80 101  82 100
M  END
> <chiral flag>
0

> <version>
0

> <s_m_source_file>
/data/baiqing/PycharmProjects/Reinvent-master-3.2/result/LINK_invent/BTK/process_docking_weight1_custom_sum_contain_oxygen_bond_distance_aromatic_linkinvent_7_9_3/rearranged_h_0009.sdf

> <i_m_source_file_index>
72

> <r_mmod_Potential_Energy-OPLS-2005>
63.4270477294922

> <r_mmod_Stretch_Energy-OPLS-2005>
77.0047454833984

> <r_mmod_Bend_Energy-OPLS-2005>
161.818695068359

> <r_mmod_Torsional_Energy-OPLS-2005>
229.266418457031

> <r_mmod_Improper_Torsional_Energy-OPLS-2005>
5.12274503707886

> <r_mmod_Van_der_Waal_Energy-OPLS-2005>
148.823501586914

> <r_mmod_Electrostatic_Energy-OPLS-2005>
-400.962158203125

> <r_mmod_Solvation_Energy-OPLS-2005>
-208.765670776367

> <b_mmod_Minimization_Converged-OPLS-2005>
0

> <r_mmod_RMS_Derivative-OPLS-2005>
5.45247316360474

$$$$
73
                    3D
 Structure written by MMmdl.
151159  0  0  1  0            999 V2000
  -30.5187  -15.0491   20.4032 C   0  0  0  0  0  0
  -30.4365  -12.6574   19.5066 C   0  0  0  0  0  0
  -29.5231  -12.5433   18.2634 C   0  0  0  0  0  0
  -28.0605  -12.3121   18.6841 C   0  0  0  0  0  0
  -27.6216  -13.2596   19.8303 C   0  0  2  0  0  0
  -28.6623  -13.3414   20.9670 C   0  0  0  0  0  0
  -25.2425  -13.8235   20.5723 C   0  0  0  0  0  0
  -24.1761  -13.0439   20.9241 C   0  0  0  0  0  0
  -24.6395  -11.6932   20.8762 C   0  0  0  0  0  0
  -23.9088  -10.4293   21.0410 C   0  0  0  0  0  0
  -24.3634   -9.4207   21.9187 C   0  0  0  0  0  0
  -23.6304   -8.2245   22.0757 C   0  0  0  0  0  0
  -22.4285   -8.0285   21.3548 C   0  0  0  0  0  0
  -21.9925   -9.0259   20.4649 C   0  0  0  0  0  0
  -22.7261  -10.2134   20.3058 C   0  0  0  0  0  0
  -21.6853   -6.0741   22.5280 C   0  0  0  0  0  0
  -21.4017   -6.5644   23.8215 C   0  0  0  0  0  0
  -21.3659   -5.6795   24.9176 C   0  0  0  0  0  0
  -21.6041   -4.3058   24.7226 C   0  0  0  0  0  0
  -21.8818   -3.8150   23.4347 C   0  0  0  0  0  0
  -21.9194   -4.6967   22.3404 C   0  0  0  0  0  0
  -22.7780  -13.5199   21.1896 C   0  0  0  0  0  0
  -22.1661   -4.2156   21.0982 F   0  0  0  0  0  0
  -21.5626   -3.4541   25.7738 F   0  0  0  0  0  0
  -29.9236  -13.7792   20.3553 N   0  0  0  0  0  0
  -26.2851  -12.9484   20.3227 N   0  0  0  0  0  0
  -25.9330  -11.6602   20.5733 N   0  0  0  0  0  0
  -22.0436  -12.8182   22.0450 N   0  0  0  0  0  0
  -25.4061  -15.1969   20.4149 N   0  0  0  0  0  0
  -31.7327  -15.0642   20.1671 O   0  0  0  0  0  0
  -21.6644   -6.8886   21.4243 O   0  0  0  0  0  0
  -22.3457  -14.5502   20.6740 O   0  0  0  0  0  0
  -24.6500  -31.8369   23.1822 C   0  0  0  0  0  0
  -25.9238  -32.4663   23.8235 C   0  0  1  0  0  0
  -27.2149  -27.0623   20.1625 C   0  0  0  0  0  0
  -25.5958  -33.8471   24.2144 N   0  0  0  0  0  0
  -23.4577  -30.4549   21.5288 C   0  0  2  0  0  0
  -24.9083  -28.8694   20.1106 C   0  0  0  0  0  0
  -22.7600  -29.4509   22.4820 C   0  0  0  0  0  0
  -18.0308  -28.1407   22.8466 C   0  0  0  0  0  0
  -24.1495  -36.7237   23.2646 C   0  0  0  0  0  0
  -26.0196  -30.6879   21.3919 C   0  0  0  0  0  0
  -26.0895  -29.2924   20.7334 C   0  0  0  0  0  0
  -27.2425  -28.4073   20.7381 C   0  0  0  0  0  0
  -26.0056  -26.7604   19.4978 C   0  0  0  0  0  0
  -24.8839  -27.6195   19.4753 C   0  0  0  0  0  0
  -23.6892  -29.7809   20.1502 C   0  0  0  0  0  0
  -25.4131  -36.3011   24.0309 C   0  0  1  0  0  0
  -20.5928  -28.3733   23.1218 C   0  0  2  0  0  0
  -20.6796  -26.9426   22.5405 C   0  0  0  0  0  0
  -19.5770  -26.6376   21.5214 C   0  0  0  0  0  0
  -18.1947  -26.7941   22.1617 C   0  0  0  0  0  0
  -19.1568  -28.8884   23.2833 C   0  0  0  0  0  0
  -18.9487  -30.1475   23.8864 C   0  0  0  0  0  0
  -17.6486  -30.6597   24.0552 C   0  0  0  0  0  0
  -25.9082  -34.9390   23.5037 C   0  0  0  0  0  0
  -16.5373  -29.9088   23.6345 C   0  0  0  0  0  0
  -16.7292  -28.6510   23.0355 C   0  0  0  0  0  0
  -26.4537  -31.6560   25.0706 C   0  0  0  0  0  0
  -25.3699  -31.3782   26.1384 C   0  0  0  0  0  0
  -27.0407  -30.2943   24.6342 C   0  0  0  0  0  0
  -27.6049  -32.4344   25.7499 C   0  0  0  0  0  0
  -27.5572  -37.1779   24.8467 C   0  0  0  0  0  0
  -21.4286  -29.3046   22.3576 N   0  0  0  0  0  0
  -26.4288  -37.3732   23.9408 N   0  0  0  0  0  0
  -24.7297  -31.0158   22.0892 N   0  0  0  0  0  0
  -23.4212  -28.8062   23.3001 O   0  0  0  0  0  0
  -28.2408  -26.0250   20.2365 O   0  0  0  0  0  0
  -26.5672  -34.8898   22.4619 O   0  0  0  0  0  0
  -23.5599  -32.1272   23.6996 O   0  0  0  0  0  0
  -30.9902  -20.6088   20.5467 C   0  0  0  0  0  0
  -31.4367  -18.1656   20.6290 C   0  0  0  0  0  0
  -31.8758  -19.5095   20.6607 C   0  0  0  0  0  0
  -29.5903  -20.4674   20.4023 C   0  0  0  0  0  0
  -30.0799  -17.8040   20.4841 C   0  0  0  0  0  0
  -29.1741  -19.0122   20.3777 C   0  0  0  0  0  0
  -29.0008  -23.2087   20.3436 C   0  0  0  0  0  0
  -33.3613  -19.7782   20.8170 C   0  0  0  0  0  0
  -27.9076  -24.4734   20.1019 C   0  0  0  0  0  0
  -28.7347  -21.7814   20.2781 N   0  0  0  0  0  0
  -29.7496  -16.2724   20.4891 N   0  0  0  0  0  0
  -30.1461  -23.5828   20.6054 O   0  0  0  0  0  0
  -27.8492  -18.7629   20.2439 F   0  0  0  0  0  0
  -31.4669  -12.8234   19.1891 H   0  0  0  0  0  0
  -30.4476  -11.7216   20.0679 H   0  0  0  0  0  0
  -29.8609  -11.7338   17.6149 H   0  0  0  0  0  0
  -29.5944  -13.4591   17.6738 H   0  0  0  0  0  0
  -27.9726  -11.2752   19.0101 H   0  0  0  0  0  0
  -27.3960  -12.4188   17.8255 H   0  0  0  0  0  0
  -27.5661  -14.2500   19.3773 H   0  0  0  0  0  0
  -28.7753  -12.3821   21.4735 H   0  0  0  0  0  0
  -28.3443  -14.0589   21.7249 H   0  0  0  0  0  0
  -25.2775   -9.5682   22.4765 H   0  0  0  0  0  0
  -24.0009   -7.4636   22.7475 H   0  0  0  0  0  0
  -21.0855   -8.8783   19.8951 H   0  0  0  0  0  0
  -22.3720  -10.9677   19.6169 H   0  0  0  0  0  0
  -21.2009   -7.6152   23.9721 H   0  0  0  0  0  0
  -21.1479   -6.0525   25.9079 H   0  0  0  0  0  0
  -22.0595   -2.7613   23.2845 H   0  0  0  0  0  0
  -22.4064  -11.9842   22.4828 H   0  0  0  0  0  0
  -21.1053  -13.1191   22.2666 H   0  0  0  0  0  0
  -24.6326  -15.8435   20.5267 H   0  0  0  0  0  0
  -26.2428  -15.6432   20.0636 H   0  0  0  0  0  0
  -26.7294  -32.5241   23.0947 H   0  0  0  0  0  0
  -25.0094  -33.9577   25.0287 H   0  0  0  0  0  0
  -22.7645  -31.2837   21.3684 H   0  0  0  0  0  0
  -23.3759  -35.9566   23.3299 H   0  0  0  0  0  0
  -24.3571  -36.8882   22.2061 H   0  0  0  0  0  0
  -23.7251  -37.6432   23.6691 H   0  0  0  0  0  0
  -26.1843  -31.4395   20.6186 H   0  0  0  0  0  0
  -26.8865  -30.7390   22.0393 H   0  0  0  0  0  0
  -28.1388  -28.7264   21.2506 H   0  0  0  0  0  0
  -25.8881  -25.8068   19.0065 H   0  0  0  0  0  0
  -23.9839  -27.2897   18.9753 H   0  0  0  0  0  0
  -23.8333  -30.5542   19.3946 H   0  0  0  0  0  0
  -22.8023  -29.2290   19.8346 H   0  0  0  0  0  0
  -25.1327  -36.1825   25.0801 H   0  0  0  0  0  0
  -21.0016  -28.3325   24.1342 H   0  0  0  0  0  0
  -20.5691  -26.2342   23.3632 H   0  0  0  0  0  0
  -21.6661  -26.7424   22.1203 H   0  0  0  0  0  0
  -19.6939  -25.6279   21.1263 H   0  0  0  0  0  0
  -19.6724  -27.3168   20.6732 H   0  0  0  0  0  0
  -17.4224  -26.6678   21.4014 H   0  0  0  0  0  0
  -18.0337  -26.0103   22.9031 H   0  0  0  0  0  0
  -19.7965  -30.7295   24.2221 H   0  0  0  0  0  0
  -17.5041  -31.6277   24.5155 H   0  0  0  0  0  0
  -15.5370  -30.2979   23.7696 H   0  0  0  0  0  0
  -15.8690  -28.0816   22.7094 H   0  0  0  0  0  0
  -24.5892  -30.7114   25.7705 H   0  0  0  0  0  0
  -24.8873  -32.2979   26.4705 H   0  0  0  0  0  0
  -25.7959  -30.9029   27.0227 H   0  0  0  0  0  0
  -26.3041  -29.6658   24.1328 H   0  0  0  0  0  0
  -27.3974  -29.7260   25.4941 H   0  0  0  0  0  0
  -27.8967  -30.4161   23.9704 H   0  0  0  0  0  0
  -27.2630  -33.3678   26.1981 H   0  0  0  0  0  0
  -28.3911  -32.6849   25.0365 H   0  0  0  0  0  0
  -28.0655  -31.8535   26.5498 H   0  0  0  0  0  0
  -28.2585  -38.0078   24.7494 H   0  0  0  0  0  0
  -28.1074  -36.2604   24.6316 H   0  0  0  0  0  0
  -27.2283  -37.1451   25.8869 H   0  0  0  0  0  0
  -20.9501  -29.8761   21.6751 H   0  0  0  0  0  0
  -26.0144  -38.2798   24.1408 H   0  0  0  0  0  0
  -31.4315  -21.5920   20.5696 H   0  0  0  0  0  0
  -32.1874  -17.3971   20.7316 H   0  0  0  0  0  0
  -33.5474  -20.7713   21.2277 H   0  0  0  0  0  0
  -33.8621  -19.7122   19.8507 H   0  0  0  0  0  0
  -33.8217  -19.0524   21.4887 H   0  0  0  0  0  0
  -27.0674  -24.2736   20.7669 H   0  0  0  0  0  0
  -27.5273  -24.3191   19.0928 H   0  0  0  0  0  0
  -27.7577  -21.5917   20.0980 H   0  0  0  0  0  0
  -28.7604  -16.0880   20.5562 H   0  0  0  0  0  0
  1 25  1  0  0  0
  1 30  2  0  0  0
  1 81  1  0  0  0
  2  3  1  0  0  0
  2 25  1  0  0  0
  2 84  1  0  0  0
  2 85  1  0  0  0
  3  4  1  0  0  0
  3 86  1  0  0  0
  3 87  1  0  0  0
  4  5  1  0  0  0
  4 88  1  0  0  0
  4 89  1  0  0  0
  5  6  1  0  0  0
  5 26  1  0  0  0
  5 90  1  0  0  0
  6 25  1  0  0  0
  6 91  1  0  0  0
  6 92  1  0  0  0
  7  8  2  0  0  0
  7 26  1  0  0  0
  7 29  1  0  0  0
  8  9  1  0  0  0
  8 22  1  0  0  0
  9 10  1  0  0  0
  9 27  2  0  0  0
 10 11  2  0  0  0
 10 15  1  0  0  0
 11 12  1  0  0  0
 11 93  1  0  0  0
 12 13  2  0  0  0
 12 94  1  0  0  0
 13 14  1  0  0  0
 13 31  1  0  0  0
 14 15  2  0  0  0
 14 95  1  0  0  0
 15 96  1  0  0  0
 16 17  2  0  0  0
 16 21  1  0  0  0
 16 31  1  0  0  0
 17 18  1  0  0  0
 17 97  1  0  0  0
 18 19  2  0  0  0
 18 98  1  0  0  0
 19 20  1  0  0  0
 19 24  1  0  0  0
 20 21  2  0  0  0
 20 99  1  0  0  0
 21 23  1  0  0  0
 22 28  1  0  0  0
 22 32  2  0  0  0
 26 27  1  0  0  0
 28100  1  0  0  0
 28101  1  0  0  0
 29102  1  0  0  0
 29103  1  0  0  0
 33 34  1  0  0  0
 33 66  1  0  0  0
 33 70  2  0  0  0
 34 36  1  0  0  0
 34 59  1  0  0  0
 34104  1  0  0  0
 35 44  2  0  0  0
 35 45  1  0  0  0
 35 68  1  0  0  0
 36 56  1  0  0  0
 36105  1  0  0  0
 37 39  1  0  0  0
 37 47  1  0  0  0
 37 66  1  0  0  0
 37106  1  0  0  0
 38 43  2  0  0  0
 38 46  1  0  0  0
 38 47  1  0  0  0
 39 64  1  0  0  0
 39 67  2  0  0  0
 40 52  1  0  0  0
 40 53  2  0  0  0
 40 58  1  0  0  0
 41107  1  0  0  0
 41108  1  0  0  0
 41109  1  0  0  0
 41 48  1  0  0  0
 42 43  1  0  0  0
 42 66  1  0  0  0
 42110  1  0  0  0
 42111  1  0  0  0
 43 44  1  0  0  0
 44112  1  0  0  0
 45 46  2  0  0  0
 45113  1  0  0  0
 46114  1  0  0  0
 47115  1  0  0  0
 47116  1  0  0  0
 48 56  1  0  0  0
 48 65  1  0  0  0
 48117  1  0  0  0
 49 50  1  0  0  0
 49 53  1  0  0  0
 49 64  1  0  0  0
 49118  1  0  0  0
 50 51  1  0  0  0
 50119  1  0  0  0
 50120  1  0  0  0
 51 52  1  0  0  0
 51121  1  0  0  0
 51122  1  0  0  0
 52123  1  0  0  0
 52124  1  0  0  0
 53 54  1  0  0  0
 54 55  2  0  0  0
 54125  1  0  0  0
 55 57  1  0  0  0
 55126  1  0  0  0
 56 69  2  0  0  0
 57 58  2  0  0  0
 57127  1  0  0  0
 58128  1  0  0  0
 59 60  1  0  0  0
 59 61  1  0  0  0
 59 62  1  0  0  0
 60129  1  0  0  0
 60130  1  0  0  0
 60131  1  0  0  0
 61132  1  0  0  0
 61133  1  0  0  0
 61134  1  0  0  0
 62135  1  0  0  0
 62136  1  0  0  0
 62137  1  0  0  0
 63 65  1  0  0  0
 63138  1  0  0  0
 63139  1  0  0  0
 63140  1  0  0  0
 64141  1  0  0  0
 65142  1  0  0  0
 68 79  1  0  0  0
 71 73  2  0  0  0
 71 74  1  0  0  0
 71143  1  0  0  0
 72 73  1  0  0  0
 72 75  2  0  0  0
 72144  1  0  0  0
 73 78  1  0  0  0
 74 76  2  0  0  0
 74 80  1  0  0  0
 75 76  1  0  0  0
 75 81  1  0  0  0
 76 83  1  0  0  0
 77 79  1  0  0  0
 77 80  1  0  0  0
 77 82  2  0  0  0
 78145  1  0  0  0
 78146  1  0  0  0
 78147  1  0  0  0
 79148  1  0  0  0
 79149  1  0  0  0
 80150  1  0  0  0
 81151  1  0  0  0
M  ISO  4   1 100  68 101  79 101  81 100
M  END
> <chiral flag>
0

> <version>
0

> <s_m_source_file>
/data/baiqing/PycharmProjects/Reinvent-master-3.2/result/LINK_invent/BTK/process_docking_weight1_custom_sum_contain_oxygen_bond_distance_aromatic_linkinvent_7_9_3/rearranged_h_0009.sdf

> <i_m_source_file_index>
73

> <r_mmod_Potential_Energy-OPLS-2005>
615.255126953125

> <r_mmod_Stretch_Energy-OPLS-2005>
347.821899414062

> <r_mmod_Bend_Energy-OPLS-2005>
269.537689208984

> <r_mmod_Torsional_Energy-OPLS-2005>
218.579925537109

> <r_mmod_Improper_Torsional_Energy-OPLS-2005>
4.75199794769287

> <r_mmod_Van_der_Waal_Energy-OPLS-2005>
134.472579956055

> <r_mmod_Electrostatic_Energy-OPLS-2005>
-396.409088134766

> <r_mmod_Solvation_Energy-OPLS-2005>
-231.516784667969

> <b_mmod_Minimization_Converged-OPLS-2005>
0

> <r_mmod_RMS_Derivative-OPLS-2005>
0.98411351442337

$$$$
74
                    3D
 Structure written by MMmdl.
171179  0  0  1  0            999 V2000
  -29.9662  -12.9020   20.1620 C   0  0  0  0  0  0
  -31.0586  -12.4032   19.1290 C   0  0  0  0  0  0
  -29.9028  -13.2915   17.8630 C   0  0  0  0  0  0
  -28.3371  -13.9516   18.5627 C   0  0  0  0  0  0
  -27.7333  -13.7003   20.2594 C   0  0  2  0  0  0
  -28.9662  -12.9794   21.4459 C   0  0  0  0  0  0
  -25.2135  -13.9077   20.5943 C   0  0  0  0  0  0
  -24.1785  -13.0726   20.9061 C   0  0  0  0  0  0
  -24.7023  -11.7430   20.8815 C   0  0  0  0  0  0
  -23.9714  -10.4526   21.0280 C   0  0  0  0  0  0
  -24.4015   -9.4360   21.9125 C   0  0  0  0  0  0
  -23.6544   -8.2443   22.0754 C   0  0  0  0  0  0
  -22.4515   -8.0473   21.3552 C   0  0  0  0  0  0
  -22.0295   -9.0495   20.4629 C   0  0  0  0  0  0
  -22.7791  -10.2317   20.2992 C   0  0  0  0  0  0
  -21.6951   -6.0858   22.5266 C   0  0  0  0  0  0
  -21.4087   -6.5713   23.8209 C   0  0  0  0  0  0
  -21.3688   -5.6836   24.9155 C   0  0  0  0  0  0
  -21.6044   -4.3098   24.7188 C   0  0  0  0  0  0
  -21.8807   -3.8217   23.4296 C   0  0  0  0  0  0
  -21.9218   -4.7062   22.3371 C   0  0  0  0  0  0
  -22.7646  -13.5079   21.1618 C   0  0  0  0  0  0
  -22.1669   -4.2237   21.0947 F   0  0  0  0  0  0
  -21.5614   -3.4565   25.7688 F   0  0  0  0  0  0
  -30.4760  -12.3515   20.8139 N   0  0  0  0  0  0
  -26.3531  -13.1443   20.4983 N   0  0  0  0  0  0
  -26.0359  -11.8066   20.6916 N   0  0  0  0  0  0
  -22.0470  -12.7980   22.0250 N   0  0  0  0  0  0
  -25.2956  -15.2805   20.4141 N   0  0  0  0  0  0
  -30.3955  -14.2388   20.1649 O   0  0  0  0  0  0
  -21.6797   -6.9079   21.4260 O   0  0  0  0  0  0
  -22.3141  -14.5331   20.6523 O   0  0  0  0  0  0
  -24.6323  -31.8581   23.2035 C   0  0  0  0  0  0
  -25.9165  -32.4760   23.8352 C   0  0  1  0  0  0
  -27.1540  -27.2803   20.0381 C   0  0  0  0  0  0
  -25.5968  -33.8564   24.2271 N   0  0  0  0  0  0
  -23.4207  -30.4915   21.5526 C   0  0  2  0  0  0
  -24.8429  -28.9483   20.1058 C   0  0  0  0  0  0
  -22.7487  -29.4631   22.4943 C   0  0  0  0  0  0
  -18.0289  -28.1383   22.8487 C   0  0  0  0  0  0
  -24.1492  -36.7282   23.2640 C   0  0  0  0  0  0
  -25.9712  -30.7675   21.3812 C   0  0  0  0  0  0
  -26.0275  -29.3981   20.7049 C   0  0  0  0  0  0
  -27.1967  -28.5730   20.6620 C   0  0  0  0  0  0
  -25.9446  -26.8946   19.4343 C   0  0  0  0  0  0
  -24.8027  -27.7032   19.4688 C   0  0  0  0  0  0
  -23.6263  -29.8438   20.1631 C   0  0  0  0  0  0
  -25.4121  -36.3072   24.0324 C   0  0  1  0  0  0
  -20.5891  -28.3687   23.1279 C   0  0  2  0  0  0
  -20.6778  -26.9412   22.5400 C   0  0  0  0  0  0
  -19.5748  -26.6384   21.5210 C   0  0  0  0  0  0
  -18.1931  -26.7927   22.1626 C   0  0  0  0  0  0
  -19.1542  -28.8852   23.2879 C   0  0  0  0  0  0
  -18.9463  -30.1454   23.8896 C   0  0  0  0  0  0
  -17.6462  -30.6585   24.0562 C   0  0  0  0  0  0
  -25.9066  -34.9442   23.5093 C   0  0  0  0  0  0
  -16.5354  -29.9082   23.6329 C   0  0  0  0  0  0
  -16.7276  -28.6499   23.0352 C   0  0  0  0  0  0
  -26.4518  -31.6587   25.0746 C   0  0  0  0  0  0
  -25.3736  -31.3738   26.1463 C   0  0  0  0  0  0
  -27.0369  -30.3002   24.6243 C   0  0  0  0  0  0
  -27.6063  -32.4331   25.7526 C   0  0  0  0  0  0
  -27.5576  -37.1809   24.8468 C   0  0  0  0  0  0
  -21.4198  -29.3051   22.3686 N   0  0  0  0  0  0
  -26.4295  -37.3769   23.9402 N   0  0  0  0  0  0
  -24.6954  -31.0558   22.1011 N   0  0  0  0  0  0
  -23.4211  -28.8145   23.3002 O   0  0  0  0  0  0
  -28.2157  -26.3680   19.9806 O   0  0  0  0  0  0
  -26.5625  -34.8912   22.4654 O   0  0  0  0  0  0
  -23.5481  -32.1411   23.7350 O   0  0  0  0  0  0
  -27.0477  -11.7751   17.8023 C   0  0  0  0  0  0
  -28.2731  -11.2055   18.3275 C   0  0  0  0  0  0
  -26.9983  -12.1172   16.4367 C   0  0  0  0  0  0
  -28.5850  -10.4932   16.1460 C   0  0  0  0  0  0
  -29.3389   -9.5887   15.1954 C   0  0  0  0  0  0
  -26.7731  -19.7750   18.1996 C   0  0  0  0  0  0
  -26.9696  -18.5832   17.1273 C   0  0  0  0  0  0
  -27.4079  -21.2388   17.9446 C   0  0  0  0  0  0
  -26.2589  -17.1504   17.3570 C   0  0  0  0  0  0
  -27.3203  -22.3726   19.0910 C   0  0  0  0  0  0
  -26.5452  -15.9152   16.3566 C   0  0  0  0  0  0
  -27.8162  -23.8900   18.8300 C   0  0  0  0  0  0
  -25.7587  -14.5062   16.5340 C   0  0  0  0  0  0
  -27.8936  -24.9048   20.0823 C   0  0  0  0  0  0
  -28.9106  -10.4005   17.4435 N   0  0  0  0  0  0
  -27.7473  -11.3863   15.6000 N   0  0  0  0  0  0
  -28.9971  -11.6398   19.6024 N   0  0  0  0  0  0
  -26.3264  -13.2630   15.8701 N   0  0  0  0  0  0
  -32.0702  -12.8436   19.0636 H   0  0  0  0  0  0
  -31.2931  -11.3886   18.7662 H   0  0  0  0  0  0
  -29.7860  -12.7486   16.9302 H   0  0  0  0  0  0
  -30.4548  -14.1644   17.5101 H   0  0  0  0  0  0
  -27.5961  -14.1198   17.8494 H   0  0  0  0  0  0
  -28.6060  -15.0071   18.6311 H   0  0  0  0  0  0
  -27.6843  -14.7226   20.6348 H   0  0  0  0  0  0
  -28.4686  -12.1822   22.0171 H   0  0  0  0  0  0
  -29.1468  -13.7069   22.2551 H   0  0  0  0  0  0
  -25.3120   -9.5768   22.4777 H   0  0  0  0  0  0
  -24.0180   -7.4851   22.7534 H   0  0  0  0  0  0
  -21.1222   -8.9105   19.8913 H   0  0  0  0  0  0
  -22.4269  -10.9842   19.6078 H   0  0  0  0  0  0
  -21.2110   -7.6223   23.9743 H   0  0  0  0  0  0
  -21.1511   -6.0556   25.9064 H   0  0  0  0  0  0
  -22.0545   -2.7675   23.2771 H   0  0  0  0  0  0
  -22.4277  -11.9741   22.4659 H   0  0  0  0  0  0
  -21.1031  -13.0809   22.2461 H   0  0  0  0  0  0
  -24.4775  -15.8776   20.4578 H   0  0  0  0  0  0
  -26.1454  -15.7833   20.1945 H   0  0  0  0  0  0
  -26.7220  -32.5374   23.1075 H   0  0  0  0  0  0
  -25.0130  -33.9704   25.0427 H   0  0  0  0  0  0
  -22.7169  -31.3157   21.4200 H   0  0  0  0  0  0
  -23.3754  -35.9615   23.3310 H   0  0  0  0  0  0
  -24.3577  -36.8899   22.2052 H   0  0  0  0  0  0
  -23.7248  -37.6486   23.6661 H   0  0  0  0  0  0
  -26.1209  -31.5370   20.6225 H   0  0  0  0  0  0
  -26.8468  -30.7979   22.0187 H   0  0  0  0  0  0
  -28.1125  -28.9070   21.1294 H   0  0  0  0  0  0
  -25.8563  -25.9492   18.9226 H   0  0  0  0  0  0
  -23.8930  -27.3597   18.9957 H   0  0  0  0  0  0
  -23.7585  -30.6279   19.4165 H   0  0  0  0  0  0
  -22.7376  -29.2910   19.8528 H   0  0  0  0  0  0
  -25.1305  -36.1922   25.0817 H   0  0  0  0  0  0
  -20.9982  -28.3254   24.1401 H   0  0  0  0  0  0
  -20.5685  -26.2296   23.3598 H   0  0  0  0  0  0
  -21.6645  -26.7444   22.1189 H   0  0  0  0  0  0
  -19.6909  -25.6295   21.1237 H   0  0  0  0  0  0
  -19.6681  -27.3195   20.6739 H   0  0  0  0  0  0
  -17.4199  -26.6674   21.4030 H   0  0  0  0  0  0
  -18.0333  -26.0067   22.9021 H   0  0  0  0  0  0
  -19.7938  -30.7270   24.2265 H   0  0  0  0  0  0
  -17.5016  -31.6265   24.5163 H   0  0  0  0  0  0
  -15.5353  -30.2984   23.7652 H   0  0  0  0  0  0
  -15.8676  -28.0817   22.7068 H   0  0  0  0  0  0
  -24.5917  -30.7078   25.7797 H   0  0  0  0  0  0
  -24.8920  -32.2904   26.4874 H   0  0  0  0  0  0
  -25.8049  -30.8929   27.0252 H   0  0  0  0  0  0
  -26.2960  -29.6747   24.1250 H   0  0  0  0  0  0
  -27.4028  -29.7268   25.4772 H   0  0  0  0  0  0
  -27.8849  -30.4277   23.9511 H   0  0  0  0  0  0
  -27.2665  -33.3632   26.2094 H   0  0  0  0  0  0
  -28.3883  -32.6892   25.0366 H   0  0  0  0  0  0
  -28.0725  -31.8467   26.5455 H   0  0  0  0  0  0
  -28.2605  -38.0094   24.7493 H   0  0  0  0  0  0
  -28.1062  -36.2623   24.6328 H   0  0  0  0  0  0
  -27.2288  -37.1497   25.8870 H   0  0  0  0  0  0
  -20.9372  -29.8812   21.6931 H   0  0  0  0  0  0
  -26.0173  -38.2847   24.1383 H   0  0  0  0  0  0
  -26.3571  -12.3477   18.3663 H   0  0  0  0  0  0
  -29.0782   -8.5464   15.3763 H   0  0  0  0  0  0
  -30.4144   -9.7008   15.3343 H   0  0  0  0  0  0
  -29.1084   -9.8191   14.1552 H   0  0  0  0  0  0
  -27.1469  -19.4166   19.1593 H   0  0  0  0  0  0
  -25.7010  -19.9081   18.3479 H   0  0  0  0  0  0
  -28.0410  -18.4066   17.0258 H   0  0  0  0  0  0
  -26.6505  -18.9563   16.1532 H   0  0  0  0  0  0
  -26.9564  -21.6429   17.0378 H   0  0  0  0  0  0
  -28.4617  -21.1049   17.6993 H   0  0  0  0  0  0
  -25.1812  -17.3142   17.3849 H   0  0  0  0  0  0
  -26.5193  -16.8177   18.3612 H   0  0  0  0  0  0
  -27.8663  -21.9960   19.9563 H   0  0  0  0  0  0
  -26.2814  -22.4282   19.4184 H   0  0  0  0  0  0
  -27.6191  -15.7317   16.3797 H   0  0  0  0  0  0
  -26.3600  -16.2638   15.3403 H   0  0  0  0  0  0
  -27.1711  -24.3231   18.0665 H   0  0  0  0  0  0
  -28.8061  -23.8536   18.3753 H   0  0  0  0  0  0
  -24.7562  -14.6426   16.1274 H   0  0  0  0  0  0
  -25.5725  -14.3053   17.5895 H   0  0  0  0  0  0
  -28.6628  -24.5040   20.7422 H   0  0  0  0  0  0
  -26.9798  -24.7884   20.6672 H   0  0  0  0  0  0
  -29.2002  -10.8372   20.1759 H   0  0  0  0  0  0
  -26.4035  -13.3200   14.8603 H   0  0  0  0  0  0
  1 25  1  0  0  0
  1 30  2  0  0  0
  1 87  1  0  0  0
  2  3  1  0  0  0
  2 25  1  0  0  0
  2 89  1  0  0  0
  2 90  1  0  0  0
  3  4  1  0  0  0
  3 91  1  0  0  0
  3 92  1  0  0  0
  4  5  1  0  0  0
  4 93  1  0  0  0
  4 94  1  0  0  0
  5  6  1  0  0  0
  5 26  1  0  0  0
  5 95  1  0  0  0
  6 25  1  0  0  0
  6 96  1  0  0  0
  6 97  1  0  0  0
  7  8  2  0  0  0
  7 26  1  0  0  0
  7 29  1  0  0  0
  8  9  1  0  0  0
  8 22  1  0  0  0
  9 10  1  0  0  0
  9 27  2  0  0  0
 10 11  2  0  0  0
 10 15  1  0  0  0
 11 12  1  0  0  0
 11 98  1  0  0  0
 12 13  2  0  0  0
 12 99  1  0  0  0
 13 14  1  0  0  0
 13 31  1  0  0  0
 14 15  2  0  0  0
 14100  1  0  0  0
 15101  1  0  0  0
 16 17  2  0  0  0
 16 21  1  0  0  0
 16 31  1  0  0  0
 17 18  1  0  0  0
 17102  1  0  0  0
 18 19  2  0  0  0
 18103  1  0  0  0
 19 20  1  0  0  0
 19 24  1  0  0  0
 20 21  2  0  0  0
 20104  1  0  0  0
 21 23  1  0  0  0
 22 28  1  0  0  0
 22 32  2  0  0  0
 26 27  1  0  0  0
 28105  1  0  0  0
 28106  1  0  0  0
 29107  1  0  0  0
 29108  1  0  0  0
 33 34  1  0  0  0
 33 66  1  0  0  0
 33 70  2  0  0  0
 34 36  1  0  0  0
 34 59  1  0  0  0
 34109  1  0  0  0
 35 44  2  0  0  0
 35 45  1  0  0  0
 35 68  1  0  0  0
 36 56  1  0  0  0
 36110  1  0  0  0
 37 39  1  0  0  0
 37 47  1  0  0  0
 37 66  1  0  0  0
 37111  1  0  0  0
 38 43  2  0  0  0
 38 46  1  0  0  0
 38 47  1  0  0  0
 39 64  1  0  0  0
 39 67  2  0  0  0
 40 52  1  0  0  0
 40 53  2  0  0  0
 40 58  1  0  0  0
 41112  1  0  0  0
 41113  1  0  0  0
 41114  1  0  0  0
 41 48  1  0  0  0
 42 43  1  0  0  0
 42 66  1  0  0  0
 42115  1  0  0  0
 42116  1  0  0  0
 43 44  1  0  0  0
 44117  1  0  0  0
 45 46  2  0  0  0
 45118  1  0  0  0
 46119  1  0  0  0
 47120  1  0  0  0
 47121  1  0  0  0
 48 56  1  0  0  0
 48 65  1  0  0  0
 48122  1  0  0  0
 49 50  1  0  0  0
 49 53  1  0  0  0
 49 64  1  0  0  0
 49123  1  0  0  0
 50 51  1  0  0  0
 50124  1  0  0  0
 50125  1  0  0  0
 51 52  1  0  0  0
 51126  1  0  0  0
 51127  1  0  0  0
 52128  1  0  0  0
 52129  1  0  0  0
 53 54  1  0  0  0
 54 55  2  0  0  0
 54130  1  0  0  0
 55 57  1  0  0  0
 55131  1  0  0  0
 56 69  2  0  0  0
 57 58  2  0  0  0
 57132  1  0  0  0
 58133  1  0  0  0
 59 60  1  0  0  0
 59 61  1  0  0  0
 59 62  1  0  0  0
 60134  1  0  0  0
 60135  1  0  0  0
 60136  1  0  0  0
 61137  1  0  0  0
 61138  1  0  0  0
 61139  1  0  0  0
 62140  1  0  0  0
 62141  1  0  0  0
 62142  1  0  0  0
 63 65  1  0  0  0
 63143  1  0  0  0
 63144  1  0  0  0
 63145  1  0  0  0
 64146  1  0  0  0
 65147  1  0  0  0
 68 84  1  0  0  0
 71 72  2  0  0  0
 71 73  1  0  0  0
 71148  1  0  0  0
 72 85  1  0  0  0
 72 87  1  0  0  0
 73 86  2  0  0  0
 73 88  1  0  0  0
 74 75  1  0  0  0
 74 85  2  0  0  0
 74 86  1  0  0  0
 75149  1  0  0  0
 75150  1  0  0  0
 75151  1  0  0  0
 76 77  1  0  0  0
 76 78  1  0  0  0
 76152  1  0  0  0
 76153  1  0  0  0
 77 79  1  0  0  0
 77154  1  0  0  0
 77155  1  0  0  0
 78 80  1  0  0  0
 78156  1  0  0  0
 78157  1  0  0  0
 79 81  1  0  0  0
 79158  1  0  0  0
 79159  1  0  0  0
 80 82  1  0  0  0
 80160  1  0  0  0
 80161  1  0  0  0
 81 83  1  0  0  0
 81162  1  0  0  0
 81163  1  0  0  0
 82 84  1  0  0  0
 82164  1  0  0  0
 82165  1  0  0  0
 83 88  1  0  0  0
 83166  1  0  0  0
 83167  1  0  0  0
 84168  1  0  0  0
 84169  1  0  0  0
 87170  1  0  0  0
 88171  1  0  0  0
M  ISO  4   1 100  68 101  84 101  87 100
M  END
> <chiral flag>
0

> <version>
0

> <s_m_source_file>
/data/baiqing/PycharmProjects/Reinvent-master-3.2/result/LINK_invent/BTK/process_docking_weight1_custom_sum_contain_oxygen_bond_distance_aromatic_linkinvent_7_9_3/rearranged_h_0009.sdf

> <i_m_source_file_index>
74

> <r_mmod_Potential_Energy-OPLS-2005>
3951.73095703125

> <r_mmod_Stretch_Energy-OPLS-2005>
1527.89294433594

> <r_mmod_Bend_Energy-OPLS-2005>
892.2236328125

> <r_mmod_Torsional_Energy-OPLS-2005>
392.089447021484

> <r_mmod_Improper_Torsional_Energy-OPLS-2005>
7.7912163734436

> <r_mmod_Van_der_Waal_Energy-OPLS-2005>
1104.78479003906

> <r_mmod_Electrostatic_Energy-OPLS-2005>
-864.934387207031

> <r_mmod_Solvation_Energy-OPLS-2005>
-236.444183349609

> <b_mmod_Minimization_Converged-OPLS-2005>
0

> <r_mmod_RMS_Derivative-OPLS-2005>
1.39182937145233

$$$$
75
                    3D
 Structure written by MMmdl.
182189  0  0  1  0            999 V2000
  -30.7722  -14.5189   20.4538 C   0  0  0  0  0  0
  -30.4044  -12.3225   19.4294 C   0  0  0  0  0  0
  -29.4841  -12.4286   18.2008 C   0  0  0  0  0  0
  -28.0092  -12.2784   18.6283 C   0  0  0  0  0  0
  -27.6329  -13.1739   19.8360 C   0  0  2  0  0  0
  -28.6987  -13.1007   20.9610 C   0  0  0  0  0  0
  -25.2495  -13.7980   20.5684 C   0  0  0  0  0  0
  -24.1735  -13.0295   20.9200 C   0  0  0  0  0  0
  -24.6293  -11.6782   20.8787 C   0  0  0  0  0  0
  -23.8966  -10.4192   21.0454 C   0  0  0  0  0  0
  -24.3561   -9.4118   21.9204 C   0  0  0  0  0  0
  -23.6267   -8.2145   22.0739 C   0  0  0  0  0  0
  -22.4249   -8.0193   21.3516 C   0  0  0  0  0  0
  -21.9865   -9.0155   20.4628 C   0  0  0  0  0  0
  -22.7154  -10.2057   20.3088 C   0  0  0  0  0  0
  -21.6855   -6.0699   22.5269 C   0  0  0  0  0  0
  -21.3995   -6.5608   23.8201 C   0  0  0  0  0  0
  -21.3615   -5.6738   24.9155 C   0  0  0  0  0  0
  -21.6044   -4.3017   24.7201 C   0  0  0  0  0  0
  -21.8870   -3.8121   23.4335 C   0  0  0  0  0  0
  -21.9229   -4.6938   22.3393 C   0  0  0  0  0  0
  -22.7785  -13.5158   21.1920 C   0  0  0  0  0  0
  -22.1720   -4.2138   21.0960 F   0  0  0  0  0  0
  -21.5593   -3.4493   25.7703 F   0  0  0  0  0  0
  -30.0019  -13.3959   20.3513 N   0  0  0  0  0  0
  -26.2881  -12.9103   20.3307 N   0  0  0  0  0  0
  -25.9204  -11.6308   20.5826 N   0  0  0  0  0  0
  -22.0409  -12.8148   22.0474 N   0  0  0  0  0  0
  -25.4241  -15.1669   20.4209 N   0  0  0  0  0  0
  -31.9842  -14.4877   20.2803 O   0  0  0  0  0  0
  -21.6597   -6.8822   21.4216 O   0  0  0  0  0  0
  -22.3513  -14.5512   20.6841 O   0  0  0  0  0  0
  -24.6106  -31.8696   23.2106 C   0  0  0  0  0  0
  -25.9020  -32.4824   23.8389 C   0  0  1  0  0  0
  -27.2430  -27.4681   20.0936 C   0  0  0  0  0  0
  -25.5895  -33.8625   24.2336 N   0  0  0  0  0  0
  -23.3972  -30.4927   21.5493 C   0  0  2  0  0  0
  -24.8467  -28.9569   20.1192 C   0  0  0  0  0  0
  -22.7377  -29.4673   22.4984 C   0  0  0  0  0  0
  -18.0271  -28.1374   22.8491 C   0  0  0  0  0  0
  -24.1485  -36.7304   23.2633 C   0  0  0  0  0  0
  -25.9219  -30.8473   21.3569 C   0  0  0  0  0  0
  -26.0037  -29.4817   20.7087 C   0  0  0  0  0  0
  -27.2062  -28.7443   20.6917 C   0  0  0  0  0  0
  -26.0705  -26.9441   19.5094 C   0  0  0  0  0  0
  -24.8719  -27.6837   19.5204 C   0  0  0  0  0  0
  -23.6066  -29.8198   20.1656 C   0  0  0  0  0  0
  -25.4101  -36.3107   24.0340 C   0  0  1  0  0  0
  -20.5857  -28.3661   23.1317 C   0  0  2  0  0  0
  -20.6764  -26.9401   22.5413 C   0  0  0  0  0  0
  -19.5749  -26.6394   21.5197 C   0  0  0  0  0  0
  -18.1926  -26.7924   22.1613 C   0  0  0  0  0  0
  -19.1521  -28.8829   23.2911 C   0  0  0  0  0  0
  -18.9453  -30.1431   23.8929 C   0  0  0  0  0  0
  -17.6460  -30.6579   24.0570 C   0  0  0  0  0  0
  -25.9030  -34.9470   23.5129 C   0  0  0  0  0  0
  -16.5349  -29.9089   23.6322 C   0  0  0  0  0  0
  -16.7263  -28.6505   23.0344 C   0  0  0  0  0  0
  -26.4479  -31.6585   25.0692 C   0  0  0  0  0  0
  -25.3769  -31.3687   26.1458 C   0  0  0  0  0  0
  -27.0291  -30.3027   24.6031 C   0  0  0  0  0  0
  -27.6068  -32.4287   25.7454 C   0  0  0  0  0  0
  -27.5577  -37.1799   24.8466 C   0  0  0  0  0  0
  -21.4114  -29.3033   22.3719 N   0  0  0  0  0  0
  -26.4285  -37.3787   23.9418 N   0  0  0  0  0  0
  -24.6616  -31.0826   22.0991 N   0  0  0  0  0  0
  -23.4161  -28.8220   23.3020 O   0  0  0  0  0  0
  -28.4212  -26.7630   20.0682 O   0  0  0  0  0  0
  -26.5581  -34.8924   22.4689 O   0  0  0  0  0  0
  -23.5308  -32.1436   23.7528 O   0  0  0  0  0  0
  -28.5834  -24.3370   19.7784 C   0  0  0  0  0  0
  -29.0320  -16.2574   20.0918 C   0  0  0  0  0  0
  -27.4182  -17.8112   18.8116 C   0  0  0  0  0  0
  -28.3948  -25.5077   20.7528 C   0  0  0  0  0  0
  -33.2069  -19.2213   15.3852 C   0  0  0  0  0  0
  -32.2783  -19.2282   16.6077 C   0  0  0  0  0  0
  -33.2455  -17.8606   14.6540 C   0  0  0  0  0  0
  -32.0832  -20.5975   17.2627 C   0  0  0  0  0  0
  -31.8557  -17.3144   14.2520 C   0  0  0  0  0  0
  -30.8874  -20.5656   18.2253 C   0  0  0  0  0  0
  -31.2529  -16.3474   15.2933 C   0  0  0  0  0  0
  -30.5841  -21.9339   18.8438 C   0  0  0  0  0  0
  -29.7158  -16.2099   15.2127 C   0  0  0  0  0  0
  -29.2452  -21.9365   19.6010 C   0  0  0  0  0  0
  -28.9486  -16.9853   16.3091 C   0  0  0  0  0  0
  -28.8159  -17.1488   18.8434 C   0  0  2  0  0  0
  -30.2636  -15.7543   20.2496 N   0  0  0  0  0  0
  -29.0314  -23.1922   20.3120 N   0  0  0  0  0  0
  -29.0612  -16.3188   17.6297 N   0  3  0  0  0  0
  -28.3234  -24.4567   18.5783 O   0  0  0  0  0  0
  -28.1054  -16.0506   20.8759 O   0  0  0  0  0  0
  -31.4498  -12.3836   19.1164 H   0  0  0  0  0  0
  -30.2986  -11.3496   19.9119 H   0  0  0  0  0  0
  -29.7445  -11.6523   17.4803 H   0  0  0  0  0  0
  -29.6377  -13.3765   17.6857 H   0  0  0  0  0  0
  -27.8543  -11.2316   18.8945 H   0  0  0  0  0  0
  -27.3450  -12.4767   17.7851 H   0  0  0  0  0  0
  -27.6016  -14.1661   19.4040 H   0  0  0  0  0  0
  -28.7099  -12.1044   21.4067 H   0  0  0  0  0  0
  -28.4772  -13.7861   21.7799 H   0  0  0  0  0  0
  -25.2711   -9.5580   22.4783 H   0  0  0  0  0  0
  -23.9992   -7.4540   22.7459 H   0  0  0  0  0  0
  -21.0811   -8.8603   19.8918 H   0  0  0  0  0  0
  -22.3606  -10.9611   19.6215 H   0  0  0  0  0  0
  -21.1952   -7.6111   23.9716 H   0  0  0  0  0  0
  -21.1387   -6.0431   25.9046 H   0  0  0  0  0  0
  -22.0713   -2.7598   23.2814 H   0  0  0  0  0  0
  -22.3985  -11.9790   22.4842 H   0  0  0  0  0  0
  -21.1050  -13.1235   22.2730 H   0  0  0  0  0  0
  -24.6807  -15.8004   20.6919 H   0  0  0  0  0  0
  -26.3514  -15.5453   20.6181 H   0  0  0  0  0  0
  -26.7087  -32.5566   23.1156 H   0  0  0  0  0  0
  -25.0074  -33.9787   25.0499 H   0  0  0  0  0  0
  -22.6838  -31.3074   21.4075 H   0  0  0  0  0  0
  -23.3744  -35.9640   23.3303 H   0  0  0  0  0  0
  -24.3579  -36.8907   22.2044 H   0  0  0  0  0  0
  -23.7243  -37.6515   23.6642 H   0  0  0  0  0  0
  -26.0224  -31.6134   20.5865 H   0  0  0  0  0  0
  -26.8138  -30.9074   21.9696 H   0  0  0  0  0  0
  -28.1027  -29.1490   21.1410 H   0  0  0  0  0  0
  -26.0877  -25.9724   19.0367 H   0  0  0  0  0  0
  -23.9812  -27.2706   19.0671 H   0  0  0  0  0  0
  -23.7142  -30.5917   19.4028 H   0  0  0  0  0  0
  -22.7332  -29.2356   19.8705 H   0  0  0  0  0  0
  -25.1277  -36.1959   25.0828 H   0  0  0  0  0  0
  -20.9960  -28.3234   24.1431 H   0  0  0  0  0  0
  -20.5654  -26.2267   23.3593 H   0  0  0  0  0  0
  -21.6641  -26.7443   22.1215 H   0  0  0  0  0  0
  -19.6914  -25.6311   21.1209 H   0  0  0  0  0  0
  -19.6688  -27.3219   20.6738 H   0  0  0  0  0  0
  -17.4190  -26.6660   21.4020 H   0  0  0  0  0  0
  -18.0347  -26.0060   22.9009 H   0  0  0  0  0  0
  -19.7930  -30.7235   24.2319 H   0  0  0  0  0  0
  -17.5018  -31.6262   24.5171 H   0  0  0  0  0  0
  -15.5354  -30.3006   23.7628 H   0  0  0  0  0  0
  -15.8659  -28.0834   22.7048 H   0  0  0  0  0  0
  -24.5927  -30.7048   25.7808 H   0  0  0  0  0  0
  -24.8986  -32.2846   26.4934 H   0  0  0  0  0  0
  -25.8143  -30.8837   27.0192 H   0  0  0  0  0  0
  -26.2802  -29.6779   24.1147 H   0  0  0  0  0  0
  -27.4143  -29.7266   25.4456 H   0  0  0  0  0  0
  -27.8607  -30.4343   23.9102 H   0  0  0  0  0  0
  -27.2700  -33.3577   26.2067 H   0  0  0  0  0  0
  -28.3869  -32.6855   25.0275 H   0  0  0  0  0  0
  -28.0746  -31.8381   26.5341 H   0  0  0  0  0  0
  -28.2600  -38.0092   24.7512 H   0  0  0  0  0  0
  -28.1067  -36.2623   24.6289 H   0  0  0  0  0  0
  -27.2298  -37.1450   25.8870 H   0  0  0  0  0  0
  -20.9253  -29.8738   21.6942 H   0  0  0  0  0  0
  -26.0171  -38.2861   24.1436 H   0  0  0  0  0  0
  -27.1908  -18.3062   19.7557 H   0  0  0  0  0  0
  -26.6283  -17.0836   18.6181 H   0  0  0  0  0  0
  -27.3609  -18.5778   18.0370 H   0  0  0  0  0  0
  -29.2141  -25.5044   21.4729 H   0  0  0  0  0  0
  -27.4759  -25.3536   21.3224 H   0  0  0  0  0  0
  -34.2156  -19.4976   15.6931 H   0  0  0  0  0  0
  -32.8840  -19.9939   14.6856 H   0  0  0  0  0  0
  -32.6221  -18.5035   17.3478 H   0  0  0  0  0  0
  -31.2968  -18.9023   16.2813 H   0  0  0  0  0  0
  -33.7732  -17.1221   15.2590 H   0  0  0  0  0  0
  -33.8482  -17.9819   13.7519 H   0  0  0  0  0  0
  -31.9040  -21.3468   16.4888 H   0  0  0  0  0  0
  -32.9908  -20.8974   17.7873 H   0  0  0  0  0  0
  -31.9325  -16.7783   13.3039 H   0  0  0  0  0  0
  -31.1878  -18.1557   14.0577 H   0  0  0  0  0  0
  -31.0745  -19.8408   19.0203 H   0  0  0  0  0  0
  -30.0034  -20.2108   17.6893 H   0  0  0  0  0  0
  -31.5471  -16.6444   16.2970 H   0  0  0  0  0  0
  -31.7123  -15.3675   15.1527 H   0  0  0  0  0  0
  -30.5564  -22.6882   18.0554 H   0  0  0  0  0  0
  -31.4010  -22.2096   19.5125 H   0  0  0  0  0  0
  -29.4452  -15.1539   15.2638 H   0  0  0  0  0  0
  -29.3727  -16.5393   14.2301 H   0  0  0  0  0  0
  -29.2249  -21.1212   20.3268 H   0  0  0  0  0  0
  -28.4192  -21.7499   18.9111 H   0  0  0  0  0  0
  -27.8948  -17.0382   16.0352 H   0  0  0  0  0  0
  -29.2959  -18.0167   16.3587 H   0  0  0  0  0  0
  -29.5600  -17.9442   18.8814 H   0  0  0  0  0  0
  -31.0020  -16.3893   19.9912 H   0  0  0  0  0  0
  -29.2173  -23.1896   21.3075 H   0  0  0  0  0  0
  -29.9959  -15.9514   17.6949 H   0  0  0  0  0  0
  -28.4300  -15.5328   17.6358 H   0  0  0  0  0  0
  1 25  1  0  0  0
  1 30  2  0  0  0
  1 87  1  0  0  0
  2  3  1  0  0  0
  2 25  1  0  0  0
  2 92  1  0  0  0
  2 93  1  0  0  0
  3  4  1  0  0  0
  3 94  1  0  0  0
  3 95  1  0  0  0
  4  5  1  0  0  0
  4 96  1  0  0  0
  4 97  1  0  0  0
  5  6  1  0  0  0
  5 26  1  0  0  0
  5 98  1  0  0  0
  6 25  1  0  0  0
  6 99  1  0  0  0
  6100  1  0  0  0
  7  8  2  0  0  0
  7 26  1  0  0  0
  7 29  1  0  0  0
  8  9  1  0  0  0
  8 22  1  0  0  0
  9 10  1  0  0  0
  9 27  2  0  0  0
 10 11  2  0  0  0
 10 15  1  0  0  0
 11 12  1  0  0  0
 11101  1  0  0  0
 12 13  2  0  0  0
 12102  1  0  0  0
 13 14  1  0  0  0
 13 31  1  0  0  0
 14 15  2  0  0  0
 14103  1  0  0  0
 15104  1  0  0  0
 16 17  2  0  0  0
 16 21  1  0  0  0
 16 31  1  0  0  0
 17 18  1  0  0  0
 17105  1  0  0  0
 18 19  2  0  0  0
 18106  1  0  0  0
 19 20  1  0  0  0
 19 24  1  0  0  0
 20 21  2  0  0  0
 20107  1  0  0  0
 21 23  1  0  0  0
 22 28  1  0  0  0
 22 32  2  0  0  0
 26 27  1  0  0  0
 28108  1  0  0  0
 28109  1  0  0  0
 29110  1  0  0  0
 29111  1  0  0  0
 33 34  1  0  0  0
 33 66  1  0  0  0
 33 70  2  0  0  0
 34 36  1  0  0  0
 34 59  1  0  0  0
 34112  1  0  0  0
 35 44  2  0  0  0
 35 45  1  0  0  0
 35 68  1  0  0  0
 36 56  1  0  0  0
 36113  1  0  0  0
 37 39  1  0  0  0
 37 47  1  0  0  0
 37 66  1  0  0  0
 37114  1  0  0  0
 38 43  2  0  0  0
 38 46  1  0  0  0
 38 47  1  0  0  0
 39 64  1  0  0  0
 39 67  2  0  0  0
 40 52  1  0  0  0
 40 53  2  0  0  0
 40 58  1  0  0  0
 41115  1  0  0  0
 41116  1  0  0  0
 41117  1  0  0  0
 41 48  1  0  0  0
 42 43  1  0  0  0
 42 66  1  0  0  0
 42118  1  0  0  0
 42119  1  0  0  0
 43 44  1  0  0  0
 44120  1  0  0  0
 45 46  2  0  0  0
 45121  1  0  0  0
 46122  1  0  0  0
 47123  1  0  0  0
 47124  1  0  0  0
 48 56  1  0  0  0
 48 65  1  0  0  0
 48125  1  0  0  0
 49 50  1  0  0  0
 49 53  1  0  0  0
 49 64  1  0  0  0
 49126  1  0  0  0
 50 51  1  0  0  0
 50127  1  0  0  0
 50128  1  0  0  0
 51 52  1  0  0  0
 51129  1  0  0  0
 51130  1  0  0  0
 52131  1  0  0  0
 52132  1  0  0  0
 53 54  1  0  0  0
 54 55  2  0  0  0
 54133  1  0  0  0
 55 57  1  0  0  0
 55134  1  0  0  0
 56 69  2  0  0  0
 57 58  2  0  0  0
 57135  1  0  0  0
 58136  1  0  0  0
 59 60  1  0  0  0
 59 61  1  0  0  0
 59 62  1  0  0  0
 60137  1  0  0  0
 60138  1  0  0  0
 60139  1  0  0  0
 61140  1  0  0  0
 61141  1  0  0  0
 61142  1  0  0  0
 62143  1  0  0  0
 62144  1  0  0  0
 62145  1  0  0  0
 63 65  1  0  0  0
 63146  1  0  0  0
 63147  1  0  0  0
 63148  1  0  0  0
 64149  1  0  0  0
 65150  1  0  0  0
 68 74  1  0  0  0
 71 74  1  0  0  0
 71 88  1  0  0  0
 71 90  2  0  0  0
 72 86  1  0  0  0
 72 87  1  0  0  0
 72 91  2  0  0  0
 73151  1  0  0  0
 73152  1  0  0  0
 73153  1  0  0  0
 73 86  1  0  0  0
 74154  1  0  0  0
 74155  1  0  0  0
 75 76  1  0  0  0
 75 77  1  0  0  0
 75156  1  0  0  0
 75157  1  0  0  0
 76 78  1  0  0  0
 76158  1  0  0  0
 76159  1  0  0  0
 77 79  1  0  0  0
 77160  1  0  0  0
 77161  1  0  0  0
 78 80  1  0  0  0
 78162  1  0  0  0
 78163  1  0  0  0
 79 81  1  0  0  0
 79164  1  0  0  0
 79165  1  0  0  0
 80 82  1  0  0  0
 80166  1  0  0  0
 80167  1  0  0  0
 81 83  1  0  0  0
 81168  1  0  0  0
 81169  1  0  0  0
 82 84  1  0  0  0
 82170  1  0  0  0
 82171  1  0  0  0
 83 85  1  0  0  0
 83172  1  0  0  0
 83173  1  0  0  0
 84 88  1  0  0  0
 84174  1  0  0  0
 84175  1  0  0  0
 85 89  1  0  0  0
 85176  1  0  0  0
 85177  1  0  0  0
 86 89  1  0  0  0
 86178  1  0  0  0
 87179  1  0  0  0
 88180  1  0  0  0
 89181  1  0  0  0
 89182  1  0  0  0
M  CHG  1  89   1
M  ISO  4   1 100  68 101  74 101  87 100
M  END
> <chiral flag>
0

> <version>
0

> <s_m_source_file>
/data/baiqing/PycharmProjects/Reinvent-master-3.2/result/LINK_invent/BTK/process_docking_weight1_custom_sum_contain_oxygen_bond_distance_aromatic_linkinvent_7_9_3/rearranged_h_0009.sdf

> <i_m_source_file_index>
75

> <r_mmod_Potential_Energy-OPLS-2005>
-266.845245361328

> <r_mmod_Stretch_Energy-OPLS-2005>
34.4581832885742

> <r_mmod_Bend_Energy-OPLS-2005>
140.762420654297

> <r_mmod_Torsional_Energy-OPLS-2005>
317.023101806641

> <r_mmod_Improper_Torsional_Energy-OPLS-2005>
18.3254852294922

> <r_mmod_Van_der_Waal_Energy-OPLS-2005>
123.595283508301

> <r_mmod_Electrostatic_Energy-OPLS-2005>
-441.614837646484

> <r_mmod_Solvation_Energy-OPLS-2005>
-496.799377441406

> <b_mmod_Minimization_Converged-OPLS-2005>
0

> <r_mmod_RMS_Derivative-OPLS-2005>
3.27693367004395

$$$$
76
                    3D
 Structure written by MMmdl.
150158  0  0  1  0            999 V2000
  -30.5608  -15.0045   20.3823 C   0  0  0  0  0  0
  -30.4340  -12.6150   19.4962 C   0  0  0  0  0  0
  -29.5209  -12.5371   18.2501 C   0  0  0  0  0  0
  -28.0590  -12.3089   18.6790 C   0  0  0  0  0  0
  -27.6292  -13.2556   19.8313 C   0  0  2  0  0  0
  -28.6789  -13.3278   20.9636 C   0  0  0  0  0  0
  -25.2465  -13.8220   20.5684 C   0  0  0  0  0  0
  -24.1788  -13.0423   20.9239 C   0  0  0  0  0  0
  -24.6423  -11.6928   20.8752 C   0  0  0  0  0  0
  -23.9078  -10.4294   21.0377 C   0  0  0  0  0  0
  -24.3615   -9.4212   21.9159 C   0  0  0  0  0  0
  -23.6318   -8.2221   22.0727 C   0  0  0  0  0  0
  -22.4307   -8.0253   21.3516 C   0  0  0  0  0  0
  -21.9915   -9.0237   20.4621 C   0  0  0  0  0  0
  -22.7218  -10.2139   20.3053 C   0  0  0  0  0  0
  -21.6869   -6.0724   22.5258 C   0  0  0  0  0  0
  -21.4006   -6.5620   23.8195 C   0  0  0  0  0  0
  -21.3670   -5.6777   24.9154 C   0  0  0  0  0  0
  -21.6073   -4.3049   24.7207 C   0  0  0  0  0  0
  -21.8811   -3.8124   23.4328 C   0  0  0  0  0  0
  -21.9196   -4.6943   22.3384 C   0  0  0  0  0  0
  -22.7798  -13.5193   21.1891 C   0  0  0  0  0  0
  -22.1655   -4.2110   21.0971 F   0  0  0  0  0  0
  -21.5657   -3.4548   25.7734 F   0  0  0  0  0  0
  -29.9450  -13.7456   20.3482 N   0  0  0  0  0  0
  -26.2918  -12.9469   20.3272 N   0  0  0  0  0  0
  -25.9368  -11.6589   20.5733 N   0  0  0  0  0  0
  -22.0455  -12.8216   22.0486 N   0  0  0  0  0  0
  -25.4069  -15.1934   20.3966 N   0  0  0  0  0  0
  -31.7816  -14.9934   20.2001 O   0  0  0  0  0  0
  -21.6652   -6.8864   21.4224 O   0  0  0  0  0  0
  -22.3474  -14.5492   20.6743 O   0  0  0  0  0  0
  -24.6486  -31.8396   23.1852 C   0  0  0  0  0  0
  -25.9229  -32.4685   23.8268 C   0  0  1  0  0  0
  -27.2152  -27.0666   20.1536 C   0  0  0  0  0  0
  -25.5969  -33.8489   24.2173 N   0  0  0  0  0  0
  -23.4580  -30.4561   21.5316 C   0  0  2  0  0  0
  -24.9074  -28.8679   20.1164 C   0  0  0  0  0  0
  -22.7589  -29.4523   22.4845 C   0  0  0  0  0  0
  -18.0307  -28.1398   22.8462 C   0  0  0  0  0  0
  -24.1497  -36.7242   23.2641 C   0  0  0  0  0  0
  -26.0194  -30.6847   21.3992 C   0  0  0  0  0  0
  -26.0873  -29.2892   20.7415 C   0  0  0  0  0  0
  -27.2421  -28.4065   20.7390 C   0  0  0  0  0  0
  -26.0054  -26.7642   19.4901 C   0  0  0  0  0  0
  -24.8807  -27.6203   19.4790 C   0  0  0  0  0  0
  -23.6898  -29.7810   20.1544 C   0  0  0  0  0  0
  -25.4135  -36.3028   24.0312 C   0  0  1  0  0  0
  -20.5929  -28.3744   23.1204 C   0  0  2  0  0  0
  -20.6785  -26.9434   22.5411 C   0  0  0  0  0  0
  -19.5775  -26.6359   21.5208 C   0  0  0  0  0  0
  -18.1953  -26.7927   22.1610 C   0  0  0  0  0  0
  -19.1565  -28.8887   23.2828 C   0  0  0  0  0  0
  -18.9479  -30.1473   23.8864 C   0  0  0  0  0  0
  -17.6481  -30.6601   24.0544 C   0  0  0  0  0  0
  -25.9080  -34.9414   23.5058 C   0  0  0  0  0  0
  -16.5366  -29.9091   23.6339 C   0  0  0  0  0  0
  -16.7288  -28.6508   23.0357 C   0  0  0  0  0  0
  -26.4526  -31.6577   25.0753 C   0  0  0  0  0  0
  -25.3667  -31.3823   26.1429 C   0  0  0  0  0  0
  -27.0367  -30.2946   24.6413 C   0  0  0  0  0  0
  -27.6070  -32.4332   25.7519 C   0  0  0  0  0  0
  -27.5590  -37.1768   24.8447 C   0  0  0  0  0  0
  -21.4284  -29.3073   22.3577 N   0  0  0  0  0  0
  -26.4286  -37.3761   23.9416 N   0  0  0  0  0  0
  -24.7289  -31.0164   22.0932 N   0  0  0  0  0  0
  -23.4193  -28.8072   23.3014 O   0  0  0  0  0  0
  -28.2607  -26.0482   20.1803 O   0  0  0  0  0  0
  -26.5677  -34.8904   22.4646 O   0  0  0  0  0  0
  -23.5581  -32.1317   23.7023 O   0  0  0  0  0  0
  -31.3497  -19.4579   18.8043 C   0  0  0  0  0  0
  -30.5836  -20.5614   19.2376 C   0  0  0  0  0  0
  -29.2381  -18.9650   20.4812 C   0  0  0  0  0  0
  -31.1014  -18.1227   19.2044 C   0  0  0  0  0  0
  -30.0488  -17.7544   20.0935 C   0  0  0  0  0  0
  -29.4644  -20.4015   20.0774 C   0  0  0  0  0  0
  -27.9848  -24.4878   20.3237 C   0  0  0  0  0  0
  -28.9743  -23.1080   20.0345 C   0  0  0  0  0  0
  -31.9392  -17.1743   18.6434 N   0  0  0  0  0  0
  -29.8136  -16.2396   20.4581 N   0  0  0  0  0  0
  -28.6827  -21.6104   20.4278 O   0  0  0  0  0  0
  -31.4751  -12.7476   19.1941 H   0  0  0  0  0  0
  -30.4062  -11.6708   20.0424 H   0  0  0  0  0  0
  -29.8521  -11.7386   17.5843 H   0  0  0  0  0  0
  -29.5950  -13.4666   17.6813 H   0  0  0  0  0  0
  -27.9815  -11.2747   19.0138 H   0  0  0  0  0  0
  -27.3867  -12.4006   17.8245 H   0  0  0  0  0  0
  -27.5785  -14.2476   19.3824 H   0  0  0  0  0  0
  -28.7817  -12.3720   21.4759 H   0  0  0  0  0  0
  -28.3839  -14.0551   21.7211 H   0  0  0  0  0  0
  -25.2750   -9.5734   22.4728 H   0  0  0  0  0  0
  -24.0039   -7.4639   22.7477 H   0  0  0  0  0  0
  -21.0817   -8.8754   19.8972 H   0  0  0  0  0  0
  -22.3623  -10.9677   19.6186 H   0  0  0  0  0  0
  -21.1971   -7.6125   23.9688 H   0  0  0  0  0  0
  -21.1522   -6.0508   25.9076 H   0  0  0  0  0  0
  -22.0589   -2.7583   23.2838 H   0  0  0  0  0  0
  -22.4085  -11.9926   22.4928 H   0  0  0  0  0  0
  -21.1062  -13.1230   22.2667 H   0  0  0  0  0  0
  -24.6227  -15.8338   20.4604 H   0  0  0  0  0  0
  -26.2323  -15.6196   19.9982 H   0  0  0  0  0  0
  -26.7290  -32.5253   23.0975 H   0  0  0  0  0  0
  -25.0097  -33.9589   25.0309 H   0  0  0  0  0  0
  -22.7673  -31.2884   21.3725 H   0  0  0  0  0  0
  -23.3789  -35.9534   23.3259 H   0  0  0  0  0  0
  -24.3575  -36.8918   22.2057 H   0  0  0  0  0  0
  -23.7184  -37.6402   23.6702 H   0  0  0  0  0  0
  -26.1892  -31.4354   20.6266 H   0  0  0  0  0  0
  -26.8834  -30.7379   22.0502 H   0  0  0  0  0  0
  -28.1416  -28.7246   21.2473 H   0  0  0  0  0  0
  -25.8960  -25.8247   18.9709 H   0  0  0  0  0  0
  -23.9789  -27.2976   18.9771 H   0  0  0  0  0  0
  -23.8359  -30.5531   19.3979 H   0  0  0  0  0  0
  -22.8039  -29.2276   19.8422 H   0  0  0  0  0  0
  -25.1320  -36.1872   25.0797 H   0  0  0  0  0  0
  -21.0020  -28.3328   24.1322 H   0  0  0  0  0  0
  -20.5645  -26.2366   23.3646 H   0  0  0  0  0  0
  -21.6652  -26.7406   22.1248 H   0  0  0  0  0  0
  -19.6947  -25.6255   21.1282 H   0  0  0  0  0  0
  -19.6725  -27.3114   20.6700 H   0  0  0  0  0  0
  -17.4236  -26.6662   21.4003 H   0  0  0  0  0  0
  -18.0362  -26.0078   22.9020 H   0  0  0  0  0  0
  -19.7956  -30.7284   24.2229 H   0  0  0  0  0  0
  -17.5040  -31.6274   24.5150 H   0  0  0  0  0  0
  -15.5369  -30.2983   23.7685 H   0  0  0  0  0  0
  -15.8685  -28.0804   22.7101 H   0  0  0  0  0  0
  -24.5828  -30.7213   25.7725 H   0  0  0  0  0  0
  -24.8884  -32.3033   26.4776 H   0  0  0  0  0  0
  -25.7888  -30.9016   27.0265 H   0  0  0  0  0  0
  -26.3001  -29.6684   24.1381 H   0  0  0  0  0  0
  -27.3869  -29.7263   25.5039 H   0  0  0  0  0  0
  -27.8970  -30.4133   23.9823 H   0  0  0  0  0  0
  -27.2695  -33.3642   26.2082 H   0  0  0  0  0  0
  -28.3887  -32.6874   25.0347 H   0  0  0  0  0  0
  -28.0759  -31.8482   26.5442 H   0  0  0  0  0  0
  -28.2590  -38.0097   24.7570 H   0  0  0  0  0  0
  -28.1120  -36.2635   24.6189 H   0  0  0  0  0  0
  -27.2331  -37.1311   25.8857 H   0  0  0  0  0  0
  -20.9510  -29.8769   21.6735 H   0  0  0  0  0  0
  -26.0164  -38.2824   24.1467 H   0  0  0  0  0  0
  -32.1637  -19.6502   18.1161 H   0  0  0  0  0  0
  -30.8760  -21.5402   18.8862 H   0  0  0  0  0  0
  -28.3994  -18.7727   21.1338 H   0  0  0  0  0  0
  -27.6922  -24.3908   21.3686 H   0  0  0  0  0  0
  -27.0747  -24.2580   19.7750 H   0  0  0  0  0  0
  -29.9436  -23.3222   20.4850 H   0  0  0  0  0  0
  -29.1644  -23.0895   18.9599 H   0  0  0  0  0  0
  -32.8105  -17.5093   18.2486 H   0  0  0  0  0  0
  -32.0651  -16.3335   19.2244 H   0  0  0  0  0  0
  -28.8664  -16.0457   20.7400 H   0  0  0  0  0  0
  1 25  1  0  0  0
  1 30  2  0  0  0
  1 80  1  0  0  0
  2  3  1  0  0  0
  2 25  1  0  0  0
  2 82  1  0  0  0
  2 83  1  0  0  0
  3  4  1  0  0  0
  3 84  1  0  0  0
  3 85  1  0  0  0
  4  5  1  0  0  0
  4 86  1  0  0  0
  4 87  1  0  0  0
  5  6  1  0  0  0
  5 26  1  0  0  0
  5 88  1  0  0  0
  6 25  1  0  0  0
  6 89  1  0  0  0
  6 90  1  0  0  0
  7  8  2  0  0  0
  7 26  1  0  0  0
  7 29  1  0  0  0
  8  9  1  0  0  0
  8 22  1  0  0  0
  9 10  1  0  0  0
  9 27  2  0  0  0
 10 11  2  0  0  0
 10 15  1  0  0  0
 11 12  1  0  0  0
 11 91  1  0  0  0
 12 13  2  0  0  0
 12 92  1  0  0  0
 13 14  1  0  0  0
 13 31  1  0  0  0
 14 15  2  0  0  0
 14 93  1  0  0  0
 15 94  1  0  0  0
 16 17  2  0  0  0
 16 21  1  0  0  0
 16 31  1  0  0  0
 17 18  1  0  0  0
 17 95  1  0  0  0
 18 19  2  0  0  0
 18 96  1  0  0  0
 19 20  1  0  0  0
 19 24  1  0  0  0
 20 21  2  0  0  0
 20 97  1  0  0  0
 21 23  1  0  0  0
 22 28  1  0  0  0
 22 32  2  0  0  0
 26 27  1  0  0  0
 28 98  1  0  0  0
 28 99  1  0  0  0
 29100  1  0  0  0
 29101  1  0  0  0
 33 34  1  0  0  0
 33 66  1  0  0  0
 33 70  2  0  0  0
 34 36  1  0  0  0
 34 59  1  0  0  0
 34102  1  0  0  0
 35 44  2  0  0  0
 35 45  1  0  0  0
 35 68  1  0  0  0
 36 56  1  0  0  0
 36103  1  0  0  0
 37 39  1  0  0  0
 37 47  1  0  0  0
 37 66  1  0  0  0
 37104  1  0  0  0
 38 43  2  0  0  0
 38 46  1  0  0  0
 38 47  1  0  0  0
 39 64  1  0  0  0
 39 67  2  0  0  0
 40 52  1  0  0  0
 40 53  2  0  0  0
 40 58  1  0  0  0
 41105  1  0  0  0
 41106  1  0  0  0
 41107  1  0  0  0
 41 48  1  0  0  0
 42 43  1  0  0  0
 42 66  1  0  0  0
 42108  1  0  0  0
 42109  1  0  0  0
 43 44  1  0  0  0
 44110  1  0  0  0
 45 46  2  0  0  0
 45111  1  0  0  0
 46112  1  0  0  0
 47113  1  0  0  0
 47114  1  0  0  0
 48 56  1  0  0  0
 48 65  1  0  0  0
 48115  1  0  0  0
 49 50  1  0  0  0
 49 53  1  0  0  0
 49 64  1  0  0  0
 49116  1  0  0  0
 50 51  1  0  0  0
 50117  1  0  0  0
 50118  1  0  0  0
 51 52  1  0  0  0
 51119  1  0  0  0
 51120  1  0  0  0
 52121  1  0  0  0
 52122  1  0  0  0
 53 54  1  0  0  0
 54 55  2  0  0  0
 54123  1  0  0  0
 55 57  1  0  0  0
 55124  1  0  0  0
 56 69  2  0  0  0
 57 58  2  0  0  0
 57125  1  0  0  0
 58126  1  0  0  0
 59 60  1  0  0  0
 59 61  1  0  0  0
 59 62  1  0  0  0
 60127  1  0  0  0
 60128  1  0  0  0
 60129  1  0  0  0
 61130  1  0  0  0
 61131  1  0  0  0
 61132  1  0  0  0
 62133  1  0  0  0
 62134  1  0  0  0
 62135  1  0  0  0
 63 65  1  0  0  0
 63136  1  0  0  0
 63137  1  0  0  0
 63138  1  0  0  0
 64139  1  0  0  0
 65140  1  0  0  0
 68 77  1  0  0  0
 71 72  2  0  0  0
 71 74  1  0  0  0
 71141  1  0  0  0
 72 76  1  0  0  0
 72142  1  0  0  0
 73 75  1  0  0  0
 73 76  2  0  0  0
 73143  1  0  0  0
 74 75  2  0  0  0
 74 79  1  0  0  0
 75 80  1  0  0  0
 76 81  1  0  0  0
 77 78  1  0  0  0
 77144  1  0  0  0
 77145  1  0  0  0
 78 81  1  0  0  0
 78146  1  0  0  0
 78147  1  0  0  0
 79148  1  0  0  0
 79149  1  0  0  0
 80150  1  0  0  0
M  ISO  4   1 100  68 101  77 101  80 100
M  END
> <chiral flag>
0

> <version>
0

> <s_m_source_file>
/data/baiqing/PycharmProjects/Reinvent-master-3.2/result/LINK_invent/BTK/process_docking_weight1_custom_sum_contain_oxygen_bond_distance_aromatic_linkinvent_7_9_3/rearranged_h_0009.sdf

> <i_m_source_file_index>
76

> <r_mmod_Potential_Energy-OPLS-2005>
555.837463378906

> <r_mmod_Stretch_Energy-OPLS-2005>
342.80322265625

> <r_mmod_Bend_Energy-OPLS-2005>
294.447601318359

> <r_mmod_Torsional_Energy-OPLS-2005>
231.240585327148

> <r_mmod_Improper_Torsional_Energy-OPLS-2005>
8.28728199005127

> <r_mmod_Van_der_Waal_Energy-OPLS-2005>
148.419311523438

> <r_mmod_Electrostatic_Energy-OPLS-2005>
-496.304168701172

> <r_mmod_Solvation_Energy-OPLS-2005>
-214.705627441406

> <b_mmod_Minimization_Converged-OPLS-2005>
0

> <r_mmod_RMS_Derivative-OPLS-2005>
5.01157331466675

$$$$
78
                    3D
 Structure written by MMmdl.
148156  0  0  1  0            999 V2000
  -30.5114  -14.9205   20.4353 C   0  0  0  0  0  0
  -30.4549  -12.5673   19.4922 C   0  0  0  0  0  0
  -29.5268  -12.5346   18.2535 C   0  0  0  0  0  0
  -28.0572  -12.3215   18.6680 C   0  0  0  0  0  0
  -27.6390  -13.2376   19.8470 C   0  0  2  0  0  0
  -28.6835  -13.2190   20.9848 C   0  0  0  0  0  0
  -25.2503  -13.8190   20.5691 C   0  0  0  0  0  0
  -24.1807  -13.0434   20.9226 C   0  0  0  0  0  0
  -24.6405  -11.6914   20.8755 C   0  0  0  0  0  0
  -23.9078  -10.4290   21.0412 C   0  0  0  0  0  0
  -24.3625   -9.4204   21.9188 C   0  0  0  0  0  0
  -23.6297   -8.2241   22.0756 C   0  0  0  0  0  0
  -22.4279   -8.0282   21.3545 C   0  0  0  0  0  0
  -21.9918   -9.0256   20.4646 C   0  0  0  0  0  0
  -22.7250  -10.2133   20.3058 C   0  0  0  0  0  0
  -21.6852   -6.0736   22.5280 C   0  0  0  0  0  0
  -21.4014   -6.5640   23.8213 C   0  0  0  0  0  0
  -21.3661   -5.6793   24.9175 C   0  0  0  0  0  0
  -21.6046   -4.3055   24.7225 C   0  0  0  0  0  0
  -21.8819   -3.8147   23.4346 C   0  0  0  0  0  0
  -21.9192   -4.6964   22.3403 C   0  0  0  0  0  0
  -22.7826  -13.5215   21.1878 C   0  0  0  0  0  0
  -22.1661   -4.2152   21.0980 F   0  0  0  0  0  0
  -21.5630   -3.4538   25.7737 F   0  0  0  0  0  0
  -29.9672  -13.6392   20.4024 N   0  0  0  0  0  0
  -26.2929  -12.9403   20.3256 N   0  0  0  0  0  0
  -25.9336  -11.6544   20.5741 N   0  0  0  0  0  0
  -22.0467  -12.8206   22.0429 N   0  0  0  0  0  0
  -25.4169  -15.1913   20.4062 N   0  0  0  0  0  0
  -31.6995  -15.0581   20.1214 O   0  0  0  0  0  0
  -21.6640   -6.8880   21.4242 O   0  0  0  0  0  0
  -22.3514  -14.5520   20.6719 O   0  0  0  0  0  0
  -24.6438  -31.8449   23.1897 C   0  0  0  0  0  0
  -25.9212  -32.4699   23.8283 C   0  0  1  0  0  0
  -27.2193  -27.1419   20.1447 C   0  0  0  0  0  0
  -25.5962  -33.8505   24.2199 N   0  0  0  0  0  0
  -23.4471  -30.4658   21.5355 C   0  0  2  0  0  0
  -24.8972  -28.8971   20.1103 C   0  0  0  0  0  0
  -22.7569  -29.4554   22.4861 C   0  0  0  0  0  0
  -18.0306  -28.1397   22.8477 C   0  0  0  0  0  0
  -24.1494  -36.7255   23.2641 C   0  0  0  0  0  0
  -26.0043  -30.7201   21.3890 C   0  0  0  0  0  0
  -26.0760  -29.3328   20.7288 C   0  0  0  0  0  0
  -27.2382  -28.4719   20.7298 C   0  0  0  0  0  0
  -26.0119  -26.8124   19.4852 C   0  0  0  0  0  0
  -24.8781  -27.6496   19.4735 C   0  0  0  0  0  0
  -23.6735  -29.7979   20.1543 C   0  0  0  0  0  0
  -25.4126  -36.3034   24.0315 C   0  0  1  0  0  0
  -20.5919  -28.3725   23.1233 C   0  0  2  0  0  0
  -20.6792  -26.9428   22.5402 C   0  0  0  0  0  0
  -19.5764  -26.6384   21.5212 C   0  0  0  0  0  0
  -18.1946  -26.7935   22.1624 C   0  0  0  0  0  0
  -19.1563  -28.8879   23.2847 C   0  0  0  0  0  0
  -18.9478  -30.1475   23.8873 C   0  0  0  0  0  0
  -17.6474  -30.6593   24.0560 C   0  0  0  0  0  0
  -25.9074  -34.9409   23.5064 C   0  0  0  0  0  0
  -16.5366  -29.9085   23.6337 C   0  0  0  0  0  0
  -16.7290  -28.6504   23.0357 C   0  0  0  0  0  0
  -26.4533  -31.6563   25.0721 C   0  0  0  0  0  0
  -25.3718  -31.3750   26.1415 C   0  0  0  0  0  0
  -27.0398  -30.2959   24.6302 C   0  0  0  0  0  0
  -27.6062  -32.4328   25.7508 C   0  0  0  0  0  0
  -27.5577  -37.1786   24.8466 C   0  0  0  0  0  0
  -21.4262  -29.3051   22.3605 N   0  0  0  0  0  0
  -26.4290  -37.3746   23.9406 N   0  0  0  0  0  0
  -24.7182  -31.0309   22.0931 N   0  0  0  0  0  0
  -23.4211  -28.8097   23.3008 O   0  0  0  0  0  0
  -28.2625  -26.1444   20.2158 O   0  0  0  0  0  0
  -26.5654  -34.8904   22.4638 O   0  0  0  0  0  0
  -23.5557  -32.1324   23.7117 O   0  0  0  0  0  0
  -27.9747  -19.5529   20.6422 C   0  0  0  0  0  0
  -30.2517  -19.9892   20.2292 C   0  0  0  0  0  0
  -28.2527  -18.1388   20.7224 C   0  0  0  0  0  0
  -30.5328  -18.5470   20.2971 C   0  0  0  0  0  0
  -28.9418  -20.5772   20.3930 C   0  0  0  0  0  0
  -29.5365  -17.5311   20.5470 C   0  0  0  0  0  0
  -28.9267  -23.3605   20.2937 C   0  0  0  0  0  0
  -27.9013  -24.6395   20.0445 C   0  0  0  0  0  0
  -28.4495  -22.0266   20.2703 N   0  0  0  0  0  0
  -29.6297  -16.0040   20.6635 N   0  0  0  0  0  0
  -30.1229  -23.5910   20.4895 O   0  0  0  0  0  0
  -31.4864  -12.7415   19.1813 H   0  0  0  0  0  0
  -30.4554  -11.6027   20.0023 H   0  0  0  0  0  0
  -29.8401  -11.7482   17.5656 H   0  0  0  0  0  0
  -29.6180  -13.4738   17.7054 H   0  0  0  0  0  0
  -27.9451  -11.2762   18.9579 H   0  0  0  0  0  0
  -27.3957  -12.4733   17.8143 H   0  0  0  0  0  0
  -27.6148  -14.2484   19.4398 H   0  0  0  0  0  0
  -28.7626  -12.2241   21.4257 H   0  0  0  0  0  0
  -28.3856  -13.8864   21.7950 H   0  0  0  0  0  0
  -25.2770   -9.5679   22.4764 H   0  0  0  0  0  0
  -24.0004   -7.4632   22.7476 H   0  0  0  0  0  0
  -21.0850   -8.8777   19.8951 H   0  0  0  0  0  0
  -22.3712  -10.9674   19.6168 H   0  0  0  0  0  0
  -21.2005   -7.6149   23.9718 H   0  0  0  0  0  0
  -21.1485   -6.0523   25.9079 H   0  0  0  0  0  0
  -22.0597   -2.7609   23.2845 H   0  0  0  0  0  0
  -22.4083  -11.9868   22.4820 H   0  0  0  0  0  0
  -21.1082  -13.1231   22.2628 H   0  0  0  0  0  0
  -24.6348  -15.8318   20.4896 H   0  0  0  0  0  0
  -26.2317  -15.6172   19.9853 H   0  0  0  0  0  0
  -26.7277  -32.5307   23.1011 H   0  0  0  0  0  0
  -25.0101  -33.9623   25.0342 H   0  0  0  0  0  0
  -22.7496  -31.2920   21.3822 H   0  0  0  0  0  0
  -23.3760  -35.9583   23.3294 H   0  0  0  0  0  0
  -24.3578  -36.8897   22.2058 H   0  0  0  0  0  0
  -23.7246  -37.6448   23.6682 H   0  0  0  0  0  0
  -26.1607  -31.4756   20.6179 H   0  0  0  0  0  0
  -26.8743  -30.7686   22.0321 H   0  0  0  0  0  0
  -28.1343  -28.8006   21.2370 H   0  0  0  0  0  0
  -25.8980  -25.8642   18.9841 H   0  0  0  0  0  0
  -23.9793  -27.3113   18.9762 H   0  0  0  0  0  0
  -23.8099  -30.5737   19.4000 H   0  0  0  0  0  0
  -22.7884  -29.2404   19.8425 H   0  0  0  0  0  0
  -25.1314  -36.1864   25.0807 H   0  0  0  0  0  0
  -21.0012  -28.3317   24.1353 H   0  0  0  0  0  0
  -20.5691  -26.2338   23.3621 H   0  0  0  0  0  0
  -21.6656  -26.7436   22.1197 H   0  0  0  0  0  0
  -19.6926  -25.6289   21.1256 H   0  0  0  0  0  0
  -19.6700  -27.3182   20.6732 H   0  0  0  0  0  0
  -17.4214  -26.6680   21.4028 H   0  0  0  0  0  0
  -18.0346  -26.0083   22.9026 H   0  0  0  0  0  0
  -19.7954  -30.7301   24.2231 H   0  0  0  0  0  0
  -17.5025  -31.6269   24.5167 H   0  0  0  0  0  0
  -15.5364  -30.2977   23.7675 H   0  0  0  0  0  0
  -15.8692  -28.0813   22.7085 H   0  0  0  0  0  0
  -24.5907  -30.7087   25.7737 H   0  0  0  0  0  0
  -24.8897  -32.2931   26.4783 H   0  0  0  0  0  0
  -25.8004  -30.8964   27.0230 H   0  0  0  0  0  0
  -26.3018  -29.6679   24.1299 H   0  0  0  0  0  0
  -27.4000  -29.7258   25.4876 H   0  0  0  0  0  0
  -27.8931  -30.4193   23.9629 H   0  0  0  0  0  0
  -27.2656  -33.3649   26.2029 H   0  0  0  0  0  0
  -28.3906  -32.6854   25.0361 H   0  0  0  0  0  0
  -28.0694  -31.8490   26.5473 H   0  0  0  0  0  0
  -28.2587  -38.0090   24.7509 H   0  0  0  0  0  0
  -28.1082  -36.2617   24.6299 H   0  0  0  0  0  0
  -27.2290  -37.1441   25.8868 H   0  0  0  0  0  0
  -20.9473  -29.8764   21.6784 H   0  0  0  0  0  0
  -26.0157  -38.2815   24.1407 H   0  0  0  0  0  0
  -26.9454  -19.8521   20.7809 H   0  0  0  0  0  0
  -31.0796  -20.6531   20.0229 H   0  0  0  0  0  0
  -27.4098  -17.4937   20.9252 H   0  0  0  0  0  0
  -31.5547  -18.2269   20.1490 H   0  0  0  0  0  0
  -27.0275  -24.4465   20.6678 H   0  0  0  0  0  0
  -27.5723  -24.5107   19.0136 H   0  0  0  0  0  0
  -27.4446  -22.0564   20.1609 H   0  0  0  0  0  0
  -28.7368  -15.6100   20.9166 H   0  0  0  0  0  0
  1 25  1  0  0  0
  1 30  2  0  0  0
  1 80  1  0  0  0
  2  3  1  0  0  0
  2 25  1  0  0  0
  2 82  1  0  0  0
  2 83  1  0  0  0
  3  4  1  0  0  0
  3 84  1  0  0  0
  3 85  1  0  0  0
  4  5  1  0  0  0
  4 86  1  0  0  0
  4 87  1  0  0  0
  5  6  1  0  0  0
  5 26  1  0  0  0
  5 88  1  0  0  0
  6 25  1  0  0  0
  6 89  1  0  0  0
  6 90  1  0  0  0
  7  8  2  0  0  0
  7 26  1  0  0  0
  7 29  1  0  0  0
  8  9  1  0  0  0
  8 22  1  0  0  0
  9 10  1  0  0  0
  9 27  2  0  0  0
 10 11  2  0  0  0
 10 15  1  0  0  0
 11 12  1  0  0  0
 11 91  1  0  0  0
 12 13  2  0  0  0
 12 92  1  0  0  0
 13 14  1  0  0  0
 13 31  1  0  0  0
 14 15  2  0  0  0
 14 93  1  0  0  0
 15 94  1  0  0  0
 16 17  2  0  0  0
 16 21  1  0  0  0
 16 31  1  0  0  0
 17 18  1  0  0  0
 17 95  1  0  0  0
 18 19  2  0  0  0
 18 96  1  0  0  0
 19 20  1  0  0  0
 19 24  1  0  0  0
 20 21  2  0  0  0
 20 97  1  0  0  0
 21 23  1  0  0  0
 22 28  1  0  0  0
 22 32  2  0  0  0
 26 27  1  0  0  0
 28 98  1  0  0  0
 28 99  1  0  0  0
 29100  1  0  0  0
 29101  1  0  0  0
 33 34  1  0  0  0
 33 66  1  0  0  0
 33 70  2  0  0  0
 34 36  1  0  0  0
 34 59  1  0  0  0
 34102  1  0  0  0
 35 44  2  0  0  0
 35 45  1  0  0  0
 35 68  1  0  0  0
 36 56  1  0  0  0
 36103  1  0  0  0
 37 39  1  0  0  0
 37 47  1  0  0  0
 37 66  1  0  0  0
 37104  1  0  0  0
 38 43  2  0  0  0
 38 46  1  0  0  0
 38 47  1  0  0  0
 39 64  1  0  0  0
 39 67  2  0  0  0
 40 52  1  0  0  0
 40 53  2  0  0  0
 40 58  1  0  0  0
 41105  1  0  0  0
 41106  1  0  0  0
 41107  1  0  0  0
 41 48  1  0  0  0
 42 43  1  0  0  0
 42 66  1  0  0  0
 42108  1  0  0  0
 42109  1  0  0  0
 43 44  1  0  0  0
 44110  1  0  0  0
 45 46  2  0  0  0
 45111  1  0  0  0
 46112  1  0  0  0
 47113  1  0  0  0
 47114  1  0  0  0
 48 56  1  0  0  0
 48 65  1  0  0  0
 48115  1  0  0  0
 49 50  1  0  0  0
 49 53  1  0  0  0
 49 64  1  0  0  0
 49116  1  0  0  0
 50 51  1  0  0  0
 50117  1  0  0  0
 50118  1  0  0  0
 51 52  1  0  0  0
 51119  1  0  0  0
 51120  1  0  0  0
 52121  1  0  0  0
 52122  1  0  0  0
 53 54  1  0  0  0
 54 55  2  0  0  0
 54123  1  0  0  0
 55 57  1  0  0  0
 55124  1  0  0  0
 56 69  2  0  0  0
 57 58  2  0  0  0
 57125  1  0  0  0
 58126  1  0  0  0
 59 60  1  0  0  0
 59 61  1  0  0  0
 59 62  1  0  0  0
 60127  1  0  0  0
 60128  1  0  0  0
 60129  1  0  0  0
 61130  1  0  0  0
 61131  1  0  0  0
 61132  1  0  0  0
 62133  1  0  0  0
 62134  1  0  0  0
 62135  1  0  0  0
 63 65  1  0  0  0
 63136  1  0  0  0
 63137  1  0  0  0
 63138  1  0  0  0
 64139  1  0  0  0
 65140  1  0  0  0
 68 78  1  0  0  0
 71 73  2  0  0  0
 71 75  1  0  0  0
 71141  1  0  0  0
 72 74  1  0  0  0
 72 75  2  0  0  0
 72142  1  0  0  0
 73 76  1  0  0  0
 73143  1  0  0  0
 74 76  2  0  0  0
 74144  1  0  0  0
 75 79  1  0  0  0
 76 80  1  0  0  0
 77 78  1  0  0  0
 77 79  1  0  0  0
 77 81  2  0  0  0
 78145  1  0  0  0
 78146  1  0  0  0
 79147  1  0  0  0
 80148  1  0  0  0
M  ISO  4   1 100  68 101  78 101  80 100
M  END
> <chiral flag>
0

> <version>
0

> <s_m_source_file>
/data/baiqing/PycharmProjects/Reinvent-master-3.2/result/LINK_invent/BTK/process_docking_weight1_custom_sum_contain_oxygen_bond_distance_aromatic_linkinvent_7_9_3/rearranged_h_0009.sdf

> <i_m_source_file_index>
77

> <r_mmod_Potential_Energy-OPLS-2005>
411.609313964844

> <r_mmod_Stretch_Energy-OPLS-2005>
219.232482910156

> <r_mmod_Bend_Energy-OPLS-2005>
281.814636230469

> <r_mmod_Torsional_Energy-OPLS-2005>
220.372116088867

> <r_mmod_Improper_Torsional_Energy-OPLS-2005>
4.48748207092285

> <r_mmod_Van_der_Waal_Energy-OPLS-2005>
130.148376464844

> <r_mmod_Electrostatic_Energy-OPLS-2005>
-374.771942138672

> <r_mmod_Solvation_Energy-OPLS-2005>
-252.214736938477

> <b_mmod_Minimization_Converged-OPLS-2005>
0

> <r_mmod_RMS_Derivative-OPLS-2005>
0.218703597784042

$$$$
79
                    3D
 Structure written by MMmdl.
154162  0  0  1  0            999 V2000
  -30.5218  -15.0467   20.4154 C   0  0  0  0  0  0
  -30.4374  -12.6569   19.5072 C   0  0  0  0  0  0
  -29.5241  -12.5441   18.2648 C   0  0  0  0  0  0
  -28.0624  -12.3114   18.6871 C   0  0  0  0  0  0
  -27.6229  -13.2589   19.8336 C   0  0  2  0  0  0
  -28.6644  -13.3384   20.9699 C   0  0  0  0  0  0
  -25.2431  -13.8227   20.5726 C   0  0  0  0  0  0
  -24.1761  -13.0434   20.9228 C   0  0  0  0  0  0
  -24.6393  -11.6926   20.8750 C   0  0  0  0  0  0
  -23.9085  -10.4291   21.0401 C   0  0  0  0  0  0
  -24.3631   -9.4207   21.9180 C   0  0  0  0  0  0
  -23.6298   -8.2247   22.0753 C   0  0  0  0  0  0
  -22.4281   -8.0287   21.3542 C   0  0  0  0  0  0
  -21.9916   -9.0260   20.4647 C   0  0  0  0  0  0
  -22.7251  -10.2135   20.3054 C   0  0  0  0  0  0
  -21.6855   -6.0735   22.5275 C   0  0  0  0  0  0
  -21.4019   -6.5639   23.8210 C   0  0  0  0  0  0
  -21.3661   -5.6791   24.9171 C   0  0  0  0  0  0
  -21.6046   -4.3054   24.7222 C   0  0  0  0  0  0
  -21.8819   -3.8145   23.4343 C   0  0  0  0  0  0
  -21.9193   -4.6961   22.3397 C   0  0  0  0  0  0
  -22.7783  -13.5204   21.1889 C   0  0  0  0  0  0
  -22.1661   -4.2146   21.0973 F   0  0  0  0  0  0
  -21.5623   -3.4538   25.7735 F   0  0  0  0  0  0
  -29.9245  -13.7779   20.3571 N   0  0  0  0  0  0
  -26.2860  -12.9477   20.3243 N   0  0  0  0  0  0
  -25.9332  -11.6596   20.5741 N   0  0  0  0  0  0
  -22.0437  -12.8193   22.0445 N   0  0  0  0  0  0
  -25.4071  -15.1962   20.4167 N   0  0  0  0  0  0
  -31.7290  -15.0629   20.1479 O   0  0  0  0  0  0
  -21.6645   -6.8882   21.4238 O   0  0  0  0  0  0
  -22.3467  -14.5509   20.6737 O   0  0  0  0  0  0
  -24.6498  -31.8380   23.1830 C   0  0  0  0  0  0
  -25.9241  -32.4658   23.8243 C   0  0  1  0  0  0
  -27.2117  -27.0661   20.1618 C   0  0  0  0  0  0
  -25.5962  -33.8468   24.2157 N   0  0  0  0  0  0
  -23.4566  -30.4559   21.5291 C   0  0  2  0  0  0
  -24.9069  -28.8714   20.1088 C   0  0  0  0  0  0
  -22.7604  -29.4516   22.4823 C   0  0  0  0  0  0
  -18.0315  -28.1410   22.8469 C   0  0  0  0  0  0
  -24.1491  -36.7235   23.2642 C   0  0  0  0  0  0
  -26.0183  -30.6888   21.3932 C   0  0  0  0  0  0
  -26.0874  -29.2941   20.7335 C   0  0  0  0  0  0
  -27.2400  -28.4093   20.7399 C   0  0  0  0  0  0
  -26.0057  -26.7650   19.4912 C   0  0  0  0  0  0
  -24.8834  -27.6233   19.4698 C   0  0  0  0  0  0
  -23.6876  -29.7832   20.1497 C   0  0  0  0  0  0
  -25.4126  -36.3006   24.0309 C   0  0  1  0  0  0
  -20.5932  -28.3739   23.1213 C   0  0  2  0  0  0
  -20.6794  -26.9431   22.5401 C   0  0  0  0  0  0
  -19.5768  -26.6386   21.5209 C   0  0  0  0  0  0
  -18.1952  -26.7945   22.1621 C   0  0  0  0  0  0
  -19.1573  -28.8891   23.2834 C   0  0  0  0  0  0
  -18.9487  -30.1484   23.8868 C   0  0  0  0  0  0
  -17.6480  -30.6594   24.0561 C   0  0  0  0  0  0
  -25.9086  -34.9384   23.5048 C   0  0  0  0  0  0
  -16.5373  -29.9084   23.6337 C   0  0  0  0  0  0
  -16.7300  -28.6506   23.0355 C   0  0  0  0  0  0
  -26.4539  -31.6556   25.0717 C   0  0  0  0  0  0
  -25.3703  -31.3772   26.1398 C   0  0  0  0  0  0
  -27.0412  -30.2935   24.6363 C   0  0  0  0  0  0
  -27.6060  -32.4338   25.7506 C   0  0  0  0  0  0
  -27.5577  -37.1772   24.8463 C   0  0  0  0  0  0
  -21.4285  -29.3048   22.3569 N   0  0  0  0  0  0
  -26.4283  -37.3724   23.9410 N   0  0  0  0  0  0
  -24.7283  -31.0175   22.0893 N   0  0  0  0  0  0
  -23.4216  -28.8073   23.3000 O   0  0  0  0  0  0
  -28.2332  -26.0276   20.2460 O   0  0  0  0  0  0
  -26.5679  -34.8894   22.4631 O   0  0  0  0  0  0
  -23.5599  -32.1289   23.7005 O   0  0  0  0  0  0
  -31.4593  -19.5350   21.8150 C   0  0  0  0  0  0
  -30.6884  -20.6238   21.3693 C   0  0  0  0  0  0
  -31.1514  -18.1792   21.5570 C   0  0  0  0  0  0
  -29.2202  -19.0103   20.3162 C   0  0  0  0  0  0
  -29.5100  -20.4710   20.6128 C   0  0  0  0  0  0
  -30.0387  -17.8024   20.7465 C   0  0  0  0  0  0
  -28.9496  -23.2137   20.4444 C   0  0  0  0  0  0
  -32.0472  -17.1715   22.2617 C   0  0  0  0  0  0
  -27.9674  -18.7272   19.5097 C   0  0  0  0  0  0
  -27.9153  -24.4833   20.0368 C   0  0  0  0  0  0
  -28.7277  -21.7885   20.2554 N   0  0  0  0  0  0
  -29.7527  -16.2711   20.5272 N   0  0  0  0  0  0
  -30.0094  -23.5870   20.9525 O   0  0  0  0  0  0
  -31.4671  -12.8226   19.1876 H   0  0  0  0  0  0
  -30.4504  -11.7208   20.0675 H   0  0  0  0  0  0
  -29.8606  -11.7346   17.6163 H   0  0  0  0  0  0
  -29.5960  -13.4605   17.6769 H   0  0  0  0  0  0
  -27.9786  -11.2748   19.0158 H   0  0  0  0  0  0
  -27.3978  -12.4147   17.8282 H   0  0  0  0  0  0
  -27.5689  -14.2504   19.3826 H   0  0  0  0  0  0
  -28.7776  -12.3776   21.4745 H   0  0  0  0  0  0
  -28.3476  -14.0534   21.7307 H   0  0  0  0  0  0
  -25.2772   -9.5682   22.4764 H   0  0  0  0  0  0
  -23.9998   -7.4640   22.7480 H   0  0  0  0  0  0
  -21.0840   -8.8791   19.8959 H   0  0  0  0  0  0
  -22.3706  -10.9681   19.6173 H   0  0  0  0  0  0
  -21.2018   -7.6149   23.9712 H   0  0  0  0  0  0
  -21.1480   -6.0522   25.9076 H   0  0  0  0  0  0
  -22.0596   -2.7605   23.2846 H   0  0  0  0  0  0
  -22.4063  -11.9853   22.4824 H   0  0  0  0  0  0
  -21.1060  -13.1222   22.2670 H   0  0  0  0  0  0
  -24.6332  -15.8426   20.5308 H   0  0  0  0  0  0
  -26.2463  -15.6429   20.0739 H   0  0  0  0  0  0
  -26.7306  -32.5241   23.0966 H   0  0  0  0  0  0
  -25.0064  -33.9567   25.0274 H   0  0  0  0  0  0
  -22.7619  -31.2833   21.3705 H   0  0  0  0  0  0
  -23.3762  -35.9558   23.3284 H   0  0  0  0  0  0
  -24.3567  -36.8890   22.2059 H   0  0  0  0  0  0
  -23.7242  -37.6420   23.6701 H   0  0  0  0  0  0
  -26.1858  -31.4402   20.6202 H   0  0  0  0  0  0
  -26.8836  -30.7380   22.0426 H   0  0  0  0  0  0
  -28.1361  -28.7268   21.2541 H   0  0  0  0  0  0
  -25.8922  -25.8110   18.9988 H   0  0  0  0  0  0
  -23.9838  -27.2954   18.9666 H   0  0  0  0  0  0
  -23.8331  -30.5577   19.3958 H   0  0  0  0  0  0
  -22.7994  -29.2325   19.8343 H   0  0  0  0  0  0
  -25.1313  -36.1821   25.0798 H   0  0  0  0  0  0
  -21.0027  -28.3344   24.1335 H   0  0  0  0  0  0
  -20.5678  -26.2353   23.3628 H   0  0  0  0  0  0
  -21.6660  -26.7422   22.1206 H   0  0  0  0  0  0
  -19.6927  -25.6290   21.1252 H   0  0  0  0  0  0
  -19.6708  -27.3180   20.6725 H   0  0  0  0  0  0
  -17.4216  -26.6685   21.4034 H   0  0  0  0  0  0
  -18.0359  -26.0102   22.9031 H   0  0  0  0  0  0
  -19.7960  -30.7311   24.2231 H   0  0  0  0  0  0
  -17.5028  -31.6266   24.5178 H   0  0  0  0  0  0
  -15.5370  -30.2974   23.7682 H   0  0  0  0  0  0
  -15.8702  -28.0813   22.7089 H   0  0  0  0  0  0
  -24.5879  -30.7127   25.7713 H   0  0  0  0  0  0
  -24.8901  -32.2964   26.4761 H   0  0  0  0  0  0
  -25.7961  -30.8977   27.0219 H   0  0  0  0  0  0
  -26.3047  -29.6640   24.1354 H   0  0  0  0  0  0
  -27.3966  -29.7261   25.4977 H   0  0  0  0  0  0
  -27.8981  -30.4138   23.9730 H   0  0  0  0  0  0
  -27.2644  -33.3660   26.2015 H   0  0  0  0  0  0
  -28.3904  -32.6865   25.0360 H   0  0  0  0  0  0
  -28.0692  -31.8513   26.5480 H   0  0  0  0  0  0
  -28.2575  -38.0087   24.7509 H   0  0  0  0  0  0
  -28.1091  -36.2612   24.6284 H   0  0  0  0  0  0
  -27.2292  -37.1403   25.8866 H   0  0  0  0  0  0
  -20.9517  -29.8736   21.6713 H   0  0  0  0  0  0
  -26.0144  -38.2785   24.1429 H   0  0  0  0  0  0
  -32.3231  -19.7674   22.4223 H   0  0  0  0  0  0
  -31.0310  -21.5999   21.6713 H   0  0  0  0  0  0
  -32.5375  -17.6192   23.1269 H   0  0  0  0  0  0
  -32.8339  -16.8227   21.5939 H   0  0  0  0  0  0
  -31.4838  -16.3217   22.6441 H   0  0  0  0  0  0
  -27.8236  -19.4845   18.7387 H   0  0  0  0  0  0
  -27.0926  -18.7287   20.1601 H   0  0  0  0  0  0
  -28.0213  -17.7600   19.0104 H   0  0  0  0  0  0
  -26.9830  -24.2792   20.5641 H   0  0  0  0  0  0
  -27.6888  -24.3493   18.9789 H   0  0  0  0  0  0
  -27.8446  -21.6146   19.7941 H   0  0  0  0  0  0
  -28.7664  -16.0677   20.4854 H   0  0  0  0  0  0
  1 25  1  0  0  0
  1 30  2  0  0  0
  1 82  1  0  0  0
  2  3  1  0  0  0
  2 25  1  0  0  0
  2 84  1  0  0  0
  2 85  1  0  0  0
  3  4  1  0  0  0
  3 86  1  0  0  0
  3 87  1  0  0  0
  4  5  1  0  0  0
  4 88  1  0  0  0
  4 89  1  0  0  0
  5  6  1  0  0  0
  5 26  1  0  0  0
  5 90  1  0  0  0
  6 25  1  0  0  0
  6 91  1  0  0  0
  6 92  1  0  0  0
  7  8  2  0  0  0
  7 26  1  0  0  0
  7 29  1  0  0  0
  8  9  1  0  0  0
  8 22  1  0  0  0
  9 10  1  0  0  0
  9 27  2  0  0  0
 10 11  2  0  0  0
 10 15  1  0  0  0
 11 12  1  0  0  0
 11 93  1  0  0  0
 12 13  2  0  0  0
 12 94  1  0  0  0
 13 14  1  0  0  0
 13 31  1  0  0  0
 14 15  2  0  0  0
 14 95  1  0  0  0
 15 96  1  0  0  0
 16 17  2  0  0  0
 16 21  1  0  0  0
 16 31  1  0  0  0
 17 18  1  0  0  0
 17 97  1  0  0  0
 18 19  2  0  0  0
 18 98  1  0  0  0
 19 20  1  0  0  0
 19 24  1  0  0  0
 20 21  2  0  0  0
 20 99  1  0  0  0
 21 23  1  0  0  0
 22 28  1  0  0  0
 22 32  2  0  0  0
 26 27  1  0  0  0
 28100  1  0  0  0
 28101  1  0  0  0
 29102  1  0  0  0
 29103  1  0  0  0
 33 34  1  0  0  0
 33 66  1  0  0  0
 33 70  2  0  0  0
 34 36  1  0  0  0
 34 59  1  0  0  0
 34104  1  0  0  0
 35 44  2  0  0  0
 35 45  1  0  0  0
 35 68  1  0  0  0
 36 56  1  0  0  0
 36105  1  0  0  0
 37 39  1  0  0  0
 37 47  1  0  0  0
 37 66  1  0  0  0
 37106  1  0  0  0
 38 43  2  0  0  0
 38 46  1  0  0  0
 38 47  1  0  0  0
 39 64  1  0  0  0
 39 67  2  0  0  0
 40 52  1  0  0  0
 40 53  2  0  0  0
 40 58  1  0  0  0
 41107  1  0  0  0
 41108  1  0  0  0
 41109  1  0  0  0
 41 48  1  0  0  0
 42 43  1  0  0  0
 42 66  1  0  0  0
 42110  1  0  0  0
 42111  1  0  0  0
 43 44  1  0  0  0
 44112  1  0  0  0
 45 46  2  0  0  0
 45113  1  0  0  0
 46114  1  0  0  0
 47115  1  0  0  0
 47116  1  0  0  0
 48 56  1  0  0  0
 48 65  1  0  0  0
 48117  1  0  0  0
 49 50  1  0  0  0
 49 53  1  0  0  0
 49 64  1  0  0  0
 49118  1  0  0  0
 50 51  1  0  0  0
 50119  1  0  0  0
 50120  1  0  0  0
 51 52  1  0  0  0
 51121  1  0  0  0
 51122  1  0  0  0
 52123  1  0  0  0
 52124  1  0  0  0
 53 54  1  0  0  0
 54 55  2  0  0  0
 54125  1  0  0  0
 55 57  1  0  0  0
 55126  1  0  0  0
 56 69  2  0  0  0
 57 58  2  0  0  0
 57127  1  0  0  0
 58128  1  0  0  0
 59 60  1  0  0  0
 59 61  1  0  0  0
 59 62  1  0  0  0
 60129  1  0  0  0
 60130  1  0  0  0
 60131  1  0  0  0
 61132  1  0  0  0
 61133  1  0  0  0
 61134  1  0  0  0
 62135  1  0  0  0
 62136  1  0  0  0
 62137  1  0  0  0
 63 65  1  0  0  0
 63138  1  0  0  0
 63139  1  0  0  0
 63140  1  0  0  0
 64141  1  0  0  0
 65142  1  0  0  0
 68 80  1  0  0  0
 71 72  2  0  0  0
 71 73  1  0  0  0
 71143  1  0  0  0
 72 75  1  0  0  0
 72144  1  0  0  0
 73 76  2  0  0  0
 73 78  1  0  0  0
 74 75  2  0  0  0
 74 76  1  0  0  0
 74 79  1  0  0  0
 75 81  1  0  0  0
 76 82  1  0  0  0
 77 80  1  0  0  0
 77 81  1  0  0  0
 77 83  2  0  0  0
 78145  1  0  0  0
 78146  1  0  0  0
 78147  1  0  0  0
 79148  1  0  0  0
 79149  1  0  0  0
 79150  1  0  0  0
 80151  1  0  0  0
 80152  1  0  0  0
 81153  1  0  0  0
 82154  1  0  0  0
M  ISO  4   1 100  68 101  80 101  82 100
M  END
> <chiral flag>
0

> <version>
0

> <s_m_source_file>
/data/baiqing/PycharmProjects/Reinvent-master-3.2/result/LINK_invent/BTK/process_docking_weight1_custom_sum_contain_oxygen_bond_distance_aromatic_linkinvent_7_9_3/rearranged_h_0009.sdf

> <i_m_source_file_index>
78

> <r_mmod_Potential_Energy-OPLS-2005>
628.337036132812

> <r_mmod_Stretch_Energy-OPLS-2005>
356.706787109375

> <r_mmod_Bend_Energy-OPLS-2005>
278.723541259766

> <r_mmod_Torsional_Energy-OPLS-2005>
226.626983642578

> <r_mmod_Improper_Torsional_Energy-OPLS-2005>
5.81391286849976

> <r_mmod_Van_der_Waal_Energy-OPLS-2005>
139.589828491211

> <r_mmod_Electrostatic_Energy-OPLS-2005>
-399.006134033203

> <r_mmod_Solvation_Energy-OPLS-2005>
-245.497177124023

> <b_mmod_Minimization_Converged-OPLS-2005>
0

> <r_mmod_RMS_Derivative-OPLS-2005>
0.975064039230347

$$$$
80
                    3D
 Structure written by MMmdl.
168175  0  0  1  0            999 V2000
  -30.7423  -14.3809   20.6262 C   0  0  0  0  0  0
  -30.4146  -12.2732   19.3959 C   0  0  0  0  0  0
  -29.4849  -12.5058   18.1908 C   0  0  0  0  0  0
  -28.0075  -12.3714   18.6105 C   0  0  0  0  0  0
  -27.6613  -13.2011   19.8748 C   0  0  2  0  0  0
  -28.6997  -12.9420   20.9871 C   0  0  0  0  0  0
  -25.2564  -13.8175   20.5743 C   0  0  0  0  0  0
  -24.1795  -13.0460   20.9218 C   0  0  0  0  0  0
  -24.6335  -11.6925   20.8697 C   0  0  0  0  0  0
  -23.9006  -10.4308   21.0391 C   0  0  0  0  0  0
  -24.3560   -9.4218   21.9164 C   0  0  0  0  0  0
  -23.6263   -8.2228   22.0737 C   0  0  0  0  0  0
  -22.4236   -8.0264   21.3543 C   0  0  0  0  0  0
  -21.9857   -9.0237   20.4647 C   0  0  0  0  0  0
  -22.7177  -10.2129   20.3052 C   0  0  0  0  0  0
  -21.6846   -6.0715   22.5284 C   0  0  0  0  0  0
  -21.4018   -6.5614   23.8231 C   0  0  0  0  0  0
  -21.3657   -5.6767   24.9182 C   0  0  0  0  0  0
  -21.6052   -4.3035   24.7229 C   0  0  0  0  0  0
  -21.8818   -3.8119   23.4345 C   0  0  0  0  0  0
  -21.9201   -4.6938   22.3407 C   0  0  0  0  0  0
  -22.7828  -13.5265   21.1900 C   0  0  0  0  0  0
  -22.1669   -4.2126   21.0986 F   0  0  0  0  0  0
  -21.5618   -3.4529   25.7744 F   0  0  0  0  0  0
  -30.0390  -13.2355   20.4438 N   0  0  0  0  0  0
  -26.2992  -12.9328   20.3375 N   0  0  0  0  0  0
  -25.9242  -11.6489   20.5685 N   0  0  0  0  0  0
  -22.0463  -12.8267   22.0452 N   0  0  0  0  0  0
  -25.4397  -15.1890   20.4242 N   0  0  0  0  0  0
  -31.8262  -14.6093   20.0859 O   0  0  0  0  0  0
  -21.6638   -6.8829   21.4232 O   0  0  0  0  0  0
  -22.3527  -14.5580   20.6763 O   0  0  0  0  0  0
  -24.6082  -31.8737   23.2144 C   0  0  0  0  0  0
  -25.9037  -32.4843   23.8404 C   0  0  1  0  0  0
  -27.2343  -27.4992   20.0626 C   0  0  0  0  0  0
  -25.5909  -33.8639   24.2366 N   0  0  0  0  0  0
  -23.3879  -30.5014   21.5538 C   0  0  2  0  0  0
  -24.8322  -28.9674   20.1195 C   0  0  0  0  0  0
  -22.7314  -29.4707   22.5000 C   0  0  0  0  0  0
  -18.0254  -28.1394   22.8502 C   0  0  0  0  0  0
  -24.1478  -36.7334   23.2625 C   0  0  0  0  0  0
  -25.9124  -30.8539   21.3570 C   0  0  0  0  0  0
  -25.9891  -29.4883   20.7144 C   0  0  0  0  0  0
  -27.1927  -28.7547   20.6951 C   0  0  0  0  0  0
  -26.0663  -26.9752   19.4690 C   0  0  0  0  0  0
  -24.8618  -27.7026   19.5046 C   0  0  0  0  0  0
  -23.5930  -29.8338   20.1670 C   0  0  0  0  0  0
  -25.4090  -36.3135   24.0346 C   0  0  1  0  0  0
  -20.5826  -28.3667   23.1345 C   0  0  2  0  0  0
  -20.6743  -26.9415   22.5413 C   0  0  0  0  0  0
  -19.5743  -26.6424   21.5193 C   0  0  0  0  0  0
  -18.1920  -26.7944   22.1610 C   0  0  0  0  0  0
  -19.1503  -28.8839   23.2922 C   0  0  0  0  0  0
  -18.9448  -30.1439   23.8943 C   0  0  0  0  0  0
  -17.6459  -30.6599   24.0590 C   0  0  0  0  0  0
  -25.9025  -34.9498   23.5162 C   0  0  0  0  0  0
  -16.5344  -29.9117   23.6339 C   0  0  0  0  0  0
  -16.7239  -28.6528   23.0361 C   0  0  0  0  0  0
  -26.4474  -31.6581   25.0697 C   0  0  0  0  0  0
  -25.3781  -31.3700   26.1473 C   0  0  0  0  0  0
  -27.0226  -30.3013   24.6001 C   0  0  0  0  0  0
  -27.6059  -32.4235   25.7484 C   0  0  0  0  0  0
  -27.5581  -37.1823   24.8459 C   0  0  0  0  0  0
  -21.4048  -29.3062   22.3755 N   0  0  0  0  0  0
  -26.4285  -37.3817   23.9414 N   0  0  0  0  0  0
  -24.6547  -31.0881   22.1033 N   0  0  0  0  0  0
  -23.4123  -28.8268   23.3020 O   0  0  0  0  0  0
  -28.4265  -26.8376   19.9635 O   0  0  0  0  0  0
  -26.5575  -34.8961   22.4718 O   0  0  0  0  0  0
  -23.5315  -32.1452   23.7616 O   0  0  0  0  0  0
  -29.8156  -17.3940   22.6152 C   0  0  0  0  0  0
  -29.2377  -23.2750   20.2847 C   0  0  0  0  0  0
  -28.4148  -24.5273   18.2509 C   0  0  0  0  0  0
  -30.7450  -16.5992   21.6998 C   0  0  0  0  0  0
  -32.5359  -19.9728   23.3854 C   0  0  0  0  0  0
  -32.7804  -20.1486   21.8769 C   0  0  0  0  0  0
  -32.7732  -18.5144   23.8300 C   0  0  0  0  0  0
  -32.3487  -21.5069   21.3164 C   0  0  0  0  0  0
  -31.5517  -17.7751   24.4270 C   0  0  0  0  0  0
  -30.8461  -21.5471   20.9989 C   0  0  0  0  0  0
  -29.0800  -24.6523   19.6386 C   0  0  1  0  0  0
  -30.2742  -17.9761   23.7299 N   0  0  0  0  0  0
  -30.4849  -22.8112   20.3862 N   0  0  0  0  0  0
  -30.1572  -15.2995   21.3967 N   0  0  0  0  0  0
  -28.3334  -25.5324   20.5446 N   0  0  0  0  0  0
  -28.6313  -17.5001   22.2961 O   0  0  0  0  0  0
  -28.2536  -22.6649   20.7077 O   0  0  0  0  0  0
  -31.4597  -12.3586   19.0934 H   0  0  0  0  0  0
  -30.3023  -11.2553   19.7690 H   0  0  0  0  0  0
  -29.7087  -11.7898   17.4006 H   0  0  0  0  0  0
  -29.6666  -13.4949   17.7683 H   0  0  0  0  0  0
  -27.8161  -11.3151   18.8037 H   0  0  0  0  0  0
  -27.3570  -12.6506   17.7816 H   0  0  0  0  0  0
  -27.7176  -14.2540   19.5931 H   0  0  0  0  0  0
  -28.6563  -11.8986   21.3026 H   0  0  0  0  0  0
  -28.4567  -13.5198   21.8790 H   0  0  0  0  0  0
  -25.2704   -9.5697   22.4748 H   0  0  0  0  0  0
  -23.9995   -7.4595   22.7421 H   0  0  0  0  0  0
  -21.0807   -8.8739   19.8939 H   0  0  0  0  0  0
  -22.3629  -10.9657   19.6144 H   0  0  0  0  0  0
  -21.2008   -7.6132   23.9730 H   0  0  0  0  0  0
  -21.1491   -6.0498   25.9095 H   0  0  0  0  0  0
  -22.0598   -2.7589   23.2873 H   0  0  0  0  0  0
  -22.4030  -11.9916   22.4861 H   0  0  0  0  0  0
  -21.1061  -13.1287   22.2631 H   0  0  0  0  0  0
  -24.6914  -15.8623   20.5521 H   0  0  0  0  0  0
  -26.3198  -15.6216   20.1707 H   0  0  0  0  0  0
  -26.7103  -32.5581   23.1168 H   0  0  0  0  0  0
  -25.0099  -33.9785   25.0537 H   0  0  0  0  0  0
  -22.6758  -31.3212   21.4226 H   0  0  0  0  0  0
  -23.3737  -35.9673   23.3297 H   0  0  0  0  0  0
  -24.3563  -36.8915   22.2034 H   0  0  0  0  0  0
  -23.7244  -37.6564   23.6600 H   0  0  0  0  0  0
  -26.0081  -31.6204   20.5867 H   0  0  0  0  0  0
  -26.8068  -30.9149   21.9627 H   0  0  0  0  0  0
  -28.0935  -29.1600   21.1359 H   0  0  0  0  0  0
  -26.0902  -26.0265   18.9543 H   0  0  0  0  0  0
  -23.9729  -27.2960   19.0382 H   0  0  0  0  0  0
  -23.7008  -30.6131   19.4096 H   0  0  0  0  0  0
  -22.7149  -29.2576   19.8693 H   0  0  0  0  0  0
  -25.1261  -36.2008   25.0839 H   0  0  0  0  0  0
  -20.9928  -28.3253   24.1466 H   0  0  0  0  0  0
  -20.5652  -26.2269   23.3585 H   0  0  0  0  0  0
  -21.6631  -26.7492   22.1241 H   0  0  0  0  0  0
  -19.6902  -25.6351   21.1202 H   0  0  0  0  0  0
  -19.6698  -27.3254   20.6748 H   0  0  0  0  0  0
  -17.4181  -26.6689   21.4014 H   0  0  0  0  0  0
  -18.0344  -26.0066   22.8999 H   0  0  0  0  0  0
  -19.7930  -30.7239   24.2329 H   0  0  0  0  0  0
  -17.5034  -31.6292   24.5197 H   0  0  0  0  0  0
  -15.5357  -30.3071   23.7634 H   0  0  0  0  0  0
  -15.8623  -28.0878   22.7075 H   0  0  0  0  0  0
  -24.5961  -30.7000   25.7888 H   0  0  0  0  0  0
  -24.8987  -32.2867   26.4921 H   0  0  0  0  0  0
  -25.8215  -30.8925   27.0217 H   0  0  0  0  0  0
  -26.2747  -29.6868   24.0974 H   0  0  0  0  0  0
  -27.3893  -29.7143   25.4429 H   0  0  0  0  0  0
  -27.8635  -30.4301   23.9179 H   0  0  0  0  0  0
  -27.2684  -33.3490   26.2153 H   0  0  0  0  0  0
  -28.3886  -32.6827   25.0347 H   0  0  0  0  0  0
  -28.0682  -31.8269   26.5352 H   0  0  0  0  0  0
  -28.2618  -38.0112   24.7534 H   0  0  0  0  0  0
  -28.1062  -36.2649   24.6246 H   0  0  0  0  0  0
  -27.2305  -37.1455   25.8866 H   0  0  0  0  0  0
  -20.9153  -29.8777   21.7009 H   0  0  0  0  0  0
  -26.0178  -38.2896   24.1429 H   0  0  0  0  0  0
  -28.9923  -23.8726   17.5970 H   0  0  0  0  0  0
  -28.3546  -25.4925   17.7456 H   0  0  0  0  0  0
  -27.4078  -24.1148   18.3105 H   0  0  0  0  0  0
  -31.7396  -16.4743   22.1194 H   0  0  0  0  0  0
  -30.8560  -17.1659   20.7737 H   0  0  0  0  0  0
  -31.5436  -20.3215   23.6774 H   0  0  0  0  0  0
  -33.2373  -20.6252   23.9104 H   0  0  0  0  0  0
  -32.2793  -19.3581   21.3165 H   0  0  0  0  0  0
  -33.8466  -20.0142   21.6906 H   0  0  0  0  0  0
  -33.5657  -18.5055   24.5812 H   0  0  0  0  0  0
  -33.1931  -17.9403   23.0051 H   0  0  0  0  0  0
  -32.9157  -21.6936   20.4049 H   0  0  0  0  0  0
  -32.6180  -22.3005   22.0162 H   0  0  0  0  0  0
  -31.4001  -18.1261   25.4472 H   0  0  0  0  0  0
  -31.7581  -16.7071   24.5150 H   0  0  0  0  0  0
  -30.2662  -21.3847   21.9079 H   0  0  0  0  0  0
  -30.5726  -20.7524   20.3056 H   0  0  0  0  0  0
  -30.0752  -25.0784   19.5010 H   0  0  0  0  0  0
  -29.5949  -18.5225   24.2434 H   0  0  0  0  0  0
  -31.2279  -23.3779   19.9961 H   0  0  0  0  0  0
  -29.2283  -15.1151   21.7469 H   0  0  0  0  0  0
  -27.3490  -25.2958   20.5654 H   0  0  0  0  0  0
  1 25  1  0  0  0
  1 30  2  0  0  0
  1 84  1  0  0  0
  2  3  1  0  0  0
  2 25  1  0  0  0
  2 88  1  0  0  0
  2 89  1  0  0  0
  3  4  1  0  0  0
  3 90  1  0  0  0
  3 91  1  0  0  0
  4  5  1  0  0  0
  4 92  1  0  0  0
  4 93  1  0  0  0
  5  6  1  0  0  0
  5 26  1  0  0  0
  5 94  1  0  0  0
  6 25  1  0  0  0
  6 95  1  0  0  0
  6 96  1  0  0  0
  7  8  2  0  0  0
  7 26  1  0  0  0
  7 29  1  0  0  0
  8  9  1  0  0  0
  8 22  1  0  0  0
  9 10  1  0  0  0
  9 27  2  0  0  0
 10 11  2  0  0  0
 10 15  1  0  0  0
 11 12  1  0  0  0
 11 97  1  0  0  0
 12 13  2  0  0  0
 12 98  1  0  0  0
 13 14  1  0  0  0
 13 31  1  0  0  0
 14 15  2  0  0  0
 14 99  1  0  0  0
 15100  1  0  0  0
 16 17  2  0  0  0
 16 21  1  0  0  0
 16 31  1  0  0  0
 17 18  1  0  0  0
 17101  1  0  0  0
 18 19  2  0  0  0
 18102  1  0  0  0
 19 20  1  0  0  0
 19 24  1  0  0  0
 20 21  2  0  0  0
 20103  1  0  0  0
 21 23  1  0  0  0
 22 28  1  0  0  0
 22 32  2  0  0  0
 26 27  1  0  0  0
 28104  1  0  0  0
 28105  1  0  0  0
 29106  1  0  0  0
 29107  1  0  0  0
 33 34  1  0  0  0
 33 66  1  0  0  0
 33 70  2  0  0  0
 34 36  1  0  0  0
 34 59  1  0  0  0
 34108  1  0  0  0
 35 44  2  0  0  0
 35 45  1  0  0  0
 35 68  1  0  0  0
 36 56  1  0  0  0
 36109  1  0  0  0
 37 39  1  0  0  0
 37 47  1  0  0  0
 37 66  1  0  0  0
 37110  1  0  0  0
 38 43  2  0  0  0
 38 46  1  0  0  0
 38 47  1  0  0  0
 39 64  1  0  0  0
 39 67  2  0  0  0
 40 52  1  0  0  0
 40 53  2  0  0  0
 40 58  1  0  0  0
 41111  1  0  0  0
 41112  1  0  0  0
 41113  1  0  0  0
 41 48  1  0  0  0
 42 43  1  0  0  0
 42 66  1  0  0  0
 42114  1  0  0  0
 42115  1  0  0  0
 43 44  1  0  0  0
 44116  1  0  0  0
 45 46  2  0  0  0
 45117  1  0  0  0
 46118  1  0  0  0
 47119  1  0  0  0
 47120  1  0  0  0
 48 56  1  0  0  0
 48 65  1  0  0  0
 48121  1  0  0  0
 49 50  1  0  0  0
 49 53  1  0  0  0
 49 64  1  0  0  0
 49122  1  0  0  0
 50 51  1  0  0  0
 50123  1  0  0  0
 50124  1  0  0  0
 51 52  1  0  0  0
 51125  1  0  0  0
 51126  1  0  0  0
 52127  1  0  0  0
 52128  1  0  0  0
 53 54  1  0  0  0
 54 55  2  0  0  0
 54129  1  0  0  0
 55 57  1  0  0  0
 55130  1  0  0  0
 56 69  2  0  0  0
 57 58  2  0  0  0
 57131  1  0  0  0
 58132  1  0  0  0
 59 60  1  0  0  0
 59 61  1  0  0  0
 59 62  1  0  0  0
 60133  1  0  0  0
 60134  1  0  0  0
 60135  1  0  0  0
 61136  1  0  0  0
 61137  1  0  0  0
 61138  1  0  0  0
 62139  1  0  0  0
 62140  1  0  0  0
 62141  1  0  0  0
 63 65  1  0  0  0
 63142  1  0  0  0
 63143  1  0  0  0
 63144  1  0  0  0
 64145  1  0  0  0
 65146  1  0  0  0
 68 85  1  0  0  0
 71 74  1  0  0  0
 71 82  1  0  0  0
 71 86  2  0  0  0
 72 81  1  0  0  0
 72 83  1  0  0  0
 72 87  2  0  0  0
 73147  1  0  0  0
 73148  1  0  0  0
 73149  1  0  0  0
 73 81  1  0  0  0
 74 84  1  0  0  0
 74150  1  0  0  0
 74151  1  0  0  0
 75 76  1  0  0  0
 75 77  1  0  0  0
 75152  1  0  0  0
 75153  1  0  0  0
 76 78  1  0  0  0
 76154  1  0  0  0
 76155  1  0  0  0
 77 79  1  0  0  0
 77156  1  0  0  0
 77157  1  0  0  0
 78 80  1  0  0  0
 78158  1  0  0  0
 78159  1  0  0  0
 79 82  1  0  0  0
 79160  1  0  0  0
 79161  1  0  0  0
 80 83  1  0  0  0
 80162  1  0  0  0
 80163  1  0  0  0
 81 85  1  0  0  0
 81164  1  0  0  0
 82165  1  0  0  0
 83166  1  0  0  0
 84167  1  0  0  0
 85168  1  0  0  0
M  ISO  4   1 100  68 101  84 100  85 101
M  END
> <chiral flag>
0

> <version>
0

> <s_m_source_file>
/data/baiqing/PycharmProjects/Reinvent-master-3.2/result/LINK_invent/BTK/process_docking_weight1_custom_sum_contain_oxygen_bond_distance_aromatic_linkinvent_7_9_3/rearranged_h_0009.sdf

> <i_m_source_file_index>
79

> <r_mmod_Potential_Energy-OPLS-2005>
-334.794464111328

> <r_mmod_Stretch_Energy-OPLS-2005>
30.271390914917

> <r_mmod_Bend_Energy-OPLS-2005>
98.0839004516602

> <r_mmod_Torsional_Energy-OPLS-2005>
231.084411621094

> <r_mmod_Improper_Torsional_Energy-OPLS-2005>
2.44103670120239

> <r_mmod_Van_der_Waal_Energy-OPLS-2005>
131.584869384766

> <r_mmod_Electrostatic_Energy-OPLS-2005>
-582.522705078125

> <r_mmod_Solvation_Energy-OPLS-2005>
-254.654159545898

> <b_mmod_Minimization_Converged-OPLS-2005>
0

> <r_mmod_RMS_Derivative-OPLS-2005>
4.78620481491089

$$$$
81
                    3D
 Structure written by MMmdl.
151159  0  0  1  0            999 V2000
  -30.5168  -15.0507   20.4047 C   0  0  0  0  0  0
  -30.4395  -12.6635   19.4957 C   0  0  0  0  0  0
  -29.5195  -12.5279   18.2600 C   0  0  0  0  0  0
  -28.0622  -12.2867   18.6936 C   0  0  0  0  0  0
  -27.6196  -13.2509   19.8234 C   0  0  2  0  0  0
  -28.6610  -13.3457   20.9574 C   0  0  0  0  0  0
  -25.2424  -13.8210   20.5678 C   0  0  0  0  0  0
  -24.1769  -13.0440   20.9251 C   0  0  0  0  0  0
  -24.6395  -11.6926   20.8780 C   0  0  0  0  0  0
  -23.9082  -10.4297   21.0428 C   0  0  0  0  0  0
  -24.3621   -9.4201   21.9205 C   0  0  0  0  0  0
  -23.6291   -8.2237   22.0760 C   0  0  0  0  0  0
  -22.4277   -8.0283   21.3545 C   0  0  0  0  0  0
  -21.9931   -9.0253   20.4637 C   0  0  0  0  0  0
  -22.7261  -10.2134   20.3056 C   0  0  0  0  0  0
  -21.6851   -6.0740   22.5275 C   0  0  0  0  0  0
  -21.4010   -6.5642   23.8209 C   0  0  0  0  0  0
  -21.3657   -5.6793   24.9178 C   0  0  0  0  0  0
  -21.6042   -4.3058   24.7227 C   0  0  0  0  0  0
  -21.8816   -3.8150   23.4349 C   0  0  0  0  0  0
  -21.9190   -4.6966   22.3404 C   0  0  0  0  0  0
  -22.7792  -13.5211   21.1898 C   0  0  0  0  0  0
  -22.1661   -4.2151   21.0978 F   0  0  0  0  0  0
  -21.5629   -3.4537   25.7739 F   0  0  0  0  0  0
  -29.9203  -13.7827   20.3423 N   0  0  0  0  0  0
  -26.2841  -12.9446   20.3203 N   0  0  0  0  0  0
  -25.9324  -11.6572   20.5742 N   0  0  0  0  0  0
  -22.0424  -12.8188   22.0425 N   0  0  0  0  0  0
  -25.4075  -15.1937   20.4032 N   0  0  0  0  0  0
  -31.7335  -15.0697   20.1845 O   0  0  0  0  0  0
  -21.6638   -6.8881   21.4238 O   0  0  0  0  0  0
  -22.3481  -14.5513   20.6736 O   0  0  0  0  0  0
  -24.6488  -31.8380   23.1792 C   0  0  0  0  0  0
  -25.9234  -32.4677   23.8198 C   0  0  1  0  0  0
  -27.2207  -27.0667   20.1695 C   0  0  0  0  0  0
  -25.5952  -33.8473   24.2139 N   0  0  0  0  0  0
  -23.4570  -30.4534   21.5259 C   0  0  2  0  0  0
  -24.9093  -28.8675   20.1089 C   0  0  0  0  0  0
  -22.7601  -29.4504   22.4800 C   0  0  0  0  0  0
  -18.0316  -28.1398   22.8467 C   0  0  0  0  0  0
  -24.1486  -36.7248   23.2646 C   0  0  0  0  0  0
  -26.0142  -30.6948   21.3805 C   0  0  0  0  0  0
  -26.0899  -29.2944   20.7318 C   0  0  0  0  0  0
  -27.2448  -28.4125   20.7443 C   0  0  0  0  0  0
  -26.0146  -26.7628   19.4986 C   0  0  0  0  0  0
  -24.8885  -27.6174   19.4755 C   0  0  0  0  0  0
  -23.6889  -29.7780   20.1477 C   0  0  0  0  0  0
  -25.4111  -36.3015   24.0315 C   0  0  1  0  0  0
  -20.5930  -28.3726   23.1217 C   0  0  2  0  0  0
  -20.6786  -26.9425   22.5390 C   0  0  0  0  0  0
  -19.5759  -26.6399   21.5198 C   0  0  0  0  0  0
  -18.1945  -26.7938   22.1615 C   0  0  0  0  0  0
  -19.1572  -28.8873   23.2841 C   0  0  0  0  0  0
  -18.9488  -30.1459   23.8880 C   0  0  0  0  0  0
  -17.6484  -30.6595   24.0561 C   0  0  0  0  0  0
  -25.9073  -34.9402   23.5044 C   0  0  0  0  0  0
  -16.5374  -29.9101   23.6325 C   0  0  0  0  0  0
  -16.7296  -28.6513   23.0356 C   0  0  0  0  0  0
  -26.4542  -31.6537   25.0642 C   0  0  0  0  0  0
  -25.3708  -31.3705   26.1316 C   0  0  0  0  0  0
  -27.0415  -30.2945   24.6189 C   0  0  0  0  0  0
  -27.6068  -32.4283   25.7445 C   0  0  0  0  0  0
  -27.5563  -37.1781   24.8468 C   0  0  0  0  0  0
  -21.4276  -29.3067   22.3590 N   0  0  0  0  0  0
  -26.4266  -37.3742   23.9418 N   0  0  0  0  0  0
  -24.7272  -31.0176   22.0852 N   0  0  0  0  0  0
  -23.4215  -28.8025   23.2956 O   0  0  0  0  0  0
  -28.2469  -26.0309   20.2522 O   0  0  0  0  0  0
  -26.5683  -34.8922   22.4640 O   0  0  0  0  0  0
  -23.5594  -32.1279   23.6984 O   0  0  0  0  0  0
  -30.9551  -20.6024   20.8175 C   0  0  0  0  0  0
  -31.3906  -18.1526   20.8596 C   0  0  0  0  0  0
  -29.1840  -19.0198   20.3611 C   0  0  0  0  0  0
  -31.8211  -19.4934   20.9998 C   0  0  0  0  0  0
  -29.5852  -20.4728   20.4836 C   0  0  0  0  0  0
  -30.0627  -17.8015   20.5368 C   0  0  0  0  0  0
  -29.0011  -23.2170   20.4071 C   0  0  0  0  0  0
  -33.2762  -19.7430   21.3553 C   0  0  0  0  0  0
  -27.9118  -24.4793   20.1345 C   0  0  0  0  0  0
  -28.7447  -21.7908   20.3034 N   0  0  0  0  0  0
  -29.7392  -16.2713   20.4658 N   0  0  0  0  0  0
  -30.1294  -23.5913   20.7341 O   0  0  0  0  0  0
  -31.4630  -12.8452   19.1658 H   0  0  0  0  0  0
  -30.4723  -11.7336   20.0653 H   0  0  0  0  0  0
  -29.8603  -11.7108   17.6221 H   0  0  0  0  0  0
  -29.5761  -13.4339   17.6553 H   0  0  0  0  0  0
  -27.9965  -11.2578   19.0486 H   0  0  0  0  0  0
  -27.3896  -12.3565   17.8379 H   0  0  0  0  0  0
  -27.5621  -14.2333   19.3532 H   0  0  0  0  0  0
  -28.7798  -12.3911   21.4709 H   0  0  0  0  0  0
  -28.3407  -14.0694   21.7095 H   0  0  0  0  0  0
  -25.2753   -9.5685   22.4799 H   0  0  0  0  0  0
  -23.9989   -7.4634   22.7491 H   0  0  0  0  0  0
  -21.0861   -8.8779   19.8936 H   0  0  0  0  0  0
  -22.3723  -10.9679   19.6161 H   0  0  0  0  0  0
  -21.1998   -7.6145   23.9715 H   0  0  0  0  0  0
  -21.1480   -6.0525   25.9078 H   0  0  0  0  0  0
  -22.0594   -2.7611   23.2846 H   0  0  0  0  0  0
  -22.4031  -11.9834   22.4801 H   0  0  0  0  0  0
  -21.1027  -13.1201   22.2600 H   0  0  0  0  0  0
  -24.6250  -15.8344   20.4792 H   0  0  0  0  0  0
  -26.2319  -15.6243   20.0063 H   0  0  0  0  0  0
  -26.7290  -32.5282   23.0912 H   0  0  0  0  0  0
  -25.0032  -33.9558   25.0235 H   0  0  0  0  0  0
  -22.7634  -31.2806   21.3638 H   0  0  0  0  0  0
  -23.3766  -35.9570   23.3277 H   0  0  0  0  0  0
  -24.3560  -36.8929   22.2068 H   0  0  0  0  0  0
  -23.7224  -37.6419   23.6719 H   0  0  0  0  0  0
  -26.1580  -31.4385   20.5949 H   0  0  0  0  0  0
  -26.8916  -30.7697   22.0116 H   0  0  0  0  0  0
  -28.1395  -28.7326   21.2619 H   0  0  0  0  0  0
  -25.9016  -25.8091   19.0058 H   0  0  0  0  0  0
  -23.9895  -27.2833   18.9747 H   0  0  0  0  0  0
  -23.8324  -30.5507   19.3923 H   0  0  0  0  0  0
  -22.8042  -29.2243   19.8316 H   0  0  0  0  0  0
  -25.1299  -36.1833   25.0804 H   0  0  0  0  0  0
  -21.0023  -28.3335   24.1339 H   0  0  0  0  0  0
  -20.5683  -26.2337   23.3607 H   0  0  0  0  0  0
  -21.6647  -26.7425   22.1175 H   0  0  0  0  0  0
  -19.6925  -25.6316   21.1218 H   0  0  0  0  0  0
  -19.6702  -27.3220   20.6731 H   0  0  0  0  0  0
  -17.4202  -26.6689   21.4027 H   0  0  0  0  0  0
  -18.0334  -26.0082   22.9010 H   0  0  0  0  0  0
  -19.7967  -30.7246   24.2283 H   0  0  0  0  0  0
  -17.5058  -31.6281   24.5157 H   0  0  0  0  0  0
  -15.5380  -30.3008   23.7655 H   0  0  0  0  0  0
  -15.8689  -28.0829   22.7093 H   0  0  0  0  0  0
  -24.5954  -30.6986   25.7607 H   0  0  0  0  0  0
  -24.8803  -32.2870   26.4611 H   0  0  0  0  0  0
  -25.7972  -30.8964   27.0165 H   0  0  0  0  0  0
  -26.3019  -29.6644   24.1235 H   0  0  0  0  0  0
  -27.4118  -29.7249   25.4719 H   0  0  0  0  0  0
  -27.8885  -30.4206   23.9441 H   0  0  0  0  0  0
  -27.2727  -33.3704   26.1804 H   0  0  0  0  0  0
  -28.4012  -32.6622   25.0341 H   0  0  0  0  0  0
  -28.0573  -31.8503   26.5528 H   0  0  0  0  0  0
  -28.2540  -38.0114   24.7527 H   0  0  0  0  0  0
  -28.1097  -36.2631   24.6280 H   0  0  0  0  0  0
  -27.2275  -37.1398   25.8870 H   0  0  0  0  0  0
  -20.9482  -29.8821   21.6798 H   0  0  0  0  0  0
  -26.0133  -38.2805   24.1451 H   0  0  0  0  0  0
  -31.3845  -21.5827   20.9475 H   0  0  0  0  0  0
  -32.1211  -17.3748   21.0277 H   0  0  0  0  0  0
  -28.1487  -18.8279   20.1182 H   0  0  0  0  0  0
  -33.4210  -20.7302   21.7961 H   0  0  0  0  0  0
  -33.8997  -19.6730   20.4634 H   0  0  0  0  0  0
  -33.6356  -19.0064   22.0751 H   0  0  0  0  0  0
  -27.0770  -24.2943   20.8113 H   0  0  0  0  0  0
  -27.5203  -24.3071   19.1324 H   0  0  0  0  0  0
  -27.7828  -21.6157   20.0434 H   0  0  0  0  0  0
  -28.7502  -16.0729   20.4696 H   0  0  0  0  0  0
  1 25  1  0  0  0
  1 30  2  0  0  0
  1 81  1  0  0  0
  2  3  1  0  0  0
  2 25  1  0  0  0
  2 83  1  0  0  0
  2 84  1  0  0  0
  3  4  1  0  0  0
  3 85  1  0  0  0
  3 86  1  0  0  0
  4  5  1  0  0  0
  4 87  1  0  0  0
  4 88  1  0  0  0
  5  6  1  0  0  0
  5 26  1  0  0  0
  5 89  1  0  0  0
  6 25  1  0  0  0
  6 90  1  0  0  0
  6 91  1  0  0  0
  7  8  2  0  0  0
  7 26  1  0  0  0
  7 29  1  0  0  0
  8  9  1  0  0  0
  8 22  1  0  0  0
  9 10  1  0  0  0
  9 27  2  0  0  0
 10 11  2  0  0  0
 10 15  1  0  0  0
 11 12  1  0  0  0
 11 92  1  0  0  0
 12 13  2  0  0  0
 12 93  1  0  0  0
 13 14  1  0  0  0
 13 31  1  0  0  0
 14 15  2  0  0  0
 14 94  1  0  0  0
 15 95  1  0  0  0
 16 17  2  0  0  0
 16 21  1  0  0  0
 16 31  1  0  0  0
 17 18  1  0  0  0
 17 96  1  0  0  0
 18 19  2  0  0  0
 18 97  1  0  0  0
 19 20  1  0  0  0
 19 24  1  0  0  0
 20 21  2  0  0  0
 20 98  1  0  0  0
 21 23  1  0  0  0
 22 28  1  0  0  0
 22 32  2  0  0  0
 26 27  1  0  0  0
 28 99  1  0  0  0
 28100  1  0  0  0
 29101  1  0  0  0
 29102  1  0  0  0
 33 34  1  0  0  0
 33 66  1  0  0  0
 33 70  2  0  0  0
 34 36  1  0  0  0
 34 59  1  0  0  0
 34103  1  0  0  0
 35 44  2  0  0  0
 35 45  1  0  0  0
 35 68  1  0  0  0
 36 56  1  0  0  0
 36104  1  0  0  0
 37 39  1  0  0  0
 37 47  1  0  0  0
 37 66  1  0  0  0
 37105  1  0  0  0
 38 43  2  0  0  0
 38 46  1  0  0  0
 38 47  1  0  0  0
 39 64  1  0  0  0
 39 67  2  0  0  0
 40 52  1  0  0  0
 40 53  2  0  0  0
 40 58  1  0  0  0
 41106  1  0  0  0
 41107  1  0  0  0
 41108  1  0  0  0
 41 48  1  0  0  0
 42 43  1  0  0  0
 42 66  1  0  0  0
 42109  1  0  0  0
 42110  1  0  0  0
 43 44  1  0  0  0
 44111  1  0  0  0
 45 46  2  0  0  0
 45112  1  0  0  0
 46113  1  0  0  0
 47114  1  0  0  0
 47115  1  0  0  0
 48 56  1  0  0  0
 48 65  1  0  0  0
 48116  1  0  0  0
 49 50  1  0  0  0
 49 53  1  0  0  0
 49 64  1  0  0  0
 49117  1  0  0  0
 50 51  1  0  0  0
 50118  1  0  0  0
 50119  1  0  0  0
 51 52  1  0  0  0
 51120  1  0  0  0
 51121  1  0  0  0
 52122  1  0  0  0
 52123  1  0  0  0
 53 54  1  0  0  0
 54 55  2  0  0  0
 54124  1  0  0  0
 55 57  1  0  0  0
 55125  1  0  0  0
 56 69  2  0  0  0
 57 58  2  0  0  0
 57126  1  0  0  0
 58127  1  0  0  0
 59 60  1  0  0  0
 59 61  1  0  0  0
 59 62  1  0  0  0
 60128  1  0  0  0
 60129  1  0  0  0
 60130  1  0  0  0
 61131  1  0  0  0
 61132  1  0  0  0
 61133  1  0  0  0
 62134  1  0  0  0
 62135  1  0  0  0
 62136  1  0  0  0
 63 65  1  0  0  0
 63137  1  0  0  0
 63138  1  0  0  0
 63139  1  0  0  0
 64140  1  0  0  0
 65141  1  0  0  0
 68 79  1  0  0  0
 71 74  2  0  0  0
 71 75  1  0  0  0
 71142  1  0  0  0
 72 74  1  0  0  0
 72 76  2  0  0  0
 72143  1  0  0  0
 73 75  2  0  0  0
 73 76  1  0  0  0
 73144  1  0  0  0
 74 78  1  0  0  0
 75 80  1  0  0  0
 76 81  1  0  0  0
 77 79  1  0  0  0
 77 80  1  0  0  0
 77 82  2  0  0  0
 78145  1  0  0  0
 78146  1  0  0  0
 78147  1  0  0  0
 79148  1  0  0  0
 79149  1  0  0  0
 80150  1  0  0  0
 81151  1  0  0  0
M  ISO  4   1 100  68 101  79 101  81 100
M  END
> <chiral flag>
0

> <version>
0

> <s_m_source_file>
/data/baiqing/PycharmProjects/Reinvent-master-3.2/result/LINK_invent/BTK/process_docking_weight1_custom_sum_contain_oxygen_bond_distance_aromatic_linkinvent_7_9_3/rearranged_h_0009.sdf

> <i_m_source_file_index>
80

> <r_mmod_Potential_Energy-OPLS-2005>
651.859680175781

> <r_mmod_Stretch_Energy-OPLS-2005>
346.115570068359

> <r_mmod_Bend_Energy-OPLS-2005>
268.941467285156

> <r_mmod_Torsional_Energy-OPLS-2005>
220.505020141602

> <r_mmod_Improper_Torsional_Energy-OPLS-2005>
5.74600887298584

> <r_mmod_Van_der_Waal_Energy-OPLS-2005>
134.134307861328

> <r_mmod_Electrostatic_Energy-OPLS-2005>
-346.240386962891

> <r_mmod_Solvation_Energy-OPLS-2005>
-246.508407592773

> <b_mmod_Minimization_Converged-OPLS-2005>
0

> <r_mmod_RMS_Derivative-OPLS-2005>
2.46234607696533

$$$$
82
                    3D
 Structure written by MMmdl.
151159  0  0  1  0            999 V2000
  -30.5577  -14.7497   20.5370 C   0  0  0  0  0  0
  -30.4643  -12.4763   19.4563 C   0  0  0  0  0  0
  -29.5220  -12.5439   18.2293 C   0  0  0  0  0  0
  -28.0425  -12.3601   18.6324 C   0  0  0  0  0  0
  -27.6576  -13.2149   19.8677 C   0  0  2  0  0  0
  -28.7043  -13.0324   20.9852 C   0  0  0  0  0  0
  -25.2584  -13.8151   20.5680 C   0  0  0  0  0  0
  -24.1839  -13.0425   20.9165 C   0  0  0  0  0  0
  -24.6404  -11.6894   20.8714 C   0  0  0  0  0  0
  -23.9064  -10.4286   21.0401 C   0  0  0  0  0  0
  -24.3614   -9.4205   21.9185 C   0  0  0  0  0  0
  -23.6288   -8.2243   22.0758 C   0  0  0  0  0  0
  -22.4270   -8.0279   21.3548 C   0  0  0  0  0  0
  -21.9903   -9.0253   20.4653 C   0  0  0  0  0  0
  -22.7233  -10.2130   20.3056 C   0  0  0  0  0  0
  -21.6851   -6.0734   22.5283 C   0  0  0  0  0  0
  -21.4013   -6.5639   23.8216 C   0  0  0  0  0  0
  -21.3659   -5.6791   24.9177 C   0  0  0  0  0  0
  -21.6043   -4.3053   24.7228 C   0  0  0  0  0  0
  -21.8817   -3.8147   23.4349 C   0  0  0  0  0  0
  -21.9192   -4.6963   22.3405 C   0  0  0  0  0  0
  -22.7864  -13.5235   21.1835 C   0  0  0  0  0  0
  -22.1662   -4.2148   21.0983 F   0  0  0  0  0  0
  -21.5630   -3.4539   25.7742 F   0  0  0  0  0  0
  -30.0044  -13.4806   20.4465 N   0  0  0  0  0  0
  -26.3014  -12.9324   20.3316 N   0  0  0  0  0  0
  -25.9331  -11.6479   20.5714 N   0  0  0  0  0  0
  -22.0491  -12.8247   22.0395 N   0  0  0  0  0  0
  -25.4314  -15.1872   20.4142 N   0  0  0  0  0  0
  -31.6871  -14.9472   20.0754 O   0  0  0  0  0  0
  -21.6633   -6.8878   21.4245 O   0  0  0  0  0  0
  -22.3558  -14.5547   20.6684 O   0  0  0  0  0  0
  -24.6338  -31.8540   23.1978 C   0  0  0  0  0  0
  -25.9157  -32.4747   23.8328 C   0  0  1  0  0  0
  -27.2241  -27.2525   20.1195 C   0  0  0  0  0  0
  -25.5947  -33.8548   24.2252 N   0  0  0  0  0  0
  -23.4304  -30.4779   21.5424 C   0  0  2  0  0  0
  -24.8772  -28.9245   20.1118 C   0  0  0  0  0  0
  -22.7509  -29.4601   22.4910 C   0  0  0  0  0  0
  -18.0293  -28.1382   22.8482 C   0  0  0  0  0  0
  -24.1491  -36.7278   23.2639 C   0  0  0  0  0  0
  -25.9788  -30.7644   21.3787 C   0  0  0  0  0  0
  -26.0521  -29.3872   20.7176 C   0  0  0  0  0  0
  -27.2283  -28.5661   20.7066 C   0  0  0  0  0  0
  -26.0186  -26.8611   19.4911 C   0  0  0  0  0  0
  -24.8666  -27.6697   19.4881 C   0  0  0  0  0  0
  -23.6487  -29.8125   20.1590 C   0  0  0  0  0  0
  -25.4118  -36.3063   24.0325 C   0  0  1  0  0  0
  -20.5899  -28.3697   23.1262 C   0  0  2  0  0  0
  -20.6781  -26.9413   22.5404 C   0  0  0  0  0  0
  -19.5758  -26.6378   21.5207 C   0  0  0  0  0  0
  -18.1938  -26.7925   22.1618 C   0  0  0  0  0  0
  -19.1548  -28.8857   23.2867 C   0  0  0  0  0  0
  -18.9465  -30.1456   23.8889 C   0  0  0  0  0  0
  -17.6465  -30.6584   24.0554 C   0  0  0  0  0  0
  -25.9060  -34.9434   23.5089 C   0  0  0  0  0  0
  -16.5356  -29.9079   23.6328 C   0  0  0  0  0  0
  -16.7280  -28.6493   23.0358 C   0  0  0  0  0  0
  -26.4515  -31.6576   25.0725 C   0  0  0  0  0  0
  -25.3728  -31.3733   26.1435 C   0  0  0  0  0  0
  -27.0369  -30.2990   24.6229 C   0  0  0  0  0  0
  -27.6069  -32.4316   25.7500 C   0  0  0  0  0  0
  -27.5580  -37.1791   24.8463 C   0  0  0  0  0  0
  -21.4216  -29.3046   22.3651 N   0  0  0  0  0  0
  -26.4291  -37.3765   23.9407 N   0  0  0  0  0  0
  -24.7004  -31.0499   22.0956 N   0  0  0  0  0  0
  -23.4202  -28.8137   23.3011 O   0  0  0  0  0  0
  -28.3228  -26.3532   20.1615 O   0  0  0  0  0  0
  -26.5629  -34.8912   22.4656 O   0  0  0  0  0  0
  -23.5484  -32.1366   23.7267 O   0  0  0  0  0  0
  -31.0455  -18.6154   19.6393 C   0  0  0  0  0  0
  -30.7227  -21.0590   19.3650 C   0  0  0  0  0  0
  -29.9135  -18.5159   20.4703 C   0  0  0  0  0  0
  -29.5573  -21.0575   20.1631 C   0  0  0  0  0  0
  -31.4418  -19.8648   19.1045 C   0  0  0  0  0  0
  -29.1799  -19.7588   20.6989 C   0  0  0  0  0  0
  -29.4855  -17.1909   21.1296 C   0  0  0  0  0  0
  -29.6988  -15.8103   21.1865 C   0  0  0  0  0  0
  -29.2143  -23.7296   20.2431 C   0  0  0  0  0  0
  -28.0631  -24.8669   20.0837 C   0  0  0  0  0  0
  -28.7856  -22.2735   20.3932 N   0  0  0  0  0  0
  -32.5457  -19.9211   18.3215 F   0  0  0  0  0  0
  -28.0675  -19.7130   21.4730 F   0  0  0  0  0  0
  -31.4957  -12.6508   19.1454 H   0  0  0  0  0  0
  -30.4572  -11.4760   19.8923 H   0  0  0  0  0  0
  -29.8062  -11.7900   17.4940 H   0  0  0  0  0  0
  -29.6435  -13.5101   17.7372 H   0  0  0  0  0  0
  -27.8866  -11.3038   18.8532 H   0  0  0  0  0  0
  -27.3892  -12.5940   17.7908 H   0  0  0  0  0  0
  -27.6828  -14.2575   19.5508 H   0  0  0  0  0  0
  -28.7605  -11.9799   21.2679 H   0  0  0  0  0  0
  -28.4001  -13.5268   21.9036 H   0  0  0  0  0  0
  -25.2759   -9.5688   22.4758 H   0  0  0  0  0  0
  -23.9999   -7.4638   22.7481 H   0  0  0  0  0  0
  -21.0830   -8.8772   19.8964 H   0  0  0  0  0  0
  -22.3690  -10.9668   19.6166 H   0  0  0  0  0  0
  -21.2002   -7.6146   23.9720 H   0  0  0  0  0  0
  -21.1484   -6.0520   25.9080 H   0  0  0  0  0  0
  -22.0596   -2.7609   23.2848 H   0  0  0  0  0  0
  -22.4082  -11.9909   22.4804 H   0  0  0  0  0  0
  -21.1119  -13.1308   22.2594 H   0  0  0  0  0  0
  -24.6704  -15.8464   20.5355 H   0  0  0  0  0  0
  -26.2954  -15.6288   20.1248 H   0  0  0  0  0  0
  -26.7221  -32.5391   23.1065 H   0  0  0  0  0  0
  -25.0095  -33.9683   25.0400 H   0  0  0  0  0  0
  -22.7279  -31.3009   21.3966 H   0  0  0  0  0  0
  -23.3758  -35.9606   23.3294 H   0  0  0  0  0  0
  -24.3581  -36.8909   22.2054 H   0  0  0  0  0  0
  -23.7241  -37.6475   23.6668 H   0  0  0  0  0  0
  -26.1209  -31.5265   20.6111 H   0  0  0  0  0  0
  -26.8547  -30.8107   22.0141 H   0  0  0  0  0  0
  -28.1286  -28.9190   21.1897 H   0  0  0  0  0  0
  -25.9261  -25.9059   18.9990 H   0  0  0  0  0  0
  -23.9668  -27.3095   19.0083 H   0  0  0  0  0  0
  -23.7729  -30.5887   19.4032 H   0  0  0  0  0  0
  -22.7665  -29.2467   19.8544 H   0  0  0  0  0  0
  -25.1300  -36.1906   25.0818 H   0  0  0  0  0  0
  -20.9994  -28.3275   24.1381 H   0  0  0  0  0  0
  -20.5674  -26.2307   23.3610 H   0  0  0  0  0  0
  -21.6648  -26.7431   22.1201 H   0  0  0  0  0  0
  -19.6919  -25.6284   21.1248 H   0  0  0  0  0  0
  -19.6700  -27.3177   20.6728 H   0  0  0  0  0  0
  -17.4207  -26.6670   21.4020 H   0  0  0  0  0  0
  -18.0342  -26.0068   22.9016 H   0  0  0  0  0  0
  -19.7940  -30.7273   24.2260 H   0  0  0  0  0  0
  -17.5017  -31.6267   24.5149 H   0  0  0  0  0  0
  -15.5355  -30.2977   23.7658 H   0  0  0  0  0  0
  -15.8677  -28.0803   22.7090 H   0  0  0  0  0  0
  -24.5912  -30.7077   25.7754 H   0  0  0  0  0  0
  -24.8911  -32.2905   26.4833 H   0  0  0  0  0  0
  -25.8034  -30.8924   27.0227 H   0  0  0  0  0  0
  -26.2962  -29.6727   24.1247 H   0  0  0  0  0  0
  -27.4034  -29.7268   25.4762 H   0  0  0  0  0  0
  -27.8845  -30.4257   23.9492 H   0  0  0  0  0  0
  -27.2682  -33.3624   26.2060 H   0  0  0  0  0  0
  -28.3889  -32.6860   25.0334 H   0  0  0  0  0  0
  -28.0727  -31.8450   26.5428 H   0  0  0  0  0  0
  -28.2588  -38.0097   24.7516 H   0  0  0  0  0  0
  -28.1085  -36.2626   24.6280 H   0  0  0  0  0  0
  -27.2298  -37.1428   25.8866 H   0  0  0  0  0  0
  -20.9402  -29.8770   21.6855 H   0  0  0  0  0  0
  -26.0169  -38.2837   24.1412 H   0  0  0  0  0  0
  -31.6354  -17.7357   19.4263 H   0  0  0  0  0  0
  -31.0775  -21.9752   18.9192 H   0  0  0  0  0  0
  -28.7188  -17.4369   21.8515 H   0  0  0  0  0  0
  -29.0567  -15.4114   21.9500 H   0  0  0  0  0  0
  -29.8036  -23.9759   21.1271 H   0  0  0  0  0  0
  -29.8994  -23.8183   19.3999 H   0  0  0  0  0  0
  -27.2949  -24.6530   20.8285 H   0  0  0  0  0  0
  -27.6083  -24.6613   19.1156 H   0  0  0  0  0  0
  -27.9484  -22.1264   20.9525 H   0  0  0  0  0  0
  1 25  1  0  0  0
  1 30  2  0  0  0
  1 78  1  0  0  0
  2  3  1  0  0  0
  2 25  1  0  0  0
  2 84  1  0  0  0
  2 85  1  0  0  0
  3  4  1  0  0  0
  3 86  1  0  0  0
  3 87  1  0  0  0
  4  5  1  0  0  0
  4 88  1  0  0  0
  4 89  1  0  0  0
  5  6  1  0  0  0
  5 26  1  0  0  0
  5 90  1  0  0  0
  6 25  1  0  0  0
  6 91  1  0  0  0
  6 92  1  0  0  0
  7  8  2  0  0  0
  7 26  1  0  0  0
  7 29  1  0  0  0
  8  9  1  0  0  0
  8 22  1  0  0  0
  9 10  1  0  0  0
  9 27  2  0  0  0
 10 11  2  0  0  0
 10 15  1  0  0  0
 11 12  1  0  0  0
 11 93  1  0  0  0
 12 13  2  0  0  0
 12 94  1  0  0  0
 13 14  1  0  0  0
 13 31  1  0  0  0
 14 15  2  0  0  0
 14 95  1  0  0  0
 15 96  1  0  0  0
 16 17  2  0  0  0
 16 21  1  0  0  0
 16 31  1  0  0  0
 17 18  1  0  0  0
 17 97  1  0  0  0
 18 19  2  0  0  0
 18 98  1  0  0  0
 19 20  1  0  0  0
 19 24  1  0  0  0
 20 21  2  0  0  0
 20 99  1  0  0  0
 21 23  1  0  0  0
 22 28  1  0  0  0
 22 32  2  0  0  0
 26 27  1  0  0  0
 28100  1  0  0  0
 28101  1  0  0  0
 29102  1  0  0  0
 29103  1  0  0  0
 33 34  1  0  0  0
 33 66  1  0  0  0
 33 70  2  0  0  0
 34 36  1  0  0  0
 34 59  1  0  0  0
 34104  1  0  0  0
 35 44  2  0  0  0
 35 45  1  0  0  0
 35 68  1  0  0  0
 36 56  1  0  0  0
 36105  1  0  0  0
 37 39  1  0  0  0
 37 47  1  0  0  0
 37 66  1  0  0  0
 37106  1  0  0  0
 38 43  2  0  0  0
 38 46  1  0  0  0
 38 47  1  0  0  0
 39 64  1  0  0  0
 39 67  2  0  0  0
 40 52  1  0  0  0
 40 53  2  0  0  0
 40 58  1  0  0  0
 41107  1  0  0  0
 41108  1  0  0  0
 41109  1  0  0  0
 41 48  1  0  0  0
 42 43  1  0  0  0
 42 66  1  0  0  0
 42110  1  0  0  0
 42111  1  0  0  0
 43 44  1  0  0  0
 44112  1  0  0  0
 45 46  2  0  0  0
 45113  1  0  0  0
 46114  1  0  0  0
 47115  1  0  0  0
 47116  1  0  0  0
 48 56  1  0  0  0
 48 65  1  0  0  0
 48117  1  0  0  0
 49 50  1  0  0  0
 49 53  1  0  0  0
 49 64  1  0  0  0
 49118  1  0  0  0
 50 51  1  0  0  0
 50119  1  0  0  0
 50120  1  0  0  0
 51 52  1  0  0  0
 51121  1  0  0  0
 51122  1  0  0  0
 52123  1  0  0  0
 52124  1  0  0  0
 53 54  1  0  0  0
 54 55  2  0  0  0
 54125  1  0  0  0
 55 57  1  0  0  0
 55126  1  0  0  0
 56 69  2  0  0  0
 57 58  2  0  0  0
 57127  1  0  0  0
 58128  1  0  0  0
 59 60  1  0  0  0
 59 61  1  0  0  0
 59 62  1  0  0  0
 60129  1  0  0  0
 60130  1  0  0  0
 60131  1  0  0  0
 61132  1  0  0  0
 61133  1  0  0  0
 61134  1  0  0  0
 62135  1  0  0  0
 62136  1  0  0  0
 62137  1  0  0  0
 63 65  1  0  0  0
 63138  1  0  0  0
 63139  1  0  0  0
 63140  1  0  0  0
 64141  1  0  0  0
 65142  1  0  0  0
 68 80  1  0  0  0
 71 73  2  0  0  0
 71 75  1  0  0  0
 71143  1  0  0  0
 72 74  1  0  0  0
 72 75  2  0  0  0
 72144  1  0  0  0
 73 76  1  0  0  0
 73 77  1  0  0  0
 74 76  2  0  0  0
 74 81  1  0  0  0
 75 82  1  0  0  0
 76 83  1  0  0  0
 77 78  2  0  0  0
 77145  1  0  0  0
 78146  1  0  0  0
 79 80  1  0  0  0
 79 81  1  0  0  0
 79147  1  0  0  0
 79148  1  0  0  0
 80149  1  0  0  0
 80150  1  0  0  0
 81151  1  0  0  0
M  ISO  4   1 100  68 101  78 100  80 101
M  END
> <chiral flag>
0

> <version>
0

> <s_m_source_file>
/data/baiqing/PycharmProjects/Reinvent-master-3.2/result/LINK_invent/BTK/process_docking_weight1_custom_sum_contain_oxygen_bond_distance_aromatic_linkinvent_7_9_3/rearranged_h_0009.sdf

> <i_m_source_file_index>
81

> <r_mmod_Potential_Energy-OPLS-2005>
306.183349609375

> <r_mmod_Stretch_Energy-OPLS-2005>
129.305099487305

> <r_mmod_Bend_Energy-OPLS-2005>
249.902130126953

> <r_mmod_Torsional_Energy-OPLS-2005>
171.282791137695

> <r_mmod_Improper_Torsional_Energy-OPLS-2005>
2.86537265777588

> <r_mmod_Van_der_Waal_Energy-OPLS-2005>
146.381576538086

> <r_mmod_Electrostatic_Energy-OPLS-2005>
-278.130279541016

> <r_mmod_Solvation_Energy-OPLS-2005>
-200.815795898438

> <b_mmod_Minimization_Converged-OPLS-2005>
0

> <r_mmod_RMS_Derivative-OPLS-2005>
0.643289744853973

$$$$
83
                    3D
 Structure written by MMmdl.
156164  0  0  1  0            999 V2000
  -30.7107  -14.4067   20.6643 C   0  0  0  0  0  0
  -30.4333  -12.3025   19.3959 C   0  0  0  0  0  0
  -29.4916  -12.5272   18.1950 C   0  0  0  0  0  0
  -28.0152  -12.3743   18.6116 C   0  0  0  0  0  0
  -27.6702  -13.1939   19.8817 C   0  0  2  0  0  0
  -28.7068  -12.9152   20.9915 C   0  0  0  0  0  0
  -25.2632  -13.8138   20.5664 C   0  0  0  0  0  0
  -24.1863  -13.0437   20.9154 C   0  0  0  0  0  0
  -24.6394  -11.6892   20.8717 C   0  0  0  0  0  0
  -23.9050  -10.4289   21.0401 C   0  0  0  0  0  0
  -24.3603   -9.4210   21.9184 C   0  0  0  0  0  0
  -23.6283   -8.2244   22.0755 C   0  0  0  0  0  0
  -22.4268   -8.0277   21.3542 C   0  0  0  0  0  0
  -21.9898   -9.0249   20.4647 C   0  0  0  0  0  0
  -22.7219  -10.2132   20.3054 C   0  0  0  0  0  0
  -21.6852   -6.0731   22.5275 C   0  0  0  0  0  0
  -21.4011   -6.5634   23.8208 C   0  0  0  0  0  0
  -21.3659   -5.6788   24.9172 C   0  0  0  0  0  0
  -21.6045   -4.3051   24.7224 C   0  0  0  0  0  0
  -21.8821   -3.8142   23.4346 C   0  0  0  0  0  0
  -21.9194   -4.6959   22.3400 C   0  0  0  0  0  0
  -22.7890  -13.5251   21.1823 C   0  0  0  0  0  0
  -22.1663   -4.2142   21.0979 F   0  0  0  0  0  0
  -21.5633   -3.4536   25.7739 F   0  0  0  0  0  0
  -30.0505  -13.2349   20.4650 N   0  0  0  0  0  0
  -26.3065  -12.9279   20.3377 N   0  0  0  0  0  0
  -25.9313  -11.6450   20.5745 N   0  0  0  0  0  0
  -22.0521  -12.8248   22.0382 N   0  0  0  0  0  0
  -25.4389  -15.1850   20.4074 N   0  0  0  0  0  0
  -31.7425  -14.7177   20.0596 O   0  0  0  0  0  0
  -21.6634   -6.8870   21.4235 O   0  0  0  0  0  0
  -22.3580  -14.5561   20.6680 O   0  0  0  0  0  0
  -24.6144  -31.8707   23.2110 C   0  0  0  0  0  0
  -25.9050  -32.4823   23.8398 C   0  0  1  0  0  0
  -27.2323  -27.4391   20.0819 C   0  0  0  0  0  0
  -25.5907  -33.8618   24.2323 N   0  0  0  0  0  0
  -23.4004  -30.4965   21.5523 C   0  0  2  0  0  0
  -24.8427  -28.9646   20.1158 C   0  0  0  0  0  0
  -22.7398  -29.4688   22.4984 C   0  0  0  0  0  0
  -18.0275  -28.1372   22.8496 C   0  0  0  0  0  0
  -24.1488  -36.7315   23.2636 C   0  0  0  0  0  0
  -25.9296  -30.8356   21.3645 C   0  0  0  0  0  0
  -26.0055  -29.4708   20.7102 C   0  0  0  0  0  0
  -27.2013  -28.7163   20.6888 C   0  0  0  0  0  0
  -26.0435  -26.9464   19.4904 C   0  0  0  0  0  0
  -24.8571  -27.7006   19.5054 C   0  0  0  0  0  0
  -23.6072  -29.8330   20.1657 C   0  0  0  0  0  0
  -25.4105  -36.3102   24.0335 C   0  0  1  0  0  0
  -20.5864  -28.3661   23.1313 C   0  0  2  0  0  0
  -20.6764  -26.9400   22.5411 C   0  0  0  0  0  0
  -19.5741  -26.6388   21.5207 C   0  0  0  0  0  0
  -18.1920  -26.7921   22.1621 C   0  0  0  0  0  0
  -19.1526  -28.8830   23.2905 C   0  0  0  0  0  0
  -18.9457  -30.1432   23.8920 C   0  0  0  0  0  0
  -17.6462  -30.6580   24.0571 C   0  0  0  0  0  0
  -25.9031  -34.9470   23.5121 C   0  0  0  0  0  0
  -16.5351  -29.9089   23.6321 C   0  0  0  0  0  0
  -16.7264  -28.6503   23.0347 C   0  0  0  0  0  0
  -26.4476  -31.6589   25.0717 C   0  0  0  0  0  0
  -25.3745  -31.3715   26.1471 C   0  0  0  0  0  0
  -27.0302  -30.3021   24.6093 C   0  0  0  0  0  0
  -27.6043  -32.4318   25.7486 C   0  0  0  0  0  0
  -27.5580  -37.1805   24.8466 C   0  0  0  0  0  0
  -21.4133  -29.3041   22.3718 N   0  0  0  0  0  0
  -26.4293  -37.3786   23.9412 N   0  0  0  0  0  0
  -24.6666  -31.0819   22.1006 N   0  0  0  0  0  0
  -23.4169  -28.8220   23.3020 O   0  0  0  0  0  0
  -28.4154  -26.7220   20.0850 O   0  0  0  0  0  0
  -26.5592  -34.8922   22.4680 O   0  0  0  0  0  0
  -23.5337  -32.1464   23.7501 O   0  0  0  0  0  0
  -29.9592  -19.3527   22.3457 C   0  0  0  0  0  0
  -29.4402  -18.4198   23.2600 C   0  0  0  0  0  0
  -30.6780  -17.5245   20.8941 C   0  0  0  0  0  0
  -30.5714  -18.9129   21.1533 C   0  0  0  0  0  0
  -30.1626  -16.5783   21.8191 C   0  0  0  0  0  0
  -29.5321  -17.0417   22.9965 C   0  0  0  0  0  0
  -30.3896  -22.2078   20.0928 C   0  0  0  0  0  0
  -30.0732  -20.7603   19.6762 C   0  0  0  0  0  0
  -29.6612  -24.5903   20.0308 C   0  0  0  0  0  0
  -28.3427  -25.3312   19.7489 C   0  0  0  0  0  0
  -30.1695  -15.1671   21.6249 N   0  0  0  0  0  0
  -31.0722  -19.8456   20.2348 N   0  0  0  0  0  0
  -29.5347  -23.1638   19.7138 N   0  0  0  0  0  0
  -31.4044  -22.4457   20.7533 O   0  0  0  0  0  0
  -28.8480  -15.9245   24.1271 Cl  0  0  0  0  0  0
  -31.4735  -12.4295   19.0899 H   0  0  0  0  0  0
  -30.3545  -11.2758   19.7567 H   0  0  0  0  0  0
  -29.7284  -11.8232   17.3960 H   0  0  0  0  0  0
  -29.6531  -13.5241   17.7816 H   0  0  0  0  0  0
  -27.8303  -11.3150   18.7962 H   0  0  0  0  0  0
  -27.3589  -12.6589   17.7886 H   0  0  0  0  0  0
  -27.7338  -14.2494   19.6168 H   0  0  0  0  0  0
  -28.6771  -11.8618   21.2747 H   0  0  0  0  0  0
  -28.4393  -13.4539   21.9000 H   0  0  0  0  0  0
  -25.2749   -9.5689   22.4753 H   0  0  0  0  0  0
  -23.9991   -7.4638   22.7477 H   0  0  0  0  0  0
  -21.0826   -8.8769   19.8954 H   0  0  0  0  0  0
  -22.3679  -10.9671   19.6160 H   0  0  0  0  0  0
  -21.1998   -7.6140   23.9706 H   0  0  0  0  0  0
  -21.1482   -6.0520   25.9073 H   0  0  0  0  0  0
  -22.0602   -2.7603   23.2849 H   0  0  0  0  0  0
  -22.4122  -11.9899   22.4758 H   0  0  0  0  0  0
  -21.1145  -13.1291   22.2587 H   0  0  0  0  0  0
  -24.6792  -15.8469   20.5207 H   0  0  0  0  0  0
  -26.3029  -15.6204   20.1094 H   0  0  0  0  0  0
  -26.7109  -32.5544   23.1160 H   0  0  0  0  0  0
  -25.0064  -33.9781   25.0467 H   0  0  0  0  0  0
  -22.6888  -31.3136   21.4150 H   0  0  0  0  0  0
  -23.3733  -35.9665   23.3311 H   0  0  0  0  0  0
  -24.3573  -36.8923   22.2045 H   0  0  0  0  0  0
  -23.7263  -37.6532   23.6645 H   0  0  0  0  0  0
  -26.0441  -31.6027   20.5973 H   0  0  0  0  0  0
  -26.8169  -30.8857   21.9839 H   0  0  0  0  0  0
  -28.1010  -29.1091   21.1421 H   0  0  0  0  0  0
  -26.0035  -25.9845   19.0017 H   0  0  0  0  0  0
  -23.9636  -27.3057   19.0415 H   0  0  0  0  0  0
  -23.7169  -30.6110   19.4088 H   0  0  0  0  0  0
  -22.7297  -29.2562   19.8665 H   0  0  0  0  0  0
  -25.1274  -36.1964   25.0827 H   0  0  0  0  0  0
  -20.9954  -28.3237   24.1437 H   0  0  0  0  0  0
  -20.5667  -26.2274   23.3599 H   0  0  0  0  0  0
  -21.6635  -26.7454   22.1201 H   0  0  0  0  0  0
  -19.6906  -25.6306   21.1228 H   0  0  0  0  0  0
  -19.6675  -27.3204   20.6739 H   0  0  0  0  0  0
  -17.4187  -26.6672   21.4025 H   0  0  0  0  0  0
  -18.0331  -26.0047   22.9002 H   0  0  0  0  0  0
  -19.7932  -30.7245   24.2290 H   0  0  0  0  0  0
  -17.5023  -31.6261   24.5175 H   0  0  0  0  0  0
  -15.5354  -30.3007   23.7627 H   0  0  0  0  0  0
  -15.8663  -28.0835   22.7041 H   0  0  0  0  0  0
  -24.5898  -30.7077   25.7826 H   0  0  0  0  0  0
  -24.8956  -32.2883   26.4917 H   0  0  0  0  0  0
  -25.8092  -30.8888   27.0233 H   0  0  0  0  0  0
  -26.2845  -29.6790   24.1141 H   0  0  0  0  0  0
  -27.4060  -29.7248   25.4554 H   0  0  0  0  0  0
  -27.8690  -30.4317   23.9248 H   0  0  0  0  0  0
  -27.2635  -33.3602   26.2081 H   0  0  0  0  0  0
  -28.3842  -32.6914   25.0314 H   0  0  0  0  0  0
  -28.0723  -31.8444   26.5392 H   0  0  0  0  0  0
  -28.2593  -38.0105   24.7500 H   0  0  0  0  0  0
  -28.1079  -36.2631   24.6297 H   0  0  0  0  0  0
  -27.2304  -37.1471   25.8873 H   0  0  0  0  0  0
  -20.9280  -29.8791   21.6975 H   0  0  0  0  0  0
  -26.0180  -38.2871   24.1402 H   0  0  0  0  0  0
  -29.8706  -20.4074   22.5650 H   0  0  0  0  0  0
  -28.9624  -18.7628   24.1656 H   0  0  0  0  0  0
  -31.1442  -17.1981   19.9762 H   0  0  0  0  0  0
  -30.1025  -20.6911   18.5882 H   0  0  0  0  0  0
  -29.0552  -20.5032   19.9793 H   0  0  0  0  0  0
  -29.9334  -24.7134   21.0803 H   0  0  0  0  0  0
  -30.4688  -25.0224   19.4389 H   0  0  0  0  0  0
  -27.5515  -24.8570   20.3325 H   0  0  0  0  0  0
  -28.0919  -25.2239   18.6924 H   0  0  0  0  0  0
  -29.5016  -14.6773   22.2024 H   0  0  0  0  0  0
  -31.7455  -20.4737   20.6805 H   0  0  0  0  0  0
  -28.7359  -22.8827   19.1602 H   0  0  0  0  0  0
  1 25  1  0  0  0
  1 30  2  0  0  0
  1 81  1  0  0  0
  2  3  1  0  0  0
  2 25  1  0  0  0
  2 86  1  0  0  0
  2 87  1  0  0  0
  3  4  1  0  0  0
  3 88  1  0  0  0
  3 89  1  0  0  0
  4  5  1  0  0  0
  4 90  1  0  0  0
  4 91  1  0  0  0
  5  6  1  0  0  0
  5 26  1  0  0  0
  5 92  1  0  0  0
  6 25  1  0  0  0
  6 93  1  0  0  0
  6 94  1  0  0  0
  7  8  2  0  0  0
  7 26  1  0  0  0
  7 29  1  0  0  0
  8  9  1  0  0  0
  8 22  1  0  0  0
  9 10  1  0  0  0
  9 27  2  0  0  0
 10 11  2  0  0  0
 10 15  1  0  0  0
 11 12  1  0  0  0
 11 95  1  0  0  0
 12 13  2  0  0  0
 12 96  1  0  0  0
 13 14  1  0  0  0
 13 31  1  0  0  0
 14 15  2  0  0  0
 14 97  1  0  0  0
 15 98  1  0  0  0
 16 17  2  0  0  0
 16 21  1  0  0  0
 16 31  1  0  0  0
 17 18  1  0  0  0
 17 99  1  0  0  0
 18 19  2  0  0  0
 18100  1  0  0  0
 19 20  1  0  0  0
 19 24  1  0  0  0
 20 21  2  0  0  0
 20101  1  0  0  0
 21 23  1  0  0  0
 22 28  1  0  0  0
 22 32  2  0  0  0
 26 27  1  0  0  0
 28102  1  0  0  0
 28103  1  0  0  0
 29104  1  0  0  0
 29105  1  0  0  0
 33 34  1  0  0  0
 33 66  1  0  0  0
 33 70  2  0  0  0
 34 36  1  0  0  0
 34 59  1  0  0  0
 34106  1  0  0  0
 35 44  2  0  0  0
 35 45  1  0  0  0
 35 68  1  0  0  0
 36 56  1  0  0  0
 36107  1  0  0  0
 37 39  1  0  0  0
 37 47  1  0  0  0
 37 66  1  0  0  0
 37108  1  0  0  0
 38 43  2  0  0  0
 38 46  1  0  0  0
 38 47  1  0  0  0
 39 64  1  0  0  0
 39 67  2  0  0  0
 40 52  1  0  0  0
 40 53  2  0  0  0
 40 58  1  0  0  0
 41109  1  0  0  0
 41110  1  0  0  0
 41111  1  0  0  0
 41 48  1  0  0  0
 42 43  1  0  0  0
 42 66  1  0  0  0
 42112  1  0  0  0
 42113  1  0  0  0
 43 44  1  0  0  0
 44114  1  0  0  0
 45 46  2  0  0  0
 45115  1  0  0  0
 46116  1  0  0  0
 47117  1  0  0  0
 47118  1  0  0  0
 48 56  1  0  0  0
 48 65  1  0  0  0
 48119  1  0  0  0
 49 50  1  0  0  0
 49 53  1  0  0  0
 49 64  1  0  0  0
 49120  1  0  0  0
 50 51  1  0  0  0
 50121  1  0  0  0
 50122  1  0  0  0
 51 52  1  0  0  0
 51123  1  0  0  0
 51124  1  0  0  0
 52125  1  0  0  0
 52126  1  0  0  0
 53 54  1  0  0  0
 54 55  2  0  0  0
 54127  1  0  0  0
 55 57  1  0  0  0
 55128  1  0  0  0
 56 69  2  0  0  0
 57 58  2  0  0  0
 57129  1  0  0  0
 58130  1  0  0  0
 59 60  1  0  0  0
 59 61  1  0  0  0
 59 62  1  0  0  0
 60131  1  0  0  0
 60132  1  0  0  0
 60133  1  0  0  0
 61134  1  0  0  0
 61135  1  0  0  0
 61136  1  0  0  0
 62137  1  0  0  0
 62138  1  0  0  0
 62139  1  0  0  0
 63 65  1  0  0  0
 63140  1  0  0  0
 63141  1  0  0  0
 63142  1  0  0  0
 64143  1  0  0  0
 65144  1  0  0  0
 68 80  1  0  0  0
 71 72  2  0  0  0
 71 74  1  0  0  0
 71145  1  0  0  0
 72 76  1  0  0  0
 72146  1  0  0  0
 73 74  2  0  0  0
 73 75  1  0  0  0
 73147  1  0  0  0
 74 82  1  0  0  0
 75 76  2  0  0  0
 75 81  1  0  0  0
 76 85  1  0  0  0
 77 78  1  0  0  0
 77 83  1  0  0  0
 77 84  2  0  0  0
 78 82  1  0  0  0
 78148  1  0  0  0
 78149  1  0  0  0
 79 80  1  0  0  0
 79 83  1  0  0  0
 79150  1  0  0  0
 79151  1  0  0  0
 80152  1  0  0  0
 80153  1  0  0  0
 81154  1  0  0  0
 82155  1  0  0  0
 83156  1  0  0  0
M  ISO  4   1 100  68 101  80 101  81 100
M  END
> <chiral flag>
0

> <version>
0

> <s_m_source_file>
/data/baiqing/PycharmProjects/Reinvent-master-3.2/result/LINK_invent/BTK/process_docking_weight1_custom_sum_contain_oxygen_bond_distance_aromatic_linkinvent_7_9_3/rearranged_h_0009.sdf

> <i_m_source_file_index>
82

> <r_mmod_Potential_Energy-OPLS-2005>
-212.30061340332

> <r_mmod_Stretch_Energy-OPLS-2005>
35.2621269226074

> <r_mmod_Bend_Energy-OPLS-2005>
102.469749450684

> <r_mmod_Torsional_Energy-OPLS-2005>
219.687240600586

> <r_mmod_Improper_Torsional_Energy-OPLS-2005>
9.365647315979

> <r_mmod_Van_der_Waal_Energy-OPLS-2005>
164.535415649414

> <r_mmod_Electrostatic_Energy-OPLS-2005>
-508.995544433594

> <r_mmod_Solvation_Energy-OPLS-2005>
-244.034164428711

> <b_mmod_Minimization_Converged-OPLS-2005>
0

> <r_mmod_RMS_Derivative-OPLS-2005>
1.26851391792297

$$$$
84
                    3D
 Structure written by MMmdl.
151159  0  0  1  0            999 V2000
  -30.4414  -15.3629   20.3723 C   0  0  0  0  0  0
  -30.4150  -12.8907   19.5312 C   0  0  0  0  0  0
  -29.5265  -12.5820   18.2990 C   0  0  0  0  0  0
  -28.0840  -12.2885   18.7328 C   0  0  0  0  0  0
  -27.5973  -13.2842   19.8151 C   0  0  2  0  0  0
  -28.6229  -13.5363   20.9398 C   0  0  0  0  0  0
  -25.2338  -13.8280   20.5800 C   0  0  0  0  0  0
  -24.1706  -13.0448   20.9259 C   0  0  0  0  0  0
  -24.6372  -11.6934   20.8759 C   0  0  0  0  0  0
  -23.9077  -10.4300   21.0402 C   0  0  0  0  0  0
  -24.3639   -9.4208   21.9167 C   0  0  0  0  0  0
  -23.6332   -8.2249   22.0721 C   0  0  0  0  0  0
  -22.4290   -8.0290   21.3537 C   0  0  0  0  0  0
  -21.9904   -9.0265   20.4659 C   0  0  0  0  0  0
  -22.7232  -10.2151   20.3076 C   0  0  0  0  0  0
  -21.6862   -6.0756   22.5279 C   0  0  0  0  0  0
  -21.4034   -6.5659   23.8213 C   0  0  0  0  0  0
  -21.3657   -5.6804   24.9164 C   0  0  0  0  0  0
  -21.6038   -4.3061   24.7208 C   0  0  0  0  0  0
  -21.8821   -3.8159   23.4324 C   0  0  0  0  0  0
  -21.9193   -4.6988   22.3388 C   0  0  0  0  0  0
  -22.7713  -13.5176   21.1902 C   0  0  0  0  0  0
  -22.1659   -4.2174   21.0966 F   0  0  0  0  0  0
  -21.5610   -3.4530   25.7714 F   0  0  0  0  0  0
  -29.8303  -14.0695   20.2866 N   0  0  0  0  0  0
  -26.2753  -12.9549   20.3241 N   0  0  0  0  0  0
  -25.9307  -11.6641   20.5731 N   0  0  0  0  0  0
  -22.0395  -12.8116   22.0433 N   0  0  0  0  0  0
  -25.4004  -15.2011   20.4325 N   0  0  0  0  0  0
  -31.6705  -15.2646   20.2390 O   0  0  0  0  0  0
  -21.6653   -6.8885   21.4239 O   0  0  0  0  0  0
  -22.3398  -14.5497   20.6765 O   0  0  0  0  0  0
  -24.6700  -31.8193   23.1642 C   0  0  0  0  0  0
  -25.9364  -32.4578   23.8126 C   0  0  1  0  0  0
  -27.2104  -26.8628   20.2006 C   0  0  0  0  0  0
  -25.6012  -33.8387   24.2050 N   0  0  0  0  0  0
  -23.4862  -30.4275   21.5173 C   0  0  2  0  0  0
  -24.9351  -28.7977   20.1128 C   0  0  0  0  0  0
  -22.7690  -29.4441   22.4800 C   0  0  0  0  0  0
  -18.0332  -28.1429   22.8484 C   0  0  0  0  0  0
  -24.1475  -36.7165   23.2648 C   0  0  0  0  0  0
  -26.0554  -30.6037   21.4017 C   0  0  0  0  0  0
  -26.1198  -29.1839   20.7538 C   0  0  0  0  0  0
  -27.2484  -28.2390   20.7721 C   0  0  0  0  0  0
  -26.0032  -26.6465   19.4974 C   0  0  0  0  0  0
  -24.9063  -27.5502   19.4659 C   0  0  0  0  0  0
  -23.7266  -29.7374   20.1445 C   0  0  0  0  0  0
  -25.4129  -36.2956   24.0303 C   0  0  1  0  0  0
  -20.5953  -28.3773   23.1197 C   0  0  2  0  0  0
  -20.6816  -26.9460   22.5411 C   0  0  0  0  0  0
  -19.5779  -26.6394   21.5234 C   0  0  0  0  0  0
  -18.1965  -26.7970   22.1635 C   0  0  0  0  0  0
  -19.1594  -28.8929   23.2820 C   0  0  0  0  0  0
  -18.9505  -30.1528   23.8842 C   0  0  0  0  0  0
  -17.6496  -30.6619   24.0575 C   0  0  0  0  0  0
  -25.9103  -34.9346   23.4994 C   0  0  0  0  0  0
  -16.5385  -29.9114   23.6356 C   0  0  0  0  0  0
  -16.7314  -28.6537   23.0365 C   0  0  0  0  0  0
  -26.4587  -31.6522   25.0670 C   0  0  0  0  0  0
  -25.3692  -31.3806   26.1308 C   0  0  0  0  0  0
  -27.0486  -30.2877   24.6433 C   0  0  0  0  0  0
  -27.6073  -32.4316   25.7499 C   0  0  0  0  0  0
  -27.5553  -37.1752   24.8484 C   0  0  0  0  0  0
  -21.4359  -29.3044   22.3530 N   0  0  0  0  0  0
  -26.4263  -37.3713   23.9426 N   0  0  0  0  0  0
  -24.7594  -30.9799   22.0810 N   0  0  0  0  0  0
  -23.4197  -28.8055   23.3103 O   0  0  0  0  0  0
  -28.1945  -25.7247   20.3109 O   0  0  0  0  0  0
  -26.5694  -34.8907   22.4579 O   0  0  0  0  0  0
  -23.5759  -32.1190   23.6707 O   0  0  0  0  0  0
  -28.1096  -17.8418   23.3017 C   0  0  0  0  0  0
  -28.8376  -17.2940   22.2467 C   0  0  0  0  0  0
  -27.9943  -19.9297   22.1056 C   0  0  0  0  0  0
  -27.6446  -19.1449   23.2122 C   0  0  0  0  0  0
  -29.1952  -17.9610   21.0397 C   0  0  0  0  0  0
  -28.8072  -19.5404   21.0037 C   0  0  0  0  0  0
  -26.7610  -19.7068   24.3113 C   0  0  0  0  0  0
  -28.0214  -24.0715   20.0248 C   0  0  0  0  0  0
  -28.7862  -22.4902   20.6074 C   0  0  0  0  0  0
  -29.8269  -16.7351   20.1833 N   0  0  0  0  0  0
  -28.9084  -20.8467   20.1762 O   0  0  0  0  0  0
  -31.4277  -13.0967   19.1844 H   0  0  0  0  0  0
  -30.5014  -12.0164   20.1783 H   0  0  0  0  0  0
  -29.9328  -11.7370   17.7398 H   0  0  0  0  0  0
  -29.5351  -13.4363   17.6207 H   0  0  0  0  0  0
  -28.0570  -11.2705   19.1250 H   0  0  0  0  0  0
  -27.4134  -12.3034   17.8741 H   0  0  0  0  0  0
  -27.4889  -14.2314   19.2823 H   0  0  0  0  0  0
  -28.8156  -12.6319   21.5191 H   0  0  0  0  0  0
  -28.2330  -14.2748   21.6390 H   0  0  0  0  0  0
  -25.2785   -9.5685   22.4720 H   0  0  0  0  0  0
  -24.0060   -7.4611   22.7394 H   0  0  0  0  0  0
  -21.0819   -8.8794   19.8975 H   0  0  0  0  0  0
  -22.3660  -10.9708   19.6210 H   0  0  0  0  0  0
  -21.2057   -7.6166   23.9719 H   0  0  0  0  0  0
  -21.1467   -6.0527   25.9067 H   0  0  0  0  0  0
  -22.0602   -2.7628   23.2813 H   0  0  0  0  0  0
  -22.4037  -11.9741   22.4729 H   0  0  0  0  0  0
  -21.1010  -13.1071   22.2686 H   0  0  0  0  0  0
  -24.6432  -15.8549   20.5888 H   0  0  0  0  0  0
  -26.2619  -15.6485   20.1456 H   0  0  0  0  0  0
  -26.7449  -32.5104   23.0852 H   0  0  0  0  0  0
  -25.0221  -33.9465   25.0243 H   0  0  0  0  0  0
  -22.8030  -31.2613   21.3444 H   0  0  0  0  0  0
  -23.3758  -35.9474   23.3313 H   0  0  0  0  0  0
  -24.3536  -36.8784   22.2057 H   0  0  0  0  0  0
  -23.7203  -37.6353   23.6678 H   0  0  0  0  0  0
  -26.2375  -31.3336   20.6115 H   0  0  0  0  0  0
  -26.9168  -30.6691   22.0545 H   0  0  0  0  0  0
  -28.1392  -28.5327   21.3115 H   0  0  0  0  0  0
  -25.8682  -25.6954   19.0030 H   0  0  0  0  0  0
  -24.0070  -27.2444   18.9468 H   0  0  0  0  0  0
  -23.8928  -30.5048   19.3867 H   0  0  0  0  0  0
  -22.8321  -29.2000   19.8269 H   0  0  0  0  0  0
  -25.1335  -36.1745   25.0795 H   0  0  0  0  0  0
  -21.0050  -28.3393   24.1309 H   0  0  0  0  0  0
  -20.5729  -26.2417   23.3660 H   0  0  0  0  0  0
  -21.6684  -26.7459   22.1210 H   0  0  0  0  0  0
  -19.6934  -25.6291   21.1301 H   0  0  0  0  0  0
  -19.6712  -27.3189   20.6747 H   0  0  0  0  0  0
  -17.4249  -26.6738   21.4019 H   0  0  0  0  0  0
  -18.0319  -26.0124   22.9031 H   0  0  0  0  0  0
  -19.7980  -30.7379   24.2158 H   0  0  0  0  0  0
  -17.5049  -31.6287   24.5194 H   0  0  0  0  0  0
  -15.5386  -30.3000   23.7718 H   0  0  0  0  0  0
  -15.8713  -28.0855   22.7078 H   0  0  0  0  0  0
  -24.5931  -30.7093   25.7631 H   0  0  0  0  0  0
  -24.8831  -32.3023   26.4494 H   0  0  0  0  0  0
  -25.7911  -30.9151   27.0215 H   0  0  0  0  0  0
  -26.3164  -29.6541   24.1419 H   0  0  0  0  0  0
  -27.3991  -29.7263   25.5103 H   0  0  0  0  0  0
  -27.9122  -30.4047   23.9876 H   0  0  0  0  0  0
  -27.2638  -33.3664   26.1926 H   0  0  0  0  0  0
  -28.3983  -32.6760   25.0400 H   0  0  0  0  0  0
  -28.0624  -31.8517   26.5535 H   0  0  0  0  0  0
  -28.2600  -38.0020   24.7511 H   0  0  0  0  0  0
  -28.1002  -36.2551   24.6332 H   0  0  0  0  0  0
  -27.2264  -37.1446   25.8884 H   0  0  0  0  0  0
  -20.9624  -29.8661   21.6587 H   0  0  0  0  0  0
  -26.0093  -38.2768   24.1404 H   0  0  0  0  0  0
  -27.8727  -17.2317   24.1622 H   0  0  0  0  0  0
  -29.0896  -16.2587   22.4119 H   0  0  0  0  0  0
  -27.5410  -20.9022   22.1175 H   0  0  0  0  0  0
  -26.1682  -18.9227   24.7857 H   0  0  0  0  0  0
  -26.0657  -20.4503   23.9196 H   0  0  0  0  0  0
  -27.3694  -20.1796   25.0823 H   0  0  0  0  0  0
  -26.9484  -23.9035   20.1221 H   0  0  0  0  0  0
  -28.1961  -24.0338   18.9491 H   0  0  0  0  0  0
  -28.6236  -22.5274   21.6814 H   0  0  0  0  0  0
  -29.8437  -22.7482   20.5508 H   0  0  0  0  0  0
  -30.3060  -17.1383   19.3908 H   0  0  0  0  0  0
  1 25  1  0  0  0
  1 30  2  0  0  0
  1 80  1  0  0  0
  2  3  1  0  0  0
  2 25  1  0  0  0
  2 82  1  0  0  0
  2 83  1  0  0  0
  3  4  1  0  0  0
  3 84  1  0  0  0
  3 85  1  0  0  0
  4  5  1  0  0  0
  4 86  1  0  0  0
  4 87  1  0  0  0
  5  6  1  0  0  0
  5 26  1  0  0  0
  5 88  1  0  0  0
  6 25  1  0  0  0
  6 89  1  0  0  0
  6 90  1  0  0  0
  7  8  2  0  0  0
  7 26  1  0  0  0
  7 29  1  0  0  0
  8  9  1  0  0  0
  8 22  1  0  0  0
  9 10  1  0  0  0
  9 27  2  0  0  0
 10 11  2  0  0  0
 10 15  1  0  0  0
 11 12  1  0  0  0
 11 91  1  0  0  0
 12 13  2  0  0  0
 12 92  1  0  0  0
 13 14  1  0  0  0
 13 31  1  0  0  0
 14 15  2  0  0  0
 14 93  1  0  0  0
 15 94  1  0  0  0
 16 17  2  0  0  0
 16 21  1  0  0  0
 16 31  1  0  0  0
 17 18  1  0  0  0
 17 95  1  0  0  0
 18 19  2  0  0  0
 18 96  1  0  0  0
 19 20  1  0  0  0
 19 24  1  0  0  0
 20 21  2  0  0  0
 20 97  1  0  0  0
 21 23  1  0  0  0
 22 28  1  0  0  0
 22 32  2  0  0  0
 26 27  1  0  0  0
 28 98  1  0  0  0
 28 99  1  0  0  0
 29100  1  0  0  0
 29101  1  0  0  0
 33 34  1  0  0  0
 33 66  1  0  0  0
 33 70  2  0  0  0
 34 36  1  0  0  0
 34 59  1  0  0  0
 34102  1  0  0  0
 35 44  2  0  0  0
 35 45  1  0  0  0
 35 68  1  0  0  0
 36 56  1  0  0  0
 36103  1  0  0  0
 37 39  1  0  0  0
 37 47  1  0  0  0
 37 66  1  0  0  0
 37104  1  0  0  0
 38 43  2  0  0  0
 38 46  1  0  0  0
 38 47  1  0  0  0
 39 64  1  0  0  0
 39 67  2  0  0  0
 40 52  1  0  0  0
 40 53  2  0  0  0
 40 58  1  0  0  0
 41105  1  0  0  0
 41106  1  0  0  0
 41107  1  0  0  0
 41 48  1  0  0  0
 42 43  1  0  0  0
 42 66  1  0  0  0
 42108  1  0  0  0
 42109  1  0  0  0
 43 44  1  0  0  0
 44110  1  0  0  0
 45 46  2  0  0  0
 45111  1  0  0  0
 46112  1  0  0  0
 47113  1  0  0  0
 47114  1  0  0  0
 48 56  1  0  0  0
 48 65  1  0  0  0
 48115  1  0  0  0
 49 50  1  0  0  0
 49 53  1  0  0  0
 49 64  1  0  0  0
 49116  1  0  0  0
 50 51  1  0  0  0
 50117  1  0  0  0
 50118  1  0  0  0
 51 52  1  0  0  0
 51119  1  0  0  0
 51120  1  0  0  0
 52121  1  0  0  0
 52122  1  0  0  0
 53 54  1  0  0  0
 54 55  2  0  0  0
 54123  1  0  0  0
 55 57  1  0  0  0
 55124  1  0  0  0
 56 69  2  0  0  0
 57 58  2  0  0  0
 57125  1  0  0  0
 58126  1  0  0  0
 59 60  1  0  0  0
 59 61  1  0  0  0
 59 62  1  0  0  0
 60127  1  0  0  0
 60128  1  0  0  0
 60129  1  0  0  0
 61130  1  0  0  0
 61131  1  0  0  0
 61132  1  0  0  0
 62133  1  0  0  0
 62134  1  0  0  0
 62135  1  0  0  0
 63 65  1  0  0  0
 63136  1  0  0  0
 63137  1  0  0  0
 63138  1  0  0  0
 64139  1  0  0  0
 65140  1  0  0  0
 68 78  1  0  0  0
 71 72  2  0  0  0
 71 74  1  0  0  0
 71141  1  0  0  0
 72 75  1  0  0  0
 72142  1  0  0  0
 73 74  2  0  0  0
 73 76  1  0  0  0
 73143  1  0  0  0
 74 77  1  0  0  0
 75 76  2  0  0  0
 75 80  1  0  0  0
 76 81  1  0  0  0
 77144  1  0  0  0
 77145  1  0  0  0
 77146  1  0  0  0
 78 79  1  0  0  0
 78147  1  0  0  0
 78148  1  0  0  0
 79 81  1  0  0  0
 79149  1  0  0  0
 79150  1  0  0  0
 80151  1  0  0  0
M  ISO  4   1 100  68 101  78 101  80 100
M  END
> <chiral flag>
0

> <version>
0

> <s_m_source_file>
/data/baiqing/PycharmProjects/Reinvent-master-3.2/result/LINK_invent/BTK/process_docking_weight1_custom_sum_contain_oxygen_bond_distance_aromatic_linkinvent_7_9_3/rearranged_h_0009.sdf

> <i_m_source_file_index>
83

> <r_mmod_Potential_Energy-OPLS-2005>
1799.03686523438

> <r_mmod_Stretch_Energy-OPLS-2005>
771.737487792969

> <r_mmod_Bend_Energy-OPLS-2005>
630.625183105469

> <r_mmod_Torsional_Energy-OPLS-2005>
271.070526123047

> <r_mmod_Improper_Torsional_Energy-OPLS-2005>
15.8946971893311

> <r_mmod_Van_der_Waal_Energy-OPLS-2005>
139.087783813477

> <r_mmod_Electrostatic_Energy-OPLS-2005>
-388.633575439453

> <r_mmod_Solvation_Energy-OPLS-2005>
-207.422546386719

> <b_mmod_Minimization_Converged-OPLS-2005>
0

> <r_mmod_RMS_Derivative-OPLS-2005>
3.19715309143066

$$$$
85
                    3D
 Structure written by MMmdl.
154162  0  0  1  0            999 V2000
  -30.4121  -15.3830   20.3410 C   0  0  0  0  0  0
  -30.4319  -12.8905   19.5377 C   0  0  0  0  0  0
  -29.5409  -12.6012   18.3019 C   0  0  0  0  0  0
  -28.0963  -12.3017   18.7327 C   0  0  0  0  0  0
  -27.6062  -13.2897   19.8191 C   0  0  2  0  0  0
  -28.6335  -13.5219   20.9498 C   0  0  0  0  0  0
  -25.2366  -13.8271   20.5764 C   0  0  0  0  0  0
  -24.1735  -13.0442   20.9270 C   0  0  0  0  0  0
  -24.6412  -11.6946   20.8762 C   0  0  0  0  0  0
  -23.9111  -10.4298   21.0405 C   0  0  0  0  0  0
  -24.3649   -9.4210   21.9185 C   0  0  0  0  0  0
  -23.6309   -8.2252   22.0758 C   0  0  0  0  0  0
  -22.4286   -8.0295   21.3554 C   0  0  0  0  0  0
  -21.9932   -9.0272   20.4655 C   0  0  0  0  0  0
  -22.7278  -10.2142   20.3059 C   0  0  0  0  0  0
  -21.6854   -6.0745   22.5281 C   0  0  0  0  0  0
  -21.4021   -6.5646   23.8216 C   0  0  0  0  0  0
  -21.3660   -5.6794   24.9173 C   0  0  0  0  0  0
  -21.6043   -4.3057   24.7221 C   0  0  0  0  0  0
  -21.8819   -3.8154   23.4341 C   0  0  0  0  0  0
  -21.9192   -4.6973   22.3399 C   0  0  0  0  0  0
  -22.7750  -13.5185   21.1906 C   0  0  0  0  0  0
  -22.1662   -4.2162   21.0974 F   0  0  0  0  0  0
  -21.5622   -3.4538   25.7733 F   0  0  0  0  0  0
  -29.8521  -14.0589   20.3162 N   0  0  0  0  0  0
  -26.2802  -12.9574   20.3217 N   0  0  0  0  0  0
  -25.9350  -11.6664   20.5713 N   0  0  0  0  0  0
  -22.0403  -12.8168   22.0457 N   0  0  0  0  0  0
  -25.3982  -15.2010   20.4214 N   0  0  0  0  0  0
  -31.6367  -15.3274   20.1469 O   0  0  0  0  0  0
  -21.6645   -6.8894   21.4248 O   0  0  0  0  0  0
  -22.3432  -14.5481   20.6733 O   0  0  0  0  0  0
  -24.6692  -31.8157   23.1645 C   0  0  0  0  0  0
  -25.9341  -32.4546   23.8137 C   0  0  1  0  0  0
  -27.2220  -26.8536   20.1961 C   0  0  0  0  0  0
  -25.5979  -33.8365   24.2037 N   0  0  0  0  0  0
  -23.4883  -30.4237   21.5144 C   0  0  2  0  0  0
  -24.9447  -28.7954   20.1128 C   0  0  0  0  0  0
  -22.7696  -29.4398   22.4752 C   0  0  0  0  0  0
  -18.0328  -28.1410   22.8462 C   0  0  0  0  0  0
  -24.1500  -36.7193   23.2650 C   0  0  0  0  0  0
  -26.0611  -30.5977   21.4067 C   0  0  0  0  0  0
  -26.1291  -29.1791   20.7536 C   0  0  0  0  0  0
  -27.2582  -28.2301   20.7700 C   0  0  0  0  0  0
  -26.0102  -26.6428   19.4982 C   0  0  0  0  0  0
  -24.9155  -27.5501   19.4631 C   0  0  0  0  0  0
  -23.7340  -29.7325   20.1437 C   0  0  0  0  0  0
  -25.4144  -36.2944   24.0292 C   0  0  1  0  0  0
  -20.5954  -28.3765   23.1171 C   0  0  2  0  0  0
  -20.6803  -26.9439   22.5401 C   0  0  0  0  0  0
  -19.5779  -26.6376   21.5212 C   0  0  0  0  0  0
  -18.1961  -26.7942   22.1618 C   0  0  0  0  0  0
  -19.1589  -28.8908   23.2802 C   0  0  0  0  0  0
  -18.9499  -30.1494   23.8844 C   0  0  0  0  0  0
  -17.6491  -30.6598   24.0554 C   0  0  0  0  0  0
  -25.9109  -34.9326   23.4990 C   0  0  0  0  0  0
  -16.5382  -29.9084   23.6343 C   0  0  0  0  0  0
  -16.7308  -28.6504   23.0362 C   0  0  0  0  0  0
  -26.4571  -31.6520   25.0695 C   0  0  0  0  0  0
  -25.3680  -31.3788   26.1340 C   0  0  0  0  0  0
  -27.0478  -30.2878   24.6481 C   0  0  0  0  0  0
  -27.6051  -32.4341   25.7502 C   0  0  0  0  0  0
  -27.5571  -37.1756   24.8464 C   0  0  0  0  0  0
  -21.4358  -29.3039   22.3506 N   0  0  0  0  0  0
  -26.4283  -37.3685   23.9398 N   0  0  0  0  0  0
  -24.7613  -30.9749   22.0818 N   0  0  0  0  0  0
  -23.4210  -28.7978   23.3030 O   0  0  0  0  0  0
  -28.2019  -25.7051   20.2969 O   0  0  0  0  0  0
  -26.5731  -34.8873   22.4594 O   0  0  0  0  0  0
  -23.5743  -32.1159   23.6691 O   0  0  0  0  0  0
  -32.1658  -19.1336   20.0346 C   0  0  0  0  0  0
  -30.5501  -20.0663   21.6058 C   0  0  0  0  0  0
  -31.8915  -19.8252   21.2338 C   0  0  0  0  0  0
  -31.1390  -18.4117   19.3924 C   0  0  0  0  0  0
  -29.5353  -19.7208   20.6877 C   0  0  0  0  0  0
  -29.8976  -18.2997   20.0611 C   0  0  0  0  0  0
  -28.8942  -22.6206   20.5313 C   0  0  0  0  0  0
  -33.0255  -20.4465   22.0235 C   0  0  0  0  0  0
  -31.4616  -17.6237   18.1341 C   0  0  0  0  0  0
  -27.9631  -24.0596   20.0095 C   0  0  0  0  0  0
  -28.8237  -21.1383   20.1987 N   0  0  0  0  0  0
  -29.6726  -16.7035   20.4405 N   0  0  0  0  0  0
  -29.7733  -22.9408   21.3342 O   0  0  0  0  0  0
  -31.4471  -13.0993   19.1983 H   0  0  0  0  0  0
  -30.5185  -12.0043   20.1686 H   0  0  0  0  0  0
  -29.9435  -11.7661   17.7275 H   0  0  0  0  0  0
  -29.5531  -13.4661   17.6368 H   0  0  0  0  0  0
  -28.0743  -11.2853   19.1278 H   0  0  0  0  0  0
  -27.4281  -12.3109   17.8710 H   0  0  0  0  0  0
  -27.5035  -14.2418   19.2967 H   0  0  0  0  0  0
  -28.8278  -12.6072   21.5114 H   0  0  0  0  0  0
  -28.2501  -14.2511   21.6652 H   0  0  0  0  0  0
  -25.2796   -9.5679   22.4761 H   0  0  0  0  0  0
  -24.0016   -7.4639   22.7475 H   0  0  0  0  0  0
  -21.0864   -8.8802   19.8956 H   0  0  0  0  0  0
  -22.3745  -10.9682   19.6167 H   0  0  0  0  0  0
  -21.2026   -7.6157   23.9724 H   0  0  0  0  0  0
  -21.1477   -6.0522   25.9075 H   0  0  0  0  0  0
  -22.0596   -2.7618   23.2830 H   0  0  0  0  0  0
  -22.4030  -11.9845   22.4864 H   0  0  0  0  0  0
  -21.1017  -13.1187   22.2659 H   0  0  0  0  0  0
  -24.6263  -15.8487   20.5384 H   0  0  0  0  0  0
  -26.2372  -15.6452   20.0726 H   0  0  0  0  0  0
  -26.7410  -32.5066   23.0848 H   0  0  0  0  0  0
  -25.0059  -33.9434   25.0141 H   0  0  0  0  0  0
  -22.8053  -31.2568   21.3363 H   0  0  0  0  0  0
  -23.3769  -35.9516   23.3279 H   0  0  0  0  0  0
  -24.3578  -36.8876   22.2070 H   0  0  0  0  0  0
  -23.7256  -37.6369   23.6734 H   0  0  0  0  0  0
  -26.2474  -31.3331   20.6231 H   0  0  0  0  0  0
  -26.9185  -30.6601   22.0648 H   0  0  0  0  0  0
  -28.1497  -28.5211   21.3072 H   0  0  0  0  0  0
  -25.8709  -25.6929   19.0028 H   0  0  0  0  0  0
  -24.0177  -27.2506   18.9399 H   0  0  0  0  0  0
  -23.8976  -30.4980   19.3841 H   0  0  0  0  0  0
  -22.8422  -29.1912   19.8228 H   0  0  0  0  0  0
  -25.1348  -36.1731   25.0785 H   0  0  0  0  0  0
  -21.0043  -28.3383   24.1295 H   0  0  0  0  0  0
  -20.5676  -26.2386   23.3650 H   0  0  0  0  0  0
  -21.6667  -26.7404   22.1215 H   0  0  0  0  0  0
  -19.6941  -25.6272   21.1280 H   0  0  0  0  0  0
  -19.6718  -27.3152   20.6715 H   0  0  0  0  0  0
  -17.4229  -26.6679   21.4024 H   0  0  0  0  0  0
  -18.0357  -26.0097   22.9027 H   0  0  0  0  0  0
  -19.7974  -30.7321   24.2195 H   0  0  0  0  0  0
  -17.5042  -31.6274   24.5166 H   0  0  0  0  0  0
  -15.5380  -30.2969   23.7696 H   0  0  0  0  0  0
  -15.8710  -28.0803   22.7111 H   0  0  0  0  0  0
  -24.5871  -30.7134   25.7640 H   0  0  0  0  0  0
  -24.8863  -32.2995   26.4640 H   0  0  0  0  0  0
  -25.7894  -30.9027   27.0202 H   0  0  0  0  0  0
  -26.3159  -29.6530   24.1476 H   0  0  0  0  0  0
  -27.3967  -29.7273   25.5164 H   0  0  0  0  0  0
  -27.9118  -30.4038   23.9936 H   0  0  0  0  0  0
  -27.2616  -33.3689   26.1944 H   0  0  0  0  0  0
  -28.3938  -32.6825   25.0387 H   0  0  0  0  0  0
  -28.0639  -31.8558   26.5532 H   0  0  0  0  0  0
  -28.2567  -38.0069   24.7500 H   0  0  0  0  0  0
  -28.1086  -36.2592   24.6307 H   0  0  0  0  0  0
  -27.2280  -37.1414   25.8865 H   0  0  0  0  0  0
  -20.9627  -29.8718   21.6614 H   0  0  0  0  0  0
  -26.0123  -38.2743   24.1397 H   0  0  0  0  0  0
  -33.1760  -19.0933   19.6496 H   0  0  0  0  0  0
  -30.3840  -20.8207   22.3602 H   0  0  0  0  0  0
  -33.9007  -19.7953   22.0227 H   0  0  0  0  0  0
  -32.7362  -20.6172   23.0607 H   0  0  0  0  0  0
  -33.3109  -21.4040   21.5871 H   0  0  0  0  0  0
  -31.6723  -18.3107   17.3139 H   0  0  0  0  0  0
  -30.6285  -16.9913   17.8272 H   0  0  0  0  0  0
  -32.3425  -16.9973   18.2772 H   0  0  0  0  0  0
  -26.9517  -23.8610   20.3636 H   0  0  0  0  0  0
  -27.8934  -23.9683   18.9257 H   0  0  0  0  0  0
  -28.1327  -20.9797   19.4778 H   0  0  0  0  0  0
  -28.7318  -16.5353   20.7654 H   0  0  0  0  0  0
  1 25  1  0  0  0
  1 30  2  0  0  0
  1 82  1  0  0  0
  2  3  1  0  0  0
  2 25  1  0  0  0
  2 84  1  0  0  0
  2 85  1  0  0  0
  3  4  1  0  0  0
  3 86  1  0  0  0
  3 87  1  0  0  0
  4  5  1  0  0  0
  4 88  1  0  0  0
  4 89  1  0  0  0
  5  6  1  0  0  0
  5 26  1  0  0  0
  5 90  1  0  0  0
  6 25  1  0  0  0
  6 91  1  0  0  0
  6 92  1  0  0  0
  7  8  2  0  0  0
  7 26  1  0  0  0
  7 29  1  0  0  0
  8  9  1  0  0  0
  8 22  1  0  0  0
  9 10  1  0  0  0
  9 27  2  0  0  0
 10 11  2  0  0  0
 10 15  1  0  0  0
 11 12  1  0  0  0
 11 93  1  0  0  0
 12 13  2  0  0  0
 12 94  1  0  0  0
 13 14  1  0  0  0
 13 31  1  0  0  0
 14 15  2  0  0  0
 14 95  1  0  0  0
 15 96  1  0  0  0
 16 17  2  0  0  0
 16 21  1  0  0  0
 16 31  1  0  0  0
 17 18  1  0  0  0
 17 97  1  0  0  0
 18 19  2  0  0  0
 18 98  1  0  0  0
 19 20  1  0  0  0
 19 24  1  0  0  0
 20 21  2  0  0  0
 20 99  1  0  0  0
 21 23  1  0  0  0
 22 28  1  0  0  0
 22 32  2  0  0  0
 26 27  1  0  0  0
 28100  1  0  0  0
 28101  1  0  0  0
 29102  1  0  0  0
 29103  1  0  0  0
 33 34  1  0  0  0
 33 66  1  0  0  0
 33 70  2  0  0  0
 34 36  1  0  0  0
 34 59  1  0  0  0
 34104  1  0  0  0
 35 44  2  0  0  0
 35 45  1  0  0  0
 35 68  1  0  0  0
 36 56  1  0  0  0
 36105  1  0  0  0
 37 39  1  0  0  0
 37 47  1  0  0  0
 37 66  1  0  0  0
 37106  1  0  0  0
 38 43  2  0  0  0
 38 46  1  0  0  0
 38 47  1  0  0  0
 39 64  1  0  0  0
 39 67  2  0  0  0
 40 52  1  0  0  0
 40 53  2  0  0  0
 40 58  1  0  0  0
 41107  1  0  0  0
 41108  1  0  0  0
 41109  1  0  0  0
 41 48  1  0  0  0
 42 43  1  0  0  0
 42 66  1  0  0  0
 42110  1  0  0  0
 42111  1  0  0  0
 43 44  1  0  0  0
 44112  1  0  0  0
 45 46  2  0  0  0
 45113  1  0  0  0
 46114  1  0  0  0
 47115  1  0  0  0
 47116  1  0  0  0
 48 56  1  0  0  0
 48 65  1  0  0  0
 48117  1  0  0  0
 49 50  1  0  0  0
 49 53  1  0  0  0
 49 64  1  0  0  0
 49118  1  0  0  0
 50 51  1  0  0  0
 50119  1  0  0  0
 50120  1  0  0  0
 51 52  1  0  0  0
 51121  1  0  0  0
 51122  1  0  0  0
 52123  1  0  0  0
 52124  1  0  0  0
 53 54  1  0  0  0
 54 55  2  0  0  0
 54125  1  0  0  0
 55 57  1  0  0  0
 55126  1  0  0  0
 56 69  2  0  0  0
 57 58  2  0  0  0
 57127  1  0  0  0
 58128  1  0  0  0
 59 60  1  0  0  0
 59 61  1  0  0  0
 59 62  1  0  0  0
 60129  1  0  0  0
 60130  1  0  0  0
 60131  1  0  0  0
 61132  1  0  0  0
 61133  1  0  0  0
 61134  1  0  0  0
 62135  1  0  0  0
 62136  1  0  0  0
 62137  1  0  0  0
 63 65  1  0  0  0
 63138  1  0  0  0
 63139  1  0  0  0
 63140  1  0  0  0
 64141  1  0  0  0
 65142  1  0  0  0
 68 80  1  0  0  0
 71 73  2  0  0  0
 71 74  1  0  0  0
 71143  1  0  0  0
 72 73  1  0  0  0
 72 75  2  0  0  0
 72144  1  0  0  0
 73 78  1  0  0  0
 74 76  2  0  0  0
 74 79  1  0  0  0
 75 76  1  0  0  0
 75 81  1  0  0  0
 76 82  1  0  0  0
 77 80  1  0  0  0
 77 81  1  0  0  0
 77 83  2  0  0  0
 78145  1  0  0  0
 78146  1  0  0  0
 78147  1  0  0  0
 79148  1  0  0  0
 79149  1  0  0  0
 79150  1  0  0  0
 80151  1  0  0  0
 80152  1  0  0  0
 81153  1  0  0  0
 82154  1  0  0  0
M  ISO  4   1 100  68 101  80 101  82 100
M  END
> <chiral flag>
0

> <version>
0

> <s_m_source_file>
/data/baiqing/PycharmProjects/Reinvent-master-3.2/result/LINK_invent/BTK/process_docking_weight1_custom_sum_contain_oxygen_bond_distance_aromatic_linkinvent_7_9_3/rearranged_h_0009.sdf

> <i_m_source_file_index>
84

> <r_mmod_Potential_Energy-OPLS-2005>
1770.24645996094

> <r_mmod_Stretch_Energy-OPLS-2005>
745.354248046875

> <r_mmod_Bend_Energy-OPLS-2005>
482.441253662109

> <r_mmod_Torsional_Energy-OPLS-2005>
473.418975830078

> <r_mmod_Improper_Torsional_Energy-OPLS-2005>
26.6417942047119

> <r_mmod_Van_der_Waal_Energy-OPLS-2005>
134.817749023438

> <r_mmod_Electrostatic_Energy-OPLS-2005>
-429.272338867188

> <r_mmod_Solvation_Energy-OPLS-2005>
-245.919372558594

> <b_mmod_Minimization_Converged-OPLS-2005>
0

> <r_mmod_RMS_Derivative-OPLS-2005>
0.821981906890869

$$$$
86
                    3D
 Structure written by MMmdl.
156164  0  0  1  0            999 V2000
  -30.4361  -15.5027   20.3513 C   0  0  0  0  0  0
  -30.4212  -13.0121   19.4824 C   0  0  0  0  0  0
  -29.5242  -12.6147   18.2819 C   0  0  0  0  0  0
  -28.0917  -12.3020   18.7390 C   0  0  0  0  0  0
  -27.5984  -13.3040   19.8100 C   0  0  2  0  0  0
  -28.6425  -13.5949   20.9137 C   0  0  0  0  0  0
  -25.2356  -13.8298   20.5870 C   0  0  0  0  0  0
  -24.1724  -13.0450   20.9307 C   0  0  0  0  0  0
  -24.6423  -11.6952   20.8799 C   0  0  0  0  0  0
  -23.9117  -10.4295   21.0421 C   0  0  0  0  0  0
  -24.3628   -9.4195   21.9204 C   0  0  0  0  0  0
  -23.6298   -8.2221   22.0744 C   0  0  0  0  0  0
  -22.4281   -8.0268   21.3531 C   0  0  0  0  0  0
  -21.9955   -9.0248   20.4619 C   0  0  0  0  0  0
  -22.7304  -10.2124   20.3055 C   0  0  0  0  0  0
  -21.6833   -6.0731   22.5292 C   0  0  0  0  0  0
  -21.3997   -6.5625   23.8234 C   0  0  0  0  0  0
  -21.3667   -5.6778   24.9199 C   0  0  0  0  0  0
  -21.6048   -4.3042   24.7250 C   0  0  0  0  0  0
  -21.8810   -3.8134   23.4369 C   0  0  0  0  0  0
  -21.9180   -4.6953   22.3421 C   0  0  0  0  0  0
  -22.7727  -13.5180   21.1909 C   0  0  0  0  0  0
  -22.1640   -4.2134   21.1005 F   0  0  0  0  0  0
  -21.5643   -3.4526   25.7762 F   0  0  0  0  0  0
  -29.8112  -14.1971   20.2312 N   0  0  0  0  0  0
  -26.2805  -12.9633   20.3291 N   0  0  0  0  0  0
  -25.9373  -11.6698   20.5750 N   0  0  0  0  0  0
  -22.0380  -12.8158   22.0449 N   0  0  0  0  0  0
  -25.3978  -15.2053   20.4421 N   0  0  0  0  0  0
  -31.6671  -15.3432   20.2516 O   0  0  0  0  0  0
  -21.6624   -6.8876   21.4250 O   0  0  0  0  0  0
  -22.3411  -14.5481   20.6740 O   0  0  0  0  0  0
  -24.6786  -31.8091   23.1586 C   0  0  0  0  0  0
  -25.9406  -32.4514   23.8095 C   0  0  1  0  0  0
  -27.2243  -26.7829   20.2150 C   0  0  0  0  0  0
  -25.6036  -33.8337   24.2015 N   0  0  0  0  0  0
  -23.4987  -30.4156   21.5089 C   0  0  2  0  0  0
  -24.9527  -28.7675   20.1208 C   0  0  0  0  0  0
  -22.7731  -29.4392   22.4729 C   0  0  0  0  0  0
  -18.0335  -28.1422   22.8446 C   0  0  0  0  0  0
  -24.1498  -36.7172   23.2645 C   0  0  0  0  0  0
  -26.0736  -30.5729   21.4021 C   0  0  0  0  0  0
  -26.1414  -29.1416   20.7591 C   0  0  0  0  0  0
  -27.2684  -28.1791   20.7687 C   0  0  0  0  0  0
  -26.0010  -26.5937   19.5286 C   0  0  0  0  0  0
  -24.9179  -27.5174   19.4798 C   0  0  0  0  0  0
  -23.7472  -29.7155   20.1426 C   0  0  0  0  0  0
  -25.4142  -36.2926   24.0290 C   0  0  1  0  0  0
  -20.5967  -28.3784   23.1147 C   0  0  2  0  0  0
  -20.6812  -26.9455   22.5386 C   0  0  0  0  0  0
  -19.5784  -26.6381   21.5198 C   0  0  0  0  0  0
  -18.1965  -26.7952   22.1606 C   0  0  0  0  0  0
  -19.1601  -28.8920   23.2783 C   0  0  0  0  0  0
  -18.9510  -30.1500   23.8835 C   0  0  0  0  0  0
  -17.6501  -30.6600   24.0552 C   0  0  0  0  0  0
  -25.9117  -34.9310   23.4971 C   0  0  0  0  0  0
  -16.5391  -29.9086   23.6339 C   0  0  0  0  0  0
  -16.7317  -28.6509   23.0357 C   0  0  0  0  0  0
  -26.4622  -31.6495   25.0654 C   0  0  0  0  0  0
  -25.3735  -31.3751   26.1298 C   0  0  0  0  0  0
  -27.0526  -30.2858   24.6426 C   0  0  0  0  0  0
  -27.6108  -32.4305   25.7465 C   0  0  0  0  0  0
  -27.5560  -37.1750   24.8473 C   0  0  0  0  0  0
  -21.4388  -29.3063   22.3487 N   0  0  0  0  0  0
  -26.4266  -37.3682   23.9418 N   0  0  0  0  0  0
  -24.7737  -30.9627   22.0777 N   0  0  0  0  0  0
  -23.4217  -28.7973   23.3032 O   0  0  0  0  0  0
  -28.2270  -25.6270   20.2311 O   0  0  0  0  0  0
  -26.5704  -34.8883   22.4555 O   0  0  0  0  0  0
  -23.5826  -32.1110   23.6598 O   0  0  0  0  0  0
  -30.7989  -18.2375   20.4608 C   0  0  0  0  0  0
  -30.4493  -19.9045   20.2179 C   0  0  0  0  0  0
  -28.2552  -19.4205   20.0120 C   0  0  0  0  0  0
  -28.5470  -17.7581   20.4567 C   0  0  2  0  0  0
  -28.8265  -17.9066   23.0402 C   0  0  0  0  0  0
  -27.9327  -17.5062   21.8531 C   0  0  0  0  0  0
  -28.9638  -22.3237   19.9669 C   0  0  0  0  0  0
  -28.0684  -23.9190   20.4415 C   0  0  0  0  0  0
  -29.8995  -16.9580   20.3524 N   0  0  0  0  0  0
  -29.1040  -20.6583   20.4796 N   0  3  2  0  0  0
  -31.4046  -13.2628   19.0826 H   0  0  0  0  0  0
  -30.5922  -12.1625   20.1449 H   0  0  0  0  0  0
  -29.9468  -11.7556   17.7577 H   0  0  0  0  0  0
  -29.5040  -13.4332   17.5600 H   0  0  0  0  0  0
  -28.0896  -11.2943   19.1537 H   0  0  0  0  0  0
  -27.4122  -12.2836   17.8864 H   0  0  0  0  0  0
  -27.4682  -14.2400   19.2642 H   0  0  0  0  0  0
  -28.8998  -12.6927   21.4697 H   0  0  0  0  0  0
  -28.2466  -14.3009   21.6421 H   0  0  0  0  0  0
  -25.2746   -9.5651   22.4822 H   0  0  0  0  0  0
  -23.9987   -7.4588   22.7449 H   0  0  0  0  0  0
  -21.0904   -8.8787   19.8887 H   0  0  0  0  0  0
  -22.3791  -10.9666   19.6155 H   0  0  0  0  0  0
  -21.1966   -7.6126   23.9753 H   0  0  0  0  0  0
  -21.1506   -6.0495   25.9113 H   0  0  0  0  0  0
  -22.0588   -2.7594   23.2884 H   0  0  0  0  0  0
  -22.4005  -11.9823   22.4831 H   0  0  0  0  0  0
  -21.0973  -13.1139   22.2608 H   0  0  0  0  0  0
  -24.6381  -15.8596   20.5973 H   0  0  0  0  0  0
  -26.2580  -15.6523   20.1572 H   0  0  0  0  0  0
  -26.7472  -32.5025   23.0799 H   0  0  0  0  0  0
  -25.0218  -33.9390   25.0193 H   0  0  0  0  0  0
  -22.8201  -31.2516   21.3242 H   0  0  0  0  0  0
  -23.3780  -35.9485   23.3262 H   0  0  0  0  0  0
  -24.3576  -36.8859   22.2068 H   0  0  0  0  0  0
  -23.7233  -37.6339   23.6727 H   0  0  0  0  0  0
  -26.2541  -31.2971   20.6067 H   0  0  0  0  0  0
  -26.9352  -30.6509   22.0535 H   0  0  0  0  0  0
  -28.1726  -28.4776   21.2805 H   0  0  0  0  0  0
  -25.8522  -25.6461   19.0314 H   0  0  0  0  0  0
  -24.0205  -27.2247   18.9526 H   0  0  0  0  0  0
  -23.9210  -30.4753   19.3793 H   0  0  0  0  0  0
  -22.8532  -29.1799   19.8186 H   0  0  0  0  0  0
  -25.1352  -36.1690   25.0777 H   0  0  0  0  0  0
  -21.0058  -28.3397   24.1271 H   0  0  0  0  0  0
  -20.5679  -26.2412   23.3640 H   0  0  0  0  0  0
  -21.6673  -26.7407   22.1208 H   0  0  0  0  0  0
  -19.6953  -25.6276   21.1264 H   0  0  0  0  0  0
  -19.6727  -27.3156   20.6696 H   0  0  0  0  0  0
  -17.4245  -26.6685   21.4005 H   0  0  0  0  0  0
  -18.0374  -26.0101   22.9010 H   0  0  0  0  0  0
  -19.7989  -30.7326   24.2187 H   0  0  0  0  0  0
  -17.5059  -31.6275   24.5173 H   0  0  0  0  0  0
  -15.5395  -30.2981   23.7699 H   0  0  0  0  0  0
  -15.8713  -28.0811   22.7115 H   0  0  0  0  0  0
  -24.5986  -30.7016   25.7618 H   0  0  0  0  0  0
  -24.8849  -32.2937   26.4548 H   0  0  0  0  0  0
  -25.7979  -30.9055   27.0180 H   0  0  0  0  0  0
  -26.3201  -29.6518   24.1419 H   0  0  0  0  0  0
  -27.4040  -29.7238   25.5092 H   0  0  0  0  0  0
  -27.9150  -30.4042   23.9866 H   0  0  0  0  0  0
  -27.2713  -33.3699   26.1843 H   0  0  0  0  0  0
  -28.4038  -32.6701   25.0363 H   0  0  0  0  0  0
  -28.0649  -31.8535   26.5536 H   0  0  0  0  0  0
  -28.2565  -38.0060   24.7526 H   0  0  0  0  0  0
  -28.1064  -36.2586   24.6294 H   0  0  0  0  0  0
  -27.2272  -37.1385   25.8873 H   0  0  0  0  0  0
  -20.9675  -29.8735   21.6572 H   0  0  0  0  0  0
  -26.0094  -38.2729   24.1440 H   0  0  0  0  0  0
  -31.2221  -18.1730   21.4629 H   0  0  0  0  0  0
  -31.6574  -18.0331   19.8193 H   0  0  0  0  0  0
  -30.6648  -20.0981   19.1664 H   0  0  0  0  0  0
  -31.2184  -20.4687   20.7464 H   0  0  0  0  0  0
  -27.2204  -19.6583   20.2564 H   0  0  0  0  0  0
  -28.2735  -19.4559   18.9216 H   0  0  0  0  0  0
  -27.9076  -17.2092   19.7635 H   0  0  0  0  0  0
  -29.1415  -18.9483   22.9800 H   0  0  0  0  0  0
  -29.7225  -17.2885   23.0970 H   0  0  0  0  0  0
  -28.2960  -17.7830   23.9842 H   0  0  0  0  0  0
  -27.6804  -16.4529   21.9554 H   0  0  0  0  0  0
  -26.9811  -18.0334   21.9325 H   0  0  0  0  0  0
  -29.9967  -22.6390   20.1122 H   0  0  0  0  0  0
  -28.8673  -22.2580   18.8830 H   0  0  0  0  0  0
  -28.0636  -23.8616   21.5298 H   0  0  0  0  0  0
  -27.0275  -23.7342   20.1769 H   0  0  0  0  0  0
  -29.0039  -20.6929   21.4836 H   0  0  0  0  0  0
  1 25  1  0  0  0
  1 30  2  0  0  0
  1 79  1  0  0  0
  2  3  1  0  0  0
  2 25  1  0  0  0
  2 81  1  0  0  0
  2 82  1  0  0  0
  3  4  1  0  0  0
  3 83  1  0  0  0
  3 84  1  0  0  0
  4  5  1  0  0  0
  4 85  1  0  0  0
  4 86  1  0  0  0
  5  6  1  0  0  0
  5 26  1  0  0  0
  5 87  1  0  0  0
  6 25  1  0  0  0
  6 88  1  0  0  0
  6 89  1  0  0  0
  7  8  2  0  0  0
  7 26  1  0  0  0
  7 29  1  0  0  0
  8  9  1  0  0  0
  8 22  1  0  0  0
  9 10  1  0  0  0
  9 27  2  0  0  0
 10 11  2  0  0  0
 10 15  1  0  0  0
 11 12  1  0  0  0
 11 90  1  0  0  0
 12 13  2  0  0  0
 12 91  1  0  0  0
 13 14  1  0  0  0
 13 31  1  0  0  0
 14 15  2  0  0  0
 14 92  1  0  0  0
 15 93  1  0  0  0
 16 17  2  0  0  0
 16 21  1  0  0  0
 16 31  1  0  0  0
 17 18  1  0  0  0
 17 94  1  0  0  0
 18 19  2  0  0  0
 18 95  1  0  0  0
 19 20  1  0  0  0
 19 24  1  0  0  0
 20 21  2  0  0  0
 20 96  1  0  0  0
 21 23  1  0  0  0
 22 28  1  0  0  0
 22 32  2  0  0  0
 26 27  1  0  0  0
 28 97  1  0  0  0
 28 98  1  0  0  0
 29 99  1  0  0  0
 29100  1  0  0  0
 33 34  1  0  0  0
 33 66  1  0  0  0
 33 70  2  0  0  0
 34 36  1  0  0  0
 34 59  1  0  0  0
 34101  1  0  0  0
 35 44  2  0  0  0
 35 45  1  0  0  0
 35 68  1  0  0  0
 36 56  1  0  0  0
 36102  1  0  0  0
 37 39  1  0  0  0
 37 47  1  0  0  0
 37 66  1  0  0  0
 37103  1  0  0  0
 38 43  2  0  0  0
 38 46  1  0  0  0
 38 47  1  0  0  0
 39 64  1  0  0  0
 39 67  2  0  0  0
 40 52  1  0  0  0
 40 53  2  0  0  0
 40 58  1  0  0  0
 41104  1  0  0  0
 41105  1  0  0  0
 41106  1  0  0  0
 41 48  1  0  0  0
 42 43  1  0  0  0
 42 66  1  0  0  0
 42107  1  0  0  0
 42108  1  0  0  0
 43 44  1  0  0  0
 44109  1  0  0  0
 45 46  2  0  0  0
 45110  1  0  0  0
 46111  1  0  0  0
 47112  1  0  0  0
 47113  1  0  0  0
 48 56  1  0  0  0
 48 65  1  0  0  0
 48114  1  0  0  0
 49 50  1  0  0  0
 49 53  1  0  0  0
 49 64  1  0  0  0
 49115  1  0  0  0
 50 51  1  0  0  0
 50116  1  0  0  0
 50117  1  0  0  0
 51 52  1  0  0  0
 51118  1  0  0  0
 51119  1  0  0  0
 52120  1  0  0  0
 52121  1  0  0  0
 53 54  1  0  0  0
 54 55  2  0  0  0
 54122  1  0  0  0
 55 57  1  0  0  0
 55123  1  0  0  0
 56 69  2  0  0  0
 57 58  2  0  0  0
 57124  1  0  0  0
 58125  1  0  0  0
 59 60  1  0  0  0
 59 61  1  0  0  0
 59 62  1  0  0  0
 60126  1  0  0  0
 60127  1  0  0  0
 60128  1  0  0  0
 61129  1  0  0  0
 61130  1  0  0  0
 61131  1  0  0  0
 62132  1  0  0  0
 62133  1  0  0  0
 62134  1  0  0  0
 63 65  1  0  0  0
 63135  1  0  0  0
 63136  1  0  0  0
 63137  1  0  0  0
 64138  1  0  0  0
 65139  1  0  0  0
 68 78  1  0  0  0
 71 72  1  0  0  0
 71 79  1  0  0  0
 71140  1  0  0  0
 71141  1  0  0  0
 72 80  1  0  0  0
 72142  1  0  0  0
 72143  1  0  0  0
 73 74  1  0  0  0
 73 80  1  0  0  0
 73144  1  0  0  0
 73145  1  0  0  0
 74 76  1  0  0  0
 74 79  1  0  0  0
 74146  1  0  0  0
 75 76  1  0  0  0
 75147  1  0  0  0
 75148  1  0  0  0
 75149  1  0  0  0
 76150  1  0  0  0
 76151  1  0  0  0
 77 78  1  0  0  0
 77152  1  0  0  0
 77153  1  0  0  0
 77 80  1  0  0  0
 78154  1  0  0  0
 78155  1  0  0  0
 80156  1  0  0  0
M  CHG  1  80   1
M  ISO  4   1 100  68 101  78 101  79 100
M  END
> <chiral flag>
0

> <version>
0

> <s_m_source_file>
/data/baiqing/PycharmProjects/Reinvent-master-3.2/result/LINK_invent/BTK/process_docking_weight1_custom_sum_contain_oxygen_bond_distance_aromatic_linkinvent_7_9_3/rearranged_h_0009.sdf

> <i_m_source_file_index>
85

> <r_mmod_Potential_Energy-OPLS-2005>
2139.46240234375

> <r_mmod_Stretch_Energy-OPLS-2005>
826.952941894531

> <r_mmod_Bend_Energy-OPLS-2005>
706.861328125

> <r_mmod_Torsional_Energy-OPLS-2005>
394.752166748047

> <r_mmod_Improper_Torsional_Energy-OPLS-2005>
5.49892091751099

> <r_mmod_Van_der_Waal_Energy-OPLS-2005>
108.924827575684

> <r_mmod_Electrostatic_Energy-OPLS-2005>
-180.258438110352

> <r_mmod_Solvation_Energy-OPLS-2005>
-430.904144287109

> <b_mmod_Minimization_Converged-OPLS-2005>
0

> <r_mmod_RMS_Derivative-OPLS-2005>
2.35389304161072

$$$$
87
                    3D
 Structure written by MMmdl.
162170  0  0  1  0            999 V2000
  -30.6091  -14.6431   20.4806 C   0  0  0  0  0  0
  -30.4402  -12.3916   19.4445 C   0  0  0  0  0  0
  -29.5078  -12.5119   18.2180 C   0  0  0  0  0  0
  -28.0296  -12.3485   18.6278 C   0  0  0  0  0  0
  -27.6520  -13.2129   19.8605 C   0  0  2  0  0  0
  -28.6992  -13.0682   20.9879 C   0  0  0  0  0  0
  -25.2568  -13.8144   20.5704 C   0  0  0  0  0  0
  -24.1829  -13.0413   20.9177 C   0  0  0  0  0  0
  -24.6394  -11.6884   20.8714 C   0  0  0  0  0  0
  -23.9057  -10.4276   21.0382 C   0  0  0  0  0  0
  -24.3613   -9.4201   21.9168 C   0  0  0  0  0  0
  -23.6289   -8.2240   22.0751 C   0  0  0  0  0  0
  -22.4274   -8.0271   21.3542 C   0  0  0  0  0  0
  -21.9902   -9.0237   20.4641 C   0  0  0  0  0  0
  -22.7226  -10.2115   20.3042 C   0  0  0  0  0  0
  -21.6858   -6.0727   22.5275 C   0  0  0  0  0  0
  -21.4013   -6.5634   23.8206 C   0  0  0  0  0  0
  -21.3668   -5.6793   24.9173 C   0  0  0  0  0  0
  -21.6049   -4.3055   24.7226 C   0  0  0  0  0  0
  -21.8819   -3.8140   23.4348 C   0  0  0  0  0  0
  -21.9192   -4.6954   22.3402 C   0  0  0  0  0  0
  -22.7856  -13.5218   21.1850 C   0  0  0  0  0  0
  -22.1662   -4.2139   21.0982 F   0  0  0  0  0  0
  -21.5635   -3.4546   25.7743 F   0  0  0  0  0  0
  -30.0133  -13.4111   20.4206 N   0  0  0  0  0  0
  -26.2986  -12.9319   20.3301 N   0  0  0  0  0  0
  -25.9320  -11.6477   20.5726 N   0  0  0  0  0  0
  -22.0504  -12.8207   22.0407 N   0  0  0  0  0  0
  -25.4266  -15.1869   20.4189 N   0  0  0  0  0  0
  -31.7857  -14.8121   20.1477 O   0  0  0  0  0  0
  -21.6646   -6.8864   21.4232 O   0  0  0  0  0  0
  -22.3543  -14.5527   20.6705 O   0  0  0  0  0  0
  -24.6246  -31.8601   23.2036 C   0  0  0  0  0  0
  -25.9103  -32.4779   23.8359 C   0  0  1  0  0  0
  -27.2248  -27.3296   20.1216 C   0  0  0  0  0  0
  -25.5928  -33.8580   24.2284 N   0  0  0  0  0  0
  -23.4172  -30.4827   21.5472 C   0  0  2  0  0  0
  -24.8628  -28.9345   20.1168 C   0  0  0  0  0  0
  -22.7461  -29.4629   22.4971 C   0  0  0  0  0  0
  -18.0277  -28.1381   22.8495 C   0  0  0  0  0  0
  -24.1481  -36.7288   23.2642 C   0  0  0  0  0  0
  -25.9562  -30.7948   21.3714 C   0  0  0  0  0  0
  -26.0315  -29.4216   20.7160 C   0  0  0  0  0  0
  -27.2176  -28.6317   20.7057 C   0  0  0  0  0  0
  -26.0364  -26.8893   19.4996 C   0  0  0  0  0  0
  -24.8649  -27.6718   19.5025 C   0  0  0  0  0  0
  -23.6298  -29.8133   20.1638 C   0  0  0  0  0  0
  -25.4107  -36.3082   24.0334 C   0  0  1  0  0  0
  -20.5877  -28.3680   23.1300 C   0  0  2  0  0  0
  -20.6770  -26.9408   22.5417 C   0  0  0  0  0  0
  -19.5744  -26.6381   21.5218 C   0  0  0  0  0  0
  -18.1922  -26.7928   22.1625 C   0  0  0  0  0  0
  -19.1530  -28.8849   23.2890 C   0  0  0  0  0  0
  -18.9458  -30.1457   23.8898 C   0  0  0  0  0  0
  -17.6456  -30.6591   24.0562 C   0  0  0  0  0  0
  -25.9052  -34.9453   23.5109 C   0  0  0  0  0  0
  -16.5347  -29.9087   23.6339 C   0  0  0  0  0  0
  -16.7262  -28.6501   23.0366 C   0  0  0  0  0  0
  -26.4487  -31.6595   25.0733 C   0  0  0  0  0  0
  -25.3719  -31.3724   26.1460 C   0  0  0  0  0  0
  -27.0347  -30.3028   24.6185 C   0  0  0  0  0  0
  -27.6045  -32.4335   25.7504 C   0  0  0  0  0  0
  -27.5578  -37.1799   24.8466 C   0  0  0  0  0  0
  -21.4180  -29.3036   22.3704 N   0  0  0  0  0  0
  -26.4284  -37.3782   23.9414 N   0  0  0  0  0  0
  -24.6850  -31.0616   22.0983 N   0  0  0  0  0  0
  -23.4193  -28.8178   23.3055 O   0  0  0  0  0  0
  -28.3506  -26.4987   20.1254 O   0  0  0  0  0  0
  -26.5621  -34.8920   22.4678 O   0  0  0  0  0  0
  -23.5414  -32.1402   23.7377 O   0  0  0  0  0  0
  -30.8882  -17.9383   21.0003 C   0  0  0  0  0  0
  -28.7752  -19.2016   19.6725 C   0  0  0  0  0  0
  -30.8789  -19.3597   20.8426 C   0  0  0  0  0  0
  -29.8489  -17.1183   20.4969 C   0  0  0  0  0  0
  -29.8178  -20.0320   20.1542 C   0  0  0  0  0  0
  -28.7780  -17.7752   19.8315 C   0  0  0  0  0  0
  -32.0394  -20.1359   21.4438 C   0  0  0  0  0  0
  -31.0046  -21.8553   19.0506 C   0  0  0  0  0  0
  -26.8449  -17.5272   18.4278 C   0  0  0  0  0  0
  -29.0559  -23.9636   19.8952 C   0  0  0  0  0  0
  -29.0059  -22.4825   20.5051 C   0  0  0  0  0  0
  -28.1815  -25.1001   20.5799 C   0  0  0  0  0  0
  -29.7543  -15.6812   20.7288 N   0  0  0  0  0  0
  -29.8365  -21.4357   19.8235 N   0  0  0  0  0  0
  -27.7734  -16.9612   19.3461 O   0  0  0  0  0  0
  -31.4812  -12.5231   19.1436 H   0  0  0  0  0  0
  -30.3762  -11.3938   19.8823 H   0  0  0  0  0  0
  -29.7739  -11.7679   17.4663 H   0  0  0  0  0  0
  -29.6488  -13.4851   17.7445 H   0  0  0  0  0  0
  -27.8617  -11.2934   18.8480 H   0  0  0  0  0  0
  -27.3784  -12.5903   17.7870 H   0  0  0  0  0  0
  -27.6647  -14.2477   19.5190 H   0  0  0  0  0  0
  -28.7111  -12.0474   21.3727 H   0  0  0  0  0  0
  -28.4486  -13.7041   21.8382 H   0  0  0  0  0  0
  -25.2755   -9.5695   22.4744 H   0  0  0  0  0  0
  -24.0003   -7.4641   22.7477 H   0  0  0  0  0  0
  -21.0834   -8.8737   19.8953 H   0  0  0  0  0  0
  -22.3666  -10.9647   19.6156 H   0  0  0  0  0  0
  -21.2001   -7.6138   23.9706 H   0  0  0  0  0  0
  -21.1499   -6.0525   25.9076 H   0  0  0  0  0  0
  -22.0593   -2.7603   23.2854 H   0  0  0  0  0  0
  -22.4126  -11.9869   22.4787 H   0  0  0  0  0  0
  -21.1113  -13.1218   22.2607 H   0  0  0  0  0  0
  -24.6559  -15.8336   20.5451 H   0  0  0  0  0  0
  -26.2755  -15.6404   20.1004 H   0  0  0  0  0  0
  -26.7172  -32.5446   23.1110 H   0  0  0  0  0  0
  -25.0064  -33.9724   25.0421 H   0  0  0  0  0  0
  -22.7108  -31.3031   21.4033 H   0  0  0  0  0  0
  -23.3755  -35.9611   23.3293 H   0  0  0  0  0  0
  -24.3575  -36.8918   22.2059 H   0  0  0  0  0  0
  -23.7220  -37.6480   23.6670 H   0  0  0  0  0  0
  -26.0838  -31.5584   20.6025 H   0  0  0  0  0  0
  -26.8379  -30.8453   21.9986 H   0  0  0  0  0  0
  -28.1179  -29.0045   21.1738 H   0  0  0  0  0  0
  -26.0025  -25.9254   19.0111 H   0  0  0  0  0  0
  -23.9672  -27.2922   19.0338 H   0  0  0  0  0  0
  -23.7473  -30.5869   19.4045 H   0  0  0  0  0  0
  -22.7495  -29.2405   19.8643 H   0  0  0  0  0  0
  -25.1288  -36.1934   25.0828 H   0  0  0  0  0  0
  -20.9952  -28.3237   24.1425 H   0  0  0  0  0  0
  -20.5669  -26.2285   23.3614 H   0  0  0  0  0  0
  -21.6639  -26.7451   22.1201 H   0  0  0  0  0  0
  -19.6906  -25.6291   21.1248 H   0  0  0  0  0  0
  -19.6681  -27.3192   20.6749 H   0  0  0  0  0  0
  -17.4196  -26.6690   21.4022 H   0  0  0  0  0  0
  -18.0311  -26.0062   22.9007 H   0  0  0  0  0  0
  -19.7932  -30.7277   24.2261 H   0  0  0  0  0  0
  -17.5011  -31.6277   24.5156 H   0  0  0  0  0  0
  -15.5352  -30.2989   23.7672 H   0  0  0  0  0  0
  -15.8656  -28.0817   22.7099 H   0  0  0  0  0  0
  -24.5906  -30.7060   25.7788 H   0  0  0  0  0  0
  -24.8903  -32.2886   26.4882 H   0  0  0  0  0  0
  -25.8046  -30.8908   27.0236 H   0  0  0  0  0  0
  -26.2934  -29.6768   24.1205 H   0  0  0  0  0  0
  -27.4051  -29.7291   25.4692 H   0  0  0  0  0  0
  -27.8789  -30.4329   23.9411 H   0  0  0  0  0  0
  -27.2655  -33.3640   26.2065 H   0  0  0  0  0  0
  -28.3863  -32.6884   25.0339 H   0  0  0  0  0  0
  -28.0700  -31.8471   26.5431 H   0  0  0  0  0  0
  -28.2586  -38.0105   24.7537 H   0  0  0  0  0  0
  -28.1083  -36.2644   24.6263 H   0  0  0  0  0  0
  -27.2300  -37.1405   25.8869 H   0  0  0  0  0  0
  -20.9364  -29.8744   21.6897 H   0  0  0  0  0  0
  -26.0164  -38.2852   24.1437 H   0  0  0  0  0  0
  -31.7007  -17.4724   21.5394 H   0  0  0  0  0  0
  -27.9746  -19.6893   19.1377 H   0  0  0  0  0  0
  -32.4749  -19.5974   22.2861 H   0  0  0  0  0  0
  -31.7192  -21.1103   21.8134 H   0  0  0  0  0  0
  -32.8227  -20.2848   20.7002 H   0  0  0  0  0  0
  -31.5422  -21.0065   18.6246 H   0  0  0  0  0  0
  -31.7011  -22.4227   19.6689 H   0  0  0  0  0  0
  -30.7049  -22.4914   18.2161 H   0  0  0  0  0  0
  -26.2086  -16.7402   18.0230 H   0  0  0  0  0  0
  -27.3483  -18.0028   17.5845 H   0  0  0  0  0  0
  -26.1975  -18.2561   18.9169 H   0  0  0  0  0  0
  -28.7729  -23.9177   18.8435 H   0  0  0  0  0  0
  -30.0897  -24.3072   19.9099 H   0  0  0  0  0  0
  -27.9698  -22.1407   20.5072 H   0  0  0  0  0  0
  -29.3077  -22.5223   21.5532 H   0  0  0  0  0  0
  -28.4225  -25.1052   21.6433 H   0  0  0  0  0  0
  -27.1396  -24.7844   20.5408 H   0  0  0  0  0  0
  -28.8074  -15.3596   20.8547 H   0  0  0  0  0  0
  1 25  1  0  0  0
  1 30  2  0  0  0
  1 83  1  0  0  0
  2  3  1  0  0  0
  2 25  1  0  0  0
  2 86  1  0  0  0
  2 87  1  0  0  0
  3  4  1  0  0  0
  3 88  1  0  0  0
  3 89  1  0  0  0
  4  5  1  0  0  0
  4 90  1  0  0  0
  4 91  1  0  0  0
  5  6  1  0  0  0
  5 26  1  0  0  0
  5 92  1  0  0  0
  6 25  1  0  0  0
  6 93  1  0  0  0
  6 94  1  0  0  0
  7  8  2  0  0  0
  7 26  1  0  0  0
  7 29  1  0  0  0
  8  9  1  0  0  0
  8 22  1  0  0  0
  9 10  1  0  0  0
  9 27  2  0  0  0
 10 11  2  0  0  0
 10 15  1  0  0  0
 11 12  1  0  0  0
 11 95  1  0  0  0
 12 13  2  0  0  0
 12 96  1  0  0  0
 13 14  1  0  0  0
 13 31  1  0  0  0
 14 15  2  0  0  0
 14 97  1  0  0  0
 15 98  1  0  0  0
 16 17  2  0  0  0
 16 21  1  0  0  0
 16 31  1  0  0  0
 17 18  1  0  0  0
 17 99  1  0  0  0
 18 19  2  0  0  0
 18100  1  0  0  0
 19 20  1  0  0  0
 19 24  1  0  0  0
 20 21  2  0  0  0
 20101  1  0  0  0
 21 23  1  0  0  0
 22 28  1  0  0  0
 22 32  2  0  0  0
 26 27  1  0  0  0
 28102  1  0  0  0
 28103  1  0  0  0
 29104  1  0  0  0
 29105  1  0  0  0
 33 34  1  0  0  0
 33 66  1  0  0  0
 33 70  2  0  0  0
 34 36  1  0  0  0
 34 59  1  0  0  0
 34106  1  0  0  0
 35 44  2  0  0  0
 35 45  1  0  0  0
 35 68  1  0  0  0
 36 56  1  0  0  0
 36107  1  0  0  0
 37 39  1  0  0  0
 37 47  1  0  0  0
 37 66  1  0  0  0
 37108  1  0  0  0
 38 43  2  0  0  0
 38 46  1  0  0  0
 38 47  1  0  0  0
 39 64  1  0  0  0
 39 67  2  0  0  0
 40 52  1  0  0  0
 40 53  2  0  0  0
 40 58  1  0  0  0
 41109  1  0  0  0
 41110  1  0  0  0
 41111  1  0  0  0
 41 48  1  0  0  0
 42 43  1  0  0  0
 42 66  1  0  0  0
 42112  1  0  0  0
 42113  1  0  0  0
 43 44  1  0  0  0
 44114  1  0  0  0
 45 46  2  0  0  0
 45115  1  0  0  0
 46116  1  0  0  0
 47117  1  0  0  0
 47118  1  0  0  0
 48 56  1  0  0  0
 48 65  1  0  0  0
 48119  1  0  0  0
 49 50  1  0  0  0
 49 53  1  0  0  0
 49 64  1  0  0  0
 49120  1  0  0  0
 50 51  1  0  0  0
 50121  1  0  0  0
 50122  1  0  0  0
 51 52  1  0  0  0
 51123  1  0  0  0
 51124  1  0  0  0
 52125  1  0  0  0
 52126  1  0  0  0
 53 54  1  0  0  0
 54 55  2  0  0  0
 54127  1  0  0  0
 55 57  1  0  0  0
 55128  1  0  0  0
 56 69  2  0  0  0
 57 58  2  0  0  0
 57129  1  0  0  0
 58130  1  0  0  0
 59 60  1  0  0  0
 59 61  1  0  0  0
 59 62  1  0  0  0
 60131  1  0  0  0
 60132  1  0  0  0
 60133  1  0  0  0
 61134  1  0  0  0
 61135  1  0  0  0
 61136  1  0  0  0
 62137  1  0  0  0
 62138  1  0  0  0
 62139  1  0  0  0
 63 65  1  0  0  0
 63140  1  0  0  0
 63141  1  0  0  0
 63142  1  0  0  0
 64143  1  0  0  0
 65144  1  0  0  0
 68 82  1  0  0  0
 71 73  2  0  0  0
 71 74  1  0  0  0
 71145  1  0  0  0
 72 75  2  0  0  0
 72 76  1  0  0  0
 72146  1  0  0  0
 73 75  1  0  0  0
 73 77  1  0  0  0
 74 76  2  0  0  0
 74 83  1  0  0  0
 75 84  1  0  0  0
 76 85  1  0  0  0
 77147  1  0  0  0
 77148  1  0  0  0
 77149  1  0  0  0
 78 84  1  0  0  0
 78150  1  0  0  0
 78151  1  0  0  0
 78152  1  0  0  0
 79 85  1  0  0  0
 79153  1  0  0  0
 79154  1  0  0  0
 79155  1  0  0  0
 80 81  1  0  0  0
 80 82  1  0  0  0
 80156  1  0  0  0
 80157  1  0  0  0
 81 84  1  0  0  0
 81158  1  0  0  0
 81159  1  0  0  0
 82160  1  0  0  0
 82161  1  0  0  0
 83162  1  0  0  0
M  ISO  4   1 100  68 101  82 101  83 100
M  END
> <chiral flag>
0

> <version>
0

> <s_m_source_file>
/data/baiqing/PycharmProjects/Reinvent-master-3.2/result/LINK_invent/BTK/process_docking_weight1_custom_sum_contain_oxygen_bond_distance_aromatic_linkinvent_7_9_3/rearranged_h_0009.sdf

> <i_m_source_file_index>
86

> <r_mmod_Potential_Energy-OPLS-2005>
44.2297325134277

> <r_mmod_Stretch_Energy-OPLS-2005>
78.0699844360352

> <r_mmod_Bend_Energy-OPLS-2005>
144.407608032227

> <r_mmod_Torsional_Energy-OPLS-2005>
269.208740234375

> <r_mmod_Improper_Torsional_Energy-OPLS-2005>
7.14044523239136

> <r_mmod_Van_der_Waal_Energy-OPLS-2005>
145.538055419922

> <r_mmod_Electrostatic_Energy-OPLS-2005>
-436.815826416016

> <r_mmod_Solvation_Energy-OPLS-2005>
-209.861053466797

> <b_mmod_Minimization_Converged-OPLS-2005>
0

> <r_mmod_RMS_Derivative-OPLS-2005>
1.31099355220795

$$$$
88
                    3D
 Structure written by MMmdl.
166174  0  0  1  0            999 V2000
  -30.5105  -14.8981   20.4649 C   0  0  0  0  0  0
  -30.4476  -12.5561   19.5041 C   0  0  0  0  0  0
  -29.5282  -12.5448   18.2587 C   0  0  0  0  0  0
  -28.0552  -12.3365   18.6645 C   0  0  0  0  0  0
  -27.6398  -13.2395   19.8550 C   0  0  2  0  0  0
  -28.6761  -13.1959   20.9983 C   0  0  0  0  0  0
  -25.2497  -13.8189   20.5702 C   0  0  0  0  0  0
  -24.1789  -13.0431   20.9214 C   0  0  0  0  0  0
  -24.6387  -11.6907   20.8740 C   0  0  0  0  0  0
  -23.9065  -10.4287   21.0382 C   0  0  0  0  0  0
  -24.3616   -9.4209   21.9167 C   0  0  0  0  0  0
  -23.6300   -8.2241   22.0732 C   0  0  0  0  0  0
  -22.4284   -8.0275   21.3524 C   0  0  0  0  0  0
  -21.9917   -9.0248   20.4634 C   0  0  0  0  0  0
  -22.7230  -10.2133   20.3037 C   0  0  0  0  0  0
  -21.6856   -6.0735   22.5274 C   0  0  0  0  0  0
  -21.4014   -6.5639   23.8212 C   0  0  0  0  0  0
  -21.3669   -5.6780   24.9170 C   0  0  0  0  0  0
  -21.6056   -4.3043   24.7219 C   0  0  0  0  0  0
  -21.8820   -3.8136   23.4337 C   0  0  0  0  0  0
  -21.9196   -4.6956   22.3390 C   0  0  0  0  0  0
  -22.7812  -13.5220   21.1883 C   0  0  0  0  0  0
  -22.1657   -4.2145   21.0964 F   0  0  0  0  0  0
  -21.5643   -3.4524   25.7728 F   0  0  0  0  0  0
  -29.9634  -13.6188   20.4271 N   0  0  0  0  0  0
  -26.2912  -12.9410   20.3262 N   0  0  0  0  0  0
  -25.9332  -11.6545   20.5734 N   0  0  0  0  0  0
  -22.0446  -12.8211   22.0441 N   0  0  0  0  0  0
  -25.4228  -15.1917   20.4141 N   0  0  0  0  0  0
  -31.6837  -15.0371   20.0982 O   0  0  0  0  0  0
  -21.6638   -6.8881   21.4239 O   0  0  0  0  0  0
  -22.3504  -14.5527   20.6722 O   0  0  0  0  0  0
  -24.6435  -31.8451   23.1890 C   0  0  0  0  0  0
  -25.9209  -32.4704   23.8278 C   0  0  1  0  0  0
  -27.2195  -27.1347   20.1500 C   0  0  0  0  0  0
  -25.5967  -33.8514   24.2199 N   0  0  0  0  0  0
  -23.4471  -30.4627   21.5354 C   0  0  2  0  0  0
  -24.8968  -28.8904   20.1080 C   0  0  0  0  0  0
  -22.7565  -29.4545   22.4876 C   0  0  0  0  0  0
  -18.0312  -28.1382   22.8486 C   0  0  0  0  0  0
  -24.1494  -36.7238   23.2644 C   0  0  0  0  0  0
  -26.0027  -30.7136   21.3940 C   0  0  0  0  0  0
  -26.0713  -29.3261   20.7331 C   0  0  0  0  0  0
  -27.2271  -28.4604   20.7447 C   0  0  0  0  0  0
  -26.0209  -26.8072   19.4743 C   0  0  0  0  0  0
  -24.8842  -27.6435   19.4666 C   0  0  0  0  0  0
  -23.6738  -29.7927   20.1535 C   0  0  0  0  0  0
  -25.4126  -36.3040   24.0333 C   0  0  1  0  0  0
  -20.5916  -28.3711   23.1249 C   0  0  2  0  0  0
  -20.6797  -26.9421   22.5405 C   0  0  0  0  0  0
  -19.5772  -26.6368   21.5216 C   0  0  0  0  0  0
  -18.1950  -26.7920   22.1620 C   0  0  0  0  0  0
  -19.1565  -28.8867   23.2854 C   0  0  0  0  0  0
  -18.9479  -30.1461   23.8880 C   0  0  0  0  0  0
  -17.6476  -30.6585   24.0549 C   0  0  0  0  0  0
  -25.9079  -34.9417   23.5069 C   0  0  0  0  0  0
  -16.5367  -29.9074   23.6331 C   0  0  0  0  0  0
  -16.7295  -28.6483   23.0375 C   0  0  0  0  0  0
  -26.4521  -31.6584   25.0729 C   0  0  0  0  0  0
  -25.3698  -31.3779   26.1421 C   0  0  0  0  0  0
  -27.0395  -30.2989   24.6312 C   0  0  0  0  0  0
  -27.6069  -32.4341   25.7504 C   0  0  0  0  0  0
  -27.5577  -37.1779   24.8467 C   0  0  0  0  0  0
  -21.4258  -29.3040   22.3626 N   0  0  0  0  0  0
  -26.4283  -37.3756   23.9416 N   0  0  0  0  0  0
  -24.7172  -31.0289   22.0941 N   0  0  0  0  0  0
  -23.4197  -28.8110   23.3047 O   0  0  0  0  0  0
  -28.2863  -26.1682   20.2670 O   0  0  0  0  0  0
  -26.5650  -34.8910   22.4639 O   0  0  0  0  0  0
  -23.5557  -32.1353   23.7104 O   0  0  0  0  0  0
  -29.0877  -18.0836   19.3962 C   0  0  0  0  0  0
  -29.7223  -19.9283   21.3677 C   0  0  0  0  0  0
  -28.8484  -19.5081   19.2080 C   0  0  0  0  0  0
  -29.6584  -17.4967   20.5653 C   0  0  0  0  0  0
  -29.2065  -20.5251   20.1674 C   0  0  0  0  0  0
  -29.9149  -18.4875   21.5808 C   0  0  0  0  0  0
  -27.6089  -19.4231   17.0144 C   0  0  0  0  0  0
  -27.0897  -20.3432   15.9180 C   0  0  0  0  0  0
  -31.6146  -22.4740   19.5310 C   0  0  0  0  0  0
  -30.4353  -18.8444   23.9045 C   0  0  0  0  0  0
  -30.2590  -22.2226   18.8547 C   0  0  0  0  0  0
  -28.7616  -23.2795   20.5859 C   0  0  0  0  0  0
  -28.2514  -24.6841   19.7901 C   0  0  0  0  0  0
  -28.2330  -20.0260   18.0355 N   0  0  0  0  0  0
  -29.6794  -15.9883   20.8011 N   0  0  0  0  0  0
  -29.1677  -21.9816   19.8119 N   0  0  0  0  0  0
  -27.4260  -18.2082   16.9100 O   0  0  0  0  0  0
  -30.3432  -17.9696   22.7860 O   0  0  0  0  0  0
  -31.4833  -12.7233   19.2059 H   0  0  0  0  0  0
  -30.4357  -11.5854   20.0021 H   0  0  0  0  0  0
  -29.8456  -11.7646   17.5653 H   0  0  0  0  0  0
  -29.6295  -13.4896   17.7220 H   0  0  0  0  0  0
  -27.9344  -11.2892   18.9374 H   0  0  0  0  0  0
  -27.3966  -12.5046   17.8111 H   0  0  0  0  0  0
  -27.6282  -14.2580   19.4660 H   0  0  0  0  0  0
  -28.7474  -12.1912   21.4196 H   0  0  0  0  0  0
  -28.3786  -13.8488   21.8195 H   0  0  0  0  0  0
  -25.2763   -9.5702   22.4739 H   0  0  0  0  0  0
  -24.0017   -7.4642   22.7452 H   0  0  0  0  0  0
  -21.0844   -8.8769   19.8954 H   0  0  0  0  0  0
  -22.3680  -10.9671   19.6139 H   0  0  0  0  0  0
  -21.1995   -7.6144   23.9720 H   0  0  0  0  0  0
  -21.1495   -6.0498   25.9081 H   0  0  0  0  0  0
  -22.0592   -2.7603   23.2818 H   0  0  0  0  0  0
  -22.4057  -11.9887   22.4871 H   0  0  0  0  0  0
  -21.1057  -13.1253   22.2604 H   0  0  0  0  0  0
  -24.6595  -15.8487   20.5356 H   0  0  0  0  0  0
  -26.2670  -15.6277   20.0658 H   0  0  0  0  0  0
  -26.7273  -32.5299   23.1006 H   0  0  0  0  0  0
  -25.0155  -33.9618   25.0375 H   0  0  0  0  0  0
  -22.7506  -31.2896   21.3817 H   0  0  0  0  0  0
  -23.3785  -35.9537   23.3288 H   0  0  0  0  0  0
  -24.3590  -36.8878   22.2057 H   0  0  0  0  0  0
  -23.7203  -37.6418   23.6680 H   0  0  0  0  0  0
  -26.1629  -31.4707   20.6250 H   0  0  0  0  0  0
  -26.8704  -30.7583   22.0396 H   0  0  0  0  0  0
  -28.1139  -28.7815   21.2726 H   0  0  0  0  0  0
  -25.9057  -25.8659   18.9638 H   0  0  0  0  0  0
  -23.9887  -27.3039   18.9646 H   0  0  0  0  0  0
  -23.8115  -30.5686   19.4002 H   0  0  0  0  0  0
  -22.7882  -29.2373   19.8410 H   0  0  0  0  0  0
  -25.1308  -36.1876   25.0826 H   0  0  0  0  0  0
  -20.9998  -28.3295   24.1376 H   0  0  0  0  0  0
  -20.5710  -26.2318   23.3621 H   0  0  0  0  0  0
  -21.6667  -26.7445   22.1200 H   0  0  0  0  0  0
  -19.6938  -25.6271   21.1271 H   0  0  0  0  0  0
  -19.6715  -27.3159   20.6731 H   0  0  0  0  0  0
  -17.4230  -26.6685   21.4012 H   0  0  0  0  0  0
  -18.0343  -26.0053   22.9005 H   0  0  0  0  0  0
  -19.7958  -30.7273   24.2248 H   0  0  0  0  0  0
  -17.5036  -31.6273   24.5139 H   0  0  0  0  0  0
  -15.5368  -30.2972   23.7659 H   0  0  0  0  0  0
  -15.8694  -28.0776   22.7127 H   0  0  0  0  0  0
  -24.5881  -30.7120   25.7735 H   0  0  0  0  0  0
  -24.8873  -32.2965   26.4781 H   0  0  0  0  0  0
  -25.7974  -30.8993   27.0239 H   0  0  0  0  0  0
  -26.3014  -29.6710   24.1302 H   0  0  0  0  0  0
  -27.4002  -29.7292   25.4882 H   0  0  0  0  0  0
  -27.8926  -30.4246   23.9642 H   0  0  0  0  0  0
  -27.2692  -33.3676   26.2018 H   0  0  0  0  0  0
  -28.3914  -32.6839   25.0346 H   0  0  0  0  0  0
  -28.0700  -31.8497   26.5467 H   0  0  0  0  0  0
  -28.2595  -38.0077   24.7540 H   0  0  0  0  0  0
  -28.1074  -36.2615   24.6270 H   0  0  0  0  0  0
  -27.2299  -37.1396   25.8869 H   0  0  0  0  0  0
  -20.9474  -29.8730   21.6779 H   0  0  0  0  0  0
  -26.0162  -38.2827   24.1423 H   0  0  0  0  0  0
  -28.7967  -17.3870   18.6278 H   0  0  0  0  0  0
  -29.9938  -20.6241   22.1454 H   0  0  0  0  0  0
  -26.8311  -21.3286   16.3069 H   0  0  0  0  0  0
  -26.1959  -19.9201   15.4595 H   0  0  0  0  0  0
  -27.8464  -20.4636   15.1427 H   0  0  0  0  0  0
  -32.3958  -22.5867   18.7773 H   0  0  0  0  0  0
  -31.9051  -21.6458   20.1773 H   0  0  0  0  0  0
  -31.6143  -23.3846   20.1302 H   0  0  0  0  0  0
  -30.7021  -18.2713   24.7931 H   0  0  0  0  0  0
  -29.4823  -19.3338   24.1102 H   0  0  0  0  0  0
  -31.2078  -19.5996   23.7579 H   0  0  0  0  0  0
  -30.3897  -21.3790   18.1740 H   0  0  0  0  0  0
  -30.0120  -23.0620   18.2068 H   0  0  0  0  0  0
  -27.9880  -23.0045   21.3044 H   0  0  0  0  0  0
  -29.6151  -23.5539   21.2047 H   0  0  0  0  0  0
  -27.2566  -24.4327   19.4395 H   0  0  0  0  0  0
  -28.8354  -24.7382   18.8738 H   0  0  0  0  0  0
  -28.2331  -21.0402   18.0217 H   0  0  0  0  0  0
  -28.8140  -15.6544   21.1967 H   0  0  0  0  0  0
  1 25  1  0  0  0
  1 30  2  0  0  0
  1 85  1  0  0  0
  2  3  1  0  0  0
  2 25  1  0  0  0
  2 89  1  0  0  0
  2 90  1  0  0  0
  3  4  1  0  0  0
  3 91  1  0  0  0
  3 92  1  0  0  0
  4  5  1  0  0  0
  4 93  1  0  0  0
  4 94  1  0  0  0
  5  6  1  0  0  0
  5 26  1  0  0  0
  5 95  1  0  0  0
  6 25  1  0  0  0
  6 96  1  0  0  0
  6 97  1  0  0  0
  7  8  2  0  0  0
  7 26  1  0  0  0
  7 29  1  0  0  0
  8  9  1  0  0  0
  8 22  1  0  0  0
  9 10  1  0  0  0
  9 27  2  0  0  0
 10 11  2  0  0  0
 10 15  1  0  0  0
 11 12  1  0  0  0
 11 98  1  0  0  0
 12 13  2  0  0  0
 12 99  1  0  0  0
 13 14  1  0  0  0
 13 31  1  0  0  0
 14 15  2  0  0  0
 14100  1  0  0  0
 15101  1  0  0  0
 16 17  2  0  0  0
 16 21  1  0  0  0
 16 31  1  0  0  0
 17 18  1  0  0  0
 17102  1  0  0  0
 18 19  2  0  0  0
 18103  1  0  0  0
 19 20  1  0  0  0
 19 24  1  0  0  0
 20 21  2  0  0  0
 20104  1  0  0  0
 21 23  1  0  0  0
 22 28  1  0  0  0
 22 32  2  0  0  0
 26 27  1  0  0  0
 28105  1  0  0  0
 28106  1  0  0  0
 29107  1  0  0  0
 29108  1  0  0  0
 33 34  1  0  0  0
 33 66  1  0  0  0
 33 70  2  0  0  0
 34 36  1  0  0  0
 34 59  1  0  0  0
 34109  1  0  0  0
 35 44  2  0  0  0
 35 45  1  0  0  0
 35 68  1  0  0  0
 36 56  1  0  0  0
 36110  1  0  0  0
 37 39  1  0  0  0
 37 47  1  0  0  0
 37 66  1  0  0  0
 37111  1  0  0  0
 38 43  2  0  0  0
 38 46  1  0  0  0
 38 47  1  0  0  0
 39 64  1  0  0  0
 39 67  2  0  0  0
 40 52  1  0  0  0
 40 53  2  0  0  0
 40 58  1  0  0  0
 41112  1  0  0  0
 41113  1  0  0  0
 41114  1  0  0  0
 41 48  1  0  0  0
 42 43  1  0  0  0
 42 66  1  0  0  0
 42115  1  0  0  0
 42116  1  0  0  0
 43 44  1  0  0  0
 44117  1  0  0  0
 45 46  2  0  0  0
 45118  1  0  0  0
 46119  1  0  0  0
 47120  1  0  0  0
 47121  1  0  0  0
 48 56  1  0  0  0
 48 65  1  0  0  0
 48122  1  0  0  0
 49 50  1  0  0  0
 49 53  1  0  0  0
 49 64  1  0  0  0
 49123  1  0  0  0
 50 51  1  0  0  0
 50124  1  0  0  0
 50125  1  0  0  0
 51 52  1  0  0  0
 51126  1  0  0  0
 51127  1  0  0  0
 52128  1  0  0  0
 52129  1  0  0  0
 53 54  1  0  0  0
 54 55  2  0  0  0
 54130  1  0  0  0
 55 57  1  0  0  0
 55131  1  0  0  0
 56 69  2  0  0  0
 57 58  2  0  0  0
 57132  1  0  0  0
 58133  1  0  0  0
 59 60  1  0  0  0
 59 61  1  0  0  0
 59 62  1  0  0  0
 60134  1  0  0  0
 60135  1  0  0  0
 60136  1  0  0  0
 61137  1  0  0  0
 61138  1  0  0  0
 61139  1  0  0  0
 62140  1  0  0  0
 62141  1  0  0  0
 62142  1  0  0  0
 63 65  1  0  0  0
 63143  1  0  0  0
 63144  1  0  0  0
 63145  1  0  0  0
 64146  1  0  0  0
 65147  1  0  0  0
 68 83  1  0  0  0
 71 73  2  0  0  0
 71 74  1  0  0  0
 71148  1  0  0  0
 72 75  2  0  0  0
 72 76  1  0  0  0
 72149  1  0  0  0
 73 75  1  0  0  0
 73 84  1  0  0  0
 74 76  2  0  0  0
 74 85  1  0  0  0
 75 86  1  0  0  0
 76 88  1  0  0  0
 77 78  1  0  0  0
 77 84  1  0  0  0
 77 87  2  0  0  0
 78150  1  0  0  0
 78151  1  0  0  0
 78152  1  0  0  0
 79 81  1  0  0  0
 79153  1  0  0  0
 79154  1  0  0  0
 79155  1  0  0  0
 80 88  1  0  0  0
 80156  1  0  0  0
 80157  1  0  0  0
 80158  1  0  0  0
 81 86  1  0  0  0
 81159  1  0  0  0
 81160  1  0  0  0
 82 83  1  0  0  0
 82 86  1  0  0  0
 82161  1  0  0  0
 82162  1  0  0  0
 83163  1  0  0  0
 83164  1  0  0  0
 84165  1  0  0  0
 85166  1  0  0  0
M  ISO  4   1 100  68 101  83 101  85 100
M  END
> <chiral flag>
0

> <version>
0

> <s_m_source_file>
/data/baiqing/PycharmProjects/Reinvent-master-3.2/result/LINK_invent/BTK/process_docking_weight1_custom_sum_contain_oxygen_bond_distance_aromatic_linkinvent_7_9_3/rearranged_h_0009.sdf

> <i_m_source_file_index>
87

> <r_mmod_Potential_Energy-OPLS-2005>
377.946533203125

> <r_mmod_Stretch_Energy-OPLS-2005>
229.549224853516

> <r_mmod_Bend_Energy-OPLS-2005>
285.967651367188

> <r_mmod_Torsional_Energy-OPLS-2005>
275.104187011719

> <r_mmod_Improper_Torsional_Energy-OPLS-2005>
8.36813068389893

> <r_mmod_Van_der_Waal_Energy-OPLS-2005>
150.333435058594

> <r_mmod_Electrostatic_Energy-OPLS-2005>
-506.873596191406

> <r_mmod_Solvation_Energy-OPLS-2005>
-239.117446899414

> <b_mmod_Minimization_Converged-OPLS-2005>
0

> <r_mmod_RMS_Derivative-OPLS-2005>
2.7011992931366

$$$$
89
                    3D
 Structure written by MMmdl.
155163  0  0  1  0            999 V2000
  -30.4828  -14.9408   20.4215 C   0  0  0  0  0  0
  -30.4529  -12.5802   19.4955 C   0  0  0  0  0  0
  -29.5265  -12.5390   18.2569 C   0  0  0  0  0  0
  -28.0602  -12.3148   18.6759 C   0  0  0  0  0  0
  -27.6369  -13.2358   19.8495 C   0  0  2  0  0  0
  -28.6789  -13.2241   20.9882 C   0  0  0  0  0  0
  -25.2489  -13.8185   20.5678 C   0  0  0  0  0  0
  -24.1802  -13.0434   20.9233 C   0  0  0  0  0  0
  -24.6390  -11.6913   20.8762 C   0  0  0  0  0  0
  -23.9062  -10.4299   21.0426 C   0  0  0  0  0  0
  -24.3618   -9.4207   21.9193 C   0  0  0  0  0  0
  -23.6298   -8.2236   22.0750 C   0  0  0  0  0  0
  -22.4278   -8.0283   21.3544 C   0  0  0  0  0  0
  -21.9919   -9.0254   20.4642 C   0  0  0  0  0  0
  -22.7239  -10.2142   20.3063 C   0  0  0  0  0  0
  -21.6845   -6.0735   22.5283 C   0  0  0  0  0  0
  -21.4007   -6.5637   23.8214 C   0  0  0  0  0  0
  -21.3663   -5.6780   24.9176 C   0  0  0  0  0  0
  -21.6046   -4.3035   24.7216 C   0  0  0  0  0  0
  -21.8821   -3.8143   23.4326 C   0  0  0  0  0  0
  -21.9195   -4.6970   22.3396 C   0  0  0  0  0  0
  -22.7833  -13.5229   21.1882 C   0  0  0  0  0  0
  -22.1666   -4.2157   21.0967 F   0  0  0  0  0  0
  -21.5633   -3.4516   25.7718 F   0  0  0  0  0  0
  -29.9584  -13.6512   20.4033 N   0  0  0  0  0  0
  -26.2912  -12.9391   20.3259 N   0  0  0  0  0  0
  -25.9319  -11.6536   20.5753 N   0  0  0  0  0  0
  -22.0458  -12.8235   22.0431 N   0  0  0  0  0  0
  -25.4114  -15.1909   20.4021 N   0  0  0  0  0  0
  -31.6692  -15.0880   20.1012 O   0  0  0  0  0  0
  -21.6637   -6.8884   21.4245 O   0  0  0  0  0  0
  -22.3537  -14.5530   20.6710 O   0  0  0  0  0  0
  -24.6448  -31.8447   23.1898 C   0  0  0  0  0  0
  -25.9221  -32.4700   23.8272 C   0  0  1  0  0  0
  -27.2044  -27.1444   20.1308 C   0  0  0  0  0  0
  -25.5987  -33.8502   24.2200 N   0  0  0  0  0  0
  -23.4442  -30.4704   21.5356 C   0  0  2  0  0  0
  -24.8890  -28.9039   20.1060 C   0  0  0  0  0  0
  -22.7567  -29.4566   22.4836 C   0  0  0  0  0  0
  -18.0314  -28.1412   22.8474 C   0  0  0  0  0  0
  -24.1471  -36.7232   23.2628 C   0  0  0  0  0  0
  -26.0018  -30.7229   21.3834 C   0  0  0  0  0  0
  -26.0709  -29.3369   20.7209 C   0  0  0  0  0  0
  -27.2320  -28.4743   20.7155 C   0  0  0  0  0  0
  -25.9949  -26.8203   19.4735 C   0  0  0  0  0  0
  -24.8640  -27.6605   19.4662 C   0  0  0  0  0  0
  -23.6667  -29.8058   20.1534 C   0  0  0  0  0  0
  -25.4098  -36.3018   24.0314 C   0  0  1  0  0  0
  -20.5932  -28.3721   23.1222 C   0  0  2  0  0  0
  -20.6787  -26.9424   22.5392 C   0  0  0  0  0  0
  -19.5766  -26.6393   21.5193 C   0  0  0  0  0  0
  -18.1949  -26.7953   22.1607 C   0  0  0  0  0  0
  -19.1574  -28.8884   23.2844 C   0  0  0  0  0  0
  -18.9490  -30.1486   23.8867 C   0  0  0  0  0  0
  -17.6486  -30.6603   24.0571 C   0  0  0  0  0  0
  -25.9075  -34.9409   23.5054 C   0  0  0  0  0  0
  -16.5372  -29.9102   23.6352 C   0  0  0  0  0  0
  -16.7303  -28.6524   23.0366 C   0  0  0  0  0  0
  -26.4546  -31.6574   25.0710 C   0  0  0  0  0  0
  -25.3751  -31.3777   26.1424 C   0  0  0  0  0  0
  -27.0380  -30.2967   24.6262 C   0  0  0  0  0  0
  -27.6062  -32.4353   25.7504 C   0  0  0  0  0  0
  -27.5578  -37.1739   24.8437 C   0  0  0  0  0  0
  -21.4257  -29.3054   22.3586 N   0  0  0  0  0  0
  -26.4238  -37.3765   23.9459 N   0  0  0  0  0  0
  -24.7173  -31.0331   22.0912 N   0  0  0  0  0  0
  -23.4216  -28.8099   23.2968 O   0  0  0  0  0  0
  -28.2383  -26.1390   20.1948 O   0  0  0  0  0  0
  -26.5628  -34.8911   22.4615 O   0  0  0  0  0  0
  -23.5577  -32.1294   23.7159 O   0  0  0  0  0  0
  -30.3988  -18.5402   20.0670 C   0  0  0  0  0  0
  -30.1079  -19.9753   19.9938 C   0  0  0  0  0  0
  -28.2278  -18.1671   20.9065 C   0  0  0  0  0  0
  -29.4668  -17.5447   20.5343 C   0  0  0  0  0  0
  -28.8526  -20.5763   20.3724 C   0  0  0  0  0  0
  -27.9197  -19.5895   20.8323 C   0  0  0  0  0  0
  -28.8606  -23.3503   20.2442 C   0  0  0  0  0  0
  -24.6444  -20.1569   22.4645 C   0  0  0  0  0  0
  -27.8460  -24.6402   20.0378 C   0  0  0  0  0  0
  -25.8178  -19.2968   21.9881 C   0  0  0  0  0  0
  -28.3645  -22.0247   20.2603 N   0  0  0  0  0  0
  -29.5876  -16.0154   20.6555 N   0  0  0  0  0  0
  -30.0687  -23.5654   20.3718 O   0  0  0  0  0  0
  -26.6820  -20.0960   21.1863 O   0  0  0  0  0  0
  -31.4826  -12.7653   19.1848 H   0  0  0  0  0  0
  -30.4641  -11.6156   20.0062 H   0  0  0  0  0  0
  -29.8481  -11.7555   17.5694 H   0  0  0  0  0  0
  -29.6066  -13.4777   17.7066 H   0  0  0  0  0  0
  -27.9665  -11.2731   18.9844 H   0  0  0  0  0  0
  -27.3924  -12.4455   17.8244 H   0  0  0  0  0  0
  -27.6117  -14.2437   19.4359 H   0  0  0  0  0  0
  -28.7647  -12.2328   21.4363 H   0  0  0  0  0  0
  -28.3757  -13.8954   21.7939 H   0  0  0  0  0  0
  -25.2762   -9.5685   22.4761 H   0  0  0  0  0  0
  -24.0010   -7.4624   22.7463 H   0  0  0  0  0  0
  -21.0848   -8.8774   19.8942 H   0  0  0  0  0  0
  -22.3698  -10.9682   19.6173 H   0  0  0  0  0  0
  -21.1986   -7.6143   23.9721 H   0  0  0  0  0  0
  -21.1484   -6.0498   25.9075 H   0  0  0  0  0  0
  -22.0591   -2.7605   23.2806 H   0  0  0  0  0  0
  -22.4045  -11.9890   22.4815 H   0  0  0  0  0  0
  -21.1078  -13.1281   22.2613 H   0  0  0  0  0  0
  -24.6040  -15.8034   20.4264 H   0  0  0  0  0  0
  -26.2081  -15.6092   19.9401 H   0  0  0  0  0  0
  -26.7279  -32.5287   23.0998 H   0  0  0  0  0  0
  -25.0194  -33.9616   25.0386 H   0  0  0  0  0  0
  -22.7484  -31.2998   21.3892 H   0  0  0  0  0  0
  -23.3773  -35.9514   23.3201 H   0  0  0  0  0  0
  -24.3594  -36.8958   22.2067 H   0  0  0  0  0  0
  -23.7160  -37.6375   23.6710 H   0  0  0  0  0  0
  -26.1587  -31.4811   20.6148 H   0  0  0  0  0  0
  -26.8729  -30.7688   22.0251 H   0  0  0  0  0  0
  -28.1347  -28.8062   21.2090 H   0  0  0  0  0  0
  -25.8709  -25.8781   18.9653 H   0  0  0  0  0  0
  -23.9632  -27.3264   18.9702 H   0  0  0  0  0  0
  -23.8009  -30.5832   19.4007 H   0  0  0  0  0  0
  -22.7783  -29.2513   19.8461 H   0  0  0  0  0  0
  -25.1279  -36.1805   25.0799 H   0  0  0  0  0  0
  -21.0051  -28.3312   24.1332 H   0  0  0  0  0  0
  -20.5650  -26.2343   23.3615 H   0  0  0  0  0  0
  -21.6655  -26.7423   22.1197 H   0  0  0  0  0  0
  -19.6911  -25.6293   21.1250 H   0  0  0  0  0  0
  -19.6719  -27.3179   20.6706 H   0  0  0  0  0  0
  -17.4218  -26.6718   21.4010 H   0  0  0  0  0  0
  -18.0362  -26.0106   22.9027 H   0  0  0  0  0  0
  -19.7966  -30.7323   24.2201 H   0  0  0  0  0  0
  -17.5046  -31.6274   24.5192 H   0  0  0  0  0  0
  -15.5372  -30.2997   23.7692 H   0  0  0  0  0  0
  -15.8712  -28.0844   22.7077 H   0  0  0  0  0  0
  -24.5942  -30.7093   25.7791 H   0  0  0  0  0  0
  -24.8921  -32.2962   26.4766 H   0  0  0  0  0  0
  -25.8077  -30.9045   27.0251 H   0  0  0  0  0  0
  -26.2967  -29.6725   24.1255 H   0  0  0  0  0  0
  -27.3989  -29.7242   25.4817 H   0  0  0  0  0  0
  -27.8901  -30.4207   23.9570 H   0  0  0  0  0  0
  -27.2637  -33.3698   26.1964 H   0  0  0  0  0  0
  -28.3942  -32.6848   25.0386 H   0  0  0  0  0  0
  -28.0635  -31.8546   26.5527 H   0  0  0  0  0  0
  -28.2475  -38.0158   24.7676 H   0  0  0  0  0  0
  -28.1203  -36.2709   24.6010 H   0  0  0  0  0  0
  -27.2350  -37.1081   25.8845 H   0  0  0  0  0  0
  -20.9439  -29.8796   21.6813 H   0  0  0  0  0  0
  -26.0083  -38.2787   24.1625 H   0  0  0  0  0  0
  -31.3717  -18.2088   19.7346 H   0  0  0  0  0  0
  -30.8771  -20.6246   19.6007 H   0  0  0  0  0  0
  -27.4568  -17.4986   21.2549 H   0  0  0  0  0  0
  -24.0241  -19.6046   23.1715 H   0  0  0  0  0  0
  -24.0077  -20.4538   21.6303 H   0  0  0  0  0  0
  -24.9920  -21.0581   22.9707 H   0  0  0  0  0  0
  -26.9912  -24.4604   20.6920 H   0  0  0  0  0  0
  -27.4826  -24.5080   19.0193 H   0  0  0  0  0  0
  -25.4357  -18.4476   21.4189 H   0  0  0  0  0  0
  -26.3529  -18.9128   22.8581 H   0  0  0  0  0  0
  -27.3520  -22.0494   20.2557 H   0  0  0  0  0  0
  -28.7129  -15.6107   20.9536 H   0  0  0  0  0  0
  1 25  1  0  0  0
  1 30  2  0  0  0
  1 82  1  0  0  0
  2  3  1  0  0  0
  2 25  1  0  0  0
  2 85  1  0  0  0
  2 86  1  0  0  0
  3  4  1  0  0  0
  3 87  1  0  0  0
  3 88  1  0  0  0
  4  5  1  0  0  0
  4 89  1  0  0  0
  4 90  1  0  0  0
  5  6  1  0  0  0
  5 26  1  0  0  0
  5 91  1  0  0  0
  6 25  1  0  0  0
  6 92  1  0  0  0
  6 93  1  0  0  0
  7  8  2  0  0  0
  7 26  1  0  0  0
  7 29  1  0  0  0
  8  9  1  0  0  0
  8 22  1  0  0  0
  9 10  1  0  0  0
  9 27  2  0  0  0
 10 11  2  0  0  0
 10 15  1  0  0  0
 11 12  1  0  0  0
 11 94  1  0  0  0
 12 13  2  0  0  0
 12 95  1  0  0  0
 13 14  1  0  0  0
 13 31  1  0  0  0
 14 15  2  0  0  0
 14 96  1  0  0  0
 15 97  1  0  0  0
 16 17  2  0  0  0
 16 21  1  0  0  0
 16 31  1  0  0  0
 17 18  1  0  0  0
 17 98  1  0  0  0
 18 19  2  0  0  0
 18 99  1  0  0  0
 19 20  1  0  0  0
 19 24  1  0  0  0
 20 21  2  0  0  0
 20100  1  0  0  0
 21 23  1  0  0  0
 22 28  1  0  0  0
 22 32  2  0  0  0
 26 27  1  0  0  0
 28101  1  0  0  0
 28102  1  0  0  0
 29103  1  0  0  0
 29104  1  0  0  0
 33 34  1  0  0  0
 33 66  1  0  0  0
 33 70  2  0  0  0
 34 36  1  0  0  0
 34 59  1  0  0  0
 34105  1  0  0  0
 35 44  2  0  0  0
 35 45  1  0  0  0
 35 68  1  0  0  0
 36 56  1  0  0  0
 36106  1  0  0  0
 37 39  1  0  0  0
 37 47  1  0  0  0
 37 66  1  0  0  0
 37107  1  0  0  0
 38 43  2  0  0  0
 38 46  1  0  0  0
 38 47  1  0  0  0
 39 64  1  0  0  0
 39 67  2  0  0  0
 40 52  1  0  0  0
 40 53  2  0  0  0
 40 58  1  0  0  0
 41108  1  0  0  0
 41109  1  0  0  0
 41110  1  0  0  0
 41 48  1  0  0  0
 42 43  1  0  0  0
 42 66  1  0  0  0
 42111  1  0  0  0
 42112  1  0  0  0
 43 44  1  0  0  0
 44113  1  0  0  0
 45 46  2  0  0  0
 45114  1  0  0  0
 46115  1  0  0  0
 47116  1  0  0  0
 47117  1  0  0  0
 48 56  1  0  0  0
 48 65  1  0  0  0
 48118  1  0  0  0
 49 50  1  0  0  0
 49 53  1  0  0  0
 49 64  1  0  0  0
 49119  1  0  0  0
 50 51  1  0  0  0
 50120  1  0  0  0
 50121  1  0  0  0
 51 52  1  0  0  0
 51122  1  0  0  0
 51123  1  0  0  0
 52124  1  0  0  0
 52125  1  0  0  0
 53 54  1  0  0  0
 54 55  2  0  0  0
 54126  1  0  0  0
 55 57  1  0  0  0
 55127  1  0  0  0
 56 69  2  0  0  0
 57 58  2  0  0  0
 57128  1  0  0  0
 58129  1  0  0  0
 59 60  1  0  0  0
 59 61  1  0  0  0
 59 62  1  0  0  0
 60130  1  0  0  0
 60131  1  0  0  0
 60132  1  0  0  0
 61133  1  0  0  0
 61134  1  0  0  0
 61135  1  0  0  0
 62136  1  0  0  0
 62137  1  0  0  0
 62138  1  0  0  0
 63 65  1  0  0  0
 63139  1  0  0  0
 63140  1  0  0  0
 63141  1  0  0  0
 64142  1  0  0  0
 65143  1  0  0  0
 68 79  1  0  0  0
 71 72  2  0  0  0
 71 74  1  0  0  0
 71144  1  0  0  0
 72 75  1  0  0  0
 72145  1  0  0  0
 73 74  2  0  0  0
 73 76  1  0  0  0
 73146  1  0  0  0
 74 82  1  0  0  0
 75 76  2  0  0  0
 75 81  1  0  0  0
 76 84  1  0  0  0
 77 79  1  0  0  0
 77 81  1  0  0  0
 77 83  2  0  0  0
 78 80  1  0  0  0
 78147  1  0  0  0
 78148  1  0  0  0
 78149  1  0  0  0
 79150  1  0  0  0
 79151  1  0  0  0
 80 84  1  0  0  0
 80152  1  0  0  0
 80153  1  0  0  0
 81154  1  0  0  0
 82155  1  0  0  0
M  ISO  4   1 100  68 101  79 101  82 100
M  END
> <chiral flag>
0

> <version>
0

> <s_m_source_file>
/data/baiqing/PycharmProjects/Reinvent-master-3.2/result/LINK_invent/BTK/process_docking_weight1_custom_sum_contain_oxygen_bond_distance_aromatic_linkinvent_7_9_3/rearranged_h_0009.sdf

> <i_m_source_file_index>
88

> <r_mmod_Potential_Energy-OPLS-2005>
405.196472167969

> <r_mmod_Stretch_Energy-OPLS-2005>
220.458480834961

> <r_mmod_Bend_Energy-OPLS-2005>
281.765594482422

> <r_mmod_Torsional_Energy-OPLS-2005>
227.185638427734

> <r_mmod_Improper_Torsional_Energy-OPLS-2005>
5.04764842987061

> <r_mmod_Van_der_Waal_Energy-OPLS-2005>
135.11164855957

> <r_mmod_Electrostatic_Energy-OPLS-2005>
-410.828308105469

> <r_mmod_Solvation_Energy-OPLS-2005>
-245.933853149414

> <b_mmod_Minimization_Converged-OPLS-2005>
0

> <r_mmod_RMS_Derivative-OPLS-2005>
2.69007325172424

$$$$
90
                    3D
 Structure written by MMmdl.
151159  0  0  1  0            999 V2000
  -30.2738  -15.6396   20.3378 C   0  0  0  0  0  0
  -30.4273  -13.0799   19.5520 C   0  0  0  0  0  0
  -29.5542  -12.6639   18.3311 C   0  0  0  0  0  0
  -28.1255  -12.3035   18.7682 C   0  0  0  0  0  0
  -27.5965  -13.3069   19.8178 C   0  0  2  0  0  0
  -28.6102  -13.6257   20.9427 C   0  0  0  0  0  0
  -25.2309  -13.8285   20.5786 C   0  0  0  0  0  0
  -24.1704  -13.0435   20.9308 C   0  0  0  0  0  0
  -24.6401  -11.6947   20.8771 C   0  0  0  0  0  0
  -23.9103  -10.4294   21.0400 C   0  0  0  0  0  0
  -24.3637   -9.4209   21.9179 C   0  0  0  0  0  0
  -23.6308   -8.2247   22.0745 C   0  0  0  0  0  0
  -22.4289   -8.0285   21.3537 C   0  0  0  0  0  0
  -21.9931   -9.0261   20.4636 C   0  0  0  0  0  0
  -22.7272  -10.2135   20.3049 C   0  0  0  0  0  0
  -21.6857   -6.0741   22.5278 C   0  0  0  0  0  0
  -21.4017   -6.5639   23.8215 C   0  0  0  0  0  0
  -21.3663   -5.6791   24.9173 C   0  0  0  0  0  0
  -21.6046   -4.3054   24.7222 C   0  0  0  0  0  0
  -21.8822   -3.8150   23.4340 C   0  0  0  0  0  0
  -21.9192   -4.6966   22.3401 C   0  0  0  0  0  0
  -22.7717  -13.5162   21.1951 C   0  0  0  0  0  0
  -22.1660   -4.2152   21.0977 F   0  0  0  0  0  0
  -21.5631   -3.4537   25.7734 F   0  0  0  0  0  0
  -29.7877  -14.2563   20.3006 N   0  0  0  0  0  0
  -26.2757  -12.9612   20.3231 N   0  0  0  0  0  0
  -25.9345  -11.6685   20.5705 N   0  0  0  0  0  0
  -22.0378  -12.8134   22.0493 N   0  0  0  0  0  0
  -25.3895  -15.2017   20.4181 N   0  0  0  0  0  0
  -31.5041  -15.6133   20.1375 O   0  0  0  0  0  0
  -21.6646   -6.8883   21.4240 O   0  0  0  0  0  0
  -22.3391  -14.5470   20.6799 O   0  0  0  0  0  0
  -24.6854  -31.7984   23.1484 C   0  0  0  0  0  0
  -25.9427  -32.4457   23.8039 C   0  0  1  0  0  0
  -27.2287  -26.6780   20.2277 C   0  0  0  0  0  0
  -25.6001  -33.8280   24.1947 N   0  0  0  0  0  0
  -23.5127  -30.3981   21.5012 C   0  0  2  0  0  0
  -24.9697  -28.7281   20.1198 C   0  0  0  0  0  0
  -22.7773  -29.4315   22.4691 C   0  0  0  0  0  0
  -18.0342  -28.1435   22.8468 C   0  0  0  0  0  0
  -24.1473  -36.7138   23.2653 C   0  0  0  0  0  0
  -26.0921  -30.5206   21.4183 C   0  0  0  0  0  0
  -26.1545  -29.0801   20.7761 C   0  0  0  0  0  0
  -27.2628  -28.0813   20.8012 C   0  0  0  0  0  0
  -26.0167  -26.5423   19.5016 C   0  0  0  0  0  0
  -24.9402  -27.4846   19.4608 C   0  0  0  0  0  0
  -23.7685  -29.6888   20.1385 C   0  0  0  0  0  0
  -25.4127  -36.2888   24.0287 C   0  0  1  0  0  0
  -20.5983  -28.3796   23.1135 C   0  0  2  0  0  0
  -20.6802  -26.9451   22.5407 C   0  0  0  0  0  0
  -19.5772  -26.6382   21.5220 C   0  0  0  0  0  0
  -18.1961  -26.7968   22.1629 C   0  0  0  0  0  0
  -19.1614  -28.8940   23.2783 C   0  0  0  0  0  0
  -18.9520  -30.1522   23.8829 C   0  0  0  0  0  0
  -17.6512  -30.6616   24.0561 C   0  0  0  0  0  0
  -25.9116  -34.9281   23.4956 C   0  0  0  0  0  0
  -16.5398  -29.9102   23.6357 C   0  0  0  0  0  0
  -16.7326  -28.6524   23.0376 C   0  0  0  0  0  0
  -26.4595  -31.6502   25.0669 C   0  0  0  0  0  0
  -25.3656  -31.3850   26.1287 C   0  0  0  0  0  0
  -27.0531  -30.2837   24.6587 C   0  0  0  0  0  0
  -27.6038  -32.4365   25.7487 C   0  0  0  0  0  0
  -27.5553  -37.1723   24.8469 C   0  0  0  0  0  0
  -21.4420  -29.3034   22.3444 N   0  0  0  0  0  0
  -26.4245  -37.3660   23.9426 N   0  0  0  0  0  0
  -24.7868  -30.9406   22.0747 N   0  0  0  0  0  0
  -23.4215  -28.7932   23.3046 O   0  0  0  0  0  0
  -28.2290  -25.4850   20.2956 O   0  0  0  0  0  0
  -26.5749  -34.8869   22.4569 O   0  0  0  0  0  0
  -23.5870  -32.1067   23.6425 O   0  0  0  0  0  0
  -30.0523  -19.8815   19.9259 C   0  0  0  0  0  0
  -27.7445  -20.9484   20.7836 C   0  0  0  0  0  0
  -29.7145  -21.3966   19.8663 C   0  0  0  0  0  0
  -28.0682  -19.4527   20.8335 C   0  0  0  0  0  0
  -29.2714  -18.6863   20.3970 C   0  0  0  0  0  0
  -28.4844  -22.1473   20.3008 C   0  0  0  0  0  0
  -26.9611  -18.5812   21.4016 C   0  0  0  0  0  0
  -30.7575  -22.2084   17.7041 C   0  0  0  0  0  0
  -30.7864  -22.2660   19.2352 C   0  0  0  0  0  0
  -29.4361  -16.9544   20.4459 N   0  0  0  0  0  0
  -27.8168  -23.6080   20.0439 O   0  0  0  0  0  0
  -31.4218  -13.3469   19.1933 H   0  0  0  0  0  0
  -30.5866  -12.2305   20.2190 H   0  0  0  0  0  0
  -30.0100  -11.8261   17.8013 H   0  0  0  0  0  0
  -29.5156  -13.4921   17.6220 H   0  0  0  0  0  0
  -28.1510  -11.3035   19.2034 H   0  0  0  0  0  0
  -27.4579  -12.2491   17.9069 H   0  0  0  0  0  0
  -27.4635  -14.2326   19.2561 H   0  0  0  0  0  0
  -28.8666  -12.7357   21.5200 H   0  0  0  0  0  0
  -28.1740  -14.3313   21.6513 H   0  0  0  0  0  0
  -25.2771   -9.5690   22.4764 H   0  0  0  0  0  0
  -24.0019   -7.4634   22.7458 H   0  0  0  0  0  0
  -21.0868   -8.8784   19.8928 H   0  0  0  0  0  0
  -22.3729  -10.9677   19.6165 H   0  0  0  0  0  0
  -21.2006   -7.6145   23.9719 H   0  0  0  0  0  0
  -21.1485   -6.0515   25.9078 H   0  0  0  0  0  0
  -22.0592   -2.7610   23.2839 H   0  0  0  0  0  0
  -22.4008  -11.9799   22.4882 H   0  0  0  0  0  0
  -21.0984  -13.1125   22.2698 H   0  0  0  0  0  0
  -24.6053  -15.8394   20.5006 H   0  0  0  0  0  0
  -26.2090  -15.6312   20.0119 H   0  0  0  0  0  0
  -26.7513  -32.4927   23.0753 H   0  0  0  0  0  0
  -25.0080  -33.9311   25.0055 H   0  0  0  0  0  0
  -22.8400  -31.2360   21.3073 H   0  0  0  0  0  0
  -23.3760  -35.9440   23.3258 H   0  0  0  0  0  0
  -24.3548  -36.8854   22.2080 H   0  0  0  0  0  0
  -23.7202  -37.6290   23.6759 H   0  0  0  0  0  0
  -26.2981  -31.2383   20.6236 H   0  0  0  0  0  0
  -26.9429  -30.5928   22.0836 H   0  0  0  0  0  0
  -28.1561  -28.3572   21.3429 H   0  0  0  0  0  0
  -25.8634  -25.6042   18.9866 H   0  0  0  0  0  0
  -24.0473  -27.2082   18.9163 H   0  0  0  0  0  0
  -23.9509  -30.4455   19.3747 H   0  0  0  0  0  0
  -22.8721  -29.1580   19.8129 H   0  0  0  0  0  0
  -25.1332  -36.1643   25.0775 H   0  0  0  0  0  0
  -21.0074  -28.3417   24.1256 H   0  0  0  0  0  0
  -20.5650  -26.2420   23.3674 H   0  0  0  0  0  0
  -21.6664  -26.7382   22.1228 H   0  0  0  0  0  0
  -19.6914  -25.6270   21.1301 H   0  0  0  0  0  0
  -19.6714  -27.3151   20.6721 H   0  0  0  0  0  0
  -17.4231  -26.6730   21.4029 H   0  0  0  0  0  0
  -18.0333  -26.0128   22.9040 H   0  0  0  0  0  0
  -19.7990  -30.7362   24.2160 H   0  0  0  0  0  0
  -17.5061  -31.6290   24.5180 H   0  0  0  0  0  0
  -15.5393  -30.2987   23.7718 H   0  0  0  0  0  0
  -15.8730  -28.0823   22.7125 H   0  0  0  0  0  0
  -24.5843  -30.7196   25.7606 H   0  0  0  0  0  0
  -24.8840  -32.3084   26.4504 H   0  0  0  0  0  0
  -25.7822  -30.9155   27.0206 H   0  0  0  0  0  0
  -26.3261  -29.6440   24.1577 H   0  0  0  0  0  0
  -27.3946  -29.7302   25.5343 H   0  0  0  0  0  0
  -27.9241  -30.3957   24.0131 H   0  0  0  0  0  0
  -27.2587  -33.3758   26.1821 H   0  0  0  0  0  0
  -28.3972  -32.6784   25.0404 H   0  0  0  0  0  0
  -28.0558  -31.8651   26.5603 H   0  0  0  0  0  0
  -28.2534  -38.0054   24.7542 H   0  0  0  0  0  0
  -28.1084  -36.2584   24.6254 H   0  0  0  0  0  0
  -27.2282  -37.1316   25.8873 H   0  0  0  0  0  0
  -20.9720  -29.8696   21.6522 H   0  0  0  0  0  0
  -26.0066  -38.2697   24.1467 H   0  0  0  0  0  0
  -31.0198  -19.6270   19.5183 H   0  0  0  0  0  0
  -26.7510  -21.1981   21.1271 H   0  0  0  0  0  0
  -26.1344  -19.1690   21.8007 H   0  0  0  0  0  0
  -27.3402  -17.9570   22.2115 H   0  0  0  0  0  0
  -26.5606  -17.9286   20.6258 H   0  0  0  0  0  0
  -31.5309  -22.8493   17.2795 H   0  0  0  0  0  0
  -29.7958  -22.5417   17.3136 H   0  0  0  0  0  0
  -30.9328  -21.1948   17.3431 H   0  0  0  0  0  0
  -31.7651  -21.9503   19.6005 H   0  0  0  0  0  0
  -30.6609  -23.2983   19.5689 H   0  0  0  0  0  0
  -28.5167  -16.5893   20.6436 H   0  0  0  0  0  0
  1 25  1  0  0  0
  1 30  2  0  0  0
  1 80  1  0  0  0
  2  3  1  0  0  0
  2 25  1  0  0  0
  2 82  1  0  0  0
  2 83  1  0  0  0
  3  4  1  0  0  0
  3 84  1  0  0  0
  3 85  1  0  0  0
  4  5  1  0  0  0
  4 86  1  0  0  0
  4 87  1  0  0  0
  5  6  1  0  0  0
  5 26  1  0  0  0
  5 88  1  0  0  0
  6 25  1  0  0  0
  6 89  1  0  0  0
  6 90  1  0  0  0
  7  8  2  0  0  0
  7 26  1  0  0  0
  7 29  1  0  0  0
  8  9  1  0  0  0
  8 22  1  0  0  0
  9 10  1  0  0  0
  9 27  2  0  0  0
 10 11  2  0  0  0
 10 15  1  0  0  0
 11 12  1  0  0  0
 11 91  1  0  0  0
 12 13  2  0  0  0
 12 92  1  0  0  0
 13 14  1  0  0  0
 13 31  1  0  0  0
 14 15  2  0  0  0
 14 93  1  0  0  0
 15 94  1  0  0  0
 16 17  2  0  0  0
 16 21  1  0  0  0
 16 31  1  0  0  0
 17 18  1  0  0  0
 17 95  1  0  0  0
 18 19  2  0  0  0
 18 96  1  0  0  0
 19 20  1  0  0  0
 19 24  1  0  0  0
 20 21  2  0  0  0
 20 97  1  0  0  0
 21 23  1  0  0  0
 22 28  1  0  0  0
 22 32  2  0  0  0
 26 27  1  0  0  0
 28 98  1  0  0  0
 28 99  1  0  0  0
 29100  1  0  0  0
 29101  1  0  0  0
 33 34  1  0  0  0
 33 66  1  0  0  0
 33 70  2  0  0  0
 34 36  1  0  0  0
 34 59  1  0  0  0
 34102  1  0  0  0
 35 44  2  0  0  0
 35 45  1  0  0  0
 35 68  1  0  0  0
 36 56  1  0  0  0
 36103  1  0  0  0
 37 39  1  0  0  0
 37 47  1  0  0  0
 37 66  1  0  0  0
 37104  1  0  0  0
 38 43  2  0  0  0
 38 46  1  0  0  0
 38 47  1  0  0  0
 39 64  1  0  0  0
 39 67  2  0  0  0
 40 52  1  0  0  0
 40 53  2  0  0  0
 40 58  1  0  0  0
 41105  1  0  0  0
 41106  1  0  0  0
 41107  1  0  0  0
 41 48  1  0  0  0
 42 43  1  0  0  0
 42 66  1  0  0  0
 42108  1  0  0  0
 42109  1  0  0  0
 43 44  1  0  0  0
 44110  1  0  0  0
 45 46  2  0  0  0
 45111  1  0  0  0
 46112  1  0  0  0
 47113  1  0  0  0
 47114  1  0  0  0
 48 56  1  0  0  0
 48 65  1  0  0  0
 48115  1  0  0  0
 49 50  1  0  0  0
 49 53  1  0  0  0
 49 64  1  0  0  0
 49116  1  0  0  0
 50 51  1  0  0  0
 50117  1  0  0  0
 50118  1  0  0  0
 51 52  1  0  0  0
 51119  1  0  0  0
 51120  1  0  0  0
 52121  1  0  0  0
 52122  1  0  0  0
 53 54  1  0  0  0
 54 55  2  0  0  0
 54123  1  0  0  0
 55 57  1  0  0  0
 55124  1  0  0  0
 56 69  2  0  0  0
 57 58  2  0  0  0
 57125  1  0  0  0
 58126  1  0  0  0
 59 60  1  0  0  0
 59 61  1  0  0  0
 59 62  1  0  0  0
 60127  1  0  0  0
 60128  1  0  0  0
 60129  1  0  0  0
 61130  1  0  0  0
 61131  1  0  0  0
 61132  1  0  0  0
 62133  1  0  0  0
 62134  1  0  0  0
 62135  1  0  0  0
 63 65  1  0  0  0
 63136  1  0  0  0
 63137  1  0  0  0
 63138  1  0  0  0
 64139  1  0  0  0
 65140  1  0  0  0
 68 81  1  0  0  0
 71 73  2  0  0  0
 71 75  1  0  0  0
 71141  1  0  0  0
 72 74  1  0  0  0
 72 76  2  0  0  0
 72142  1  0  0  0
 73 76  1  0  0  0
 73 79  1  0  0  0
 74 75  2  0  0  0
 74 77  1  0  0  0
 75 80  1  0  0  0
 76 81  1  0  0  0
 77143  1  0  0  0
 77144  1  0  0  0
 77145  1  0  0  0
 78 79  1  0  0  0
 78146  1  0  0  0
 78147  1  0  0  0
 78148  1  0  0  0
 79149  1  0  0  0
 79150  1  0  0  0
 80151  1  0  0  0
M  ISO  4   1 100  68 101  80 100  81 101
M  END
> <chiral flag>
0

> <version>
0

> <s_m_source_file>
/data/baiqing/PycharmProjects/Reinvent-master-3.2/result/LINK_invent/BTK/process_docking_weight1_custom_sum_contain_oxygen_bond_distance_aromatic_linkinvent_7_9_3/rearranged_h_0009.sdf

> <i_m_source_file_index>
89

> <r_mmod_Potential_Energy-OPLS-2005>
2408.31518554688

> <r_mmod_Stretch_Energy-OPLS-2005>
973.3564453125

> <r_mmod_Bend_Energy-OPLS-2005>
736.565368652344

> <r_mmod_Torsional_Energy-OPLS-2005>
215.606353759766

> <r_mmod_Improper_Torsional_Energy-OPLS-2005>
7.56754922866821

> <r_mmod_Van_der_Waal_Energy-OPLS-2005>
129.65299987793

> <r_mmod_Electrostatic_Energy-OPLS-2005>
-369.017456054688

> <r_mmod_Solvation_Energy-OPLS-2005>
-206.290023803711

> <b_mmod_Minimization_Converged-OPLS-2005>
0

> <r_mmod_RMS_Derivative-OPLS-2005>
1.30570685863495

$$$$
91
                    3D
 Structure written by MMmdl.
165173  0  0  1  0            999 V2000
  -30.6172  -14.6422   20.5042 C   0  0  0  0  0  0
  -30.4342  -12.3950   19.4569 C   0  0  0  0  0  0
  -29.5076  -12.5142   18.2261 C   0  0  0  0  0  0
  -28.0302  -12.3487   18.6351 C   0  0  0  0  0  0
  -27.6514  -13.2181   19.8643 C   0  0  2  0  0  0
  -28.6937  -13.0738   20.9963 C   0  0  0  0  0  0
  -25.2522  -13.8150   20.5573 C   0  0  0  0  0  0
  -24.1811  -13.0434   20.9145 C   0  0  0  0  0  0
  -24.6391  -11.6902   20.8747 C   0  0  0  0  0  0
  -23.9063  -10.4286   21.0411 C   0  0  0  0  0  0
  -24.3609   -9.4198   21.9189 C   0  0  0  0  0  0
  -23.6280   -8.2236   22.0761 C   0  0  0  0  0  0
  -22.4267   -8.0275   21.3544 C   0  0  0  0  0  0
  -21.9903   -9.0248   20.4651 C   0  0  0  0  0  0
  -22.7233  -10.2125   20.3058 C   0  0  0  0  0  0
  -21.6854   -6.0729   22.5275 C   0  0  0  0  0  0
  -21.4013   -6.5636   23.8208 C   0  0  0  0  0  0
  -21.3655   -5.6788   24.9171 C   0  0  0  0  0  0
  -21.6047   -4.3052   24.7228 C   0  0  0  0  0  0
  -21.8817   -3.8139   23.4349 C   0  0  0  0  0  0
  -21.9186   -4.6955   22.3400 C   0  0  0  0  0  0
  -22.7838  -13.5228   21.1831 C   0  0  0  0  0  0
  -22.1659   -4.2137   21.0982 F   0  0  0  0  0  0
  -21.5628   -3.4540   25.7745 F   0  0  0  0  0  0
  -30.0087  -13.4156   20.4350 N   0  0  0  0  0  0
  -26.2979  -12.9344   20.3313 N   0  0  0  0  0  0
  -25.9326  -11.6500   20.5790 N   0  0  0  0  0  0
  -22.0484  -12.8226   22.0399 N   0  0  0  0  0  0
  -25.4183  -15.1845   20.3817 N   0  0  0  0  0  0
  -31.7820  -14.7913   20.1252 O   0  0  0  0  0  0
  -21.6635   -6.8869   21.4239 O   0  0  0  0  0  0
  -22.3511  -14.5533   20.6688 O   0  0  0  0  0  0
  -24.6239  -31.8617   23.2019 C   0  0  0  0  0  0
  -25.9090  -32.4784   23.8338 C   0  0  1  0  0  0
  -27.2225  -27.3292   20.1097 C   0  0  0  0  0  0
  -25.5910  -33.8595   24.2257 N   0  0  0  0  0  0
  -23.4146  -30.4846   21.5489 C   0  0  2  0  0  0
  -24.8581  -28.9407   20.1168 C   0  0  0  0  0  0
  -22.7460  -29.4642   22.4990 C   0  0  0  0  0  0
  -18.0289  -28.1358   22.8475 C   0  0  0  0  0  0
  -24.1506  -36.7298   23.2638 C   0  0  0  0  0  0
  -25.9570  -30.7926   21.3747 C   0  0  0  0  0  0
  -26.0292  -29.4230   20.7130 C   0  0  0  0  0  0
  -27.2147  -28.6299   20.6990 C   0  0  0  0  0  0
  -26.0225  -26.8977   19.4954 C   0  0  0  0  0  0
  -24.8541  -27.6801   19.5042 C   0  0  0  0  0  0
  -23.6241  -29.8155   20.1670 C   0  0  0  0  0  0
  -25.4132  -36.3096   24.0333 C   0  0  1  0  0  0
  -20.5887  -28.3665   23.1293 C   0  0  2  0  0  0
  -20.6796  -26.9401   22.5406 C   0  0  0  0  0  0
  -19.5774  -26.6366   21.5208 C   0  0  0  0  0  0
  -18.1940  -26.7897   22.1611 C   0  0  0  0  0  0
  -19.1539  -28.8827   23.2861 C   0  0  0  0  0  0
  -18.9478  -30.1430   23.8879 C   0  0  0  0  0  0
  -17.6485  -30.6575   24.0547 C   0  0  0  0  0  0
  -25.9075  -34.9462   23.5101 C   0  0  0  0  0  0
  -16.5372  -29.9070   23.6338 C   0  0  0  0  0  0
  -16.7278  -28.6484   23.0353 C   0  0  0  0  0  0
  -26.4448  -31.6608   25.0721 C   0  0  0  0  0  0
  -25.3650  -31.3781   26.1431 C   0  0  0  0  0  0
  -27.0278  -30.3037   24.6172 C   0  0  0  0  0  0
  -27.6018  -32.4336   25.7482 C   0  0  0  0  0  0
  -27.5593  -37.1794   24.8457 C   0  0  0  0  0  0
  -21.4191  -29.3013   22.3700 N   0  0  0  0  0  0
  -26.4309  -37.3786   23.9408 N   0  0  0  0  0  0
  -24.6838  -31.0621   22.0980 N   0  0  0  0  0  0
  -23.4195  -28.8209   23.3083 O   0  0  0  0  0  0
  -28.3472  -26.4881   20.1494 O   0  0  0  0  0  0
  -26.5658  -34.8934   22.4677 O   0  0  0  0  0  0
  -23.5409  -32.1423   23.7358 O   0  0  0  0  0  0
  -31.0754  -17.8183   20.2133 C   0  0  0  0  0  0
  -28.8241  -19.3806   20.7599 C   0  0  0  0  0  0
  -31.1134  -19.2312   20.0239 C   0  0  0  0  0  0
  -29.9216  -17.1434   20.6795 C   0  0  0  0  0  0
  -29.9578  -20.0593   20.2339 C   0  0  0  0  0  0
  -28.8034  -17.9644   21.0045 C   0  0  0  0  0  0
  -32.4558  -19.8132   19.5957 C   0  0  0  0  0  0
  -26.0465  -17.1560   23.2842 C   0  0  0  0  0  0
  -30.3909  -21.6848   18.5016 C   0  0  0  0  0  0
  -29.2855  -23.9921   20.2676 C   0  0  0  0  0  0
  -28.8795  -22.4423   20.2797 C   0  0  0  0  0  0
  -26.8135  -18.0934   22.3470 C   0  0  0  0  0  0
  -28.1114  -25.0318   20.0384 C   0  0  0  0  0  0
  -29.8119  -15.6936   20.8592 N   0  0  0  0  0  0
  -29.9408  -21.4639   19.8782 N   0  0  0  0  0  0
  -27.7087  -17.3200   21.5489 O   0  0  0  0  0  0
  -31.4778  -12.5151   19.1607 H   0  0  0  0  0  0
  -30.3612  -11.3998   19.8961 H   0  0  0  0  0  0
  -29.7750  -11.7689   17.4765 H   0  0  0  0  0  0
  -29.6484  -13.4871   17.7531 H   0  0  0  0  0  0
  -27.8680  -11.2949   18.8647 H   0  0  0  0  0  0
  -27.3770  -12.5799   17.7927 H   0  0  0  0  0  0
  -27.6681  -14.2542   19.5247 H   0  0  0  0  0  0
  -28.7045  -12.0526   21.3795 H   0  0  0  0  0  0
  -28.4364  -13.7057   21.8474 H   0  0  0  0  0  0
  -25.2753   -9.5670   22.4766 H   0  0  0  0  0  0
  -23.9985   -7.4626   22.7483 H   0  0  0  0  0  0
  -21.0832   -8.8760   19.8957 H   0  0  0  0  0  0
  -22.3687  -10.9660   19.6168 H   0  0  0  0  0  0
  -21.2012   -7.6140   23.9704 H   0  0  0  0  0  0
  -21.1484   -6.0524   25.9071 H   0  0  0  0  0  0
  -22.0601   -2.7599   23.2855 H   0  0  0  0  0  0
  -22.4093  -11.9881   22.4775 H   0  0  0  0  0  0
  -21.1108  -13.1265   22.2624 H   0  0  0  0  0  0
  -24.6519  -15.8373   20.4942 H   0  0  0  0  0  0
  -26.2860  -15.6367   20.1236 H   0  0  0  0  0  0
  -26.7155  -32.5469   23.1087 H   0  0  0  0  0  0
  -25.0008  -33.9735   25.0363 H   0  0  0  0  0  0
  -22.7062  -31.3033   21.4055 H   0  0  0  0  0  0
  -23.3786  -35.9612   23.3301 H   0  0  0  0  0  0
  -24.3606  -36.8925   22.2052 H   0  0  0  0  0  0
  -23.7244  -37.6490   23.6668 H   0  0  0  0  0  0
  -26.0961  -31.5585   20.6102 H   0  0  0  0  0  0
  -26.8342  -30.8298   22.0100 H   0  0  0  0  0  0
  -28.1132  -28.9956   21.1750 H   0  0  0  0  0  0
  -25.9468  -25.9377   19.0087 H   0  0  0  0  0  0
  -23.9530  -27.2965   19.0458 H   0  0  0  0  0  0
  -23.7302  -30.5865   19.4033 H   0  0  0  0  0  0
  -22.7471  -29.2340   19.8754 H   0  0  0  0  0  0
  -25.1308  -36.1958   25.0827 H   0  0  0  0  0  0
  -20.9936  -28.3245   24.1429 H   0  0  0  0  0  0
  -20.5723  -26.2274   23.3595 H   0  0  0  0  0  0
  -21.6664  -26.7452   22.1179 H   0  0  0  0  0  0
  -19.6960  -25.6275   21.1233 H   0  0  0  0  0  0
  -19.6735  -27.3175   20.6739 H   0  0  0  0  0  0
  -17.4215  -26.6646   21.4001 H   0  0  0  0  0  0
  -18.0348  -26.0018   22.8994 H   0  0  0  0  0  0
  -19.7969  -30.7223   24.2249 H   0  0  0  0  0  0
  -17.5057  -31.6265   24.5126 H   0  0  0  0  0  0
  -15.5372  -30.2968   23.7664 H   0  0  0  0  0  0
  -15.8678  -28.0793   22.7093 H   0  0  0  0  0  0
  -24.5839  -30.7114   25.7751 H   0  0  0  0  0  0
  -24.8806  -32.2957   26.4785 H   0  0  0  0  0  0
  -25.7914  -30.9001   27.0259 H   0  0  0  0  0  0
  -26.2841  -29.6832   24.1154 H   0  0  0  0  0  0
  -27.3930  -29.7261   25.4671 H   0  0  0  0  0  0
  -27.8738  -30.4332   23.9424 H   0  0  0  0  0  0
  -27.2637  -33.3654   26.2035 H   0  0  0  0  0  0
  -28.3818  -32.6872   25.0285 H   0  0  0  0  0  0
  -28.0684  -31.8474   26.5406 H   0  0  0  0  0  0
  -28.2581  -38.0110   24.7533 H   0  0  0  0  0  0
  -28.1110  -36.2649   24.6247 H   0  0  0  0  0  0
  -27.2313  -37.1398   25.8853 H   0  0  0  0  0  0
  -20.9395  -29.8697   21.6861 H   0  0  0  0  0  0
  -26.0210  -38.2871   24.1400 H   0  0  0  0  0  0
  -31.9688  -17.2516   19.9979 H   0  0  0  0  0  0
  -27.9353  -19.9601   20.9509 H   0  0  0  0  0  0
  -33.2827  -19.1907   19.9394 H   0  0  0  0  0  0
  -32.6121  -20.8045   20.0204 H   0  0  0  0  0  0
  -32.5210  -19.8794   18.5088 H   0  0  0  0  0  0
  -25.3895  -17.7170   23.9494 H   0  0  0  0  0  0
  -26.7350  -16.5819   23.9046 H   0  0  0  0  0  0
  -25.4255  -16.4526   22.7314 H   0  0  0  0  0  0
  -30.4271  -20.7623   17.9182 H   0  0  0  0  0  0
  -31.3838  -22.1362   18.4941 H   0  0  0  0  0  0
  -29.7244  -22.3588   17.9629 H   0  0  0  0  0  0
  -30.0301  -24.1815   19.4941 H   0  0  0  0  0  0
  -29.7837  -24.2233   21.2091 H   0  0  0  0  0  0
  -28.0487  -22.3019   19.5849 H   0  0  0  0  0  0
  -28.4832  -22.1851   21.2631 H   0  0  0  0  0  0
  -27.3544  -18.8207   22.9555 H   0  0  0  0  0  0
  -26.1186  -18.6430   21.7110 H   0  0  0  0  0  0
  -27.3072  -24.7698   20.7279 H   0  0  0  0  0  0
  -27.7451  -24.8309   19.0319 H   0  0  0  0  0  0
  -28.8994  -15.4043   21.1764 H   0  0  0  0  0  0
  1 25  1  0  0  0
  1 30  2  0  0  0
  1 84  1  0  0  0
  2  3  1  0  0  0
  2 25  1  0  0  0
  2 87  1  0  0  0
  2 88  1  0  0  0
  3  4  1  0  0  0
  3 89  1  0  0  0
  3 90  1  0  0  0
  4  5  1  0  0  0
  4 91  1  0  0  0
  4 92  1  0  0  0
  5  6  1  0  0  0
  5 26  1  0  0  0
  5 93  1  0  0  0
  6 25  1  0  0  0
  6 94  1  0  0  0
  6 95  1  0  0  0
  7  8  2  0  0  0
  7 26  1  0  0  0
  7 29  1  0  0  0
  8  9  1  0  0  0
  8 22  1  0  0  0
  9 10  1  0  0  0
  9 27  2  0  0  0
 10 11  2  0  0  0
 10 15  1  0  0  0
 11 12  1  0  0  0
 11 96  1  0  0  0
 12 13  2  0  0  0
 12 97  1  0  0  0
 13 14  1  0  0  0
 13 31  1  0  0  0
 14 15  2  0  0  0
 14 98  1  0  0  0
 15 99  1  0  0  0
 16 17  2  0  0  0
 16 21  1  0  0  0
 16 31  1  0  0  0
 17 18  1  0  0  0
 17100  1  0  0  0
 18 19  2  0  0  0
 18101  1  0  0  0
 19 20  1  0  0  0
 19 24  1  0  0  0
 20 21  2  0  0  0
 20102  1  0  0  0
 21 23  1  0  0  0
 22 28  1  0  0  0
 22 32  2  0  0  0
 26 27  1  0  0  0
 28103  1  0  0  0
 28104  1  0  0  0
 29105  1  0  0  0
 29106  1  0  0  0
 33 34  1  0  0  0
 33 66  1  0  0  0
 33 70  2  0  0  0
 34 36  1  0  0  0
 34 59  1  0  0  0
 34107  1  0  0  0
 35 44  2  0  0  0
 35 45  1  0  0  0
 35 68  1  0  0  0
 36 56  1  0  0  0
 36108  1  0  0  0
 37 39  1  0  0  0
 37 47  1  0  0  0
 37 66  1  0  0  0
 37109  1  0  0  0
 38 43  2  0  0  0
 38 46  1  0  0  0
 38 47  1  0  0  0
 39 64  1  0  0  0
 39 67  2  0  0  0
 40 52  1  0  0  0
 40 53  2  0  0  0
 40 58  1  0  0  0
 41110  1  0  0  0
 41111  1  0  0  0
 41112  1  0  0  0
 41 48  1  0  0  0
 42 43  1  0  0  0
 42 66  1  0  0  0
 42113  1  0  0  0
 42114  1  0  0  0
 43 44  1  0  0  0
 44115  1  0  0  0
 45 46  2  0  0  0
 45116  1  0  0  0
 46117  1  0  0  0
 47118  1  0  0  0
 47119  1  0  0  0
 48 56  1  0  0  0
 48 65  1  0  0  0
 48120  1  0  0  0
 49 50  1  0  0  0
 49 53  1  0  0  0
 49 64  1  0  0  0
 49121  1  0  0  0
 50 51  1  0  0  0
 50122  1  0  0  0
 50123  1  0  0  0
 51 52  1  0  0  0
 51124  1  0  0  0
 51125  1  0  0  0
 52126  1  0  0  0
 52127  1  0  0  0
 53 54  1  0  0  0
 54 55  2  0  0  0
 54128  1  0  0  0
 55 57  1  0  0  0
 55129  1  0  0  0
 56 69  2  0  0  0
 57 58  2  0  0  0
 57130  1  0  0  0
 58131  1  0  0  0
 59 60  1  0  0  0
 59 61  1  0  0  0
 59 62  1  0  0  0
 60132  1  0  0  0
 60133  1  0  0  0
 60134  1  0  0  0
 61135  1  0  0  0
 61136  1  0  0  0
 61137  1  0  0  0
 62138  1  0  0  0
 62139  1  0  0  0
 62140  1  0  0  0
 63 65  1  0  0  0
 63141  1  0  0  0
 63142  1  0  0  0
 63143  1  0  0  0
 64144  1  0  0  0
 65145  1  0  0  0
 68 83  1  0  0  0
 71 73  2  0  0  0
 71 74  1  0  0  0
 71146  1  0  0  0
 72 75  2  0  0  0
 72 76  1  0  0  0
 72147  1  0  0  0
 73 75  1  0  0  0
 73 77  1  0  0  0
 74 76  2  0  0  0
 74 84  1  0  0  0
 75 85  1  0  0  0
 76 86  1  0  0  0
 77148  1  0  0  0
 77149  1  0  0  0
 77150  1  0  0  0
 78 82  1  0  0  0
 78151  1  0  0  0
 78152  1  0  0  0
 78153  1  0  0  0
 79 85  1  0  0  0
 79154  1  0  0  0
 79155  1  0  0  0
 79156  1  0  0  0
 80 81  1  0  0  0
 80 83  1  0  0  0
 80157  1  0  0  0
 80158  1  0  0  0
 81 85  1  0  0  0
 81159  1  0  0  0
 81160  1  0  0  0
 82 86  1  0  0  0
 82161  1  0  0  0
 82162  1  0  0  0
 83163  1  0  0  0
 83164  1  0  0  0
 84165  1  0  0  0
M  ISO  4   1 100  68 101  83 101  84 100
M  END
> <chiral flag>
0

> <version>
0

> <s_m_source_file>
/data/baiqing/PycharmProjects/Reinvent-master-3.2/result/LINK_invent/BTK/process_docking_weight1_custom_sum_contain_oxygen_bond_distance_aromatic_linkinvent_7_9_3/rearranged_h_0009.sdf

> <i_m_source_file_index>
90

> <r_mmod_Potential_Energy-OPLS-2005>
19.2197380065918

> <r_mmod_Stretch_Energy-OPLS-2005>
82.4956130981445

> <r_mmod_Bend_Energy-OPLS-2005>
149.221450805664

> <r_mmod_Torsional_Energy-OPLS-2005>
223.609390258789

> <r_mmod_Improper_Torsional_Energy-OPLS-2005>
7.31012868881226

> <r_mmod_Van_der_Waal_Energy-OPLS-2005>
162.358901977539

> <r_mmod_Electrostatic_Energy-OPLS-2005>
-439.934661865234

> <r_mmod_Solvation_Energy-OPLS-2005>
-212.468780517578

> <b_mmod_Minimization_Converged-OPLS-2005>
0

> <r_mmod_RMS_Derivative-OPLS-2005>
2.43861389160156

$$$$
92
                    3D
 Structure written by MMmdl.
159167  0  0  1  0            999 V2000
  -30.5991  -14.6810   20.4507 C   0  0  0  0  0  0
  -30.4473  -12.4067   19.4454 C   0  0  0  0  0  0
  -29.5074  -12.4989   18.2202 C   0  0  0  0  0  0
  -28.0301  -12.3419   18.6360 C   0  0  0  0  0  0
  -27.6559  -13.2140   19.8629 C   0  0  2  0  0  0
  -28.7105  -13.0751   20.9863 C   0  0  0  0  0  0
  -25.2563  -13.8159   20.5626 C   0  0  0  0  0  0
  -24.1838  -13.0430   20.9189 C   0  0  0  0  0  0
  -24.6414  -11.6905   20.8782 C   0  0  0  0  0  0
  -23.9077  -10.4291   21.0438 C   0  0  0  0  0  0
  -24.3624   -9.4203   21.9212 C   0  0  0  0  0  0
  -23.6299   -8.2237   22.0761 C   0  0  0  0  0  0
  -22.4281   -8.0284   21.3542 C   0  0  0  0  0  0
  -21.9929   -9.0259   20.4643 C   0  0  0  0  0  0
  -22.7261  -10.2144   20.3072 C   0  0  0  0  0  0
  -21.6851   -6.0743   22.5278 C   0  0  0  0  0  0
  -21.4005   -6.5646   23.8209 C   0  0  0  0  0  0
  -21.3658   -5.6799   24.9172 C   0  0  0  0  0  0
  -21.6048   -4.3058   24.7224 C   0  0  0  0  0  0
  -21.8819   -3.8155   23.4341 C   0  0  0  0  0  0
  -21.9188   -4.6975   22.3396 C   0  0  0  0  0  0
  -22.7864  -13.5234   21.1852 C   0  0  0  0  0  0
  -22.1661   -4.2159   21.0978 F   0  0  0  0  0  0
  -21.5633   -3.4540   25.7735 F   0  0  0  0  0  0
  -30.0206  -13.4343   20.4133 N   0  0  0  0  0  0
  -26.3017  -12.9339   20.3361 N   0  0  0  0  0  0
  -25.9355  -11.6502   20.5820 N   0  0  0  0  0  0
  -22.0503  -12.8222   22.0405 N   0  0  0  0  0  0
  -25.4258  -15.1836   20.3842 N   0  0  0  0  0  0
  -31.7621  -14.8681   20.0834 O   0  0  0  0  0  0
  -21.6631   -6.8891   21.4244 O   0  0  0  0  0  0
  -22.3554  -14.5544   20.6714 O   0  0  0  0  0  0
  -24.6252  -31.8601   23.1997 C   0  0  0  0  0  0
  -25.9102  -32.4775   23.8339 C   0  0  1  0  0  0
  -27.2441  -27.3307   20.1217 C   0  0  0  0  0  0
  -25.5938  -33.8572   24.2269 N   0  0  0  0  0  0
  -23.4197  -30.4746   21.5441 C   0  0  2  0  0  0
  -24.8693  -28.9215   20.1187 C   0  0  0  0  0  0
  -22.7483  -29.4574   22.4962 C   0  0  0  0  0  0
  -18.0271  -28.1352   22.8456 C   0  0  0  0  0  0
  -24.1500  -36.7294   23.2638 C   0  0  0  0  0  0
  -25.9525  -30.7953   21.3652 C   0  0  0  0  0  0
  -26.0353  -29.4192   20.7151 C   0  0  0  0  0  0
  -27.2254  -28.6357   20.7033 C   0  0  0  0  0  0
  -26.0517  -26.8666   19.5242 C   0  0  0  0  0  0
  -24.8779  -27.6500   19.5160 C   0  0  0  0  0  0
  -23.6348  -29.8007   20.1624 C   0  0  0  0  0  0
  -25.4123  -36.3071   24.0314 C   0  0  1  0  0  0
  -20.5872  -28.3654   23.1286 C   0  0  2  0  0  0
  -20.6778  -26.9374   22.5412 C   0  0  0  0  0  0
  -19.5764  -26.6364   21.5184 C   0  0  0  0  0  0
  -18.1928  -26.7895   22.1580 C   0  0  0  0  0  0
  -19.1529  -28.8820   23.2862 C   0  0  0  0  0  0
  -18.9463  -30.1431   23.8874 C   0  0  0  0  0  0
  -17.6480  -30.6578   24.0525 C   0  0  0  0  0  0
  -25.9063  -34.9449   23.5098 C   0  0  0  0  0  0
  -16.5357  -29.9061   23.6317 C   0  0  0  0  0  0
  -16.7268  -28.6473   23.0329 C   0  0  0  0  0  0
  -26.4501  -31.6575   25.0705 C   0  0  0  0  0  0
  -25.3733  -31.3703   26.1441 C   0  0  0  0  0  0
  -27.0329  -30.3012   24.6091 C   0  0  0  0  0  0
  -27.6084  -32.4298   25.7465 C   0  0  0  0  0  0
  -27.5582  -37.1786   24.8446 C   0  0  0  0  0  0
  -21.4191  -29.3005   22.3700 N   0  0  0  0  0  0
  -26.4293  -37.3772   23.9407 N   0  0  0  0  0  0
  -24.6834  -31.0608   22.0951 N   0  0  0  0  0  0
  -23.4193  -28.8127   23.3054 O   0  0  0  0  0  0
  -28.3983  -26.5436   20.0754 O   0  0  0  0  0  0
  -26.5623  -34.8917   22.4659 O   0  0  0  0  0  0
  -23.5424  -32.1401   23.7336 O   0  0  0  0  0  0
  -30.1931  -19.5094   20.0192 C   0  0  0  0  0  0
  -30.4722  -18.0941   19.9964 C   0  0  0  0  0  0
  -28.3520  -19.1146   21.4929 C   0  0  0  0  0  0
  -29.1188  -20.0785   20.7751 C   0  0  0  0  0  0
  -29.6782  -17.1615   20.7280 C   0  0  0  0  0  0
  -28.6078  -17.7093   21.4727 C   0  0  0  0  0  0
  -27.9075  -21.8893   21.9673 C   0  0  0  0  0  0
  -26.7877  -17.2192   22.9880 C   0  0  0  0  0  0
  -28.6116  -23.9154   19.7131 C   0  0  0  0  0  0
  -29.4688  -22.6348   20.1830 C   0  0  0  0  0  0
  -28.4016  -25.1841   20.6571 C   0  0  0  0  0  0
  -29.7315  -15.6939   20.7582 N   0  0  0  0  0  0
  -28.7657  -21.4927   20.8462 N   0  0  0  0  0  0
  -27.8349  -16.7784   22.1388 O   0  0  0  0  0  0
  -31.4868  -12.5406   19.1392 H   0  0  0  0  0  0
  -30.3920  -11.4156   19.8974 H   0  0  0  0  0  0
  -29.7667  -11.7318   17.4889 H   0  0  0  0  0  0
  -29.6484  -13.4574   17.7190 H   0  0  0  0  0  0
  -27.8643  -11.2905   18.8707 H   0  0  0  0  0  0
  -27.3743  -12.5726   17.7962 H   0  0  0  0  0  0
  -27.6690  -14.2469   19.5169 H   0  0  0  0  0  0
  -28.7318  -12.0514   21.3628 H   0  0  0  0  0  0
  -28.4578  -13.7006   21.8445 H   0  0  0  0  0  0
  -25.2761   -9.5671   22.4791 H   0  0  0  0  0  0
  -24.0001   -7.4625   22.7479 H   0  0  0  0  0  0
  -21.0866   -8.8789   19.8940 H   0  0  0  0  0  0
  -22.3729  -10.9693   19.6175 H   0  0  0  0  0  0
  -21.1992   -7.6148   23.9716 H   0  0  0  0  0  0
  -21.1483   -6.0524   25.9077 H   0  0  0  0  0  0
  -22.0600   -2.7615   23.2834 H   0  0  0  0  0  0
  -22.4120  -11.9869   22.4771 H   0  0  0  0  0  0
  -21.1128  -13.1263   22.2626 H   0  0  0  0  0  0
  -24.6464  -15.8305   20.4212 H   0  0  0  0  0  0
  -26.2706  -15.6050   20.0210 H   0  0  0  0  0  0
  -26.7175  -32.5470   23.1084 H   0  0  0  0  0  0
  -25.0065  -33.9693   25.0397 H   0  0  0  0  0  0
  -22.7111  -31.2919   21.3991 H   0  0  0  0  0  0
  -23.3758  -35.9631   23.3265 H   0  0  0  0  0  0
  -24.3593  -36.8952   22.2063 H   0  0  0  0  0  0
  -23.7232  -37.6466   23.6697 H   0  0  0  0  0  0
  -26.0685  -31.5567   20.5927 H   0  0  0  0  0  0
  -26.8373  -30.8556   21.9866 H   0  0  0  0  0  0
  -28.1296  -29.0194   21.1574 H   0  0  0  0  0  0
  -26.0313  -25.8926   19.0545 H   0  0  0  0  0  0
  -23.9825  -27.2596   19.0491 H   0  0  0  0  0  0
  -23.7450  -30.5743   19.4002 H   0  0  0  0  0  0
  -22.7568  -29.2224   19.8681 H   0  0  0  0  0  0
  -25.1283  -36.1927   25.0796 H   0  0  0  0  0  0
  -20.9916  -28.3247   24.1426 H   0  0  0  0  0  0
  -20.5662  -26.2260   23.3613 H   0  0  0  0  0  0
  -21.6663  -26.7429   22.1218 H   0  0  0  0  0  0
  -19.6945  -25.6267   21.1224 H   0  0  0  0  0  0
  -19.6731  -27.3182   20.6716 H   0  0  0  0  0  0
  -17.4207  -26.6626   21.3962 H   0  0  0  0  0  0
  -18.0321  -26.0035   22.8982 H   0  0  0  0  0  0
  -19.7968  -30.7198   24.2269 H   0  0  0  0  0  0
  -17.5052  -31.6257   24.5131 H   0  0  0  0  0  0
  -15.5357  -30.2952   23.7684 H   0  0  0  0  0  0
  -15.8656  -28.0798   22.7056 H   0  0  0  0  0  0
  -24.5932  -30.7010   25.7765 H   0  0  0  0  0  0
  -24.8901  -32.2873   26.4851 H   0  0  0  0  0  0
  -25.8083  -30.8910   27.0223 H   0  0  0  0  0  0
  -26.2859  -29.6755   24.1193 H   0  0  0  0  0  0
  -27.4114  -29.7272   25.4547 H   0  0  0  0  0  0
  -27.8697  -30.4283   23.9214 H   0  0  0  0  0  0
  -27.2720  -33.3638   26.1979 H   0  0  0  0  0  0
  -28.3940  -32.6780   25.0306 H   0  0  0  0  0  0
  -28.0684  -31.8438   26.5421 H   0  0  0  0  0  0
  -28.2564  -38.0126   24.7552 H   0  0  0  0  0  0
  -28.1115  -36.2647   24.6212 H   0  0  0  0  0  0
  -27.2307  -37.1355   25.8851 H   0  0  0  0  0  0
  -20.9394  -29.8726   21.6894 H   0  0  0  0  0  0
  -26.0171  -38.2824   24.1478 H   0  0  0  0  0  0
  -30.8275  -20.1543   19.4296 H   0  0  0  0  0  0
  -31.2841  -17.7350   19.3807 H   0  0  0  0  0  0
  -27.5148  -19.4586   22.0707 H   0  0  0  0  0  0
  -28.1530  -21.3478   22.8826 H   0  0  0  0  0  0
  -26.8605  -21.7059   21.7206 H   0  0  0  0  0  0
  -28.0067  -22.9474   22.2095 H   0  0  0  0  0  0
  -26.2091  -16.3517   23.3062 H   0  0  0  0  0  0
  -26.0962  -17.8930   22.4835 H   0  0  0  0  0  0
  -27.1941  -17.6993   23.8785 H   0  0  0  0  0  0
  -27.6497  -23.5914   19.3180 H   0  0  0  0  0  0
  -29.1432  -24.3040   18.8445 H   0  0  0  0  0  0
  -30.2845  -22.9719   20.8256 H   0  0  0  0  0  0
  -29.9552  -22.2333   19.2924 H   0  0  0  0  0  0
  -29.2332  -25.1937   21.3622 H   0  0  0  0  0  0
  -27.5099  -25.0393   21.2700 H   0  0  0  0  0  0
  -28.8613  -15.3198   21.1024 H   0  0  0  0  0  0
  1 25  1  0  0  0
  1 30  2  0  0  0
  1 82  1  0  0  0
  2  3  1  0  0  0
  2 25  1  0  0  0
  2 85  1  0  0  0
  2 86  1  0  0  0
  3  4  1  0  0  0
  3 87  1  0  0  0
  3 88  1  0  0  0
  4  5  1  0  0  0
  4 89  1  0  0  0
  4 90  1  0  0  0
  5  6  1  0  0  0
  5 26  1  0  0  0
  5 91  1  0  0  0
  6 25  1  0  0  0
  6 92  1  0  0  0
  6 93  1  0  0  0
  7  8  2  0  0  0
  7 26  1  0  0  0
  7 29  1  0  0  0
  8  9  1  0  0  0
  8 22  1  0  0  0
  9 10  1  0  0  0
  9 27  2  0  0  0
 10 11  2  0  0  0
 10 15  1  0  0  0
 11 12  1  0  0  0
 11 94  1  0  0  0
 12 13  2  0  0  0
 12 95  1  0  0  0
 13 14  1  0  0  0
 13 31  1  0  0  0
 14 15  2  0  0  0
 14 96  1  0  0  0
 15 97  1  0  0  0
 16 17  2  0  0  0
 16 21  1  0  0  0
 16 31  1  0  0  0
 17 18  1  0  0  0
 17 98  1  0  0  0
 18 19  2  0  0  0
 18 99  1  0  0  0
 19 20  1  0  0  0
 19 24  1  0  0  0
 20 21  2  0  0  0
 20100  1  0  0  0
 21 23  1  0  0  0
 22 28  1  0  0  0
 22 32  2  0  0  0
 26 27  1  0  0  0
 28101  1  0  0  0
 28102  1  0  0  0
 29103  1  0  0  0
 29104  1  0  0  0
 33 34  1  0  0  0
 33 66  1  0  0  0
 33 70  2  0  0  0
 34 36  1  0  0  0
 34 59  1  0  0  0
 34105  1  0  0  0
 35 44  2  0  0  0
 35 45  1  0  0  0
 35 68  1  0  0  0
 36 56  1  0  0  0
 36106  1  0  0  0
 37 39  1  0  0  0
 37 47  1  0  0  0
 37 66  1  0  0  0
 37107  1  0  0  0
 38 43  2  0  0  0
 38 46  1  0  0  0
 38 47  1  0  0  0
 39 64  1  0  0  0
 39 67  2  0  0  0
 40 52  1  0  0  0
 40 53  2  0  0  0
 40 58  1  0  0  0
 41108  1  0  0  0
 41109  1  0  0  0
 41110  1  0  0  0
 41 48  1  0  0  0
 42 43  1  0  0  0
 42 66  1  0  0  0
 42111  1  0  0  0
 42112  1  0  0  0
 43 44  1  0  0  0
 44113  1  0  0  0
 45 46  2  0  0  0
 45114  1  0  0  0
 46115  1  0  0  0
 47116  1  0  0  0
 47117  1  0  0  0
 48 56  1  0  0  0
 48 65  1  0  0  0
 48118  1  0  0  0
 49 50  1  0  0  0
 49 53  1  0  0  0
 49 64  1  0  0  0
 49119  1  0  0  0
 50 51  1  0  0  0
 50120  1  0  0  0
 50121  1  0  0  0
 51 52  1  0  0  0
 51122  1  0  0  0
 51123  1  0  0  0
 52124  1  0  0  0
 52125  1  0  0  0
 53 54  1  0  0  0
 54 55  2  0  0  0
 54126  1  0  0  0
 55 57  1  0  0  0
 55127  1  0  0  0
 56 69  2  0  0  0
 57 58  2  0  0  0
 57128  1  0  0  0
 58129  1  0  0  0
 59 60  1  0  0  0
 59 61  1  0  0  0
 59 62  1  0  0  0
 60130  1  0  0  0
 60131  1  0  0  0
 60132  1  0  0  0
 61133  1  0  0  0
 61134  1  0  0  0
 61135  1  0  0  0
 62136  1  0  0  0
 62137  1  0  0  0
 62138  1  0  0  0
 63 65  1  0  0  0
 63139  1  0  0  0
 63140  1  0  0  0
 63141  1  0  0  0
 64142  1  0  0  0
 65143  1  0  0  0
 68 81  1  0  0  0
 71 72  2  0  0  0
 71 74  1  0  0  0
 71144  1  0  0  0
 72 75  1  0  0  0
 72145  1  0  0  0
 73 74  2  0  0  0
 73 76  1  0  0  0
 73146  1  0  0  0
 74 83  1  0  0  0
 75 76  2  0  0  0
 75 82  1  0  0  0
 76 84  1  0  0  0
 77 83  1  0  0  0
 77147  1  0  0  0
 77148  1  0  0  0
 77149  1  0  0  0
 78 84  1  0  0  0
 78150  1  0  0  0
 78151  1  0  0  0
 78152  1  0  0  0
 79 80  1  0  0  0
 79 81  1  0  0  0
 79153  1  0  0  0
 79154  1  0  0  0
 80 83  1  0  0  0
 80155  1  0  0  0
 80156  1  0  0  0
 81157  1  0  0  0
 81158  1  0  0  0
 82159  1  0  0  0
M  ISO  4   1 100  68 101  81 101  82 100
M  END
> <chiral flag>
0

> <version>
0

> <s_m_source_file>
/data/baiqing/PycharmProjects/Reinvent-master-3.2/result/LINK_invent/BTK/process_docking_weight1_custom_sum_contain_oxygen_bond_distance_aromatic_linkinvent_7_9_3/rearranged_h_0009.sdf

> <i_m_source_file_index>
91

> <r_mmod_Potential_Energy-OPLS-2005>
92.2716445922852

> <r_mmod_Stretch_Energy-OPLS-2005>
88.6486053466797

> <r_mmod_Bend_Energy-OPLS-2005>
203.446563720703

> <r_mmod_Torsional_Energy-OPLS-2005>
236.319488525391

> <r_mmod_Improper_Torsional_Energy-OPLS-2005>
5.55431795120239

> <r_mmod_Van_der_Waal_Energy-OPLS-2005>
149.039611816406

> <r_mmod_Electrostatic_Energy-OPLS-2005>
-420.338745117188

> <r_mmod_Solvation_Energy-OPLS-2005>
-221.159698486328

> <b_mmod_Minimization_Converged-OPLS-2005>
0

> <r_mmod_RMS_Derivative-OPLS-2005>
3.75266933441162

$$$$
93
                    3D
 Structure written by MMmdl.
166174  0  0  1  0            999 V2000
  -30.6272  -14.6368   20.5342 C   0  0  0  0  0  0
  -30.4393  -12.4032   19.4512 C   0  0  0  0  0  0
  -29.5067  -12.5292   18.2249 C   0  0  0  0  0  0
  -28.0310  -12.3597   18.6335 C   0  0  0  0  0  0
  -27.6550  -13.2187   19.8694 C   0  0  2  0  0  0
  -28.6984  -13.0617   20.9983 C   0  0  0  0  0  0
  -25.2565  -13.8176   20.5705 C   0  0  0  0  0  0
  -24.1836  -13.0432   20.9188 C   0  0  0  0  0  0
  -24.6397  -11.6908   20.8726 C   0  0  0  0  0  0
  -23.9067  -10.4287   21.0398 C   0  0  0  0  0  0
  -24.3618   -9.4200   21.9180 C   0  0  0  0  0  0
  -23.6289   -8.2244   22.0742 C   0  0  0  0  0  0
  -22.4269   -8.0282   21.3534 C   0  0  0  0  0  0
  -21.9895   -9.0270   20.4644 C   0  0  0  0  0  0
  -22.7229  -10.2146   20.3055 C   0  0  0  0  0  0
  -21.6852   -6.0733   22.5281 C   0  0  0  0  0  0
  -21.4023   -6.5638   23.8215 C   0  0  0  0  0  0
  -21.3655   -5.6782   24.9176 C   0  0  0  0  0  0
  -21.6040   -4.3048   24.7223 C   0  0  0  0  0  0
  -21.8817   -3.8144   23.4345 C   0  0  0  0  0  0
  -21.9193   -4.6960   22.3391 C   0  0  0  0  0  0
  -22.7852  -13.5245   21.1849 C   0  0  0  0  0  0
  -22.1665   -4.2151   21.0970 F   0  0  0  0  0  0
  -21.5611   -3.4528   25.7732 F   0  0  0  0  0  0
  -30.0164  -13.4124   20.4445 N   0  0  0  0  0  0
  -26.2996  -12.9358   20.3340 N   0  0  0  0  0  0
  -25.9332  -11.6510   20.5750 N   0  0  0  0  0  0
  -22.0479  -12.8267   22.0409 N   0  0  0  0  0  0
  -25.4273  -15.1901   20.4172 N   0  0  0  0  0  0
  -31.7721  -14.8165   20.1102 O   0  0  0  0  0  0
  -21.6629   -6.8884   21.4240 O   0  0  0  0  0  0
  -22.3550  -14.5549   20.6682 O   0  0  0  0  0  0
  -24.6266  -31.8608   23.2035 C   0  0  0  0  0  0
  -25.9106  -32.4782   23.8373 C   0  0  1  0  0  0
  -27.2196  -27.3132   20.1233 C   0  0  0  0  0  0
  -25.5924  -33.8589   24.2296 N   0  0  0  0  0  0
  -23.4216  -30.4829   21.5466 C   0  0  2  0  0  0
  -24.8685  -28.9413   20.1109 C   0  0  0  0  0  0
  -22.7489  -29.4614   22.4940 C   0  0  0  0  0  0
  -18.0295  -28.1383   22.8467 C   0  0  0  0  0  0
  -24.1497  -36.7302   23.2624 C   0  0  0  0  0  0
  -25.9636  -30.7878   21.3772 C   0  0  0  0  0  0
  -26.0373  -29.4151   20.7200 C   0  0  0  0  0  0
  -27.2182  -28.6131   20.7170 C   0  0  0  0  0  0
  -26.0330  -26.9029   19.4744 C   0  0  0  0  0  0
  -24.8689  -27.6909   19.4771 C   0  0  0  0  0  0
  -23.6368  -29.8212   20.1603 C   0  0  0  0  0  0
  -25.4108  -36.3092   24.0331 C   0  0  1  0  0  0
  -20.5889  -28.3684   23.1278 C   0  0  2  0  0  0
  -20.6779  -26.9405   22.5400 C   0  0  0  0  0  0
  -19.5758  -26.6379   21.5202 C   0  0  0  0  0  0
  -18.1942  -26.7915   22.1619 C   0  0  0  0  0  0
  -19.1541  -28.8851   23.2862 C   0  0  0  0  0  0
  -18.9460  -30.1453   23.8888 C   0  0  0  0  0  0
  -17.6458  -30.6567   24.0564 C   0  0  0  0  0  0
  -25.9050  -34.9456   23.5117 C   0  0  0  0  0  0
  -16.5356  -29.9073   23.6319 C   0  0  0  0  0  0
  -16.7281  -28.6493   23.0335 C   0  0  0  0  0  0
  -26.4479  -31.6584   25.0737 C   0  0  0  0  0  0
  -25.3719  -31.3753   26.1480 C   0  0  0  0  0  0
  -27.0279  -30.2995   24.6178 C   0  0  0  0  0  0
  -27.6078  -32.4289   25.7467 C   0  0  0  0  0  0
  -27.5604  -37.1777   24.8430 C   0  0  0  0  0  0
  -21.4200  -29.3034   22.3683 N   0  0  0  0  0  0
  -26.4278  -37.3793   23.9432 N   0  0  0  0  0  0
  -24.6893  -31.0602   22.0993 N   0  0  0  0  0  0
  -23.4211  -28.8146   23.3020 O   0  0  0  0  0  0
  -28.3241  -26.4475   20.1661 O   0  0  0  0  0  0
  -26.5617  -34.8921   22.4681 O   0  0  0  0  0  0
  -23.5424  -32.1409   23.7351 O   0  0  0  0  0  0
  -28.7659  -17.0413   18.5663 C   0  0  0  0  0  0
  -29.3914  -19.2242   19.5519 C   0  0  0  0  0  0
  -30.4610  -17.9655   21.7987 C   0  0  0  0  0  0
  -29.3827  -17.7955   19.6512 C   0  0  0  0  0  0
  -29.9375  -20.0696   20.5561 C   0  0  0  0  0  0
  -29.9517  -17.1208   20.7747 C   0  0  0  0  0  0
  -30.4531  -19.3946   21.7107 C   0  0  0  0  0  0
  -29.2514  -24.0112   20.3257 C   0  0  0  0  0  0
  -33.2317  -19.5989   23.6412 C   0  0  0  0  0  0
  -30.2470  -21.0676   24.9948 C   0  0  0  0  0  0
  -30.1464  -21.6166   20.2788 C   0  0  0  0  0  0
  -28.0396  -25.0144   20.4549 C   0  0  0  0  0  0
  -32.3596  -20.4861   22.7487 C   0  0  0  0  0  0
  -29.9826  -20.9597   23.4899 C   0  0  0  0  0  0
  -28.2747  -16.4372   17.7085 N   0  0  0  0  0  0
  -29.8481  -15.6690   20.9874 N   0  0  0  0  0  0
  -29.0628  -22.6506   20.4276 N   0  0  0  0  0  0
  -30.9523  -20.0968   22.8197 N   0  0  0  0  0  0
  -30.3783  -24.4717   20.1272 O   0  0  0  0  0  0
  -31.4800  -12.5335   19.1467 H   0  0  0  0  0  0
  -30.3804  -11.4035   19.8822 H   0  0  0  0  0  0
  -29.7715  -11.7910   17.4668 H   0  0  0  0  0  0
  -29.6419  -13.5076   17.7600 H   0  0  0  0  0  0
  -27.8702  -11.3035   18.8529 H   0  0  0  0  0  0
  -27.3785  -12.5997   17.7933 H   0  0  0  0  0  0
  -27.6737  -14.2566   19.5406 H   0  0  0  0  0  0
  -28.7081  -12.0337   21.3624 H   0  0  0  0  0  0
  -28.4377  -13.6763   21.8604 H   0  0  0  0  0  0
  -25.2769   -9.5658   22.4761 H   0  0  0  0  0  0
  -23.9984   -7.4626   22.7461 H   0  0  0  0  0  0
  -21.0806   -8.8808   19.8970 H   0  0  0  0  0  0
  -22.3688  -10.9700   19.6173 H   0  0  0  0  0  0
  -21.2035   -7.6147   23.9738 H   0  0  0  0  0  0
  -21.1470   -6.0502   25.9082 H   0  0  0  0  0  0
  -22.0598   -2.7604   23.2848 H   0  0  0  0  0  0
  -22.4082  -11.9929   22.4807 H   0  0  0  0  0  0
  -21.1114  -13.1337   22.2629 H   0  0  0  0  0  0
  -24.6522  -15.8374   20.5164 H   0  0  0  0  0  0
  -26.2674  -15.6284   20.0635 H   0  0  0  0  0  0
  -26.7176  -32.5457   23.1130 H   0  0  0  0  0  0
  -25.0061  -33.9737   25.0435 H   0  0  0  0  0  0
  -22.7145  -31.3032   21.4051 H   0  0  0  0  0  0
  -23.3762  -35.9627   23.3229 H   0  0  0  0  0  0
  -24.3619  -36.8966   22.2050 H   0  0  0  0  0  0
  -23.7228  -37.6485   23.6667 H   0  0  0  0  0  0
  -26.0974  -31.5485   20.6073 H   0  0  0  0  0  0
  -26.8447  -30.8385   22.0051 H   0  0  0  0  0  0
  -28.1143  -28.9687   21.2062 H   0  0  0  0  0  0
  -25.9763  -25.9653   18.9445 H   0  0  0  0  0  0
  -23.9791  -27.3282   18.9826 H   0  0  0  0  0  0
  -23.7592  -30.6012   19.4077 H   0  0  0  0  0  0
  -22.7552  -29.2544   19.8547 H   0  0  0  0  0  0
  -25.1264  -36.1946   25.0815 H   0  0  0  0  0  0
  -20.9977  -28.3258   24.1403 H   0  0  0  0  0  0
  -20.5667  -26.2294   23.3600 H   0  0  0  0  0  0
  -21.6653  -26.7431   22.1210 H   0  0  0  0  0  0
  -19.6926  -25.6296   21.1224 H   0  0  0  0  0  0
  -19.6692  -27.3184   20.6733 H   0  0  0  0  0  0
  -17.4203  -26.6641   21.4035 H   0  0  0  0  0  0
  -18.0361  -26.0067   22.9029 H   0  0  0  0  0  0
  -19.7937  -30.7270   24.2252 H   0  0  0  0  0  0
  -17.5009  -31.6245   24.5178 H   0  0  0  0  0  0
  -15.5354  -30.2975   23.7631 H   0  0  0  0  0  0
  -15.8686  -28.0817   22.7050 H   0  0  0  0  0  0
  -24.5870  -30.7117   25.7824 H   0  0  0  0  0  0
  -24.8946  -32.2940   26.4905 H   0  0  0  0  0  0
  -25.8046  -30.8928   27.0254 H   0  0  0  0  0  0
  -26.2837  -29.6782   24.1180 H   0  0  0  0  0  0
  -27.3937  -29.7213   25.4670 H   0  0  0  0  0  0
  -27.8735  -30.4260   23.9416 H   0  0  0  0  0  0
  -27.2746  -33.3610   26.2039 H   0  0  0  0  0  0
  -28.3874  -32.6802   25.0262 H   0  0  0  0  0  0
  -28.0751  -31.8405   26.5372 H   0  0  0  0  0  0
  -28.2529  -38.0166   24.7611 H   0  0  0  0  0  0
  -28.1198  -36.2712   24.6067 H   0  0  0  0  0  0
  -27.2359  -37.1187   25.8834 H   0  0  0  0  0  0
  -20.9388  -29.8781   21.6904 H   0  0  0  0  0  0
  -26.0157  -38.2848   24.1516 H   0  0  0  0  0  0
  -28.9925  -19.6833   18.6575 H   0  0  0  0  0  0
  -30.8488  -17.5071   22.6972 H   0  0  0  0  0  0
  -34.2806  -19.8856   23.5569 H   0  0  0  0  0  0
  -33.1521  -18.5489   23.3598 H   0  0  0  0  0  0
  -32.9497  -19.6876   24.6906 H   0  0  0  0  0  0
  -29.4814  -21.6782   25.4743 H   0  0  0  0  0  0
  -31.2104  -21.5326   25.2036 H   0  0  0  0  0  0
  -30.2312  -20.0870   25.4722 H   0  0  0  0  0  0
  -30.4969  -21.6913   19.2481 H   0  0  0  0  0  0
  -31.0009  -21.9532   20.8657 H   0  0  0  0  0  0
  -27.6621  -24.9520   21.4770 H   0  0  0  0  0  0
  -27.2598  -24.6066   19.8166 H   0  0  0  0  0  0
  -32.7223  -20.4384   21.7204 H   0  0  0  0  0  0
  -32.4683  -21.5283   23.0572 H   0  0  0  0  0  0
  -30.0015  -21.9545   23.0428 H   0  0  0  0  0  0
  -28.9753  -20.5678   23.3367 H   0  0  0  0  0  0
  -28.9564  -15.3582   21.3422 H   0  0  0  0  0  0
  -28.1200  -22.3168   20.5793 H   0  0  0  0  0  0
  1 25  1  0  0  0
  1 30  2  0  0  0
  1 86  1  0  0  0
  2  3  1  0  0  0
  2 25  1  0  0  0
  2 90  1  0  0  0
  2 91  1  0  0  0
  3  4  1  0  0  0
  3 92  1  0  0  0
  3 93  1  0  0  0
  4  5  1  0  0  0
  4 94  1  0  0  0
  4 95  1  0  0  0
  5  6  1  0  0  0
  5 26  1  0  0  0
  5 96  1  0  0  0
  6 25  1  0  0  0
  6 97  1  0  0  0
  6 98  1  0  0  0
  7  8  2  0  0  0
  7 26  1  0  0  0
  7 29  1  0  0  0
  8  9  1  0  0  0
  8 22  1  0  0  0
  9 10  1  0  0  0
  9 27  2  0  0  0
 10 11  2  0  0  0
 10 15  1  0  0  0
 11 12  1  0  0  0
 11 99  1  0  0  0
 12 13  2  0  0  0
 12100  1  0  0  0
 13 14  1  0  0  0
 13 31  1  0  0  0
 14 15  2  0  0  0
 14101  1  0  0  0
 15102  1  0  0  0
 16 17  2  0  0  0
 16 21  1  0  0  0
 16 31  1  0  0  0
 17 18  1  0  0  0
 17103  1  0  0  0
 18 19  2  0  0  0
 18104  1  0  0  0
 19 20  1  0  0  0
 19 24  1  0  0  0
 20 21  2  0  0  0
 20105  1  0  0  0
 21 23  1  0  0  0
 22 28  1  0  0  0
 22 32  2  0  0  0
 26 27  1  0  0  0
 28106  1  0  0  0
 28107  1  0  0  0
 29108  1  0  0  0
 29109  1  0  0  0
 33 34  1  0  0  0
 33 66  1  0  0  0
 33 70  2  0  0  0
 34 36  1  0  0  0
 34 59  1  0  0  0
 34110  1  0  0  0
 35 44  2  0  0  0
 35 45  1  0  0  0
 35 68  1  0  0  0
 36 56  1  0  0  0
 36111  1  0  0  0
 37 39  1  0  0  0
 37 47  1  0  0  0
 37 66  1  0  0  0
 37112  1  0  0  0
 38 43  2  0  0  0
 38 46  1  0  0  0
 38 47  1  0  0  0
 39 64  1  0  0  0
 39 67  2  0  0  0
 40 52  1  0  0  0
 40 53  2  0  0  0
 40 58  1  0  0  0
 41113  1  0  0  0
 41114  1  0  0  0
 41115  1  0  0  0
 41 48  1  0  0  0
 42 43  1  0  0  0
 42 66  1  0  0  0
 42116  1  0  0  0
 42117  1  0  0  0
 43 44  1  0  0  0
 44118  1  0  0  0
 45 46  2  0  0  0
 45119  1  0  0  0
 46120  1  0  0  0
 47121  1  0  0  0
 47122  1  0  0  0
 48 56  1  0  0  0
 48 65  1  0  0  0
 48123  1  0  0  0
 49 50  1  0  0  0
 49 53  1  0  0  0
 49 64  1  0  0  0
 49124  1  0  0  0
 50 51  1  0  0  0
 50125  1  0  0  0
 50126  1  0  0  0
 51 52  1  0  0  0
 51127  1  0  0  0
 51128  1  0  0  0
 52129  1  0  0  0
 52130  1  0  0  0
 53 54  1  0  0  0
 54 55  2  0  0  0
 54131  1  0  0  0
 55 57  1  0  0  0
 55132  1  0  0  0
 56 69  2  0  0  0
 57 58  2  0  0  0
 57133  1  0  0  0
 58134  1  0  0  0
 59 60  1  0  0  0
 59 61  1  0  0  0
 59 62  1  0  0  0
 60135  1  0  0  0
 60136  1  0  0  0
 60137  1  0  0  0
 61138  1  0  0  0
 61139  1  0  0  0
 61140  1  0  0  0
 62141  1  0  0  0
 62142  1  0  0  0
 62143  1  0  0  0
 63 65  1  0  0  0
 63144  1  0  0  0
 63145  1  0  0  0
 63146  1  0  0  0
 64147  1  0  0  0
 65148  1  0  0  0
 68 82  1  0  0  0
 71 74  1  0  0  0
 71 85  3  0  0  0
 72 74  2  0  0  0
 72 75  1  0  0  0
 72149  1  0  0  0
 73 76  2  0  0  0
 73 77  1  0  0  0
 73150  1  0  0  0
 74 76  1  0  0  0
 75 77  2  0  0  0
 75 81  1  0  0  0
 76 86  1  0  0  0
 77 88  1  0  0  0
 78 82  1  0  0  0
 78 87  1  0  0  0
 78 89  2  0  0  0
 79 83  1  0  0  0
 79151  1  0  0  0
 79152  1  0  0  0
 79153  1  0  0  0
 80 84  1  0  0  0
 80154  1  0  0  0
 80155  1  0  0  0
 80156  1  0  0  0
 81 87  1  0  0  0
 81157  1  0  0  0
 81158  1  0  0  0
 82159  1  0  0  0
 82160  1  0  0  0
 83 88  1  0  0  0
 83161  1  0  0  0
 83162  1  0  0  0
 84 88  1  0  0  0
 84163  1  0  0  0
 84164  1  0  0  0
 86165  1  0  0  0
 87166  1  0  0  0
M  ISO  4   1 100  68 101  82 101  86 100
M  END
> <chiral flag>
0

> <version>
0

> <s_m_source_file>
/data/baiqing/PycharmProjects/Reinvent-master-3.2/result/LINK_invent/BTK/process_docking_weight1_custom_sum_contain_oxygen_bond_distance_aromatic_linkinvent_7_9_3/rearranged_h_0009.sdf

> <i_m_source_file_index>
92

> <r_mmod_Potential_Energy-OPLS-2005>
87.2910537719727

> <r_mmod_Stretch_Energy-OPLS-2005>
85.9031982421875

> <r_mmod_Bend_Energy-OPLS-2005>
138.724899291992

> <r_mmod_Torsional_Energy-OPLS-2005>
291.00341796875

> <r_mmod_Improper_Torsional_Energy-OPLS-2005>
8.23932552337646

> <r_mmod_Van_der_Waal_Energy-OPLS-2005>
131.783981323242

> <r_mmod_Electrostatic_Energy-OPLS-2005>
-363.627258300781

> <r_mmod_Solvation_Energy-OPLS-2005>
-254.399871826172

> <b_mmod_Minimization_Converged-OPLS-2005>
0

> <r_mmod_RMS_Derivative-OPLS-2005>
2.47819113731384

$$$$
94
                    3D
 Structure written by MMmdl.
168176  0  0  1  0            999 V2000
  -30.7165  -14.4766   20.5470 C   0  0  0  0  0  0
  -30.4132  -12.3016   19.4317 C   0  0  0  0  0  0
  -29.4965  -12.5064   18.2099 C   0  0  0  0  0  0
  -28.0148  -12.3809   18.6161 C   0  0  0  0  0  0
  -27.6565  -13.2213   19.8719 C   0  0  2  0  0  0
  -28.6986  -13.0187   20.9967 C   0  0  0  0  0  0
  -25.2472  -13.8102   20.5653 C   0  0  0  0  0  0
  -24.1788  -13.0377   20.9234 C   0  0  0  0  0  0
  -24.6399  -11.6881   20.8740 C   0  0  0  0  0  0
  -23.9067  -10.4280   21.0400 C   0  0  0  0  0  0
  -24.3618   -9.4208   21.9186 C   0  0  0  0  0  0
  -23.6302   -8.2235   22.0744 C   0  0  0  0  0  0
  -22.4280   -8.0262   21.3542 C   0  0  0  0  0  0
  -21.9924   -9.0233   20.4639 C   0  0  0  0  0  0
  -22.7242  -10.2123   20.3045 C   0  0  0  0  0  0
  -21.6855   -6.0726   22.5283 C   0  0  0  0  0  0
  -21.4005   -6.5627   23.8216 C   0  0  0  0  0  0
  -21.3656   -5.6779   24.9179 C   0  0  0  0  0  0
  -21.6054   -4.3040   24.7226 C   0  0  0  0  0  0
  -21.8818   -3.8141   23.4343 C   0  0  0  0  0  0
  -21.9199   -4.6960   22.3407 C   0  0  0  0  0  0
  -22.7808  -13.5176   21.1886 C   0  0  0  0  0  0
  -22.1664   -4.2158   21.0985 F   0  0  0  0  0  0
  -21.5654   -3.4517   25.7732 F   0  0  0  0  0  0
  -30.0343  -13.3036   20.4421 N   0  0  0  0  0  0
  -26.2981  -12.9357   20.3339 N   0  0  0  0  0  0
  -25.9329  -11.6503   20.5740 N   0  0  0  0  0  0
  -22.0434  -12.8191   22.0448 N   0  0  0  0  0  0
  -25.3967  -15.1778   20.3925 N   0  0  0  0  0  0
  -31.8516  -14.6170   20.0838 O   0  0  0  0  0  0
  -21.6656   -6.8850   21.4231 O   0  0  0  0  0  0
  -22.3508  -14.5491   20.6727 O   0  0  0  0  0  0
  -24.6114  -31.8689   23.2101 C   0  0  0  0  0  0
  -25.9018  -32.4831   23.8388 C   0  0  1  0  0  0
  -27.2483  -27.4628   20.0891 C   0  0  0  0  0  0
  -25.5879  -33.8624   24.2335 N   0  0  0  0  0  0
  -23.4002  -30.4918   21.5479 C   0  0  2  0  0  0
  -24.8526  -28.9597   20.1133 C   0  0  0  0  0  0
  -22.7393  -29.4661   22.4978 C   0  0  0  0  0  0
  -18.0269  -28.1379   22.8490 C   0  0  0  0  0  0
  -24.1484  -36.7301   23.2642 C   0  0  0  0  0  0
  -25.9256  -30.8440   21.3596 C   0  0  0  0  0  0
  -26.0094  -29.4797   20.7086 C   0  0  0  0  0  0
  -27.2110  -28.7371   20.7001 C   0  0  0  0  0  0
  -26.0744  -26.9436   19.5121 C   0  0  0  0  0  0
  -24.8778  -27.6874   19.5146 C   0  0  0  0  0  0
  -23.6114  -29.8229   20.1624 C   0  0  0  0  0  0
  -25.4101  -36.3114   24.0351 C   0  0  1  0  0  0
  -20.5860  -28.3659   23.1325 C   0  0  2  0  0  0
  -20.6755  -26.9395   22.5427 C   0  0  0  0  0  0
  -19.5741  -26.6389   21.5213 C   0  0  0  0  0  0
  -18.1915  -26.7922   22.1625 C   0  0  0  0  0  0
  -19.1517  -28.8832   23.2905 C   0  0  0  0  0  0
  -18.9452  -30.1441   23.8910 C   0  0  0  0  0  0
  -17.6459  -30.6580   24.0567 C   0  0  0  0  0  0
  -25.9024  -34.9478   23.5142 C   0  0  0  0  0  0
  -16.5350  -29.9090   23.6329 C   0  0  0  0  0  0
  -16.7260  -28.6514   23.0333 C   0  0  0  0  0  0
  -26.4477  -31.6591   25.0693 C   0  0  0  0  0  0
  -25.3780  -31.3669   26.1466 C   0  0  0  0  0  0
  -27.0287  -30.3041   24.6016 C   0  0  0  0  0  0
  -27.6041  -32.4310   25.7474 C   0  0  0  0  0  0
  -27.5578  -37.1807   24.8470 C   0  0  0  0  0  0
  -21.4121  -29.3035   22.3728 N   0  0  0  0  0  0
  -26.4289  -37.3790   23.9417 N   0  0  0  0  0  0
  -24.6637  -31.0816   22.0988 N   0  0  0  0  0  0
  -23.4177  -28.8202   23.3000 O   0  0  0  0  0  0
  -28.3767  -26.6748   20.0899 O   0  0  0  0  0  0
  -26.5578  -34.8940   22.4703 O   0  0  0  0  0  0
  -23.5312  -32.1414   23.7524 O   0  0  0  0  0  0
  -31.5471  -17.4802   20.7621 C   0  0  0  0  0  0
  -29.3299  -19.1862   20.6277 C   0  0  0  0  0  0
  -31.7348  -18.8658   20.5490 C   0  0  0  0  0  0
  -29.1447  -17.8034   20.8474 C   0  0  0  0  0  0
  -30.2519  -16.9194   20.8871 C   0  0  0  0  0  0
  -30.6189  -19.7339   20.4639 C   0  0  0  0  0  0
  -30.3828  -23.2856   19.0859 C   0  0  0  0  0  0
  -33.1506  -19.3978   20.3955 C   0  0  0  0  0  0
  -27.7302  -17.2852   20.9954 C   0  0  0  0  0  0
  -28.2087  -23.8634   18.0576 C   0  0  0  0  0  0
  -29.7769  -21.9622   19.6277 C   0  0  0  0  0  0
  -29.5252  -26.7028   17.9551 C   0  0  0  0  0  0
  -30.1806  -25.3252   17.6708 C   0  0  0  0  0  0
  -29.5203  -27.1857   19.4169 C   0  0  0  0  0  0
  -30.0204  -15.5113   21.0616 N   0  0  0  0  0  0
  -30.8091  -21.1103   20.2380 N   0  0  0  0  0  0
  -29.6098  -24.1551   18.3765 N   0  0  0  0  0  0
  -31.5817  -23.4958   19.3028 O   0  0  0  0  0  0
  -31.4622  -12.3724   19.1381 H   0  0  0  0  0  0
  -30.2859  -11.2964   19.8349 H   0  0  0  0  0  0
  -29.7331  -11.7736   17.4363 H   0  0  0  0  0  0
  -29.6757  -13.4897   17.7721 H   0  0  0  0  0  0
  -27.8165  -11.3260   18.8050 H   0  0  0  0  0  0
  -27.3731  -12.6669   17.7821 H   0  0  0  0  0  0
  -27.6919  -14.2689   19.5697 H   0  0  0  0  0  0
  -28.6669  -11.9910   21.3622 H   0  0  0  0  0  0
  -28.4613  -13.6418   21.8600 H   0  0  0  0  0  0
  -25.2741   -9.5718   22.4779 H   0  0  0  0  0  0
  -24.0032   -7.4630   22.7460 H   0  0  0  0  0  0
  -21.0863   -8.8735   19.8938 H   0  0  0  0  0  0
  -22.3681  -10.9658   19.6158 H   0  0  0  0  0  0
  -21.1969   -7.6129   23.9718 H   0  0  0  0  0  0
  -21.1479   -6.0504   25.9085 H   0  0  0  0  0  0
  -22.0601   -2.7609   23.2843 H   0  0  0  0  0  0
  -22.4024  -11.9839   22.4843 H   0  0  0  0  0  0
  -21.1033  -13.1197   22.2615 H   0  0  0  0  0  0
  -24.6033  -15.8040   20.4691 H   0  0  0  0  0  0
  -26.2019  -15.6104   19.9634 H   0  0  0  0  0  0
  -26.7085  -32.5576   23.1153 H   0  0  0  0  0  0
  -25.0061  -33.9774   25.0506 H   0  0  0  0  0  0
  -22.6868  -31.3063   21.4089 H   0  0  0  0  0  0
  -23.3751  -35.9629   23.3318 H   0  0  0  0  0  0
  -24.3586  -36.8893   22.2053 H   0  0  0  0  0  0
  -23.7238  -37.6516   23.6637 H   0  0  0  0  0  0
  -26.0313  -31.6108   20.5902 H   0  0  0  0  0  0
  -26.8149  -30.9022   21.9751 H   0  0  0  0  0  0
  -28.0980  -29.1307   21.1759 H   0  0  0  0  0  0
  -26.0888  -25.9607   19.0613 H   0  0  0  0  0  0
  -23.9860  -27.2741   19.0632 H   0  0  0  0  0  0
  -23.7173  -30.5975   19.4017 H   0  0  0  0  0  0
  -22.7363  -29.2406   19.8678 H   0  0  0  0  0  0
  -25.1282  -36.1975   25.0843 H   0  0  0  0  0  0
  -20.9958  -28.3225   24.1444 H   0  0  0  0  0  0
  -20.5656  -26.2252   23.3606 H   0  0  0  0  0  0
  -21.6623  -26.7434   22.1225 H   0  0  0  0  0  0
  -19.6894  -25.6307   21.1215 H   0  0  0  0  0  0
  -19.6683  -27.3218   20.6758 H   0  0  0  0  0  0
  -17.4186  -26.6673   21.4025 H   0  0  0  0  0  0
  -18.0316  -26.0065   22.9026 H   0  0  0  0  0  0
  -19.7932  -30.7248   24.2277 H   0  0  0  0  0  0
  -17.5023  -31.6264   24.5171 H   0  0  0  0  0  0
  -15.5349  -30.3001   23.7650 H   0  0  0  0  0  0
  -15.8655  -28.0854   22.7016 H   0  0  0  0  0  0
  -24.5957  -30.6996   25.7833 H   0  0  0  0  0  0
  -24.8975  -32.2813   26.4951 H   0  0  0  0  0  0
  -25.8188  -30.8838   27.0195 H   0  0  0  0  0  0
  -26.2784  -29.6819   24.1119 H   0  0  0  0  0  0
  -27.4132  -29.7254   25.4425 H   0  0  0  0  0  0
  -27.8596  -30.4365   23.9081 H   0  0  0  0  0  0
  -27.2634  -33.3600   26.2058 H   0  0  0  0  0  0
  -28.3863  -32.6884   25.0320 H   0  0  0  0  0  0
  -28.0690  -31.8430   26.5399 H   0  0  0  0  0  0
  -28.2603  -38.0095   24.7513 H   0  0  0  0  0  0
  -28.1066  -36.2629   24.6296 H   0  0  0  0  0  0
  -27.2297  -37.1466   25.8874 H   0  0  0  0  0  0
  -20.9254  -29.8769   21.6982 H   0  0  0  0  0  0
  -26.0184  -38.2874   24.1411 H   0  0  0  0  0  0
  -32.4204  -16.8489   20.8229 H   0  0  0  0  0  0
  -28.4631  -19.8290   20.5904 H   0  0  0  0  0  0
  -33.8935  -18.6243   20.5936 H   0  0  0  0  0  0
  -33.3337  -20.2202   21.0879 H   0  0  0  0  0  0
  -33.3055  -19.7589   19.3787 H   0  0  0  0  0  0
  -27.0228  -18.0953   21.1762 H   0  0  0  0  0  0
  -27.6402  -16.5763   21.8188 H   0  0  0  0  0  0
  -27.4473  -16.7966   20.0662 H   0  0  0  0  0  0
  -27.6071  -23.8524   18.9669 H   0  0  0  0  0  0
  -28.1029  -22.8988   17.5606 H   0  0  0  0  0  0
  -27.7752  -24.6048   17.3862 H   0  0  0  0  0  0
  -29.3006  -21.4187   18.8117 H   0  0  0  0  0  0
  -29.0080  -22.2025   20.3615 H   0  0  0  0  0  0
  -28.5125  -26.7416   17.5561 H   0  0  0  0  0  0
  -30.0835  -27.4369   17.3710 H   0  0  0  0  0  0
  -31.2492  -25.4263   17.8643 H   0  0  0  0  0  0
  -30.1142  -25.1278   16.5998 H   0  0  0  0  0  0
  -29.5422  -28.2768   19.4455 H   0  0  0  0  0  0
  -30.4218  -26.8509   19.9306 H   0  0  0  0  0  0
  -29.0989  -15.2581   21.3813 H   0  0  0  0  0  0
  -31.7547  -21.4608   20.1062 H   0  0  0  0  0  0
  1 25  1  0  0  0
  1 30  2  0  0  0
  1 85  1  0  0  0
  2  3  1  0  0  0
  2 25  1  0  0  0
  2 89  1  0  0  0
  2 90  1  0  0  0
  3  4  1  0  0  0
  3 91  1  0  0  0
  3 92  1  0  0  0
  4  5  1  0  0  0
  4 93  1  0  0  0
  4 94  1  0  0  0
  5  6  1  0  0  0
  5 26  1  0  0  0
  5 95  1  0  0  0
  6 25  1  0  0  0
  6 96  1  0  0  0
  6 97  1  0  0  0
  7  8  2  0  0  0
  7 26  1  0  0  0
  7 29  1  0  0  0
  8  9  1  0  0  0
  8 22  1  0  0  0
  9 10  1  0  0  0
  9 27  2  0  0  0
 10 11  2  0  0  0
 10 15  1  0  0  0
 11 12  1  0  0  0
 11 98  1  0  0  0
 12 13  2  0  0  0
 12 99  1  0  0  0
 13 14  1  0  0  0
 13 31  1  0  0  0
 14 15  2  0  0  0
 14100  1  0  0  0
 15101  1  0  0  0
 16 17  2  0  0  0
 16 21  1  0  0  0
 16 31  1  0  0  0
 17 18  1  0  0  0
 17102  1  0  0  0
 18 19  2  0  0  0
 18103  1  0  0  0
 19 20  1  0  0  0
 19 24  1  0  0  0
 20 21  2  0  0  0
 20104  1  0  0  0
 21 23  1  0  0  0
 22 28  1  0  0  0
 22 32  2  0  0  0
 26 27  1  0  0  0
 28105  1  0  0  0
 28106  1  0  0  0
 29107  1  0  0  0
 29108  1  0  0  0
 33 34  1  0  0  0
 33 66  1  0  0  0
 33 70  2  0  0  0
 34 36  1  0  0  0
 34 59  1  0  0  0
 34109  1  0  0  0
 35 44  2  0  0  0
 35 45  1  0  0  0
 35 68  1  0  0  0
 36 56  1  0  0  0
 36110  1  0  0  0
 37 39  1  0  0  0
 37 47  1  0  0  0
 37 66  1  0  0  0
 37111  1  0  0  0
 38 43  2  0  0  0
 38 46  1  0  0  0
 38 47  1  0  0  0
 39 64  1  0  0  0
 39 67  2  0  0  0
 40 52  1  0  0  0
 40 53  2  0  0  0
 40 58  1  0  0  0
 41112  1  0  0  0
 41113  1  0  0  0
 41114  1  0  0  0
 41 48  1  0  0  0
 42 43  1  0  0  0
 42 66  1  0  0  0
 42115  1  0  0  0
 42116  1  0  0  0
 43 44  1  0  0  0
 44117  1  0  0  0
 45 46  2  0  0  0
 45118  1  0  0  0
 46119  1  0  0  0
 47120  1  0  0  0
 47121  1  0  0  0
 48 56  1  0  0  0
 48 65  1  0  0  0
 48122  1  0  0  0
 49 50  1  0  0  0
 49 53  1  0  0  0
 49 64  1  0  0  0
 49123  1  0  0  0
 50 51  1  0  0  0
 50124  1  0  0  0
 50125  1  0  0  0
 51 52  1  0  0  0
 51126  1  0  0  0
 51127  1  0  0  0
 52128  1  0  0  0
 52129  1  0  0  0
 53 54  1  0  0  0
 54 55  2  0  0  0
 54130  1  0  0  0
 55 57  1  0  0  0
 55131  1  0  0  0
 56 69  2  0  0  0
 57 58  2  0  0  0
 57132  1  0  0  0
 58133  1  0  0  0
 59 60  1  0  0  0
 59 61  1  0  0  0
 59 62  1  0  0  0
 60134  1  0  0  0
 60135  1  0  0  0
 60136  1  0  0  0
 61137  1  0  0  0
 61138  1  0  0  0
 61139  1  0  0  0
 62140  1  0  0  0
 62141  1  0  0  0
 62142  1  0  0  0
 63 65  1  0  0  0
 63143  1  0  0  0
 63144  1  0  0  0
 63145  1  0  0  0
 64146  1  0  0  0
 65147  1  0  0  0
 68 84  1  0  0  0
 71 73  2  0  0  0
 71 75  1  0  0  0
 71148  1  0  0  0
 72 74  1  0  0  0
 72 76  2  0  0  0
 72149  1  0  0  0
 73 76  1  0  0  0
 73 78  1  0  0  0
 74 75  2  0  0  0
 74 79  1  0  0  0
 75 85  1  0  0  0
 76 86  1  0  0  0
 77 81  1  0  0  0
 77 87  1  0  0  0
 77 88  2  0  0  0
 78150  1  0  0  0
 78151  1  0  0  0
 78152  1  0  0  0
 79153  1  0  0  0
 79154  1  0  0  0
 79155  1  0  0  0
 80 87  1  0  0  0
 80156  1  0  0  0
 80157  1  0  0  0
 80158  1  0  0  0
 81 86  1  0  0  0
 81159  1  0  0  0
 81160  1  0  0  0
 82 83  1  0  0  0
 82 84  1  0  0  0
 82161  1  0  0  0
 82162  1  0  0  0
 83 87  1  0  0  0
 83163  1  0  0  0
 83164  1  0  0  0
 84165  1  0  0  0
 84166  1  0  0  0
 85167  1  0  0  0
 86168  1  0  0  0
M  ISO  4   1 100  68 101  84 101  85 100
M  END
> <chiral flag>
0

> <version>
0

> <s_m_source_file>
/data/baiqing/PycharmProjects/Reinvent-master-3.2/result/LINK_invent/BTK/process_docking_weight1_custom_sum_contain_oxygen_bond_distance_aromatic_linkinvent_7_9_3/rearranged_h_0009.sdf

> <i_m_source_file_index>
93

> <r_mmod_Potential_Energy-OPLS-2005>
-63.234920501709

> <r_mmod_Stretch_Energy-OPLS-2005>
41.2446441650391

> <r_mmod_Bend_Energy-OPLS-2005>
112.92529296875

> <r_mmod_Torsional_Energy-OPLS-2005>
258.770721435547

> <r_mmod_Improper_Torsional_Energy-OPLS-2005>
6.85886859893799

> <r_mmod_Van_der_Waal_Energy-OPLS-2005>
163.936767578125

> <r_mmod_Electrostatic_Energy-OPLS-2005>
-432.377044677734

> <r_mmod_Solvation_Energy-OPLS-2005>
-227.470657348633

> <b_mmod_Minimization_Converged-OPLS-2005>
0

> <r_mmod_RMS_Derivative-OPLS-2005>
2.58371829986572

$$$$
95
                    3D
 Structure written by MMmdl.
148156  0  0  1  0            999 V2000
  -30.5122  -14.9218   20.4210 C   0  0  0  0  0  0
  -30.4531  -12.5665   19.4870 C   0  0  0  0  0  0
  -29.5248  -12.5329   18.2489 C   0  0  0  0  0  0
  -28.0554  -12.3215   18.6638 C   0  0  0  0  0  0
  -27.6372  -13.2379   19.8425 C   0  0  2  0  0  0
  -28.6832  -13.2237   20.9788 C   0  0  0  0  0  0
  -25.2494  -13.8187   20.5681 C   0  0  0  0  0  0
  -24.1803  -13.0433   20.9229 C   0  0  0  0  0  0
  -24.6403  -11.6915   20.8752 C   0  0  0  0  0  0
  -23.9077  -10.4290   21.0406 C   0  0  0  0  0  0
  -24.3623   -9.4205   21.9184 C   0  0  0  0  0  0
  -23.6292   -8.2244   22.0754 C   0  0  0  0  0  0
  -22.4273   -8.0285   21.3544 C   0  0  0  0  0  0
  -21.9912   -9.0261   20.4649 C   0  0  0  0  0  0
  -22.7246  -10.2135   20.3058 C   0  0  0  0  0  0
  -21.6854   -6.0731   22.5275 C   0  0  0  0  0  0
  -21.4015   -6.5633   23.8208 C   0  0  0  0  0  0
  -21.3662   -5.6786   24.9171 C   0  0  0  0  0  0
  -21.6044   -4.3049   24.7222 C   0  0  0  0  0  0
  -21.8820   -3.8140   23.4345 C   0  0  0  0  0  0
  -21.9192   -4.6957   22.3399 C   0  0  0  0  0  0
  -22.7822  -13.5216   21.1875 C   0  0  0  0  0  0
  -22.1662   -4.2142   21.0977 F   0  0  0  0  0  0
  -21.5629   -3.4536   25.7739 F   0  0  0  0  0  0
  -29.9663  -13.6413   20.3934 N   0  0  0  0  0  0
  -26.2920  -12.9402   20.3233 N   0  0  0  0  0  0
  -25.9333  -11.6544   20.5726 N   0  0  0  0  0  0
  -22.0461  -12.8217   22.0433 N   0  0  0  0  0  0
  -25.4154  -15.1905   20.4032 N   0  0  0  0  0  0
  -31.7048  -15.0554   20.1240 O   0  0  0  0  0  0
  -21.6639   -6.8880   21.4240 O   0  0  0  0  0  0
  -22.3514  -14.5518   20.6710 O   0  0  0  0  0  0
  -24.6443  -31.8448   23.1896 C   0  0  0  0  0  0
  -25.9216  -32.4698   23.8287 C   0  0  1  0  0  0
  -27.2194  -27.1412   20.1396 C   0  0  0  0  0  0
  -25.5963  -33.8505   24.2200 N   0  0  0  0  0  0
  -23.4478  -30.4658   21.5355 C   0  0  2  0  0  0
  -24.8972  -28.8971   20.1102 C   0  0  0  0  0  0
  -22.7577  -29.4550   22.4860 C   0  0  0  0  0  0
  -18.0311  -28.1393   22.8478 C   0  0  0  0  0  0
  -24.1495  -36.7256   23.2642 C   0  0  0  0  0  0
  -26.0052  -30.7192   21.3896 C   0  0  0  0  0  0
  -26.0767  -29.3319   20.7282 C   0  0  0  0  0  0
  -27.2386  -28.4703   20.7274 C   0  0  0  0  0  0
  -26.0107  -26.8123   19.4826 C   0  0  0  0  0  0
  -24.8768  -27.6494   19.4737 C   0  0  0  0  0  0
  -23.6743  -29.7989   20.1540 C   0  0  0  0  0  0
  -25.4127  -36.3034   24.0315 C   0  0  1  0  0  0
  -20.5925  -28.3720   23.1235 C   0  0  2  0  0  0
  -20.6794  -26.9423   22.5404 C   0  0  0  0  0  0
  -19.5763  -26.6377   21.5215 C   0  0  0  0  0  0
  -18.1947  -26.7930   22.1628 C   0  0  0  0  0  0
  -19.1569  -28.8877   23.2847 C   0  0  0  0  0  0
  -18.9480  -30.1472   23.8872 C   0  0  0  0  0  0
  -17.6474  -30.6587   24.0560 C   0  0  0  0  0  0
  -25.9076  -34.9406   23.5066 C   0  0  0  0  0  0
  -16.5368  -29.9079   23.6333 C   0  0  0  0  0  0
  -16.7296  -28.6499   23.0353 C   0  0  0  0  0  0
  -26.4529  -31.6564   25.0728 C   0  0  0  0  0  0
  -25.3706  -31.3765   26.1420 C   0  0  0  0  0  0
  -27.0385  -30.2951   24.6320 C   0  0  0  0  0  0
  -27.6061  -32.4328   25.7511 C   0  0  0  0  0  0
  -27.5573  -37.1796   24.8471 C   0  0  0  0  0  0
  -21.4268  -29.3048   22.3606 N   0  0  0  0  0  0
  -26.4295  -37.3739   23.9395 N   0  0  0  0  0  0
  -24.7189  -31.0306   22.0930 N   0  0  0  0  0  0
  -23.4222  -28.8090   23.3003 O   0  0  0  0  0  0
  -28.2628  -26.1435   20.2061 O   0  0  0  0  0  0
  -26.5660  -34.8903   22.4643 O   0  0  0  0  0  0
  -23.5560  -32.1329   23.7109 O   0  0  0  0  0  0
  -30.5556  -18.5556   20.3651 C   0  0  0  0  0  0
  -30.2820  -19.9982   20.2907 C   0  0  0  0  0  0
  -28.2396  -18.1427   20.4896 C   0  0  0  0  0  0
  -29.5376  -17.5370   20.4734 C   0  0  0  0  0  0
  -28.9593  -20.5786   20.3041 C   0  0  0  0  0  0
  -27.9644  -19.5572   20.3992 C   0  0  0  0  0  0
  -28.9304  -23.3609   20.2667 C   0  0  0  0  0  0
  -27.9099  -24.6404   20.0006 C   0  0  0  0  0  0
  -28.4680  -22.0258   20.1786 N   0  0  0  0  0  0
  -29.6243  -16.0086   20.6072 N   0  0  0  0  0  0
  -30.1122  -23.5927   20.5350 O   0  0  0  0  0  0
  -26.6671  -19.9507   20.4038 F   0  0  0  0  0  0
  -31.4844  -12.7383   19.1752 H   0  0  0  0  0  0
  -30.4520  -11.6030   19.9989 H   0  0  0  0  0  0
  -29.8366  -11.7451   17.5617 H   0  0  0  0  0  0
  -29.6166  -13.4710   17.6997 H   0  0  0  0  0  0
  -27.9406  -11.2757   18.9515 H   0  0  0  0  0  0
  -27.3953  -12.4769   17.8097 H   0  0  0  0  0  0
  -27.6101  -14.2476   19.4324 H   0  0  0  0  0  0
  -28.7617  -12.2309   21.4245 H   0  0  0  0  0  0
  -28.3859  -13.8962   21.7849 H   0  0  0  0  0  0
  -25.2767   -9.5674   22.4762 H   0  0  0  0  0  0
  -23.9995   -7.4633   22.7476 H   0  0  0  0  0  0
  -21.0839   -8.8784   19.8959 H   0  0  0  0  0  0
  -22.3705  -10.9676   19.6171 H   0  0  0  0  0  0
  -21.2010   -7.6141   23.9709 H   0  0  0  0  0  0
  -21.1483   -6.0517   25.9072 H   0  0  0  0  0  0
  -22.0596   -2.7603   23.2848 H   0  0  0  0  0  0
  -22.4073  -11.9888   22.4838 H   0  0  0  0  0  0
  -21.1080  -13.1251   22.2629 H   0  0  0  0  0  0
  -24.6299  -15.8279   20.4806 H   0  0  0  0  0  0
  -26.2201  -15.6099   19.9582 H   0  0  0  0  0  0
  -26.7284  -32.5304   23.1019 H   0  0  0  0  0  0
  -25.0087  -33.9620   25.0332 H   0  0  0  0  0  0
  -22.7507  -31.2922   21.3828 H   0  0  0  0  0  0
  -23.3749  -35.9597   23.3319 H   0  0  0  0  0  0
  -24.3573  -36.8871   22.2053 H   0  0  0  0  0  0
  -23.7267  -37.6465   23.6669 H   0  0  0  0  0  0
  -26.1638  -31.4760   20.6202 H   0  0  0  0  0  0
  -26.8746  -30.7664   22.0337 H   0  0  0  0  0  0
  -28.1353  -28.7977   21.2346 H   0  0  0  0  0  0
  -25.8960  -25.8642   18.9812 H   0  0  0  0  0  0
  -23.9771  -27.3112   18.9782 H   0  0  0  0  0  0
  -23.8123  -30.5751   19.4004 H   0  0  0  0  0  0
  -22.7889  -29.2427   19.8418 H   0  0  0  0  0  0
  -25.1316  -36.1868   25.0809 H   0  0  0  0  0  0
  -21.0023  -28.3313   24.1353 H   0  0  0  0  0  0
  -20.5685  -26.2336   23.3623 H   0  0  0  0  0  0
  -21.6660  -26.7422   22.1202 H   0  0  0  0  0  0
  -19.6920  -25.6282   21.1257 H   0  0  0  0  0  0
  -19.6691  -27.3176   20.6736 H   0  0  0  0  0  0
  -17.4212  -26.6677   21.4036 H   0  0  0  0  0  0
  -18.0343  -26.0079   22.9031 H   0  0  0  0  0  0
  -19.7955  -30.7300   24.2228 H   0  0  0  0  0  0
  -17.5024  -31.6263   24.5165 H   0  0  0  0  0  0
  -15.5366  -30.2968   23.7664 H   0  0  0  0  0  0
  -15.8700  -28.0805   22.7076 H   0  0  0  0  0  0
  -24.5890  -30.7107   25.7742 H   0  0  0  0  0  0
  -24.8890  -32.2951   26.4780 H   0  0  0  0  0  0
  -25.7980  -30.8981   27.0239 H   0  0  0  0  0  0
  -26.3004  -29.6679   24.1307 H   0  0  0  0  0  0
  -27.3959  -29.7249   25.4905 H   0  0  0  0  0  0
  -27.8931  -30.4168   23.9663 H   0  0  0  0  0  0
  -27.2655  -33.3642   26.2046 H   0  0  0  0  0  0
  -28.3893  -32.6869   25.0356 H   0  0  0  0  0  0
  -28.0707  -31.8484   26.5461 H   0  0  0  0  0  0
  -28.2614  -38.0066   24.7468 H   0  0  0  0  0  0
  -28.1045  -36.2596   24.6362 H   0  0  0  0  0  0
  -27.2283  -37.1523   25.8873 H   0  0  0  0  0  0
  -20.9479  -29.8766   21.6786 H   0  0  0  0  0  0
  -26.0164  -38.2816   24.1359 H   0  0  0  0  0  0
  -31.5893  -18.2394   20.3456 H   0  0  0  0  0  0
  -31.1257  -20.6684   20.2073 H   0  0  0  0  0  0
  -27.3790  -17.4966   20.5727 H   0  0  0  0  0  0
  -27.0217  -24.4352   20.5988 H   0  0  0  0  0  0
  -27.6067  -24.5279   18.9598 H   0  0  0  0  0  0
  -27.4699  -22.0293   20.0105 H   0  0  0  0  0  0
  -28.7206  -15.6158   20.8204 H   0  0  0  0  0  0
  1 25  1  0  0  0
  1 30  2  0  0  0
  1 80  1  0  0  0
  2  3  1  0  0  0
  2 25  1  0  0  0
  2 83  1  0  0  0
  2 84  1  0  0  0
  3  4  1  0  0  0
  3 85  1  0  0  0
  3 86  1  0  0  0
  4  5  1  0  0  0
  4 87  1  0  0  0
  4 88  1  0  0  0
  5  6  1  0  0  0
  5 26  1  0  0  0
  5 89  1  0  0  0
  6 25  1  0  0  0
  6 90  1  0  0  0
  6 91  1  0  0  0
  7  8  2  0  0  0
  7 26  1  0  0  0
  7 29  1  0  0  0
  8  9  1  0  0  0
  8 22  1  0  0  0
  9 10  1  0  0  0
  9 27  2  0  0  0
 10 11  2  0  0  0
 10 15  1  0  0  0
 11 12  1  0  0  0
 11 92  1  0  0  0
 12 13  2  0  0  0
 12 93  1  0  0  0
 13 14  1  0  0  0
 13 31  1  0  0  0
 14 15  2  0  0  0
 14 94  1  0  0  0
 15 95  1  0  0  0
 16 17  2  0  0  0
 16 21  1  0  0  0
 16 31  1  0  0  0
 17 18  1  0  0  0
 17 96  1  0  0  0
 18 19  2  0  0  0
 18 97  1  0  0  0
 19 20  1  0  0  0
 19 24  1  0  0  0
 20 21  2  0  0  0
 20 98  1  0  0  0
 21 23  1  0  0  0
 22 28  1  0  0  0
 22 32  2  0  0  0
 26 27  1  0  0  0
 28 99  1  0  0  0
 28100  1  0  0  0
 29101  1  0  0  0
 29102  1  0  0  0
 33 34  1  0  0  0
 33 66  1  0  0  0
 33 70  2  0  0  0
 34 36  1  0  0  0
 34 59  1  0  0  0
 34103  1  0  0  0
 35 44  2  0  0  0
 35 45  1  0  0  0
 35 68  1  0  0  0
 36 56  1  0  0  0
 36104  1  0  0  0
 37 39  1  0  0  0
 37 47  1  0  0  0
 37 66  1  0  0  0
 37105  1  0  0  0
 38 43  2  0  0  0
 38 46  1  0  0  0
 38 47  1  0  0  0
 39 64  1  0  0  0
 39 67  2  0  0  0
 40 52  1  0  0  0
 40 53  2  0  0  0
 40 58  1  0  0  0
 41106  1  0  0  0
 41107  1  0  0  0
 41108  1  0  0  0
 41 48  1  0  0  0
 42 43  1  0  0  0
 42 66  1  0  0  0
 42109  1  0  0  0
 42110  1  0  0  0
 43 44  1  0  0  0
 44111  1  0  0  0
 45 46  2  0  0  0
 45112  1  0  0  0
 46113  1  0  0  0
 47114  1  0  0  0
 47115  1  0  0  0
 48 56  1  0  0  0
 48 65  1  0  0  0
 48116  1  0  0  0
 49 50  1  0  0  0
 49 53  1  0  0  0
 49 64  1  0  0  0
 49117  1  0  0  0
 50 51  1  0  0  0
 50118  1  0  0  0
 50119  1  0  0  0
 51 52  1  0  0  0
 51120  1  0  0  0
 51121  1  0  0  0
 52122  1  0  0  0
 52123  1  0  0  0
 53 54  1  0  0  0
 54 55  2  0  0  0
 54124  1  0  0  0
 55 57  1  0  0  0
 55125  1  0  0  0
 56 69  2  0  0  0
 57 58  2  0  0  0
 57126  1  0  0  0
 58127  1  0  0  0
 59 60  1  0  0  0
 59 61  1  0  0  0
 59 62  1  0  0  0
 60128  1  0  0  0
 60129  1  0  0  0
 60130  1  0  0  0
 61131  1  0  0  0
 61132  1  0  0  0
 61133  1  0  0  0
 62134  1  0  0  0
 62135  1  0  0  0
 62136  1  0  0  0
 63 65  1  0  0  0
 63137  1  0  0  0
 63138  1  0  0  0
 63139  1  0  0  0
 64140  1  0  0  0
 65141  1  0  0  0
 68 78  1  0  0  0
 71 72  2  0  0  0
 71 74  1  0  0  0
 71142  1  0  0  0
 72 75  1  0  0  0
 72143  1  0  0  0
 73 74  2  0  0  0
 73 76  1  0  0  0
 73144  1  0  0  0
 74 80  1  0  0  0
 75 76  2  0  0  0
 75 79  1  0  0  0
 76 82  1  0  0  0
 77 78  1  0  0  0
 77 79  1  0  0  0
 77 81  2  0  0  0
 78145  1  0  0  0
 78146  1  0  0  0
 79147  1  0  0  0
 80148  1  0  0  0
M  ISO  4   1 100  68 101  78 101  80 100
M  END
> <chiral flag>
0

> <version>
0

> <s_m_source_file>
/data/baiqing/PycharmProjects/Reinvent-master-3.2/result/LINK_invent/BTK/process_docking_weight1_custom_sum_contain_oxygen_bond_distance_aromatic_linkinvent_7_9_3/rearranged_h_0009.sdf

> <i_m_source_file_index>
94

> <r_mmod_Potential_Energy-OPLS-2005>
408.086791992188

> <r_mmod_Stretch_Energy-OPLS-2005>
218.79460144043

> <r_mmod_Bend_Energy-OPLS-2005>
281.798767089844

> <r_mmod_Torsional_Energy-OPLS-2005>
220.497772216797

> <r_mmod_Improper_Torsional_Energy-OPLS-2005>
5.07187652587891

> <r_mmod_Van_der_Waal_Energy-OPLS-2005>
130.193206787109

> <r_mmod_Electrostatic_Energy-OPLS-2005>
-389.395721435547

> <r_mmod_Solvation_Energy-OPLS-2005>
-242.372695922852

> <b_mmod_Minimization_Converged-OPLS-2005>
0

> <r_mmod_RMS_Derivative-OPLS-2005>
0.813941478729248

$$$$
