0
                    3D
 Structure written by MMmdl.
165173  0  0  1  0            999 V2000
  -30.6730  -14.4842   20.6055 C   0  0  0  0  0  0
  -30.4302  -12.3270   19.4136 C   0  0  0  0  0  0
  -29.5012  -12.5379   18.1993 C   0  0  0  0  0  0
  -28.0231  -12.3841   18.6095 C   0  0  0  0  0  0
  -27.6654  -13.2045   19.8810 C   0  0  2  0  0  0
  -28.7043  -12.9514   20.9958 C   0  0  0  0  0  0
  -25.2601  -13.8132   20.5650 C   0  0  0  0  0  0
  -24.1855  -13.0428   20.9115 C   0  0  0  0  0  0
  -24.6393  -11.6886   20.8701 C   0  0  0  0  0  0
  -23.9061  -10.4294   21.0383 C   0  0  0  0  0  0
  -24.3619   -9.4218   21.9173 C   0  0  0  0  0  0
  -23.6297   -8.2262   22.0756 C   0  0  0  0  0  0
  -22.4284   -8.0267   21.3537 C   0  0  0  0  0  0
  -21.9914   -9.0239   20.4650 C   0  0  0  0  0  0
  -22.7234  -10.2123   20.3044 C   0  0  0  0  0  0
  -21.6869   -6.0709   22.5255 C   0  0  0  0  0  0
  -21.4049   -6.5626   23.8189 C   0  0  0  0  0  0
  -21.3673   -5.6774   24.9158 C   0  0  0  0  0  0
  -21.6049   -4.3030   24.7212 C   0  0  0  0  0  0
  -21.8816   -3.8115   23.4348 C   0  0  0  0  0  0
  -21.9208   -4.6938   22.3391 C   0  0  0  0  0  0
  -22.7873  -13.5234   21.1785 C   0  0  0  0  0  0
  -22.1647   -4.2119   21.0966 F   0  0  0  0  0  0
  -21.5644   -3.4519   25.7730 F   0  0  0  0  0  0
  -30.0335  -13.2894   20.4541 N   0  0  0  0  0  0
  -26.3044  -12.9301   20.3349 N   0  0  0  0  0  0
  -25.9321  -11.6463   20.5727 N   0  0  0  0  0  0
  -22.0510  -12.8270   22.0371 N   0  0  0  0  0  0
  -25.4308  -15.1850   20.4088 N   0  0  0  0  0  0
  -31.7771  -14.7152   20.1025 O   0  0  0  0  0  0
  -21.6660   -6.8850   21.4214 O   0  0  0  0  0  0
  -22.3573  -14.5540   20.6596 O   0  0  0  0  0  0
  -24.6243  -31.8658   23.2078 C   0  0  0  0  0  0
  -25.9109  -32.4805   23.8386 C   0  0  1  0  0  0
  -27.2101  -27.3770   20.0752 C   0  0  0  0  0  0
  -25.5937  -33.8612   24.2299 N   0  0  0  0  0  0
  -23.4123  -30.4915   21.5566 C   0  0  2  0  0  0
  -24.8461  -28.9492   20.1186 C   0  0  0  0  0  0
  -22.7447  -29.4663   22.5015 C   0  0  0  0  0  0
  -18.0265  -28.1392   22.8454 C   0  0  0  0  0  0
  -24.1483  -36.7311   23.2632 C   0  0  0  0  0  0
  -25.9499  -30.7995   21.3763 C   0  0  0  0  0  0
  -26.0171  -29.4357   20.7140 C   0  0  0  0  0  0
  -27.2050  -28.6592   20.6844 C   0  0  0  0  0  0
  -26.0240  -26.9323   19.4505 C   0  0  0  0  0  0
  -24.8446  -27.6962   19.4876 C   0  0  0  0  0  0
  -23.6198  -29.8319   20.1698 C   0  0  0  0  0  0
  -25.4113  -36.3123   24.0331 C   0  0  1  0  0  0
  -20.5860  -28.3691   23.1268 C   0  0  2  0  0  0
  -20.6765  -26.9431   22.5376 C   0  0  0  0  0  0
  -19.5751  -26.6392   21.5167 C   0  0  0  0  0  0
  -18.1929  -26.7934   22.1585 C   0  0  0  0  0  0
  -19.1516  -28.8858   23.2852 C   0  0  0  0  0  0
  -18.9452  -30.1451   23.8876 C   0  0  0  0  0  0
  -17.6459  -30.6591   24.0553 C   0  0  0  0  0  0
  -25.9049  -34.9484   23.5108 C   0  0  0  0  0  0
  -16.5347  -29.9086   23.6343 C   0  0  0  0  0  0
  -16.7255  -28.6507   23.0354 C   0  0  0  0  0  0
  -26.4507  -31.6598   25.0741 C   0  0  0  0  0  0
  -25.3774  -31.3713   26.1487 C   0  0  0  0  0  0
  -27.0304  -30.3013   24.6161 C   0  0  0  0  0  0
  -27.6067  -32.4351   25.7531 C   0  0  0  0  0  0
  -27.5590  -37.1808   24.8468 C   0  0  0  0  0  0
  -21.4176  -29.3053   22.3697 N   0  0  0  0  0  0
  -26.4300  -37.3809   23.9410 N   0  0  0  0  0  0
  -24.6820  -31.0673   22.1045 N   0  0  0  0  0  0
  -23.4188  -28.8229   23.3108 O   0  0  0  0  0  0
  -28.3459  -26.5794   20.0680 O   0  0  0  0  0  0
  -26.5614  -34.8950   22.4672 O   0  0  0  0  0  0
  -23.5410  -32.1470   23.7410 O   0  0  0  0  0  0
  -29.0667  -17.4601   19.3024 C   0  0  0  0  0  0
  -30.0718  -19.2650   20.5725 C   0  0  0  0  0  0
  -29.7912  -17.8763   20.4390 C   0  0  0  0  0  0
  -28.6172  -18.3893   18.3399 C   0  0  0  0  0  0
  -29.6433  -20.2205   19.6109 C   0  0  0  0  0  0
  -28.8991  -19.7719   18.4839 C   0  0  0  0  0  0
  -27.8128  -17.8840   17.1509 C   0  0  0  0  0  0
  -28.3795  -20.7399   17.4197 C   0  0  0  0  0  0
  -31.6084  -17.1059   22.1172 C   0  0  0  0  0  0
  -30.0448  -21.7011   19.7768 C   0  0  0  0  0  0
  -28.9131  -22.6813   20.2086 C   0  0  0  0  0  0
  -29.1818  -24.1801   19.8507 C   0  0  0  0  0  0
  -28.1506  -25.1853   20.4416 C   0  0  0  0  0  0
  -30.2059  -16.8575   21.5319 C   0  0  2  0  0  0
  -29.9541  -15.4228   21.2572 N   0  0  0  0  0  0
  -31.4778  -12.4401   19.1202 H   0  0  0  0  0  0
  -30.3331  -11.3075   19.7883 H   0  0  0  0  0  0
  -29.7487  -11.8275   17.4093 H   0  0  0  0  0  0
  -29.6621  -13.5315   17.7773 H   0  0  0  0  0  0
  -27.8468  -11.3244   18.7940 H   0  0  0  0  0  0
  -27.3672  -12.6617   17.7818 H   0  0  0  0  0  0
  -27.7175  -14.2596   19.6114 H   0  0  0  0  0  0
  -28.6891  -11.9014   21.2936 H   0  0  0  0  0  0
  -28.4542  -13.5051   21.9016 H   0  0  0  0  0  0
  -25.2758   -9.5718   22.4742 H   0  0  0  0  0  0
  -23.9981   -7.4703   22.7520 H   0  0  0  0  0  0
  -21.0817   -8.8762   19.9012 H   0  0  0  0  0  0
  -22.3653  -10.9653   19.6151 H   0  0  0  0  0  0
  -21.2032   -7.6138   23.9674 H   0  0  0  0  0  0
  -21.1508   -6.0518   25.9057 H   0  0  0  0  0  0
  -22.0590   -2.7580   23.2845 H   0  0  0  0  0  0
  -22.4116  -11.9959   22.4830 H   0  0  0  0  0  0
  -21.1127  -13.1328   22.2531 H   0  0  0  0  0  0
  -24.6572  -15.8308   20.5248 H   0  0  0  0  0  0
  -26.2824  -15.6388   20.1055 H   0  0  0  0  0  0
  -26.7179  -32.5476   23.1133 H   0  0  0  0  0  0
  -25.0113  -33.9788   25.0463 H   0  0  0  0  0  0
  -22.7057  -31.3137   21.4214 H   0  0  0  0  0  0
  -23.3765  -35.9622   23.3306 H   0  0  0  0  0  0
  -24.3554  -36.8921   22.2039 H   0  0  0  0  0  0
  -23.7212  -37.6510   23.6639 H   0  0  0  0  0  0
  -26.0812  -31.5584   20.6046 H   0  0  0  0  0  0
  -26.8325  -30.8397   22.0035 H   0  0  0  0  0  0
  -28.1141  -29.0249   21.1394 H   0  0  0  0  0  0
  -25.9892  -25.9938   18.9150 H   0  0  0  0  0  0
  -23.9455  -27.3183   19.0192 H   0  0  0  0  0  0
  -23.7592  -30.6130   19.4227 H   0  0  0  0  0  0
  -22.7316  -29.2788   19.8598 H   0  0  0  0  0  0
  -25.1284  -36.1988   25.0821 H   0  0  0  0  0  0
  -20.9906  -28.3263   24.1409 H   0  0  0  0  0  0
  -20.5632  -26.2327   23.3583 H   0  0  0  0  0  0
  -21.6646  -26.7476   22.1193 H   0  0  0  0  0  0
  -19.6920  -25.6294   21.1224 H   0  0  0  0  0  0
  -19.6684  -27.3177   20.6680 H   0  0  0  0  0  0
  -17.4198  -26.6645   21.3999 H   0  0  0  0  0  0
  -18.0364  -26.0072   22.8981 H   0  0  0  0  0  0
  -19.7933  -30.7238   24.2260 H   0  0  0  0  0  0
  -17.5028  -31.6265   24.5164 H   0  0  0  0  0  0
  -15.5351  -30.2982   23.7675 H   0  0  0  0  0  0
  -15.8656  -28.0802   22.7111 H   0  0  0  0  0  0
  -24.5942  -30.7061   25.7827 H   0  0  0  0  0  0
  -24.8981  -32.2867   26.4975 H   0  0  0  0  0  0
  -25.8140  -30.8864   27.0224 H   0  0  0  0  0  0
  -26.2813  -29.6809   24.1208 H   0  0  0  0  0  0
  -27.4005  -29.7230   25.4634 H   0  0  0  0  0  0
  -27.8721  -30.4272   23.9343 H   0  0  0  0  0  0
  -27.2639  -33.3630   26.2128 H   0  0  0  0  0  0
  -28.3879  -32.6943   25.0378 H   0  0  0  0  0  0
  -28.0732  -31.8469   26.5445 H   0  0  0  0  0  0
  -28.2617  -38.0102   24.7538 H   0  0  0  0  0  0
  -28.1084  -36.2633   24.6277 H   0  0  0  0  0  0
  -27.2302  -37.1450   25.8871 H   0  0  0  0  0  0
  -20.9380  -29.8777   21.6882 H   0  0  0  0  0  0
  -26.0199  -38.2887   24.1425 H   0  0  0  0  0  0
  -28.8347  -16.4155   19.1670 H   0  0  0  0  0  0
  -30.6253  -19.6197   21.4299 H   0  0  0  0  0  0
  -27.6238  -16.8121   17.2027 H   0  0  0  0  0  0
  -28.3386  -18.0811   16.2151 H   0  0  0  0  0  0
  -26.8460  -18.3857   17.1124 H   0  0  0  0  0  0
  -28.6177  -20.3827   16.4184 H   0  0  0  0  0  0
  -28.7920  -21.7434   17.4914 H   0  0  0  0  0  0
  -27.2941  -20.8221   17.4934 H   0  0  0  0  0  0
  -31.6652  -18.0745   22.6130 H   0  0  0  0  0  0
  -32.3787  -17.0751   21.3467 H   0  0  0  0  0  0
  -31.8531  -16.3582   22.8728 H   0  0  0  0  0  0
  -30.4952  -22.0335   18.8409 H   0  0  0  0  0  0
  -30.8584  -21.7634   20.4995 H   0  0  0  0  0  0
  -28.7470  -22.5712   21.2809 H   0  0  0  0  0  0
  -27.9741  -22.3806   19.7413 H   0  0  0  0  0  0
  -29.1905  -24.2765   18.7636 H   0  0  0  0  0  0
  -30.1816  -24.4538   20.1875 H   0  0  0  0  0  0
  -28.2000  -25.1392   21.5300 H   0  0  0  0  0  0
  -27.1626  -24.8052   20.1894 H   0  0  0  0  0  0
  -29.5137  -17.0585   22.3517 H   0  0  0  0  0  0
  -29.0828  -15.0791   21.6324 H   0  0  0  0  0  0
  1 25  1  0  0  0
  1 30  2  0  0  0
  1 85  1  0  0  0
  2  3  1  0  0  0
  2 25  1  0  0  0
  2 86  1  0  0  0
  2 87  1  0  0  0
  3  4  1  0  0  0
  3 88  1  0  0  0
  3 89  1  0  0  0
  4  5  1  0  0  0
  4 90  1  0  0  0
  4 91  1  0  0  0
  5  6  1  0  0  0
  5 26  1  0  0  0
  5 92  1  0  0  0
  6 25  1  0  0  0
  6 93  1  0  0  0
  6 94  1  0  0  0
  7  8  2  0  0  0
  7 26  1  0  0  0
  7 29  1  0  0  0
  8  9  1  0  0  0
  8 22  1  0  0  0
  9 10  1  0  0  0
  9 27  2  0  0  0
 10 11  2  0  0  0
 10 15  1  0  0  0
 11 12  1  0  0  0
 11 95  1  0  0  0
 12 13  2  0  0  0
 12 96  1  0  0  0
 13 14  1  0  0  0
 13 31  1  0  0  0
 14 15  2  0  0  0
 14 97  1  0  0  0
 15 98  1  0  0  0
 16 17  2  0  0  0
 16 21  1  0  0  0
 16 31  1  0  0  0
 17 18  1  0  0  0
 17 99  1  0  0  0
 18 19  2  0  0  0
 18100  1  0  0  0
 19 20  1  0  0  0
 19 24  1  0  0  0
 20 21  2  0  0  0
 20101  1  0  0  0
 21 23  1  0  0  0
 22 28  1  0  0  0
 22 32  2  0  0  0
 26 27  1  0  0  0
 28102  1  0  0  0
 28103  1  0  0  0
 29104  1  0  0  0
 29105  1  0  0  0
 33 34  1  0  0  0
 33 66  1  0  0  0
 33 70  2  0  0  0
 34 36  1  0  0  0
 34 59  1  0  0  0
 34106  1  0  0  0
 35 44  2  0  0  0
 35 45  1  0  0  0
 35 68  1  0  0  0
 36 56  1  0  0  0
 36107  1  0  0  0
 37 39  1  0  0  0
 37 47  1  0  0  0
 37 66  1  0  0  0
 37108  1  0  0  0
 38 43  2  0  0  0
 38 46  1  0  0  0
 38 47  1  0  0  0
 39 64  1  0  0  0
 39 67  2  0  0  0
 40 52  1  0  0  0
 40 53  2  0  0  0
 40 58  1  0  0  0
 41109  1  0  0  0
 41110  1  0  0  0
 41111  1  0  0  0
 41 48  1  0  0  0
 42 43  1  0  0  0
 42 66  1  0  0  0
 42112  1  0  0  0
 42113  1  0  0  0
 43 44  1  0  0  0
 44114  1  0  0  0
 45 46  2  0  0  0
 45115  1  0  0  0
 46116  1  0  0  0
 47117  1  0  0  0
 47118  1  0  0  0
 48 56  1  0  0  0
 48 65  1  0  0  0
 48119  1  0  0  0
 49 50  1  0  0  0
 49 53  1  0  0  0
 49 64  1  0  0  0
 49120  1  0  0  0
 50 51  1  0  0  0
 50121  1  0  0  0
 50122  1  0  0  0
 51 52  1  0  0  0
 51123  1  0  0  0
 51124  1  0  0  0
 52125  1  0  0  0
 52126  1  0  0  0
 53 54  1  0  0  0
 54 55  2  0  0  0
 54127  1  0  0  0
 55 57  1  0  0  0
 55128  1  0  0  0
 56 69  2  0  0  0
 57 58  2  0  0  0
 57129  1  0  0  0
 58130  1  0  0  0
 59 60  1  0  0  0
 59 61  1  0  0  0
 59 62  1  0  0  0
 60131  1  0  0  0
 60132  1  0  0  0
 60133  1  0  0  0
 61134  1  0  0  0
 61135  1  0  0  0
 61136  1  0  0  0
 62137  1  0  0  0
 62138  1  0  0  0
 62139  1  0  0  0
 63 65  1  0  0  0
 63140  1  0  0  0
 63141  1  0  0  0
 63142  1  0  0  0
 64143  1  0  0  0
 65144  1  0  0  0
 68 83  1  0  0  0
 71 73  2  0  0  0
 71 74  1  0  0  0
 71145  1  0  0  0
 72 73  1  0  0  0
 72 75  2  0  0  0
 72146  1  0  0  0
 73 84  1  0  0  0
 74 76  2  0  0  0
 74 77  1  0  0  0
 75 76  1  0  0  0
 75 80  1  0  0  0
 76 78  1  0  0  0
 77147  1  0  0  0
 77148  1  0  0  0
 77149  1  0  0  0
 78150  1  0  0  0
 78151  1  0  0  0
 78152  1  0  0  0
 79153  1  0  0  0
 79154  1  0  0  0
 79155  1  0  0  0
 79 84  1  0  0  0
 80 81  1  0  0  0
 80156  1  0  0  0
 80157  1  0  0  0
 81 82  1  0  0  0
 81158  1  0  0  0
 81159  1  0  0  0
 82 83  1  0  0  0
 82160  1  0  0  0
 82161  1  0  0  0
 83162  1  0  0  0
 83163  1  0  0  0
 84 85  1  0  0  0
 84164  1  0  0  0
 85165  1  0  0  0
M  ISO  4   1 100  68 101  83 101  85 100
M  END
> <chiral flag>
0

> <version>
0

> <s_m_source_file>
/data/baiqing/PycharmProjects/Reinvent-master-3.2/result/LINK_invent/BTK/process_docking_weight1_custom_sum_contain_oxygen_bond_distance_aromatic_linkinvent_7_9_3/rearranged_h_0088.sdf

> <i_m_source_file_index>
1

> <r_mmod_Potential_Energy-OPLS-2005>
-90.320930480957

> <r_mmod_Stretch_Energy-OPLS-2005>
48.4816703796387

> <r_mmod_Bend_Energy-OPLS-2005>
111.106666564941

> <r_mmod_Torsional_Energy-OPLS-2005>
199.333755493164

> <r_mmod_Improper_Torsional_Energy-OPLS-2005>
2.71310305595398

> <r_mmod_Van_der_Waal_Energy-OPLS-2005>
153.569107055664

> <r_mmod_Electrostatic_Energy-OPLS-2005>
-421.154479980469

> <r_mmod_Solvation_Energy-OPLS-2005>
-203.957870483398

> <b_mmod_Minimization_Converged-OPLS-2005>
0

> <r_mmod_RMS_Derivative-OPLS-2005>
3.93632793426514

$$$$
1
                    3D
 Structure written by MMmdl.
163171  0  0  1  0            999 V2000
  -30.6975  -14.5455   20.4782 C   0  0  0  0  0  0
  -30.4014  -12.3242   19.4551 C   0  0  0  0  0  0
  -29.4873  -12.4703   18.2205 C   0  0  0  0  0  0
  -28.0135  -12.3209   18.6404 C   0  0  0  0  0  0
  -27.6441  -13.2136   19.8536 C   0  0  2  0  0  0
  -28.6859  -13.0967   20.9900 C   0  0  0  0  0  0
  -25.2506  -13.8139   20.5722 C   0  0  0  0  0  0
  -24.1774  -13.0400   20.9217 C   0  0  0  0  0  0
  -24.6358  -11.6883   20.8739 C   0  0  0  0  0  0
  -23.9036  -10.4256   21.0403 C   0  0  0  0  0  0
  -24.3583   -9.4171   21.9171 C   0  0  0  0  0  0
  -23.6268   -8.2203   22.0748 C   0  0  0  0  0  0
  -22.4255   -8.0254   21.3538 C   0  0  0  0  0  0
  -21.9906   -9.0230   20.4629 C   0  0  0  0  0  0
  -22.7223  -10.2105   20.3039 C   0  0  0  0  0  0
  -21.6840   -6.0720   22.5276 C   0  0  0  0  0  0
  -21.4018   -6.5625   23.8210 C   0  0  0  0  0  0
  -21.3649   -5.6783   24.9173 C   0  0  0  0  0  0
  -21.6033   -4.3055   24.7227 C   0  0  0  0  0  0
  -21.8814   -3.8127   23.4347 C   0  0  0  0  0  0
  -21.9198   -4.6943   22.3399 C   0  0  0  0  0  0
  -22.7801  -13.5193   21.1906 C   0  0  0  0  0  0
  -22.1679   -4.2123   21.0981 F   0  0  0  0  0  0
  -21.5618   -3.4555   25.7744 F   0  0  0  0  0  0
  -30.0076  -13.3714   20.4151 N   0  0  0  0  0  0
  -26.2926  -12.9331   20.3297 N   0  0  0  0  0  0
  -25.9282  -11.6497   20.5786 N   0  0  0  0  0  0
  -22.0482  -12.8121   22.0446 N   0  0  0  0  0  0
  -25.4241  -15.1846   20.4131 N   0  0  0  0  0  0
  -31.8943  -14.6034   20.1989 O   0  0  0  0  0  0
  -21.6616   -6.8853   21.4236 O   0  0  0  0  0  0
  -22.3482  -14.5536   20.6830 O   0  0  0  0  0  0
  -24.6138  -31.8686   23.2120 C   0  0  0  0  0  0
  -25.9006  -32.4847   23.8429 C   0  0  1  0  0  0
  -27.2265  -27.4051   20.0976 C   0  0  0  0  0  0
  -25.5833  -33.8642   24.2327 N   0  0  0  0  0  0
  -23.4045  -30.4908   21.5558 C   0  0  2  0  0  0
  -24.8505  -28.9651   20.1114 C   0  0  0  0  0  0
  -22.7432  -29.4633   22.5014 C   0  0  0  0  0  0
  -18.0259  -28.1368   22.8509 C   0  0  0  0  0  0
  -24.1469  -36.7347   23.2634 C   0  0  0  0  0  0
  -25.9369  -30.8244   21.3720 C   0  0  0  0  0  0
  -26.0138  -29.4596   20.7131 C   0  0  0  0  0  0
  -27.2054  -28.6901   20.6993 C   0  0  0  0  0  0
  -26.0385  -26.9428   19.4803 C   0  0  0  0  0  0
  -24.8608  -27.7095   19.4877 C   0  0  0  0  0  0
  -23.6132  -29.8336   20.1681 C   0  0  0  0  0  0
  -25.4086  -36.3129   24.0329 C   0  0  1  0  0  0
  -20.5858  -28.3654   23.1329 C   0  0  2  0  0  0
  -20.6745  -26.9386   22.5427 C   0  0  0  0  0  0
  -19.5737  -26.6383   21.5216 C   0  0  0  0  0  0
  -18.1906  -26.7921   22.1627 C   0  0  0  0  0  0
  -19.1505  -28.8829   23.2920 C   0  0  0  0  0  0
  -18.9434  -30.1438   23.8921 C   0  0  0  0  0  0
  -17.6440  -30.6573   24.0576 C   0  0  0  0  0  0
  -25.8994  -34.9496   23.5126 C   0  0  0  0  0  0
  -16.5328  -29.9068   23.6358 C   0  0  0  0  0  0
  -16.7250  -28.6492   23.0363 C   0  0  0  0  0  0
  -26.4451  -31.6635   25.0769 C   0  0  0  0  0  0
  -25.3712  -31.3705   26.1501 C   0  0  0  0  0  0
  -27.0308  -30.3085   24.6169 C   0  0  0  0  0  0
  -27.6039  -32.4367   25.7501 C   0  0  0  0  0  0
  -27.5568  -37.1820   24.8463 C   0  0  0  0  0  0
  -21.4148  -29.3020   22.3760 N   0  0  0  0  0  0
  -26.4282  -37.3799   23.9396 N   0  0  0  0  0  0
  -24.6693  -31.0754   22.1049 N   0  0  0  0  0  0
  -23.4206  -28.8127   23.3016 O   0  0  0  0  0  0
  -28.3803  -26.6337   20.1362 O   0  0  0  0  0  0
  -26.5619  -34.8949   22.4720 O   0  0  0  0  0  0
  -23.5316  -32.1454   23.7469 O   0  0  0  0  0  0
  -30.1392  -19.5356   20.8405 C   0  0  0  0  0  0
  -29.7139  -18.2831   20.4376 C   0  0  0  0  0  0
  -28.0014  -19.7353   20.3136 C   0  0  0  0  0  0
  -26.6272  -20.2711   20.0493 C   0  0  0  0  0  0
  -30.8017  -17.0524   18.6236 C   0  0  0  0  0  0
  -30.7780  -24.9555   19.6478 C   0  0  0  0  0  0
  -29.3395  -22.8456   19.8763 C   0  0  0  0  0  0
  -29.0876  -21.8750   21.0695 C   0  0  0  0  0  0
  -28.2599  -25.2239   19.8302 C   0  0  0  0  0  0
  -30.5182  -17.0203   20.1400 C   0  0  2  0  0  0
  -29.4863  -24.3669   20.2491 C   0  0  2  0  0  0
  -29.0809  -20.4156   20.7408 N   0  0  0  0  0  0
  -28.3868  -18.4604   20.1247 N   0  3  0  0  0  0
  -29.9703  -15.6936   20.5517 N   0  0  0  0  0  0
  -31.4519  -12.3874   19.1648 H   0  0  0  0  0  0
  -30.2784  -11.3369   19.9078 H   0  0  0  0  0  0
  -29.7364  -11.7168   17.4726 H   0  0  0  0  0  0
  -29.6384  -13.4386   17.7419 H   0  0  0  0  0  0
  -27.8579  -11.2738   18.9032 H   0  0  0  0  0  0
  -27.3491  -12.5278   17.7988 H   0  0  0  0  0  0
  -27.6578  -14.2395   19.4855 H   0  0  0  0  0  0
  -28.6700  -12.0968   21.4263 H   0  0  0  0  0  0
  -28.4530  -13.7898   21.8022 H   0  0  0  0  0  0
  -25.2737   -9.5641   22.4757 H   0  0  0  0  0  0
  -23.9967   -7.4587   22.7478 H   0  0  0  0  0  0
  -21.0846   -8.8731   19.8945 H   0  0  0  0  0  0
  -22.3675  -10.9640   19.6148 H   0  0  0  0  0  0
  -21.2032   -7.6147   23.9708 H   0  0  0  0  0  0
  -21.1485   -6.0524   25.9071 H   0  0  0  0  0  0
  -22.0616   -2.7603   23.2856 H   0  0  0  0  0  0
  -22.4175  -11.9723   22.4649 H   0  0  0  0  0  0
  -21.1136  -13.1103   22.2843 H   0  0  0  0  0  0
  -24.6514  -15.8344   20.5105 H   0  0  0  0  0  0
  -26.2599  -15.6051   20.0351 H   0  0  0  0  0  0
  -26.7050  -32.5567   23.1179 H   0  0  0  0  0  0
  -24.9894  -33.9843   25.0406 H   0  0  0  0  0  0
  -22.6915  -31.3056   21.4221 H   0  0  0  0  0  0
  -23.3730  -35.9680   23.3300 H   0  0  0  0  0  0
  -24.3539  -36.8995   22.2041 H   0  0  0  0  0  0
  -23.7256  -37.6544   23.6699 H   0  0  0  0  0  0
  -26.0573  -31.5921   20.6060 H   0  0  0  0  0  0
  -26.8193  -30.8725   21.9967 H   0  0  0  0  0  0
  -28.1033  -29.0701   21.1673 H   0  0  0  0  0  0
  -25.9916  -25.9876   18.9806 H   0  0  0  0  0  0
  -23.9678  -27.3278   19.0131 H   0  0  0  0  0  0
  -23.7220  -30.6132   19.4159 H   0  0  0  0  0  0
  -22.7376  -29.2521   19.8713 H   0  0  0  0  0  0
  -25.1261  -36.1964   25.0825 H   0  0  0  0  0  0
  -20.9959  -28.3192   24.1446 H   0  0  0  0  0  0
  -20.5624  -26.2249   23.3604 H   0  0  0  0  0  0
  -21.6612  -26.7388   22.1231 H   0  0  0  0  0  0
  -19.6891  -25.6296   21.1222 H   0  0  0  0  0  0
  -19.6678  -27.3209   20.6761 H   0  0  0  0  0  0
  -17.4181  -26.6706   21.4006 H   0  0  0  0  0  0
  -18.0277  -26.0026   22.8984 H   0  0  0  0  0  0
  -19.7891  -30.7267   24.2285 H   0  0  0  0  0  0
  -17.4974  -31.6260   24.5156 H   0  0  0  0  0  0
  -15.5323  -30.2968   23.7654 H   0  0  0  0  0  0
  -15.8665  -28.0812   22.7067 H   0  0  0  0  0  0
  -24.5878  -30.7081   25.7804 H   0  0  0  0  0  0
  -24.8917  -32.2835   26.5028 H   0  0  0  0  0  0
  -25.8033  -30.8798   27.0228 H   0  0  0  0  0  0
  -26.2849  -29.6808   24.1274 H   0  0  0  0  0  0
  -27.4117  -29.7361   25.4644 H   0  0  0  0  0  0
  -27.8676  -30.4414   23.9307 H   0  0  0  0  0  0
  -27.2670  -33.3658   26.2094 H   0  0  0  0  0  0
  -28.3792  -32.6936   25.0279 H   0  0  0  0  0  0
  -28.0780  -31.8514   26.5385 H   0  0  0  0  0  0
  -28.2592  -38.0110   24.7487 H   0  0  0  0  0  0
  -28.1065  -36.2651   24.6297 H   0  0  0  0  0  0
  -27.2314  -37.1453   25.8879 H   0  0  0  0  0  0
  -20.9293  -29.8793   21.7039 H   0  0  0  0  0  0
  -26.0179  -38.2872   24.1431 H   0  0  0  0  0  0
  -31.1245  -19.8644   21.1433 H   0  0  0  0  0  0
  -26.3177  -20.9123   20.8732 H   0  0  0  0  0  0
  -25.9312  -19.4356   19.9690 H   0  0  0  0  0  0
  -26.6404  -20.8366   19.1178 H   0  0  0  0  0  0
  -31.2835  -17.9884   18.3413 H   0  0  0  0  0  0
  -29.8819  -16.9694   18.0444 H   0  0  0  0  0  0
  -31.4657  -16.2527   18.2985 H   0  0  0  0  0  0
  -31.6639  -24.4601   20.0459 H   0  0  0  0  0  0
  -30.8810  -26.0195   19.8741 H   0  0  0  0  0  0
  -30.8010  -24.8498   18.5622 H   0  0  0  0  0  0
  -28.5472  -22.7264   19.1368 H   0  0  0  0  0  0
  -30.2445  -22.5161   19.3660 H   0  0  0  0  0  0
  -28.1427  -22.1215   21.5533 H   0  0  0  0  0  0
  -29.8626  -22.0217   21.8223 H   0  0  0  0  0  0
  -27.3869  -24.8073   20.3355 H   0  0  0  0  0  0
  -28.0992  -25.1159   18.7566 H   0  0  0  0  0  0
  -31.4708  -17.1353   20.6625 H   0  0  0  0  0  0
  -29.5819  -24.4460   21.3311 H   0  0  0  0  0  0
  -27.7813  -17.7461   19.7394 H   0  0  0  0  0  0
  -28.9878  -15.6212   20.7614 H   0  0  0  0  0  0
  1 25  1  0  0  0
  1 30  2  0  0  0
  1 84  1  0  0  0
  2  3  1  0  0  0
  2 25  1  0  0  0
  2 85  1  0  0  0
  2 86  1  0  0  0
  3  4  1  0  0  0
  3 87  1  0  0  0
  3 88  1  0  0  0
  4  5  1  0  0  0
  4 89  1  0  0  0
  4 90  1  0  0  0
  5  6  1  0  0  0
  5 26  1  0  0  0
  5 91  1  0  0  0
  6 25  1  0  0  0
  6 92  1  0  0  0
  6 93  1  0  0  0
  7  8  2  0  0  0
  7 26  1  0  0  0
  7 29  1  0  0  0
  8  9  1  0  0  0
  8 22  1  0  0  0
  9 10  1  0  0  0
  9 27  2  0  0  0
 10 11  2  0  0  0
 10 15  1  0  0  0
 11 12  1  0  0  0
 11 94  1  0  0  0
 12 13  2  0  0  0
 12 95  1  0  0  0
 13 14  1  0  0  0
 13 31  1  0  0  0
 14 15  2  0  0  0
 14 96  1  0  0  0
 15 97  1  0  0  0
 16 17  2  0  0  0
 16 21  1  0  0  0
 16 31  1  0  0  0
 17 18  1  0  0  0
 17 98  1  0  0  0
 18 19  2  0  0  0
 18 99  1  0  0  0
 19 20  1  0  0  0
 19 24  1  0  0  0
 20 21  2  0  0  0
 20100  1  0  0  0
 21 23  1  0  0  0
 22 28  1  0  0  0
 22 32  2  0  0  0
 26 27  1  0  0  0
 28101  1  0  0  0
 28102  1  0  0  0
 29103  1  0  0  0
 29104  1  0  0  0
 33 34  1  0  0  0
 33 66  1  0  0  0
 33 70  2  0  0  0
 34 36  1  0  0  0
 34 59  1  0  0  0
 34105  1  0  0  0
 35 44  2  0  0  0
 35 45  1  0  0  0
 35 68  1  0  0  0
 36 56  1  0  0  0
 36106  1  0  0  0
 37 39  1  0  0  0
 37 47  1  0  0  0
 37 66  1  0  0  0
 37107  1  0  0  0
 38 43  2  0  0  0
 38 46  1  0  0  0
 38 47  1  0  0  0
 39 64  1  0  0  0
 39 67  2  0  0  0
 40 52  1  0  0  0
 40 53  2  0  0  0
 40 58  1  0  0  0
 41108  1  0  0  0
 41109  1  0  0  0
 41110  1  0  0  0
 41 48  1  0  0  0
 42 43  1  0  0  0
 42 66  1  0  0  0
 42111  1  0  0  0
 42112  1  0  0  0
 43 44  1  0  0  0
 44113  1  0  0  0
 45 46  2  0  0  0
 45114  1  0  0  0
 46115  1  0  0  0
 47116  1  0  0  0
 47117  1  0  0  0
 48 56  1  0  0  0
 48 65  1  0  0  0
 48118  1  0  0  0
 49 50  1  0  0  0
 49 53  1  0  0  0
 49 64  1  0  0  0
 49119  1  0  0  0
 50 51  1  0  0  0
 50120  1  0  0  0
 50121  1  0  0  0
 51 52  1  0  0  0
 51122  1  0  0  0
 51123  1  0  0  0
 52124  1  0  0  0
 52125  1  0  0  0
 53 54  1  0  0  0
 54 55  2  0  0  0
 54126  1  0  0  0
 55 57  1  0  0  0
 55127  1  0  0  0
 56 69  2  0  0  0
 57 58  2  0  0  0
 57128  1  0  0  0
 58129  1  0  0  0
 59 60  1  0  0  0
 59 61  1  0  0  0
 59 62  1  0  0  0
 60130  1  0  0  0
 60131  1  0  0  0
 60132  1  0  0  0
 61133  1  0  0  0
 61134  1  0  0  0
 61135  1  0  0  0
 62136  1  0  0  0
 62137  1  0  0  0
 62138  1  0  0  0
 63 65  1  0  0  0
 63139  1  0  0  0
 63140  1  0  0  0
 63141  1  0  0  0
 64142  1  0  0  0
 65143  1  0  0  0
 68 79  1  0  0  0
 71 72  2  0  0  0
 71 82  1  0  0  0
 71144  1  0  0  0
 72 80  1  0  0  0
 72 83  1  0  0  0
 73 74  1  0  0  0
 73 82  1  0  0  0
 73 83  2  0  0  0
 74145  1  0  0  0
 74146  1  0  0  0
 74147  1  0  0  0
 75148  1  0  0  0
 75149  1  0  0  0
 75150  1  0  0  0
 75 80  1  0  0  0
 76151  1  0  0  0
 76152  1  0  0  0
 76153  1  0  0  0
 76 81  1  0  0  0
 77 78  1  0  0  0
 77 81  1  0  0  0
 77154  1  0  0  0
 77155  1  0  0  0
 78 82  1  0  0  0
 78156  1  0  0  0
 78157  1  0  0  0
 79 81  1  0  0  0
 79158  1  0  0  0
 79159  1  0  0  0
 80 84  1  0  0  0
 80160  1  0  0  0
 81161  1  0  0  0
 83162  1  0  0  0
 84163  1  0  0  0
M  CHG  1  83   1
M  ISO  4   1 100  68 101  79 101  84 100
M  END
> <chiral flag>
0

> <version>
0

> <s_m_source_file>
/data/baiqing/PycharmProjects/Reinvent-master-3.2/result/LINK_invent/BTK/process_docking_weight1_custom_sum_contain_oxygen_bond_distance_aromatic_linkinvent_7_9_3/rearranged_h_0088.sdf

> <i_m_source_file_index>
2

> <r_mmod_Potential_Energy-OPLS-2005>
-156.877410888672

> <r_mmod_Stretch_Energy-OPLS-2005>
45.9853401184082

> <r_mmod_Bend_Energy-OPLS-2005>
109.635643005371

> <r_mmod_Torsional_Energy-OPLS-2005>
233.487014770508

> <r_mmod_Improper_Torsional_Energy-OPLS-2005>
8.96538925170898

> <r_mmod_Van_der_Waal_Energy-OPLS-2005>
128.492523193359

> <r_mmod_Electrostatic_Energy-OPLS-2005>
-282.954956054688

> <r_mmod_Solvation_Energy-OPLS-2005>
-430.396514892578

> <b_mmod_Minimization_Converged-OPLS-2005>
0

> <r_mmod_RMS_Derivative-OPLS-2005>
4.24092483520508

$$$$
2
                    3D
 Structure written by MMmdl.
157165  0  0  1  0            999 V2000
  -30.6739  -14.5664   20.5292 C   0  0  0  0  0  0
  -30.4320  -12.3558   19.4372 C   0  0  0  0  0  0
  -29.4948  -12.4824   18.2165 C   0  0  0  0  0  0
  -28.0181  -12.3381   18.6365 C   0  0  0  0  0  0
  -27.6549  -13.2112   19.8675 C   0  0  2  0  0  0
  -28.7024  -13.0539   20.9924 C   0  0  0  0  0  0
  -25.2570  -13.8184   20.5701 C   0  0  0  0  0  0
  -24.1817  -13.0452   20.9198 C   0  0  0  0  0  0
  -24.6381  -11.6920   20.8758 C   0  0  0  0  0  0
  -23.9056  -10.4290   21.0417 C   0  0  0  0  0  0
  -24.3615   -9.4213   21.9197 C   0  0  0  0  0  0
  -23.6302   -8.2238   22.0762 C   0  0  0  0  0  0
  -22.4288   -8.0265   21.3548 C   0  0  0  0  0  0
  -21.9914   -9.0235   20.4657 C   0  0  0  0  0  0
  -22.7227  -10.2125   20.3078 C   0  0  0  0  0  0
  -21.6867   -6.0716   22.5275 C   0  0  0  0  0  0
  -21.4015   -6.5623   23.8197 C   0  0  0  0  0  0
  -21.3674   -5.6794   24.9168 C   0  0  0  0  0  0
  -21.6050   -4.3050   24.7238 C   0  0  0  0  0  0
  -21.8829   -3.8134   23.4364 C   0  0  0  0  0  0
  -21.9199   -4.6946   22.3410 C   0  0  0  0  0  0
  -22.7846  -13.5250   21.1850 C   0  0  0  0  0  0
  -22.1666   -4.2124   21.0990 F   0  0  0  0  0  0
  -21.5642   -3.4537   25.7750 F   0  0  0  0  0  0
  -30.0218  -13.3714   20.4221 N   0  0  0  0  0  0
  -26.2991  -12.9348   20.3361 N   0  0  0  0  0  0
  -25.9318  -11.6514   20.5822 N   0  0  0  0  0  0
  -22.0488  -12.8233   22.0408 N   0  0  0  0  0  0
  -25.4311  -15.1895   20.4098 N   0  0  0  0  0  0
  -31.8339  -14.7190   20.1392 O   0  0  0  0  0  0
  -21.6665   -6.8857   21.4236 O   0  0  0  0  0  0
  -22.3535  -14.5564   20.6719 O   0  0  0  0  0  0
  -24.6209  -31.8628   23.2097 C   0  0  0  0  0  0
  -25.9071  -32.4798   23.8416 C   0  0  1  0  0  0
  -27.2382  -27.3740   20.1001 C   0  0  0  0  0  0
  -25.5915  -33.8607   24.2350 N   0  0  0  0  0  0
  -23.4139  -30.4872   21.5487 C   0  0  2  0  0  0
  -24.8626  -28.9502   20.1128 C   0  0  0  0  0  0
  -22.7452  -29.4624   22.4952 C   0  0  0  0  0  0
  -18.0288  -28.1365   22.8483 C   0  0  0  0  0  0
  -24.1486  -36.7310   23.2643 C   0  0  0  0  0  0
  -25.9528  -30.8089   21.3747 C   0  0  0  0  0  0
  -26.0284  -29.4429   20.7111 C   0  0  0  0  0  0
  -27.2200  -28.6682   20.6933 C   0  0  0  0  0  0
  -26.0471  -26.9167   19.4890 C   0  0  0  0  0  0
  -24.8714  -27.6899   19.4937 C   0  0  0  0  0  0
  -23.6285  -29.8254   20.1629 C   0  0  0  0  0  0
  -25.4108  -36.3113   24.0350 C   0  0  1  0  0  0
  -20.5877  -28.3671   23.1287 C   0  0  2  0  0  0
  -20.6764  -26.9394   22.5403 C   0  0  0  0  0  0
  -19.5751  -26.6371   21.5194 C   0  0  0  0  0  0
  -18.1935  -26.7910   22.1610 C   0  0  0  0  0  0
  -19.1535  -28.8830   23.2886 C   0  0  0  0  0  0
  -18.9458  -30.1425   23.8908 C   0  0  0  0  0  0
  -17.6461  -30.6570   24.0551 C   0  0  0  0  0  0
  -25.9034  -34.9466   23.5145 C   0  0  0  0  0  0
  -16.5353  -29.9066   23.6320 C   0  0  0  0  0  0
  -16.7271  -28.6476   23.0352 C   0  0  0  0  0  0
  -26.4496  -31.6586   25.0755 C   0  0  0  0  0  0
  -25.3778  -31.3678   26.1515 C   0  0  0  0  0  0
  -27.0325  -30.3023   24.6148 C   0  0  0  0  0  0
  -27.6058  -32.4324   25.7514 C   0  0  0  0  0  0
  -27.5593  -37.1818   24.8475 C   0  0  0  0  0  0
  -21.4167  -29.3038   22.3694 N   0  0  0  0  0  0
  -26.4310  -37.3789   23.9411 N   0  0  0  0  0  0
  -24.6806  -31.0683   22.1014 N   0  0  0  0  0  0
  -23.4185  -28.8151   23.3013 O   0  0  0  0  0  0
  -28.3863  -26.5808   20.1307 O   0  0  0  0  0  0
  -26.5595  -34.8909   22.4707 O   0  0  0  0  0  0
  -23.5383  -32.1408   23.7445 O   0  0  0  0  0  0
  -29.7524  -19.4808   20.3051 C   0  0  0  0  0  0
  -29.3710  -20.3466   19.2315 C   0  0  0  0  0  0
  -29.8475  -18.0685   20.0616 C   0  0  0  0  0  0
  -29.1292  -19.6912   17.9957 C   0  0  0  0  0  0
  -28.7665  -20.4621   16.7384 C   0  0  0  0  0  0
  -29.2463  -21.9055   19.2675 C   0  0  0  0  0  0
  -30.3529  -17.0431   21.1095 C   0  0  0  0  0  0
  -29.3666  -22.7213   20.5872 C   0  0  0  0  0  0
  -29.4866  -24.2934   20.4337 C   0  0  0  0  0  0
  -28.2209  -25.1292   20.0390 C   0  0  0  0  0  0
  -29.5613  -17.5502   18.8441 N   0  0  0  0  0  0
  -29.2164  -18.3474   17.8322 N   0  0  0  0  0  0
  -29.9325  -15.6193   20.9464 N   0  0  0  0  0  0
  -31.4709  -12.4748   19.1264 H   0  0  0  0  0  0
  -30.3680  -11.3587   19.8781 H   0  0  0  0  0  0
  -29.7399  -11.7167   17.4800 H   0  0  0  0  0  0
  -29.6433  -13.4441   17.7238 H   0  0  0  0  0  0
  -27.8404  -11.2863   18.8676 H   0  0  0  0  0  0
  -27.3610  -12.5732   17.7989 H   0  0  0  0  0  0
  -27.6807  -14.2477   19.5284 H   0  0  0  0  0  0
  -28.6993  -12.0338   21.3804 H   0  0  0  0  0  0
  -28.4610  -13.6958   21.8418 H   0  0  0  0  0  0
  -25.2739   -9.5720   22.4795 H   0  0  0  0  0  0
  -24.0020   -7.4645   22.7495 H   0  0  0  0  0  0
  -21.0842   -8.8745   19.8969 H   0  0  0  0  0  0
  -22.3658  -10.9675   19.6211 H   0  0  0  0  0  0
  -21.1996   -7.6129   23.9690 H   0  0  0  0  0  0
  -21.1498   -6.0523   25.9070 H   0  0  0  0  0  0
  -22.0603   -2.7593   23.2873 H   0  0  0  0  0  0
  -22.4086  -11.9885   22.4795 H   0  0  0  0  0  0
  -21.1116  -13.1278   22.2643 H   0  0  0  0  0  0
  -24.6636  -15.8457   20.5055 H   0  0  0  0  0  0
  -26.2748  -15.6200   20.0523 H   0  0  0  0  0  0
  -26.7139  -32.5481   23.1167 H   0  0  0  0  0  0
  -25.0091  -33.9773   25.0512 H   0  0  0  0  0  0
  -22.7069  -31.3079   21.4097 H   0  0  0  0  0  0
  -23.3753  -35.9640   23.3307 H   0  0  0  0  0  0
  -24.3596  -36.8912   22.2059 H   0  0  0  0  0  0
  -23.7225  -37.6514   23.6645 H   0  0  0  0  0  0
  -26.0895  -31.5806   20.6151 H   0  0  0  0  0  0
  -26.8308  -30.8477   22.0082 H   0  0  0  0  0  0
  -28.1188  -29.0505   21.1579 H   0  0  0  0  0  0
  -26.0012  -25.9541   19.0013 H   0  0  0  0  0  0
  -23.9774  -27.3083   19.0196 H   0  0  0  0  0  0
  -23.7477  -30.6049   19.4103 H   0  0  0  0  0  0
  -22.7495  -29.2557   19.8574 H   0  0  0  0  0  0
  -25.1280  -36.2005   25.0849 H   0  0  0  0  0  0
  -20.9985  -28.3223   24.1397 H   0  0  0  0  0  0
  -20.5652  -26.2270   23.3589 H   0  0  0  0  0  0
  -21.6636  -26.7409   22.1207 H   0  0  0  0  0  0
  -19.6914  -25.6285   21.1210 H   0  0  0  0  0  0
  -19.6694  -27.3180   20.6721 H   0  0  0  0  0  0
  -17.4200  -26.6649   21.4013 H   0  0  0  0  0  0
  -18.0349  -26.0051   22.9006 H   0  0  0  0  0  0
  -19.7932  -30.7229   24.2293 H   0  0  0  0  0  0
  -17.5013  -31.6252   24.5147 H   0  0  0  0  0  0
  -15.5349  -30.2970   23.7637 H   0  0  0  0  0  0
  -15.8668  -28.0784   22.7089 H   0  0  0  0  0  0
  -24.5937  -30.7031   25.7872 H   0  0  0  0  0  0
  -24.8983  -32.2810   26.5047 H   0  0  0  0  0  0
  -25.8154  -30.8805   27.0235 H   0  0  0  0  0  0
  -26.2856  -29.6780   24.1219 H   0  0  0  0  0  0
  -27.4104  -29.7272   25.4616 H   0  0  0  0  0  0
  -27.8704  -30.4349   23.9297 H   0  0  0  0  0  0
  -27.2658  -33.3601   26.2139 H   0  0  0  0  0  0
  -28.3827  -32.6931   25.0314 H   0  0  0  0  0  0
  -28.0771  -31.8433   26.5393 H   0  0  0  0  0  0
  -28.2622  -38.0104   24.7508 H   0  0  0  0  0  0
  -28.1075  -36.2637   24.6313 H   0  0  0  0  0  0
  -27.2313  -37.1484   25.8879 H   0  0  0  0  0  0
  -20.9338  -29.8805   21.6950 H   0  0  0  0  0  0
  -26.0205  -38.2882   24.1364 H   0  0  0  0  0  0
  -29.9871  -19.8789   21.2802 H   0  0  0  0  0  0
  -27.8016  -20.9539   16.8535 H   0  0  0  0  0  0
  -28.7090  -19.8081   15.8684 H   0  0  0  0  0  0
  -29.5148  -21.2244   16.5245 H   0  0  0  0  0  0
  -28.2789  -22.1633   18.8333 H   0  0  0  0  0  0
  -29.9973  -22.2885   18.5737 H   0  0  0  0  0  0
  -31.4417  -17.1018   21.1191 H   0  0  0  0  0  0
  -30.0342  -17.3768   22.0955 H   0  0  0  0  0  0
  -28.5456  -22.4691   21.2611 H   0  0  0  0  0  0
  -30.2736  -22.3881   21.0939 H   0  0  0  0  0  0
  -30.2979  -24.5269   19.7413 H   0  0  0  0  0  0
  -29.8249  -24.6772   21.3955 H   0  0  0  0  0  0
  -27.4026  -24.8274   20.6954 H   0  0  0  0  0  0
  -27.9372  -24.8620   19.0205 H   0  0  0  0  0  0
  -28.9652  -15.4244   21.1504 H   0  0  0  0  0  0
  1 25  1  0  0  0
  1 30  2  0  0  0
  1 83  1  0  0  0
  2  3  1  0  0  0
  2 25  1  0  0  0
  2 84  1  0  0  0
  2 85  1  0  0  0
  3  4  1  0  0  0
  3 86  1  0  0  0
  3 87  1  0  0  0
  4  5  1  0  0  0
  4 88  1  0  0  0
  4 89  1  0  0  0
  5  6  1  0  0  0
  5 26  1  0  0  0
  5 90  1  0  0  0
  6 25  1  0  0  0
  6 91  1  0  0  0
  6 92  1  0  0  0
  7  8  2  0  0  0
  7 26  1  0  0  0
  7 29  1  0  0  0
  8  9  1  0  0  0
  8 22  1  0  0  0
  9 10  1  0  0  0
  9 27  2  0  0  0
 10 11  2  0  0  0
 10 15  1  0  0  0
 11 12  1  0  0  0
 11 93  1  0  0  0
 12 13  2  0  0  0
 12 94  1  0  0  0
 13 14  1  0  0  0
 13 31  1  0  0  0
 14 15  2  0  0  0
 14 95  1  0  0  0
 15 96  1  0  0  0
 16 17  2  0  0  0
 16 21  1  0  0  0
 16 31  1  0  0  0
 17 18  1  0  0  0
 17 97  1  0  0  0
 18 19  2  0  0  0
 18 98  1  0  0  0
 19 20  1  0  0  0
 19 24  1  0  0  0
 20 21  2  0  0  0
 20 99  1  0  0  0
 21 23  1  0  0  0
 22 28  1  0  0  0
 22 32  2  0  0  0
 26 27  1  0  0  0
 28100  1  0  0  0
 28101  1  0  0  0
 29102  1  0  0  0
 29103  1  0  0  0
 33 34  1  0  0  0
 33 66  1  0  0  0
 33 70  2  0  0  0
 34 36  1  0  0  0
 34 59  1  0  0  0
 34104  1  0  0  0
 35 44  2  0  0  0
 35 45  1  0  0  0
 35 68  1  0  0  0
 36 56  1  0  0  0
 36105  1  0  0  0
 37 39  1  0  0  0
 37 47  1  0  0  0
 37 66  1  0  0  0
 37106  1  0  0  0
 38 43  2  0  0  0
 38 46  1  0  0  0
 38 47  1  0  0  0
 39 64  1  0  0  0
 39 67  2  0  0  0
 40 52  1  0  0  0
 40 53  2  0  0  0
 40 58  1  0  0  0
 41107  1  0  0  0
 41108  1  0  0  0
 41109  1  0  0  0
 41 48  1  0  0  0
 42 43  1  0  0  0
 42 66  1  0  0  0
 42110  1  0  0  0
 42111  1  0  0  0
 43 44  1  0  0  0
 44112  1  0  0  0
 45 46  2  0  0  0
 45113  1  0  0  0
 46114  1  0  0  0
 47115  1  0  0  0
 47116  1  0  0  0
 48 56  1  0  0  0
 48 65  1  0  0  0
 48117  1  0  0  0
 49 50  1  0  0  0
 49 53  1  0  0  0
 49 64  1  0  0  0
 49118  1  0  0  0
 50 51  1  0  0  0
 50119  1  0  0  0
 50120  1  0  0  0
 51 52  1  0  0  0
 51121  1  0  0  0
 51122  1  0  0  0
 52123  1  0  0  0
 52124  1  0  0  0
 53 54  1  0  0  0
 54 55  2  0  0  0
 54125  1  0  0  0
 55 57  1  0  0  0
 55126  1  0  0  0
 56 69  2  0  0  0
 57 58  2  0  0  0
 57127  1  0  0  0
 58128  1  0  0  0
 59 60  1  0  0  0
 59 61  1  0  0  0
 59 62  1  0  0  0
 60129  1  0  0  0
 60130  1  0  0  0
 60131  1  0  0  0
 61132  1  0  0  0
 61133  1  0  0  0
 61134  1  0  0  0
 62135  1  0  0  0
 62136  1  0  0  0
 62137  1  0  0  0
 63 65  1  0  0  0
 63138  1  0  0  0
 63139  1  0  0  0
 63140  1  0  0  0
 64141  1  0  0  0
 65142  1  0  0  0
 68 80  1  0  0  0
 71 72  2  0  0  0
 71 73  1  0  0  0
 71143  1  0  0  0
 72 74  1  0  0  0
 72 76  1  0  0  0
 73 77  1  0  0  0
 73 81  2  0  0  0
 74 75  1  0  0  0
 74 82  2  0  0  0
 75144  1  0  0  0
 75145  1  0  0  0
 75146  1  0  0  0
 76 78  1  0  0  0
 76147  1  0  0  0
 76148  1  0  0  0
 77 83  1  0  0  0
 77149  1  0  0  0
 77150  1  0  0  0
 78 79  1  0  0  0
 78151  1  0  0  0
 78152  1  0  0  0
 79 80  1  0  0  0
 79153  1  0  0  0
 79154  1  0  0  0
 80155  1  0  0  0
 80156  1  0  0  0
 81 82  1  0  0  0
 83157  1  0  0  0
M  ISO  4   1 100  68 101  80 101  83 100
M  END
> <chiral flag>
0

> <version>
0

> <s_m_source_file>
/data/baiqing/PycharmProjects/Reinvent-master-3.2/result/LINK_invent/BTK/process_docking_weight1_custom_sum_contain_oxygen_bond_distance_aromatic_linkinvent_7_9_3/rearranged_h_0088.sdf

> <i_m_source_file_index>
3

> <r_mmod_Potential_Energy-OPLS-2005>
-102.12329864502

> <r_mmod_Stretch_Energy-OPLS-2005>
60.1425628662109

> <r_mmod_Bend_Energy-OPLS-2005>
125.415908813477

> <r_mmod_Torsional_Energy-OPLS-2005>
196.206909179688

> <r_mmod_Improper_Torsional_Energy-OPLS-2005>
3.47988224029541

> <r_mmod_Van_der_Waal_Energy-OPLS-2005>
149.771514892578

> <r_mmod_Electrostatic_Energy-OPLS-2005>
-428.843475341797

> <r_mmod_Solvation_Energy-OPLS-2005>
-236.798065185547

> <b_mmod_Minimization_Converged-OPLS-2005>
0

> <r_mmod_RMS_Derivative-OPLS-2005>
2.96797466278076

$$$$
3
                    3D
 Structure written by MMmdl.
168176  0  0  1  0            999 V2000
  -30.7121  -14.5229   20.3854 C   0  0  0  0  0  0
  -30.4127  -12.2932   19.4389 C   0  0  0  0  0  0
  -29.4921  -12.4683   18.2095 C   0  0  0  0  0  0
  -28.0150  -12.3451   18.6294 C   0  0  0  0  0  0
  -27.6597  -13.2141   19.8666 C   0  0  2  0  0  0
  -28.7209  -13.0850   20.9863 C   0  0  0  0  0  0
  -25.2627  -13.8180   20.5788 C   0  0  0  0  0  0
  -24.1890  -13.0475   20.9269 C   0  0  0  0  0  0
  -24.6458  -11.6924   20.8807 C   0  0  0  0  0  0
  -23.9121  -10.4323   21.0465 C   0  0  0  0  0  0
  -24.3666   -9.4195   21.9237 C   0  0  0  0  0  0
  -23.6340   -8.2238   22.0779 C   0  0  0  0  0  0
  -22.4308   -8.0335   21.3588 C   0  0  0  0  0  0
  -21.9961   -9.0300   20.4666 C   0  0  0  0  0  0
  -22.7290  -10.2166   20.3092 C   0  0  0  0  0  0
  -21.6855   -6.0795   22.5287 C   0  0  0  0  0  0
  -21.4012   -6.5677   23.8235 C   0  0  0  0  0  0
  -21.3641   -5.6816   24.9192 C   0  0  0  0  0  0
  -21.6061   -4.3098   24.7227 C   0  0  0  0  0  0
  -21.8805   -3.8190   23.4352 C   0  0  0  0  0  0
  -21.9183   -4.7021   22.3414 C   0  0  0  0  0  0
  -22.7867  -13.5233   21.1902 C   0  0  0  0  0  0
  -22.1670   -4.2210   21.1002 F   0  0  0  0  0  0
  -21.5602   -3.4557   25.7745 F   0  0  0  0  0  0
  -30.0393  -13.3453   20.3918 N   0  0  0  0  0  0
  -26.3063  -12.9353   20.3436 N   0  0  0  0  0  0
  -25.9411  -11.6502   20.5905 N   0  0  0  0  0  0
  -22.0520  -12.8223   22.0425 N   0  0  0  0  0  0
  -25.4269  -15.1919   20.4188 N   0  0  0  0  0  0
  -31.9208  -14.5978   20.1484 O   0  0  0  0  0  0
  -21.6643   -6.8935   21.4272 O   0  0  0  0  0  0
  -22.3619  -14.5564   20.6741 O   0  0  0  0  0  0
  -24.6254  -31.8655   23.2013 C   0  0  0  0  0  0
  -25.9131  -32.4866   23.8299 C   0  0  1  0  0  0
  -27.2544  -27.3514   20.0697 C   0  0  0  0  0  0
  -25.5956  -33.8651   24.2265 N   0  0  0  0  0  0
  -23.4169  -30.4832   21.5477 C   0  0  2  0  0  0
  -24.8592  -28.9245   20.1189 C   0  0  0  0  0  0
  -22.7412  -29.4710   22.4998 C   0  0  0  0  0  0
  -18.0294  -28.1424   22.8515 C   0  0  0  0  0  0
  -24.1442  -36.7279   23.2631 C   0  0  0  0  0  0
  -25.9515  -30.7942   21.3642 C   0  0  0  0  0  0
  -26.0276  -29.4194   20.7105 C   0  0  0  0  0  0
  -27.2184  -28.6421   20.6795 C   0  0  0  0  0  0
  -26.0581  -26.8873   19.4804 C   0  0  0  0  0  0
  -24.8732  -27.6582   19.5035 C   0  0  0  0  0  0
  -23.6278  -29.8103   20.1639 C   0  0  0  0  0  0
  -25.4096  -36.3144   24.0304 C   0  0  1  0  0  0
  -20.5896  -28.3678   23.1282 C   0  0  2  0  0  0
  -20.6795  -26.9436   22.5329 C   0  0  0  0  0  0
  -19.5777  -26.6396   21.5172 C   0  0  0  0  0  0
  -18.1959  -26.7984   22.1600 C   0  0  0  0  0  0
  -19.1574  -28.8840   23.2913 C   0  0  0  0  0  0
  -18.9536  -30.1441   23.8916 C   0  0  0  0  0  0
  -17.6555  -30.6609   24.0609 C   0  0  0  0  0  0
  -25.9044  -34.9512   23.5070 C   0  0  0  0  0  0
  -16.5426  -29.9174   23.6422 C   0  0  0  0  0  0
  -16.7283  -28.6594   23.0416 C   0  0  0  0  0  0
  -26.4591  -31.6699   25.0617 C   0  0  0  0  0  0
  -25.3892  -31.3896   26.1404 C   0  0  0  0  0  0
  -27.0436  -30.3155   24.6029 C   0  0  0  0  0  0
  -27.6276  -32.4493   25.7182 C   0  0  0  0  0  0
  -27.5552  -37.1767   24.8484 C   0  0  0  0  0  0
  -21.4141  -29.3111   22.3668 N   0  0  0  0  0  0
  -26.4284  -37.3830   23.9393 N   0  0  0  0  0  0
  -24.6837  -31.0630   22.0964 N   0  0  0  0  0  0
  -23.4090  -28.8295   23.3157 O   0  0  0  0  0  0
  -28.4432  -26.6052   20.0741 O   0  0  0  0  0  0
  -26.5602  -34.9005   22.4648 O   0  0  0  0  0  0
  -23.5426  -32.1519   23.7341 O   0  0  0  0  0  0
  -29.5390  -20.2727   23.5537 C   0  0  0  0  0  0
  -28.2998  -21.7639   22.1013 C   0  0  0  0  0  0
  -28.3902  -21.0345   23.2858 C   0  0  0  0  0  0
  -30.4667  -20.0232   22.5156 C   0  0  0  0  0  0
  -29.2099  -21.5819   21.0462 C   0  0  0  0  0  0
  -30.1571  -20.4986   21.1993 C   0  0  0  0  0  0
  -27.1977  -21.0635   24.2099 C   0  0  0  0  0  0
  -33.0324  -19.7704   22.8190 C   0  0  0  0  0  0
  -31.6524  -19.0896   22.8280 C   0  0  0  0  0  0
  -29.0240  -22.5796   19.8548 C   0  0  0  0  0  0
  -30.5782  -19.5421   20.0651 C   0  0  0  0  0  0
  -28.5614  -24.0433   20.3281 C   0  0  0  0  0  0
  -29.7942  -18.1784   20.2470 C   0  0  0  0  0  0
  -30.3768  -16.8936   19.5972 C   0  0  0  0  0  0
  -28.6273  -25.3112   19.3982 C   0  0  0  0  0  0
  -29.9509  -15.6328   20.2650 N   0  0  0  0  0  0
  -31.4637  -12.3518   19.1437 H   0  0  0  0  0  0
  -30.2820  -11.3037   19.8853 H   0  0  0  0  0  0
  -29.7226  -11.7147   17.4571 H   0  0  0  0  0  0
  -29.6586  -13.4372   17.7398 H   0  0  0  0  0  0
  -27.8198  -11.2932   18.8480 H   0  0  0  0  0  0
  -27.3616  -12.6084   17.7945 H   0  0  0  0  0  0
  -27.6751  -14.2455   19.5210 H   0  0  0  0  0  0
  -28.7119  -12.0852   21.4279 H   0  0  0  0  0  0
  -28.5154  -13.7797   21.8040 H   0  0  0  0  0  0
  -25.2808   -9.5655   22.4829 H   0  0  0  0  0  0
  -24.0040   -7.4609   22.7482 H   0  0  0  0  0  0
  -21.0895   -8.8879   19.8941 H   0  0  0  0  0  0
  -22.3823  -10.9769   19.6224 H   0  0  0  0  0  0
  -21.1998   -7.6182   23.9772 H   0  0  0  0  0  0
  -21.1481   -6.0546   25.9105 H   0  0  0  0  0  0
  -22.0580   -2.7662   23.2838 H   0  0  0  0  0  0
  -22.4151  -11.9829   22.4693 H   0  0  0  0  0  0
  -21.1178  -13.1273   22.2693 H   0  0  0  0  0  0
  -24.6486  -15.8310   20.5557 H   0  0  0  0  0  0
  -26.2600  -15.6468   20.0686 H   0  0  0  0  0  0
  -26.7176  -32.5503   23.0999 H   0  0  0  0  0  0
  -25.0167  -33.9905   25.0439 H   0  0  0  0  0  0
  -22.7130  -31.3059   21.4032 H   0  0  0  0  0  0
  -23.3771  -35.9521   23.3368 H   0  0  0  0  0  0
  -24.3500  -36.8856   22.2027 H   0  0  0  0  0  0
  -23.7123  -37.6464   23.6644 H   0  0  0  0  0  0
  -26.0708  -31.5491   20.5850 H   0  0  0  0  0  0
  -26.8389  -30.8499   21.9865 H   0  0  0  0  0  0
  -28.1232  -29.0223   21.1293 H   0  0  0  0  0  0
  -26.0171  -25.9191   19.0077 H   0  0  0  0  0  0
  -23.9700  -27.2659   19.0568 H   0  0  0  0  0  0
  -23.7520  -30.5989   19.4179 H   0  0  0  0  0  0
  -22.7352  -29.2562   19.8667 H   0  0  0  0  0  0
  -25.1302  -36.1981   25.0789 H   0  0  0  0  0  0
  -21.0058  -28.3235   24.1422 H   0  0  0  0  0  0
  -20.5725  -26.2293   23.3510 H   0  0  0  0  0  0
  -21.6670  -26.7496   22.1101 H   0  0  0  0  0  0
  -19.6934  -25.6292   21.1220 H   0  0  0  0  0  0
  -19.6780  -27.3195   20.6722 H   0  0  0  0  0  0
  -17.4215  -26.6764   21.3999 H   0  0  0  0  0  0
  -18.0390  -26.0062   22.8953 H   0  0  0  0  0  0
  -19.8021  -30.7246   24.2236 H   0  0  0  0  0  0
  -17.5168  -31.6347   24.5165 H   0  0  0  0  0  0
  -15.5455  -30.3100   23.7758 H   0  0  0  0  0  0
  -15.8688  -28.0914   22.7153 H   0  0  0  0  0  0
  -24.5743  -30.7668   25.7667 H   0  0  0  0  0  0
  -24.9466  -32.3151   26.5125 H   0  0  0  0  0  0
  -25.8203  -30.8836   27.0075 H   0  0  0  0  0  0
  -26.2886  -29.6823   24.1348 H   0  0  0  0  0  0
  -27.4404  -29.7500   25.4490 H   0  0  0  0  0  0
  -27.8704  -30.4514   23.9029 H   0  0  0  0  0  0
  -27.3000  -33.3800   26.1858 H   0  0  0  0  0  0
  -28.3827  -32.7138   24.9749 H   0  0  0  0  0  0
  -28.1268  -31.8635   26.4908 H   0  0  0  0  0  0
  -28.2608  -38.0043   24.7545 H   0  0  0  0  0  0
  -28.0990  -36.2551   24.6288 H   0  0  0  0  0  0
  -27.2252  -37.1420   25.8890 H   0  0  0  0  0  0
  -20.9278  -29.8769   21.6826 H   0  0  0  0  0  0
  -26.0209  -38.2934   24.1283 H   0  0  0  0  0  0
  -29.6470  -19.7812   24.5107 H   0  0  0  0  0  0
  -27.4621  -22.4375   22.0178 H   0  0  0  0  0  0
  -27.2485  -21.8789   24.9296 H   0  0  0  0  0  0
  -27.0948  -20.1022   24.7161 H   0  0  0  0  0  0
  -26.2992  -21.2176   23.6096 H   0  0  0  0  0  0
  -33.8138  -19.0640   23.1044 H   0  0  0  0  0  0
  -33.0908  -20.5873   23.5369 H   0  0  0  0  0  0
  -33.2858  -20.1586   21.8332 H   0  0  0  0  0  0
  -31.6997  -18.2393   22.1467 H   0  0  0  0  0  0
  -31.4957  -18.6578   23.8179 H   0  0  0  0  0  0
  -28.2837  -22.1654   19.1672 H   0  0  0  0  0  0
  -29.9656  -22.6315   19.3074 H   0  0  0  0  0  0
  -31.6507  -19.3522   20.1230 H   0  0  0  0  0  0
  -30.4009  -19.9774   19.0780 H   0  0  0  0  0  0
  -29.1800  -24.2824   21.1954 H   0  0  0  0  0  0
  -27.5292  -24.0172   20.6707 H   0  0  0  0  0  0
  -29.6952  -17.9342   21.3067 H   0  0  0  0  0  0
  -28.7628  -18.3314   19.9272 H   0  0  0  0  0  0
  -31.4668  -16.9520   19.5595 H   0  0  0  0  0  0
  -30.0362  -16.8504   18.5583 H   0  0  0  0  0  0
  -27.9843  -25.2128   18.5263 H   0  0  0  0  0  0
  -29.6397  -25.3339   18.9953 H   0  0  0  0  0  0
  -28.9623  -15.4971   20.4118 H   0  0  0  0  0  0
  1 25  1  0  0  0
  1 30  2  0  0  0
  1 86  1  0  0  0
  2  3  1  0  0  0
  2 25  1  0  0  0
  2 87  1  0  0  0
  2 88  1  0  0  0
  3  4  1  0  0  0
  3 89  1  0  0  0
  3 90  1  0  0  0
  4  5  1  0  0  0
  4 91  1  0  0  0
  4 92  1  0  0  0
  5  6  1  0  0  0
  5 26  1  0  0  0
  5 93  1  0  0  0
  6 25  1  0  0  0
  6 94  1  0  0  0
  6 95  1  0  0  0
  7  8  2  0  0  0
  7 26  1  0  0  0
  7 29  1  0  0  0
  8  9  1  0  0  0
  8 22  1  0  0  0
  9 10  1  0  0  0
  9 27  2  0  0  0
 10 11  2  0  0  0
 10 15  1  0  0  0
 11 12  1  0  0  0
 11 96  1  0  0  0
 12 13  2  0  0  0
 12 97  1  0  0  0
 13 14  1  0  0  0
 13 31  1  0  0  0
 14 15  2  0  0  0
 14 98  1  0  0  0
 15 99  1  0  0  0
 16 17  2  0  0  0
 16 21  1  0  0  0
 16 31  1  0  0  0
 17 18  1  0  0  0
 17100  1  0  0  0
 18 19  2  0  0  0
 18101  1  0  0  0
 19 20  1  0  0  0
 19 24  1  0  0  0
 20 21  2  0  0  0
 20102  1  0  0  0
 21 23  1  0  0  0
 22 28  1  0  0  0
 22 32  2  0  0  0
 26 27  1  0  0  0
 28103  1  0  0  0
 28104  1  0  0  0
 29105  1  0  0  0
 29106  1  0  0  0
 33 34  1  0  0  0
 33 66  1  0  0  0
 33 70  2  0  0  0
 34 36  1  0  0  0
 34 59  1  0  0  0
 34107  1  0  0  0
 35 44  2  0  0  0
 35 45  1  0  0  0
 35 68  1  0  0  0
 36 56  1  0  0  0
 36108  1  0  0  0
 37 39  1  0  0  0
 37 47  1  0  0  0
 37 66  1  0  0  0
 37109  1  0  0  0
 38 43  2  0  0  0
 38 46  1  0  0  0
 38 47  1  0  0  0
 39 64  1  0  0  0
 39 67  2  0  0  0
 40 52  1  0  0  0
 40 53  2  0  0  0
 40 58  1  0  0  0
 41110  1  0  0  0
 41111  1  0  0  0
 41112  1  0  0  0
 41 48  1  0  0  0
 42 43  1  0  0  0
 42 66  1  0  0  0
 42113  1  0  0  0
 42114  1  0  0  0
 43 44  1  0  0  0
 44115  1  0  0  0
 45 46  2  0  0  0
 45116  1  0  0  0
 46117  1  0  0  0
 47118  1  0  0  0
 47119  1  0  0  0
 48 56  1  0  0  0
 48 65  1  0  0  0
 48120  1  0  0  0
 49 50  1  0  0  0
 49 53  1  0  0  0
 49 64  1  0  0  0
 49121  1  0  0  0
 50 51  1  0  0  0
 50122  1  0  0  0
 50123  1  0  0  0
 51 52  1  0  0  0
 51124  1  0  0  0
 51125  1  0  0  0
 52126  1  0  0  0
 52127  1  0  0  0
 53 54  1  0  0  0
 54 55  2  0  0  0
 54128  1  0  0  0
 55 57  1  0  0  0
 55129  1  0  0  0
 56 69  2  0  0  0
 57 58  2  0  0  0
 57130  1  0  0  0
 58131  1  0  0  0
 59 60  1  0  0  0
 59 61  1  0  0  0
 59 62  1  0  0  0
 60132  1  0  0  0
 60133  1  0  0  0
 60134  1  0  0  0
 61135  1  0  0  0
 61136  1  0  0  0
 61137  1  0  0  0
 62138  1  0  0  0
 62139  1  0  0  0
 62140  1  0  0  0
 63 65  1  0  0  0
 63141  1  0  0  0
 63142  1  0  0  0
 63143  1  0  0  0
 64144  1  0  0  0
 65145  1  0  0  0
 68 85  1  0  0  0
 71 73  2  0  0  0
 71 74  1  0  0  0
 71146  1  0  0  0
 72 73  1  0  0  0
 72 75  2  0  0  0
 72147  1  0  0  0
 73 77  1  0  0  0
 74 76  2  0  0  0
 74 79  1  0  0  0
 75 76  1  0  0  0
 75 80  1  0  0  0
 76 81  1  0  0  0
 77148  1  0  0  0
 77149  1  0  0  0
 77150  1  0  0  0
 78 79  1  0  0  0
 78151  1  0  0  0
 78152  1  0  0  0
 78153  1  0  0  0
 79154  1  0  0  0
 79155  1  0  0  0
 80 82  1  0  0  0
 80156  1  0  0  0
 80157  1  0  0  0
 81 83  1  0  0  0
 81158  1  0  0  0
 81159  1  0  0  0
 82 85  1  0  0  0
 82160  1  0  0  0
 82161  1  0  0  0
 83 84  1  0  0  0
 83162  1  0  0  0
 83163  1  0  0  0
 84 86  1  0  0  0
 84164  1  0  0  0
 84165  1  0  0  0
 85166  1  0  0  0
 85167  1  0  0  0
 86168  1  0  0  0
M  ISO  4   1 100  68 101  85 101  86 100
M  END
> <chiral flag>
0

> <version>
0

> <s_m_source_file>
/data/baiqing/PycharmProjects/Reinvent-master-3.2/result/LINK_invent/BTK/process_docking_weight1_custom_sum_contain_oxygen_bond_distance_aromatic_linkinvent_7_9_3/rearranged_h_0088.sdf

> <i_m_source_file_index>
4

> <r_mmod_Potential_Energy-OPLS-2005>
113.238311767578

> <r_mmod_Stretch_Energy-OPLS-2005>
70.1852798461914

> <r_mmod_Bend_Energy-OPLS-2005>
152.107315063477

> <r_mmod_Torsional_Energy-OPLS-2005>
285.987335205078

> <r_mmod_Improper_Torsional_Energy-OPLS-2005>
15.0798044204712

> <r_mmod_Van_der_Waal_Energy-OPLS-2005>
157.190826416016

> <r_mmod_Electrostatic_Energy-OPLS-2005>
-400.987976074219

> <r_mmod_Solvation_Energy-OPLS-2005>
-202.172790527344

> <b_mmod_Minimization_Converged-OPLS-2005>
0

> <r_mmod_RMS_Derivative-OPLS-2005>
9.9191951751709

$$$$
4
                    3D
 Structure written by MMmdl.
170178  0  0  1  0            999 V2000
  -30.5041  -15.0010   20.3996 C   0  0  0  0  0  0
  -30.4379  -12.6219   19.5031 C   0  0  0  0  0  0
  -29.5234  -12.5400   18.2586 C   0  0  0  0  0  0
  -28.0579  -12.3151   18.6757 C   0  0  0  0  0  0
  -27.6242  -13.2504   19.8355 C   0  0  2  0  0  0
  -28.6640  -13.2969   20.9738 C   0  0  0  0  0  0
  -25.2420  -13.8151   20.5679 C   0  0  0  0  0  0
  -24.1747  -13.0378   20.9204 C   0  0  0  0  0  0
  -24.6391  -11.6878   20.8739 C   0  0  0  0  0  0
  -23.9076  -10.4263   21.0394 C   0  0  0  0  0  0
  -24.3625   -9.4188   21.9174 C   0  0  0  0  0  0
  -23.6297   -8.2230   22.0749 C   0  0  0  0  0  0
  -22.4276   -8.0269   21.3548 C   0  0  0  0  0  0
  -21.9916   -9.0234   20.4640 C   0  0  0  0  0  0
  -22.7247  -10.2110   20.3048 C   0  0  0  0  0  0
  -21.6850   -6.0732   22.5282 C   0  0  0  0  0  0
  -21.4011   -6.5631   23.8218 C   0  0  0  0  0  0
  -21.3666   -5.6783   24.9176 C   0  0  0  0  0  0
  -21.6050   -4.3046   24.7225 C   0  0  0  0  0  0
  -21.8824   -3.8140   23.4341 C   0  0  0  0  0  0
  -21.9194   -4.6960   22.3400 C   0  0  0  0  0  0
  -22.7781  -13.5161   21.1876 C   0  0  0  0  0  0
  -22.1658   -4.2148   21.0975 F   0  0  0  0  0  0
  -21.5638   -3.4529   25.7734 F   0  0  0  0  0  0
  -29.9322  -13.7252   20.3718 N   0  0  0  0  0  0
  -26.2861  -12.9415   20.3235 N   0  0  0  0  0  0
  -25.9323  -11.6544   20.5725 N   0  0  0  0  0  0
  -22.0448  -12.8159   22.0452 N   0  0  0  0  0  0
  -25.4020  -15.1865   20.4096 N   0  0  0  0  0  0
  -31.7097  -15.0706   20.1344 O   0  0  0  0  0  0
  -21.6639   -6.8867   21.4243 O   0  0  0  0  0  0
  -22.3476  -14.5489   20.6745 O   0  0  0  0  0  0
  -24.6468  -31.8427   23.1848 C   0  0  0  0  0  0
  -25.9221  -32.4694   23.8282 C   0  0  1  0  0  0
  -27.2254  -27.1090   20.1553 C   0  0  0  0  0  0
  -25.5964  -33.8502   24.2206 N   0  0  0  0  0  0
  -23.4531  -30.4576   21.5294 C   0  0  2  0  0  0
  -24.9037  -28.8748   20.1122 C   0  0  0  0  0  0
  -22.7599  -29.4530   22.4838 C   0  0  0  0  0  0
  -18.0332  -28.1385   22.8463 C   0  0  0  0  0  0
  -24.1490  -36.7235   23.2644 C   0  0  0  0  0  0
  -26.0103  -30.7050   21.3888 C   0  0  0  0  0  0
  -26.0808  -29.3124   20.7323 C   0  0  0  0  0  0
  -27.2390  -28.4445   20.7370 C   0  0  0  0  0  0
  -26.0241  -26.7808   19.4887 C   0  0  0  0  0  0
  -24.8887  -27.6237   19.4768 C   0  0  0  0  0  0
  -23.6826  -29.7816   20.1515 C   0  0  0  0  0  0
  -25.4127  -36.3029   24.0322 C   0  0  1  0  0  0
  -20.5944  -28.3717   23.1208 C   0  0  2  0  0  0
  -20.6828  -26.9418   22.5377 C   0  0  0  0  0  0
  -19.5795  -26.6361   21.5201 C   0  0  0  0  0  0
  -18.1972  -26.7924   22.1602 C   0  0  0  0  0  0
  -19.1585  -28.8871   23.2835 C   0  0  0  0  0  0
  -18.9489  -30.1451   23.8886 C   0  0  0  0  0  0
  -17.6487  -30.6578   24.0553 C   0  0  0  0  0  0
  -25.9082  -34.9400   23.5073 C   0  0  0  0  0  0
  -16.5381  -29.9073   23.6320 C   0  0  0  0  0  0
  -16.7312  -28.6488   23.0350 C   0  0  0  0  0  0
  -26.4536  -31.6568   25.0732 C   0  0  0  0  0  0
  -25.3710  -31.3760   26.1417 C   0  0  0  0  0  0
  -27.0401  -30.2964   24.6318 C   0  0  0  0  0  0
  -27.6081  -32.4325   25.7520 C   0  0  0  0  0  0
  -27.5580  -37.1772   24.8466 C   0  0  0  0  0  0
  -21.4291  -29.3048   22.3585 N   0  0  0  0  0  0
  -26.4286  -37.3747   23.9414 N   0  0  0  0  0  0
  -24.7232  -31.0247   22.0893 N   0  0  0  0  0  0
  -23.4222  -28.8114   23.3035 O   0  0  0  0  0  0
  -28.2833  -26.1226   20.2501 O   0  0  0  0  0  0
  -26.5651  -34.8894   22.4643 O   0  0  0  0  0  0
  -23.5576  -32.1324   23.7024 O   0  0  0  0  0  0
  -27.1330  -20.7667   20.4968 C   0  0  0  0  0  0
  -26.3511  -18.5191   20.6727 C   0  0  0  0  0  0
  -26.0608  -19.8815   20.5935 C   0  0  0  0  0  0
  -28.4707  -20.3399   20.3867 C   0  0  0  0  0  0
  -28.6906  -18.8261   20.4533 C   0  0  0  0  0  0
  -21.8959  -24.3253   18.8024 C   0  0  0  0  0  0
  -22.8420  -22.7895   17.0410 C   0  0  0  0  0  0
  -24.6335  -20.4193   20.6083 C   0  0  0  0  0  0
  -29.3475  -21.6933   20.1030 C   0  0  0  0  0  0
  -29.9392  -17.7527   20.3539 C   0  0  0  0  0  0
  -24.3053  -21.2742   19.3603 C   0  0  0  0  0  0
  -28.9877  -23.2939   20.6263 C   0  0  0  0  0  0
  -23.0824  -22.1965   19.5296 C   0  0  0  0  0  0
  -28.1256  -24.5891   19.9381 C   0  0  0  0  0  0
  -23.0119  -23.3238   18.4729 C   0  0  0  0  0  0
  -27.6031  -18.0280   20.6150 N   0  0  0  0  0  0
  -29.7057  -16.1787   20.5185 N   0  0  0  0  0  0
  -31.4708  -12.7897   19.1939 H   0  0  0  0  0  0
  -30.4395  -11.6756   20.0459 H   0  0  0  0  0  0
  -29.8559  -11.7397   17.5956 H   0  0  0  0  0  0
  -29.6047  -13.4645   17.6843 H   0  0  0  0  0  0
  -27.9621  -11.2731   18.9841 H   0  0  0  0  0  0
  -27.3969  -12.4387   17.8173 H   0  0  0  0  0  0
  -27.5780  -14.2503   19.4023 H   0  0  0  0  0  0
  -28.7642  -12.3234   21.4561 H   0  0  0  0  0  0
  -28.3531  -13.9994   21.7485 H   0  0  0  0  0  0
  -25.2771   -9.5666   22.4741 H   0  0  0  0  0  0
  -24.0010   -7.4618   22.7466 H   0  0  0  0  0  0
  -21.0855   -8.8742   19.8938 H   0  0  0  0  0  0
  -22.3705  -10.9640   19.6153 H   0  0  0  0  0  0
  -21.1998   -7.6133   23.9722 H   0  0  0  0  0  0
  -21.1492   -6.0505   25.9081 H   0  0  0  0  0  0
  -22.0604   -2.7598   23.2838 H   0  0  0  0  0  0
  -22.4069  -11.9813   22.4818 H   0  0  0  0  0  0
  -21.1068  -13.1183   22.2674 H   0  0  0  0  0  0
  -24.6195  -15.8208   20.5203 H   0  0  0  0  0  0
  -26.2527  -15.6479   20.1115 H   0  0  0  0  0  0
  -26.7289  -32.5276   23.1021 H   0  0  0  0  0  0
  -25.0133  -33.9639   25.0363 H   0  0  0  0  0  0
  -22.7565  -31.2822   21.3683 H   0  0  0  0  0  0
  -23.3777  -35.9537   23.3292 H   0  0  0  0  0  0
  -24.3587  -36.8887   22.2066 H   0  0  0  0  0  0
  -23.7205  -37.6415   23.6681 H   0  0  0  0  0  0
  -26.1716  -31.4589   20.6169 H   0  0  0  0  0  0
  -26.8789  -30.7560   22.0345 H   0  0  0  0  0  0
  -28.1342  -28.7725   21.2459 H   0  0  0  0  0  0
  -25.9280  -25.8278   18.9902 H   0  0  0  0  0  0
  -23.9895  -27.2840   18.9815 H   0  0  0  0  0  0
  -23.8260  -30.5536   19.3944 H   0  0  0  0  0  0
  -22.7971  -29.2245   19.8393 H   0  0  0  0  0  0
  -25.1311  -36.1882   25.0817 H   0  0  0  0  0  0
  -21.0028  -28.3311   24.1329 H   0  0  0  0  0  0
  -20.5771  -26.2332   23.3603 H   0  0  0  0  0  0
  -21.6685  -26.7454   22.1136 H   0  0  0  0  0  0
  -19.6975  -25.6262   21.1267 H   0  0  0  0  0  0
  -19.6741  -27.3138   20.6708 H   0  0  0  0  0  0
  -17.4253  -26.6686   21.3994 H   0  0  0  0  0  0
  -18.0339  -26.0069   22.8998 H   0  0  0  0  0  0
  -19.7963  -30.7260   24.2273 H   0  0  0  0  0  0
  -17.5037  -31.6254   24.5147 H   0  0  0  0  0  0
  -15.5375  -30.2971   23.7634 H   0  0  0  0  0  0
  -15.8718  -28.0791   22.7078 H   0  0  0  0  0  0
  -24.5914  -30.7093   25.7726 H   0  0  0  0  0  0
  -24.8868  -32.2937   26.4765 H   0  0  0  0  0  0
  -25.7980  -30.8997   27.0253 H   0  0  0  0  0  0
  -26.3019  -29.6693   24.1315 H   0  0  0  0  0  0
  -27.4012  -29.7267   25.4891 H   0  0  0  0  0  0
  -27.8935  -30.4222   23.9651 H   0  0  0  0  0  0
  -27.2711  -33.3664   26.2038 H   0  0  0  0  0  0
  -28.3931  -32.6830   25.0366 H   0  0  0  0  0  0
  -28.0713  -31.8492   26.5493 H   0  0  0  0  0  0
  -28.2570  -38.0092   24.7532 H   0  0  0  0  0  0
  -28.1104  -36.2623   24.6272 H   0  0  0  0  0  0
  -27.2301  -37.1391   25.8868 H   0  0  0  0  0  0
  -20.9517  -29.8751   21.6746 H   0  0  0  0  0  0
  -26.0167  -38.2818   24.1435 H   0  0  0  0  0  0
  -26.9003  -21.8196   20.4491 H   0  0  0  0  0  0
  -25.5531  -17.8000   20.7752 H   0  0  0  0  0  0
  -21.8890  -25.1557   18.0951 H   0  0  0  0  0  0
  -22.0205  -24.7496   19.7995 H   0  0  0  0  0  0
  -20.9128  -23.8549   18.7611 H   0  0  0  0  0  0
  -22.7815  -23.6079   16.3229 H   0  0  0  0  0  0
  -21.9325  -22.1955   16.9424 H   0  0  0  0  0  0
  -23.6827  -22.1655   16.7384 H   0  0  0  0  0  0
  -24.5251  -21.0191   21.5129 H   0  0  0  0  0  0
  -23.9167  -19.6020   20.6969 H   0  0  0  0  0  0
  -29.5009  -21.7342   19.0248 H   0  0  0  0  0  0
  -30.3334  -21.4576   20.5060 H   0  0  0  0  0  0
  -30.6899  -18.0549   21.0843 H   0  0  0  0  0  0
  -30.4050  -17.9007   19.3795 H   0  0  0  0  0  0
  -24.1739  -20.6246   18.4954 H   0  0  0  0  0  0
  -25.1523  -21.9150   19.1194 H   0  0  0  0  0  0
  -29.9876  -23.7251   20.6805 H   0  0  0  0  0  0
  -28.6908  -23.2297   21.6735 H   0  0  0  0  0  0
  -23.1340  -22.6616   20.5156 H   0  0  0  0  0  0
  -22.1640  -21.6057   19.5231 H   0  0  0  0  0  0
  -27.0796  -24.3401   20.1139 H   0  0  0  0  0  0
  -28.2508  -24.5110   18.8583 H   0  0  0  0  0  0
  -23.9525  -23.8776   18.5090 H   0  0  0  0  0  0
  -28.7298  -15.9960   20.7037 H   0  0  0  0  0  0
  1 25  1  0  0  0
  1 30  2  0  0  0
  1 87  1  0  0  0
  2  3  1  0  0  0
  2 25  1  0  0  0
  2 88  1  0  0  0
  2 89  1  0  0  0
  3  4  1  0  0  0
  3 90  1  0  0  0
  3 91  1  0  0  0
  4  5  1  0  0  0
  4 92  1  0  0  0
  4 93  1  0  0  0
  5  6  1  0  0  0
  5 26  1  0  0  0
  5 94  1  0  0  0
  6 25  1  0  0  0
  6 95  1  0  0  0
  6 96  1  0  0  0
  7  8  2  0  0  0
  7 26  1  0  0  0
  7 29  1  0  0  0
  8  9  1  0  0  0
  8 22  1  0  0  0
  9 10  1  0  0  0
  9 27  2  0  0  0
 10 11  2  0  0  0
 10 15  1  0  0  0
 11 12  1  0  0  0
 11 97  1  0  0  0
 12 13  2  0  0  0
 12 98  1  0  0  0
 13 14  1  0  0  0
 13 31  1  0  0  0
 14 15  2  0  0  0
 14 99  1  0  0  0
 15100  1  0  0  0
 16 17  2  0  0  0
 16 21  1  0  0  0
 16 31  1  0  0  0
 17 18  1  0  0  0
 17101  1  0  0  0
 18 19  2  0  0  0
 18102  1  0  0  0
 19 20  1  0  0  0
 19 24  1  0  0  0
 20 21  2  0  0  0
 20103  1  0  0  0
 21 23  1  0  0  0
 22 28  1  0  0  0
 22 32  2  0  0  0
 26 27  1  0  0  0
 28104  1  0  0  0
 28105  1  0  0  0
 29106  1  0  0  0
 29107  1  0  0  0
 33 34  1  0  0  0
 33 66  1  0  0  0
 33 70  2  0  0  0
 34 36  1  0  0  0
 34 59  1  0  0  0
 34108  1  0  0  0
 35 44  2  0  0  0
 35 45  1  0  0  0
 35 68  1  0  0  0
 36 56  1  0  0  0
 36109  1  0  0  0
 37 39  1  0  0  0
 37 47  1  0  0  0
 37 66  1  0  0  0
 37110  1  0  0  0
 38 43  2  0  0  0
 38 46  1  0  0  0
 38 47  1  0  0  0
 39 64  1  0  0  0
 39 67  2  0  0  0
 40 52  1  0  0  0
 40 53  2  0  0  0
 40 58  1  0  0  0
 41111  1  0  0  0
 41112  1  0  0  0
 41113  1  0  0  0
 41 48  1  0  0  0
 42 43  1  0  0  0
 42 66  1  0  0  0
 42114  1  0  0  0
 42115  1  0  0  0
 43 44  1  0  0  0
 44116  1  0  0  0
 45 46  2  0  0  0
 45117  1  0  0  0
 46118  1  0  0  0
 47119  1  0  0  0
 47120  1  0  0  0
 48 56  1  0  0  0
 48 65  1  0  0  0
 48121  1  0  0  0
 49 50  1  0  0  0
 49 53  1  0  0  0
 49 64  1  0  0  0
 49122  1  0  0  0
 50 51  1  0  0  0
 50123  1  0  0  0
 50124  1  0  0  0
 51 52  1  0  0  0
 51125  1  0  0  0
 51126  1  0  0  0
 52127  1  0  0  0
 52128  1  0  0  0
 53 54  1  0  0  0
 54 55  2  0  0  0
 54129  1  0  0  0
 55 57  1  0  0  0
 55130  1  0  0  0
 56 69  2  0  0  0
 57 58  2  0  0  0
 57131  1  0  0  0
 58132  1  0  0  0
 59 60  1  0  0  0
 59 61  1  0  0  0
 59 62  1  0  0  0
 60133  1  0  0  0
 60134  1  0  0  0
 60135  1  0  0  0
 61136  1  0  0  0
 61137  1  0  0  0
 61138  1  0  0  0
 62139  1  0  0  0
 62140  1  0  0  0
 62141  1  0  0  0
 63 65  1  0  0  0
 63142  1  0  0  0
 63143  1  0  0  0
 63144  1  0  0  0
 64145  1  0  0  0
 65146  1  0  0  0
 68 84  1  0  0  0
 71 73  2  0  0  0
 71 74  1  0  0  0
 71147  1  0  0  0
 72 73  1  0  0  0
 72 86  2  0  0  0
 72148  1  0  0  0
 73 78  1  0  0  0
 74 75  2  0  0  0
 74 79  1  0  0  0
 75 80  1  0  0  0
 75 86  1  0  0  0
 76149  1  0  0  0
 76150  1  0  0  0
 76151  1  0  0  0
 76 85  1  0  0  0
 77 85  1  0  0  0
 77152  1  0  0  0
 77153  1  0  0  0
 77154  1  0  0  0
 78 81  1  0  0  0
 78155  1  0  0  0
 78156  1  0  0  0
 79 82  1  0  0  0
 79157  1  0  0  0
 79158  1  0  0  0
 80 87  1  0  0  0
 80159  1  0  0  0
 80160  1  0  0  0
 81 83  1  0  0  0
 81161  1  0  0  0
 81162  1  0  0  0
 82 84  1  0  0  0
 82163  1  0  0  0
 82164  1  0  0  0
 83 85  1  0  0  0
 83165  1  0  0  0
 83166  1  0  0  0
 84167  1  0  0  0
 84168  1  0  0  0
 85169  1  0  0  0
 87170  1  0  0  0
M  ISO  4   1 100  68 101  84 101  87 100
M  END
> <chiral flag>
0

> <version>
0

> <s_m_source_file>
/data/baiqing/PycharmProjects/Reinvent-master-3.2/result/LINK_invent/BTK/process_docking_weight1_custom_sum_contain_oxygen_bond_distance_aromatic_linkinvent_7_9_3/rearranged_h_0088.sdf

> <i_m_source_file_index>
5

> <r_mmod_Potential_Energy-OPLS-2005>
398.1083984375

> <r_mmod_Stretch_Energy-OPLS-2005>
310.384765625

> <r_mmod_Bend_Energy-OPLS-2005>
354.977172851562

> <r_mmod_Torsional_Energy-OPLS-2005>
215.524032592773

> <r_mmod_Improper_Torsional_Energy-OPLS-2005>
4.63816452026367

> <r_mmod_Van_der_Waal_Energy-OPLS-2005>
124.75887298584

> <r_mmod_Electrostatic_Energy-OPLS-2005>
-631.233337402344

> <r_mmod_Solvation_Energy-OPLS-2005>
-206.799026489258

> <b_mmod_Minimization_Converged-OPLS-2005>
0

> <r_mmod_RMS_Derivative-OPLS-2005>
1.90558767318726

$$$$
5
                    3D
 Structure written by MMmdl.
158166  0  0  1  0            999 V2000
  -30.6354  -14.6830   20.5323 C   0  0  0  0  0  0
  -30.4373  -12.4364   19.4531 C   0  0  0  0  0  0
  -29.5062  -12.5280   18.2224 C   0  0  0  0  0  0
  -28.0268  -12.3650   18.6292 C   0  0  0  0  0  0
  -27.6508  -13.2214   19.8680 C   0  0  2  0  0  0
  -28.6981  -13.0455   20.9867 C   0  0  0  0  0  0
  -25.2539  -13.8176   20.5698 C   0  0  0  0  0  0
  -24.1810  -13.0434   20.9189 C   0  0  0  0  0  0
  -24.6387  -11.6906   20.8732 C   0  0  0  0  0  0
  -23.9059  -10.4291   21.0406 C   0  0  0  0  0  0
  -24.3612   -9.4208   21.9182 C   0  0  0  0  0  0
  -23.6290   -8.2241   22.0753 C   0  0  0  0  0  0
  -22.4272   -8.0279   21.3544 C   0  0  0  0  0  0
  -21.9906   -9.0252   20.4648 C   0  0  0  0  0  0
  -22.7231  -10.2131   20.3058 C   0  0  0  0  0  0
  -21.6855   -6.0733   22.5279 C   0  0  0  0  0  0
  -21.4013   -6.5636   23.8211 C   0  0  0  0  0  0
  -21.3658   -5.6790   24.9173 C   0  0  0  0  0  0
  -21.6050   -4.3056   24.7226 C   0  0  0  0  0  0
  -21.8816   -3.8143   23.4348 C   0  0  0  0  0  0
  -21.9192   -4.6959   22.3403 C   0  0  0  0  0  0
  -22.7834  -13.5227   21.1850 C   0  0  0  0  0  0
  -22.1661   -4.2146   21.0982 F   0  0  0  0  0  0
  -21.5630   -3.4541   25.7738 F   0  0  0  0  0  0
  -29.9973  -13.4605   20.4331 N   0  0  0  0  0  0
  -26.2975  -12.9362   20.3346 N   0  0  0  0  0  0
  -25.9317  -11.6508   20.5749 N   0  0  0  0  0  0
  -22.0477  -12.8228   22.0416 N   0  0  0  0  0  0
  -25.4251  -15.1895   20.4104 N   0  0  0  0  0  0
  -31.7868  -14.7896   20.0946 O   0  0  0  0  0  0
  -21.6639   -6.8875   21.4241 O   0  0  0  0  0  0
  -22.3518  -14.5532   20.6694 O   0  0  0  0  0  0
  -24.6283  -31.8584   23.2022 C   0  0  0  0  0  0
  -25.9129  -32.4768   23.8350 C   0  0  1  0  0  0
  -27.2201  -27.2980   20.1154 C   0  0  0  0  0  0
  -25.5939  -33.8570   24.2267 N   0  0  0  0  0  0
  -23.4220  -30.4838   21.5448 C   0  0  2  0  0  0
  -24.8688  -28.9408   20.1074 C   0  0  0  0  0  0
  -22.7482  -29.4618   22.4918 C   0  0  0  0  0  0
  -18.0291  -28.1387   22.8480 C   0  0  0  0  0  0
  -24.1491  -36.7292   23.2637 C   0  0  0  0  0  0
  -25.9666  -30.7821   21.3791 C   0  0  0  0  0  0
  -26.0394  -29.4097   20.7170 C   0  0  0  0  0  0
  -27.2173  -28.6001   20.7123 C   0  0  0  0  0  0
  -26.0265  -26.8972   19.4689 C   0  0  0  0  0  0
  -24.8655  -27.6906   19.4743 C   0  0  0  0  0  0
  -23.6380  -29.8227   20.1588 C   0  0  0  0  0  0
  -25.4119  -36.3075   24.0321 C   0  0  1  0  0  0
  -20.5891  -28.3696   23.1272 C   0  0  2  0  0  0
  -20.6780  -26.9416   22.5406 C   0  0  0  0  0  0
  -19.5757  -26.6383   21.5208 C   0  0  0  0  0  0
  -18.1937  -26.7930   22.1619 C   0  0  0  0  0  0
  -19.1543  -28.8858   23.2871 C   0  0  0  0  0  0
  -18.9466  -30.1458   23.8888 C   0  0  0  0  0  0
  -17.6465  -30.6588   24.0563 C   0  0  0  0  0  0
  -25.9056  -34.9446   23.5093 C   0  0  0  0  0  0
  -16.5356  -29.9084   23.6334 C   0  0  0  0  0  0
  -16.7276  -28.6506   23.0347 C   0  0  0  0  0  0
  -26.4507  -31.6585   25.0728 C   0  0  0  0  0  0
  -25.3734  -31.3734   26.1448 C   0  0  0  0  0  0
  -27.0358  -30.3000   24.6215 C   0  0  0  0  0  0
  -27.6055  -32.4330   25.7507 C   0  0  0  0  0  0
  -27.5580  -37.1801   24.8461 C   0  0  0  0  0  0
  -21.4194  -29.3048   22.3662 N   0  0  0  0  0  0
  -26.4293  -37.3772   23.9403 N   0  0  0  0  0  0
  -24.6908  -31.0583   22.0982 N   0  0  0  0  0  0
  -23.4205  -28.8155   23.2998 O   0  0  0  0  0  0
  -28.3218  -26.4187   20.1843 O   0  0  0  0  0  0
  -26.5622  -34.8913   22.4657 O   0  0  0  0  0  0
  -23.5445  -32.1393   23.7339 O   0  0  0  0  0  0
  -29.3441  -19.7126   20.0964 C   0  0  0  0  0  0
  -30.4505  -21.1927   21.6342 C   0  0  0  0  0  0
  -29.5152  -21.0553   20.5948 C   0  0  0  0  0  0
  -30.0885  -18.5914   20.6197 C   0  0  0  0  0  0
  -31.0075  -18.9122   21.6479 C   0  0  0  0  0  0
  -31.9276  -17.8761   22.2681 C   0  0  0  0  0  0
  -29.0768  -15.9836   22.0031 C   0  0  0  0  0  0
  -28.6975  -22.3023   20.0634 C   0  0  0  0  0  0
  -29.9994  -17.1309   19.9893 C   0  0  0  0  0  0
  -29.0909  -23.8207   20.4314 C   0  0  0  0  0  0
  -28.0791  -24.9651   19.9478 C   0  0  0  0  0  0
  -31.1653  -20.1630   22.1386 N   0  0  0  0  0  0
  -29.8980  -15.8397   20.7962 N   0  0  0  0  0  0
  -31.4743  -12.5702   19.1405 H   0  0  0  0  0  0
  -30.3958  -11.4384   19.8916 H   0  0  0  0  0  0
  -29.7758  -11.7702   17.4850 H   0  0  0  0  0  0
  -29.6448  -13.4916   17.7305 H   0  0  0  0  0  0
  -27.8584  -11.3093   18.8459 H   0  0  0  0  0  0
  -27.3755  -12.6088   17.7889 H   0  0  0  0  0  0
  -27.6752  -14.2644   19.5503 H   0  0  0  0  0  0
  -28.7388  -11.9993   21.2927 H   0  0  0  0  0  0
  -28.4155  -13.5716   21.8920 H   0  0  0  0  0  0
  -25.2756   -9.5686   22.4758 H   0  0  0  0  0  0
  -24.0004   -7.4632   22.7469 H   0  0  0  0  0  0
  -21.0841   -8.8763   19.8956 H   0  0  0  0  0  0
  -22.3685  -10.9667   19.6169 H   0  0  0  0  0  0
  -21.2003   -7.6144   23.9714 H   0  0  0  0  0  0
  -21.1488   -6.0522   25.9078 H   0  0  0  0  0  0
  -22.0597   -2.7607   23.2847 H   0  0  0  0  0  0
  -22.4083  -11.9899   22.4826 H   0  0  0  0  0  0
  -21.1090  -13.1254   22.2600 H   0  0  0  0  0  0
  -24.6625  -15.8475   20.5288 H   0  0  0  0  0  0
  -26.2829  -15.6294   20.1016 H   0  0  0  0  0  0
  -26.7191  -32.5427   23.1091 H   0  0  0  0  0  0
  -25.0090  -33.9713   25.0414 H   0  0  0  0  0  0
  -22.7169  -31.3056   21.4027 H   0  0  0  0  0  0
  -23.3750  -35.9627   23.3298 H   0  0  0  0  0  0
  -24.3580  -36.8920   22.2052 H   0  0  0  0  0  0
  -23.7252  -37.6493   23.6668 H   0  0  0  0  0  0
  -26.1055  -31.5478   20.6145 H   0  0  0  0  0  0
  -26.8441  -30.8249   22.0127 H   0  0  0  0  0  0
  -28.1118  -28.9533   21.2057 H   0  0  0  0  0  0
  -25.9538  -25.9478   18.9605 H   0  0  0  0  0  0
  -23.9705  -27.3286   18.9868 H   0  0  0  0  0  0
  -23.7592  -30.6016   19.4048 H   0  0  0  0  0  0
  -22.7572  -29.2549   19.8534 H   0  0  0  0  0  0
  -25.1302  -36.1917   25.0814 H   0  0  0  0  0  0
  -20.9984  -28.3275   24.1390 H   0  0  0  0  0  0
  -20.5682  -26.2305   23.3607 H   0  0  0  0  0  0
  -21.6649  -26.7445   22.1199 H   0  0  0  0  0  0
  -19.6920  -25.6291   21.1244 H   0  0  0  0  0  0
  -19.6698  -27.3187   20.6733 H   0  0  0  0  0  0
  -17.4205  -26.6671   21.4022 H   0  0  0  0  0  0
  -18.0342  -26.0073   22.9019 H   0  0  0  0  0  0
  -19.7941  -30.7278   24.2251 H   0  0  0  0  0  0
  -17.5019  -31.6265   24.5169 H   0  0  0  0  0  0
  -15.5356  -30.2984   23.7663 H   0  0  0  0  0  0
  -15.8675  -28.0824   22.7060 H   0  0  0  0  0  0
  -24.5897  -30.7099   25.7773 H   0  0  0  0  0  0
  -24.8944  -32.2907   26.4879 H   0  0  0  0  0  0
  -25.8050  -30.8899   27.0219 H   0  0  0  0  0  0
  -26.2942  -29.6736   24.1242 H   0  0  0  0  0  0
  -27.4037  -29.7276   25.4742 H   0  0  0  0  0  0
  -27.8822  -30.4268   23.9461 H   0  0  0  0  0  0
  -27.2648  -33.3620   26.2091 H   0  0  0  0  0  0
  -28.3867  -32.6910   25.0344 H   0  0  0  0  0  0
  -28.0724  -31.8456   26.5422 H   0  0  0  0  0  0
  -28.2591  -38.0104   24.7509 H   0  0  0  0  0  0
  -28.1083  -36.2634   24.6284 H   0  0  0  0  0  0
  -27.2297  -37.1446   25.8863 H   0  0  0  0  0  0
  -20.9370  -29.8777   21.6876 H   0  0  0  0  0  0
  -26.0169  -38.2842   24.1407 H   0  0  0  0  0  0
  -28.6438  -19.5444   19.2907 H   0  0  0  0  0  0
  -30.6430  -22.1555   22.0822 H   0  0  0  0  0  0
  -31.4057  -17.3225   23.0475 H   0  0  0  0  0  0
  -32.8017  -18.3428   22.7225 H   0  0  0  0  0  0
  -32.2946  -17.1695   21.5251 H   0  0  0  0  0  0
  -29.4225  -15.3294   22.8046 H   0  0  0  0  0  0
  -28.0342  -15.7574   21.7813 H   0  0  0  0  0  0
  -29.0894  -16.9934   22.4090 H   0  0  0  0  0  0
  -27.6685  -22.1423   20.3870 H   0  0  0  0  0  0
  -28.6680  -22.2212   18.9763 H   0  0  0  0  0  0
  -30.8532  -17.0477   19.3152 H   0  0  0  0  0  0
  -29.1335  -17.1275   19.3261 H   0  0  0  0  0  0
  -30.0816  -24.0360   20.0304 H   0  0  0  0  0  0
  -29.1818  -23.9074   21.5142 H   0  0  0  0  0  0
  -27.1253  -24.7064   20.4102 H   0  0  0  0  0  0
  -27.9404  -24.8381   18.8732 H   0  0  0  0  0  0
  1 25  1  0  0  0
  1 30  2  0  0  0
  1 83  1  0  0  0
  2  3  1  0  0  0
  2 25  1  0  0  0
  2 84  1  0  0  0
  2 85  1  0  0  0
  3  4  1  0  0  0
  3 86  1  0  0  0
  3 87  1  0  0  0
  4  5  1  0  0  0
  4 88  1  0  0  0
  4 89  1  0  0  0
  5  6  1  0  0  0
  5 26  1  0  0  0
  5 90  1  0  0  0
  6 25  1  0  0  0
  6 91  1  0  0  0
  6 92  1  0  0  0
  7  8  2  0  0  0
  7 26  1  0  0  0
  7 29  1  0  0  0
  8  9  1  0  0  0
  8 22  1  0  0  0
  9 10  1  0  0  0
  9 27  2  0  0  0
 10 11  2  0  0  0
 10 15  1  0  0  0
 11 12  1  0  0  0
 11 93  1  0  0  0
 12 13  2  0  0  0
 12 94  1  0  0  0
 13 14  1  0  0  0
 13 31  1  0  0  0
 14 15  2  0  0  0
 14 95  1  0  0  0
 15 96  1  0  0  0
 16 17  2  0  0  0
 16 21  1  0  0  0
 16 31  1  0  0  0
 17 18  1  0  0  0
 17 97  1  0  0  0
 18 19  2  0  0  0
 18 98  1  0  0  0
 19 20  1  0  0  0
 19 24  1  0  0  0
 20 21  2  0  0  0
 20 99  1  0  0  0
 21 23  1  0  0  0
 22 28  1  0  0  0
 22 32  2  0  0  0
 26 27  1  0  0  0
 28100  1  0  0  0
 28101  1  0  0  0
 29102  1  0  0  0
 29103  1  0  0  0
 33 34  1  0  0  0
 33 66  1  0  0  0
 33 70  2  0  0  0
 34 36  1  0  0  0
 34 59  1  0  0  0
 34104  1  0  0  0
 35 44  2  0  0  0
 35 45  1  0  0  0
 35 68  1  0  0  0
 36 56  1  0  0  0
 36105  1  0  0  0
 37 39  1  0  0  0
 37 47  1  0  0  0
 37 66  1  0  0  0
 37106  1  0  0  0
 38 43  2  0  0  0
 38 46  1  0  0  0
 38 47  1  0  0  0
 39 64  1  0  0  0
 39 67  2  0  0  0
 40 52  1  0  0  0
 40 53  2  0  0  0
 40 58  1  0  0  0
 41107  1  0  0  0
 41108  1  0  0  0
 41109  1  0  0  0
 41 48  1  0  0  0
 42 43  1  0  0  0
 42 66  1  0  0  0
 42110  1  0  0  0
 42111  1  0  0  0
 43 44  1  0  0  0
 44112  1  0  0  0
 45 46  2  0  0  0
 45113  1  0  0  0
 46114  1  0  0  0
 47115  1  0  0  0
 47116  1  0  0  0
 48 56  1  0  0  0
 48 65  1  0  0  0
 48117  1  0  0  0
 49 50  1  0  0  0
 49 53  1  0  0  0
 49 64  1  0  0  0
 49118  1  0  0  0
 50 51  1  0  0  0
 50119  1  0  0  0
 50120  1  0  0  0
 51 52  1  0  0  0
 51121  1  0  0  0
 51122  1  0  0  0
 52123  1  0  0  0
 52124  1  0  0  0
 53 54  1  0  0  0
 54 55  2  0  0  0
 54125  1  0  0  0
 55 57  1  0  0  0
 55126  1  0  0  0
 56 69  2  0  0  0
 57 58  2  0  0  0
 57127  1  0  0  0
 58128  1  0  0  0
 59 60  1  0  0  0
 59 61  1  0  0  0
 59 62  1  0  0  0
 60129  1  0  0  0
 60130  1  0  0  0
 60131  1  0  0  0
 61132  1  0  0  0
 61133  1  0  0  0
 61134  1  0  0  0
 62135  1  0  0  0
 62136  1  0  0  0
 62137  1  0  0  0
 63 65  1  0  0  0
 63138  1  0  0  0
 63139  1  0  0  0
 63140  1  0  0  0
 64141  1  0  0  0
 65142  1  0  0  0
 68 81  1  0  0  0
 71 73  2  0  0  0
 71 74  1  0  0  0
 71143  1  0  0  0
 72 73  1  0  0  0
 72 82  2  0  0  0
 72144  1  0  0  0
 73 78  1  0  0  0
 74 75  2  0  0  0
 74 79  1  0  0  0
 75 76  1  0  0  0
 75 82  1  0  0  0
 76145  1  0  0  0
 76146  1  0  0  0
 76147  1  0  0  0
 77 83  1  0  0  0
 77148  1  0  0  0
 77149  1  0  0  0
 77150  1  0  0  0
 78 80  1  0  0  0
 78151  1  0  0  0
 78152  1  0  0  0
 79 83  1  0  0  0
 79153  1  0  0  0
 79154  1  0  0  0
 80 81  1  0  0  0
 80155  1  0  0  0
 80156  1  0  0  0
 81157  1  0  0  0
 81158  1  0  0  0
M  ISO  4   1 100  68 101  81 101  83 100
M  END
> <chiral flag>
0

> <version>
0

> <s_m_source_file>
/data/baiqing/PycharmProjects/Reinvent-master-3.2/result/LINK_invent/BTK/process_docking_weight1_custom_sum_contain_oxygen_bond_distance_aromatic_linkinvent_7_9_3/rearranged_h_0088.sdf

> <i_m_source_file_index>
6

> <r_mmod_Potential_Energy-OPLS-2005>
108.856658935547

> <r_mmod_Stretch_Energy-OPLS-2005>
106.438514709473

> <r_mmod_Bend_Energy-OPLS-2005>
159.430648803711

> <r_mmod_Torsional_Energy-OPLS-2005>
253.79118347168

> <r_mmod_Improper_Torsional_Energy-OPLS-2005>
9.2288990020752

> <r_mmod_Van_der_Waal_Energy-OPLS-2005>
151.44889831543

> <r_mmod_Electrostatic_Energy-OPLS-2005>
-420.322174072266

> <r_mmod_Solvation_Energy-OPLS-2005>
-209.769226074219

> <b_mmod_Minimization_Converged-OPLS-2005>
0

> <r_mmod_RMS_Derivative-OPLS-2005>
0.929510891437531

$$$$
6
                    3D
 Structure written by MMmdl.
180188  0  0  1  0            999 V2000
  -30.6225  -14.7157   20.4165 C   0  0  0  0  0  0
  -30.4401  -12.4170   19.4838 C   0  0  0  0  0  0
  -29.5262  -12.4571   18.2471 C   0  0  0  0  0  0
  -28.0399  -12.3344   18.6469 C   0  0  0  0  0  0
  -27.6468  -13.2215   19.8604 C   0  0  2  0  0  0
  -28.6943  -13.1546   20.9883 C   0  0  0  0  0  0
  -25.2564  -13.8155   20.5736 C   0  0  0  0  0  0
  -24.1827  -13.0421   20.9233 C   0  0  0  0  0  0
  -24.6403  -11.6897   20.8765 C   0  0  0  0  0  0
  -23.9070  -10.4278   21.0424 C   0  0  0  0  0  0
  -24.3629   -9.4194   21.9201 C   0  0  0  0  0  0
  -23.6311   -8.2219   22.0734 C   0  0  0  0  0  0
  -22.4293   -8.0271   21.3514 C   0  0  0  0  0  0
  -21.9938   -9.0241   20.4615 C   0  0  0  0  0  0
  -22.7254  -10.2128   20.3062 C   0  0  0  0  0  0
  -21.6838   -6.0764   22.5271 C   0  0  0  0  0  0
  -21.4006   -6.5655   23.8212 C   0  0  0  0  0  0
  -21.3662   -5.6804   24.9177 C   0  0  0  0  0  0
  -21.6035   -4.3062   24.7209 C   0  0  0  0  0  0
  -21.8824   -3.8165   23.4326 C   0  0  0  0  0  0
  -21.9193   -4.6991   22.3393 C   0  0  0  0  0  0
  -22.7848  -13.5222   21.1878 C   0  0  0  0  0  0
  -22.1674   -4.2191   21.0975 F   0  0  0  0  0  0
  -21.5632   -3.4542   25.7725 F   0  0  0  0  0  0
  -29.9910  -13.4958   20.3880 N   0  0  0  0  0  0
  -26.2986  -12.9339   20.3355 N   0  0  0  0  0  0
  -25.9334  -11.6494   20.5792 N   0  0  0  0  0  0
  -22.0463  -12.8190   22.0406 N   0  0  0  0  0  0
  -25.4262  -15.1877   20.4164 N   0  0  0  0  0  0
  -31.8304  -14.7890   20.1766 O   0  0  0  0  0  0
  -21.6622   -6.8891   21.4227 O   0  0  0  0  0  0
  -22.3529  -14.5529   20.6740 O   0  0  0  0  0  0
  -24.6284  -31.8592   23.2031 C   0  0  0  0  0  0
  -25.9125  -32.4784   23.8363 C   0  0  1  0  0  0
  -27.2185  -27.2949   20.1266 C   0  0  0  0  0  0
  -25.5912  -33.8581   24.2261 N   0  0  0  0  0  0
  -23.4232  -30.4874   21.5438 C   0  0  2  0  0  0
  -24.8703  -28.9448   20.1094 C   0  0  0  0  0  0
  -22.7473  -29.4651   22.4887 C   0  0  0  0  0  0
  -18.0293  -28.1391   22.8491 C   0  0  0  0  0  0
  -24.1485  -36.7296   23.2639 C   0  0  0  0  0  0
  -25.9703  -30.7837   21.3826 C   0  0  0  0  0  0
  -26.0429  -29.4134   20.7160 C   0  0  0  0  0  0
  -27.2220  -28.6028   20.7105 C   0  0  0  0  0  0
  -26.0184  -26.8921   19.4934 C   0  0  0  0  0  0
  -24.8623  -27.6908   19.4850 C   0  0  0  0  0  0
  -23.6415  -29.8275   20.1591 C   0  0  0  0  0  0
  -25.4116  -36.3083   24.0321 C   0  0  1  0  0  0
  -20.5900  -28.3714   23.1252 C   0  0  2  0  0  0
  -20.6788  -26.9432   22.5390 C   0  0  0  0  0  0
  -19.5764  -26.6383   21.5202 C   0  0  0  0  0  0
  -18.1944  -26.7938   22.1618 C   0  0  0  0  0  0
  -19.1548  -28.8865   23.2878 C   0  0  0  0  0  0
  -18.9469  -30.1465   23.8908 C   0  0  0  0  0  0
  -17.6473  -30.6606   24.0568 C   0  0  0  0  0  0
  -25.9051  -34.9457   23.5089 C   0  0  0  0  0  0
  -16.5361  -29.9104   23.6339 C   0  0  0  0  0  0
  -16.7278  -28.6514   23.0371 C   0  0  0  0  0  0
  -26.4491  -31.6630   25.0762 C   0  0  0  0  0  0
  -25.3692  -31.3793   26.1460 C   0  0  0  0  0  0
  -27.0372  -30.3039   24.6313 C   0  0  0  0  0  0
  -27.6030  -32.4387   25.7541 C   0  0  0  0  0  0
  -27.5580  -37.1804   24.8454 C   0  0  0  0  0  0
  -21.4189  -29.3065   22.3621 N   0  0  0  0  0  0
  -26.4292  -37.3779   23.9403 N   0  0  0  0  0  0
  -24.6922  -31.0595   22.0992 N   0  0  0  0  0  0
  -23.4165  -28.8184   23.2983 O   0  0  0  0  0  0
  -28.3155  -26.4075   20.1879 O   0  0  0  0  0  0
  -26.5635  -34.8930   22.4660 O   0  0  0  0  0  0
  -23.5435  -32.1401   23.7338 O   0  0  0  0  0  0
  -29.4586  -19.7803   20.5060 C   0  0  0  0  0  0
  -29.1286  -21.0365   19.8733 C   0  0  0  0  0  0
  -29.8358  -18.5748   19.7998 C   0  0  0  0  0  0
  -29.2215  -21.0738   18.4619 C   0  0  0  0  0  0
  -29.9236  -18.6839   18.3729 C   0  0  0  0  0  0
  -29.7328  -19.9578   17.7380 C   0  0  0  0  0  0
  -28.6986  -22.3011   17.7148 C   0  0  0  0  0  0
  -29.3394  -17.0373   15.0479 C   0  0  0  0  0  0
  -28.3749  -15.7435   16.9521 C   0  0  0  0  0  0
  -32.4534  -20.9858   16.8222 C   0  0  0  0  0  0
  -31.5346  -21.2413   14.4771 C   0  0  0  0  0  0
  -28.5817  -22.2909   20.6807 C   0  0  0  0  0  0
  -30.2058  -17.4494   17.4940 C   0  0  0  0  0  0
  -30.1001  -20.1616   16.2537 C   0  0  0  0  0  0
  -30.3631  -17.3016   20.6123 C   0  0  0  0  0  0
  -29.1037  -23.8043   20.4549 C   0  0  0  0  0  0
  -28.0157  -24.9443   20.1527 C   0  0  0  0  0  0
  -29.0038  -17.0806   16.5578 C   0  0  0  0  0  0
  -31.1940  -21.2195   15.9735 C   0  0  0  0  0  0
  -29.8606  -15.8666   20.4922 N   0  0  0  0  0  0
  -31.4817  -12.5420   19.1835 H   0  0  0  0  0  0
  -30.3804  -11.4459   19.9777 H   0  0  0  0  0  0
  -29.7945  -11.6631   17.5491 H   0  0  0  0  0  0
  -29.7155  -13.3866   17.7217 H   0  0  0  0  0  0
  -27.8593  -11.2856   18.8892 H   0  0  0  0  0  0
  -27.3990  -12.5648   17.7964 H   0  0  0  0  0  0
  -27.6384  -14.2473   19.5083 H   0  0  0  0  0  0
  -28.7254  -12.1592   21.4333 H   0  0  0  0  0  0
  -28.4452  -13.8380   21.8005 H   0  0  0  0  0  0
  -25.2770   -9.5693   22.4786 H   0  0  0  0  0  0
  -24.0030   -7.4622   22.7453 H   0  0  0  0  0  0
  -21.0876   -8.8782   19.8914 H   0  0  0  0  0  0
  -22.3723  -10.9699   19.6198 H   0  0  0  0  0  0
  -21.1988   -7.6163   23.9738 H   0  0  0  0  0  0
  -21.1487   -6.0516   25.9072 H   0  0  0  0  0  0
  -22.0598   -2.7636   23.2809 H   0  0  0  0  0  0
  -22.4092  -11.9883   22.4851 H   0  0  0  0  0  0
  -21.1063  -13.1192   22.2566 H   0  0  0  0  0  0
  -24.6495  -15.8326   20.5111 H   0  0  0  0  0  0
  -26.2683  -15.6297   20.0679 H   0  0  0  0  0  0
  -26.7192  -32.5444   23.1118 H   0  0  0  0  0  0
  -25.0029  -33.9720   25.0381 H   0  0  0  0  0  0
  -22.7204  -31.3119   21.4002 H   0  0  0  0  0  0
  -23.3757  -35.9620   23.3288 H   0  0  0  0  0  0
  -24.3573  -36.8931   22.2054 H   0  0  0  0  0  0
  -23.7243  -37.6485   23.6691 H   0  0  0  0  0  0
  -26.1165  -31.5535   20.6238 H   0  0  0  0  0  0
  -26.8428  -30.8186   22.0246 H   0  0  0  0  0  0
  -28.1212  -28.9586   21.1954 H   0  0  0  0  0  0
  -25.9297  -25.9338   19.0038 H   0  0  0  0  0  0
  -23.9630  -27.3274   19.0061 H   0  0  0  0  0  0
  -23.7640  -30.6054   19.4036 H   0  0  0  0  0  0
  -22.7601  -29.2611   19.8546 H   0  0  0  0  0  0
  -25.1310  -36.1920   25.0819 H   0  0  0  0  0  0
  -21.0017  -28.3316   24.1364 H   0  0  0  0  0  0
  -20.5694  -26.2339   23.3602 H   0  0  0  0  0  0
  -21.6661  -26.7463   22.1191 H   0  0  0  0  0  0
  -19.6933  -25.6280   21.1271 H   0  0  0  0  0  0
  -19.6708  -27.3167   20.6714 H   0  0  0  0  0  0
  -17.4210  -26.6683   21.4026 H   0  0  0  0  0  0
  -18.0353  -26.0081   22.9015 H   0  0  0  0  0  0
  -19.7942  -30.7273   24.2294 H   0  0  0  0  0  0
  -17.5032  -31.6300   24.5142 H   0  0  0  0  0  0
  -15.5369  -30.3019   23.7657 H   0  0  0  0  0  0
  -15.8671  -28.0830   22.7105 H   0  0  0  0  0  0
  -24.5829  -30.7210   25.7753 H   0  0  0  0  0  0
  -24.8939  -32.2978   26.4907 H   0  0  0  0  0  0
  -25.7955  -30.8909   27.0229 H   0  0  0  0  0  0
  -26.3002  -29.6757   24.1299 H   0  0  0  0  0  0
  -27.3967  -29.7349   25.4902 H   0  0  0  0  0  0
  -27.8913  -30.4293   23.9658 H   0  0  0  0  0  0
  -27.2617  -33.3670   26.2144 H   0  0  0  0  0  0
  -28.3839  -32.6980   25.0379 H   0  0  0  0  0  0
  -28.0729  -31.8516   26.5444 H   0  0  0  0  0  0
  -28.2585  -38.0111   24.7518 H   0  0  0  0  0  0
  -28.1087  -36.2640   24.6267 H   0  0  0  0  0  0
  -27.2294  -37.1435   25.8853 H   0  0  0  0  0  0
  -20.9350  -29.8763   21.6817 H   0  0  0  0  0  0
  -26.0161  -38.2847   24.1414 H   0  0  0  0  0  0
  -29.4061  -19.7339   21.5854 H   0  0  0  0  0  0
  -27.7834  -22.6642   18.1787 H   0  0  0  0  0  0
  -28.4217  -22.0935   16.6847 H   0  0  0  0  0  0
  -29.4302  -23.1063   17.6968 H   0  0  0  0  0  0
  -28.5743  -16.4954   14.4892 H   0  0  0  0  0  0
  -30.2921  -16.5442   14.8507 H   0  0  0  0  0  0
  -29.3726  -18.0257   14.5953 H   0  0  0  0  0  0
  -27.3605  -15.6440   16.5647 H   0  0  0  0  0  0
  -28.3253  -15.6436   18.0327 H   0  0  0  0  0  0
  -28.9576  -14.9222   16.5411 H   0  0  0  0  0  0
  -33.2093  -21.7439   16.6160 H   0  0  0  0  0  0
  -32.8876  -20.0061   16.6164 H   0  0  0  0  0  0
  -32.2343  -21.0316   17.8896 H   0  0  0  0  0  0
  -32.2634  -22.0181   14.2442 H   0  0  0  0  0  0
  -30.6447  -21.4459   13.8809 H   0  0  0  0  0  0
  -31.9454  -20.2854   14.1489 H   0  0  0  0  0  0
  -28.7122  -22.0650   21.7398 H   0  0  0  0  0  0
  -27.5001  -22.2871   20.5470 H   0  0  0  0  0  0
  -30.4592  -16.5935   18.1109 H   0  0  0  0  0  0
  -31.1233  -17.6035   16.9262 H   0  0  0  0  0  0
  -29.2015  -20.3456   15.6647 H   0  0  0  0  0  0
  -30.5250  -19.2643   15.8340 H   0  0  0  0  0  0
  -30.2739  -17.5478   21.6695 H   0  0  0  0  0  0
  -31.4415  -17.2946   20.4386 H   0  0  0  0  0  0
  -29.8842  -23.8217   19.6992 H   0  0  0  0  0  0
  -29.6303  -24.0954   21.3644 H   0  0  0  0  0  0
  -27.1900  -24.7776   20.8474 H   0  0  0  0  0  0
  -27.6281  -24.7133   19.1629 H   0  0  0  0  0  0
  -28.2232  -17.8295   16.6938 H   0  0  0  0  0  0
  -30.8230  -22.2115   16.2167 H   0  0  0  0  0  0
  -28.8677  -15.7388   20.6124 H   0  0  0  0  0  0
  1 25  1  0  0  0
  1 30  2  0  0  0
  1 90  1  0  0  0
  2  3  1  0  0  0
  2 25  1  0  0  0
  2 91  1  0  0  0
  2 92  1  0  0  0
  3  4  1  0  0  0
  3 93  1  0  0  0
  3 94  1  0  0  0
  4  5  1  0  0  0
  4 95  1  0  0  0
  4 96  1  0  0  0
  5  6  1  0  0  0
  5 26  1  0  0  0
  5 97  1  0  0  0
  6 25  1  0  0  0
  6 98  1  0  0  0
  6 99  1  0  0  0
  7  8  2  0  0  0
  7 26  1  0  0  0
  7 29  1  0  0  0
  8  9  1  0  0  0
  8 22  1  0  0  0
  9 10  1  0  0  0
  9 27  2  0  0  0
 10 11  2  0  0  0
 10 15  1  0  0  0
 11 12  1  0  0  0
 11100  1  0  0  0
 12 13  2  0  0  0
 12101  1  0  0  0
 13 14  1  0  0  0
 13 31  1  0  0  0
 14 15  2  0  0  0
 14102  1  0  0  0
 15103  1  0  0  0
 16 17  2  0  0  0
 16 21  1  0  0  0
 16 31  1  0  0  0
 17 18  1  0  0  0
 17104  1  0  0  0
 18 19  2  0  0  0
 18105  1  0  0  0
 19 20  1  0  0  0
 19 24  1  0  0  0
 20 21  2  0  0  0
 20106  1  0  0  0
 21 23  1  0  0  0
 22 28  1  0  0  0
 22 32  2  0  0  0
 26 27  1  0  0  0
 28107  1  0  0  0
 28108  1  0  0  0
 29109  1  0  0  0
 29110  1  0  0  0
 33 34  1  0  0  0
 33 66  1  0  0  0
 33 70  2  0  0  0
 34 36  1  0  0  0
 34 59  1  0  0  0
 34111  1  0  0  0
 35 44  2  0  0  0
 35 45  1  0  0  0
 35 68  1  0  0  0
 36 56  1  0  0  0
 36112  1  0  0  0
 37 39  1  0  0  0
 37 47  1  0  0  0
 37 66  1  0  0  0
 37113  1  0  0  0
 38 43  2  0  0  0
 38 46  1  0  0  0
 38 47  1  0  0  0
 39 64  1  0  0  0
 39 67  2  0  0  0
 40 52  1  0  0  0
 40 53  2  0  0  0
 40 58  1  0  0  0
 41114  1  0  0  0
 41115  1  0  0  0
 41116  1  0  0  0
 41 48  1  0  0  0
 42 43  1  0  0  0
 42 66  1  0  0  0
 42117  1  0  0  0
 42118  1  0  0  0
 43 44  1  0  0  0
 44119  1  0  0  0
 45 46  2  0  0  0
 45120  1  0  0  0
 46121  1  0  0  0
 47122  1  0  0  0
 47123  1  0  0  0
 48 56  1  0  0  0
 48 65  1  0  0  0
 48124  1  0  0  0
 49 50  1  0  0  0
 49 53  1  0  0  0
 49 64  1  0  0  0
 49125  1  0  0  0
 50 51  1  0  0  0
 50126  1  0  0  0
 50127  1  0  0  0
 51 52  1  0  0  0
 51128  1  0  0  0
 51129  1  0  0  0
 52130  1  0  0  0
 52131  1  0  0  0
 53 54  1  0  0  0
 54 55  2  0  0  0
 54132  1  0  0  0
 55 57  1  0  0  0
 55133  1  0  0  0
 56 69  2  0  0  0
 57 58  2  0  0  0
 57134  1  0  0  0
 58135  1  0  0  0
 59 60  1  0  0  0
 59 61  1  0  0  0
 59 62  1  0  0  0
 60136  1  0  0  0
 60137  1  0  0  0
 60138  1  0  0  0
 61139  1  0  0  0
 61140  1  0  0  0
 61141  1  0  0  0
 62142  1  0  0  0
 62143  1  0  0  0
 62144  1  0  0  0
 63 65  1  0  0  0
 63145  1  0  0  0
 63146  1  0  0  0
 63147  1  0  0  0
 64148  1  0  0  0
 65149  1  0  0  0
 68 87  1  0  0  0
 71 72  2  0  0  0
 71 73  1  0  0  0
 71150  1  0  0  0
 72 74  1  0  0  0
 72 82  1  0  0  0
 73 75  2  0  0  0
 73 85  1  0  0  0
 74 76  2  0  0  0
 74 77  1  0  0  0
 75 76  1  0  0  0
 75 83  1  0  0  0
 76 84  1  0  0  0
 77151  1  0  0  0
 77152  1  0  0  0
 77153  1  0  0  0
 78154  1  0  0  0
 78155  1  0  0  0
 78156  1  0  0  0
 78 88  1  0  0  0
 79 88  1  0  0  0
 79157  1  0  0  0
 79158  1  0  0  0
 79159  1  0  0  0
 80160  1  0  0  0
 80161  1  0  0  0
 80162  1  0  0  0
 80 89  1  0  0  0
 81 89  1  0  0  0
 81163  1  0  0  0
 81164  1  0  0  0
 81165  1  0  0  0
 82 86  1  0  0  0
 82166  1  0  0  0
 82167  1  0  0  0
 83 88  1  0  0  0
 83168  1  0  0  0
 83169  1  0  0  0
 84 89  1  0  0  0
 84170  1  0  0  0
 84171  1  0  0  0
 85 90  1  0  0  0
 85172  1  0  0  0
 85173  1  0  0  0
 86 87  1  0  0  0
 86174  1  0  0  0
 86175  1  0  0  0
 87176  1  0  0  0
 87177  1  0  0  0
 88178  1  0  0  0
 89179  1  0  0  0
 90180  1  0  0  0
M  ISO  4   1 100  68 101  87 101  90 100
M  END
> <chiral flag>
0

> <version>
0

> <s_m_source_file>
/data/baiqing/PycharmProjects/Reinvent-master-3.2/result/LINK_invent/BTK/process_docking_weight1_custom_sum_contain_oxygen_bond_distance_aromatic_linkinvent_7_9_3/rearranged_h_0088.sdf

> <i_m_source_file_index>
7

> <r_mmod_Potential_Energy-OPLS-2005>
170.3369140625

> <r_mmod_Stretch_Energy-OPLS-2005>
117.048194885254

> <r_mmod_Bend_Energy-OPLS-2005>
176.513061523438

> <r_mmod_Torsional_Energy-OPLS-2005>
257.0703125

> <r_mmod_Improper_Torsional_Energy-OPLS-2005>
6.62600660324097

> <r_mmod_Van_der_Waal_Energy-OPLS-2005>
162.542892456055

> <r_mmod_Electrostatic_Energy-OPLS-2005>
-428.301391601562

> <r_mmod_Solvation_Energy-OPLS-2005>
-196.297485351562

> <b_mmod_Minimization_Converged-OPLS-2005>
0

> <r_mmod_RMS_Derivative-OPLS-2005>
2.95892739295959

$$$$
7
                    3D
 Structure written by MMmdl.
174182  0  0  1  0            999 V2000
  -30.5984  -14.7706   20.4433 C   0  0  0  0  0  0
  -30.4411  -12.4630   19.4956 C   0  0  0  0  0  0
  -29.5213  -12.5118   18.2539 C   0  0  0  0  0  0
  -28.0476  -12.3314   18.6649 C   0  0  0  0  0  0
  -27.6505  -13.2329   19.8653 C   0  0  2  0  0  0
  -28.6927  -13.1742   21.0064 C   0  0  0  0  0  0
  -25.2548  -13.8210   20.5724 C   0  0  0  0  0  0
  -24.1825  -13.0447   20.9217 C   0  0  0  0  0  0
  -24.6416  -11.6931   20.8762 C   0  0  0  0  0  0
  -23.9088  -10.4306   21.0417 C   0  0  0  0  0  0
  -24.3629   -9.4224   21.9195 C   0  0  0  0  0  0
  -23.6299   -8.2262   22.0763 C   0  0  0  0  0  0
  -22.4285   -8.0298   21.3553 C   0  0  0  0  0  0
  -21.9933   -9.0277   20.4657 C   0  0  0  0  0  0
  -22.7263  -10.2157   20.3065 C   0  0  0  0  0  0
  -21.6860   -6.0743   22.5275 C   0  0  0  0  0  0
  -21.4021   -6.5641   23.8210 C   0  0  0  0  0  0
  -21.3661   -5.6793   24.9173 C   0  0  0  0  0  0
  -21.6038   -4.3056   24.7220 C   0  0  0  0  0  0
  -21.8822   -3.8151   23.4341 C   0  0  0  0  0  0
  -21.9198   -4.6971   22.3400 C   0  0  0  0  0  0
  -22.7851  -13.5243   21.1864 C   0  0  0  0  0  0
  -22.1663   -4.2156   21.0979 F   0  0  0  0  0  0
  -21.5631   -3.4538   25.7732 F   0  0  0  0  0  0
  -29.9989  -13.5268   20.4319 N   0  0  0  0  0  0
  -26.2989  -12.9416   20.3366 N   0  0  0  0  0  0
  -25.9356  -11.6552   20.5795 N   0  0  0  0  0  0
  -22.0488  -12.8229   22.0413 N   0  0  0  0  0  0
  -25.4221  -15.1919   20.4129 N   0  0  0  0  0  0
  -31.7628  -14.8924   20.0534 O   0  0  0  0  0  0
  -21.6648   -6.8893   21.4242 O   0  0  0  0  0  0
  -22.3541  -14.5548   20.6717 O   0  0  0  0  0  0
  -24.6342  -31.8529   23.1954 C   0  0  0  0  0  0
  -25.9171  -32.4744   23.8303 C   0  0  1  0  0  0
  -27.2167  -27.2279   20.1241 C   0  0  0  0  0  0
  -25.5956  -33.8545   24.2231 N   0  0  0  0  0  0
  -23.4325  -30.4718   21.5423 C   0  0  2  0  0  0
  -24.8769  -28.9155   20.1096 C   0  0  0  0  0  0
  -22.7502  -29.4570   22.4918 C   0  0  0  0  0  0
  -18.0288  -28.1354   22.8464 C   0  0  0  0  0  0
  -24.1504  -36.7255   23.2635 C   0  0  0  0  0  0
  -25.9795  -30.7495   21.3831 C   0  0  0  0  0  0
  -26.0522  -29.3712   20.7222 C   0  0  0  0  0  0
  -27.2241  -28.5404   20.7172 C   0  0  0  0  0  0
  -26.0165  -26.8515   19.4777 C   0  0  0  0  0  0
  -24.8674  -27.6648   19.4759 C   0  0  0  0  0  0
  -23.6505  -29.8059   20.1599 C   0  0  0  0  0  0
  -25.4131  -36.3055   24.0304 C   0  0  1  0  0  0
  -20.5885  -28.3684   23.1244 C   0  0  2  0  0  0
  -20.6792  -26.9406   22.5394 C   0  0  0  0  0  0
  -19.5788  -26.6371   21.5184 C   0  0  0  0  0  0
  -18.1960  -26.7913   22.1577 C   0  0  0  0  0  0
  -19.1537  -28.8838   23.2859 C   0  0  0  0  0  0
  -18.9469  -30.1428   23.8888 C   0  0  0  0  0  0
  -17.6479  -30.6578   24.0530 C   0  0  0  0  0  0
  -25.9065  -34.9430   23.5070 C   0  0  0  0  0  0
  -16.5364  -29.9059   23.6315 C   0  0  0  0  0  0
  -16.7283  -28.6460   23.0365 C   0  0  0  0  0  0
  -26.4536  -31.6580   25.0702 C   0  0  0  0  0  0
  -25.3720  -31.3723   26.1387 C   0  0  0  0  0  0
  -27.0386  -30.2993   24.6211 C   0  0  0  0  0  0
  -27.6081  -32.4330   25.7479 C   0  0  0  0  0  0
  -27.5591  -37.1786   24.8460 C   0  0  0  0  0  0
  -21.4208  -29.3025   22.3637 N   0  0  0  0  0  0
  -26.4306  -37.3749   23.9400 N   0  0  0  0  0  0
  -24.7007  -31.0435   22.0971 N   0  0  0  0  0  0
  -23.4183  -28.8122   23.3046 O   0  0  0  0  0  0
  -28.3013  -26.3105   20.1927 O   0  0  0  0  0  0
  -26.5635  -34.8910   22.4641 O   0  0  0  0  0  0
  -23.5472  -32.1386   23.7216 O   0  0  0  0  0  0
  -27.5748  -20.7519   23.3502 C   0  0  0  0  0  0
  -27.8296  -21.4417   22.1626 C   0  0  0  0  0  0
  -28.3257  -19.6163   23.6810 C   0  0  0  0  0  0
  -28.7577  -20.9817   21.2045 C   0  0  0  0  0  0
  -29.2626  -19.0973   22.7473 C   0  0  0  0  0  0
  -29.3563  -19.6380   21.4222 C   0  0  0  0  0  0
  -31.5256  -18.6857   23.8333 C   0  0  0  0  0  0
  -26.1046  -15.6542   24.3430 C   0  0  0  0  0  0
  -28.0935  -19.0100   25.0640 C   0  0  0  0  0  0
  -28.9642  -22.0695   20.0631 C   0  0  0  0  0  0
  -30.2704  -18.0402   23.2300 C   0  0  0  0  0  0
  -30.1854  -18.7408   20.4046 C   0  0  0  0  0  0
  -27.2556  -16.6642   24.2800 C   0  0  0  0  0  0
  -26.9798  -17.9406   25.0978 C   0  0  0  0  0  0
  -29.1005  -23.6671   20.4592 C   0  0  0  0  0  0
  -29.7412  -17.2324   19.9152 C   0  0  0  0  0  0
  -28.0643  -24.8277   19.9678 C   0  0  0  0  0  0
  -29.8022  -15.8870   20.6670 N   0  0  0  0  0  0
  -31.4834  -12.5852   19.1970 H   0  0  0  0  0  0
  -30.3848  -11.4870   19.9790 H   0  0  0  0  0  0
  -29.8084  -11.7391   17.5403 H   0  0  0  0  0  0
  -29.6471  -13.4657   17.7396 H   0  0  0  0  0  0
  -27.9080  -11.2822   18.9277 H   0  0  0  0  0  0
  -27.3909  -12.5204   17.8152 H   0  0  0  0  0  0
  -27.6458  -14.2540   19.4832 H   0  0  0  0  0  0
  -28.7285  -12.1813   21.4567 H   0  0  0  0  0  0
  -28.4228  -13.8618   21.8096 H   0  0  0  0  0  0
  -25.2771   -9.5699   22.4776 H   0  0  0  0  0  0
  -24.0007   -7.4656   22.7489 H   0  0  0  0  0  0
  -21.0859   -8.8802   19.8956 H   0  0  0  0  0  0
  -22.3723  -10.9699   19.6176 H   0  0  0  0  0  0
  -21.2011   -7.6148   23.9716 H   0  0  0  0  0  0
  -21.1478   -6.0520   25.9076 H   0  0  0  0  0  0
  -22.0599   -2.7613   23.2836 H   0  0  0  0  0  0
  -22.4101  -11.9871   22.4762 H   0  0  0  0  0  0
  -21.1115  -13.1272   22.2635 H   0  0  0  0  0  0
  -24.6536  -15.8415   20.5346 H   0  0  0  0  0  0
  -26.2700  -15.6408   20.0908 H   0  0  0  0  0  0
  -26.7215  -32.5390   23.1012 H   0  0  0  0  0  0
  -25.0110  -33.9672   25.0389 H   0  0  0  0  0  0
  -22.7312  -31.2956   21.3970 H   0  0  0  0  0  0
  -23.3778  -35.9582   23.3296 H   0  0  0  0  0  0
  -24.3571  -36.8894   22.2055 H   0  0  0  0  0  0
  -23.7258  -37.6439   23.6672 H   0  0  0  0  0  0
  -26.1187  -31.5092   20.6139 H   0  0  0  0  0  0
  -26.8542  -30.7984   22.0192 H   0  0  0  0  0  0
  -28.1234  -28.8773   21.2122 H   0  0  0  0  0  0
  -25.9345  -25.8952   18.9825 H   0  0  0  0  0  0
  -23.9675  -27.3108   18.9897 H   0  0  0  0  0  0
  -23.7773  -30.5816   19.4041 H   0  0  0  0  0  0
  -22.7681  -29.2395   19.8589 H   0  0  0  0  0  0
  -25.1331  -36.1876   25.0790 H   0  0  0  0  0  0
  -20.9972  -28.3296   24.1361 H   0  0  0  0  0  0
  -20.5680  -26.2307   23.3604 H   0  0  0  0  0  0
  -21.6666  -26.7441   22.1210 H   0  0  0  0  0  0
  -19.6957  -25.6276   21.1235 H   0  0  0  0  0  0
  -19.6733  -27.3161   20.6703 H   0  0  0  0  0  0
  -17.4237  -26.6644   21.3980 H   0  0  0  0  0  0
  -18.0344  -26.0044   22.8955 H   0  0  0  0  0  0
  -19.7959  -30.7204   24.2297 H   0  0  0  0  0  0
  -17.5048  -31.6264   24.5117 H   0  0  0  0  0  0
  -15.5363  -30.2960   23.7668 H   0  0  0  0  0  0
  -15.8675  -28.0773   22.7115 H   0  0  0  0  0  0
  -24.5988  -30.6969   25.7704 H   0  0  0  0  0  0
  -24.8786  -32.2871   26.4677 H   0  0  0  0  0  0
  -25.8024  -30.9022   27.0241 H   0  0  0  0  0  0
  -26.2968  -29.6717   24.1264 H   0  0  0  0  0  0
  -27.4076  -29.7288   25.4738 H   0  0  0  0  0  0
  -27.8852  -30.4237   23.9456 H   0  0  0  0  0  0
  -27.2706  -33.3679   26.1965 H   0  0  0  0  0  0
  -28.3948  -32.6810   25.0337 H   0  0  0  0  0  0
  -28.0684  -31.8493   26.5461 H   0  0  0  0  0  0
  -28.2602  -38.0096   24.7524 H   0  0  0  0  0  0
  -28.1110  -36.2623   24.6295 H   0  0  0  0  0  0
  -27.2278  -37.1420   25.8853 H   0  0  0  0  0  0
  -20.9395  -29.8704   21.6804 H   0  0  0  0  0  0
  -26.0186  -38.2810   24.1435 H   0  0  0  0  0  0
  -26.8537  -21.1562   24.0476 H   0  0  0  0  0  0
  -27.2991  -22.3695   21.9996 H   0  0  0  0  0  0
  -32.2744  -17.9306   24.0767 H   0  0  0  0  0  0
  -31.2937  -19.2240   24.7525 H   0  0  0  0  0  0
  -31.9822  -19.3905   23.1381 H   0  0  0  0  0  0
  -26.3621  -14.7427   23.8019 H   0  0  0  0  0  0
  -25.1938  -16.0562   23.8995 H   0  0  0  0  0  0
  -25.8826  -15.3759   25.3742 H   0  0  0  0  0  0
  -27.7967  -19.8200   25.7328 H   0  0  0  0  0  0
  -29.0162  -18.6358   25.5048 H   0  0  0  0  0  0
  -28.1406  -21.9580   19.3569 H   0  0  0  0  0  0
  -29.8549  -21.7786   19.5066 H   0  0  0  0  0  0
  -30.6002  -17.3705   22.4507 H   0  0  0  0  0  0
  -29.8370  -17.3695   23.9638 H   0  0  0  0  0  0
  -31.2200  -18.7074   20.7447 H   0  0  0  0  0  0
  -30.2419  -19.3385   19.4955 H   0  0  0  0  0  0
  -27.4532  -16.9181   23.2364 H   0  0  0  0  0  0
  -28.1513  -16.1711   24.6581 H   0  0  0  0  0  0
  -26.0466  -18.3953   24.7658 H   0  0  0  0  0  0
  -26.8161  -17.6575   26.1386 H   0  0  0  0  0  0
  -30.0755  -23.9752   20.0798 H   0  0  0  0  0  0
  -29.2185  -23.7555   21.5393 H   0  0  0  0  0  0
  -30.3221  -17.0518   19.0089 H   0  0  0  0  0  0
  -28.7131  -17.3122   19.5579 H   0  0  0  0  0  0
  -27.1045  -24.5781   20.4209 H   0  0  0  0  0  0
  -27.9271  -24.6961   18.8937 H   0  0  0  0  0  0
  -28.9199  -15.6384   21.0889 H   0  0  0  0  0  0
  1 25  1  0  0  0
  1 30  2  0  0  0
  1 88  1  0  0  0
  2  3  1  0  0  0
  2 25  1  0  0  0
  2 89  1  0  0  0
  2 90  1  0  0  0
  3  4  1  0  0  0
  3 91  1  0  0  0
  3 92  1  0  0  0
  4  5  1  0  0  0
  4 93  1  0  0  0
  4 94  1  0  0  0
  5  6  1  0  0  0
  5 26  1  0  0  0
  5 95  1  0  0  0
  6 25  1  0  0  0
  6 96  1  0  0  0
  6 97  1  0  0  0
  7  8  2  0  0  0
  7 26  1  0  0  0
  7 29  1  0  0  0
  8  9  1  0  0  0
  8 22  1  0  0  0
  9 10  1  0  0  0
  9 27  2  0  0  0
 10 11  2  0  0  0
 10 15  1  0  0  0
 11 12  1  0  0  0
 11 98  1  0  0  0
 12 13  2  0  0  0
 12 99  1  0  0  0
 13 14  1  0  0  0
 13 31  1  0  0  0
 14 15  2  0  0  0
 14100  1  0  0  0
 15101  1  0  0  0
 16 17  2  0  0  0
 16 21  1  0  0  0
 16 31  1  0  0  0
 17 18  1  0  0  0
 17102  1  0  0  0
 18 19  2  0  0  0
 18103  1  0  0  0
 19 20  1  0  0  0
 19 24  1  0  0  0
 20 21  2  0  0  0
 20104  1  0  0  0
 21 23  1  0  0  0
 22 28  1  0  0  0
 22 32  2  0  0  0
 26 27  1  0  0  0
 28105  1  0  0  0
 28106  1  0  0  0
 29107  1  0  0  0
 29108  1  0  0  0
 33 34  1  0  0  0
 33 66  1  0  0  0
 33 70  2  0  0  0
 34 36  1  0  0  0
 34 59  1  0  0  0
 34109  1  0  0  0
 35 44  2  0  0  0
 35 45  1  0  0  0
 35 68  1  0  0  0
 36 56  1  0  0  0
 36110  1  0  0  0
 37 39  1  0  0  0
 37 47  1  0  0  0
 37 66  1  0  0  0
 37111  1  0  0  0
 38 43  2  0  0  0
 38 46  1  0  0  0
 38 47  1  0  0  0
 39 64  1  0  0  0
 39 67  2  0  0  0
 40 52  1  0  0  0
 40 53  2  0  0  0
 40 58  1  0  0  0
 41112  1  0  0  0
 41113  1  0  0  0
 41114  1  0  0  0
 41 48  1  0  0  0
 42 43  1  0  0  0
 42 66  1  0  0  0
 42115  1  0  0  0
 42116  1  0  0  0
 43 44  1  0  0  0
 44117  1  0  0  0
 45 46  2  0  0  0
 45118  1  0  0  0
 46119  1  0  0  0
 47120  1  0  0  0
 47121  1  0  0  0
 48 56  1  0  0  0
 48 65  1  0  0  0
 48122  1  0  0  0
 49 50  1  0  0  0
 49 53  1  0  0  0
 49 64  1  0  0  0
 49123  1  0  0  0
 50 51  1  0  0  0
 50124  1  0  0  0
 50125  1  0  0  0
 51 52  1  0  0  0
 51126  1  0  0  0
 51127  1  0  0  0
 52128  1  0  0  0
 52129  1  0  0  0
 53 54  1  0  0  0
 54 55  2  0  0  0
 54130  1  0  0  0
 55 57  1  0  0  0
 55131  1  0  0  0
 56 69  2  0  0  0
 57 58  2  0  0  0
 57132  1  0  0  0
 58133  1  0  0  0
 59 60  1  0  0  0
 59 61  1  0  0  0
 59 62  1  0  0  0
 60134  1  0  0  0
 60135  1  0  0  0
 60136  1  0  0  0
 61137  1  0  0  0
 61138  1  0  0  0
 61139  1  0  0  0
 62140  1  0  0  0
 62141  1  0  0  0
 62142  1  0  0  0
 63 65  1  0  0  0
 63143  1  0  0  0
 63144  1  0  0  0
 63145  1  0  0  0
 64146  1  0  0  0
 65147  1  0  0  0
 68 87  1  0  0  0
 71 72  2  0  0  0
 71 73  1  0  0  0
 71148  1  0  0  0
 72 74  1  0  0  0
 72149  1  0  0  0
 73 75  2  0  0  0
 73 79  1  0  0  0
 74 76  2  0  0  0
 74 80  1  0  0  0
 75 76  1  0  0  0
 75 81  1  0  0  0
 76 82  1  0  0  0
 77 81  1  0  0  0
 77150  1  0  0  0
 77151  1  0  0  0
 77152  1  0  0  0
 78 83  1  0  0  0
 78153  1  0  0  0
 78154  1  0  0  0
 78155  1  0  0  0
 79 84  1  0  0  0
 79156  1  0  0  0
 79157  1  0  0  0
 80 85  1  0  0  0
 80158  1  0  0  0
 80159  1  0  0  0
 81160  1  0  0  0
 81161  1  0  0  0
 82 86  1  0  0  0
 82162  1  0  0  0
 82163  1  0  0  0
 83 84  1  0  0  0
 83164  1  0  0  0
 83165  1  0  0  0
 84166  1  0  0  0
 84167  1  0  0  0
 85 87  1  0  0  0
 85168  1  0  0  0
 85169  1  0  0  0
 86 88  1  0  0  0
 86170  1  0  0  0
 86171  1  0  0  0
 87172  1  0  0  0
 87173  1  0  0  0
 88174  1  0  0  0
M  ISO  4   1 100  68 101  87 101  88 100
M  END
> <chiral flag>
0

> <version>
0

> <s_m_source_file>
/data/baiqing/PycharmProjects/Reinvent-master-3.2/result/LINK_invent/BTK/process_docking_weight1_custom_sum_contain_oxygen_bond_distance_aromatic_linkinvent_7_9_3/rearranged_h_0088.sdf

> <i_m_source_file_index>
8

> <r_mmod_Potential_Energy-OPLS-2005>
316.138427734375

> <r_mmod_Stretch_Energy-OPLS-2005>
162.4931640625

> <r_mmod_Bend_Energy-OPLS-2005>
238.995254516602

> <r_mmod_Torsional_Energy-OPLS-2005>
268.927764892578

> <r_mmod_Improper_Torsional_Energy-OPLS-2005>
8.06117820739746

> <r_mmod_Van_der_Waal_Energy-OPLS-2005>
136.688339233398

> <r_mmod_Electrostatic_Energy-OPLS-2005>
-401.362915039062

> <r_mmod_Solvation_Energy-OPLS-2005>
-199.354339599609

> <b_mmod_Minimization_Converged-OPLS-2005>
0

> <r_mmod_RMS_Derivative-OPLS-2005>
2.81271862983704

$$$$
8
                    3D
 Structure written by MMmdl.
164172  0  0  1  0            999 V2000
  -30.2645  -14.8987   20.5030 C   0  0  0  0  0  0
  -30.7022  -12.5866   19.4089 C   0  0  0  0  0  0
  -29.7604  -12.3438   18.1733 C   0  0  0  0  0  0
  -28.2879  -12.0941   18.5731 C   0  0  0  0  0  0
  -28.0214  -13.0838   19.6720 C   0  0  2  0  0  0
  -28.9417  -12.9367   20.8900 C   0  0  0  0  0  0
  -25.9162  -13.9605   20.0589 C   0  0  0  0  0  0
  -24.3271  -13.4432   21.0686 C   0  0  0  0  0  0
  -24.2329  -12.1905   21.5370 C   0  0  0  0  0  0
  -23.7365  -10.7148   21.2853 C   0  0  0  0  0  0
  -24.2636   -9.6220   22.0419 C   0  0  0  0  0  0
  -23.6448   -8.3423   22.0786 C   0  0  0  0  0  0
  -22.4652   -8.0979   21.3400 C   0  0  0  0  0  0
  -22.0230   -9.1155   20.4674 C   0  0  0  0  0  0
  -22.6519  -10.3870   20.4284 C   0  0  0  0  0  0
  -21.7213   -6.1021   22.5046 C   0  0  0  0  0  0
  -21.4271   -6.5866   23.8002 C   0  0  0  0  0  0
  -21.3725   -5.6997   24.8974 C   0  0  0  0  0  0
  -21.6015   -4.3232   24.7068 C   0  0  0  0  0  0
  -21.8772   -3.8329   23.4189 C   0  0  0  0  0  0
  -21.9295   -4.7164   22.3245 C   0  0  0  0  0  0
  -22.6966  -13.8444   21.3511 C   0  0  0  0  0  0
  -22.1723   -4.2253   21.0860 F   0  0  0  0  0  0
  -21.5545   -3.4707   25.7588 F   0  0  0  0  0  0
  -30.0955  -13.5362   20.3956 N   0  0  0  0  0  0
  -26.6601  -13.4863   20.0250 N   0  0  0  0  0  0
  -24.9891  -13.2752   20.8404 N   0  0  0  0  0  0
  -21.9568  -13.0959   22.1930 N   0  0  0  0  0  0
  -26.4876  -14.9986   19.1757 N   0  0  0  0  0  0
  -31.4203  -15.2674   20.2433 O   0  0  0  0  0  0
  -21.7371   -6.9214   21.3930 O   0  0  0  0  0  0
  -22.0467  -14.7291   20.8084 O   0  0  0  0  0  0
  -24.6919  -31.7893   23.1489 C   0  0  0  0  0  0
  -25.9494  -32.4373   23.8021 C   0  0  1  0  0  0
  -26.8484  -26.4289   20.3496 C   0  0  0  0  0  0
  -25.6056  -33.8225   24.1879 N   0  0  0  0  0  0
  -23.5046  -30.4110   21.5061 C   0  0  2  0  0  0
  -24.9022  -28.7332   20.0892 C   0  0  0  0  0  0
  -22.7733  -29.4297   22.4627 C   0  0  0  0  0  0
  -18.0327  -28.1425   22.8442 C   0  0  0  0  0  0
  -24.1497  -36.7110   23.2653 C   0  0  0  0  0  0
  -26.0841  -30.4287   21.4518 C   0  0  0  0  0  0
  -26.0753  -28.9775   20.8070 C   0  0  0  0  0  0
  -27.0507  -27.8430   20.9100 C   0  0  0  0  0  0
  -25.7610  -26.4795   19.4628 C   0  0  0  0  0  0
  -24.8109  -27.5326   19.3699 C   0  0  0  0  0  0
  -23.7483  -29.7427   20.1224 C   0  0  0  0  0  0
  -25.4160  -36.2853   24.0266 C   0  0  1  0  0  0
  -20.5960  -28.3786   23.1112 C   0  0  2  0  0  0
  -20.6797  -26.9441   22.5393 C   0  0  0  0  0  0
  -19.5782  -26.6365   21.5205 C   0  0  0  0  0  0
  -18.1957  -26.7948   22.1602 C   0  0  0  0  0  0
  -19.1595  -28.8930   23.2761 C   0  0  0  0  0  0
  -18.9508  -30.1508   23.8816 C   0  0  0  0  0  0
  -17.6503  -30.6609   24.0549 C   0  0  0  0  0  0
  -25.9162  -34.9244   23.4912 C   0  0  0  0  0  0
  -16.5388  -29.9095   23.6355 C   0  0  0  0  0  0
  -16.7308  -28.6517   23.0367 C   0  0  0  0  0  0
  -26.4624  -31.6492   25.0718 C   0  0  0  0  0  0
  -25.3646  -31.3884   26.1305 C   0  0  0  0  0  0
  -27.0594  -30.2806   24.6793 C   0  0  0  0  0  0
  -27.6043  -32.4401   25.7533 C   0  0  0  0  0  0
  -27.5562  -37.1719   24.8466 C   0  0  0  0  0  0
  -21.4381  -29.3025   22.3404 N   0  0  0  0  0  0
  -26.4272  -37.3633   23.9402 N   0  0  0  0  0  0
  -24.7883  -30.9197   22.0835 N   0  0  0  0  0  0
  -23.4170  -28.7881   23.2969 O   0  0  0  0  0  0
  -27.4616  -25.0026   20.6369 O   0  0  0  0  0  0
  -26.5807  -34.8844   22.4535 O   0  0  0  0  0  0
  -23.5943  -32.1110   23.6373 O   0  0  0  0  0  0
  -26.5708  -11.9362   21.5861 C   0  0  0  0  0  0
  -25.5265  -11.5839   19.5374 C   0  0  0  0  0  0
  -26.4225  -14.0623   22.3498 C   0  0  0  0  0  0
  -24.3215  -13.2363   18.6637 C   0  0  0  0  0  0
  -25.3476  -15.6977   21.3116 C   0  0  0  0  0  0
  -25.6309  -10.2480   18.8215 C   0  0  0  0  0  0
  -27.0767  -14.3980   23.6764 C   0  0  0  0  0  0
  -23.5812  -13.0313   17.3671 C   0  0  0  0  0  0
  -26.4439  -21.2729   20.6386 C   0  0  0  0  0  0
  -26.4553  -19.3268   21.3337 C   0  0  0  0  0  0
  -28.1354  -16.7380   21.2529 C   0  0  0  0  0  0
  -27.2117  -23.1732   20.3660 C   0  0  0  0  0  0
  -26.4758  -17.2824   21.0284 C   0  0  1  0  0  0
  -24.1774  -15.2021   19.5573 N   0  0  0  0  0  0
  -29.0879  -15.7542   20.3962 N   0  0  0  0  0  0
  -31.6610  -12.9724   19.0613 H   0  0  0  0  0  0
  -30.9358  -11.6403   19.8985 H   0  0  0  0  0  0
  -30.1343  -11.5104   17.5769 H   0  0  0  0  0  0
  -29.8133  -13.2141   17.5157 H   0  0  0  0  0  0
  -28.1760  -11.0733   18.9349 H   0  0  0  0  0  0
  -27.6216  -12.2358   17.7210 H   0  0  0  0  0  0
  -28.3843  -13.8957   19.0497 H   0  0  0  0  0  0
  -29.1223  -11.8993   21.1775 H   0  0  0  0  0  0
  -28.6776  -13.4723   21.7873 H   0  0  0  0  0  0
  -25.1057   -9.7954   22.6952 H   0  0  0  0  0  0
  -24.0521   -7.5756   22.7222 H   0  0  0  0  0  0
  -21.1498   -8.9428   19.8548 H   0  0  0  0  0  0
  -22.2262  -11.1631   19.8085 H   0  0  0  0  0  0
  -21.2406   -7.6397   23.9530 H   0  0  0  0  0  0
  -21.1535   -6.0761   25.8862 H   0  0  0  0  0  0
  -22.0437   -2.7774   23.2674 H   0  0  0  0  0  0
  -22.3451  -12.3217   22.7097 H   0  0  0  0  0  0
  -20.9839  -13.3300   22.3276 H   0  0  0  0  0  0
  -25.5328  -15.4134   19.1940 H   0  0  0  0  0  0
  -27.1672  -15.5185   19.7115 H   0  0  0  0  0  0
  -26.7552  -32.4719   23.0690 H   0  0  0  0  0  0
  -25.0111  -33.9257   24.9971 H   0  0  0  0  0  0
  -22.8379  -31.2589   21.3369 H   0  0  0  0  0  0
  -23.3794  -35.9404   23.3264 H   0  0  0  0  0  0
  -24.3553  -36.8835   22.2077 H   0  0  0  0  0  0
  -23.7220  -37.6254   23.6775 H   0  0  0  0  0  0
  -26.3381  -31.1325   20.6579 H   0  0  0  0  0  0
  -26.9280  -30.4668   22.1269 H   0  0  0  0  0  0
  -27.8970  -27.9943   21.5656 H   0  0  0  0  0  0
  -25.5232  -25.5719   18.9261 H   0  0  0  0  0  0
  -23.9379  -27.3648   18.7536 H   0  0  0  0  0  0
  -23.9684  -30.5169   19.3868 H   0  0  0  0  0  0
  -22.8334  -29.2618   19.7718 H   0  0  0  0  0  0
  -25.1375  -36.1607   25.0759 H   0  0  0  0  0  0
  -21.0047  -28.3430   24.1238 H   0  0  0  0  0  0
  -20.5658  -26.2415   23.3662 H   0  0  0  0  0  0
  -21.6659  -26.7383   22.1216 H   0  0  0  0  0  0
  -19.6945  -25.6255   21.1296 H   0  0  0  0  0  0
  -19.6733  -27.3122   20.6695 H   0  0  0  0  0  0
  -17.4225  -26.6673   21.4008 H   0  0  0  0  0  0
  -18.0354  -26.0111   22.9022 H   0  0  0  0  0  0
  -19.7989  -30.7335   24.2148 H   0  0  0  0  0  0
  -17.5064  -31.6281   24.5171 H   0  0  0  0  0  0
  -15.5390  -30.2982   23.7741 H   0  0  0  0  0  0
  -15.8696  -28.0821   22.7137 H   0  0  0  0  0  0
  -24.5859  -30.7199   25.7617 H   0  0  0  0  0  0
  -24.8814  -32.3136   26.4458 H   0  0  0  0  0  0
  -25.7789  -30.9233   27.0259 H   0  0  0  0  0  0
  -26.3337  -29.6316   24.1885 H   0  0  0  0  0  0
  -27.4013  -29.7394   25.5626 H   0  0  0  0  0  0
  -27.9329  -30.3878   24.0359 H   0  0  0  0  0  0
  -27.2561  -33.3788   26.1856 H   0  0  0  0  0  0
  -28.3981  -32.6825   25.0452 H   0  0  0  0  0  0
  -28.0573  -31.8713   26.5663 H   0  0  0  0  0  0
  -28.2544  -38.0046   24.7525 H   0  0  0  0  0  0
  -28.1095  -36.2571   24.6293 H   0  0  0  0  0  0
  -27.2272  -37.1346   25.8866 H   0  0  0  0  0  0
  -20.9671  -29.8698   21.6494 H   0  0  0  0  0  0
  -26.0090  -38.2678   24.1416 H   0  0  0  0  0  0
  -27.1184  -11.1626   22.1053 H   0  0  0  0  0  0
  -26.2759   -9.5686   19.3790 H   0  0  0  0  0  0
  -26.0501  -10.3819   17.8248 H   0  0  0  0  0  0
  -24.6552   -9.7796   18.7068 H   0  0  0  0  0  0
  -26.8724  -13.6120   24.4025 H   0  0  0  0  0  0
  -26.6682  -15.3317   24.0643 H   0  0  0  0  0  0
  -28.1561  -14.5126   23.5980 H   0  0  0  0  0  0
  -23.5687  -11.9729   17.1052 H   0  0  0  0  0  0
  -24.0759  -13.5797   16.5663 H   0  0  0  0  0  0
  -22.5543  -13.3833   17.4541 H   0  0  0  0  0  0
  -25.4240  -21.5504   20.9047 H   0  0  0  0  0  0
  -26.3468  -21.0230   19.5820 H   0  0  0  0  0  0
  -25.4746  -19.3616   21.8086 H   0  0  0  0  0  0
  -27.1165  -19.4166   22.1955 H   0  0  0  0  0  0
  -28.2159  -16.4061   22.2845 H   0  0  0  0  0  0
  -28.7168  -17.6597   21.2484 H   0  0  0  0  0  0
  -26.9060  -23.2865   19.3259 H   0  0  0  0  0  0
  -28.2661  -22.9086   20.2905 H   0  0  0  0  0  0
  -26.3557  -17.3589   19.9499 H   0  0  0  0  0  0
  -29.1986  -16.2009   19.4955 H   0  0  0  0  0  0
  1 25  1  0  0  0
  1 30  2  0  0  0
  1 85  1  0  0  0
  2  3  1  0  0  0
  2 25  1  0  0  0
  2 86  1  0  0  0
  2 87  1  0  0  0
  3  4  1  0  0  0
  3 88  1  0  0  0
  3 89  1  0  0  0
  4  5  1  0  0  0
  4 90  1  0  0  0
  4 91  1  0  0  0
  5  6  1  0  0  0
  5 26  1  0  0  0
  5 92  1  0  0  0
  6 25  1  0  0  0
  6 93  1  0  0  0
  6 94  1  0  0  0
  7  8  2  0  0  0
  7 26  1  0  0  0
  7 29  1  0  0  0
  8  9  1  0  0  0
  8 22  1  0  0  0
  9 10  1  0  0  0
  9 27  2  0  0  0
 10 11  2  0  0  0
 10 15  1  0  0  0
 11 12  1  0  0  0
 11 95  1  0  0  0
 12 13  2  0  0  0
 12 96  1  0  0  0
 13 14  1  0  0  0
 13 31  1  0  0  0
 14 15  2  0  0  0
 14 97  1  0  0  0
 15 98  1  0  0  0
 16 17  2  0  0  0
 16 21  1  0  0  0
 16 31  1  0  0  0
 17 18  1  0  0  0
 17 99  1  0  0  0
 18 19  2  0  0  0
 18100  1  0  0  0
 19 20  1  0  0  0
 19 24  1  0  0  0
 20 21  2  0  0  0
 20101  1  0  0  0
 21 23  1  0  0  0
 22 28  1  0  0  0
 22 32  2  0  0  0
 26 27  1  0  0  0
 28102  1  0  0  0
 28103  1  0  0  0
 29104  1  0  0  0
 29105  1  0  0  0
 33 34  1  0  0  0
 33 66  1  0  0  0
 33 70  2  0  0  0
 34 36  1  0  0  0
 34 59  1  0  0  0
 34106  1  0  0  0
 35 44  2  0  0  0
 35 45  1  0  0  0
 35 68  1  0  0  0
 36 56  1  0  0  0
 36107  1  0  0  0
 37 39  1  0  0  0
 37 47  1  0  0  0
 37 66  1  0  0  0
 37108  1  0  0  0
 38 43  2  0  0  0
 38 46  1  0  0  0
 38 47  1  0  0  0
 39 64  1  0  0  0
 39 67  2  0  0  0
 40 52  1  0  0  0
 40 53  2  0  0  0
 40 58  1  0  0  0
 41109  1  0  0  0
 41110  1  0  0  0
 41111  1  0  0  0
 41 48  1  0  0  0
 42 43  1  0  0  0
 42 66  1  0  0  0
 42112  1  0  0  0
 42113  1  0  0  0
 43 44  1  0  0  0
 44114  1  0  0  0
 45 46  2  0  0  0
 45115  1  0  0  0
 46116  1  0  0  0
 47117  1  0  0  0
 47118  1  0  0  0
 48 56  1  0  0  0
 48 65  1  0  0  0
 48119  1  0  0  0
 49 50  1  0  0  0
 49 53  1  0  0  0
 49 64  1  0  0  0
 49120  1  0  0  0
 50 51  1  0  0  0
 50121  1  0  0  0
 50122  1  0  0  0
 51 52  1  0  0  0
 51123  1  0  0  0
 51124  1  0  0  0
 52125  1  0  0  0
 52126  1  0  0  0
 53 54  1  0  0  0
 54 55  2  0  0  0
 54127  1  0  0  0
 55 57  1  0  0  0
 55128  1  0  0  0
 56 69  2  0  0  0
 57 58  2  0  0  0
 57129  1  0  0  0
 58130  1  0  0  0
 59 60  1  0  0  0
 59 61  1  0  0  0
 59 62  1  0  0  0
 60131  1  0  0  0
 60132  1  0  0  0
 60133  1  0  0  0
 61134  1  0  0  0
 61135  1  0  0  0
 61136  1  0  0  0
 62137  1  0  0  0
 62138  1  0  0  0
 62139  1  0  0  0
 63 65  1  0  0  0
 63140  1  0  0  0
 63141  1  0  0  0
 63142  1  0  0  0
 64143  1  0  0  0
 65144  1  0  0  0
 68 82  1  0  0  0
 71 72  2  0  0  0
 71 73  1  0  0  0
 71145  1  0  0  0
 72 74  1  0  0  0
 72 76  1  0  0  0
 73 75  2  0  0  0
 73 77  1  0  0  0
 74 78  1  0  0  0
 74 84  2  0  0  0
 75 83  1  0  0  0
 75 84  1  0  0  0
 76146  1  0  0  0
 76147  1  0  0  0
 76148  1  0  0  0
 77149  1  0  0  0
 77150  1  0  0  0
 77151  1  0  0  0
 78152  1  0  0  0
 78153  1  0  0  0
 78154  1  0  0  0
 79 80  1  0  0  0
 79 82  1  0  0  0
 79155  1  0  0  0
 79156  1  0  0  0
 80157  1  0  0  0
 80158  1  0  0  0
 80 83  1  0  0  0
 81 83  1  0  0  0
 81 85  1  0  0  0
 81159  1  0  0  0
 81160  1  0  0  0
 82161  1  0  0  0
 82162  1  0  0  0
 83163  1  0  0  0
 85164  1  0  0  0
M  ISO  4   1 100  68 101  82 101  85 100
M  END
> <chiral flag>
0

> <version>
0

> <s_m_source_file>
/data/baiqing/PycharmProjects/Reinvent-master-3.2/result/LINK_invent/BTK/process_docking_weight1_custom_sum_contain_oxygen_bond_distance_aromatic_linkinvent_7_9_3/rearranged_h_0088.sdf

> <i_m_source_file_index>
9

> <r_mmod_Potential_Energy-OPLS-2005>
21099.90625

> <r_mmod_Stretch_Energy-OPLS-2005>
12269.58984375

> <r_mmod_Bend_Energy-OPLS-2005>
2620.15209960938

> <r_mmod_Torsional_Energy-OPLS-2005>
511.918365478516

> <r_mmod_Improper_Torsional_Energy-OPLS-2005>
75.0145111083984

> <r_mmod_Van_der_Waal_Energy-OPLS-2005>
4413.05126953125

> <r_mmod_Electrostatic_Energy-OPLS-2005>
-455.6630859375

> <r_mmod_Solvation_Energy-OPLS-2005>
-242.677139282227

> <b_mmod_Minimization_Converged-OPLS-2005>
0

> <r_mmod_RMS_Derivative-OPLS-2005>
2.46524739265442

$$$$
9
                    3D
 Structure written by MMmdl.
168176  0  0  1  0            999 V2000
  -30.6530  -14.5168   20.5695 C   0  0  0  0  0  0
  -30.4400  -12.3306   19.4337 C   0  0  0  0  0  0
  -29.5055  -12.5181   18.2173 C   0  0  0  0  0  0
  -28.0257  -12.3683   18.6251 C   0  0  0  0  0  0
  -27.6668  -13.2025   19.8834 C   0  0  2  0  0  0
  -28.7076  -12.9708   21.0045 C   0  0  0  0  0  0
  -25.2605  -13.8143   20.5674 C   0  0  0  0  0  0
  -24.1846  -13.0433   20.9160 C   0  0  0  0  0  0
  -24.6394  -11.6894   20.8718 C   0  0  0  0  0  0
  -23.9052  -10.4287   21.0390 C   0  0  0  0  0  0
  -24.3607   -9.4204   21.9172 C   0  0  0  0  0  0
  -23.6283   -8.2238   22.0747 C   0  0  0  0  0  0
  -22.4265   -8.0275   21.3538 C   0  0  0  0  0  0
  -21.9898   -9.0246   20.4640 C   0  0  0  0  0  0
  -22.7222  -10.2126   20.3044 C   0  0  0  0  0  0
  -21.6851   -6.0727   22.5273 C   0  0  0  0  0  0
  -21.4012   -6.5632   23.8205 C   0  0  0  0  0  0
  -21.3665   -5.6786   24.9168 C   0  0  0  0  0  0
  -21.6043   -4.3047   24.7220 C   0  0  0  0  0  0
  -21.8822   -3.8141   23.4341 C   0  0  0  0  0  0
  -21.9191   -4.6955   22.3397 C   0  0  0  0  0  0
  -22.7867  -13.5229   21.1837 C   0  0  0  0  0  0
  -22.1660   -4.2140   21.0974 F   0  0  0  0  0  0
  -21.5634   -3.4535   25.7735 F   0  0  0  0  0  0
  -30.0405  -13.3021   20.4662 N   0  0  0  0  0  0
  -26.3050  -12.9308   20.3386 N   0  0  0  0  0  0
  -25.9323  -11.6471   20.5763 N   0  0  0  0  0  0
  -22.0513  -12.8224   22.0398 N   0  0  0  0  0  0
  -25.4336  -15.1863   20.4085 N   0  0  0  0  0  0
  -31.7478  -14.7637   20.0555 O   0  0  0  0  0  0
  -21.6633   -6.8871   21.4236 O   0  0  0  0  0  0
  -22.3548  -14.5539   20.6688 O   0  0  0  0  0  0
  -24.6176  -31.8666   23.2088 C   0  0  0  0  0  0
  -25.9052  -32.4820   23.8393 C   0  0  1  0  0  0
  -27.2262  -27.3858   20.0990 C   0  0  0  0  0  0
  -25.5907  -33.8622   24.2323 N   0  0  0  0  0  0
  -23.4088  -30.4911   21.5513 C   0  0  2  0  0  0
  -24.8543  -28.9608   20.1096 C   0  0  0  0  0  0
  -22.7438  -29.4639   22.4974 C   0  0  0  0  0  0
  -18.0278  -28.1364   22.8489 C   0  0  0  0  0  0
  -24.1497  -36.7308   23.2638 C   0  0  0  0  0  0
  -25.9446  -30.8146   21.3744 C   0  0  0  0  0  0
  -26.0185  -29.4486   20.7161 C   0  0  0  0  0  0
  -27.2045  -28.6688   20.7090 C   0  0  0  0  0  0
  -26.0423  -26.9458   19.4568 C   0  0  0  0  0  0
  -24.8646  -27.7112   19.4743 C   0  0  0  0  0  0
  -23.6188  -29.8303   20.1643 C   0  0  0  0  0  0
  -25.4122  -36.3110   24.0332 C   0  0  1  0  0  0
  -20.5874  -28.3657   23.1305 C   0  0  2  0  0  0
  -20.6776  -26.9394   22.5411 C   0  0  0  0  0  0
  -19.5756  -26.6378   21.5207 C   0  0  0  0  0  0
  -18.1927  -26.7914   22.1611 C   0  0  0  0  0  0
  -19.1528  -28.8826   23.2892 C   0  0  0  0  0  0
  -18.9454  -30.1433   23.8904 C   0  0  0  0  0  0
  -17.6456  -30.6575   24.0550 C   0  0  0  0  0  0
  -25.9046  -34.9473   23.5127 C   0  0  0  0  0  0
  -16.5347  -29.9071   23.6324 C   0  0  0  0  0  0
  -16.7263  -28.6483   23.0360 C   0  0  0  0  0  0
  -26.4462  -31.6613   25.0733 C   0  0  0  0  0  0
  -25.3700  -31.3721   26.1462 C   0  0  0  0  0  0
  -27.0300  -30.3055   24.6131 C   0  0  0  0  0  0
  -27.6044  -32.4337   25.7479 C   0  0  0  0  0  0
  -27.5589  -37.1814   24.8465 C   0  0  0  0  0  0
  -21.4162  -29.3017   22.3706 N   0  0  0  0  0  0
  -26.4308  -37.3792   23.9401 N   0  0  0  0  0  0
  -24.6755  -31.0725   22.1019 N   0  0  0  0  0  0
  -23.4194  -28.8180   23.3026 O   0  0  0  0  0  0
  -28.3714  -26.5933   20.1579 O   0  0  0  0  0  0
  -26.5603  -34.8920   22.4686 O   0  0  0  0  0  0
  -23.5355  -32.1440   23.7447 O   0  0  0  0  0  0
  -29.8991  -20.3507   20.8255 C   0  0  0  0  0  0
  -28.8589  -21.7222   22.5522 C   0  0  0  0  0  0
  -29.6287  -19.4802   23.0847 C   0  0  0  0  0  0
  -29.2916  -21.5805   21.2154 C   0  0  0  0  0  0
  -30.0627  -19.2863   21.7568 C   0  0  0  0  0  0
  -29.0405  -20.6951   23.5094 C   0  0  0  0  0  0
  -29.3458  -19.9985   25.9596 C   0  0  0  0  0  0
  -27.0668  -20.4833   25.0305 C   0  0  0  0  0  0
  -28.7068  -22.3386   25.4410 C   0  0  0  0  0  0
  -28.9776  -22.6943   20.1899 C   0  0  0  0  0  0
  -30.7071  -17.9264   21.4035 C   0  0  0  0  0  0
  -29.1983  -24.1971   20.6017 C   0  0  0  0  0  0
  -29.7532  -16.9049   20.7243 C   0  0  0  0  0  0
  -28.2418  -25.1746   19.8527 C   0  0  0  0  0  0
  -28.5527  -20.8760   24.9632 C   0  0  0  0  0  0
  -29.8857  -15.4821   21.1187 N   0  0  0  0  0  0
  -31.4830  -12.4515   19.1348 H   0  0  0  0  0  0
  -30.3598  -11.3158   19.8259 H   0  0  0  0  0  0
  -29.7532  -11.7947   17.4391 H   0  0  0  0  0  0
  -29.6654  -13.5047   17.7787 H   0  0  0  0  0  0
  -27.8403  -11.3108   18.8162 H   0  0  0  0  0  0
  -27.3763  -12.6441   17.7938 H   0  0  0  0  0  0
  -27.7134  -14.2523   19.5930 H   0  0  0  0  0  0
  -28.6917  -11.9270   21.3218 H   0  0  0  0  0  0
  -28.4576  -13.5439   21.8988 H   0  0  0  0  0  0
  -25.2758   -9.5674   22.4738 H   0  0  0  0  0  0
  -23.9993   -7.4627   22.7461 H   0  0  0  0  0  0
  -21.0831   -8.8753   19.8945 H   0  0  0  0  0  0
  -22.3678  -10.9657   19.6145 H   0  0  0  0  0  0
  -21.2002   -7.6139   23.9704 H   0  0  0  0  0  0
  -21.1490   -6.0517   25.9070 H   0  0  0  0  0  0
  -22.0600   -2.7602   23.2840 H   0  0  0  0  0  0
  -22.4146  -11.9889   22.4785 H   0  0  0  0  0  0
  -21.1127  -13.1235   22.2612 H   0  0  0  0  0  0
  -24.6689  -15.8439   20.5153 H   0  0  0  0  0  0
  -26.2903  -15.6233   20.0932 H   0  0  0  0  0  0
  -26.7122  -32.5515   23.1152 H   0  0  0  0  0  0
  -25.0082  -33.9794   25.0485 H   0  0  0  0  0  0
  -22.6981  -31.3087   21.4140 H   0  0  0  0  0  0
  -23.3757  -35.9642   23.3313 H   0  0  0  0  0  0
  -24.3590  -36.8910   22.2049 H   0  0  0  0  0  0
  -23.7258  -37.6519   23.6644 H   0  0  0  0  0  0
  -26.0718  -31.5794   20.6067 H   0  0  0  0  0  0
  -26.8271  -30.8618   22.0008 H   0  0  0  0  0  0
  -28.0978  -29.0359   21.1945 H   0  0  0  0  0  0
  -25.9929  -26.0059   18.9289 H   0  0  0  0  0  0
  -23.9747  -27.3362   18.9864 H   0  0  0  0  0  0
  -23.7258  -30.6081   19.4071 H   0  0  0  0  0  0
  -22.7429  -29.2510   19.8680 H   0  0  0  0  0  0
  -25.1302  -36.1979   25.0825 H   0  0  0  0  0  0
  -20.9956  -28.3222   24.1430 H   0  0  0  0  0  0
  -20.5695  -26.2251   23.3589 H   0  0  0  0  0  0
  -21.6642  -26.7452   22.1190 H   0  0  0  0  0  0
  -19.6927  -25.6292   21.1232 H   0  0  0  0  0  0
  -19.6711  -27.3183   20.6732 H   0  0  0  0  0  0
  -17.4209  -26.6659   21.4005 H   0  0  0  0  0  0
  -18.0325  -26.0051   22.9000 H   0  0  0  0  0  0
  -19.7934  -30.7237   24.2285 H   0  0  0  0  0  0
  -17.5014  -31.6261   24.5138 H   0  0  0  0  0  0
  -15.5347  -30.2971   23.7649 H   0  0  0  0  0  0
  -15.8661  -28.0793   22.7093 H   0  0  0  0  0  0
  -24.5883  -30.7074   25.7767 H   0  0  0  0  0  0
  -24.8873  -32.2870   26.4904 H   0  0  0  0  0  0
  -25.8018  -30.8884   27.0232 H   0  0  0  0  0  0
  -26.2855  -29.6823   24.1162 H   0  0  0  0  0  0
  -27.4032  -29.7287   25.4601 H   0  0  0  0  0  0
  -27.8709  -30.4367   23.9318 H   0  0  0  0  0  0
  -27.2681  -33.3640   26.2066 H   0  0  0  0  0  0
  -28.3827  -32.6900   25.0280 H   0  0  0  0  0  0
  -28.0736  -31.8464   26.5381 H   0  0  0  0  0  0
  -28.2605  -38.0111   24.7510 H   0  0  0  0  0  0
  -28.1087  -36.2642   24.6298 H   0  0  0  0  0  0
  -27.2297  -37.1458   25.8865 H   0  0  0  0  0  0
  -20.9323  -29.8738   21.6933 H   0  0  0  0  0  0
  -26.0199  -38.2870   24.1406 H   0  0  0  0  0  0
  -30.2134  -20.2107   19.8001 H   0  0  0  0  0  0
  -28.3468  -22.6271   22.8365 H   0  0  0  0  0  0
  -29.7477  -18.6608   23.7770 H   0  0  0  0  0  0
  -29.1720  -18.9325   25.8138 H   0  0  0  0  0  0
  -29.0568  -20.2052   26.9901 H   0  0  0  0  0  0
  -30.4182  -20.1822   25.8840 H   0  0  0  0  0  0
  -26.9147  -19.4466   24.7263 H   0  0  0  0  0  0
  -26.4643  -21.1085   24.3703 H   0  0  0  0  0  0
  -26.6683  -20.5934   26.0397 H   0  0  0  0  0  0
  -29.7308  -22.6912   25.3132 H   0  0  0  0  0  0
  -28.4622  -22.4410   26.4992 H   0  0  0  0  0  0
  -28.0449  -23.0252   24.9139 H   0  0  0  0  0  0
  -27.9251  -22.5569   19.9365 H   0  0  0  0  0  0
  -29.5219  -22.4984   19.2649 H   0  0  0  0  0  0
  -31.1144  -17.4899   22.3173 H   0  0  0  0  0  0
  -31.5711  -18.1011   20.7610 H   0  0  0  0  0  0
  -30.2396  -24.4772   20.4406 H   0  0  0  0  0  0
  -29.0151  -24.3359   21.6652 H   0  0  0  0  0  0
  -29.8116  -17.0025   19.6387 H   0  0  0  0  0  0
  -28.7278  -17.1739   20.9831 H   0  0  0  0  0  0
  -27.2463  -24.8155   20.1134 H   0  0  0  0  0  0
  -28.3598  -25.0441   18.7762 H   0  0  0  0  0  0
  -29.0792  -15.1143   21.6020 H   0  0  0  0  0  0
  1 25  1  0  0  0
  1 30  2  0  0  0
  1 86  1  0  0  0
  2  3  1  0  0  0
  2 25  1  0  0  0
  2 87  1  0  0  0
  2 88  1  0  0  0
  3  4  1  0  0  0
  3 89  1  0  0  0
  3 90  1  0  0  0
  4  5  1  0  0  0
  4 91  1  0  0  0
  4 92  1  0  0  0
  5  6  1  0  0  0
  5 26  1  0  0  0
  5 93  1  0  0  0
  6 25  1  0  0  0
  6 94  1  0  0  0
  6 95  1  0  0  0
  7  8  2  0  0  0
  7 26  1  0  0  0
  7 29  1  0  0  0
  8  9  1  0  0  0
  8 22  1  0  0  0
  9 10  1  0  0  0
  9 27  2  0  0  0
 10 11  2  0  0  0
 10 15  1  0  0  0
 11 12  1  0  0  0
 11 96  1  0  0  0
 12 13  2  0  0  0
 12 97  1  0  0  0
 13 14  1  0  0  0
 13 31  1  0  0  0
 14 15  2  0  0  0
 14 98  1  0  0  0
 15 99  1  0  0  0
 16 17  2  0  0  0
 16 21  1  0  0  0
 16 31  1  0  0  0
 17 18  1  0  0  0
 17100  1  0  0  0
 18 19  2  0  0  0
 18101  1  0  0  0
 19 20  1  0  0  0
 19 24  1  0  0  0
 20 21  2  0  0  0
 20102  1  0  0  0
 21 23  1  0  0  0
 22 28  1  0  0  0
 22 32  2  0  0  0
 26 27  1  0  0  0
 28103  1  0  0  0
 28104  1  0  0  0
 29105  1  0  0  0
 29106  1  0  0  0
 33 34  1  0  0  0
 33 66  1  0  0  0
 33 70  2  0  0  0
 34 36  1  0  0  0
 34 59  1  0  0  0
 34107  1  0  0  0
 35 44  2  0  0  0
 35 45  1  0  0  0
 35 68  1  0  0  0
 36 56  1  0  0  0
 36108  1  0  0  0
 37 39  1  0  0  0
 37 47  1  0  0  0
 37 66  1  0  0  0
 37109  1  0  0  0
 38 43  2  0  0  0
 38 46  1  0  0  0
 38 47  1  0  0  0
 39 64  1  0  0  0
 39 67  2  0  0  0
 40 52  1  0  0  0
 40 53  2  0  0  0
 40 58  1  0  0  0
 41110  1  0  0  0
 41111  1  0  0  0
 41112  1  0  0  0
 41 48  1  0  0  0
 42 43  1  0  0  0
 42 66  1  0  0  0
 42113  1  0  0  0
 42114  1  0  0  0
 43 44  1  0  0  0
 44115  1  0  0  0
 45 46  2  0  0  0
 45116  1  0  0  0
 46117  1  0  0  0
 47118  1  0  0  0
 47119  1  0  0  0
 48 56  1  0  0  0
 48 65  1  0  0  0
 48120  1  0  0  0
 49 50  1  0  0  0
 49 53  1  0  0  0
 49 64  1  0  0  0
 49121  1  0  0  0
 50 51  1  0  0  0
 50122  1  0  0  0
 50123  1  0  0  0
 51 52  1  0  0  0
 51124  1  0  0  0
 51125  1  0  0  0
 52126  1  0  0  0
 52127  1  0  0  0
 53 54  1  0  0  0
 54 55  2  0  0  0
 54128  1  0  0  0
 55 57  1  0  0  0
 55129  1  0  0  0
 56 69  2  0  0  0
 57 58  2  0  0  0
 57130  1  0  0  0
 58131  1  0  0  0
 59 60  1  0  0  0
 59 61  1  0  0  0
 59 62  1  0  0  0
 60132  1  0  0  0
 60133  1  0  0  0
 60134  1  0  0  0
 61135  1  0  0  0
 61136  1  0  0  0
 61137  1  0  0  0
 62138  1  0  0  0
 62139  1  0  0  0
 62140  1  0  0  0
 63 65  1  0  0  0
 63141  1  0  0  0
 63142  1  0  0  0
 63143  1  0  0  0
 64144  1  0  0  0
 65145  1  0  0  0
 68 84  1  0  0  0
 71 74  2  0  0  0
 71 75  1  0  0  0
 71146  1  0  0  0
 72 74  1  0  0  0
 72 76  2  0  0  0
 72147  1  0  0  0
 73 75  2  0  0  0
 73 76  1  0  0  0
 73148  1  0  0  0
 74 80  1  0  0  0
 75 81  1  0  0  0
 76 85  1  0  0  0
 77149  1  0  0  0
 77150  1  0  0  0
 77151  1  0  0  0
 77 85  1  0  0  0
 78 85  1  0  0  0
 78152  1  0  0  0
 78153  1  0  0  0
 78154  1  0  0  0
 79 85  1  0  0  0
 79155  1  0  0  0
 79156  1  0  0  0
 79157  1  0  0  0
 80 82  1  0  0  0
 80158  1  0  0  0
 80159  1  0  0  0
 81 83  1  0  0  0
 81160  1  0  0  0
 81161  1  0  0  0
 82 84  1  0  0  0
 82162  1  0  0  0
 82163  1  0  0  0
 83 86  1  0  0  0
 83164  1  0  0  0
 83165  1  0  0  0
 84166  1  0  0  0
 84167  1  0  0  0
 86168  1  0  0  0
M  ISO  4   1 100  68 101  84 101  86 100
M  END
> <chiral flag>
0

> <version>
0

> <s_m_source_file>
/data/baiqing/PycharmProjects/Reinvent-master-3.2/result/LINK_invent/BTK/process_docking_weight1_custom_sum_contain_oxygen_bond_distance_aromatic_linkinvent_7_9_3/rearranged_h_0088.sdf

> <i_m_source_file_index>
10

> <r_mmod_Potential_Energy-OPLS-2005>
-40.2984962463379

> <r_mmod_Stretch_Energy-OPLS-2005>
51.4465827941895

> <r_mmod_Bend_Energy-OPLS-2005>
118.054138183594

> <r_mmod_Torsional_Energy-OPLS-2005>
222.555786132812

> <r_mmod_Improper_Torsional_Energy-OPLS-2005>
6.13584470748901

> <r_mmod_Van_der_Waal_Energy-OPLS-2005>
161.407012939453

> <r_mmod_Electrostatic_Energy-OPLS-2005>
-421.432250976562

> <r_mmod_Solvation_Energy-OPLS-2005>
-200.503814697266

> <b_mmod_Minimization_Converged-OPLS-2005>
0

> <r_mmod_RMS_Derivative-OPLS-2005>
1.26771783828735

$$$$
10
                    3D
 Structure written by MMmdl.
166174  0  0  1  0            999 V2000
  -30.6076  -14.6801   20.4931 C   0  0  0  0  0  0
  -30.4348  -12.4151   19.4598 C   0  0  0  0  0  0
  -29.5063  -12.5022   18.2276 C   0  0  0  0  0  0
  -28.0306  -12.3289   18.6396 C   0  0  0  0  0  0
  -27.6439  -13.2162   19.8511 C   0  0  2  0  0  0
  -28.6880  -13.1074   20.9823 C   0  0  0  0  0  0
  -25.2552  -13.8154   20.5767 C   0  0  0  0  0  0
  -24.1808  -13.0415   20.9191 C   0  0  0  0  0  0
  -24.6380  -11.6888   20.8727 C   0  0  0  0  0  0
  -23.9059  -10.4279   21.0405 C   0  0  0  0  0  0
  -24.3615   -9.4197   21.9181 C   0  0  0  0  0  0
  -23.6288   -8.2236   22.0752 C   0  0  0  0  0  0
  -22.4265   -8.0280   21.3545 C   0  0  0  0  0  0
  -21.9904   -9.0254   20.4645 C   0  0  0  0  0  0
  -22.7235  -10.2131   20.3054 C   0  0  0  0  0  0
  -21.6840   -6.0737   22.5280 C   0  0  0  0  0  0
  -21.4006   -6.5640   23.8215 C   0  0  0  0  0  0
  -21.3657   -5.6792   24.9178 C   0  0  0  0  0  0
  -21.6046   -4.3055   24.7227 C   0  0  0  0  0  0
  -21.8819   -3.8151   23.4344 C   0  0  0  0  0  0
  -21.9190   -4.6968   22.3400 C   0  0  0  0  0  0
  -22.7839  -13.5223   21.1851 C   0  0  0  0  0  0
  -22.1656   -4.2159   21.0975 F   0  0  0  0  0  0
  -21.5635   -3.4535   25.7737 F   0  0  0  0  0  0
  -29.9989  -13.4514   20.4191 N   0  0  0  0  0  0
  -26.2945  -12.9337   20.3289 N   0  0  0  0  0  0
  -25.9298  -11.6491   20.5720 N   0  0  0  0  0  0
  -22.0478  -12.8224   22.0412 N   0  0  0  0  0  0
  -25.4292  -15.1877   20.4411 N   0  0  0  0  0  0
  -31.7763  -14.8021   20.1134 O   0  0  0  0  0  0
  -21.6621   -6.8881   21.4242 O   0  0  0  0  0  0
  -22.3534  -14.5536   20.6699 O   0  0  0  0  0  0
  -24.6255  -31.8594   23.2016 C   0  0  0  0  0  0
  -25.9111  -32.4767   23.8348 C   0  0  1  0  0  0
  -27.2162  -27.3149   20.1282 C   0  0  0  0  0  0
  -25.5931  -33.8571   24.2277 N   0  0  0  0  0  0
  -23.4180  -30.4800   21.5451 C   0  0  2  0  0  0
  -24.8629  -28.9272   20.1165 C   0  0  0  0  0  0
  -22.7464  -29.4611   22.4968 C   0  0  0  0  0  0
  -18.0284  -28.1353   22.8478 C   0  0  0  0  0  0
  -24.1503  -36.7286   23.2641 C   0  0  0  0  0  0
  -25.9576  -30.7890   21.3713 C   0  0  0  0  0  0
  -26.0320  -29.4144   20.7168 C   0  0  0  0  0  0
  -27.2156  -28.6206   20.7089 C   0  0  0  0  0  0
  -26.0275  -26.8685   19.5184 C   0  0  0  0  0  0
  -24.8618  -27.6589   19.5091 C   0  0  0  0  0  0
  -23.6327  -29.8110   20.1617 C   0  0  0  0  0  0
  -25.4128  -36.3070   24.0325 C   0  0  1  0  0  0
  -20.5879  -28.3667   23.1276 C   0  0  2  0  0  0
  -20.6778  -26.9395   22.5402 C   0  0  0  0  0  0
  -19.5751  -26.6367   21.5197 C   0  0  0  0  0  0
  -18.1931  -26.7902   22.1611 C   0  0  0  0  0  0
  -19.1534  -28.8826   23.2868 C   0  0  0  0  0  0
  -18.9463  -30.1438   23.8874 C   0  0  0  0  0  0
  -17.6456  -30.6567   24.0543 C   0  0  0  0  0  0
  -25.9061  -34.9442   23.5096 C   0  0  0  0  0  0
  -16.5349  -29.9057   23.6323 C   0  0  0  0  0  0
  -16.7269  -28.6470   23.0346 C   0  0  0  0  0  0
  -26.4507  -31.6580   25.0721 C   0  0  0  0  0  0
  -25.3739  -31.3694   26.1438 C   0  0  0  0  0  0
  -27.0364  -30.3010   24.6176 C   0  0  0  0  0  0
  -27.6076  -32.4323   25.7485 C   0  0  0  0  0  0
  -27.5596  -37.1800   24.8465 C   0  0  0  0  0  0
  -21.4187  -29.3017   22.3691 N   0  0  0  0  0  0
  -26.4303  -37.3763   23.9407 N   0  0  0  0  0  0
  -24.6860  -31.0596   22.0964 N   0  0  0  0  0  0
  -23.4197  -28.8179   23.3066 O   0  0  0  0  0  0
  -28.3368  -26.4816   20.1096 O   0  0  0  0  0  0
  -26.5631  -34.8907   22.4669 O   0  0  0  0  0  0
  -23.5422  -32.1415   23.7336 O   0  0  0  0  0  0
  -27.4545  -20.7691   19.3704 C   0  0  0  0  0  0
  -29.4382  -19.8942   20.4549 C   0  0  0  0  0  0
  -28.5851  -21.0248   20.1664 C   0  0  0  0  0  0
  -27.1931  -19.4881   18.8393 C   0  0  0  0  0  0
  -29.2062  -18.5636   19.9345 C   0  0  0  0  0  0
  -28.0770  -18.3974   19.0803 C   0  0  0  0  0  0
  -27.8117  -17.0764   18.3590 C   0  0  0  0  0  0
  -24.7172  -18.9369   18.8698 C   0  0  0  0  0  0
  -29.9487  -16.2151   22.4272 C   0  0  0  0  0  0
  -28.7845  -22.4723   20.7652 C   0  0  0  0  0  0
  -25.9232  -19.3288   18.0065 C   0  0  0  0  0  0
  -30.2287  -17.3699   20.1515 C   0  0  0  0  0  0
  -28.3536  -23.7925   19.9511 C   0  0  0  0  0  0
  -28.2534  -25.1610   20.7729 C   0  0  0  0  0  0
  -29.8162  -16.0074   20.9089 C   0  0  1  0  0  0
  -31.4744  -12.5429   19.1546 H   0  0  0  0  0  0
  -30.3797  -11.4268   19.9189 H   0  0  0  0  0  0
  -29.7813  -11.7415   17.4959 H   0  0  0  0  0  0
  -29.6398  -13.4659   17.7340 H   0  0  0  0  0  0
  -27.8810  -11.2781   18.8908 H   0  0  0  0  0  0
  -27.3736  -12.5348   17.7942 H   0  0  0  0  0  0
  -27.6463  -14.2408   19.4853 H   0  0  0  0  0  0
  -28.7079  -12.0957   21.3908 H   0  0  0  0  0  0
  -28.4218  -13.7612   21.8127 H   0  0  0  0  0  0
  -25.2761   -9.5664   22.4755 H   0  0  0  0  0  0
  -23.9993   -7.4624   22.7466 H   0  0  0  0  0  0
  -21.0836   -8.8781   19.8949 H   0  0  0  0  0  0
  -22.3701  -10.9679   19.6167 H   0  0  0  0  0  0
  -21.1987   -7.6147   23.9726 H   0  0  0  0  0  0
  -21.1480   -6.0515   25.9085 H   0  0  0  0  0  0
  -22.0600   -2.7616   23.2838 H   0  0  0  0  0  0
  -22.4087  -11.9884   22.4808 H   0  0  0  0  0  0
  -21.1103  -13.1273   22.2624 H   0  0  0  0  0  0
  -24.6755  -15.8440   20.6082 H   0  0  0  0  0  0
  -26.3087  -15.6394   20.2310 H   0  0  0  0  0  0
  -26.7186  -32.5451   23.1113 H   0  0  0  0  0  0
  -25.0069  -33.9713   25.0408 H   0  0  0  0  0  0
  -22.7102  -31.2996   21.4043 H   0  0  0  0  0  0
  -23.3753  -35.9635   23.3287 H   0  0  0  0  0  0
  -24.3587  -36.8936   22.2059 H   0  0  0  0  0  0
  -23.7262  -37.6485   23.6679 H   0  0  0  0  0  0
  -26.0859  -31.5527   20.6030 H   0  0  0  0  0  0
  -26.8366  -30.8373   22.0028 H   0  0  0  0  0  0
  -28.1178  -28.9901   21.1767 H   0  0  0  0  0  0
  -25.9986  -25.8940   19.0510 H   0  0  0  0  0  0
  -23.9648  -27.2782   19.0406 H   0  0  0  0  0  0
  -23.7464  -30.5853   19.4015 H   0  0  0  0  0  0
  -22.7523  -29.2381   19.8662 H   0  0  0  0  0  0
  -25.1298  -36.1933   25.0815 H   0  0  0  0  0  0
  -20.9959  -28.3262   24.1398 H   0  0  0  0  0  0
  -20.5696  -26.2278   23.3610 H   0  0  0  0  0  0
  -21.6652  -26.7449   22.1193 H   0  0  0  0  0  0
  -19.6918  -25.6277   21.1230 H   0  0  0  0  0  0
  -19.6678  -27.3188   20.6737 H   0  0  0  0  0  0
  -17.4208  -26.6641   21.4006 H   0  0  0  0  0  0
  -18.0311  -26.0036   22.8994 H   0  0  0  0  0  0
  -19.7945  -30.7240   24.2247 H   0  0  0  0  0  0
  -17.5017  -31.6247   24.5154 H   0  0  0  0  0  0
  -15.5349  -30.2937   23.7665 H   0  0  0  0  0  0
  -15.8673  -28.0789   22.7056 H   0  0  0  0  0  0
  -24.5923  -30.7042   25.7748 H   0  0  0  0  0  0
  -24.8907  -32.2838   26.4889 H   0  0  0  0  0  0
  -25.8044  -30.8845   27.0210 H   0  0  0  0  0  0
  -26.2934  -29.6727   24.1251 H   0  0  0  0  0  0
  -27.4108  -29.7296   25.4684 H   0  0  0  0  0  0
  -27.8782  -30.4278   23.9364 H   0  0  0  0  0  0
  -27.2692  -33.3638   26.2032 H   0  0  0  0  0  0
  -28.3877  -32.6873   25.0295 H   0  0  0  0  0  0
  -28.0745  -31.8464   26.5414 H   0  0  0  0  0  0
  -28.2600  -38.0121   24.7523 H   0  0  0  0  0  0
  -28.1104  -36.2635   24.6266 H   0  0  0  0  0  0
  -27.2295  -37.1422   25.8869 H   0  0  0  0  0  0
  -20.9390  -29.8716   21.6873 H   0  0  0  0  0  0
  -26.0177  -38.2848   24.1390 H   0  0  0  0  0  0
  -26.7566  -21.5675   19.1620 H   0  0  0  0  0  0
  -30.3047  -20.0567   21.0816 H   0  0  0  0  0  0
  -27.8293  -17.2341   17.2809 H   0  0  0  0  0  0
  -26.8291  -16.6866   18.6208 H   0  0  0  0  0  0
  -28.5408  -16.2937   18.5446 H   0  0  0  0  0  0
  -23.8183  -18.8363   18.2620 H   0  0  0  0  0  0
  -24.5171  -19.6894   19.6329 H   0  0  0  0  0  0
  -24.8810  -17.9849   19.3750 H   0  0  0  0  0  0
  -29.2778  -17.0028   22.7684 H   0  0  0  0  0  0
  -30.9652  -16.5033   22.6987 H   0  0  0  0  0  0
  -29.7036  -15.3118   22.9867 H   0  0  0  0  0  0
  -29.8334  -22.5777   21.0442 H   0  0  0  0  0  0
  -28.2370  -22.4710   21.7080 H   0  0  0  0  0  0
  -26.0534  -18.6039   17.2050 H   0  0  0  0  0  0
  -25.7075  -20.2683   17.4958 H   0  0  0  0  0  0
  -31.1106  -17.7820   20.6427 H   0  0  0  0  0  0
  -30.5913  -17.1060   19.1568 H   0  0  0  0  0  0
  -27.3762  -23.6428   19.4945 H   0  0  0  0  0  0
  -29.0434  -23.9230   19.1185 H   0  0  0  0  0  0
  -29.0829  -25.1645   21.4801 H   0  0  0  0  0  0
  -27.3617  -25.1254   21.4023 H   0  0  0  0  0  0
  -28.7665  -15.8226   20.6962 H   0  0  0  0  0  0
  1 25  1  0  0  0
  1 30  2  0  0  0
  1 85  1  0  0  0
  2  3  1  0  0  0
  2 25  1  0  0  0
  2 86  1  0  0  0
  2 87  1  0  0  0
  3  4  1  0  0  0
  3 88  1  0  0  0
  3 89  1  0  0  0
  4  5  1  0  0  0
  4 90  1  0  0  0
  4 91  1  0  0  0
  5  6  1  0  0  0
  5 26  1  0  0  0
  5 92  1  0  0  0
  6 25  1  0  0  0
  6 93  1  0  0  0
  6 94  1  0  0  0
  7  8  2  0  0  0
  7 26  1  0  0  0
  7 29  1  0  0  0
  8  9  1  0  0  0
  8 22  1  0  0  0
  9 10  1  0  0  0
  9 27  2  0  0  0
 10 11  2  0  0  0
 10 15  1  0  0  0
 11 12  1  0  0  0
 11 95  1  0  0  0
 12 13  2  0  0  0
 12 96  1  0  0  0
 13 14  1  0  0  0
 13 31  1  0  0  0
 14 15  2  0  0  0
 14 97  1  0  0  0
 15 98  1  0  0  0
 16 17  2  0  0  0
 16 21  1  0  0  0
 16 31  1  0  0  0
 17 18  1  0  0  0
 17 99  1  0  0  0
 18 19  2  0  0  0
 18100  1  0  0  0
 19 20  1  0  0  0
 19 24  1  0  0  0
 20 21  2  0  0  0
 20101  1  0  0  0
 21 23  1  0  0  0
 22 28  1  0  0  0
 22 32  2  0  0  0
 26 27  1  0  0  0
 28102  1  0  0  0
 28103  1  0  0  0
 29104  1  0  0  0
 29105  1  0  0  0
 33 34  1  0  0  0
 33 66  1  0  0  0
 33 70  2  0  0  0
 34 36  1  0  0  0
 34 59  1  0  0  0
 34106  1  0  0  0
 35 44  2  0  0  0
 35 45  1  0  0  0
 35 68  1  0  0  0
 36 56  1  0  0  0
 36107  1  0  0  0
 37 39  1  0  0  0
 37 47  1  0  0  0
 37 66  1  0  0  0
 37108  1  0  0  0
 38 43  2  0  0  0
 38 46  1  0  0  0
 38 47  1  0  0  0
 39 64  1  0  0  0
 39 67  2  0  0  0
 40 52  1  0  0  0
 40 53  2  0  0  0
 40 58  1  0  0  0
 41109  1  0  0  0
 41110  1  0  0  0
 41111  1  0  0  0
 41 48  1  0  0  0
 42 43  1  0  0  0
 42 66  1  0  0  0
 42112  1  0  0  0
 42113  1  0  0  0
 43 44  1  0  0  0
 44114  1  0  0  0
 45 46  2  0  0  0
 45115  1  0  0  0
 46116  1  0  0  0
 47117  1  0  0  0
 47118  1  0  0  0
 48 56  1  0  0  0
 48 65  1  0  0  0
 48119  1  0  0  0
 49 50  1  0  0  0
 49 53  1  0  0  0
 49 64  1  0  0  0
 49120  1  0  0  0
 50 51  1  0  0  0
 50121  1  0  0  0
 50122  1  0  0  0
 51 52  1  0  0  0
 51123  1  0  0  0
 51124  1  0  0  0
 52125  1  0  0  0
 52126  1  0  0  0
 53 54  1  0  0  0
 54 55  2  0  0  0
 54127  1  0  0  0
 55 57  1  0  0  0
 55128  1  0  0  0
 56 69  2  0  0  0
 57 58  2  0  0  0
 57129  1  0  0  0
 58130  1  0  0  0
 59 60  1  0  0  0
 59 61  1  0  0  0
 59 62  1  0  0  0
 60131  1  0  0  0
 60132  1  0  0  0
 60133  1  0  0  0
 61134  1  0  0  0
 61135  1  0  0  0
 61136  1  0  0  0
 62137  1  0  0  0
 62138  1  0  0  0
 62139  1  0  0  0
 63 65  1  0  0  0
 63140  1  0  0  0
 63141  1  0  0  0
 63142  1  0  0  0
 64143  1  0  0  0
 65144  1  0  0  0
 68 84  1  0  0  0
 71 73  2  0  0  0
 71 74  1  0  0  0
 71145  1  0  0  0
 72 73  1  0  0  0
 72 75  2  0  0  0
 72146  1  0  0  0
 73 80  1  0  0  0
 74 76  2  0  0  0
 74 81  1  0  0  0
 75 76  1  0  0  0
 75 82  1  0  0  0
 76 77  1  0  0  0
 77147  1  0  0  0
 77148  1  0  0  0
 77149  1  0  0  0
 78 81  1  0  0  0
 78150  1  0  0  0
 78151  1  0  0  0
 78152  1  0  0  0
 79153  1  0  0  0
 79154  1  0  0  0
 79155  1  0  0  0
 79 85  1  0  0  0
 80 83  1  0  0  0
 80156  1  0  0  0
 80157  1  0  0  0
 81158  1  0  0  0
 81159  1  0  0  0
 82 85  1  0  0  0
 82160  1  0  0  0
 82161  1  0  0  0
 83 84  1  0  0  0
 83162  1  0  0  0
 83163  1  0  0  0
 84164  1  0  0  0
 84165  1  0  0  0
 85166  1  0  0  0
M  ISO  4   1 100  68 101  84 101  85 100
M  END
> <chiral flag>
0

> <version>
0

> <s_m_source_file>
/data/baiqing/PycharmProjects/Reinvent-master-3.2/result/LINK_invent/BTK/process_docking_weight1_custom_sum_contain_oxygen_bond_distance_aromatic_linkinvent_7_9_3/rearranged_h_0088.sdf

> <i_m_source_file_index>
11

> <r_mmod_Potential_Energy-OPLS-2005>
105.654968261719

> <r_mmod_Stretch_Energy-OPLS-2005>
97.9680328369141

> <r_mmod_Bend_Energy-OPLS-2005>
141.104400634766

> <r_mmod_Torsional_Energy-OPLS-2005>
210.379135131836

> <r_mmod_Improper_Torsional_Energy-OPLS-2005>
3.71976327896118

> <r_mmod_Van_der_Waal_Energy-OPLS-2005>
130.056610107422

> <r_mmod_Electrostatic_Energy-OPLS-2005>
-351.443359375

> <r_mmod_Solvation_Energy-OPLS-2005>
-180.707153320312

> <b_mmod_Minimization_Converged-OPLS-2005>
0

> <r_mmod_RMS_Derivative-OPLS-2005>
2.0684916973114

$$$$
11
                    3D
 Structure written by MMmdl.
167175  0  0  1  0            999 V2000
  -30.6121  -14.5153   20.4609 C   0  0  0  0  0  0
  -30.4173  -12.2818   19.4569 C   0  0  0  0  0  0
  -29.5065  -12.4537   18.2231 C   0  0  0  0  0  0
  -28.0157  -12.3678   18.6046 C   0  0  0  0  0  0
  -27.6520  -13.2001   19.8652 C   0  0  2  0  0  0
  -28.6884  -12.9884   20.9943 C   0  0  0  0  0  0
  -25.2559  -13.8153   20.5597 C   0  0  0  0  0  0
  -24.1809  -13.0413   20.9126 C   0  0  0  0  0  0
  -24.6351  -11.6887   20.8666 C   0  0  0  0  0  0
  -23.9016  -10.4277   21.0337 C   0  0  0  0  0  0
  -24.3587   -9.4219   21.9133 C   0  0  0  0  0  0
  -23.6278   -8.2240   22.0762 C   0  0  0  0  0  0
  -22.4275   -8.0250   21.3543 C   0  0  0  0  0  0
  -21.9865   -9.0218   20.4643 C   0  0  0  0  0  0
  -22.7169  -10.2107   20.3017 C   0  0  0  0  0  0
  -21.6887   -6.0686   22.5261 C   0  0  0  0  0  0
  -21.4024   -6.5604   23.8187 C   0  0  0  0  0  0
  -21.3677   -5.6774   24.9152 C   0  0  0  0  0  0
  -21.6067   -4.3029   24.7216 C   0  0  0  0  0  0
  -21.8840   -3.8105   23.4335 C   0  0  0  0  0  0
  -21.9201   -4.6904   22.3392 C   0  0  0  0  0  0
  -22.7845  -13.5245   21.1776 C   0  0  0  0  0  0
  -22.1676   -4.2102   21.0954 F   0  0  0  0  0  0
  -21.5619   -3.4519   25.7722 F   0  0  0  0  0  0
  -30.0207  -13.2917   20.4472 N   0  0  0  0  0  0
  -26.2966  -12.9277   20.3266 N   0  0  0  0  0  0
  -25.9277  -11.6433   20.5676 N   0  0  0  0  0  0
  -22.0495  -12.8250   22.0356 N   0  0  0  0  0  0
  -25.4116  -15.1873   20.4026 N   0  0  0  0  0  0
  -31.7595  -14.7140   20.0440 O   0  0  0  0  0  0
  -21.6679   -6.8813   21.4215 O   0  0  0  0  0  0
  -22.3496  -14.5469   20.6556 O   0  0  0  0  0  0
  -24.6150  -31.8710   23.2096 C   0  0  0  0  0  0
  -25.9034  -32.4854   23.8404 C   0  0  1  0  0  0
  -27.2197  -27.4534   20.0986 C   0  0  0  0  0  0
  -25.5886  -33.8642   24.2331 N   0  0  0  0  0  0
  -23.3985  -30.4970   21.5515 C   0  0  2  0  0  0
  -24.8416  -28.9694   20.1123 C   0  0  0  0  0  0
  -22.7412  -29.4642   22.4956 C   0  0  0  0  0  0
  -18.0300  -28.1405   22.8518 C   0  0  0  0  0  0
  -24.1488  -36.7341   23.2643 C   0  0  0  0  0  0
  -25.9274  -30.8456   21.3562 C   0  0  0  0  0  0
  -26.0029  -29.4840   20.7020 C   0  0  0  0  0  0
  -27.1990  -28.7338   20.6920 C   0  0  0  0  0  0
  -26.0434  -26.9436   19.5068 C   0  0  0  0  0  0
  -24.8533  -27.6937   19.5194 C   0  0  0  0  0  0
  -23.6028  -29.8371   20.1633 C   0  0  0  0  0  0
  -25.4113  -36.3124   24.0331 C   0  0  1  0  0  0
  -20.5889  -28.3649   23.1358 C   0  0  2  0  0  0
  -20.6793  -26.9376   22.5437 C   0  0  0  0  0  0
  -19.5741  -26.6379   21.5259 C   0  0  0  0  0  0
  -18.1923  -26.7954   22.1649 C   0  0  0  0  0  0
  -19.1552  -28.8840   23.2948 C   0  0  0  0  0  0
  -18.9458  -30.1474   23.8914 C   0  0  0  0  0  0
  -17.6454  -30.6598   24.0581 C   0  0  0  0  0  0
  -25.9047  -34.9490   23.5120 C   0  0  0  0  0  0
  -16.5358  -29.9105   23.6337 C   0  0  0  0  0  0
  -16.7284  -28.6535   23.0330 C   0  0  0  0  0  0
  -26.4443  -31.6668   25.0749 C   0  0  0  0  0  0
  -25.3649  -31.3851   26.1455 C   0  0  0  0  0  0
  -27.0328  -30.3123   24.6183 C   0  0  0  0  0  0
  -27.6032  -32.4387   25.7506 C   0  0  0  0  0  0
  -27.5597  -37.1821   24.8451 C   0  0  0  0  0  0
  -21.4142  -29.3008   22.3751 N   0  0  0  0  0  0
  -26.4323  -37.3798   23.9394 N   0  0  0  0  0  0
  -24.6661  -31.0824   22.0995 N   0  0  0  0  0  0
  -23.4196  -28.8152   23.2959 O   0  0  0  0  0  0
  -28.3715  -26.7058   20.1106 O   0  0  0  0  0  0
  -26.5604  -34.8938   22.4683 O   0  0  0  0  0  0
  -23.5344  -32.1450   23.7512 O   0  0  0  0  0  0
  -30.6943  -20.5580   20.9057 C   0  0  0  0  0  0
  -28.9170  -19.1441   20.1224 C   0  0  0  0  0  0
  -29.3920  -20.4470   20.3780 C   0  0  0  0  0  0
  -31.4651  -19.3943   21.1199 C   0  0  0  0  0  0
  -29.7638  -18.0338   20.3560 C   0  0  0  0  0  0
  -33.7728  -19.5976   20.1443 C   0  0  0  0  0  0
  -33.4494  -18.3909   22.4015 C   0  0  0  0  0  0
  -29.9871  -16.5834   18.3430 C   0  0  0  0  0  0
  -28.6153  -21.6844   19.8959 C   0  0  0  0  0  0
  -28.6116  -22.9315   20.8201 C   0  0  0  0  0  0
  -28.3803  -24.2506   20.0347 C   0  0  0  0  0  0
  -28.2972  -25.5146   20.9054 C   0  0  0  0  0  0
  -32.9506  -19.5009   21.4448 C   0  0  0  0  0  0
  -29.4227  -16.6660   19.7825 C   0  0  2  0  0  0
  -31.0052  -18.1566   20.8534 N   0  0  0  0  0  0
  -29.7245  -15.5092   20.6646 N   0  0  0  0  0  0
  -31.4652  -12.3722   19.1689 H   0  0  0  0  0  0
  -30.3033  -11.2816   19.8734 H   0  0  0  0  0  0
  -29.7431  -11.7017   17.4675 H   0  0  0  0  0  0
  -29.7158  -13.4094   17.7486 H   0  0  0  0  0  0
  -27.7818  -11.3133   18.7571 H   0  0  0  0  0  0
  -27.4062  -12.7011   17.7647 H   0  0  0  0  0  0
  -27.6662  -14.2436   19.5547 H   0  0  0  0  0  0
  -28.6614  -11.9590   21.3553 H   0  0  0  0  0  0
  -28.4567  -13.6181   21.8535 H   0  0  0  0  0  0
  -25.2749   -9.5732   22.4679 H   0  0  0  0  0  0
  -24.0004   -7.4679   22.7515 H   0  0  0  0  0  0
  -21.0777   -8.8702   19.8978 H   0  0  0  0  0  0
  -22.3600  -10.9605   19.6122 H   0  0  0  0  0  0
  -21.2045   -7.6133   23.9655 H   0  0  0  0  0  0
  -21.1483   -6.0523   25.9064 H   0  0  0  0  0  0
  -22.0605   -2.7565   23.2865 H   0  0  0  0  0  0
  -22.4156  -12.0001   22.4827 H   0  0  0  0  0  0
  -21.1102  -13.1248   22.2459 H   0  0  0  0  0  0
  -24.6196  -15.8164   20.4843 H   0  0  0  0  0  0
  -26.2447  -15.6494   20.0646 H   0  0  0  0  0  0
  -26.7107  -32.5555   23.1187 H   0  0  0  0  0  0
  -25.0047  -33.9817   25.0473 H   0  0  0  0  0  0
  -22.6880  -31.3163   21.4199 H   0  0  0  0  0  0
  -23.3765  -35.9665   23.3315 H   0  0  0  0  0  0
  -24.3602  -36.8954   22.2063 H   0  0  0  0  0  0
  -23.7250  -37.6542   23.6678 H   0  0  0  0  0  0
  -26.0440  -31.6131   20.5904 H   0  0  0  0  0  0
  -26.8162  -30.8927   21.9752 H   0  0  0  0  0  0
  -28.1004  -29.1244   21.1473 H   0  0  0  0  0  0
  -26.0399  -25.9647   19.0501 H   0  0  0  0  0  0
  -23.9526  -27.2836   19.0855 H   0  0  0  0  0  0
  -23.7115  -30.6219   19.4133 H   0  0  0  0  0  0
  -22.7248  -29.2624   19.8622 H   0  0  0  0  0  0
  -25.1306  -36.2010   25.0838 H   0  0  0  0  0  0
  -21.0024  -28.3207   24.1461 H   0  0  0  0  0  0
  -20.5790  -26.2198   23.3610 H   0  0  0  0  0  0
  -21.6662  -26.7455   22.1172 H   0  0  0  0  0  0
  -19.6898  -25.6296   21.1280 H   0  0  0  0  0  0
  -19.6760  -27.3221   20.6824 H   0  0  0  0  0  0
  -17.4229  -26.6786   21.4015 H   0  0  0  0  0  0
  -18.0245  -26.0112   22.9035 H   0  0  0  0  0  0
  -19.7940  -30.7318   24.2267 H   0  0  0  0  0  0
  -17.5003  -31.6267   24.5191 H   0  0  0  0  0  0
  -15.5361  -30.2990   23.7661 H   0  0  0  0  0  0
  -15.8689  -28.0876   22.6974 H   0  0  0  0  0  0
  -24.5759  -30.7303   25.7767 H   0  0  0  0  0  0
  -24.8886  -32.3038   26.4890 H   0  0  0  0  0  0
  -25.7840  -30.8983   27.0258 H   0  0  0  0  0  0
  -26.2943  -29.6873   24.1151 H   0  0  0  0  0  0
  -27.4037  -29.7398   25.4705 H   0  0  0  0  0  0
  -27.8771  -30.4524   23.9428 H   0  0  0  0  0  0
  -27.2709  -33.3716   26.2097 H   0  0  0  0  0  0
  -28.3824  -32.6912   25.0298 H   0  0  0  0  0  0
  -28.0728  -31.8497   26.5408 H   0  0  0  0  0  0
  -28.2592  -38.0135   24.7507 H   0  0  0  0  0  0
  -28.1103  -36.2662   24.6256 H   0  0  0  0  0  0
  -27.2305  -37.1442   25.8848 H   0  0  0  0  0  0
  -20.9268  -29.8700   21.6998 H   0  0  0  0  0  0
  -26.0215  -38.2887   24.1369 H   0  0  0  0  0  0
  -31.1438  -21.5264   21.0596 H   0  0  0  0  0  0
  -27.9502  -18.9966   19.6645 H   0  0  0  0  0  0
  -33.4636  -20.4737   19.5680 H   0  0  0  0  0  0
  -33.6703  -18.7099   19.5153 H   0  0  0  0  0  0
  -34.8322  -19.7225   20.3595 H   0  0  0  0  0  0
  -33.4508  -17.4023   21.9359 H   0  0  0  0  0  0
  -32.8305  -18.3259   23.2994 H   0  0  0  0  0  0
  -34.4694  -18.5881   22.7258 H   0  0  0  0  0  0
  -31.0663  -16.7367   18.3335 H   0  0  0  0  0  0
  -29.5527  -17.3692   17.7183 H   0  0  0  0  0  0
  -29.7713  -15.6313   17.8675 H   0  0  0  0  0  0
  -27.5888  -21.4318   19.6171 H   0  0  0  0  0  0
  -29.0951  -21.9579   18.9588 H   0  0  0  0  0  0
  -29.5685  -23.0330   21.3275 H   0  0  0  0  0  0
  -27.8631  -22.7987   21.6041 H   0  0  0  0  0  0
  -27.4728  -24.1779   19.4402 H   0  0  0  0  0  0
  -29.2006  -24.3848   19.3283 H   0  0  0  0  0  0
  -29.1290  -25.5308   21.6073 H   0  0  0  0  0  0
  -27.3948  -25.4869   21.5195 H   0  0  0  0  0  0
  -33.0739  -20.4468   21.9743 H   0  0  0  0  0  0
  -28.3386  -16.6511   19.6728 H   0  0  0  0  0  0
  -28.9240  -15.2259   21.2114 H   0  0  0  0  0  0
  1 25  1  0  0  0
  1 30  2  0  0  0
  1 86  1  0  0  0
  2  3  1  0  0  0
  2 25  1  0  0  0
  2 87  1  0  0  0
  2 88  1  0  0  0
  3  4  1  0  0  0
  3 89  1  0  0  0
  3 90  1  0  0  0
  4  5  1  0  0  0
  4 91  1  0  0  0
  4 92  1  0  0  0
  5  6  1  0  0  0
  5 26  1  0  0  0
  5 93  1  0  0  0
  6 25  1  0  0  0
  6 94  1  0  0  0
  6 95  1  0  0  0
  7  8  2  0  0  0
  7 26  1  0  0  0
  7 29  1  0  0  0
  8  9  1  0  0  0
  8 22  1  0  0  0
  9 10  1  0  0  0
  9 27  2  0  0  0
 10 11  2  0  0  0
 10 15  1  0  0  0
 11 12  1  0  0  0
 11 96  1  0  0  0
 12 13  2  0  0  0
 12 97  1  0  0  0
 13 14  1  0  0  0
 13 31  1  0  0  0
 14 15  2  0  0  0
 14 98  1  0  0  0
 15 99  1  0  0  0
 16 17  2  0  0  0
 16 21  1  0  0  0
 16 31  1  0  0  0
 17 18  1  0  0  0
 17100  1  0  0  0
 18 19  2  0  0  0
 18101  1  0  0  0
 19 20  1  0  0  0
 19 24  1  0  0  0
 20 21  2  0  0  0
 20102  1  0  0  0
 21 23  1  0  0  0
 22 28  1  0  0  0
 22 32  2  0  0  0
 26 27  1  0  0  0
 28103  1  0  0  0
 28104  1  0  0  0
 29105  1  0  0  0
 29106  1  0  0  0
 33 34  1  0  0  0
 33 66  1  0  0  0
 33 70  2  0  0  0
 34 36  1  0  0  0
 34 59  1  0  0  0
 34107  1  0  0  0
 35 44  2  0  0  0
 35 45  1  0  0  0
 35 68  1  0  0  0
 36 56  1  0  0  0
 36108  1  0  0  0
 37 39  1  0  0  0
 37 47  1  0  0  0
 37 66  1  0  0  0
 37109  1  0  0  0
 38 43  2  0  0  0
 38 46  1  0  0  0
 38 47  1  0  0  0
 39 64  1  0  0  0
 39 67  2  0  0  0
 40 52  1  0  0  0
 40 53  2  0  0  0
 40 58  1  0  0  0
 41110  1  0  0  0
 41111  1  0  0  0
 41112  1  0  0  0
 41 48  1  0  0  0
 42 43  1  0  0  0
 42 66  1  0  0  0
 42113  1  0  0  0
 42114  1  0  0  0
 43 44  1  0  0  0
 44115  1  0  0  0
 45 46  2  0  0  0
 45116  1  0  0  0
 46117  1  0  0  0
 47118  1  0  0  0
 47119  1  0  0  0
 48 56  1  0  0  0
 48 65  1  0  0  0
 48120  1  0  0  0
 49 50  1  0  0  0
 49 53  1  0  0  0
 49 64  1  0  0  0
 49121  1  0  0  0
 50 51  1  0  0  0
 50122  1  0  0  0
 50123  1  0  0  0
 51 52  1  0  0  0
 51124  1  0  0  0
 51125  1  0  0  0
 52126  1  0  0  0
 52127  1  0  0  0
 53 54  1  0  0  0
 54 55  2  0  0  0
 54128  1  0  0  0
 55 57  1  0  0  0
 55129  1  0  0  0
 56 69  2  0  0  0
 57 58  2  0  0  0
 57130  1  0  0  0
 58131  1  0  0  0
 59 60  1  0  0  0
 59 61  1  0  0  0
 59 62  1  0  0  0
 60132  1  0  0  0
 60133  1  0  0  0
 60134  1  0  0  0
 61135  1  0  0  0
 61136  1  0  0  0
 61137  1  0  0  0
 62138  1  0  0  0
 62139  1  0  0  0
 62140  1  0  0  0
 63 65  1  0  0  0
 63141  1  0  0  0
 63142  1  0  0  0
 63143  1  0  0  0
 64144  1  0  0  0
 65145  1  0  0  0
 68 82  1  0  0  0
 71 73  2  0  0  0
 71 74  1  0  0  0
 71146  1  0  0  0
 72 73  1  0  0  0
 72 75  2  0  0  0
 72147  1  0  0  0
 73 79  1  0  0  0
 74 83  1  0  0  0
 74 85  2  0  0  0
 75 84  1  0  0  0
 75 85  1  0  0  0
 76148  1  0  0  0
 76149  1  0  0  0
 76150  1  0  0  0
 76 83  1  0  0  0
 77 83  1  0  0  0
 77151  1  0  0  0
 77152  1  0  0  0
 77153  1  0  0  0
 78154  1  0  0  0
 78155  1  0  0  0
 78156  1  0  0  0
 78 84  1  0  0  0
 79 80  1  0  0  0
 79157  1  0  0  0
 79158  1  0  0  0
 80 81  1  0  0  0
 80159  1  0  0  0
 80160  1  0  0  0
 81 82  1  0  0  0
 81161  1  0  0  0
 81162  1  0  0  0
 82163  1  0  0  0
 82164  1  0  0  0
 83165  1  0  0  0
 84 86  1  0  0  0
 84166  1  0  0  0
 86167  1  0  0  0
M  ISO  4   1 100  68 101  82 101  86 100
M  END
> <chiral flag>
0

> <version>
0

> <s_m_source_file>
/data/baiqing/PycharmProjects/Reinvent-master-3.2/result/LINK_invent/BTK/process_docking_weight1_custom_sum_contain_oxygen_bond_distance_aromatic_linkinvent_7_9_3/rearranged_h_0088.sdf

> <i_m_source_file_index>
12

> <r_mmod_Potential_Energy-OPLS-2005>
-287.200347900391

> <r_mmod_Stretch_Energy-OPLS-2005>
37.0516014099121

> <r_mmod_Bend_Energy-OPLS-2005>
101.747367858887

> <r_mmod_Torsional_Energy-OPLS-2005>
246.677169799805

> <r_mmod_Improper_Torsional_Energy-OPLS-2005>
14.3193674087524

> <r_mmod_Van_der_Waal_Energy-OPLS-2005>
150.153030395508

> <r_mmod_Electrostatic_Energy-OPLS-2005>
-635.275451660156

> <r_mmod_Solvation_Energy-OPLS-2005>
-221.846633911133

> <b_mmod_Minimization_Converged-OPLS-2005>
0

> <r_mmod_RMS_Derivative-OPLS-2005>
7.62165403366089

$$$$
12
                    3D
 Structure written by MMmdl.
174182  0  0  1  0            999 V2000
  -30.5954  -14.7332   20.4556 C   0  0  0  0  0  0
  -30.4491  -12.4464   19.4444 C   0  0  0  0  0  0
  -29.5052  -12.4727   18.2215 C   0  0  0  0  0  0
  -28.0303  -12.3157   18.6429 C   0  0  0  0  0  0
  -27.6442  -13.2205   19.8427 C   0  0  2  0  0  0
  -28.6982  -13.1356   20.9671 C   0  0  0  0  0  0
  -25.2531  -13.8172   20.5675 C   0  0  0  0  0  0
  -24.1822  -13.0429   20.9207 C   0  0  0  0  0  0
  -24.6398  -11.6904   20.8754 C   0  0  0  0  0  0
  -23.9074  -10.4286   21.0414 C   0  0  0  0  0  0
  -24.3623   -9.4198   21.9186 C   0  0  0  0  0  0
  -23.6292   -8.2237   22.0753 C   0  0  0  0  0  0
  -22.4276   -8.0281   21.3542 C   0  0  0  0  0  0
  -21.9914   -9.0258   20.4646 C   0  0  0  0  0  0
  -22.7246  -10.2131   20.3057 C   0  0  0  0  0  0
  -21.6853   -6.0731   22.5279 C   0  0  0  0  0  0
  -21.4014   -6.5639   23.8212 C   0  0  0  0  0  0
  -21.3658   -5.6792   24.9178 C   0  0  0  0  0  0
  -21.6046   -4.3054   24.7230 C   0  0  0  0  0  0
  -21.8816   -3.8144   23.4350 C   0  0  0  0  0  0
  -21.9191   -4.6959   22.3404 C   0  0  0  0  0  0
  -22.7838  -13.5212   21.1873 C   0  0  0  0  0  0
  -22.1659   -4.2145   21.0982 F   0  0  0  0  0  0
  -21.5629   -3.4539   25.7743 F   0  0  0  0  0  0
  -29.9952  -13.4984   20.3757 N   0  0  0  0  0  0
  -26.2961  -12.9368   20.3261 N   0  0  0  0  0  0
  -25.9326  -11.6522   20.5759 N   0  0  0  0  0  0
  -22.0493  -12.8201   22.0435 N   0  0  0  0  0  0
  -25.4183  -15.1898   20.4080 N   0  0  0  0  0  0
  -31.7976  -14.8728   20.2226 O   0  0  0  0  0  0
  -21.6636   -6.8876   21.4240 O   0  0  0  0  0  0
  -22.3519  -14.5518   20.6720 O   0  0  0  0  0  0
  -24.6296  -31.8576   23.2001 C   0  0  0  0  0  0
  -25.9129  -32.4771   23.8347 C   0  0  1  0  0  0
  -27.2232  -27.2684   20.1231 C   0  0  0  0  0  0
  -25.5908  -33.8573   24.2263 N   0  0  0  0  0  0
  -23.4283  -30.4792   21.5451 C   0  0  2  0  0  0
  -24.8756  -28.9312   20.1095 C   0  0  0  0  0  0
  -22.7521  -29.4593   22.4924 C   0  0  0  0  0  0
  -18.0297  -28.1392   22.8494 C   0  0  0  0  0  0
  -24.1484  -36.7296   23.2638 C   0  0  0  0  0  0
  -25.9730  -30.7697   21.3817 C   0  0  0  0  0  0
  -26.0463  -29.3933   20.7240 C   0  0  0  0  0  0
  -27.2206  -28.5732   20.7242 C   0  0  0  0  0  0
  -26.0293  -26.8814   19.4705 C   0  0  0  0  0  0
  -24.8715  -27.6817   19.4739 C   0  0  0  0  0  0
  -23.6468  -29.8174   20.1595 C   0  0  0  0  0  0
  -25.4112  -36.3092   24.0321 C   0  0  1  0  0  0
  -20.5900  -28.3715   23.1257 C   0  0  2  0  0  0
  -20.6801  -26.9427   22.5411 C   0  0  0  0  0  0
  -19.5769  -26.6383   21.5231 C   0  0  0  0  0  0
  -18.1943  -26.7934   22.1635 C   0  0  0  0  0  0
  -19.1549  -28.8872   23.2872 C   0  0  0  0  0  0
  -18.9473  -30.1463   23.8901 C   0  0  0  0  0  0
  -17.6471  -30.6597   24.0560 C   0  0  0  0  0  0
  -25.9052  -34.9457   23.5107 C   0  0  0  0  0  0
  -16.5361  -29.9093   23.6317 C   0  0  0  0  0  0
  -16.7285  -28.6504   23.0362 C   0  0  0  0  0  0
  -26.4499  -31.6599   25.0741 C   0  0  0  0  0  0
  -25.3692  -31.3745   26.1439 C   0  0  0  0  0  0
  -27.0353  -30.3018   24.6227 C   0  0  0  0  0  0
  -27.6054  -32.4346   25.7502 C   0  0  0  0  0  0
  -27.5592  -37.1797   24.8459 C   0  0  0  0  0  0
  -21.4232  -29.3049   22.3652 N   0  0  0  0  0  0
  -26.4303  -37.3773   23.9403 N   0  0  0  0  0  0
  -24.6960  -31.0538   22.0982 N   0  0  0  0  0  0
  -23.4221  -28.8125   23.3019 O   0  0  0  0  0  0
  -28.3213  -26.3760   20.1929 O   0  0  0  0  0  0
  -26.5646  -34.8927   22.4689 O   0  0  0  0  0  0
  -23.5443  -32.1378   23.7301 O   0  0  0  0  0  0
  -28.0066  -22.0132   18.7533 C   0  0  0  0  0  0
  -29.6385  -21.0701   20.2747 C   0  0  0  0  0  0
  -28.9173  -22.2414   19.8026 C   0  0  0  0  0  0
  -27.8644  -20.7482   18.1435 C   0  0  0  0  0  0
  -29.4990  -19.7395   19.6989 C   0  0  0  0  0  0
  -28.6178  -19.6243   18.5863 C   0  0  0  0  0  0
  -26.9103  -20.6480   16.9603 C   0  0  0  0  0  0
  -30.3780  -15.9050   16.7428 C   0  0  0  0  0  0
  -30.6704  -17.2299   14.6504 C   0  0  0  0  0  0
  -28.3810  -16.4743   15.3168 C   0  0  0  0  0  0
  -29.1274  -23.7390   20.3217 C   0  0  0  0  0  0
  -30.3977  -18.4786   20.1002 C   0  0  0  0  0  0
  -28.5496  -18.3146   17.7928 C   0  0  0  0  0  0
  -29.5765  -18.3055   16.6325 C   0  0  0  0  0  0
  -29.8522  -17.2739   21.0195 C   0  0  0  0  0  0
  -28.1114  -24.9220   19.8740 C   0  0  0  0  0  0
  -29.7358  -16.9789   15.8497 C   0  0  0  0  0  0
  -29.7422  -15.8094   20.5926 N   0  0  0  0  0  0
  -31.4814  -12.6040   19.1255 H   0  0  0  0  0  0
  -30.4264  -11.4710   19.9321 H   0  0  0  0  0  0
  -29.7772  -11.6840   17.5190 H   0  0  0  0  0  0
  -29.6267  -13.4077   17.6815 H   0  0  0  0  0  0
  -27.8772  -11.2684   18.9072 H   0  0  0  0  0  0
  -27.3728  -12.5117   17.7946 H   0  0  0  0  0  0
  -27.6407  -14.2407   19.4607 H   0  0  0  0  0  0
  -28.7386  -12.1283   21.3850 H   0  0  0  0  0  0
  -28.4405  -13.7976   21.7961 H   0  0  0  0  0  0
  -25.2768   -9.5671   22.4761 H   0  0  0  0  0  0
  -23.9999   -7.4626   22.7475 H   0  0  0  0  0  0
  -21.0841   -8.8780   19.8954 H   0  0  0  0  0  0
  -22.3704  -10.9677   19.6167 H   0  0  0  0  0  0
  -21.2005   -7.6147   23.9715 H   0  0  0  0  0  0
  -21.1484   -6.0526   25.9083 H   0  0  0  0  0  0
  -22.0597   -2.7607   23.2856 H   0  0  0  0  0  0
  -22.4121  -11.9861   22.4813 H   0  0  0  0  0  0
  -21.1114  -13.1218   22.2664 H   0  0  0  0  0  0
  -24.6390  -15.8310   20.5131 H   0  0  0  0  0  0
  -26.2511  -15.6404   20.0546 H   0  0  0  0  0  0
  -26.7205  -32.5427   23.1096 H   0  0  0  0  0  0
  -24.9987  -33.9695   25.0363 H   0  0  0  0  0  0
  -22.7214  -31.2991   21.4032 H   0  0  0  0  0  0
  -23.3748  -35.9628   23.3289 H   0  0  0  0  0  0
  -24.3550  -36.8941   22.2054 H   0  0  0  0  0  0
  -23.7236  -37.6484   23.6681 H   0  0  0  0  0  0
  -26.1116  -31.5282   20.6099 H   0  0  0  0  0  0
  -26.8505  -30.8196   22.0143 H   0  0  0  0  0  0
  -28.1135  -28.9183   21.2273 H   0  0  0  0  0  0
  -25.9538  -25.9338   18.9590 H   0  0  0  0  0  0
  -23.9746  -27.3215   18.9868 H   0  0  0  0  0  0
  -23.7712  -30.5958   19.4063 H   0  0  0  0  0  0
  -22.7648  -29.2516   19.8573 H   0  0  0  0  0  0
  -25.1288  -36.1947   25.0810 H   0  0  0  0  0  0
  -20.9997  -28.3334   24.1377 H   0  0  0  0  0  0
  -20.5729  -26.2337   23.3636 H   0  0  0  0  0  0
  -21.6662  -26.7470   22.1182 H   0  0  0  0  0  0
  -19.6910  -25.6290   21.1267 H   0  0  0  0  0  0
  -19.6688  -27.3204   20.6766 H   0  0  0  0  0  0
  -17.4215  -26.6702   21.4034 H   0  0  0  0  0  0
  -18.0303  -26.0079   22.9025 H   0  0  0  0  0  0
  -19.7946  -30.7268   24.2290 H   0  0  0  0  0  0
  -17.5028  -31.6270   24.5179 H   0  0  0  0  0  0
  -15.5362  -30.3004   23.7628 H   0  0  0  0  0  0
  -15.8689  -28.0817   22.7088 H   0  0  0  0  0  0
  -24.5869  -30.7112   25.7727 H   0  0  0  0  0  0
  -24.8869  -32.2916   26.4841 H   0  0  0  0  0  0
  -25.7971  -30.8909   27.0231 H   0  0  0  0  0  0
  -26.2957  -29.6747   24.1247 H   0  0  0  0  0  0
  -27.4025  -29.7306   25.4762 H   0  0  0  0  0  0
  -27.8833  -30.4282   23.9496 H   0  0  0  0  0  0
  -27.2681  -33.3665   26.2054 H   0  0  0  0  0  0
  -28.3874  -32.6880   25.0332 H   0  0  0  0  0  0
  -28.0721  -31.8486   26.5430 H   0  0  0  0  0  0
  -28.2591  -38.0113   24.7522 H   0  0  0  0  0  0
  -28.1120  -36.2642   24.6281 H   0  0  0  0  0  0
  -27.2300  -37.1424   25.8858 H   0  0  0  0  0  0
  -20.9447  -29.8777   21.6838 H   0  0  0  0  0  0
  -26.0193  -38.2844   24.1413 H   0  0  0  0  0  0
  -27.4255  -22.8331   18.3610 H   0  0  0  0  0  0
  -30.3571  -21.2055   21.0714 H   0  0  0  0  0  0
  -26.4581  -21.6112   16.7244 H   0  0  0  0  0  0
  -26.0992  -19.9519   17.1716 H   0  0  0  0  0  0
  -27.4274  -20.3148   16.0610 H   0  0  0  0  0  0
  -30.5578  -14.9846   16.1862 H   0  0  0  0  0  0
  -29.7407  -15.6574   17.5898 H   0  0  0  0  0  0
  -31.3384  -16.2335   17.1432 H   0  0  0  0  0  0
  -30.8354  -16.3195   14.0727 H   0  0  0  0  0  0
  -31.6479  -17.5897   14.9739 H   0  0  0  0  0  0
  -30.2581  -17.9750   13.9689 H   0  0  0  0  0  0
  -28.5055  -15.5903   14.6897 H   0  0  0  0  0  0
  -27.8820  -17.2341   14.7137 H   0  0  0  0  0  0
  -27.7028  -16.1958   16.1233 H   0  0  0  0  0  0
  -30.1326  -24.0314   20.0150 H   0  0  0  0  0  0
  -29.1534  -23.7047   21.4114 H   0  0  0  0  0  0
  -31.2523  -18.9021   20.6295 H   0  0  0  0  0  0
  -30.8519  -18.0553   19.2053 H   0  0  0  0  0  0
  -27.5439  -18.1634   17.4066 H   0  0  0  0  0  0
  -28.7006  -17.4671   18.4578 H   0  0  0  0  0  0
  -30.5545  -18.5889   17.0227 H   0  0  0  0  0  0
  -29.3192  -19.0996   15.9322 H   0  0  0  0  0  0
  -28.8541  -17.5594   21.3556 H   0  0  0  0  0  0
  -30.4452  -17.2732   21.9348 H   0  0  0  0  0  0
  -27.1415  -24.6218   20.2728 H   0  0  0  0  0  0
  -28.0280  -24.8885   18.7887 H   0  0  0  0  0  0
  -28.7850  -15.4925   20.6043 H   0  0  0  0  0  0
  1 25  1  0  0  0
  1 30  2  0  0  0
  1 88  1  0  0  0
  2  3  1  0  0  0
  2 25  1  0  0  0
  2 89  1  0  0  0
  2 90  1  0  0  0
  3  4  1  0  0  0
  3 91  1  0  0  0
  3 92  1  0  0  0
  4  5  1  0  0  0
  4 93  1  0  0  0
  4 94  1  0  0  0
  5  6  1  0  0  0
  5 26  1  0  0  0
  5 95  1  0  0  0
  6 25  1  0  0  0
  6 96  1  0  0  0
  6 97  1  0  0  0
  7  8  2  0  0  0
  7 26  1  0  0  0
  7 29  1  0  0  0
  8  9  1  0  0  0
  8 22  1  0  0  0
  9 10  1  0  0  0
  9 27  2  0  0  0
 10 11  2  0  0  0
 10 15  1  0  0  0
 11 12  1  0  0  0
 11 98  1  0  0  0
 12 13  2  0  0  0
 12 99  1  0  0  0
 13 14  1  0  0  0
 13 31  1  0  0  0
 14 15  2  0  0  0
 14100  1  0  0  0
 15101  1  0  0  0
 16 17  2  0  0  0
 16 21  1  0  0  0
 16 31  1  0  0  0
 17 18  1  0  0  0
 17102  1  0  0  0
 18 19  2  0  0  0
 18103  1  0  0  0
 19 20  1  0  0  0
 19 24  1  0  0  0
 20 21  2  0  0  0
 20104  1  0  0  0
 21 23  1  0  0  0
 22 28  1  0  0  0
 22 32  2  0  0  0
 26 27  1  0  0  0
 28105  1  0  0  0
 28106  1  0  0  0
 29107  1  0  0  0
 29108  1  0  0  0
 33 34  1  0  0  0
 33 66  1  0  0  0
 33 70  2  0  0  0
 34 36  1  0  0  0
 34 59  1  0  0  0
 34109  1  0  0  0
 35 44  2  0  0  0
 35 45  1  0  0  0
 35 68  1  0  0  0
 36 56  1  0  0  0
 36110  1  0  0  0
 37 39  1  0  0  0
 37 47  1  0  0  0
 37 66  1  0  0  0
 37111  1  0  0  0
 38 43  2  0  0  0
 38 46  1  0  0  0
 38 47  1  0  0  0
 39 64  1  0  0  0
 39 67  2  0  0  0
 40 52  1  0  0  0
 40 53  2  0  0  0
 40 58  1  0  0  0
 41112  1  0  0  0
 41113  1  0  0  0
 41114  1  0  0  0
 41 48  1  0  0  0
 42 43  1  0  0  0
 42 66  1  0  0  0
 42115  1  0  0  0
 42116  1  0  0  0
 43 44  1  0  0  0
 44117  1  0  0  0
 45 46  2  0  0  0
 45118  1  0  0  0
 46119  1  0  0  0
 47120  1  0  0  0
 47121  1  0  0  0
 48 56  1  0  0  0
 48 65  1  0  0  0
 48122  1  0  0  0
 49 50  1  0  0  0
 49 53  1  0  0  0
 49 64  1  0  0  0
 49123  1  0  0  0
 50 51  1  0  0  0
 50124  1  0  0  0
 50125  1  0  0  0
 51 52  1  0  0  0
 51126  1  0  0  0
 51127  1  0  0  0
 52128  1  0  0  0
 52129  1  0  0  0
 53 54  1  0  0  0
 54 55  2  0  0  0
 54130  1  0  0  0
 55 57  1  0  0  0
 55131  1  0  0  0
 56 69  2  0  0  0
 57 58  2  0  0  0
 57132  1  0  0  0
 58133  1  0  0  0
 59 60  1  0  0  0
 59 61  1  0  0  0
 59 62  1  0  0  0
 60134  1  0  0  0
 60135  1  0  0  0
 60136  1  0  0  0
 61137  1  0  0  0
 61138  1  0  0  0
 61139  1  0  0  0
 62140  1  0  0  0
 62141  1  0  0  0
 62142  1  0  0  0
 63 65  1  0  0  0
 63143  1  0  0  0
 63144  1  0  0  0
 63145  1  0  0  0
 64146  1  0  0  0
 65147  1  0  0  0
 68 86  1  0  0  0
 71 73  2  0  0  0
 71 74  1  0  0  0
 71148  1  0  0  0
 72 73  1  0  0  0
 72 75  2  0  0  0
 72149  1  0  0  0
 73 81  1  0  0  0
 74 76  2  0  0  0
 74 77  1  0  0  0
 75 76  1  0  0  0
 75 82  1  0  0  0
 76 83  1  0  0  0
 77150  1  0  0  0
 77151  1  0  0  0
 77152  1  0  0  0
 78153  1  0  0  0
 78154  1  0  0  0
 78155  1  0  0  0
 78 87  1  0  0  0
 79 87  1  0  0  0
 79156  1  0  0  0
 79157  1  0  0  0
 79158  1  0  0  0
 80 87  1  0  0  0
 80159  1  0  0  0
 80160  1  0  0  0
 80161  1  0  0  0
 81 86  1  0  0  0
 81162  1  0  0  0
 81163  1  0  0  0
 82 85  1  0  0  0
 82164  1  0  0  0
 82165  1  0  0  0
 83 84  1  0  0  0
 83166  1  0  0  0
 83167  1  0  0  0
 84 87  1  0  0  0
 84168  1  0  0  0
 84169  1  0  0  0
 85 88  1  0  0  0
 85170  1  0  0  0
 85171  1  0  0  0
 86172  1  0  0  0
 86173  1  0  0  0
 88174  1  0  0  0
M  ISO  4   1 100  68 101  86 101  88 100
M  END
> <chiral flag>
0

> <version>
0

> <s_m_source_file>
/data/baiqing/PycharmProjects/Reinvent-master-3.2/result/LINK_invent/BTK/process_docking_weight1_custom_sum_contain_oxygen_bond_distance_aromatic_linkinvent_7_9_3/rearranged_h_0088.sdf

> <i_m_source_file_index>
13

> <r_mmod_Potential_Energy-OPLS-2005>
179.091979980469

> <r_mmod_Stretch_Energy-OPLS-2005>
122.480758666992

> <r_mmod_Bend_Energy-OPLS-2005>
190.680465698242

> <r_mmod_Torsional_Energy-OPLS-2005>
235.034545898438

> <r_mmod_Improper_Torsional_Energy-OPLS-2005>
6.41906070709229

> <r_mmod_Van_der_Waal_Energy-OPLS-2005>
135.885482788086

> <r_mmod_Electrostatic_Energy-OPLS-2005>
-396.860321044922

> <r_mmod_Solvation_Energy-OPLS-2005>
-199.266754150391

> <b_mmod_Minimization_Converged-OPLS-2005>
0

> <r_mmod_RMS_Derivative-OPLS-2005>
1.89592659473419

$$$$
13
                    3D
 Structure written by MMmdl.
160168  0  0  1  0            999 V2000
  -30.6531  -14.5540   20.5150 C   0  0  0  0  0  0
  -30.4305  -12.3435   19.4228 C   0  0  0  0  0  0
  -29.4929  -12.4911   18.2038 C   0  0  0  0  0  0
  -28.0167  -12.3418   18.6251 C   0  0  0  0  0  0
  -27.6537  -13.2057   19.8610 C   0  0  2  0  0  0
  -28.7021  -13.0258   20.9823 C   0  0  0  0  0  0
  -25.2563  -13.8150   20.5671 C   0  0  0  0  0  0
  -24.1831  -13.0430   20.9201 C   0  0  0  0  0  0
  -24.6387  -11.6903   20.8732 C   0  0  0  0  0  0
  -23.9056  -10.4285   21.0411 C   0  0  0  0  0  0
  -24.3614   -9.4205   21.9184 C   0  0  0  0  0  0
  -23.6298   -8.2236   22.0754 C   0  0  0  0  0  0
  -22.4274   -8.0264   21.3546 C   0  0  0  0  0  0
  -21.9913   -9.0236   20.4636 C   0  0  0  0  0  0
  -22.7240  -10.2121   20.3051 C   0  0  0  0  0  0
  -21.6852   -6.0728   22.5287 C   0  0  0  0  0  0
  -21.4005   -6.5639   23.8210 C   0  0  0  0  0  0
  -21.3658   -5.6796   24.9178 C   0  0  0  0  0  0
  -21.6039   -4.3058   24.7243 C   0  0  0  0  0  0
  -21.8818   -3.8149   23.4361 C   0  0  0  0  0  0
  -21.9185   -4.6955   22.3414 C   0  0  0  0  0  0
  -22.7844  -13.5204   21.1873 C   0  0  0  0  0  0
  -22.1656   -4.2140   21.0990 F   0  0  0  0  0  0
  -21.5634   -3.4542   25.7757 F   0  0  0  0  0  0
  -30.0221  -13.3485   20.4153 N   0  0  0  0  0  0
  -26.2985  -12.9324   20.3322 N   0  0  0  0  0  0
  -25.9311  -11.6478   20.5763 N   0  0  0  0  0  0
  -22.0508  -12.8168   22.0423 N   0  0  0  0  0  0
  -25.4258  -15.1879   20.4084 N   0  0  0  0  0  0
  -31.8182  -14.7296   20.1531 O   0  0  0  0  0  0
  -21.6628   -6.8869   21.4246 O   0  0  0  0  0  0
  -22.3515  -14.5518   20.6745 O   0  0  0  0  0  0
  -24.6173  -31.8655   23.2024 C   0  0  0  0  0  0
  -25.9040  -32.4802   23.8334 C   0  0  1  0  0  0
  -27.2408  -27.3903   20.1160 C   0  0  0  0  0  0
  -25.5876  -33.8595   24.2266 N   0  0  0  0  0  0
  -23.4093  -30.4850   21.5435 C   0  0  2  0  0  0
  -24.8605  -28.9373   20.1185 C   0  0  0  0  0  0
  -22.7428  -29.4667   22.4958 C   0  0  0  0  0  0
  -18.0289  -28.1373   22.8507 C   0  0  0  0  0  0
  -24.1492  -36.7308   23.2643 C   0  0  0  0  0  0
  -25.9398  -30.8161   21.3608 C   0  0  0  0  0  0
  -26.0217  -29.4440   20.7151 C   0  0  0  0  0  0
  -27.2183  -28.6816   20.7044 C   0  0  0  0  0  0
  -26.0601  -26.9003   19.5215 C   0  0  0  0  0  0
  -24.8751  -27.6658   19.5155 C   0  0  0  0  0  0
  -23.6206  -29.8074   20.1624 C   0  0  0  0  0  0
  -25.4118  -36.3100   24.0331 C   0  0  1  0  0  0
  -20.5883  -28.3689   23.1302 C   0  0  2  0  0  0
  -20.6792  -26.9426   22.5416 C   0  0  0  0  0  0
  -19.5754  -26.6400   21.5227 C   0  0  0  0  0  0
  -18.1923  -26.7924   22.1630 C   0  0  0  0  0  0
  -19.1541  -28.8847   23.2901 C   0  0  0  0  0  0
  -18.9460  -30.1442   23.8932 C   0  0  0  0  0  0
  -17.6467  -30.6588   24.0574 C   0  0  0  0  0  0
  -25.9047  -34.9460   23.5105 C   0  0  0  0  0  0
  -16.5354  -29.9095   23.6321 C   0  0  0  0  0  0
  -16.7281  -28.6498   23.0363 C   0  0  0  0  0  0
  -26.4446  -31.6604   25.0667 C   0  0  0  0  0  0
  -25.3689  -31.3658   26.1384 C   0  0  0  0  0  0
  -27.0324  -30.3066   24.6044 C   0  0  0  0  0  0
  -27.6024  -32.4331   25.7426 C   0  0  0  0  0  0
  -27.5599  -37.1774   24.8452 C   0  0  0  0  0  0
  -21.4156  -29.3048   22.3691 N   0  0  0  0  0  0
  -26.4300  -37.3796   23.9421 N   0  0  0  0  0  0
  -24.6733  -31.0716   22.0932 N   0  0  0  0  0  0
  -23.4182  -28.8237   23.3044 O   0  0  0  0  0  0
  -28.3979  -26.6296   20.0734 O   0  0  0  0  0  0
  -26.5654  -34.8929   22.4694 O   0  0  0  0  0  0
  -23.5358  -32.1448   23.7387 O   0  0  0  0  0  0
  -27.9109  -20.9831   19.5450 C   0  0  0  0  0  0
  -29.8224  -20.4376   20.5444 C   0  0  0  0  0  0
  -28.1766  -19.6728   19.2382 C   0  0  0  0  0  0
  -29.4078  -19.3025   19.8736 C   0  0  0  0  0  0
  -27.3036  -18.7953   18.3766 C   0  0  0  0  0  0
  -31.5274  -18.1046   19.2067 C   0  0  0  0  0  0
  -28.5781  -24.0566   20.0597 C   0  0  0  0  0  0
  -28.9411  -22.8278   20.9702 C   0  0  0  0  0  0
  -30.1035  -17.0351   21.0483 C   0  0  0  0  0  0
  -28.4214  -25.4029   20.8491 C   0  0  0  0  0  0
  -30.1026  -17.9196   19.7533 C   0  0  1  0  0  0
  -28.9148  -21.4827   20.3479 N   0  0  0  0  0  0
  -29.8466  -15.5817   20.8662 N   0  0  0  0  0  0
  -31.4734  -12.4575   19.1204 H   0  0  0  0  0  0
  -30.3492  -11.3427   19.8504 H   0  0  0  0  0  0
  -29.7384  -11.7427   17.4487 H   0  0  0  0  0  0
  -29.6424  -13.4631   17.7311 H   0  0  0  0  0  0
  -27.8447  -11.2881   18.8506 H   0  0  0  0  0  0
  -27.3575  -12.5803   17.7905 H   0  0  0  0  0  0
  -27.6813  -14.2445   19.5304 H   0  0  0  0  0  0
  -28.6998  -11.9979   21.3459 H   0  0  0  0  0  0
  -28.4642  -13.6437   21.8501 H   0  0  0  0  0  0
  -25.2766   -9.5662   22.4761 H   0  0  0  0  0  0
  -23.9996   -7.4619   22.7478 H   0  0  0  0  0  0
  -21.0849   -8.8765   19.8943 H   0  0  0  0  0  0
  -22.3716  -10.9657   19.6155 H   0  0  0  0  0  0
  -21.1994   -7.6144   23.9718 H   0  0  0  0  0  0
  -21.1479   -6.0526   25.9078 H   0  0  0  0  0  0
  -22.0595   -2.7610   23.2875 H   0  0  0  0  0  0
  -22.4151  -11.9807   22.4756 H   0  0  0  0  0  0
  -21.1129  -13.1156   22.2688 H   0  0  0  0  0  0
  -24.6576  -15.8391   20.5213 H   0  0  0  0  0  0
  -26.2732  -15.6307   20.0808 H   0  0  0  0  0  0
  -26.7106  -32.5526   23.1091 H   0  0  0  0  0  0
  -24.9914  -33.9737   25.0323 H   0  0  0  0  0  0
  -22.7010  -31.3033   21.3965 H   0  0  0  0  0  0
  -23.3766  -35.9623   23.3278 H   0  0  0  0  0  0
  -24.3588  -36.8975   22.2063 H   0  0  0  0  0  0
  -23.7228  -37.6484   23.6713 H   0  0  0  0  0  0
  -26.0521  -31.5747   20.5849 H   0  0  0  0  0  0
  -26.8263  -30.8751   21.9796 H   0  0  0  0  0  0
  -28.1172  -29.0731   21.1584 H   0  0  0  0  0  0
  -26.0621  -25.9252   19.0556 H   0  0  0  0  0  0
  -23.9854  -27.2685   19.0451 H   0  0  0  0  0  0
  -23.7241  -30.5777   19.3967 H   0  0  0  0  0  0
  -22.7446  -29.2253   19.8736 H   0  0  0  0  0  0
  -25.1289  -36.1945   25.0826 H   0  0  0  0  0  0
  -20.9973  -28.3294   24.1429 H   0  0  0  0  0  0
  -20.5730  -26.2299   23.3615 H   0  0  0  0  0  0
  -21.6643  -26.7502   22.1176 H   0  0  0  0  0  0
  -19.6919  -25.6324   21.1234 H   0  0  0  0  0  0
  -19.6679  -27.3218   20.6764 H   0  0  0  0  0  0
  -17.4202  -26.6699   21.4019 H   0  0  0  0  0  0
  -18.0308  -26.0056   22.9011 H   0  0  0  0  0  0
  -19.7940  -30.7237   24.2333 H   0  0  0  0  0  0
  -17.5024  -31.6274   24.5163 H   0  0  0  0  0  0
  -15.5346  -30.2998   23.7643 H   0  0  0  0  0  0
  -15.8681  -28.0834   22.7061 H   0  0  0  0  0  0
  -24.5885  -30.7020   25.7661 H   0  0  0  0  0  0
  -24.8823  -32.2759   26.4877 H   0  0  0  0  0  0
  -25.7971  -30.8765   27.0136 H   0  0  0  0  0  0
  -26.2882  -29.6749   24.1198 H   0  0  0  0  0  0
  -27.4237  -29.7373   25.4496 H   0  0  0  0  0  0
  -27.8631  -30.4421   23.9110 H   0  0  0  0  0  0
  -27.2691  -33.3671   26.1968 H   0  0  0  0  0  0
  -28.3830  -32.6834   25.0233 H   0  0  0  0  0  0
  -28.0688  -31.8463   26.5355 H   0  0  0  0  0  0
  -28.2549  -38.0141   24.7641 H   0  0  0  0  0  0
  -28.1156  -36.2682   24.6126 H   0  0  0  0  0  0
  -27.2317  -37.1246   25.8844 H   0  0  0  0  0  0
  -20.9330  -29.8760   21.6890 H   0  0  0  0  0  0
  -26.0176  -38.2861   24.1463 H   0  0  0  0  0  0
  -27.0720  -21.6069   19.2670 H   0  0  0  0  0  0
  -30.7007  -20.5958   21.1577 H   0  0  0  0  0  0
  -26.4146  -19.3335   18.0441 H   0  0  0  0  0  0
  -26.9737  -17.9151   18.9272 H   0  0  0  0  0  0
  -27.8494  -18.4648   17.4932 H   0  0  0  0  0  0
  -31.5142  -18.6279   18.2506 H   0  0  0  0  0  0
  -32.0291  -17.1503   19.0495 H   0  0  0  0  0  0
  -32.1426  -18.6884   19.8916 H   0  0  0  0  0  0
  -27.6521  -23.8633   19.5186 H   0  0  0  0  0  0
  -29.3555  -24.1650   19.3045 H   0  0  0  0  0  0
  -28.2499  -22.7987   21.8129 H   0  0  0  0  0  0
  -29.9280  -22.9848   21.4093 H   0  0  0  0  0  0
  -29.2941  -17.3811   21.6919 H   0  0  0  0  0  0
  -31.0160  -17.1849   21.6280 H   0  0  0  0  0  0
  -29.2793  -25.4971   21.5153 H   0  0  0  0  0  0
  -27.5565  -25.3345   21.5118 H   0  0  0  0  0  0
  -29.5476  -17.3695   18.9937 H   0  0  0  0  0  0
  -28.9026  -15.2959   21.0777 H   0  0  0  0  0  0
  1 25  1  0  0  0
  1 30  2  0  0  0
  1 83  1  0  0  0
  2  3  1  0  0  0
  2 25  1  0  0  0
  2 84  1  0  0  0
  2 85  1  0  0  0
  3  4  1  0  0  0
  3 86  1  0  0  0
  3 87  1  0  0  0
  4  5  1  0  0  0
  4 88  1  0  0  0
  4 89  1  0  0  0
  5  6  1  0  0  0
  5 26  1  0  0  0
  5 90  1  0  0  0
  6 25  1  0  0  0
  6 91  1  0  0  0
  6 92  1  0  0  0
  7  8  2  0  0  0
  7 26  1  0  0  0
  7 29  1  0  0  0
  8  9  1  0  0  0
  8 22  1  0  0  0
  9 10  1  0  0  0
  9 27  2  0  0  0
 10 11  2  0  0  0
 10 15  1  0  0  0
 11 12  1  0  0  0
 11 93  1  0  0  0
 12 13  2  0  0  0
 12 94  1  0  0  0
 13 14  1  0  0  0
 13 31  1  0  0  0
 14 15  2  0  0  0
 14 95  1  0  0  0
 15 96  1  0  0  0
 16 17  2  0  0  0
 16 21  1  0  0  0
 16 31  1  0  0  0
 17 18  1  0  0  0
 17 97  1  0  0  0
 18 19  2  0  0  0
 18 98  1  0  0  0
 19 20  1  0  0  0
 19 24  1  0  0  0
 20 21  2  0  0  0
 20 99  1  0  0  0
 21 23  1  0  0  0
 22 28  1  0  0  0
 22 32  2  0  0  0
 26 27  1  0  0  0
 28100  1  0  0  0
 28101  1  0  0  0
 29102  1  0  0  0
 29103  1  0  0  0
 33 34  1  0  0  0
 33 66  1  0  0  0
 33 70  2  0  0  0
 34 36  1  0  0  0
 34 59  1  0  0  0
 34104  1  0  0  0
 35 44  2  0  0  0
 35 45  1  0  0  0
 35 68  1  0  0  0
 36 56  1  0  0  0
 36105  1  0  0  0
 37 39  1  0  0  0
 37 47  1  0  0  0
 37 66  1  0  0  0
 37106  1  0  0  0
 38 43  2  0  0  0
 38 46  1  0  0  0
 38 47  1  0  0  0
 39 64  1  0  0  0
 39 67  2  0  0  0
 40 52  1  0  0  0
 40 53  2  0  0  0
 40 58  1  0  0  0
 41107  1  0  0  0
 41108  1  0  0  0
 41109  1  0  0  0
 41 48  1  0  0  0
 42 43  1  0  0  0
 42 66  1  0  0  0
 42110  1  0  0  0
 42111  1  0  0  0
 43 44  1  0  0  0
 44112  1  0  0  0
 45 46  2  0  0  0
 45113  1  0  0  0
 46114  1  0  0  0
 47115  1  0  0  0
 47116  1  0  0  0
 48 56  1  0  0  0
 48 65  1  0  0  0
 48117  1  0  0  0
 49 50  1  0  0  0
 49 53  1  0  0  0
 49 64  1  0  0  0
 49118  1  0  0  0
 50 51  1  0  0  0
 50119  1  0  0  0
 50120  1  0  0  0
 51 52  1  0  0  0
 51121  1  0  0  0
 51122  1  0  0  0
 52123  1  0  0  0
 52124  1  0  0  0
 53 54  1  0  0  0
 54 55  2  0  0  0
 54125  1  0  0  0
 55 57  1  0  0  0
 55126  1  0  0  0
 56 69  2  0  0  0
 57 58  2  0  0  0
 57127  1  0  0  0
 58128  1  0  0  0
 59 60  1  0  0  0
 59 61  1  0  0  0
 59 62  1  0  0  0
 60129  1  0  0  0
 60130  1  0  0  0
 60131  1  0  0  0
 61132  1  0  0  0
 61133  1  0  0  0
 61134  1  0  0  0
 62135  1  0  0  0
 62136  1  0  0  0
 62137  1  0  0  0
 63 65  1  0  0  0
 63138  1  0  0  0
 63139  1  0  0  0
 63140  1  0  0  0
 64141  1  0  0  0
 65142  1  0  0  0
 68 80  1  0  0  0
 71 73  2  0  0  0
 71 82  1  0  0  0
 71143  1  0  0  0
 72 74  2  0  0  0
 72 82  1  0  0  0
 72144  1  0  0  0
 73 74  1  0  0  0
 73 75  1  0  0  0
 74 81  1  0  0  0
 75145  1  0  0  0
 75146  1  0  0  0
 75147  1  0  0  0
 76148  1  0  0  0
 76149  1  0  0  0
 76150  1  0  0  0
 76 81  1  0  0  0
 77 78  1  0  0  0
 77 80  1  0  0  0
 77151  1  0  0  0
 77152  1  0  0  0
 78 82  1  0  0  0
 78153  1  0  0  0
 78154  1  0  0  0
 79 81  1  0  0  0
 79 83  1  0  0  0
 79155  1  0  0  0
 79156  1  0  0  0
 80157  1  0  0  0
 80158  1  0  0  0
 81159  1  0  0  0
 83160  1  0  0  0
M  ISO  4   1 100  68 101  80 101  83 100
M  END
> <chiral flag>
0

> <version>
0

> <s_m_source_file>
/data/baiqing/PycharmProjects/Reinvent-master-3.2/result/LINK_invent/BTK/process_docking_weight1_custom_sum_contain_oxygen_bond_distance_aromatic_linkinvent_7_9_3/rearranged_h_0088.sdf

> <i_m_source_file_index>
14

> <r_mmod_Potential_Energy-OPLS-2005>
-80.4850387573242

> <r_mmod_Stretch_Energy-OPLS-2005>
48.32861328125

> <r_mmod_Bend_Energy-OPLS-2005>
117.04386138916

> <r_mmod_Torsional_Energy-OPLS-2005>
249.802581787109

> <r_mmod_Improper_Torsional_Energy-OPLS-2005>
4.49229526519775

> <r_mmod_Van_der_Waal_Energy-OPLS-2005>
112.09944152832

> <r_mmod_Electrostatic_Energy-OPLS-2005>
-427.392730712891

> <r_mmod_Solvation_Energy-OPLS-2005>
-208.773468017578

> <b_mmod_Minimization_Converged-OPLS-2005>
0

> <r_mmod_RMS_Derivative-OPLS-2005>
3.01119709014893

$$$$
14
                    3D
 Structure written by MMmdl.
173181  0  0  1  0            999 V2000
  -30.5847  -14.6327   20.5213 C   0  0  0  0  0  0
  -30.4511  -12.3714   19.4830 C   0  0  0  0  0  0
  -29.5336  -12.5115   18.2425 C   0  0  0  0  0  0
  -28.0485  -12.3427   18.6381 C   0  0  0  0  0  0
  -27.6629  -13.2042   19.8708 C   0  0  2  0  0  0
  -28.6983  -13.0270   21.0069 C   0  0  0  0  0  0
  -25.2608  -13.8120   20.5682 C   0  0  0  0  0  0
  -24.1828  -13.0414   20.9151 C   0  0  0  0  0  0
  -24.6365  -11.6892   20.8659 C   0  0  0  0  0  0
  -23.9028  -10.4275   21.0345 C   0  0  0  0  0  0
  -24.3590   -9.4207   21.9154 C   0  0  0  0  0  0
  -23.6254   -8.2250   22.0764 C   0  0  0  0  0  0
  -22.4250   -8.0260   21.3539 C   0  0  0  0  0  0
  -21.9862   -9.0227   20.4653 C   0  0  0  0  0  0
  -22.7184  -10.2108   20.3018 C   0  0  0  0  0  0
  -21.6843   -6.0696   22.5276 C   0  0  0  0  0  0
  -21.4020   -6.5611   23.8209 C   0  0  0  0  0  0
  -21.3664   -5.6773   24.9179 C   0  0  0  0  0  0
  -21.6048   -4.3034   24.7235 C   0  0  0  0  0  0
  -21.8815   -3.8109   23.4357 C   0  0  0  0  0  0
  -21.9203   -4.6924   22.3410 C   0  0  0  0  0  0
  -22.7860  -13.5245   21.1798 C   0  0  0  0  0  0
  -22.1665   -4.2130   21.0985 F   0  0  0  0  0  0
  -21.5642   -3.4526   25.7743 F   0  0  0  0  0  0
  -30.0244  -13.3813   20.4727 N   0  0  0  0  0  0
  -26.3004  -12.9266   20.3263 N   0  0  0  0  0  0
  -25.9291  -11.6436   20.5686 N   0  0  0  0  0  0
  -22.0492  -12.8267   22.0380 N   0  0  0  0  0  0
  -25.4312  -15.1837   20.4166 N   0  0  0  0  0  0
  -31.7046  -14.8532   20.0591 O   0  0  0  0  0  0
  -21.6613   -6.8850   21.4237 O   0  0  0  0  0  0
  -22.3570  -14.5563   20.6658 O   0  0  0  0  0  0
  -24.6262  -31.8583   23.1991 C   0  0  0  0  0  0
  -25.9145  -32.4753   23.8300 C   0  0  1  0  0  0
  -27.2351  -27.3067   20.1460 C   0  0  0  0  0  0
  -25.5987  -33.8541   24.2268 N   0  0  0  0  0  0
  -23.4206  -30.4719   21.5417 C   0  0  2  0  0  0
  -24.8707  -28.9095   20.1204 C   0  0  0  0  0  0
  -22.7473  -29.4595   22.4971 C   0  0  0  0  0  0
  -18.0296  -28.1326   22.8503 C   0  0  0  0  0  0
  -24.1496  -36.7286   23.2628 C   0  0  0  0  0  0
  -25.9569  -30.7829   21.3690 C   0  0  0  0  0  0
  -26.0324  -29.4026   20.7242 C   0  0  0  0  0  0
  -27.2174  -28.6140   20.7243 C   0  0  0  0  0  0
  -26.0546  -26.8527   19.5255 C   0  0  0  0  0  0
  -24.8833  -27.6412   19.5089 C   0  0  0  0  0  0
  -23.6375  -29.7897   20.1620 C   0  0  0  0  0  0
  -25.4120  -36.3055   24.0317 C   0  0  1  0  0  0
  -20.5895  -28.3624   23.1290 C   0  0  2  0  0  0
  -20.6808  -26.9355   22.5380 C   0  0  0  0  0  0
  -19.5775  -26.6363   21.5189 C   0  0  0  0  0  0
  -18.1949  -26.7904   22.1586 C   0  0  0  0  0  0
  -19.1549  -28.8793   23.2887 C   0  0  0  0  0  0
  -18.9461  -30.1413   23.8883 C   0  0  0  0  0  0
  -17.6464  -30.6535   24.0516 C   0  0  0  0  0  0
  -25.9063  -34.9431   23.5091 C   0  0  0  0  0  0
  -16.5343  -29.9002   23.6301 C   0  0  0  0  0  0
  -16.7281  -28.6404   23.0367 C   0  0  0  0  0  0
  -26.4514  -31.6563   25.0674 C   0  0  0  0  0  0
  -25.3734  -31.3728   26.1400 C   0  0  0  0  0  0
  -27.0358  -30.2975   24.6160 C   0  0  0  0  0  0
  -27.6075  -32.4294   25.7430 C   0  0  0  0  0  0
  -27.5579  -37.1802   24.8453 C   0  0  0  0  0  0
  -21.4183  -29.3017   22.3722 N   0  0  0  0  0  0
  -26.4288  -37.3764   23.9403 N   0  0  0  0  0  0
  -24.6861  -31.0561   22.0942 N   0  0  0  0  0  0
  -23.4230  -28.8118   23.3005 O   0  0  0  0  0  0
  -28.3916  -26.5139   20.1282 O   0  0  0  0  0  0
  -26.5596  -34.8899   22.4639 O   0  0  0  0  0  0
  -23.5431  -32.1394   23.7327 O   0  0  0  0  0  0
  -29.4998  -22.0567   21.1953 C   0  0  0  0  0  0
  -29.9778  -20.7198   21.3630 C   0  0  0  0  0  0
  -28.6200  -22.3955   20.1347 C   0  0  0  0  0  0
  -29.6292  -19.7026   20.4251 C   0  0  0  0  0  0
  -28.2333  -21.2817   19.3336 C   0  0  0  0  0  0
  -30.8602  -20.4042   22.5591 C   0  0  0  0  0  0
  -27.1950  -21.4330   18.2364 C   0  0  0  0  0  0
  -32.2916  -18.9244   16.9784 C   0  0  0  0  0  0
  -33.1533  -19.4789   19.2761 C   0  0  0  0  0  0
  -27.7778  -25.1047   22.0814 C   0  0  0  0  0  0
  -28.0995  -23.8655   19.8065 C   0  0  0  0  0  0
  -31.0404  -18.0434   19.0009 C   0  0  0  0  0  0
  -29.3376  -17.0344   20.6343 C   0  0  0  0  0  0
  -30.3081  -18.2600   20.3562 C   0  0  2  0  0  0
  -31.8970  -19.2037   18.4380 C   0  0  0  0  0  0
  -28.4576  -25.1382   20.7003 C   0  0  1  0  0  0
  -28.7258  -20.0174   19.4619 N   0  0  0  0  0  0
  -29.7522  -15.6125   20.9908 N   0  0  0  0  0  0
  -31.5025  -12.4880   19.2089 H   0  0  0  0  0  0
  -30.3711  -11.3681   19.9108 H   0  0  0  0  0  0
  -29.8053  -11.7693   17.4895 H   0  0  0  0  0  0
  -29.6916  -13.4868   17.7810 H   0  0  0  0  0  0
  -27.8870  -11.2858   18.8610 H   0  0  0  0  0  0
  -27.4054  -12.5764   17.7879 H   0  0  0  0  0  0
  -27.6961  -14.2422   19.5424 H   0  0  0  0  0  0
  -28.7071  -11.9938   21.3536 H   0  0  0  0  0  0
  -28.4275  -13.6222   21.8777 H   0  0  0  0  0  0
  -25.2747   -9.5671   22.4727 H   0  0  0  0  0  0
  -23.9963   -7.4632   22.7482 H   0  0  0  0  0  0
  -21.0794   -8.8689   19.8972 H   0  0  0  0  0  0
  -22.3608  -10.9608   19.6105 H   0  0  0  0  0  0
  -21.1991   -7.6125   23.9704 H   0  0  0  0  0  0
  -21.1500   -6.0511   25.9094 H   0  0  0  0  0  0
  -22.0586   -2.7572   23.2859 H   0  0  0  0  0  0
  -22.4100  -11.9940   22.4772 H   0  0  0  0  0  0
  -21.1112  -13.1312   22.2568 H   0  0  0  0  0  0
  -24.6607  -15.8342   20.5343 H   0  0  0  0  0  0
  -26.2821  -15.6312   20.0998 H   0  0  0  0  0  0
  -26.7185  -32.5390   23.1015 H   0  0  0  0  0  0
  -25.0206  -33.9637   25.0460 H   0  0  0  0  0  0
  -22.7112  -31.2876   21.3922 H   0  0  0  0  0  0
  -23.3739  -35.9637   23.3268 H   0  0  0  0  0  0
  -24.3591  -36.8940   22.2046 H   0  0  0  0  0  0
  -23.7258  -37.6485   23.6652 H   0  0  0  0  0  0
  -26.0823  -31.5388   20.5905 H   0  0  0  0  0  0
  -26.8394  -30.8394   21.9951 H   0  0  0  0  0  0
  -28.1134  -28.9957   21.1942 H   0  0  0  0  0  0
  -26.0438  -25.8799   19.0525 H   0  0  0  0  0  0
  -23.9935  -27.2577   19.0303 H   0  0  0  0  0  0
  -23.7552  -30.5600   19.4006 H   0  0  0  0  0  0
  -22.7573  -29.2171   19.8642 H   0  0  0  0  0  0
  -25.1289  -36.1897   25.0802 H   0  0  0  0  0  0
  -20.9963  -28.3170   24.1411 H   0  0  0  0  0  0
  -20.5801  -26.2189   23.3552 H   0  0  0  0  0  0
  -21.6661  -26.7461   22.1093 H   0  0  0  0  0  0
  -19.6944  -25.6266   21.1217 H   0  0  0  0  0  0
  -19.6724  -27.3189   20.6714 H   0  0  0  0  0  0
  -17.4246  -26.6731   21.3940 H   0  0  0  0  0  0
  -18.0246  -25.9987   22.8893 H   0  0  0  0  0  0
  -19.7931  -30.7230   24.2250 H   0  0  0  0  0  0
  -17.4996  -31.6199   24.5135 H   0  0  0  0  0  0
  -15.5341  -30.2893   23.7617 H   0  0  0  0  0  0
  -15.8678  -28.0694   22.7076 H   0  0  0  0  0  0
  -24.5915  -30.7078   25.7727 H   0  0  0  0  0  0
  -24.8910  -32.2890   26.4792 H   0  0  0  0  0  0
  -25.8053  -30.8922   27.0188 H   0  0  0  0  0  0
  -26.2957  -29.6694   24.1206 H   0  0  0  0  0  0
  -27.4043  -29.7270   25.4691 H   0  0  0  0  0  0
  -27.8802  -30.4212   23.9389 H   0  0  0  0  0  0
  -27.2713  -33.3598   26.2002 H   0  0  0  0  0  0
  -28.3874  -32.6878   25.0259 H   0  0  0  0  0  0
  -28.0739  -31.8433   26.5349 H   0  0  0  0  0  0
  -28.2591  -38.0107   24.7508 H   0  0  0  0  0  0
  -28.1088  -36.2641   24.6264 H   0  0  0  0  0  0
  -27.2294  -37.1435   25.8855 H   0  0  0  0  0  0
  -20.9346  -29.8779   21.6983 H   0  0  0  0  0  0
  -26.0163  -38.2832   24.1418 H   0  0  0  0  0  0
  -29.8206  -22.8217   21.8872 H   0  0  0  0  0  0
  -30.8117  -21.1908   23.3112 H   0  0  0  0  0  0
  -31.9013  -20.2968   22.2653 H   0  0  0  0  0  0
  -30.5449  -19.4795   23.0414 H   0  0  0  0  0  0
  -26.2699  -21.8419   18.6434 H   0  0  0  0  0  0
  -26.9541  -20.4662   17.7917 H   0  0  0  0  0  0
  -27.5545  -22.0878   17.4447 H   0  0  0  0  0  0
  -32.7778  -19.7884   16.5277 H   0  0  0  0  0  0
  -31.4190  -18.6837   16.3703 H   0  0  0  0  0  0
  -32.9800  -18.0830   16.9061 H   0  0  0  0  0  0
  -33.8654  -18.6573   19.2074 H   0  0  0  0  0  0
  -32.9151  -19.6195   20.3286 H   0  0  0  0  0  0
  -33.6601  -20.3838   18.9377 H   0  0  0  0  0  0
  -27.9425  -24.1478   22.5798 H   0  0  0  0  0  0
  -26.6995  -25.2524   22.0106 H   0  0  0  0  0  0
  -28.1808  -25.8852   22.7304 H   0  0  0  0  0  0
  -27.0143  -23.8162   19.7151 H   0  0  0  0  0  0
  -28.4595  -24.0817   18.8006 H   0  0  0  0  0  0
  -30.2711  -17.8220   18.2587 H   0  0  0  0  0  0
  -31.6546  -17.1478   19.0500 H   0  0  0  0  0  0
  -28.6343  -16.9660   19.8044 H   0  0  0  0  0  0
  -28.7132  -17.3440   21.4722 H   0  0  0  0  0  0
  -31.0722  -18.2204   21.1308 H   0  0  0  0  0  0
  -31.2935  -20.1107   18.4234 H   0  0  0  0  0  0
  -29.5272  -25.0379   20.8922 H   0  0  0  0  0  0
  -29.0073  -15.1644   21.5015 H   0  0  0  0  0  0
  1 25  1  0  0  0
  1 30  2  0  0  0
  1 88  1  0  0  0
  2  3  1  0  0  0
  2 25  1  0  0  0
  2 89  1  0  0  0
  2 90  1  0  0  0
  3  4  1  0  0  0
  3 91  1  0  0  0
  3 92  1  0  0  0
  4  5  1  0  0  0
  4 93  1  0  0  0
  4 94  1  0  0  0
  5  6  1  0  0  0
  5 26  1  0  0  0
  5 95  1  0  0  0
  6 25  1  0  0  0
  6 96  1  0  0  0
  6 97  1  0  0  0
  7  8  2  0  0  0
  7 26  1  0  0  0
  7 29  1  0  0  0
  8  9  1  0  0  0
  8 22  1  0  0  0
  9 10  1  0  0  0
  9 27  2  0  0  0
 10 11  2  0  0  0
 10 15  1  0  0  0
 11 12  1  0  0  0
 11 98  1  0  0  0
 12 13  2  0  0  0
 12 99  1  0  0  0
 13 14  1  0  0  0
 13 31  1  0  0  0
 14 15  2  0  0  0
 14100  1  0  0  0
 15101  1  0  0  0
 16 17  2  0  0  0
 16 21  1  0  0  0
 16 31  1  0  0  0
 17 18  1  0  0  0
 17102  1  0  0  0
 18 19  2  0  0  0
 18103  1  0  0  0
 19 20  1  0  0  0
 19 24  1  0  0  0
 20 21  2  0  0  0
 20104  1  0  0  0
 21 23  1  0  0  0
 22 28  1  0  0  0
 22 32  2  0  0  0
 26 27  1  0  0  0
 28105  1  0  0  0
 28106  1  0  0  0
 29107  1  0  0  0
 29108  1  0  0  0
 33 34  1  0  0  0
 33 66  1  0  0  0
 33 70  2  0  0  0
 34 36  1  0  0  0
 34 59  1  0  0  0
 34109  1  0  0  0
 35 44  2  0  0  0
 35 45  1  0  0  0
 35 68  1  0  0  0
 36 56  1  0  0  0
 36110  1  0  0  0
 37 39  1  0  0  0
 37 47  1  0  0  0
 37 66  1  0  0  0
 37111  1  0  0  0
 38 43  2  0  0  0
 38 46  1  0  0  0
 38 47  1  0  0  0
 39 64  1  0  0  0
 39 67  2  0  0  0
 40 52  1  0  0  0
 40 53  2  0  0  0
 40 58  1  0  0  0
 41112  1  0  0  0
 41113  1  0  0  0
 41114  1  0  0  0
 41 48  1  0  0  0
 42 43  1  0  0  0
 42 66  1  0  0  0
 42115  1  0  0  0
 42116  1  0  0  0
 43 44  1  0  0  0
 44117  1  0  0  0
 45 46  2  0  0  0
 45118  1  0  0  0
 46119  1  0  0  0
 47120  1  0  0  0
 47121  1  0  0  0
 48 56  1  0  0  0
 48 65  1  0  0  0
 48122  1  0  0  0
 49 50  1  0  0  0
 49 53  1  0  0  0
 49 64  1  0  0  0
 49123  1  0  0  0
 50 51  1  0  0  0
 50124  1  0  0  0
 50125  1  0  0  0
 51 52  1  0  0  0
 51126  1  0  0  0
 51127  1  0  0  0
 52128  1  0  0  0
 52129  1  0  0  0
 53 54  1  0  0  0
 54 55  2  0  0  0
 54130  1  0  0  0
 55 57  1  0  0  0
 55131  1  0  0  0
 56 69  2  0  0  0
 57 58  2  0  0  0
 57132  1  0  0  0
 58133  1  0  0  0
 59 60  1  0  0  0
 59 61  1  0  0  0
 59 62  1  0  0  0
 60134  1  0  0  0
 60135  1  0  0  0
 60136  1  0  0  0
 61137  1  0  0  0
 61138  1  0  0  0
 61139  1  0  0  0
 62140  1  0  0  0
 62141  1  0  0  0
 62142  1  0  0  0
 63 65  1  0  0  0
 63143  1  0  0  0
 63144  1  0  0  0
 63145  1  0  0  0
 64146  1  0  0  0
 65147  1  0  0  0
 68 86  1  0  0  0
 71 72  2  0  0  0
 71 73  1  0  0  0
 71148  1  0  0  0
 72 74  1  0  0  0
 72 76  1  0  0  0
 73 75  2  0  0  0
 73 81  1  0  0  0
 74 84  1  0  0  0
 74 87  2  0  0  0
 75 77  1  0  0  0
 75 87  1  0  0  0
 76149  1  0  0  0
 76150  1  0  0  0
 76151  1  0  0  0
 77152  1  0  0  0
 77153  1  0  0  0
 77154  1  0  0  0
 78155  1  0  0  0
 78156  1  0  0  0
 78157  1  0  0  0
 78 85  1  0  0  0
 79 85  1  0  0  0
 79158  1  0  0  0
 79159  1  0  0  0
 79160  1  0  0  0
 80161  1  0  0  0
 80162  1  0  0  0
 80163  1  0  0  0
 80 86  1  0  0  0
 81 86  1  0  0  0
 81164  1  0  0  0
 81165  1  0  0  0
 82 85  1  0  0  0
 82166  1  0  0  0
 82167  1  0  0  0
 82 84  1  0  0  0
 83 84  1  0  0  0
 83 88  1  0  0  0
 83168  1  0  0  0
 83169  1  0  0  0
 84170  1  0  0  0
 85171  1  0  0  0
 86172  1  0  0  0
 88173  1  0  0  0
M  ISO  4   1 100  68 101  86 101  88 100
M  END
> <chiral flag>
0

> <version>
0

> <s_m_source_file>
/data/baiqing/PycharmProjects/Reinvent-master-3.2/result/LINK_invent/BTK/process_docking_weight1_custom_sum_contain_oxygen_bond_distance_aromatic_linkinvent_7_9_3/rearranged_h_0088.sdf

> <i_m_source_file_index>
15

> <r_mmod_Potential_Energy-OPLS-2005>
-47.3937034606934

> <r_mmod_Stretch_Energy-OPLS-2005>
93.9859924316406

> <r_mmod_Bend_Energy-OPLS-2005>
200.818939208984

> <r_mmod_Torsional_Energy-OPLS-2005>
234.454025268555

> <r_mmod_Improper_Torsional_Energy-OPLS-2005>
5.51033353805542

> <r_mmod_Van_der_Waal_Energy-OPLS-2005>
128.718353271484

> <r_mmod_Electrostatic_Energy-OPLS-2005>
-545.962280273438

> <r_mmod_Solvation_Energy-OPLS-2005>
-212.532943725586

> <b_mmod_Minimization_Converged-OPLS-2005>
0

> <r_mmod_RMS_Derivative-OPLS-2005>
6.1145486831665

$$$$
15
                    3D
 Structure written by MMmdl.
158166  0  0  1  0            999 V2000
  -30.6268  -14.6886   20.4676 C   0  0  0  0  0  0
  -30.4294  -12.4165   19.4596 C   0  0  0  0  0  0
  -29.5007  -12.4930   18.2277 C   0  0  0  0  0  0
  -28.0301  -12.3184   18.6519 C   0  0  0  0  0  0
  -27.6449  -13.2193   19.8555 C   0  0  2  0  0  0
  -28.6905  -13.1361   20.9888 C   0  0  0  0  0  0
  -25.2530  -13.8182   20.5685 C   0  0  0  0  0  0
  -24.1818  -13.0438   20.9189 C   0  0  0  0  0  0
  -24.6389  -11.6910   20.8759 C   0  0  0  0  0  0
  -23.9064  -10.4288   21.0413 C   0  0  0  0  0  0
  -24.3621   -9.4202   21.9186 C   0  0  0  0  0  0
  -23.6293   -8.2241   22.0765 C   0  0  0  0  0  0
  -22.4284   -8.0275   21.3543 C   0  0  0  0  0  0
  -21.9911   -9.0252   20.4642 C   0  0  0  0  0  0
  -22.7241  -10.2132   20.3057 C   0  0  0  0  0  0
  -21.6856   -6.0725   22.5273 C   0  0  0  0  0  0
  -21.4012   -6.5636   23.8200 C   0  0  0  0  0  0
  -21.3665   -5.6794   24.9170 C   0  0  0  0  0  0
  -21.6041   -4.3056   24.7232 C   0  0  0  0  0  0
  -21.8821   -3.8135   23.4358 C   0  0  0  0  0  0
  -21.9194   -4.6952   22.3406 C   0  0  0  0  0  0
  -22.7840  -13.5214   21.1848 C   0  0  0  0  0  0
  -22.1662   -4.2124   21.0989 F   0  0  0  0  0  0
  -21.5642   -3.4550   25.7754 F   0  0  0  0  0  0
  -29.9954  -13.4709   20.4030 N   0  0  0  0  0  0
  -26.2956  -12.9367   20.3310 N   0  0  0  0  0  0
  -25.9314  -11.6521   20.5775 N   0  0  0  0  0  0
  -22.0508  -12.8196   22.0418 N   0  0  0  0  0  0
  -25.4210  -15.1909   20.4102 N   0  0  0  0  0  0
  -31.8112  -14.7981   20.1438 O   0  0  0  0  0  0
  -21.6648   -6.8875   21.4237 O   0  0  0  0  0  0
  -22.3514  -14.5513   20.6695 O   0  0  0  0  0  0
  -24.6267  -31.8569   23.1997 C   0  0  0  0  0  0
  -25.9118  -32.4752   23.8322 C   0  0  1  0  0  0
  -27.2177  -27.2968   20.1323 C   0  0  0  0  0  0
  -25.5929  -33.8551   24.2268 N   0  0  0  0  0  0
  -23.4196  -30.4804   21.5433 C   0  0  2  0  0  0
  -24.8664  -28.9276   20.1145 C   0  0  0  0  0  0
  -22.7458  -29.4627   22.4945 C   0  0  0  0  0  0
  -18.0279  -28.1364   22.8487 C   0  0  0  0  0  0
  -24.1493  -36.7290   23.2638 C   0  0  0  0  0  0
  -25.9610  -30.7842   21.3712 C   0  0  0  0  0  0
  -26.0357  -29.4077   20.7176 C   0  0  0  0  0  0
  -27.2180  -28.6067   20.7100 C   0  0  0  0  0  0
  -26.0240  -26.8650   19.5212 C   0  0  0  0  0  0
  -24.8644  -27.6638   19.5031 C   0  0  0  0  0  0
  -23.6338  -29.8085   20.1610 C   0  0  0  0  0  0
  -25.4114  -36.3069   24.0331 C   0  0  1  0  0  0
  -20.5874  -28.3679   23.1277 C   0  0  2  0  0  0
  -20.6779  -26.9407   22.5399 C   0  0  0  0  0  0
  -19.5765  -26.6380   21.5192 C   0  0  0  0  0  0
  -18.1937  -26.7914   22.1608 C   0  0  0  0  0  0
  -19.1530  -28.8841   23.2875 C   0  0  0  0  0  0
  -18.9459  -30.1439   23.8899 C   0  0  0  0  0  0
  -17.6464  -30.6577   24.0553 C   0  0  0  0  0  0
  -25.9055  -34.9437   23.5107 C   0  0  0  0  0  0
  -16.5352  -29.9074   23.6322 C   0  0  0  0  0  0
  -16.7270  -28.6476   23.0369 C   0  0  0  0  0  0
  -26.4517  -31.6550   25.0691 C   0  0  0  0  0  0
  -25.3754  -31.3674   26.1416 C   0  0  0  0  0  0
  -27.0369  -30.2978   24.6146 C   0  0  0  0  0  0
  -27.6077  -32.4274   25.7469 C   0  0  0  0  0  0
  -27.5585  -37.1793   24.8462 C   0  0  0  0  0  0
  -21.4176  -29.3031   22.3676 N   0  0  0  0  0  0
  -26.4292  -37.3765   23.9409 N   0  0  0  0  0  0
  -24.6878  -31.0574   22.0955 N   0  0  0  0  0  0
  -23.4180  -28.8177   23.3037 O   0  0  0  0  0  0
  -28.3402  -26.4546   20.1100 O   0  0  0  0  0  0
  -26.5619  -34.8913   22.4673 O   0  0  0  0  0  0
  -23.5430  -32.1385   23.7327 O   0  0  0  0  0  0
  -30.8882  -20.3367   21.1006 C   0  0  0  0  0  0
  -28.7898  -21.1014   20.2024 C   0  0  0  0  0  0
  -29.6210  -19.9795   20.5963 C   0  0  0  0  0  0
  -31.2598  -21.6922   21.1987 C   0  0  0  0  0  0
  -29.2390  -22.4773   20.3154 C   0  0  0  0  0  0
  -32.6259  -22.0829   21.7224 C   0  0  0  0  0  0
  -27.3499  -23.4186   18.8136 C   0  0  0  0  0  0
  -29.2003  -18.4470   20.5052 C   0  0  0  0  0  0
  -30.2945  -17.2710   20.6882 C   0  0  0  0  0  0
  -28.2405  -25.0545   20.6222 C   0  0  0  0  0  0
  -28.5634  -23.7793   19.6856 C   0  0  1  0  0  0
  -30.4694  -22.7183   20.8171 N   0  0  0  0  0  0
  -29.8565  -15.8107   20.6972 N   0  0  0  0  0  0
  -31.4709  -12.5322   19.1524 H   0  0  0  0  0  0
  -30.3651  -11.4344   19.9317 H   0  0  0  0  0  0
  -29.7682  -11.7263   17.4990 H   0  0  0  0  0  0
  -29.6248  -13.4539   17.7251 H   0  0  0  0  0  0
  -27.8894  -11.2699   18.9193 H   0  0  0  0  0  0
  -27.3644  -12.5050   17.8080 H   0  0  0  0  0  0
  -27.6458  -14.2414   19.4794 H   0  0  0  0  0  0
  -28.7151  -12.1371   21.4248 H   0  0  0  0  0  0
  -28.4335  -13.8174   21.8031 H   0  0  0  0  0  0
  -25.2778   -9.5690   22.4737 H   0  0  0  0  0  0
  -24.0002   -7.4647   22.7508 H   0  0  0  0  0  0
  -21.0829   -8.8763   19.8958 H   0  0  0  0  0  0
  -22.3689  -10.9667   19.6159 H   0  0  0  0  0  0
  -21.1990   -7.6138   23.9691 H   0  0  0  0  0  0
  -21.1491   -6.0533   25.9065 H   0  0  0  0  0  0
  -22.0593   -2.7593   23.2871 H   0  0  0  0  0  0
  -22.4158  -11.9836   22.4740 H   0  0  0  0  0  0
  -21.1126  -13.1207   22.2667 H   0  0  0  0  0  0
  -24.6497  -15.8426   20.5116 H   0  0  0  0  0  0
  -26.2613  -15.6290   20.0557 H   0  0  0  0  0  0
  -26.7180  -32.5433   23.1054 H   0  0  0  0  0  0
  -25.0061  -33.9676   25.0405 H   0  0  0  0  0  0
  -22.7140  -31.3011   21.3967 H   0  0  0  0  0  0
  -23.3757  -35.9622   23.3278 H   0  0  0  0  0  0
  -24.3588  -36.8935   22.2056 H   0  0  0  0  0  0
  -23.7244  -37.6487   23.6673 H   0  0  0  0  0  0
  -26.0891  -31.5468   20.6012 H   0  0  0  0  0  0
  -26.8414  -30.8365   22.0005 H   0  0  0  0  0  0
  -28.1196  -28.9774   21.1783 H   0  0  0  0  0  0
  -25.9741  -25.8948   19.0561 H   0  0  0  0  0  0
  -23.9700  -27.2915   19.0221 H   0  0  0  0  0  0
  -23.7444  -30.5790   19.3968 H   0  0  0  0  0  0
  -22.7561  -29.2304   19.8657 H   0  0  0  0  0  0
  -25.1291  -36.1915   25.0824 H   0  0  0  0  0  0
  -20.9955  -28.3249   24.1405 H   0  0  0  0  0  0
  -20.5663  -26.2291   23.3597 H   0  0  0  0  0  0
  -21.6656  -26.7441   22.1206 H   0  0  0  0  0  0
  -19.6940  -25.6290   21.1226 H   0  0  0  0  0  0
  -19.6702  -27.3188   20.6719 H   0  0  0  0  0  0
  -17.4209  -26.6647   21.4005 H   0  0  0  0  0  0
  -18.0354  -26.0034   22.8987 H   0  0  0  0  0  0
  -19.7937  -30.7239   24.2281 H   0  0  0  0  0  0
  -17.5023  -31.6262   24.5145 H   0  0  0  0  0  0
  -15.5354  -30.2985   23.7646 H   0  0  0  0  0  0
  -15.8664  -28.0784   22.7125 H   0  0  0  0  0  0
  -24.5935  -30.7025   25.7730 H   0  0  0  0  0  0
  -24.8949  -32.2840   26.4845 H   0  0  0  0  0  0
  -25.8083  -30.8836   27.0183 H   0  0  0  0  0  0
  -26.2947  -29.6691   24.1220 H   0  0  0  0  0  0
  -27.4131  -29.7253   25.4633 H   0  0  0  0  0  0
  -27.8780  -30.4254   23.9329 H   0  0  0  0  0  0
  -27.2692  -33.3561   26.2062 H   0  0  0  0  0  0
  -28.3889  -32.6840   25.0304 H   0  0  0  0  0  0
  -28.0750  -31.8385   26.5370 H   0  0  0  0  0  0
  -28.2588  -38.0105   24.7526 H   0  0  0  0  0  0
  -28.1100  -36.2637   24.6264 H   0  0  0  0  0  0
  -27.2306  -37.1412   25.8865 H   0  0  0  0  0  0
  -20.9363  -29.8736   21.6866 H   0  0  0  0  0  0
  -26.0175  -38.2846   24.1406 H   0  0  0  0  0  0
  -31.5887  -19.5758   21.4148 H   0  0  0  0  0  0
  -27.8161  -20.8946   19.7793 H   0  0  0  0  0  0
  -33.0098  -21.3295   22.4101 H   0  0  0  0  0  0
  -32.5867  -23.0334   22.2553 H   0  0  0  0  0  0
  -33.3293  -22.1818   20.8966 H   0  0  0  0  0  0
  -27.5816  -22.5972   18.1369 H   0  0  0  0  0  0
  -27.0549  -24.2576   18.1873 H   0  0  0  0  0  0
  -26.4939  -23.1252   19.4203 H   0  0  0  0  0  0
  -28.7093  -18.3081   19.5421 H   0  0  0  0  0  0
  -28.4197  -18.2995   21.2530 H   0  0  0  0  0  0
  -30.8148  -17.4292   21.6334 H   0  0  0  0  0  0
  -31.0525  -17.3960   19.9130 H   0  0  0  0  0  0
  -28.9769  -25.0370   21.4265 H   0  0  0  0  0  0
  -27.2870  -24.9016   21.1301 H   0  0  0  0  0  0
  -29.3180  -24.1409   18.9861 H   0  0  0  0  0  0
  -28.8851  -15.6341   20.9083 H   0  0  0  0  0  0
  1 25  1  0  0  0
  1 30  2  0  0  0
  1 83  1  0  0  0
  2  3  1  0  0  0
  2 25  1  0  0  0
  2 84  1  0  0  0
  2 85  1  0  0  0
  3  4  1  0  0  0
  3 86  1  0  0  0
  3 87  1  0  0  0
  4  5  1  0  0  0
  4 88  1  0  0  0
  4 89  1  0  0  0
  5  6  1  0  0  0
  5 26  1  0  0  0
  5 90  1  0  0  0
  6 25  1  0  0  0
  6 91  1  0  0  0
  6 92  1  0  0  0
  7  8  2  0  0  0
  7 26  1  0  0  0
  7 29  1  0  0  0
  8  9  1  0  0  0
  8 22  1  0  0  0
  9 10  1  0  0  0
  9 27  2  0  0  0
 10 11  2  0  0  0
 10 15  1  0  0  0
 11 12  1  0  0  0
 11 93  1  0  0  0
 12 13  2  0  0  0
 12 94  1  0  0  0
 13 14  1  0  0  0
 13 31  1  0  0  0
 14 15  2  0  0  0
 14 95  1  0  0  0
 15 96  1  0  0  0
 16 17  2  0  0  0
 16 21  1  0  0  0
 16 31  1  0  0  0
 17 18  1  0  0  0
 17 97  1  0  0  0
 18 19  2  0  0  0
 18 98  1  0  0  0
 19 20  1  0  0  0
 19 24  1  0  0  0
 20 21  2  0  0  0
 20 99  1  0  0  0
 21 23  1  0  0  0
 22 28  1  0  0  0
 22 32  2  0  0  0
 26 27  1  0  0  0
 28100  1  0  0  0
 28101  1  0  0  0
 29102  1  0  0  0
 29103  1  0  0  0
 33 34  1  0  0  0
 33 66  1  0  0  0
 33 70  2  0  0  0
 34 36  1  0  0  0
 34 59  1  0  0  0
 34104  1  0  0  0
 35 44  2  0  0  0
 35 45  1  0  0  0
 35 68  1  0  0  0
 36 56  1  0  0  0
 36105  1  0  0  0
 37 39  1  0  0  0
 37 47  1  0  0  0
 37 66  1  0  0  0
 37106  1  0  0  0
 38 43  2  0  0  0
 38 46  1  0  0  0
 38 47  1  0  0  0
 39 64  1  0  0  0
 39 67  2  0  0  0
 40 52  1  0  0  0
 40 53  2  0  0  0
 40 58  1  0  0  0
 41107  1  0  0  0
 41108  1  0  0  0
 41109  1  0  0  0
 41 48  1  0  0  0
 42 43  1  0  0  0
 42 66  1  0  0  0
 42110  1  0  0  0
 42111  1  0  0  0
 43 44  1  0  0  0
 44112  1  0  0  0
 45 46  2  0  0  0
 45113  1  0  0  0
 46114  1  0  0  0
 47115  1  0  0  0
 47116  1  0  0  0
 48 56  1  0  0  0
 48 65  1  0  0  0
 48117  1  0  0  0
 49 50  1  0  0  0
 49 53  1  0  0  0
 49 64  1  0  0  0
 49118  1  0  0  0
 50 51  1  0  0  0
 50119  1  0  0  0
 50120  1  0  0  0
 51 52  1  0  0  0
 51121  1  0  0  0
 51122  1  0  0  0
 52123  1  0  0  0
 52124  1  0  0  0
 53 54  1  0  0  0
 54 55  2  0  0  0
 54125  1  0  0  0
 55 57  1  0  0  0
 55126  1  0  0  0
 56 69  2  0  0  0
 57 58  2  0  0  0
 57127  1  0  0  0
 58128  1  0  0  0
 59 60  1  0  0  0
 59 61  1  0  0  0
 59 62  1  0  0  0
 60129  1  0  0  0
 60130  1  0  0  0
 60131  1  0  0  0
 61132  1  0  0  0
 61133  1  0  0  0
 61134  1  0  0  0
 62135  1  0  0  0
 62136  1  0  0  0
 62137  1  0  0  0
 63 65  1  0  0  0
 63138  1  0  0  0
 63139  1  0  0  0
 63140  1  0  0  0
 64141  1  0  0  0
 65142  1  0  0  0
 68 80  1  0  0  0
 71 73  2  0  0  0
 71 74  1  0  0  0
 71143  1  0  0  0
 72 73  1  0  0  0
 72 75  2  0  0  0
 72144  1  0  0  0
 73 78  1  0  0  0
 74 76  1  0  0  0
 74 82  2  0  0  0
 75 81  1  0  0  0
 75 82  1  0  0  0
 76145  1  0  0  0
 76146  1  0  0  0
 76147  1  0  0  0
 77148  1  0  0  0
 77149  1  0  0  0
 77150  1  0  0  0
 77 81  1  0  0  0
 78 79  1  0  0  0
 78151  1  0  0  0
 78152  1  0  0  0
 79 83  1  0  0  0
 79153  1  0  0  0
 79154  1  0  0  0
 80 81  1  0  0  0
 80155  1  0  0  0
 80156  1  0  0  0
 81157  1  0  0  0
 83158  1  0  0  0
M  ISO  4   1 100  68 101  80 101  83 100
M  END
> <chiral flag>
0

> <version>
0

> <s_m_source_file>
/data/baiqing/PycharmProjects/Reinvent-master-3.2/result/LINK_invent/BTK/process_docking_weight1_custom_sum_contain_oxygen_bond_distance_aromatic_linkinvent_7_9_3/rearranged_h_0088.sdf

> <i_m_source_file_index>
16

> <r_mmod_Potential_Energy-OPLS-2005>
-44.0049819946289

> <r_mmod_Stretch_Energy-OPLS-2005>
106.811798095703

> <r_mmod_Bend_Energy-OPLS-2005>
153.064224243164

> <r_mmod_Torsional_Energy-OPLS-2005>
218.906234741211

> <r_mmod_Improper_Torsional_Energy-OPLS-2005>
5.59198760986328

> <r_mmod_Van_der_Waal_Energy-OPLS-2005>
138.007461547852

> <r_mmod_Electrostatic_Energy-OPLS-2005>
-503.117919921875

> <r_mmod_Solvation_Energy-OPLS-2005>
-224.402053833008

> <b_mmod_Minimization_Converged-OPLS-2005>
0

> <r_mmod_RMS_Derivative-OPLS-2005>
2.24226760864258

$$$$
16
                    3D
 Structure written by MMmdl.
166174  0  0  1  0            999 V2000
  -30.5056  -14.7853   20.4953 C   0  0  0  0  0  0
  -30.4594  -12.4899   19.4639 C   0  0  0  0  0  0
  -29.5257  -12.5383   18.2297 C   0  0  0  0  0  0
  -28.0481  -12.3417   18.6341 C   0  0  0  0  0  0
  -27.6480  -13.2127   19.8540 C   0  0  2  0  0  0
  -28.6891  -13.0851   20.9870 C   0  0  0  0  0  0
  -25.2519  -13.8062   20.5594 C   0  0  0  0  0  0
  -24.1787  -13.0376   20.9161 C   0  0  0  0  0  0
  -24.6361  -11.6857   20.8709 C   0  0  0  0  0  0
  -23.9024  -10.4256   21.0393 C   0  0  0  0  0  0
  -24.3573   -9.4179   21.9179 C   0  0  0  0  0  0
  -23.6248   -8.2222   22.0766 C   0  0  0  0  0  0
  -22.4232   -8.0252   21.3555 C   0  0  0  0  0  0
  -21.9863   -9.0223   20.4656 C   0  0  0  0  0  0
  -22.7190  -10.2100   20.3048 C   0  0  0  0  0  0
  -21.6848   -6.0711   22.5277 C   0  0  0  0  0  0
  -21.4005   -6.5613   23.8211 C   0  0  0  0  0  0
  -21.3653   -5.6766   24.9172 C   0  0  0  0  0  0
  -21.6048   -4.3036   24.7226 C   0  0  0  0  0  0
  -21.8814   -3.8130   23.4342 C   0  0  0  0  0  0
  -21.9190   -4.6942   22.3400 C   0  0  0  0  0  0
  -22.7808  -13.5221   21.1798 C   0  0  0  0  0  0
  -22.1654   -4.2132   21.0983 F   0  0  0  0  0  0
  -21.5652   -3.4525   25.7743 F   0  0  0  0  0  0
  -29.9845  -13.5070   20.4318 N   0  0  0  0  0  0
  -26.2952  -12.9255   20.3216 N   0  0  0  0  0  0
  -25.9292  -11.6424   20.5671 N   0  0  0  0  0  0
  -22.0415  -12.8282   22.0359 N   0  0  0  0  0  0
  -25.4190  -15.1723   20.3891 N   0  0  0  0  0  0
  -31.6592  -14.9982   20.1017 O   0  0  0  0  0  0
  -21.6619   -6.8838   21.4231 O   0  0  0  0  0  0
  -22.3506  -14.5525   20.6605 O   0  0  0  0  0  0
  -24.6297  -31.8537   23.1896 C   0  0  0  0  0  0
  -25.9117  -32.4739   23.8248 C   0  0  1  0  0  0
  -27.2415  -27.2574   20.1284 C   0  0  0  0  0  0
  -25.5909  -33.8535   24.2193 N   0  0  0  0  0  0
  -23.4289  -30.4707   21.5322 C   0  0  2  0  0  0
  -24.8809  -28.9097   20.1011 C   0  0  0  0  0  0
  -22.7487  -29.4608   22.4868 C   0  0  0  0  0  0
  -18.0297  -28.1458   22.8474 C   0  0  0  0  0  0
  -24.1489  -36.7260   23.2635 C   0  0  0  0  0  0
  -25.9706  -30.7639   21.3707 C   0  0  0  0  0  0
  -26.0446  -29.3825   20.7170 C   0  0  0  0  0  0
  -27.2203  -28.5683   20.7192 C   0  0  0  0  0  0
  -26.0580  -26.8495   19.4734 C   0  0  0  0  0  0
  -24.8931  -27.6516   19.4692 C   0  0  0  0  0  0
  -23.6474  -29.7937   20.1511 C   0  0  0  0  0  0
  -25.4122  -36.3046   24.0304 C   0  0  1  0  0  0
  -20.5895  -28.3760   23.1264 C   0  0  2  0  0  0
  -20.6774  -26.9471   22.5426 C   0  0  0  0  0  0
  -19.5752  -26.6438   21.5228 C   0  0  0  0  0  0
  -18.1933  -26.7982   22.1629 C   0  0  0  0  0  0
  -19.1550  -28.8912   23.2868 C   0  0  0  0  0  0
  -18.9472  -30.1502   23.8906 C   0  0  0  0  0  0
  -17.6478  -30.6629   24.0605 C   0  0  0  0  0  0
  -25.9073  -34.9429   23.5059 C   0  0  0  0  0  0
  -16.5374  -29.9148   23.6348 C   0  0  0  0  0  0
  -16.7282  -28.6581   23.0331 C   0  0  0  0  0  0
  -26.4486  -31.6580   25.0644 C   0  0  0  0  0  0
  -25.3682  -31.3736   26.1341 C   0  0  0  0  0  0
  -27.0333  -30.2998   24.6128 C   0  0  0  0  0  0
  -27.6054  -32.4312   25.7420 C   0  0  0  0  0  0
  -27.5574  -37.1781   24.8446 C   0  0  0  0  0  0
  -21.4187  -29.3082   22.3617 N   0  0  0  0  0  0
  -26.4282  -37.3767   23.9398 N   0  0  0  0  0  0
  -24.6957  -31.0473   22.0885 N   0  0  0  0  0  0
  -23.4161  -28.8161   23.2995 O   0  0  0  0  0  0
  -28.3645  -26.4039   20.2499 O   0  0  0  0  0  0
  -26.5674  -34.8915   22.4653 O   0  0  0  0  0  0
  -23.5452  -32.1382   23.7181 O   0  0  0  0  0  0
  -28.5394  -19.1930   21.7654 C   0  0  0  0  0  0
  -29.8565  -18.3406   20.1784 C   0  0  0  0  0  0
  -28.5706  -17.8276   21.9568 C   0  0  0  0  0  0
  -29.4693  -17.2631   20.9872 C   0  0  0  0  0  0
  -25.5590  -18.1867   22.0702 C   0  0  0  0  0  0
  -28.5302  -16.7459   24.2461 C   0  0  0  0  0  0
  -27.1366  -23.9076   21.5471 C   0  0  0  0  0  0
  -26.3563  -17.6887   23.2921 C   0  0  0  0  0  0
  -29.0737  -22.3568   20.7291 C   0  0  0  0  0  0
  -29.0885  -20.9318   19.9274 C   0  0  0  0  0  0
  -28.5238  -25.0161   19.6755 C   0  0  0  0  0  0
  -27.7338  -17.0553   22.9705 C   0  0  1  0  0  0
  -28.0588  -23.6034   20.3551 C   0  0  2  0  0  0
  -29.2269  -19.5570   20.6193 N   0  0  0  0  0  0
  -29.6102  -15.7718   20.8996 N   0  0  0  0  0  0
  -31.4930  -12.6704   19.1627 H   0  0  0  0  0  0
  -30.4487  -11.4976   19.9183 H   0  0  0  0  0  0
  -29.8248  -11.7793   17.5052 H   0  0  0  0  0  0
  -29.6365  -13.4988   17.7241 H   0  0  0  0  0  0
  -27.9030  -11.2873   18.8722 H   0  0  0  0  0  0
  -27.3962  -12.5545   17.7854 H   0  0  0  0  0  0
  -27.6562  -14.2454   19.5031 H   0  0  0  0  0  0
  -28.7412  -12.0520   21.3406 H   0  0  0  0  0  0
  -28.3988  -13.6767   21.8558 H   0  0  0  0  0  0
  -25.2729   -9.5683   22.4726 H   0  0  0  0  0  0
  -23.9983   -7.4628   22.7483 H   0  0  0  0  0  0
  -21.0818   -8.8715   19.8960 H   0  0  0  0  0  0
  -22.3646  -10.9617   19.6136 H   0  0  0  0  0  0
  -21.1982   -7.6110   23.9702 H   0  0  0  0  0  0
  -21.1484   -6.0500   25.9078 H   0  0  0  0  0  0
  -22.0603   -2.7594   23.2842 H   0  0  0  0  0  0
  -22.3974  -11.9973   22.4846 H   0  0  0  0  0  0
  -21.1020  -13.1340   22.2486 H   0  0  0  0  0  0
  -24.6535  -15.8239   20.5191 H   0  0  0  0  0  0
  -26.2677  -15.6187   20.0682 H   0  0  0  0  0  0
  -26.7163  -32.5393   23.0978 H   0  0  0  0  0  0
  -24.9968  -33.9672   25.0266 H   0  0  0  0  0  0
  -22.7280  -31.2952   21.3795 H   0  0  0  0  0  0
  -23.3769  -35.9577   23.3286 H   0  0  0  0  0  0
  -24.3572  -36.8919   22.2053 H   0  0  0  0  0  0
  -23.7236  -37.6436   23.6703 H   0  0  0  0  0  0
  -26.1096  -31.5212   20.5968 H   0  0  0  0  0  0
  -26.8464  -30.8164   22.0052 H   0  0  0  0  0  0
  -28.1093  -28.9255   21.2194 H   0  0  0  0  0  0
  -26.0123  -25.8830   18.9942 H   0  0  0  0  0  0
  -24.0014  -27.2861   18.9793 H   0  0  0  0  0  0
  -23.7740  -30.5647   19.3900 H   0  0  0  0  0  0
  -22.7652  -29.2240   19.8499 H   0  0  0  0  0  0
  -25.1333  -36.1872   25.0800 H   0  0  0  0  0  0
  -21.0026  -28.3372   24.1371 H   0  0  0  0  0  0
  -20.5696  -26.2371   23.3644 H   0  0  0  0  0  0
  -21.6644  -26.7515   22.1222 H   0  0  0  0  0  0
  -19.6916  -25.6344   21.1270 H   0  0  0  0  0  0
  -19.6695  -27.3233   20.6741 H   0  0  0  0  0  0
  -17.4211  -26.6744   21.4026 H   0  0  0  0  0  0
  -18.0334  -26.0156   22.9056 H   0  0  0  0  0  0
  -19.7944  -30.7328   24.2280 H   0  0  0  0  0  0
  -17.5039  -31.6289   24.5239 H   0  0  0  0  0  0
  -15.5375  -30.3077   23.7651 H   0  0  0  0  0  0
  -15.8678  -28.0929   22.7025 H   0  0  0  0  0  0
  -24.5869  -30.7097   25.7624 H   0  0  0  0  0  0
  -24.8847  -32.2906   26.4723 H   0  0  0  0  0  0
  -25.7966  -30.8908   27.0138 H   0  0  0  0  0  0
  -26.2896  -29.6724   24.1200 H   0  0  0  0  0  0
  -27.4066  -29.7297   25.4642 H   0  0  0  0  0  0
  -27.8760  -30.4259   23.9326 H   0  0  0  0  0  0
  -27.2703  -33.3666   26.1928 H   0  0  0  0  0  0
  -28.3910  -32.6793   25.0263 H   0  0  0  0  0  0
  -28.0671  -31.8455   26.5382 H   0  0  0  0  0  0
  -28.2589  -38.0086   24.7560 H   0  0  0  0  0  0
  -28.1096  -36.2632   24.6237 H   0  0  0  0  0  0
  -27.2290  -37.1375   25.8845 H   0  0  0  0  0  0
  -20.9385  -29.8765   21.6787 H   0  0  0  0  0  0
  -26.0147  -38.2827   24.1454 H   0  0  0  0  0  0
  -27.9637  -19.9416   22.2944 H   0  0  0  0  0  0
  -30.4533  -18.3512   19.2751 H   0  0  0  0  0  0
  -24.4838  -18.1233   22.2434 H   0  0  0  0  0  0
  -25.7899  -17.6094   21.1784 H   0  0  0  0  0  0
  -25.7895  -19.2262   21.8413 H   0  0  0  0  0  0
  -29.4261  -16.1660   24.0183 H   0  0  0  0  0  0
  -27.9357  -16.1626   24.9505 H   0  0  0  0  0  0
  -28.8426  -17.6592   24.7549 H   0  0  0  0  0  0
  -26.6147  -23.0130   21.8887 H   0  0  0  0  0  0
  -26.3739  -24.6385   21.2745 H   0  0  0  0  0  0
  -27.6937  -24.3145   22.3920 H   0  0  0  0  0  0
  -25.7579  -16.9431   23.8178 H   0  0  0  0  0  0
  -26.4726  -18.5159   23.9925 H   0  0  0  0  0  0
  -30.0936  -22.7414   20.7469 H   0  0  0  0  0  0
  -28.8957  -22.1049   21.7743 H   0  0  0  0  0  0
  -29.8527  -20.9850   19.1527 H   0  0  0  0  0  0
  -28.1506  -20.8778   19.3732 H   0  0  0  0  0  0
  -28.1236  -25.0449   18.6606 H   0  0  0  0  0  0
  -29.5992  -24.9291   19.5178 H   0  0  0  0  0  0
  -27.5023  -16.1003   22.5009 H   0  0  0  0  0  0
  -27.3962  -23.1681   19.6072 H   0  0  0  0  0  0
  -28.7986  -15.3114   21.2809 H   0  0  0  0  0  0
  1 25  1  0  0  0
  1 30  2  0  0  0
  1 85  1  0  0  0
  2  3  1  0  0  0
  2 25  1  0  0  0
  2 86  1  0  0  0
  2 87  1  0  0  0
  3  4  1  0  0  0
  3 88  1  0  0  0
  3 89  1  0  0  0
  4  5  1  0  0  0
  4 90  1  0  0  0
  4 91  1  0  0  0
  5  6  1  0  0  0
  5 26  1  0  0  0
  5 92  1  0  0  0
  6 25  1  0  0  0
  6 93  1  0  0  0
  6 94  1  0  0  0
  7  8  2  0  0  0
  7 26  1  0  0  0
  7 29  1  0  0  0
  8  9  1  0  0  0
  8 22  1  0  0  0
  9 10  1  0  0  0
  9 27  2  0  0  0
 10 11  2  0  0  0
 10 15  1  0  0  0
 11 12  1  0  0  0
 11 95  1  0  0  0
 12 13  2  0  0  0
 12 96  1  0  0  0
 13 14  1  0  0  0
 13 31  1  0  0  0
 14 15  2  0  0  0
 14 97  1  0  0  0
 15 98  1  0  0  0
 16 17  2  0  0  0
 16 21  1  0  0  0
 16 31  1  0  0  0
 17 18  1  0  0  0
 17 99  1  0  0  0
 18 19  2  0  0  0
 18100  1  0  0  0
 19 20  1  0  0  0
 19 24  1  0  0  0
 20 21  2  0  0  0
 20101  1  0  0  0
 21 23  1  0  0  0
 22 28  1  0  0  0
 22 32  2  0  0  0
 26 27  1  0  0  0
 28102  1  0  0  0
 28103  1  0  0  0
 29104  1  0  0  0
 29105  1  0  0  0
 33 34  1  0  0  0
 33 66  1  0  0  0
 33 70  2  0  0  0
 34 36  1  0  0  0
 34 59  1  0  0  0
 34106  1  0  0  0
 35 44  2  0  0  0
 35 45  1  0  0  0
 35 68  1  0  0  0
 36 56  1  0  0  0
 36107  1  0  0  0
 37 39  1  0  0  0
 37 47  1  0  0  0
 37 66  1  0  0  0
 37108  1  0  0  0
 38 43  2  0  0  0
 38 46  1  0  0  0
 38 47  1  0  0  0
 39 64  1  0  0  0
 39 67  2  0  0  0
 40 52  1  0  0  0
 40 53  2  0  0  0
 40 58  1  0  0  0
 41109  1  0  0  0
 41110  1  0  0  0
 41111  1  0  0  0
 41 48  1  0  0  0
 42 43  1  0  0  0
 42 66  1  0  0  0
 42112  1  0  0  0
 42113  1  0  0  0
 43 44  1  0  0  0
 44114  1  0  0  0
 45 46  2  0  0  0
 45115  1  0  0  0
 46116  1  0  0  0
 47117  1  0  0  0
 47118  1  0  0  0
 48 56  1  0  0  0
 48 65  1  0  0  0
 48119  1  0  0  0
 49 50  1  0  0  0
 49 53  1  0  0  0
 49 64  1  0  0  0
 49120  1  0  0  0
 50 51  1  0  0  0
 50121  1  0  0  0
 50122  1  0  0  0
 51 52  1  0  0  0
 51123  1  0  0  0
 51124  1  0  0  0
 52125  1  0  0  0
 52126  1  0  0  0
 53 54  1  0  0  0
 54 55  2  0  0  0
 54127  1  0  0  0
 55 57  1  0  0  0
 55128  1  0  0  0
 56 69  2  0  0  0
 57 58  2  0  0  0
 57129  1  0  0  0
 58130  1  0  0  0
 59 60  1  0  0  0
 59 61  1  0  0  0
 59 62  1  0  0  0
 60131  1  0  0  0
 60132  1  0  0  0
 60133  1  0  0  0
 61134  1  0  0  0
 61135  1  0  0  0
 61136  1  0  0  0
 62137  1  0  0  0
 62138  1  0  0  0
 62139  1  0  0  0
 63 65  1  0  0  0
 63140  1  0  0  0
 63141  1  0  0  0
 63142  1  0  0  0
 64143  1  0  0  0
 65144  1  0  0  0
 68 81  1  0  0  0
 71 73  2  0  0  0
 71 84  1  0  0  0
 71145  1  0  0  0
 72 74  2  0  0  0
 72 84  1  0  0  0
 72146  1  0  0  0
 73 74  1  0  0  0
 73 82  1  0  0  0
 74 85  1  0  0  0
 75 78  1  0  0  0
 75147  1  0  0  0
 75148  1  0  0  0
 75149  1  0  0  0
 76150  1  0  0  0
 76151  1  0  0  0
 76152  1  0  0  0
 76 82  1  0  0  0
 77153  1  0  0  0
 77154  1  0  0  0
 77155  1  0  0  0
 77 83  1  0  0  0
 78 82  1  0  0  0
 78156  1  0  0  0
 78157  1  0  0  0
 79 80  1  0  0  0
 79 83  1  0  0  0
 79158  1  0  0  0
 79159  1  0  0  0
 80 84  1  0  0  0
 80160  1  0  0  0
 80161  1  0  0  0
 81 83  1  0  0  0
 81162  1  0  0  0
 81163  1  0  0  0
 82164  1  0  0  0
 83165  1  0  0  0
 85166  1  0  0  0
M  ISO  4   1 100  68 101  81 101  85 100
M  END
> <chiral flag>
0

> <version>
0

> <s_m_source_file>
/data/baiqing/PycharmProjects/Reinvent-master-3.2/result/LINK_invent/BTK/process_docking_weight1_custom_sum_contain_oxygen_bond_distance_aromatic_linkinvent_7_9_3/rearranged_h_0088.sdf

> <i_m_source_file_index>
17

> <r_mmod_Potential_Energy-OPLS-2005>
320.372894287109

> <r_mmod_Stretch_Energy-OPLS-2005>
145.439575195312

> <r_mmod_Bend_Energy-OPLS-2005>
260.669860839844

> <r_mmod_Torsional_Energy-OPLS-2005>
274.615203857422

> <r_mmod_Improper_Torsional_Energy-OPLS-2005>
6.62243843078613

> <r_mmod_Van_der_Waal_Energy-OPLS-2005>
103.441825866699

> <r_mmod_Electrostatic_Energy-OPLS-2005>
-372.451843261719

> <r_mmod_Solvation_Energy-OPLS-2005>
-197.253219604492

> <b_mmod_Minimization_Converged-OPLS-2005>
0

> <r_mmod_RMS_Derivative-OPLS-2005>
3.77274680137634

$$$$
17
                    3D
 Structure written by MMmdl.
167175  0  0  1  0            999 V2000
  -30.7945  -14.2226   20.8360 C   0  0  0  0  0  0
  -30.6613  -12.2948   19.2143 C   0  0  0  0  0  0
  -29.6738  -12.5329   18.0192 C   0  0  0  0  0  0
  -28.1683  -12.5824   18.3824 C   0  0  0  0  0  0
  -28.0605  -13.3911   19.6835 C   0  0  2  0  0  0
  -28.9294  -12.6438   20.6672 C   0  0  0  0  0  0
  -25.9354  -14.3490   20.3279 C   0  0  0  0  0  0
  -24.2868  -13.6978   21.0727 C   0  0  0  0  0  0
  -24.2213  -12.4053   21.5152 C   0  0  0  0  0  0
  -23.7390  -10.8701   21.2395 C   0  0  0  0  0  0
  -24.2275   -9.7688   22.0414 C   0  0  0  0  0  0
  -23.6389   -8.4637   22.0922 C   0  0  0  0  0  0
  -22.4843   -8.1660   21.3348 C   0  0  0  0  0  0
  -22.0651   -9.1713   20.4322 C   0  0  0  0  0  0
  -22.6840  -10.4623   20.3676 C   0  0  0  0  0  0
  -21.7464   -6.1303   22.4976 C   0  0  0  0  0  0
  -21.4468   -6.6030   23.7971 C   0  0  0  0  0  0
  -21.3807   -5.7103   24.8899 C   0  0  0  0  0  0
  -21.6011   -4.3335   24.6975 C   0  0  0  0  0  0
  -21.8733   -3.8480   23.4080 C   0  0  0  0  0  0
  -21.9356   -4.7378   22.3158 C   0  0  0  0  0  0
  -22.6595  -14.0375   21.2559 C   0  0  0  0  0  0
  -22.1735   -4.2425   21.0789 F   0  0  0  0  0  0
  -21.5512   -3.4774   25.7470 F   0  0  0  0  0  0
  -30.2557  -13.0520   20.4088 N   0  0  0  0  0  0
  -26.7074  -13.8471   20.2166 N   0  0  0  0  0  0
  -24.9911  -13.5466   20.8993 N   0  0  0  0  0  0
  -21.8999  -13.2654   22.0686 N   0  0  0  0  0  0
  -26.6434  -15.4516   19.6469 N   0  0  0  0  0  0
  -31.7917  -14.6630   20.2422 O   0  0  0  0  0  0
  -21.7750   -6.9659   21.3900 O   0  0  0  0  0  0
  -22.0811  -14.9123   20.6387 O   0  0  0  0  0  0
  -24.7152  -31.7574   23.1366 C   0  0  0  0  0  0
  -25.9633  -32.4227   23.7931 C   0  0  1  0  0  0
  -26.5117  -26.0571   20.3762 C   0  0  0  0  0  0
  -25.6074  -33.8116   24.1725 N   0  0  0  0  0  0
  -23.5204  -30.3899   21.5049 C   0  0  2  0  0  0
  -24.8627  -28.6592   20.0780 C   0  0  0  0  0  0
  -22.7742  -29.4152   22.4579 C   0  0  0  0  0  0
  -18.0307  -28.1435   22.8427 C   0  0  0  0  0  0
  -24.1480  -36.7033   23.2654 C   0  0  0  0  0  0
  -26.0977  -30.2466   21.4999 C   0  0  0  0  0  0
  -26.0188  -28.7706   20.8454 C   0  0  0  0  0  0
  -26.8500  -27.4867   20.9677 C   0  0  0  0  0  0
  -25.5400  -26.3446   19.4032 C   0  0  0  0  0  0
  -24.7251  -27.5038   19.3030 C   0  0  0  0  0  0
  -23.7642  -29.7365   20.1133 C   0  0  0  0  0  0
  -25.4165  -36.2777   24.0233 C   0  0  1  0  0  0
  -20.5944  -28.3779   23.1078 C   0  0  2  0  0  0
  -20.6780  -26.9415   22.5400 C   0  0  0  0  0  0
  -19.5765  -26.6346   21.5211 C   0  0  0  0  0  0
  -18.1942  -26.7955   22.1604 C   0  0  0  0  0  0
  -19.1585  -28.8923   23.2740 C   0  0  0  0  0  0
  -18.9509  -30.1512   23.8779 C   0  0  0  0  0  0
  -17.6512  -30.6616   24.0538 C   0  0  0  0  0  0
  -25.9191  -34.9183   23.4848 C   0  0  0  0  0  0
  -16.5383  -29.9098   23.6393 C   0  0  0  0  0  0
  -16.7292  -28.6533   23.0369 C   0  0  0  0  0  0
  -26.4674  -31.6532   25.0781 C   0  0  0  0  0  0
  -25.3605  -31.4011   26.1307 C   0  0  0  0  0  0
  -27.0718  -30.2830   24.7111 C   0  0  0  0  0  0
  -27.6030  -32.4550   25.7585 C   0  0  0  0  0  0
  -27.5549  -37.1683   24.8465 C   0  0  0  0  0  0
  -21.4374  -29.2994   22.3353 N   0  0  0  0  0  0
  -26.4235  -37.3600   23.9424 N   0  0  0  0  0  0
  -24.8154  -30.8523   22.0918 N   0  0  0  0  0  0
  -23.4107  -28.7722   23.2973 O   0  0  0  0  0  0
  -26.8455  -24.4296   20.5590 O   0  0  0  0  0  0
  -26.5881  -34.8831   22.4498 O   0  0  0  0  0  0
  -23.6141  -32.0973   23.6089 O   0  0  0  0  0  0
  -24.2392  -14.9054   19.0476 C   0  0  0  0  0  0
  -25.7932  -15.0756   22.4482 C   0  0  0  0  0  0
  -24.7278  -16.1673   20.8766 C   0  0  0  0  0  0
  -25.0170  -12.8054   18.8200 C   0  0  0  0  0  0
  -26.5572  -13.0149   22.3347 C   0  0  0  0  0  0
  -26.1785  -11.7308   20.4429 C   0  0  0  0  0  0
  -24.6870  -12.0372   17.5641 C   0  0  0  0  0  0
  -30.3463  -16.4294   21.6148 C   0  0  0  0  0  0
  -24.8572  -18.3070   20.7265 C   0  0  0  0  0  0
  -27.4731  -12.5953   23.5054 C   0  0  0  0  0  0
  -25.8935  -20.3273   20.7696 C   0  0  0  0  0  0
  -28.8121  -13.4504   23.7537 C   0  0  0  0  0  0
  -29.1393  -14.7806   22.9314 C   0  0  0  0  0  0
  -25.9622  -22.5872   20.5080 C   0  0  0  0  0  0
  -26.6278  -10.4107   20.3138 N   0  0  0  0  0  0
  -30.1165  -14.9809   21.7759 N   0  0  0  0  0  0
  -31.6786  -12.5532   18.9083 H   0  0  0  0  0  0
  -30.7145  -11.2302   19.4523 H   0  0  0  0  0  0
  -29.8454  -11.7766   17.2520 H   0  0  0  0  0  0
  -29.9379  -13.4818   17.5523 H   0  0  0  0  0  0
  -27.8148  -11.5575   18.4488 H   0  0  0  0  0  0
  -27.6038  -13.0621   17.5830 H   0  0  0  0  0  0
  -28.6003  -14.3018   19.4194 H   0  0  0  0  0  0
  -28.8443  -11.5612   20.5826 H   0  0  0  0  0  0
  -28.7785  -12.7967   21.6481 H   0  0  0  0  0  0
  -25.0476   -9.9701   22.7159 H   0  0  0  0  0  0
  -24.0448   -7.7237   22.7664 H   0  0  0  0  0  0
  -21.2146   -8.9695   19.7957 H   0  0  0  0  0  0
  -22.2539  -11.2006   19.7052 H   0  0  0  0  0  0
  -21.2729   -7.6579   23.9554 H   0  0  0  0  0  0
  -21.1635   -6.0862   25.8792 H   0  0  0  0  0  0
  -22.0315   -2.7936   23.2516 H   0  0  0  0  0  0
  -22.2860  -12.5133   22.6196 H   0  0  0  0  0  0
  -20.9136  -13.4728   22.1517 H   0  0  0  0  0  0
  -26.0441  -16.2636   19.7037 H   0  0  0  0  0  0
  -27.5630  -15.6471   20.0066 H   0  0  0  0  0  0
  -26.7733  -32.4468   23.0620 H   0  0  0  0  0  0
  -25.0058  -33.9135   24.9767 H   0  0  0  0  0  0
  -22.8649  -31.2487   21.3426 H   0  0  0  0  0  0
  -23.3820  -35.9274   23.3200 H   0  0  0  0  0  0
  -24.3516  -36.8847   22.2086 H   0  0  0  0  0  0
  -23.7134  -37.6113   23.6850 H   0  0  0  0  0  0
  -26.4075  -30.9241   20.7032 H   0  0  0  0  0  0
  -26.9304  -30.2539   22.1876 H   0  0  0  0  0  0
  -27.6569  -27.5272   21.6851 H   0  0  0  0  0  0
  -25.2156  -25.5098   18.7969 H   0  0  0  0  0  0
  -23.8828  -27.4506   18.6287 H   0  0  0  0  0  0
  -24.0417  -30.5145   19.4007 H   0  0  0  0  0  0
  -22.8266  -29.3181   19.7415 H   0  0  0  0  0  0
  -25.1381  -36.1473   25.0706 H   0  0  0  0  0  0
  -21.0028  -28.3473   24.1202 H   0  0  0  0  0  0
  -20.5675  -26.2391   23.3686 H   0  0  0  0  0  0
  -21.6631  -26.7370   22.1190 H   0  0  0  0  0  0
  -19.6940  -25.6232   21.1302 H   0  0  0  0  0  0
  -19.6756  -27.3102   20.6702 H   0  0  0  0  0  0
  -17.4223  -26.6665   21.4008 H   0  0  0  0  0  0
  -18.0337  -26.0131   22.9026 H   0  0  0  0  0  0
  -19.7977  -30.7348   24.2109 H   0  0  0  0  0  0
  -17.5057  -31.6291   24.5138 H   0  0  0  0  0  0
  -15.5378  -30.2970   23.7790 H   0  0  0  0  0  0
  -15.8675  -28.0828   22.7155 H   0  0  0  0  0  0
  -24.5760  -30.7430   25.7566 H   0  0  0  0  0  0
  -24.8846  -32.3300   26.4456 H   0  0  0  0  0  0
  -25.7615  -30.9294   27.0281 H   0  0  0  0  0  0
  -26.3475  -29.6165   24.2436 H   0  0  0  0  0  0
  -27.4220  -29.7655   25.6052 H   0  0  0  0  0  0
  -27.9432  -30.3852   24.0643 H   0  0  0  0  0  0
  -27.2523  -33.4003   26.1730 H   0  0  0  0  0  0
  -28.4021  -32.6884   25.0546 H   0  0  0  0  0  0
  -28.0508  -31.9016   26.5842 H   0  0  0  0  0  0
  -28.2485  -38.0063   24.7599 H   0  0  0  0  0  0
  -28.1134  -36.2591   24.6194 H   0  0  0  0  0  0
  -27.2282  -37.1170   25.8869 H   0  0  0  0  0  0
  -20.9699  -29.8667   21.6417 H   0  0  0  0  0  0
  -26.0028  -38.2616   24.1489 H   0  0  0  0  0  0
  -23.7462  -15.3684   18.2054 H   0  0  0  0  0  0
  -26.1021  -15.6479   23.3112 H   0  0  0  0  0  0
  -23.6218  -12.1017   17.3443 H   0  0  0  0  0  0
  -24.9398  -10.9851   17.6974 H   0  0  0  0  0  0
  -25.2455  -12.4241   16.7138 H   0  0  0  0  0  0
  -29.5973  -17.0424   22.1148 H   0  0  0  0  0  0
  -30.3148  -16.7280   20.5622 H   0  0  0  0  0  0
  -31.3224  -16.7077   22.0144 H   0  0  0  0  0  0
  -24.0002  -18.5430   21.3580 H   0  0  0  0  0  0
  -24.4412  -18.3717   19.7221 H   0  0  0  0  0  0
  -27.7331  -11.5456   23.3506 H   0  0  0  0  0  0
  -26.8598  -12.6069   24.4072 H   0  0  0  0  0  0
  -26.7835  -20.0686   20.1965 H   0  0  0  0  0  0
  -26.2267  -20.2942   21.8060 H   0  0  0  0  0  0
  -29.6788  -12.7888   23.7139 H   0  0  0  0  0  0
  -28.7661  -13.7409   24.8047 H   0  0  0  0  0  0
  -29.5285  -15.4385   23.7088 H   0  0  0  0  0  0
  -28.2254  -15.2661   22.6225 H   0  0  0  0  0  0
  -25.0886  -22.8387   21.1133 H   0  0  0  0  0  0
  -25.5753  -22.6497   19.4896 H   0  0  0  0  0  0
  -26.1710   -9.8150   19.6332 H   0  0  0  0  0  0
  -26.9003   -9.9148   21.1515 H   0  0  0  0  0  0
  1 25  1  0  0  0
  1 30  2  0  0  0
  1 86  1  0  0  0
  2  3  1  0  0  0
  2 25  1  0  0  0
  2 87  1  0  0  0
  2 88  1  0  0  0
  3  4  1  0  0  0
  3 89  1  0  0  0
  3 90  1  0  0  0
  4  5  1  0  0  0
  4 91  1  0  0  0
  4 92  1  0  0  0
  5  6  1  0  0  0
  5 26  1  0  0  0
  5 93  1  0  0  0
  6 25  1  0  0  0
  6 94  1  0  0  0
  6 95  1  0  0  0
  7  8  2  0  0  0
  7 26  1  0  0  0
  7 29  1  0  0  0
  8  9  1  0  0  0
  8 22  1  0  0  0
  9 10  1  0  0  0
  9 27  2  0  0  0
 10 11  2  0  0  0
 10 15  1  0  0  0
 11 12  1  0  0  0
 11 96  1  0  0  0
 12 13  2  0  0  0
 12 97  1  0  0  0
 13 14  1  0  0  0
 13 31  1  0  0  0
 14 15  2  0  0  0
 14 98  1  0  0  0
 15 99  1  0  0  0
 16 17  2  0  0  0
 16 21  1  0  0  0
 16 31  1  0  0  0
 17 18  1  0  0  0
 17100  1  0  0  0
 18 19  2  0  0  0
 18101  1  0  0  0
 19 20  1  0  0  0
 19 24  1  0  0  0
 20 21  2  0  0  0
 20102  1  0  0  0
 21 23  1  0  0  0
 22 28  1  0  0  0
 22 32  2  0  0  0
 26 27  1  0  0  0
 28103  1  0  0  0
 28104  1  0  0  0
 29105  1  0  0  0
 29106  1  0  0  0
 33 34  1  0  0  0
 33 66  1  0  0  0
 33 70  2  0  0  0
 34 36  1  0  0  0
 34 59  1  0  0  0
 34107  1  0  0  0
 35 44  2  0  0  0
 35 45  1  0  0  0
 35 68  1  0  0  0
 36 56  1  0  0  0
 36108  1  0  0  0
 37 39  1  0  0  0
 37 47  1  0  0  0
 37 66  1  0  0  0
 37109  1  0  0  0
 38 43  2  0  0  0
 38 46  1  0  0  0
 38 47  1  0  0  0
 39 64  1  0  0  0
 39 67  2  0  0  0
 40 52  1  0  0  0
 40 53  2  0  0  0
 40 58  1  0  0  0
 41110  1  0  0  0
 41111  1  0  0  0
 41112  1  0  0  0
 41 48  1  0  0  0
 42 43  1  0  0  0
 42 66  1  0  0  0
 42113  1  0  0  0
 42114  1  0  0  0
 43 44  1  0  0  0
 44115  1  0  0  0
 45 46  2  0  0  0
 45116  1  0  0  0
 46117  1  0  0  0
 47118  1  0  0  0
 47119  1  0  0  0
 48 56  1  0  0  0
 48 65  1  0  0  0
 48120  1  0  0  0
 49 50  1  0  0  0
 49 53  1  0  0  0
 49 64  1  0  0  0
 49121  1  0  0  0
 50 51  1  0  0  0
 50122  1  0  0  0
 50123  1  0  0  0
 51 52  1  0  0  0
 51124  1  0  0  0
 51125  1  0  0  0
 52126  1  0  0  0
 52127  1  0  0  0
 53 54  1  0  0  0
 54 55  2  0  0  0
 54128  1  0  0  0
 55 57  1  0  0  0
 55129  1  0  0  0
 56 69  2  0  0  0
 57 58  2  0  0  0
 57130  1  0  0  0
 58131  1  0  0  0
 59 60  1  0  0  0
 59 61  1  0  0  0
 59 62  1  0  0  0
 60132  1  0  0  0
 60133  1  0  0  0
 60134  1  0  0  0
 61135  1  0  0  0
 61136  1  0  0  0
 61137  1  0  0  0
 62138  1  0  0  0
 62139  1  0  0  0
 62140  1  0  0  0
 63 65  1  0  0  0
 63141  1  0  0  0
 63142  1  0  0  0
 63143  1  0  0  0
 64144  1  0  0  0
 65145  1  0  0  0
 68 84  1  0  0  0
 71 73  2  0  0  0
 71 74  1  0  0  0
 71146  1  0  0  0
 72 73  1  0  0  0
 72 75  2  0  0  0
 72147  1  0  0  0
 73 79  1  0  0  0
 74 76  2  0  0  0
 74 77  1  0  0  0
 75 76  1  0  0  0
 75 80  1  0  0  0
 76 85  1  0  0  0
 77148  1  0  0  0
 77149  1  0  0  0
 77150  1  0  0  0
 78 86  1  0  0  0
 78151  1  0  0  0
 78152  1  0  0  0
 78153  1  0  0  0
 79 81  1  0  0  0
 79154  1  0  0  0
 79155  1  0  0  0
 80 82  1  0  0  0
 80156  1  0  0  0
 80157  1  0  0  0
 81 84  1  0  0  0
 81158  1  0  0  0
 81159  1  0  0  0
 82 83  1  0  0  0
 82160  1  0  0  0
 82161  1  0  0  0
 83 86  1  0  0  0
 83162  1  0  0  0
 83163  1  0  0  0
 84164  1  0  0  0
 84165  1  0  0  0
 85166  1  0  0  0
 85167  1  0  0  0
M  ISO  4   1 100  68 101  84 101  86 100
M  END
> <chiral flag>
0

> <version>
0

> <s_m_source_file>
/data/baiqing/PycharmProjects/Reinvent-master-3.2/result/LINK_invent/BTK/process_docking_weight1_custom_sum_contain_oxygen_bond_distance_aromatic_linkinvent_7_9_3/rearranged_h_0088.sdf

> <i_m_source_file_index>
18

> <r_mmod_Potential_Energy-OPLS-2005>
22485.34375

> <r_mmod_Stretch_Energy-OPLS-2005>
12968.4931640625

> <r_mmod_Bend_Energy-OPLS-2005>
2577.0087890625

> <r_mmod_Torsional_Energy-OPLS-2005>
440.416107177734

> <r_mmod_Improper_Torsional_Energy-OPLS-2005>
51.853157043457

> <r_mmod_Van_der_Waal_Energy-OPLS-2005>
4244.6826171875

> <r_mmod_Electrostatic_Energy-OPLS-2005>
-308.359893798828

> <r_mmod_Solvation_Energy-OPLS-2005>
-207.013259887695

> <b_mmod_Minimization_Converged-OPLS-2005>
0

> <r_mmod_RMS_Derivative-OPLS-2005>
7.55091524124146

$$$$
18
                    3D
 Structure written by MMmdl.
164172  0  0  1  0            999 V2000
  -30.6913  -14.5120   20.5510 C   0  0  0  0  0  0
  -30.4219  -12.3274   19.4331 C   0  0  0  0  0  0
  -29.4967  -12.5070   18.2120 C   0  0  0  0  0  0
  -28.0186  -12.3603   18.6232 C   0  0  0  0  0  0
  -27.6574  -13.2111   19.8703 C   0  0  2  0  0  0
  -28.6998  -13.0234   20.9960 C   0  0  0  0  0  0
  -25.2575  -13.8170   20.5683 C   0  0  0  0  0  0
  -24.1833  -13.0441   20.9181 C   0  0  0  0  0  0
  -24.6391  -11.6909   20.8737 C   0  0  0  0  0  0
  -23.9060  -10.4293   21.0406 C   0  0  0  0  0  0
  -24.3614   -9.4209   21.9183 C   0  0  0  0  0  0
  -23.6292   -8.2243   22.0752 C   0  0  0  0  0  0
  -22.4274   -8.0281   21.3543 C   0  0  0  0  0  0
  -21.9906   -9.0254   20.4647 C   0  0  0  0  0  0
  -22.7233  -10.2135   20.3056 C   0  0  0  0  0  0
  -21.6854   -6.0738   22.5281 C   0  0  0  0  0  0
  -21.4013   -6.5641   23.8215 C   0  0  0  0  0  0
  -21.3658   -5.6790   24.9175 C   0  0  0  0  0  0
  -21.6045   -4.3054   24.7222 C   0  0  0  0  0  0
  -21.8820   -3.8148   23.4343 C   0  0  0  0  0  0
  -21.9192   -4.6966   22.3401 C   0  0  0  0  0  0
  -22.7855  -13.5240   21.1843 C   0  0  0  0  0  0
  -22.1663   -4.2153   21.0977 F   0  0  0  0  0  0
  -21.5626   -3.4536   25.7734 F   0  0  0  0  0  0
  -30.0264  -13.3283   20.4380 N   0  0  0  0  0  0
  -26.3006  -12.9345   20.3348 N   0  0  0  0  0  0
  -25.9320  -11.6502   20.5760 N   0  0  0  0  0  0
  -22.0491  -12.8239   22.0402 N   0  0  0  0  0  0
  -25.4290  -15.1890   20.4097 N   0  0  0  0  0  0
  -31.8320  -14.6710   20.1105 O   0  0  0  0  0  0
  -21.6637   -6.8882   21.4244 O   0  0  0  0  0  0
  -22.3544  -14.5545   20.6688 O   0  0  0  0  0  0
  -24.6170  -31.8665   23.2087 C   0  0  0  0  0  0
  -25.9052  -32.4816   23.8389 C   0  0  1  0  0  0
  -27.2273  -27.4107   20.1075 C   0  0  0  0  0  0
  -25.5901  -33.8614   24.2321 N   0  0  0  0  0  0
  -23.4068  -30.4903   21.5491 C   0  0  2  0  0  0
  -24.8545  -28.9565   20.1109 C   0  0  0  0  0  0
  -22.7425  -29.4654   22.4971 C   0  0  0  0  0  0
  -18.0278  -28.1381   22.8496 C   0  0  0  0  0  0
  -24.1486  -36.7315   23.2639 C   0  0  0  0  0  0
  -25.9383  -30.8264   21.3654 C   0  0  0  0  0  0
  -26.0168  -29.4600   20.7106 C   0  0  0  0  0  0
  -27.2106  -28.6959   20.7034 C   0  0  0  0  0  0
  -26.0532  -26.9340   19.4885 C   0  0  0  0  0  0
  -24.8690  -27.6943   19.4933 C   0  0  0  0  0  0
  -23.6167  -29.8248   20.1631 C   0  0  0  0  0  0
  -25.4108  -36.3108   24.0337 C   0  0  1  0  0  0
  -20.5872  -28.3672   23.1311 C   0  0  2  0  0  0
  -20.6770  -26.9406   22.5418 C   0  0  0  0  0  0
  -19.5747  -26.6387   21.5216 C   0  0  0  0  0  0
  -18.1926  -26.7927   22.1626 C   0  0  0  0  0  0
  -19.1528  -28.8842   23.2902 C   0  0  0  0  0  0
  -18.9454  -30.1447   23.8914 C   0  0  0  0  0  0
  -17.6457  -30.6586   24.0567 C   0  0  0  0  0  0
  -25.9036  -34.9473   23.5127 C   0  0  0  0  0  0
  -16.5348  -29.9089   23.6327 C   0  0  0  0  0  0
  -16.7267  -28.6505   23.0350 C   0  0  0  0  0  0
  -26.4473  -31.6599   25.0722 C   0  0  0  0  0  0
  -25.3735  -31.3711   26.1469 C   0  0  0  0  0  0
  -27.0307  -30.3039   24.6109 C   0  0  0  0  0  0
  -27.6048  -32.4318   25.7485 C   0  0  0  0  0  0
  -27.5581  -37.1813   24.8465 C   0  0  0  0  0  0
  -21.4149  -29.3035   22.3710 N   0  0  0  0  0  0
  -26.4295  -37.3792   23.9407 N   0  0  0  0  0  0
  -24.6724  -31.0752   22.0995 N   0  0  0  0  0  0
  -23.4186  -28.8196   23.3021 O   0  0  0  0  0  0
  -28.3481  -26.6027   20.1356 O   0  0  0  0  0  0
  -26.5599  -34.8926   22.4688 O   0  0  0  0  0  0
  -23.5356  -32.1422   23.7469 O   0  0  0  0  0  0
  -29.1768  -20.5633   20.2241 C   0  0  0  0  0  0
  -29.6598  -21.8421   19.8291 C   0  0  0  0  0  0
  -30.9752  -21.8976   19.2972 C   0  0  0  0  0  0
  -29.9887  -19.4084   20.0760 C   0  0  0  0  0  0
  -31.7327  -20.7034   19.2345 C   0  0  0  0  0  0
  -31.5694  -23.1977   18.7612 C   0  0  0  0  0  0
  -33.1602  -20.6760   18.7187 C   0  0  0  0  0  0
  -29.0329  -17.4049   18.8716 C   0  0  0  0  0  0
  -28.7388  -23.0851   19.8819 C   0  0  0  0  0  0
  -29.2132  -24.2806   20.7652 C   0  0  0  0  0  0
  -30.3908  -16.9868   21.0235 C   0  0  0  0  0  0
  -28.1772  -25.4266   20.9622 C   0  0  0  0  0  0
  -29.4414  -17.9672   20.2457 C   0  0  1  0  0  0
  -31.2435  -19.5005   19.5915 N   0  0  0  0  0  0
  -29.9739  -15.5573   21.0217 N   0  0  0  0  0  0
  -31.4667  -12.4247   19.1331 H   0  0  0  0  0  0
  -30.3244  -11.3224   19.8459 H   0  0  0  0  0  0
  -29.7451  -11.7776   17.4402 H   0  0  0  0  0  0
  -29.6589  -13.4904   17.7676 H   0  0  0  0  0  0
  -27.8373  -11.3049   18.8302 H   0  0  0  0  0  0
  -27.3672  -12.6214   17.7883 H   0  0  0  0  0  0
  -27.6908  -14.2535   19.5557 H   0  0  0  0  0  0
  -28.6832  -11.9968   21.3646 H   0  0  0  0  0  0
  -28.4598  -13.6491   21.8568 H   0  0  0  0  0  0
  -25.2760   -9.5685   22.4755 H   0  0  0  0  0  0
  -24.0002   -7.4633   22.7471 H   0  0  0  0  0  0
  -21.0837   -8.8775   19.8953 H   0  0  0  0  0  0
  -22.3695  -10.9673   19.6163 H   0  0  0  0  0  0
  -21.2008   -7.6149   23.9723 H   0  0  0  0  0  0
  -21.1480   -6.0517   25.9079 H   0  0  0  0  0  0
  -22.0601   -2.7610   23.2839 H   0  0  0  0  0  0
  -22.4096  -11.9899   22.4796 H   0  0  0  0  0  0
  -21.1113  -13.1277   22.2608 H   0  0  0  0  0  0
  -24.6599  -15.8419   20.5151 H   0  0  0  0  0  0
  -26.2786  -15.6289   20.0805 H   0  0  0  0  0  0
  -26.7124  -32.5524   23.1154 H   0  0  0  0  0  0
  -25.0054  -33.9772   25.0468 H   0  0  0  0  0  0
  -22.6966  -31.3082   21.4102 H   0  0  0  0  0  0
  -23.3742  -35.9655   23.3314 H   0  0  0  0  0  0
  -24.3579  -36.8916   22.2051 H   0  0  0  0  0  0
  -23.7247  -37.6528   23.6644 H   0  0  0  0  0  0
  -26.0535  -31.5925   20.5974 H   0  0  0  0  0  0
  -26.8249  -30.8789   21.9858 H   0  0  0  0  0  0
  -28.1054  -29.0747   21.1772 H   0  0  0  0  0  0
  -26.0503  -25.9629   19.0137 H   0  0  0  0  0  0
  -23.9775  -27.3023   19.0232 H   0  0  0  0  0  0
  -23.7254  -30.6012   19.4047 H   0  0  0  0  0  0
  -22.7404  -29.2458   19.8662 H   0  0  0  0  0  0
  -25.1285  -36.1975   25.0831 H   0  0  0  0  0  0
  -20.9969  -28.3241   24.1430 H   0  0  0  0  0  0
  -20.5683  -26.2277   23.3605 H   0  0  0  0  0  0
  -21.6640  -26.7454   22.1204 H   0  0  0  0  0  0
  -19.6908  -25.6302   21.1237 H   0  0  0  0  0  0
  -19.6687  -27.3207   20.6753 H   0  0  0  0  0  0
  -17.4198  -26.6682   21.4025 H   0  0  0  0  0  0
  -18.0324  -26.0065   22.9018 H   0  0  0  0  0  0
  -19.7931  -30.7259   24.2290 H   0  0  0  0  0  0
  -17.5013  -31.6269   24.5165 H   0  0  0  0  0  0
  -15.5350  -30.2996   23.7642 H   0  0  0  0  0  0
  -15.8667  -28.0830   22.7055 H   0  0  0  0  0  0
  -24.5900  -30.7069   25.7805 H   0  0  0  0  0  0
  -24.8937  -32.2870   26.4928 H   0  0  0  0  0  0
  -25.8082  -30.8868   27.0222 H   0  0  0  0  0  0
  -26.2857  -29.6800   24.1155 H   0  0  0  0  0  0
  -27.4066  -29.7275   25.4573 H   0  0  0  0  0  0
  -27.8696  -30.4356   23.9271 H   0  0  0  0  0  0
  -27.2667  -33.3606   26.2094 H   0  0  0  0  0  0
  -28.3841  -32.6899   25.0302 H   0  0  0  0  0  0
  -28.0736  -31.8424   26.5375 H   0  0  0  0  0  0
  -28.2609  -38.0100   24.7501 H   0  0  0  0  0  0
  -28.1065  -36.2631   24.6304 H   0  0  0  0  0  0
  -27.2298  -37.1483   25.8869 H   0  0  0  0  0  0
  -20.9309  -29.8752   21.6929 H   0  0  0  0  0  0
  -26.0185  -38.2873   24.1397 H   0  0  0  0  0  0
  -28.1599  -20.4550   20.5769 H   0  0  0  0  0  0
  -32.1244  -23.7152   19.5441 H   0  0  0  0  0  0
  -30.8063  -23.8709   18.3734 H   0  0  0  0  0  0
  -32.2511  -23.0181   17.9305 H   0  0  0  0  0  0
  -33.7475  -21.4855   19.1521 H   0  0  0  0  0  0
  -33.1739  -20.7777   17.6336 H   0  0  0  0  0  0
  -33.6584  -19.7396   18.9723 H   0  0  0  0  0  0
  -28.3378  -18.0789   18.3705 H   0  0  0  0  0  0
  -28.5398  -16.4379   18.9538 H   0  0  0  0  0  0
  -29.9016  -17.2847   18.2240 H   0  0  0  0  0  0
  -27.7612  -22.7607   20.2398 H   0  0  0  0  0  0
  -28.5664  -23.4321   18.8628 H   0  0  0  0  0  0
  -30.1514  -24.7062   20.4179 H   0  0  0  0  0  0
  -29.4330  -23.8689   21.7509 H   0  0  0  0  0  0
  -30.4796  -17.3208   22.0576 H   0  0  0  0  0  0
  -31.3953  -17.0688   20.6065 H   0  0  0  0  0  0
  -28.2585  -25.7750   21.9930 H   0  0  0  0  0  0
  -27.1722  -25.0090   20.8857 H   0  0  0  0  0  0
  -28.5278  -18.0532   20.8358 H   0  0  0  0  0  0
  -29.0407  -15.3507   21.3445 H   0  0  0  0  0  0
  1 25  1  0  0  0
  1 30  2  0  0  0
  1 85  1  0  0  0
  2  3  1  0  0  0
  2 25  1  0  0  0
  2 86  1  0  0  0
  2 87  1  0  0  0
  3  4  1  0  0  0
  3 88  1  0  0  0
  3 89  1  0  0  0
  4  5  1  0  0  0
  4 90  1  0  0  0
  4 91  1  0  0  0
  5  6  1  0  0  0
  5 26  1  0  0  0
  5 92  1  0  0  0
  6 25  1  0  0  0
  6 93  1  0  0  0
  6 94  1  0  0  0
  7  8  2  0  0  0
  7 26  1  0  0  0
  7 29  1  0  0  0
  8  9  1  0  0  0
  8 22  1  0  0  0
  9 10  1  0  0  0
  9 27  2  0  0  0
 10 11  2  0  0  0
 10 15  1  0  0  0
 11 12  1  0  0  0
 11 95  1  0  0  0
 12 13  2  0  0  0
 12 96  1  0  0  0
 13 14  1  0  0  0
 13 31  1  0  0  0
 14 15  2  0  0  0
 14 97  1  0  0  0
 15 98  1  0  0  0
 16 17  2  0  0  0
 16 21  1  0  0  0
 16 31  1  0  0  0
 17 18  1  0  0  0
 17 99  1  0  0  0
 18 19  2  0  0  0
 18100  1  0  0  0
 19 20  1  0  0  0
 19 24  1  0  0  0
 20 21  2  0  0  0
 20101  1  0  0  0
 21 23  1  0  0  0
 22 28  1  0  0  0
 22 32  2  0  0  0
 26 27  1  0  0  0
 28102  1  0  0  0
 28103  1  0  0  0
 29104  1  0  0  0
 29105  1  0  0  0
 33 34  1  0  0  0
 33 66  1  0  0  0
 33 70  2  0  0  0
 34 36  1  0  0  0
 34 59  1  0  0  0
 34106  1  0  0  0
 35 44  2  0  0  0
 35 45  1  0  0  0
 35 68  1  0  0  0
 36 56  1  0  0  0
 36107  1  0  0  0
 37 39  1  0  0  0
 37 47  1  0  0  0
 37 66  1  0  0  0
 37108  1  0  0  0
 38 43  2  0  0  0
 38 46  1  0  0  0
 38 47  1  0  0  0
 39 64  1  0  0  0
 39 67  2  0  0  0
 40 52  1  0  0  0
 40 53  2  0  0  0
 40 58  1  0  0  0
 41109  1  0  0  0
 41110  1  0  0  0
 41111  1  0  0  0
 41 48  1  0  0  0
 42 43  1  0  0  0
 42 66  1  0  0  0
 42112  1  0  0  0
 42113  1  0  0  0
 43 44  1  0  0  0
 44114  1  0  0  0
 45 46  2  0  0  0
 45115  1  0  0  0
 46116  1  0  0  0
 47117  1  0  0  0
 47118  1  0  0  0
 48 56  1  0  0  0
 48 65  1  0  0  0
 48119  1  0  0  0
 49 50  1  0  0  0
 49 53  1  0  0  0
 49 64  1  0  0  0
 49120  1  0  0  0
 50 51  1  0  0  0
 50121  1  0  0  0
 50122  1  0  0  0
 51 52  1  0  0  0
 51123  1  0  0  0
 51124  1  0  0  0
 52125  1  0  0  0
 52126  1  0  0  0
 53 54  1  0  0  0
 54 55  2  0  0  0
 54127  1  0  0  0
 55 57  1  0  0  0
 55128  1  0  0  0
 56 69  2  0  0  0
 57 58  2  0  0  0
 57129  1  0  0  0
 58130  1  0  0  0
 59 60  1  0  0  0
 59 61  1  0  0  0
 59 62  1  0  0  0
 60131  1  0  0  0
 60132  1  0  0  0
 60133  1  0  0  0
 61134  1  0  0  0
 61135  1  0  0  0
 61136  1  0  0  0
 62137  1  0  0  0
 62138  1  0  0  0
 62139  1  0  0  0
 63 65  1  0  0  0
 63140  1  0  0  0
 63141  1  0  0  0
 63142  1  0  0  0
 64143  1  0  0  0
 65144  1  0  0  0
 68 82  1  0  0  0
 71 72  2  0  0  0
 71 74  1  0  0  0
 71145  1  0  0  0
 72 73  1  0  0  0
 72 79  1  0  0  0
 73 75  2  0  0  0
 73 76  1  0  0  0
 74 83  1  0  0  0
 74 84  2  0  0  0
 75 77  1  0  0  0
 75 84  1  0  0  0
 76146  1  0  0  0
 76147  1  0  0  0
 76148  1  0  0  0
 77149  1  0  0  0
 77150  1  0  0  0
 77151  1  0  0  0
 78152  1  0  0  0
 78153  1  0  0  0
 78154  1  0  0  0
 78 83  1  0  0  0
 79 80  1  0  0  0
 79155  1  0  0  0
 79156  1  0  0  0
 80 82  1  0  0  0
 80157  1  0  0  0
 80158  1  0  0  0
 81 83  1  0  0  0
 81 85  1  0  0  0
 81159  1  0  0  0
 81160  1  0  0  0
 82161  1  0  0  0
 82162  1  0  0  0
 83163  1  0  0  0
 85164  1  0  0  0
M  ISO  4   1 100  68 101  82 101  85 100
M  END
> <chiral flag>
0

> <version>
0

> <s_m_source_file>
/data/baiqing/PycharmProjects/Reinvent-master-3.2/result/LINK_invent/BTK/process_docking_weight1_custom_sum_contain_oxygen_bond_distance_aromatic_linkinvent_7_9_3/rearranged_h_0088.sdf

> <i_m_source_file_index>
19

> <r_mmod_Potential_Energy-OPLS-2005>
-241.462753295898

> <r_mmod_Stretch_Energy-OPLS-2005>
47.0963859558105

> <r_mmod_Bend_Energy-OPLS-2005>
101.741973876953

> <r_mmod_Torsional_Energy-OPLS-2005>
223.338195800781

> <r_mmod_Improper_Torsional_Energy-OPLS-2005>
4.78470325469971

> <r_mmod_Van_der_Waal_Energy-OPLS-2005>
154.507675170898

> <r_mmod_Electrostatic_Energy-OPLS-2005>
-568.8857421875

> <r_mmod_Solvation_Energy-OPLS-2005>
-223.463775634766

> <b_mmod_Minimization_Converged-OPLS-2005>
0

> <r_mmod_RMS_Derivative-OPLS-2005>
0.498629152774811

$$$$
19
                    3D
 Structure written by MMmdl.
162170  0  0  1  0            999 V2000
  -30.6662  -14.7513   20.4862 C   0  0  0  0  0  0
  -30.4305  -12.4761   19.4587 C   0  0  0  0  0  0
  -29.5041  -12.5166   18.2259 C   0  0  0  0  0  0
  -28.0340  -12.3357   18.6489 C   0  0  0  0  0  0
  -27.6373  -13.2410   19.8461 C   0  0  2  0  0  0
  -28.6936  -13.1997   20.9737 C   0  0  0  0  0  0
  -25.2339  -13.8064   20.5526 C   0  0  0  0  0  0
  -24.1739  -13.0325   20.9254 C   0  0  0  0  0  0
  -24.6405  -11.6849   20.8801 C   0  0  0  0  0  0
  -23.9086  -10.4238   21.0418 C   0  0  0  0  0  0
  -24.3617   -9.4160   21.9202 C   0  0  0  0  0  0
  -23.6284   -8.2202   22.0751 C   0  0  0  0  0  0
  -22.4273   -8.0252   21.3540 C   0  0  0  0  0  0
  -21.9919   -9.0228   20.4649 C   0  0  0  0  0  0
  -22.7250  -10.2106   20.3066 C   0  0  0  0  0  0
  -21.6839   -6.0716   22.5283 C   0  0  0  0  0  0
  -21.4003   -6.5618   23.8219 C   0  0  0  0  0  0
  -21.3662   -5.6782   24.9181 C   0  0  0  0  0  0
  -21.6051   -4.3044   24.7236 C   0  0  0  0  0  0
  -21.8821   -3.8132   23.4356 C   0  0  0  0  0  0
  -21.9194   -4.6945   22.3412 C   0  0  0  0  0  0
  -22.7765  -13.5125   21.1898 C   0  0  0  0  0  0
  -22.1657   -4.2134   21.0990 F   0  0  0  0  0  0
  -21.5648   -3.4521   25.7748 F   0  0  0  0  0  0
  -29.9906  -13.5527   20.3772 N   0  0  0  0  0  0
  -26.2907  -12.9390   20.3283 N   0  0  0  0  0  0
  -25.9356  -11.6520   20.5817 N   0  0  0  0  0  0
  -22.0412  -12.8146   22.0477 N   0  0  0  0  0  0
  -25.3626  -15.1702   20.3505 N   0  0  0  0  0  0
  -31.8673  -14.8045   20.2124 O   0  0  0  0  0  0
  -21.6632   -6.8850   21.4239 O   0  0  0  0  0  0
  -22.3470  -14.5430   20.6732 O   0  0  0  0  0  0
  -24.6311  -31.8551   23.1920 C   0  0  0  0  0  0
  -25.9140  -32.4761   23.8288 C   0  0  1  0  0  0
  -27.2418  -27.2607   20.1461 C   0  0  0  0  0  0
  -25.5940  -33.8560   24.2230 N   0  0  0  0  0  0
  -23.4298  -30.4718   21.5355 C   0  0  2  0  0  0
  -24.8827  -28.9020   20.1220 C   0  0  0  0  0  0
  -22.7503  -29.4597   22.4900 C   0  0  0  0  0  0
  -18.0297  -28.1396   22.8470 C   0  0  0  0  0  0
  -24.1488  -36.7284   23.2636 C   0  0  0  0  0  0
  -25.9738  -30.7684   21.3681 C   0  0  0  0  0  0
  -26.0519  -29.3844   20.7239 C   0  0  0  0  0  0
  -27.2347  -28.5784   20.7183 C   0  0  0  0  0  0
  -26.0486  -26.8321   19.5304 C   0  0  0  0  0  0
  -24.8840  -27.6334   19.5162 C   0  0  0  0  0  0
  -23.6526  -29.7923   20.1576 C   0  0  0  0  0  0
  -25.4115  -36.3073   24.0322 C   0  0  1  0  0  0
  -20.5903  -28.3715   23.1260 C   0  0  2  0  0  0
  -20.6789  -26.9433   22.5399 C   0  0  0  0  0  0
  -19.5767  -26.6385   21.5207 C   0  0  0  0  0  0
  -18.1946  -26.7934   22.1621 C   0  0  0  0  0  0
  -19.1550  -28.8869   23.2863 C   0  0  0  0  0  0
  -18.9473  -30.1464   23.8890 C   0  0  0  0  0  0
  -17.6475  -30.6591   24.0568 C   0  0  0  0  0  0
  -25.9052  -34.9444   23.5076 C   0  0  0  0  0  0
  -16.5363  -29.9091   23.6334 C   0  0  0  0  0  0
  -16.7288  -28.6514   23.0347 C   0  0  0  0  0  0
  -26.4501  -31.6595   25.0688 C   0  0  0  0  0  0
  -25.3716  -31.3760   26.1406 C   0  0  0  0  0  0
  -27.0336  -30.3012   24.6160 C   0  0  0  0  0  0
  -27.6051  -32.4326   25.7483 C   0  0  0  0  0  0
  -27.5569  -37.1800   24.8459 C   0  0  0  0  0  0
  -21.4211  -29.3055   22.3646 N   0  0  0  0  0  0
  -26.4280  -37.3778   23.9410 N   0  0  0  0  0  0
  -24.6973  -31.0513   22.0892 N   0  0  0  0  0  0
  -23.4200  -28.8146   23.3007 O   0  0  0  0  0  0
  -28.3779  -26.4223   20.1103 O   0  0  0  0  0  0
  -26.5627  -34.8932   22.4645 O   0  0  0  0  0  0
  -23.5461  -32.1358   23.7220 O   0  0  0  0  0  0
  -26.4648  -18.8224   19.4231 C   0  0  0  0  0  0
  -27.3853  -20.9946   18.9207 C   0  0  0  0  0  0
  -26.4371  -19.9951   18.6653 C   0  0  0  0  0  0
  -27.5311  -18.5751   20.3026 C   0  0  0  0  0  0
  -28.4113  -20.8404   19.8844 C   0  0  0  0  0  0
  -28.6449  -19.4579   20.3747 C   0  0  0  0  0  0
  -25.3287  -20.2288   17.6615 C   0  0  0  0  0  0
  -27.3756  -17.3768   21.2098 C   0  0  0  0  0  0
  -29.0391  -22.2273   20.3922 C   0  0  0  0  0  0
  -30.0444  -18.8340   20.8004 C   0  0  0  0  0  0
  -28.5177  -23.6831   19.8019 C   0  0  0  0  0  0
  -30.4516  -17.2840   21.2394 C   0  0  0  0  0  0
  -28.3773  -25.0329   20.6923 C   0  0  0  0  0  0
  -29.9593  -15.9228   20.7222 N   0  0  0  0  0  0
  -31.4681  -12.6016   19.1450 H   0  0  0  0  0  0
  -30.3769  -11.5053   19.9520 H   0  0  0  0  0  0
  -29.7882  -11.7402   17.5141 H   0  0  0  0  0  0
  -29.6248  -13.4680   17.7061 H   0  0  0  0  0  0
  -27.8998  -11.2873   18.9181 H   0  0  0  0  0  0
  -27.3716  -12.5201   17.8019 H   0  0  0  0  0  0
  -27.6195  -14.2604   19.4596 H   0  0  0  0  0  0
  -28.7379  -12.2107   21.4294 H   0  0  0  0  0  0
  -28.4299  -13.8949   21.7719 H   0  0  0  0  0  0
  -25.2741   -9.5643   22.4809 H   0  0  0  0  0  0
  -23.9990   -7.4585   22.7457 H   0  0  0  0  0  0
  -21.0858   -8.8746   19.8935 H   0  0  0  0  0  0
  -22.3700  -10.9655   19.6189 H   0  0  0  0  0  0
  -21.1966   -7.6124   23.9703 H   0  0  0  0  0  0
  -21.1495   -6.0515   25.9086 H   0  0  0  0  0  0
  -22.0596   -2.7594   23.2864 H   0  0  0  0  0  0
  -22.4017  -11.9819   22.4907 H   0  0  0  0  0  0
  -21.1021  -13.1179   22.2639 H   0  0  0  0  0  0
  -24.5533  -15.7770   20.4071 H   0  0  0  0  0  0
  -26.1528  -15.5997   19.8908 H   0  0  0  0  0  0
  -26.7222  -32.5429   23.1042 H   0  0  0  0  0  0
  -25.0114  -33.9695   25.0393 H   0  0  0  0  0  0
  -22.7270  -31.2945   21.3806 H   0  0  0  0  0  0
  -23.3749  -35.9615   23.3289 H   0  0  0  0  0  0
  -24.3552  -36.8909   22.2047 H   0  0  0  0  0  0
  -23.7249  -37.6488   23.6661 H   0  0  0  0  0  0
  -26.0969  -31.5187   20.5857 H   0  0  0  0  0  0
  -26.8570  -30.8342   21.9913 H   0  0  0  0  0  0
  -28.1385  -28.9531   21.1809 H   0  0  0  0  0  0
  -26.0140  -25.8601   19.0582 H   0  0  0  0  0  0
  -23.9884  -27.2570   19.0409 H   0  0  0  0  0  0
  -23.7864  -30.5637   19.3988 H   0  0  0  0  0  0
  -22.7698  -29.2277   19.8507 H   0  0  0  0  0  0
  -25.1295  -36.1899   25.0814 H   0  0  0  0  0  0
  -21.0003  -28.3296   24.1380 H   0  0  0  0  0  0
  -20.5702  -26.2325   23.3608 H   0  0  0  0  0  0
  -21.6657  -26.7461   22.1193 H   0  0  0  0  0  0
  -19.6937  -25.6292   21.1243 H   0  0  0  0  0  0
  -19.6700  -27.3197   20.6745 H   0  0  0  0  0  0
  -17.4217  -26.6681   21.4024 H   0  0  0  0  0  0
  -18.0354  -26.0073   22.9021 H   0  0  0  0  0  0
  -19.7948  -30.7279   24.2249 H   0  0  0  0  0  0
  -17.5034  -31.6275   24.5171 H   0  0  0  0  0  0
  -15.5368  -30.3007   23.7644 H   0  0  0  0  0  0
  -15.8690  -28.0841   22.7059 H   0  0  0  0  0  0
  -24.5888  -30.7120   25.7733 H   0  0  0  0  0  0
  -24.8912  -32.2939   26.4813 H   0  0  0  0  0  0
  -25.8010  -30.8947   27.0202 H   0  0  0  0  0  0
  -26.2920  -29.6784   24.1157 H   0  0  0  0  0  0
  -27.3996  -29.7252   25.4669 H   0  0  0  0  0  0
  -27.8794  -30.4282   23.9399 H   0  0  0  0  0  0
  -27.2664  -33.3627   26.2064 H   0  0  0  0  0  0
  -28.3882  -32.6897   25.0337 H   0  0  0  0  0  0
  -28.0714  -31.8456   26.5407 H   0  0  0  0  0  0
  -28.2594  -38.0100   24.7505 H   0  0  0  0  0  0
  -28.1061  -36.2619   24.6275 H   0  0  0  0  0  0
  -27.2275  -37.1440   25.8865 H   0  0  0  0  0  0
  -20.9397  -29.8767   21.6836 H   0  0  0  0  0  0
  -26.0143  -38.2840   24.1430 H   0  0  0  0  0  0
  -25.6632  -18.1022   19.3259 H   0  0  0  0  0  0
  -27.2670  -21.9118   18.3693 H   0  0  0  0  0  0
  -24.3971  -19.7756   18.0016 H   0  0  0  0  0  0
  -25.5871  -19.7906   16.6975 H   0  0  0  0  0  0
  -25.1493  -21.2951   17.5202 H   0  0  0  0  0  0
  -27.5702  -16.4597   20.6628 H   0  0  0  0  0  0
  -26.3521  -17.3231   21.5811 H   0  0  0  0  0  0
  -28.0020  -17.4370   22.0965 H   0  0  0  0  0  0
  -30.1205  -22.1653   20.2701 H   0  0  0  0  0  0
  -28.8802  -22.2440   21.4715 H   0  0  0  0  0  0
  -30.3999  -19.4754   21.6097 H   0  0  0  0  0  0
  -30.7008  -19.0859   19.9689 H   0  0  0  0  0  0
  -27.5067  -23.5880   19.4228 H   0  0  0  0  0  0
  -29.1322  -23.9089   18.9296 H   0  0  0  0  0  0
  -30.2462  -17.2243   22.3087 H   0  0  0  0  0  0
  -31.5424  -17.2477   21.2033 H   0  0  0  0  0  0
  -29.2138  -25.0296   21.3915 H   0  0  0  0  0  0
  -27.4949  -24.9259   21.3254 H   0  0  0  0  0  0
  -28.9616  -15.7918   20.7682 H   0  0  0  0  0  0
  1 25  1  0  0  0
  1 30  2  0  0  0
  1 84  1  0  0  0
  2  3  1  0  0  0
  2 25  1  0  0  0
  2 85  1  0  0  0
  2 86  1  0  0  0
  3  4  1  0  0  0
  3 87  1  0  0  0
  3 88  1  0  0  0
  4  5  1  0  0  0
  4 89  1  0  0  0
  4 90  1  0  0  0
  5  6  1  0  0  0
  5 26  1  0  0  0
  5 91  1  0  0  0
  6 25  1  0  0  0
  6 92  1  0  0  0
  6 93  1  0  0  0
  7  8  2  0  0  0
  7 26  1  0  0  0
  7 29  1  0  0  0
  8  9  1  0  0  0
  8 22  1  0  0  0
  9 10  1  0  0  0
  9 27  2  0  0  0
 10 11  2  0  0  0
 10 15  1  0  0  0
 11 12  1  0  0  0
 11 94  1  0  0  0
 12 13  2  0  0  0
 12 95  1  0  0  0
 13 14  1  0  0  0
 13 31  1  0  0  0
 14 15  2  0  0  0
 14 96  1  0  0  0
 15 97  1  0  0  0
 16 17  2  0  0  0
 16 21  1  0  0  0
 16 31  1  0  0  0
 17 18  1  0  0  0
 17 98  1  0  0  0
 18 19  2  0  0  0
 18 99  1  0  0  0
 19 20  1  0  0  0
 19 24  1  0  0  0
 20 21  2  0  0  0
 20100  1  0  0  0
 21 23  1  0  0  0
 22 28  1  0  0  0
 22 32  2  0  0  0
 26 27  1  0  0  0
 28101  1  0  0  0
 28102  1  0  0  0
 29103  1  0  0  0
 29104  1  0  0  0
 33 34  1  0  0  0
 33 66  1  0  0  0
 33 70  2  0  0  0
 34 36  1  0  0  0
 34 59  1  0  0  0
 34105  1  0  0  0
 35 44  2  0  0  0
 35 45  1  0  0  0
 35 68  1  0  0  0
 36 56  1  0  0  0
 36106  1  0  0  0
 37 39  1  0  0  0
 37 47  1  0  0  0
 37 66  1  0  0  0
 37107  1  0  0  0
 38 43  2  0  0  0
 38 46  1  0  0  0
 38 47  1  0  0  0
 39 64  1  0  0  0
 39 67  2  0  0  0
 40 52  1  0  0  0
 40 53  2  0  0  0
 40 58  1  0  0  0
 41108  1  0  0  0
 41109  1  0  0  0
 41110  1  0  0  0
 41 48  1  0  0  0
 42 43  1  0  0  0
 42 66  1  0  0  0
 42111  1  0  0  0
 42112  1  0  0  0
 43 44  1  0  0  0
 44113  1  0  0  0
 45 46  2  0  0  0
 45114  1  0  0  0
 46115  1  0  0  0
 47116  1  0  0  0
 47117  1  0  0  0
 48 56  1  0  0  0
 48 65  1  0  0  0
 48118  1  0  0  0
 49 50  1  0  0  0
 49 53  1  0  0  0
 49 64  1  0  0  0
 49119  1  0  0  0
 50 51  1  0  0  0
 50120  1  0  0  0
 50121  1  0  0  0
 51 52  1  0  0  0
 51122  1  0  0  0
 51123  1  0  0  0
 52124  1  0  0  0
 52125  1  0  0  0
 53 54  1  0  0  0
 54 55  2  0  0  0
 54126  1  0  0  0
 55 57  1  0  0  0
 55127  1  0  0  0
 56 69  2  0  0  0
 57 58  2  0  0  0
 57128  1  0  0  0
 58129  1  0  0  0
 59 60  1  0  0  0
 59 61  1  0  0  0
 59 62  1  0  0  0
 60130  1  0  0  0
 60131  1  0  0  0
 60132  1  0  0  0
 61133  1  0  0  0
 61134  1  0  0  0
 61135  1  0  0  0
 62136  1  0  0  0
 62137  1  0  0  0
 62138  1  0  0  0
 63 65  1  0  0  0
 63139  1  0  0  0
 63140  1  0  0  0
 63141  1  0  0  0
 64142  1  0  0  0
 65143  1  0  0  0
 68 83  1  0  0  0
 71 73  2  0  0  0
 71 74  1  0  0  0
 71144  1  0  0  0
 72 73  1  0  0  0
 72 75  2  0  0  0
 72145  1  0  0  0
 73 77  1  0  0  0
 74 76  2  0  0  0
 74 78  1  0  0  0
 75 76  1  0  0  0
 75 79  1  0  0  0
 76 80  1  0  0  0
 77146  1  0  0  0
 77147  1  0  0  0
 77148  1  0  0  0
 78149  1  0  0  0
 78150  1  0  0  0
 78151  1  0  0  0
 79 81  1  0  0  0
 79152  1  0  0  0
 79153  1  0  0  0
 80 82  1  0  0  0
 80154  1  0  0  0
 80155  1  0  0  0
 81 83  1  0  0  0
 81156  1  0  0  0
 81157  1  0  0  0
 82 84  1  0  0  0
 82158  1  0  0  0
 82159  1  0  0  0
 83160  1  0  0  0
 83161  1  0  0  0
 84162  1  0  0  0
M  ISO  4   1 100  68 101  83 101  84 100
M  END
> <chiral flag>
0

> <version>
0

> <s_m_source_file>
/data/baiqing/PycharmProjects/Reinvent-master-3.2/result/LINK_invent/BTK/process_docking_weight1_custom_sum_contain_oxygen_bond_distance_aromatic_linkinvent_7_9_3/rearranged_h_0088.sdf

> <i_m_source_file_index>
20

> <r_mmod_Potential_Energy-OPLS-2005>
358.776916503906

> <r_mmod_Stretch_Energy-OPLS-2005>
156.721237182617

> <r_mmod_Bend_Energy-OPLS-2005>
252.809295654297

> <r_mmod_Torsional_Energy-OPLS-2005>
315.400238037109

> <r_mmod_Improper_Torsional_Energy-OPLS-2005>
6.7497124671936

> <r_mmod_Van_der_Waal_Energy-OPLS-2005>
146.353622436523

> <r_mmod_Electrostatic_Energy-OPLS-2005>
-402.163848876953

> <r_mmod_Solvation_Energy-OPLS-2005>
-202.207336425781

> <b_mmod_Minimization_Converged-OPLS-2005>
0

> <r_mmod_RMS_Derivative-OPLS-2005>
2.72744035720825

$$$$
20
                    3D
 Structure written by MMmdl.
174182  0  0  1  0            999 V2000
  -30.7793  -14.3725   20.6585 C   0  0  0  0  0  0
  -30.4123  -12.2886   19.3962 C   0  0  0  0  0  0
  -29.4797  -12.5135   18.1921 C   0  0  0  0  0  0
  -28.0050  -12.3773   18.6114 C   0  0  0  0  0  0
  -27.6637  -13.2071   19.8776 C   0  0  2  0  0  0
  -28.7054  -12.9637   20.9927 C   0  0  0  0  0  0
  -25.2589  -13.8169   20.5683 C   0  0  0  0  0  0
  -24.1836  -13.0439   20.9181 C   0  0  0  0  0  0
  -24.6388  -11.6904   20.8726 C   0  0  0  0  0  0
  -23.9048  -10.4287   21.0392 C   0  0  0  0  0  0
  -24.3597   -9.4209   21.9181 C   0  0  0  0  0  0
  -23.6278   -8.2243   22.0750 C   0  0  0  0  0  0
  -22.4267   -8.0276   21.3539 C   0  0  0  0  0  0
  -21.9895   -9.0242   20.4639 C   0  0  0  0  0  0
  -22.7220  -10.2123   20.3046 C   0  0  0  0  0  0
  -21.6855   -6.0724   22.5271 C   0  0  0  0  0  0
  -21.4013   -6.5630   23.8202 C   0  0  0  0  0  0
  -21.3662   -5.6788   24.9167 C   0  0  0  0  0  0
  -21.6041   -4.3048   24.7219 C   0  0  0  0  0  0
  -21.8827   -3.8140   23.4343 C   0  0  0  0  0  0
  -21.9195   -4.6953   22.3399 C   0  0  0  0  0  0
  -22.7858  -13.5239   21.1842 C   0  0  0  0  0  0
  -22.1662   -4.2133   21.0975 F   0  0  0  0  0  0
  -21.5634   -3.4543   25.7737 F   0  0  0  0  0  0
  -30.0461  -13.2501   20.4471 N   0  0  0  0  0  0
  -26.3033  -12.9343   20.3389 N   0  0  0  0  0  0
  -25.9319  -11.6501   20.5770 N   0  0  0  0  0  0
  -22.0487  -12.8218   22.0377 N   0  0  0  0  0  0
  -25.4328  -15.1880   20.4114 N   0  0  0  0  0  0
  -31.8343  -14.6094   20.0644 O   0  0  0  0  0  0
  -21.6644   -6.8867   21.4232 O   0  0  0  0  0  0
  -22.3539  -14.5550   20.6700 O   0  0  0  0  0  0
  -24.6115  -31.8692   23.2189 C   0  0  0  0  0  0
  -25.9024  -32.4822   23.8435 C   0  0  1  0  0  0
  -27.1937  -27.4386   20.0674 C   0  0  0  0  0  0
  -25.5891  -33.8625   24.2357 N   0  0  0  0  0  0
  -23.3945  -30.5063   21.5594 C   0  0  2  0  0  0
  -24.8304  -28.9984   20.1018 C   0  0  0  0  0  0
  -22.7392  -29.4660   22.4964 C   0  0  0  0  0  0
  -18.0250  -28.1336   22.8445 C   0  0  0  0  0  0
  -24.1496  -36.7331   23.2647 C   0  0  0  0  0  0
  -25.9315  -30.8332   21.3799 C   0  0  0  0  0  0
  -25.9973  -29.4772   20.7123 C   0  0  0  0  0  0
  -27.1794  -28.7011   20.7063 C   0  0  0  0  0  0
  -26.0138  -27.0168   19.3992 C   0  0  0  0  0  0
  -24.8347  -27.7635   19.4457 C   0  0  0  0  0  0
  -23.5949  -29.8604   20.1658 C   0  0  0  0  0  0
  -25.4096  -36.3104   24.0359 C   0  0  1  0  0  0
  -20.5846  -28.3588   23.1298 C   0  0  2  0  0  0
  -20.6740  -26.9318   22.5400 C   0  0  0  0  0  0
  -19.5733  -26.6326   21.5186 C   0  0  0  0  0  0
  -18.1900  -26.7874   22.1584 C   0  0  0  0  0  0
  -19.1510  -28.8768   23.2870 C   0  0  0  0  0  0
  -18.9460  -30.1380   23.8867 C   0  0  0  0  0  0
  -17.6467  -30.6535   24.0527 C   0  0  0  0  0  0
  -25.9017  -34.9468   23.5144 C   0  0  0  0  0  0
  -16.5341  -29.9031   23.6339 C   0  0  0  0  0  0
  -16.7238  -28.6465   23.0323 C   0  0  0  0  0  0
  -26.4429  -31.6620   25.0779 C   0  0  0  0  0  0
  -25.3722  -31.3736   26.1565 C   0  0  0  0  0  0
  -27.0286  -30.3061   24.6187 C   0  0  0  0  0  0
  -27.5982  -32.4369   25.7535 C   0  0  0  0  0  0
  -27.5586  -37.1808   24.8442 C   0  0  0  0  0  0
  -21.4123  -29.2993   22.3746 N   0  0  0  0  0  0
  -26.4277  -37.3806   23.9433 N   0  0  0  0  0  0
  -24.6641  -31.0850   22.1080 N   0  0  0  0  0  0
  -23.4206  -28.8175   23.2948 O   0  0  0  0  0  0
  -28.3199  -26.6341   20.1280 O   0  0  0  0  0  0
  -26.5581  -34.8899   22.4706 O   0  0  0  0  0  0
  -23.5317  -32.1410   23.7619 O   0  0  0  0  0  0
  -29.2682  -20.4610   20.2609 C   0  0  0  0  0  0
  -28.0100  -21.3172   22.1327 C   0  0  0  0  0  0
  -28.5882  -21.5345   20.8676 C   0  0  0  0  0  0
  -29.3289  -19.2249   20.9268 C   0  0  0  0  0  0
  -28.1494  -20.0581   22.7465 C   0  0  0  0  0  0
  -29.5961  -20.3552   25.5494 C   0  0  0  0  0  0
  -28.7699  -24.4015   22.1243 C   0  0  0  0  0  0
  -28.3379  -22.8118   20.0792 C   0  0  0  0  0  0
  -29.9768  -18.0206   20.2678 C   0  0  0  0  0  0
  -28.5754  -19.2823   25.1408 C   0  0  0  0  0  0
  -31.2284  -17.5213   21.0129 C   0  0  0  0  0  0
  -30.9666  -16.4282   22.0787 C   0  0  0  0  0  0
  -26.3021  -18.8457   24.0154 C   0  0  0  0  0  0
  -28.0616  -25.2436   19.8625 C   0  0  0  0  0  0
  -27.5289  -19.7845   24.1182 C   0  0  2  0  0  0
  -28.8836  -24.1808   20.6015 C   0  0  1  0  0  0
  -28.7822  -19.0264   22.1430 N   0  0  0  0  0  0
  -30.2961  -15.2230   21.5733 N   0  0  0  0  0  0
  -25.0890  -19.5726   23.8671 O   0  0  0  0  0  0
  -31.4553  -12.3767   19.0876 H   0  0  0  0  0  0
  -30.3067  -11.2716   19.7762 H   0  0  0  0  0  0
  -29.7096  -11.7985   17.4014 H   0  0  0  0  0  0
  -29.6538  -13.5045   17.7668 H   0  0  0  0  0  0
  -27.8099  -11.3198   18.7975 H   0  0  0  0  0  0
  -27.3507  -12.6630   17.7879 H   0  0  0  0  0  0
  -27.7169  -14.2594   19.5955 H   0  0  0  0  0  0
  -28.6708  -11.9220   21.3147 H   0  0  0  0  0  0
  -28.4620  -13.5477   21.8800 H   0  0  0  0  0  0
  -25.2736   -9.5702   22.4758 H   0  0  0  0  0  0
  -23.9990   -7.4645   22.7469 H   0  0  0  0  0  0
  -21.0834   -8.8757   19.8943 H   0  0  0  0  0  0
  -22.3675  -10.9659   19.6151 H   0  0  0  0  0  0
  -21.2001   -7.6138   23.9698 H   0  0  0  0  0  0
  -21.1476   -6.0519   25.9068 H   0  0  0  0  0  0
  -22.0606   -2.7598   23.2851 H   0  0  0  0  0  0
  -22.4082  -11.9859   22.4759 H   0  0  0  0  0  0
  -21.1093  -13.1230   22.2565 H   0  0  0  0  0  0
  -24.6735  -15.8496   20.5280 H   0  0  0  0  0  0
  -26.2970  -15.6231   20.1121 H   0  0  0  0  0  0
  -26.7091  -32.5499   23.1177 H   0  0  0  0  0  0
  -25.0059  -33.9789   25.0505 H   0  0  0  0  0  0
  -22.6798  -31.3240   21.4335 H   0  0  0  0  0  0
  -23.3757  -35.9659   23.3242 H   0  0  0  0  0  0
  -24.3616  -36.9003   22.2080 H   0  0  0  0  0  0
  -23.7243  -37.6532   23.6673 H   0  0  0  0  0  0
  -26.0648  -31.6058   20.6212 H   0  0  0  0  0  0
  -26.8153  -30.8602   22.0076 H   0  0  0  0  0  0
  -28.0692  -29.0545   21.2093 H   0  0  0  0  0  0
  -25.9575  -26.0980   18.8335 H   0  0  0  0  0  0
  -23.9445  -27.3977   18.9524 H   0  0  0  0  0  0
  -23.6941  -30.6473   19.4165 H   0  0  0  0  0  0
  -22.7159  -29.2862   19.8667 H   0  0  0  0  0  0
  -25.1255  -36.1971   25.0853 H   0  0  0  0  0  0
  -20.9904  -28.3109   24.1431 H   0  0  0  0  0  0
  -20.5612  -26.2174   23.3568 H   0  0  0  0  0  0
  -21.6611  -26.7334   22.1202 H   0  0  0  0  0  0
  -19.6919  -25.6260   21.1176 H   0  0  0  0  0  0
  -19.6722  -27.3145   20.6739 H   0  0  0  0  0  0
  -17.4185  -26.6592   21.3972 H   0  0  0  0  0  0
  -18.0290  -26.0006   22.8969 H   0  0  0  0  0  0
  -19.7957  -30.7179   24.2222 H   0  0  0  0  0  0
  -17.5041  -31.6232   24.5093 H   0  0  0  0  0  0
  -15.5347  -30.2926   23.7706 H   0  0  0  0  0  0
  -15.8629  -28.0802   22.7044 H   0  0  0  0  0  0
  -24.5800  -30.7163   25.7921 H   0  0  0  0  0  0
  -24.9021  -32.2930   26.5092 H   0  0  0  0  0  0
  -25.8078  -30.8841   27.0293 H   0  0  0  0  0  0
  -26.2860  -29.6844   24.1158 H   0  0  0  0  0  0
  -27.3996  -29.7254   25.4654 H   0  0  0  0  0  0
  -27.8704  -30.4396   23.9380 H   0  0  0  0  0  0
  -27.2532  -33.3625   26.2149 H   0  0  0  0  0  0
  -28.3742  -32.7025   25.0341 H   0  0  0  0  0  0
  -28.0699  -31.8520   26.5446 H   0  0  0  0  0  0
  -28.2515  -38.0188   24.7551 H   0  0  0  0  0  0
  -28.1170  -36.2719   24.6132 H   0  0  0  0  0  0
  -27.2335  -37.1295   25.8853 H   0  0  0  0  0  0
  -20.9226  -29.8863   21.7127 H   0  0  0  0  0  0
  -26.0156  -38.2873   24.1475 H   0  0  0  0  0  0
  -29.6841  -20.5676   19.2689 H   0  0  0  0  0  0
  -27.4323  -22.0865   22.6228 H   0  0  0  0  0  0
  -30.3762  -19.9286   26.1799 H   0  0  0  0  0  0
  -29.1141  -21.1569   26.1106 H   0  0  0  0  0  0
  -30.0806  -20.8024   24.6822 H   0  0  0  0  0  0
  -27.7292  -24.3847   22.4516 H   0  0  0  0  0  0
  -29.1755  -25.3738   22.4083 H   0  0  0  0  0  0
  -29.3166  -23.6438   22.6860 H   0  0  0  0  0  0
  -27.2502  -22.8543   19.9905 H   0  0  0  0  0  0
  -28.6840  -22.6646   19.0551 H   0  0  0  0  0  0
  -30.2678  -18.3095   19.2563 H   0  0  0  0  0  0
  -29.2408  -17.2273   20.1364 H   0  0  0  0  0  0
  -28.0689  -18.9428   26.0436 H   0  0  0  0  0  0
  -29.0904  -18.4068   24.7458 H   0  0  0  0  0  0
  -31.7448  -18.3685   21.4666 H   0  0  0  0  0  0
  -31.9324  -17.1354   20.2770 H   0  0  0  0  0  0
  -30.3594  -16.8435   22.8830 H   0  0  0  0  0  0
  -31.9125  -16.1353   22.5399 H   0  0  0  0  0  0
  -26.2064  -18.2495   24.9233 H   0  0  0  0  0  0
  -26.4187  -18.1361   23.1957 H   0  0  0  0  0  0
  -27.0520  -24.9887   20.1879 H   0  0  0  0  0  0
  -28.1098  -25.0789   18.7849 H   0  0  0  0  0  0
  -27.1740  -20.7391   24.5127 H   0  0  0  0  0  0
  -29.9359  -24.2711   20.3278 H   0  0  0  0  0  0
  -29.4227  -14.9672   22.0112 H   0  0  0  0  0  0
  -24.3718  -18.9443   23.8900 H   0  0  0  0  0  0
  1 25  1  0  0  0
  1 30  2  0  0  0
  1 88  1  0  0  0
  2  3  1  0  0  0
  2 25  1  0  0  0
  2 90  1  0  0  0
  2 91  1  0  0  0
  3  4  1  0  0  0
  3 92  1  0  0  0
  3 93  1  0  0  0
  4  5  1  0  0  0
  4 94  1  0  0  0
  4 95  1  0  0  0
  5  6  1  0  0  0
  5 26  1  0  0  0
  5 96  1  0  0  0
  6 25  1  0  0  0
  6 97  1  0  0  0
  6 98  1  0  0  0
  7  8  2  0  0  0
  7 26  1  0  0  0
  7 29  1  0  0  0
  8  9  1  0  0  0
  8 22  1  0  0  0
  9 10  1  0  0  0
  9 27  2  0  0  0
 10 11  2  0  0  0
 10 15  1  0  0  0
 11 12  1  0  0  0
 11 99  1  0  0  0
 12 13  2  0  0  0
 12100  1  0  0  0
 13 14  1  0  0  0
 13 31  1  0  0  0
 14 15  2  0  0  0
 14101  1  0  0  0
 15102  1  0  0  0
 16 17  2  0  0  0
 16 21  1  0  0  0
 16 31  1  0  0  0
 17 18  1  0  0  0
 17103  1  0  0  0
 18 19  2  0  0  0
 18104  1  0  0  0
 19 20  1  0  0  0
 19 24  1  0  0  0
 20 21  2  0  0  0
 20105  1  0  0  0
 21 23  1  0  0  0
 22 28  1  0  0  0
 22 32  2  0  0  0
 26 27  1  0  0  0
 28106  1  0  0  0
 28107  1  0  0  0
 29108  1  0  0  0
 29109  1  0  0  0
 33 34  1  0  0  0
 33 66  1  0  0  0
 33 70  2  0  0  0
 34 36  1  0  0  0
 34 59  1  0  0  0
 34110  1  0  0  0
 35 44  2  0  0  0
 35 45  1  0  0  0
 35 68  1  0  0  0
 36 56  1  0  0  0
 36111  1  0  0  0
 37 39  1  0  0  0
 37 47  1  0  0  0
 37 66  1  0  0  0
 37112  1  0  0  0
 38 43  2  0  0  0
 38 46  1  0  0  0
 38 47  1  0  0  0
 39 64  1  0  0  0
 39 67  2  0  0  0
 40 52  1  0  0  0
 40 53  2  0  0  0
 40 58  1  0  0  0
 41113  1  0  0  0
 41114  1  0  0  0
 41115  1  0  0  0
 41 48  1  0  0  0
 42 43  1  0  0  0
 42 66  1  0  0  0
 42116  1  0  0  0
 42117  1  0  0  0
 43 44  1  0  0  0
 44118  1  0  0  0
 45 46  2  0  0  0
 45119  1  0  0  0
 46120  1  0  0  0
 47121  1  0  0  0
 47122  1  0  0  0
 48 56  1  0  0  0
 48 65  1  0  0  0
 48123  1  0  0  0
 49 50  1  0  0  0
 49 53  1  0  0  0
 49 64  1  0  0  0
 49124  1  0  0  0
 50 51  1  0  0  0
 50125  1  0  0  0
 50126  1  0  0  0
 51 52  1  0  0  0
 51127  1  0  0  0
 51128  1  0  0  0
 52129  1  0  0  0
 52130  1  0  0  0
 53 54  1  0  0  0
 54 55  2  0  0  0
 54131  1  0  0  0
 55 57  1  0  0  0
 55132  1  0  0  0
 56 69  2  0  0  0
 57 58  2  0  0  0
 57133  1  0  0  0
 58134  1  0  0  0
 59 60  1  0  0  0
 59 61  1  0  0  0
 59 62  1  0  0  0
 60135  1  0  0  0
 60136  1  0  0  0
 60137  1  0  0  0
 61138  1  0  0  0
 61139  1  0  0  0
 61140  1  0  0  0
 62141  1  0  0  0
 62142  1  0  0  0
 62143  1  0  0  0
 63 65  1  0  0  0
 63144  1  0  0  0
 63145  1  0  0  0
 63146  1  0  0  0
 64147  1  0  0  0
 65148  1  0  0  0
 68 84  1  0  0  0
 71 73  2  0  0  0
 71 74  1  0  0  0
 71149  1  0  0  0
 72 73  1  0  0  0
 72 75  2  0  0  0
 72150  1  0  0  0
 73 78  1  0  0  0
 74 79  1  0  0  0
 74 87  2  0  0  0
 75 85  1  0  0  0
 75 87  1  0  0  0
 76 80  1  0  0  0
 76151  1  0  0  0
 76152  1  0  0  0
 76153  1  0  0  0
 77154  1  0  0  0
 77155  1  0  0  0
 77156  1  0  0  0
 77 86  1  0  0  0
 78 86  1  0  0  0
 78157  1  0  0  0
 78158  1  0  0  0
 79 81  1  0  0  0
 79159  1  0  0  0
 79160  1  0  0  0
 80161  1  0  0  0
 80162  1  0  0  0
 80 85  1  0  0  0
 81 82  1  0  0  0
 81163  1  0  0  0
 81164  1  0  0  0
 82 88  1  0  0  0
 82165  1  0  0  0
 82166  1  0  0  0
 83 85  1  0  0  0
 83 89  1  0  0  0
 83167  1  0  0  0
 83168  1  0  0  0
 84 86  1  0  0  0
 84169  1  0  0  0
 84170  1  0  0  0
 85171  1  0  0  0
 86172  1  0  0  0
 88173  1  0  0  0
 89174  1  0  0  0
M  ISO  4   1 100  68 101  84 101  88 100
M  END
> <chiral flag>
0

> <version>
0

> <s_m_source_file>
/data/baiqing/PycharmProjects/Reinvent-master-3.2/result/LINK_invent/BTK/process_docking_weight1_custom_sum_contain_oxygen_bond_distance_aromatic_linkinvent_7_9_3/rearranged_h_0088.sdf

> <i_m_source_file_index>
21

> <r_mmod_Potential_Energy-OPLS-2005>
-124.838394165039

> <r_mmod_Stretch_Energy-OPLS-2005>
36.3758735656738

> <r_mmod_Bend_Energy-OPLS-2005>
115.59211730957

> <r_mmod_Torsional_Energy-OPLS-2005>
197.356170654297

> <r_mmod_Improper_Torsional_Energy-OPLS-2005>
2.54849004745483

> <r_mmod_Van_der_Waal_Energy-OPLS-2005>
175.336975097656

> <r_mmod_Electrostatic_Energy-OPLS-2005>
-447.467529296875

> <r_mmod_Solvation_Energy-OPLS-2005>
-220.14094543457

> <b_mmod_Minimization_Converged-OPLS-2005>
0

> <r_mmod_RMS_Derivative-OPLS-2005>
3.50408244132996

$$$$
21
                    3D
 Structure written by MMmdl.
173181  0  0  1  0            999 V2000
  -30.6317  -14.6216   20.4704 C   0  0  0  0  0  0
  -30.4226  -12.3681   19.4660 C   0  0  0  0  0  0
  -29.5033  -12.4966   18.2316 C   0  0  0  0  0  0
  -28.0244  -12.3449   18.6388 C   0  0  0  0  0  0
  -27.6493  -13.2193   19.8655 C   0  0  2  0  0  0
  -28.6907  -13.0827   20.9996 C   0  0  0  0  0  0
  -25.2532  -13.8193   20.5681 C   0  0  0  0  0  0
  -24.1805  -13.0442   20.9195 C   0  0  0  0  0  0
  -24.6385  -11.6921   20.8764 C   0  0  0  0  0  0
  -23.9070  -10.4295   21.0426 C   0  0  0  0  0  0
  -24.3623   -9.4199   21.9196 C   0  0  0  0  0  0
  -23.6289   -8.2238   22.0760 C   0  0  0  0  0  0
  -22.4273   -8.0281   21.3546 C   0  0  0  0  0  0
  -21.9918   -9.0264   20.4652 C   0  0  0  0  0  0
  -22.7252  -10.2141   20.3063 C   0  0  0  0  0  0
  -21.6846   -6.0734   22.5281 C   0  0  0  0  0  0
  -21.4019   -6.5642   23.8218 C   0  0  0  0  0  0
  -21.3653   -5.6791   24.9177 C   0  0  0  0  0  0
  -21.6042   -4.3055   24.7231 C   0  0  0  0  0  0
  -21.8815   -3.8148   23.4350 C   0  0  0  0  0  0
  -21.9194   -4.6962   22.3401 C   0  0  0  0  0  0
  -22.7823  -13.5229   21.1854 C   0  0  0  0  0  0
  -22.1653   -4.2145   21.0979 F   0  0  0  0  0  0
  -21.5626   -3.4540   25.7742 F   0  0  0  0  0  0
  -30.0072  -13.4041   20.4342 N   0  0  0  0  0  0
  -26.2955  -12.9377   20.3335 N   0  0  0  0  0  0
  -25.9312  -11.6531   20.5798 N   0  0  0  0  0  0
  -22.0482  -12.8215   22.0417 N   0  0  0  0  0  0
  -25.4227  -15.1907   20.4022 N   0  0  0  0  0  0
  -31.7978  -14.7519   20.0885 O   0  0  0  0  0  0
  -21.6632   -6.8879   21.4241 O   0  0  0  0  0  0
  -22.3497  -14.5518   20.6684 O   0  0  0  0  0  0
  -24.6243  -31.8622   23.2025 C   0  0  0  0  0  0
  -25.9108  -32.4785   23.8358 C   0  0  1  0  0  0
  -27.2278  -27.3461   20.1105 C   0  0  0  0  0  0
  -25.5936  -33.8577   24.2282 N   0  0  0  0  0  0
  -23.4172  -30.4842   21.5437 C   0  0  2  0  0  0
  -24.8664  -28.9380   20.1102 C   0  0  0  0  0  0
  -22.7474  -29.4633   22.4933 C   0  0  0  0  0  0
  -18.0288  -28.1371   22.8482 C   0  0  0  0  0  0
  -24.1497  -36.7288   23.2639 C   0  0  0  0  0  0
  -25.9554  -30.7996   21.3712 C   0  0  0  0  0  0
  -26.0342  -29.4281   20.7120 C   0  0  0  0  0  0
  -27.2225  -28.6422   20.7030 C   0  0  0  0  0  0
  -26.0435  -26.8934   19.4961 C   0  0  0  0  0  0
  -24.8704  -27.6726   19.4975 C   0  0  0  0  0  0
  -23.6326  -29.8156   20.1601 C   0  0  0  0  0  0
  -25.4111  -36.3071   24.0333 C   0  0  1  0  0  0
  -20.5880  -28.3674   23.1284 C   0  0  2  0  0  0
  -20.6774  -26.9403   22.5409 C   0  0  0  0  0  0
  -19.5755  -26.6371   21.5207 C   0  0  0  0  0  0
  -18.1929  -26.7917   22.1613 C   0  0  0  0  0  0
  -19.1536  -28.8837   23.2875 C   0  0  0  0  0  0
  -18.9465  -30.1439   23.8883 C   0  0  0  0  0  0
  -17.6467  -30.6571   24.0554 C   0  0  0  0  0  0
  -25.9054  -34.9447   23.5103 C   0  0  0  0  0  0
  -16.5361  -29.9069   23.6332 C   0  0  0  0  0  0
  -16.7279  -28.6493   23.0348 C   0  0  0  0  0  0
  -26.4494  -31.6587   25.0723 C   0  0  0  0  0  0
  -25.3733  -31.3722   26.1457 C   0  0  0  0  0  0
  -27.0337  -30.3013   24.6146 C   0  0  0  0  0  0
  -27.6048  -32.4333   25.7489 C   0  0  0  0  0  0
  -27.5574  -37.1793   24.8462 C   0  0  0  0  0  0
  -21.4187  -29.3034   22.3684 N   0  0  0  0  0  0
  -26.4290  -37.3761   23.9413 N   0  0  0  0  0  0
  -24.6835  -31.0645   22.0963 N   0  0  0  0  0  0
  -23.4212  -28.8179   23.2998 O   0  0  0  0  0  0
  -28.3272  -26.4893   20.1070 O   0  0  0  0  0  0
  -26.5625  -34.8921   22.4674 O   0  0  0  0  0  0
  -23.5424  -32.1430   23.7376 O   0  0  0  0  0  0
  -29.6819  -22.1960   19.6754 C   0  0  0  0  0  0
  -28.9129  -21.1101   20.1695 C   0  0  0  0  0  0
  -27.7545  -21.4857   20.9102 C   0  0  0  0  0  0
  -27.5097  -22.8780   21.1843 C   0  0  0  0  0  0
  -28.3735  -23.8881   20.6543 C   0  0  0  0  0  0
  -26.3450  -23.3125   22.0796 C   0  0  0  0  0  0
  -29.4323  -25.7112   22.0819 C   0  0  0  0  0  0
  -26.8787  -18.2436   24.6810 C   0  0  0  0  0  0
  -24.8666  -18.7645   23.2513 C   0  0  0  0  0  0
  -29.3274  -19.6432   19.7365 C   0  0  0  0  0  0
  -26.7909  -20.4070   21.3965 C   0  0  0  0  0  0
  -29.2941  -18.3494   20.6746 C   0  0  0  0  0  0
  -27.0943  -19.9660   22.8427 C   0  0  0  0  0  0
  -30.0983  -17.0947   20.1120 C   0  0  0  0  0  0
  -28.2915  -25.4082   21.1011 C   0  0  1  0  0  0
  -26.3993  -18.6606   23.2828 C   0  0  0  0  0  0
  -29.4278  -23.5161   19.8898 N   0  0  0  0  0  0
  -29.8456  -15.7236   20.6816 N   0  0  0  0  0  0
  -31.4687  -12.4652   19.1708 H   0  0  0  0  0  0
  -30.3310  -11.3759   19.9107 H   0  0  0  0  0  0
  -29.7633  -11.7474   17.4825 H   0  0  0  0  0  0
  -29.6532  -13.4678   17.7581 H   0  0  0  0  0  0
  -27.8530  -11.2927   18.8709 H   0  0  0  0  0  0
  -27.3722  -12.5784   17.7966 H   0  0  0  0  0  0
  -27.6665  -14.2537   19.5200 H   0  0  0  0  0  0
  -28.6914  -12.0667   21.3971 H   0  0  0  0  0  0
  -28.4479  -13.7355   21.8389 H   0  0  0  0  0  0
  -25.2776   -9.5656   22.4768 H   0  0  0  0  0  0
  -23.9993   -7.4622   22.7480 H   0  0  0  0  0  0
  -21.0847   -8.8787   19.8958 H   0  0  0  0  0  0
  -22.3724  -10.9676   19.6167 H   0  0  0  0  0  0
  -21.2015   -7.6152   23.9717 H   0  0  0  0  0  0
  -21.1477   -6.0526   25.9079 H   0  0  0  0  0  0
  -22.0603   -2.7609   23.2853 H   0  0  0  0  0  0
  -22.4120  -11.9881   22.4788 H   0  0  0  0  0  0
  -21.1107  -13.1236   22.2648 H   0  0  0  0  0  0
  -24.6534  -15.8435   20.4994 H   0  0  0  0  0  0
  -26.2606  -15.6228   20.0354 H   0  0  0  0  0  0
  -26.7181  -32.5470   23.1115 H   0  0  0  0  0  0
  -25.0079  -33.9718   25.0422 H   0  0  0  0  0  0
  -22.7077  -31.3014   21.3994 H   0  0  0  0  0  0
  -23.3751  -35.9636   23.3321 H   0  0  0  0  0  0
  -24.3577  -36.8902   22.2049 H   0  0  0  0  0  0
  -23.7263  -37.6494   23.6668 H   0  0  0  0  0  0
  -26.0870  -31.5690   20.6100 H   0  0  0  0  0  0
  -26.8348  -30.8472   22.0012 H   0  0  0  0  0  0
  -28.1256  -29.0116   21.1705 H   0  0  0  0  0  0
  -26.0282  -25.9209   19.0231 H   0  0  0  0  0  0
  -23.9741  -27.2855   19.0313 H   0  0  0  0  0  0
  -23.7459  -30.5934   19.4033 H   0  0  0  0  0  0
  -22.7523  -29.2430   19.8611 H   0  0  0  0  0  0
  -25.1289  -36.1920   25.0826 H   0  0  0  0  0  0
  -20.9973  -28.3252   24.1400 H   0  0  0  0  0  0
  -20.5662  -26.2289   23.3610 H   0  0  0  0  0  0
  -21.6644  -26.7423   22.1204 H   0  0  0  0  0  0
  -19.6928  -25.6285   21.1236 H   0  0  0  0  0  0
  -19.6689  -27.3178   20.6738 H   0  0  0  0  0  0
  -17.4204  -26.6678   21.4014 H   0  0  0  0  0  0
  -18.0307  -26.0053   22.8996 H   0  0  0  0  0  0
  -19.7954  -30.7241   24.2245 H   0  0  0  0  0  0
  -17.5041  -31.6262   24.5151 H   0  0  0  0  0  0
  -15.5364  -30.2966   23.7670 H   0  0  0  0  0  0
  -15.8685  -28.0816   22.7048 H   0  0  0  0  0  0
  -24.5916  -30.7052   25.7791 H   0  0  0  0  0  0
  -24.8896  -32.2882   26.4862 H   0  0  0  0  0  0
  -25.8065  -30.8920   27.0239 H   0  0  0  0  0  0
  -26.2897  -29.6748   24.1194 H   0  0  0  0  0  0
  -27.4072  -29.7283   25.4637 H   0  0  0  0  0  0
  -27.8768  -30.4300   23.9356 H   0  0  0  0  0  0
  -27.2647  -33.3650   26.2031 H   0  0  0  0  0  0
  -28.3859  -32.6862   25.0307 H   0  0  0  0  0  0
  -28.0717  -31.8475   26.5419 H   0  0  0  0  0  0
  -28.2580  -38.0099   24.7490 H   0  0  0  0  0  0
  -28.1081  -36.2621   24.6310 H   0  0  0  0  0  0
  -27.2297  -37.1448   25.8867 H   0  0  0  0  0  0
  -20.9378  -29.8760   21.6894 H   0  0  0  0  0  0
  -26.0182  -38.2848   24.1405 H   0  0  0  0  0  0
  -30.5425  -21.9972   19.0530 H   0  0  0  0  0  0
  -25.7024  -24.0215   21.5546 H   0  0  0  0  0  0
  -26.7290  -23.8014   22.9763 H   0  0  0  0  0  0
  -25.7030  -22.5134   22.4351 H   0  0  0  0  0  0
  -29.4183  -25.0142   22.9196 H   0  0  0  0  0  0
  -29.3498  -26.7211   22.4810 H   0  0  0  0  0  0
  -30.4028  -25.6192   21.5941 H   0  0  0  0  0  0
  -26.4485  -17.2859   24.9764 H   0  0  0  0  0  0
  -26.5925  -18.9811   25.4319 H   0  0  0  0  0  0
  -27.9643  -18.1403   24.7141 H   0  0  0  0  0  0
  -24.4055  -17.8371   23.5931 H   0  0  0  0  0  0
  -24.4959  -18.9522   22.2436 H   0  0  0  0  0  0
  -24.5093  -19.5676   23.8963 H   0  0  0  0  0  0
  -30.3537  -19.7161   19.3734 H   0  0  0  0  0  0
  -28.7427  -19.4177   18.8437 H   0  0  0  0  0  0
  -26.8171  -19.5646   20.7106 H   0  0  0  0  0  0
  -25.7613  -20.7481   21.3025 H   0  0  0  0  0  0
  -28.2675  -18.0337   20.8393 H   0  0  0  0  0  0
  -29.6949  -18.5981   21.6574 H   0  0  0  0  0  0
  -26.8526  -20.7722   23.5350 H   0  0  0  0  0  0
  -28.1714  -19.8252   22.9347 H   0  0  0  0  0  0
  -31.1665  -17.3139   20.1667 H   0  0  0  0  0  0
  -29.8787  -17.0156   19.0460 H   0  0  0  0  0  0
  -27.3826  -25.5508   21.6806 H   0  0  0  0  0  0
  -26.6904  -17.8669   22.5932 H   0  0  0  0  0  0
  -28.9145  -15.5371   21.0214 H   0  0  0  0  0  0
  1 25  1  0  0  0
  1 30  2  0  0  0
  1 88  1  0  0  0
  2  3  1  0  0  0
  2 25  1  0  0  0
  2 89  1  0  0  0
  2 90  1  0  0  0
  3  4  1  0  0  0
  3 91  1  0  0  0
  3 92  1  0  0  0
  4  5  1  0  0  0
  4 93  1  0  0  0
  4 94  1  0  0  0
  5  6  1  0  0  0
  5 26  1  0  0  0
  5 95  1  0  0  0
  6 25  1  0  0  0
  6 96  1  0  0  0
  6 97  1  0  0  0
  7  8  2  0  0  0
  7 26  1  0  0  0
  7 29  1  0  0  0
  8  9  1  0  0  0
  8 22  1  0  0  0
  9 10  1  0  0  0
  9 27  2  0  0  0
 10 11  2  0  0  0
 10 15  1  0  0  0
 11 12  1  0  0  0
 11 98  1  0  0  0
 12 13  2  0  0  0
 12 99  1  0  0  0
 13 14  1  0  0  0
 13 31  1  0  0  0
 14 15  2  0  0  0
 14100  1  0  0  0
 15101  1  0  0  0
 16 17  2  0  0  0
 16 21  1  0  0  0
 16 31  1  0  0  0
 17 18  1  0  0  0
 17102  1  0  0  0
 18 19  2  0  0  0
 18103  1  0  0  0
 19 20  1  0  0  0
 19 24  1  0  0  0
 20 21  2  0  0  0
 20104  1  0  0  0
 21 23  1  0  0  0
 22 28  1  0  0  0
 22 32  2  0  0  0
 26 27  1  0  0  0
 28105  1  0  0  0
 28106  1  0  0  0
 29107  1  0  0  0
 29108  1  0  0  0
 33 34  1  0  0  0
 33 66  1  0  0  0
 33 70  2  0  0  0
 34 36  1  0  0  0
 34 59  1  0  0  0
 34109  1  0  0  0
 35 44  2  0  0  0
 35 45  1  0  0  0
 35 68  1  0  0  0
 36 56  1  0  0  0
 36110  1  0  0  0
 37 39  1  0  0  0
 37 47  1  0  0  0
 37 66  1  0  0  0
 37111  1  0  0  0
 38 43  2  0  0  0
 38 46  1  0  0  0
 38 47  1  0  0  0
 39 64  1  0  0  0
 39 67  2  0  0  0
 40 52  1  0  0  0
 40 53  2  0  0  0
 40 58  1  0  0  0
 41112  1  0  0  0
 41113  1  0  0  0
 41114  1  0  0  0
 41 48  1  0  0  0
 42 43  1  0  0  0
 42 66  1  0  0  0
 42115  1  0  0  0
 42116  1  0  0  0
 43 44  1  0  0  0
 44117  1  0  0  0
 45 46  2  0  0  0
 45118  1  0  0  0
 46119  1  0  0  0
 47120  1  0  0  0
 47121  1  0  0  0
 48 56  1  0  0  0
 48 65  1  0  0  0
 48122  1  0  0  0
 49 50  1  0  0  0
 49 53  1  0  0  0
 49 64  1  0  0  0
 49123  1  0  0  0
 50 51  1  0  0  0
 50124  1  0  0  0
 50125  1  0  0  0
 51 52  1  0  0  0
 51126  1  0  0  0
 51127  1  0  0  0
 52128  1  0  0  0
 52129  1  0  0  0
 53 54  1  0  0  0
 54 55  2  0  0  0
 54130  1  0  0  0
 55 57  1  0  0  0
 55131  1  0  0  0
 56 69  2  0  0  0
 57 58  2  0  0  0
 57132  1  0  0  0
 58133  1  0  0  0
 59 60  1  0  0  0
 59 61  1  0  0  0
 59 62  1  0  0  0
 60134  1  0  0  0
 60135  1  0  0  0
 60136  1  0  0  0
 61137  1  0  0  0
 61138  1  0  0  0
 61139  1  0  0  0
 62140  1  0  0  0
 62141  1  0  0  0
 62142  1  0  0  0
 63 65  1  0  0  0
 63143  1  0  0  0
 63144  1  0  0  0
 63145  1  0  0  0
 64146  1  0  0  0
 65147  1  0  0  0
 68 85  1  0  0  0
 71 72  2  0  0  0
 71 87  1  0  0  0
 71148  1  0  0  0
 72 73  1  0  0  0
 72 80  1  0  0  0
 73 74  2  0  0  0
 73 81  1  0  0  0
 74 75  1  0  0  0
 74 76  1  0  0  0
 75 85  1  0  0  0
 75 87  2  0  0  0
 76149  1  0  0  0
 76150  1  0  0  0
 76151  1  0  0  0
 77152  1  0  0  0
 77153  1  0  0  0
 77154  1  0  0  0
 77 85  1  0  0  0
 78155  1  0  0  0
 78156  1  0  0  0
 78157  1  0  0  0
 78 86  1  0  0  0
 79 86  1  0  0  0
 79158  1  0  0  0
 79159  1  0  0  0
 79160  1  0  0  0
 80 82  1  0  0  0
 80161  1  0  0  0
 80162  1  0  0  0
 81 83  1  0  0  0
 81163  1  0  0  0
 81164  1  0  0  0
 82 84  1  0  0  0
 82165  1  0  0  0
 82166  1  0  0  0
 83 86  1  0  0  0
 83167  1  0  0  0
 83168  1  0  0  0
 84 88  1  0  0  0
 84169  1  0  0  0
 84170  1  0  0  0
 85171  1  0  0  0
 86172  1  0  0  0
 88173  1  0  0  0
M  ISO  4   1 100  68 101  85 101  88 100
M  END
> <chiral flag>
0

> <version>
0

> <s_m_source_file>
/data/baiqing/PycharmProjects/Reinvent-master-3.2/result/LINK_invent/BTK/process_docking_weight1_custom_sum_contain_oxygen_bond_distance_aromatic_linkinvent_7_9_3/rearranged_h_0088.sdf

> <i_m_source_file_index>
22

> <r_mmod_Potential_Energy-OPLS-2005>
-52.4772109985352

> <r_mmod_Stretch_Energy-OPLS-2005>
81.5636978149414

> <r_mmod_Bend_Energy-OPLS-2005>
146.927825927734

> <r_mmod_Torsional_Energy-OPLS-2005>
243.813339233398

> <r_mmod_Improper_Torsional_Energy-OPLS-2005>
8.69043636322021

> <r_mmod_Van_der_Waal_Energy-OPLS-2005>
141.058029174805

> <r_mmod_Electrostatic_Energy-OPLS-2005>
-497.880981445312

> <r_mmod_Solvation_Energy-OPLS-2005>
-218.795654296875

> <b_mmod_Minimization_Converged-OPLS-2005>
0

> <r_mmod_RMS_Derivative-OPLS-2005>
2.41034650802612

$$$$
22
                    3D
 Structure written by MMmdl.
164172  0  0  1  0            999 V2000
  -30.6592  -14.6989   20.4595 C   0  0  0  0  0  0
  -30.4267  -12.4217   19.4762 C   0  0  0  0  0  0
  -29.5012  -12.4904   18.2406 C   0  0  0  0  0  0
  -28.0336  -12.3052   18.6670 C   0  0  0  0  0  0
  -27.6436  -13.2244   19.8542 C   0  0  2  0  0  0
  -28.6901  -13.1596   20.9912 C   0  0  0  0  0  0
  -25.2508  -13.8182   20.5722 C   0  0  0  0  0  0
  -24.1794  -13.0451   20.9213 C   0  0  0  0  0  0
  -24.6377  -11.6917   20.8761 C   0  0  0  0  0  0
  -23.9046  -10.4298   21.0406 C   0  0  0  0  0  0
  -24.3599   -9.4209   21.9186 C   0  0  0  0  0  0
  -23.6293   -8.2241   22.0744 C   0  0  0  0  0  0
  -22.4274   -8.0277   21.3533 C   0  0  0  0  0  0
  -21.9899   -9.0244   20.4627 C   0  0  0  0  0  0
  -22.7219  -10.2137   20.3049 C   0  0  0  0  0  0
  -21.6849   -6.0731   22.5290 C   0  0  0  0  0  0
  -21.4007   -6.5635   23.8226 C   0  0  0  0  0  0
  -21.3660   -5.6789   24.9191 C   0  0  0  0  0  0
  -21.6054   -4.3055   24.7237 C   0  0  0  0  0  0
  -21.8815   -3.8146   23.4360 C   0  0  0  0  0  0
  -21.9192   -4.6960   22.3413 C   0  0  0  0  0  0
  -22.7811  -13.5221   21.1894 C   0  0  0  0  0  0
  -22.1662   -4.2147   21.0984 F   0  0  0  0  0  0
  -21.5636   -3.4534   25.7749 F   0  0  0  0  0  0
  -29.9994  -13.4898   20.4096 N   0  0  0  0  0  0
  -26.2932  -12.9400   20.3314 N   0  0  0  0  0  0
  -25.9304  -11.6545   20.5784 N   0  0  0  0  0  0
  -22.0481  -12.8185   22.0445 N   0  0  0  0  0  0
  -25.4222  -15.1911   20.4119 N   0  0  0  0  0  0
  -31.8402  -14.7769   20.1181 O   0  0  0  0  0  0
  -21.6645   -6.8875   21.4253 O   0  0  0  0  0  0
  -22.3492  -14.5550   20.6785 O   0  0  0  0  0  0
  -24.6233  -31.8677   23.2083 C   0  0  0  0  0  0
  -25.9073  -32.4822   23.8438 C   0  0  1  0  0  0
  -27.2269  -27.3131   20.1291 C   0  0  0  0  0  0
  -25.5865  -33.8615   24.2337 N   0  0  0  0  0  0
  -23.4204  -30.4892   21.5520 C   0  0  2  0  0  0
  -24.8671  -28.9332   20.1323 C   0  0  0  0  0  0
  -22.7467  -29.4677   22.5002 C   0  0  0  0  0  0
  -18.0297  -28.1386   22.8488 C   0  0  0  0  0  0
  -24.1470  -36.7328   23.2642 C   0  0  0  0  0  0
  -25.9619  -30.7932   21.3834 C   0  0  0  0  0  0
  -26.0360  -29.4142   20.7327 C   0  0  0  0  0  0
  -27.2179  -28.6129   20.7250 C   0  0  0  0  0  0
  -26.0413  -26.8954   19.4953 C   0  0  0  0  0  0
  -24.8691  -27.6742   19.5100 C   0  0  0  0  0  0
  -23.6367  -29.8148   20.1728 C   0  0  0  0  0  0
  -25.4100  -36.3099   24.0318 C   0  0  1  0  0  0
  -20.5901  -28.3720   23.1274 C   0  0  2  0  0  0
  -20.6805  -26.9455   22.5400 C   0  0  0  0  0  0
  -19.5765  -26.6397   21.5221 C   0  0  0  0  0  0
  -18.1938  -26.7951   22.1612 C   0  0  0  0  0  0
  -19.1552  -28.8863   23.2856 C   0  0  0  0  0  0
  -18.9458  -30.1455   23.8894 C   0  0  0  0  0  0
  -17.6443  -30.6571   24.0570 C   0  0  0  0  0  0
  -25.9031  -34.9444   23.5121 C   0  0  0  0  0  0
  -16.5344  -29.9089   23.6292 C   0  0  0  0  0  0
  -16.7280  -28.6500   23.0350 C   0  0  0  0  0  0
  -26.4425  -31.6617   25.0790 C   0  0  0  0  0  0
  -25.3595  -31.3786   26.1473 C   0  0  0  0  0  0
  -27.0272  -30.3019   24.6286 C   0  0  0  0  0  0
  -27.5984  -32.4417   25.7504 C   0  0  0  0  0  0
  -27.5582  -37.1782   24.8447 C   0  0  0  0  0  0
  -21.4205  -29.3078   22.3691 N   0  0  0  0  0  0
  -26.4302  -37.3769   23.9384 N   0  0  0  0  0  0
  -24.6878  -31.0662   22.1045 N   0  0  0  0  0  0
  -23.4168  -28.8260   23.3137 O   0  0  0  0  0  0
  -28.3548  -26.4800   20.0818 O   0  0  0  0  0  0
  -26.5598  -34.8878   22.4696 O   0  0  0  0  0  0
  -23.5393  -32.1512   23.7357 O   0  0  0  0  0  0
  -30.5941  -22.7074   20.3960 C   0  0  0  0  0  0
  -28.8040  -21.1173   20.3413 C   0  0  0  0  0  0
  -29.2107  -22.5049   20.2387 C   0  0  0  0  0  0
  -31.4477  -21.6182   20.6596 C   0  0  0  0  0  0
  -29.7332  -20.0278   20.5569 C   0  0  0  0  0  0
  -32.9247  -21.8807   20.8488 C   0  0  0  0  0  0
  -26.8247  -23.2328   19.6860 C   0  0  0  0  0  0
  -28.1586  -18.2571   19.6569 C   0  0  0  0  0  0
  -28.7134  -18.2724   22.0980 C   0  0  0  0  0  0
  -30.3782  -17.3038   20.4691 C   0  0  0  0  0  0
  -28.3428  -25.1148   20.6883 C   0  0  0  0  0  0
  -28.2775  -23.7346   19.8346 C   0  0  1  0  0  0
  -29.2860  -18.4883   20.6873 C   0  0  0  0  0  0
  -31.0388  -20.3249   20.7567 N   0  0  0  0  0  0
  -29.9341  -15.8515   20.6733 N   0  0  0  0  0  0
  -31.4707  -12.5253   19.1741 H   0  0  0  0  0  0
  -30.3549  -11.4469   19.9590 H   0  0  0  0  0  0
  -29.7772  -11.7219   17.5173 H   0  0  0  0  0  0
  -29.6185  -13.4497   17.7359 H   0  0  0  0  0  0
  -27.9134  -11.2615   18.9609 H   0  0  0  0  0  0
  -27.3615  -12.4596   17.8216 H   0  0  0  0  0  0
  -27.6413  -14.2419   19.4625 H   0  0  0  0  0  0
  -28.7105  -12.1612   21.4339 H   0  0  0  0  0  0
  -28.4330  -13.8459   21.8006 H   0  0  0  0  0  0
  -25.2736   -9.5709   22.4761 H   0  0  0  0  0  0
  -24.0020   -7.4625   22.7440 H   0  0  0  0  0  0
  -21.0845   -8.8741   19.8912 H   0  0  0  0  0  0
  -22.3662  -10.9675   19.6155 H   0  0  0  0  0  0
  -21.1990   -7.6144   23.9733 H   0  0  0  0  0  0
  -21.1489   -6.0515   25.9093 H   0  0  0  0  0  0
  -22.0596   -2.7606   23.2864 H   0  0  0  0  0  0
  -22.4126  -11.9828   22.4780 H   0  0  0  0  0  0
  -21.1100  -13.1178   22.2704 H   0  0  0  0  0  0
  -24.6549  -15.8449   20.5084 H   0  0  0  0  0  0
  -26.2758  -15.6254   20.0885 H   0  0  0  0  0  0
  -26.7167  -32.5479   23.1247 H   0  0  0  0  0  0
  -24.9892  -33.9797   25.0385 H   0  0  0  0  0  0
  -22.7097  -31.3039   21.4032 H   0  0  0  0  0  0
  -23.3717  -35.9654   23.3321 H   0  0  0  0  0  0
  -24.3594  -36.8979   22.2066 H   0  0  0  0  0  0
  -23.7236  -37.6531   23.6687 H   0  0  0  0  0  0
  -26.0871  -31.5562   20.6130 H   0  0  0  0  0  0
  -26.8456  -30.8539   22.0079 H   0  0  0  0  0  0
  -28.1175  -28.9840   21.1965 H   0  0  0  0  0  0
  -26.0317  -25.9616   18.9631 H   0  0  0  0  0  0
  -23.9685  -27.3124   19.0362 H   0  0  0  0  0  0
  -23.7540  -30.5867   19.4120 H   0  0  0  0  0  0
  -22.7569  -29.2409   19.8758 H   0  0  0  0  0  0
  -25.1275  -36.1996   25.0811 H   0  0  0  0  0  0
  -20.9938  -28.3353   24.1421 H   0  0  0  0  0  0
  -20.5805  -26.2351   23.3622 H   0  0  0  0  0  0
  -21.6661  -26.7541   22.1150 H   0  0  0  0  0  0
  -19.6943  -25.6310   21.1261 H   0  0  0  0  0  0
  -19.6719  -27.3183   20.6746 H   0  0  0  0  0  0
  -17.4246  -26.6724   21.3993 H   0  0  0  0  0  0
  -18.0305  -26.0063   22.8972 H   0  0  0  0  0  0
  -19.7917  -30.7249   24.2330 H   0  0  0  0  0  0
  -17.5002  -31.6254   24.5180 H   0  0  0  0  0  0
  -15.5350  -30.2990   23.7605 H   0  0  0  0  0  0
  -15.8682  -28.0789   22.7105 H   0  0  0  0  0  0
  -24.5730  -30.7223   25.7774 H   0  0  0  0  0  0
  -24.8782  -32.2954   26.4879 H   0  0  0  0  0  0
  -25.7816  -30.8946   27.0282 H   0  0  0  0  0  0
  -26.2883  -29.6786   24.1240 H   0  0  0  0  0  0
  -27.3878  -29.7268   25.4814 H   0  0  0  0  0  0
  -27.8773  -30.4307   23.9570 H   0  0  0  0  0  0
  -27.2592  -33.3746   26.2017 H   0  0  0  0  0  0
  -28.3739  -32.7007   25.0283 H   0  0  0  0  0  0
  -28.0686  -31.8636   26.5464 H   0  0  0  0  0  0
  -28.2559  -38.0112   24.7545 H   0  0  0  0  0  0
  -28.1125  -36.2657   24.6232 H   0  0  0  0  0  0
  -27.2306  -37.1385   25.8841 H   0  0  0  0  0  0
  -20.9444  -29.8750   21.6803 H   0  0  0  0  0  0
  -26.0202  -38.2844   24.1404 H   0  0  0  0  0  0
  -31.0079  -23.7043   20.2998 H   0  0  0  0  0  0
  -27.7626  -20.8682   20.2481 H   0  0  0  0  0  0
  -33.3399  -22.3888   19.9746 H   0  0  0  0  0  0
  -33.4911  -20.9614   20.9997 H   0  0  0  0  0  0
  -33.0708  -22.5227   21.7181 H   0  0  0  0  0  0
  -26.7754  -22.3735   19.0182 H   0  0  0  0  0  0
  -26.1418  -23.9589   19.2625 H   0  0  0  0  0  0
  -26.4178  -22.9276   20.6494 H   0  0  0  0  0  0
  -27.2453  -18.7752   19.9496 H   0  0  0  0  0  0
  -27.8972  -17.2041   19.5377 H   0  0  0  0  0  0
  -28.4584  -18.6375   18.6803 H   0  0  0  0  0  0
  -27.9027  -18.9718   22.3081 H   0  0  0  0  0  0
  -29.4847  -18.4132   22.8548 H   0  0  0  0  0  0
  -28.3099  -17.2684   22.2268 H   0  0  0  0  0  0
  -31.2156  -17.4709   21.1472 H   0  0  0  0  0  0
  -30.8121  -17.3859   19.4717 H   0  0  0  0  0  0
  -29.2950  -25.0982   21.2174 H   0  0  0  0  0  0
  -27.6123  -25.0902   21.4971 H   0  0  0  0  0  0
  -28.6239  -24.0009   18.8337 H   0  0  0  0  0  0
  -28.9746  -15.7204   20.9528 H   0  0  0  0  0  0
  1 25  1  0  0  0
  1 30  2  0  0  0
  1 85  1  0  0  0
  2  3  1  0  0  0
  2 25  1  0  0  0
  2 86  1  0  0  0
  2 87  1  0  0  0
  3  4  1  0  0  0
  3 88  1  0  0  0
  3 89  1  0  0  0
  4  5  1  0  0  0
  4 90  1  0  0  0
  4 91  1  0  0  0
  5  6  1  0  0  0
  5 26  1  0  0  0
  5 92  1  0  0  0
  6 25  1  0  0  0
  6 93  1  0  0  0
  6 94  1  0  0  0
  7  8  2  0  0  0
  7 26  1  0  0  0
  7 29  1  0  0  0
  8  9  1  0  0  0
  8 22  1  0  0  0
  9 10  1  0  0  0
  9 27  2  0  0  0
 10 11  2  0  0  0
 10 15  1  0  0  0
 11 12  1  0  0  0
 11 95  1  0  0  0
 12 13  2  0  0  0
 12 96  1  0  0  0
 13 14  1  0  0  0
 13 31  1  0  0  0
 14 15  2  0  0  0
 14 97  1  0  0  0
 15 98  1  0  0  0
 16 17  2  0  0  0
 16 21  1  0  0  0
 16 31  1  0  0  0
 17 18  1  0  0  0
 17 99  1  0  0  0
 18 19  2  0  0  0
 18100  1  0  0  0
 19 20  1  0  0  0
 19 24  1  0  0  0
 20 21  2  0  0  0
 20101  1  0  0  0
 21 23  1  0  0  0
 22 28  1  0  0  0
 22 32  2  0  0  0
 26 27  1  0  0  0
 28102  1  0  0  0
 28103  1  0  0  0
 29104  1  0  0  0
 29105  1  0  0  0
 33 34  1  0  0  0
 33 66  1  0  0  0
 33 70  2  0  0  0
 34 36  1  0  0  0
 34 59  1  0  0  0
 34106  1  0  0  0
 35 44  2  0  0  0
 35 45  1  0  0  0
 35 68  1  0  0  0
 36 56  1  0  0  0
 36107  1  0  0  0
 37 39  1  0  0  0
 37 47  1  0  0  0
 37 66  1  0  0  0
 37108  1  0  0  0
 38 43  2  0  0  0
 38 46  1  0  0  0
 38 47  1  0  0  0
 39 64  1  0  0  0
 39 67  2  0  0  0
 40 52  1  0  0  0
 40 53  2  0  0  0
 40 58  1  0  0  0
 41109  1  0  0  0
 41110  1  0  0  0
 41111  1  0  0  0
 41 48  1  0  0  0
 42 43  1  0  0  0
 42 66  1  0  0  0
 42112  1  0  0  0
 42113  1  0  0  0
 43 44  1  0  0  0
 44114  1  0  0  0
 45 46  2  0  0  0
 45115  1  0  0  0
 46116  1  0  0  0
 47117  1  0  0  0
 47118  1  0  0  0
 48 56  1  0  0  0
 48 65  1  0  0  0
 48119  1  0  0  0
 49 50  1  0  0  0
 49 53  1  0  0  0
 49 64  1  0  0  0
 49120  1  0  0  0
 50 51  1  0  0  0
 50121  1  0  0  0
 50122  1  0  0  0
 51 52  1  0  0  0
 51123  1  0  0  0
 51124  1  0  0  0
 52125  1  0  0  0
 52126  1  0  0  0
 53 54  1  0  0  0
 54 55  2  0  0  0
 54127  1  0  0  0
 55 57  1  0  0  0
 55128  1  0  0  0
 56 69  2  0  0  0
 57 58  2  0  0  0
 57129  1  0  0  0
 58130  1  0  0  0
 59 60  1  0  0  0
 59 61  1  0  0  0
 59 62  1  0  0  0
 60131  1  0  0  0
 60132  1  0  0  0
 60133  1  0  0  0
 61134  1  0  0  0
 61135  1  0  0  0
 61136  1  0  0  0
 62137  1  0  0  0
 62138  1  0  0  0
 62139  1  0  0  0
 63 65  1  0  0  0
 63140  1  0  0  0
 63141  1  0  0  0
 63142  1  0  0  0
 64143  1  0  0  0
 65144  1  0  0  0
 68 81  1  0  0  0
 71 73  2  0  0  0
 71 74  1  0  0  0
 71145  1  0  0  0
 72 73  1  0  0  0
 72 75  2  0  0  0
 72146  1  0  0  0
 73 82  1  0  0  0
 74 76  1  0  0  0
 74 84  2  0  0  0
 75 83  1  0  0  0
 75 84  1  0  0  0
 76147  1  0  0  0
 76148  1  0  0  0
 76149  1  0  0  0
 77150  1  0  0  0
 77151  1  0  0  0
 77152  1  0  0  0
 77 82  1  0  0  0
 78153  1  0  0  0
 78154  1  0  0  0
 78155  1  0  0  0
 78 83  1  0  0  0
 79 83  1  0  0  0
 79156  1  0  0  0
 79157  1  0  0  0
 79158  1  0  0  0
 80 83  1  0  0  0
 80 85  1  0  0  0
 80159  1  0  0  0
 80160  1  0  0  0
 81 82  1  0  0  0
 81161  1  0  0  0
 81162  1  0  0  0
 82163  1  0  0  0
 85164  1  0  0  0
M  ISO  4   1 100  68 101  81 101  85 100
M  END
> <chiral flag>
0

> <version>
0

> <s_m_source_file>
/data/baiqing/PycharmProjects/Reinvent-master-3.2/result/LINK_invent/BTK/process_docking_weight1_custom_sum_contain_oxygen_bond_distance_aromatic_linkinvent_7_9_3/rearranged_h_0088.sdf

> <i_m_source_file_index>
23

> <r_mmod_Potential_Energy-OPLS-2005>
-49.7993087768555

> <r_mmod_Stretch_Energy-OPLS-2005>
116.457801818848

> <r_mmod_Bend_Energy-OPLS-2005>
167.96549987793

> <r_mmod_Torsional_Energy-OPLS-2005>
242.411499023438

> <r_mmod_Improper_Torsional_Energy-OPLS-2005>
5.7047324180603

> <r_mmod_Van_der_Waal_Energy-OPLS-2005>
143.17106628418

> <r_mmod_Electrostatic_Energy-OPLS-2005>
-571.960021972656

> <r_mmod_Solvation_Energy-OPLS-2005>
-213.501190185547

> <b_mmod_Minimization_Converged-OPLS-2005>
0

> <r_mmod_RMS_Derivative-OPLS-2005>
5.72289848327637

$$$$
23
                    3D
 Structure written by MMmdl.
165173  0  0  1  0            999 V2000
  -30.5920  -14.7070   20.4696 C   0  0  0  0  0  0
  -30.4461  -12.4322   19.4472 C   0  0  0  0  0  0
  -29.5073  -12.5029   18.2213 C   0  0  0  0  0  0
  -28.0328  -12.3308   18.6407 C   0  0  0  0  0  0
  -27.6476  -13.2171   19.8541 C   0  0  2  0  0  0
  -28.6986  -13.1083   20.9807 C   0  0  0  0  0  0
  -25.2528  -13.8124   20.5677 C   0  0  0  0  0  0
  -24.1815  -13.0404   20.9210 C   0  0  0  0  0  0
  -24.6402  -11.6876   20.8768 C   0  0  0  0  0  0
  -23.9067  -10.4277   21.0429 C   0  0  0  0  0  0
  -24.3618   -9.4188   21.9203 C   0  0  0  0  0  0
  -23.6287   -8.2232   22.0766 C   0  0  0  0  0  0
  -22.4279   -8.0279   21.3542 C   0  0  0  0  0  0
  -21.9911   -9.0255   20.4654 C   0  0  0  0  0  0
  -22.7245  -10.2127   20.3069 C   0  0  0  0  0  0
  -21.6845   -6.0729   22.5279 C   0  0  0  0  0  0
  -21.4012   -6.5640   23.8213 C   0  0  0  0  0  0
  -21.3653   -5.6794   24.9180 C   0  0  0  0  0  0
  -21.6045   -4.3055   24.7235 C   0  0  0  0  0  0
  -21.8811   -3.8144   23.4353 C   0  0  0  0  0  0
  -21.9196   -4.6960   22.3403 C   0  0  0  0  0  0
  -22.7840  -13.5205   21.1862 C   0  0  0  0  0  0
  -22.1658   -4.2144   21.0980 F   0  0  0  0  0  0
  -21.5632   -3.4537   25.7743 F   0  0  0  0  0  0
  -30.0010  -13.4687   20.3991 N   0  0  0  0  0  0
  -26.2969  -12.9328   20.3301 N   0  0  0  0  0  0
  -25.9328  -11.6485   20.5780 N   0  0  0  0  0  0
  -22.0484  -12.8212   22.0427 N   0  0  0  0  0  0
  -25.4179  -15.1829   20.4038 N   0  0  0  0  0  0
  -31.7815  -14.8655   20.1846 O   0  0  0  0  0  0
  -21.6633   -6.8879   21.4243 O   0  0  0  0  0  0
  -22.3534  -14.5522   20.6718 O   0  0  0  0  0  0
  -24.6324  -31.8569   23.1998 C   0  0  0  0  0  0
  -25.9161  -32.4754   23.8343 C   0  0  1  0  0  0
  -27.2081  -27.2673   20.1069 C   0  0  0  0  0  0
  -25.5923  -33.8551   24.2256 N   0  0  0  0  0  0
  -23.4277  -30.4829   21.5458 C   0  0  2  0  0  0
  -24.8696  -28.9374   20.1117 C   0  0  0  0  0  0
  -22.7531  -29.4615   22.4917 C   0  0  0  0  0  0
  -18.0319  -28.1394   22.8491 C   0  0  0  0  0  0
  -24.1497  -36.7273   23.2637 C   0  0  0  0  0  0
  -25.9762  -30.7699   21.3824 C   0  0  0  0  0  0
  -26.0472  -29.3985   20.7139 C   0  0  0  0  0  0
  -27.2220  -28.5754   20.6993 C   0  0  0  0  0  0
  -25.9977  -26.8762   19.4866 C   0  0  0  0  0  0
  -24.8482  -27.6820   19.4929 C   0  0  0  0  0  0
  -23.6431  -29.8230   20.1611 C   0  0  0  0  0  0
  -25.4125  -36.3067   24.0318 C   0  0  1  0  0  0
  -20.5921  -28.3724   23.1237 C   0  0  2  0  0  0
  -20.6842  -26.9442   22.5389 C   0  0  0  0  0  0
  -19.5803  -26.6392   21.5218 C   0  0  0  0  0  0
  -18.1982  -26.7942   22.1625 C   0  0  0  0  0  0
  -19.1572  -28.8874   23.2859 C   0  0  0  0  0  0
  -18.9499  -30.1476   23.8884 C   0  0  0  0  0  0
  -17.6501  -30.6608   24.0560 C   0  0  0  0  0  0
  -25.9074  -34.9439   23.5108 C   0  0  0  0  0  0
  -16.5389  -29.9097   23.6331 C   0  0  0  0  0  0
  -16.7305  -28.6504   23.0370 C   0  0  0  0  0  0
  -26.4537  -31.6558   25.0726 C   0  0  0  0  0  0
  -25.3737  -31.3677   26.1423 C   0  0  0  0  0  0
  -27.0413  -30.2978   24.6223 C   0  0  0  0  0  0
  -27.6088  -32.4309   25.7490 C   0  0  0  0  0  0
  -27.5604  -37.1775   24.8461 C   0  0  0  0  0  0
  -21.4239  -29.3056   22.3619 N   0  0  0  0  0  0
  -26.4312  -37.3750   23.9407 N   0  0  0  0  0  0
  -24.6978  -31.0541   22.0977 N   0  0  0  0  0  0
  -23.4235  -28.8149   23.3006 O   0  0  0  0  0  0
  -28.3005  -26.3647   20.1430 O   0  0  0  0  0  0
  -26.5665  -34.8908   22.4688 O   0  0  0  0  0  0
  -23.5459  -32.1367   23.7300 O   0  0  0  0  0  0
  -27.2514  -21.9084   19.7589 C   0  0  0  0  0  0
  -29.4811  -21.0379   20.1196 C   0  0  0  0  0  0
  -28.6056  -22.1901   20.0246 C   0  0  0  0  0  0
  -26.7764  -20.5902   19.5884 C   0  0  0  0  0  0
  -29.0459  -19.6593   19.9393 C   0  0  0  0  0  0
  -27.6581  -19.4737   19.6605 C   0  0  0  0  0  0
  -27.0767  -18.0824   19.4047 C   0  0  0  0  0  0
  -24.9628  -20.5561   17.8040 C   0  0  0  0  0  0
  -31.4947  -18.8030   19.7733 C   0  0  0  0  0  0
  -29.0703  -23.7076   20.1866 C   0  0  0  0  0  0
  -25.2855  -20.4190   19.2983 C   0  0  0  0  0  0
  -29.8840  -17.2424   21.0120 C   0  0  0  0  0  0
  -28.0024  -24.9009   19.9797 C   0  0  0  0  0  0
  -30.0189  -18.3876   19.8871 C   0  0  1  0  0  0
  -29.7365  -15.7651   20.6759 N   0  0  0  0  0  0
  -31.4827  -12.5805   19.1376 H   0  0  0  0  0  0
  -30.4054  -11.4457   19.9128 H   0  0  0  0  0  0
  -29.7800  -11.7400   17.4910 H   0  0  0  0  0  0
  -29.6337  -13.4635   17.7193 H   0  0  0  0  0  0
  -27.8819  -11.2811   18.8942 H   0  0  0  0  0  0
  -27.3724  -12.5370   17.7978 H   0  0  0  0  0  0
  -27.6515  -14.2440   19.4909 H   0  0  0  0  0  0
  -28.7305  -12.0944   21.3840 H   0  0  0  0  0  0
  -28.4421  -13.7564   21.8216 H   0  0  0  0  0  0
  -25.2764   -9.5664   22.4787 H   0  0  0  0  0  0
  -23.9990   -7.4623   22.7497 H   0  0  0  0  0  0
  -21.0830   -8.8782   19.8966 H   0  0  0  0  0  0
  -22.3702  -10.9679   19.6181 H   0  0  0  0  0  0
  -21.1995   -7.6149   23.9713 H   0  0  0  0  0  0
  -21.1482   -6.0526   25.9082 H   0  0  0  0  0  0
  -22.0598   -2.7604   23.2856 H   0  0  0  0  0  0
  -22.4089  -11.9840   22.4779 H   0  0  0  0  0  0
  -21.1123  -13.1262   22.2685 H   0  0  0  0  0  0
  -24.6333  -15.8203   20.4871 H   0  0  0  0  0  0
  -26.2432  -15.6153   20.0160 H   0  0  0  0  0  0
  -26.7231  -32.5405   23.1082 H   0  0  0  0  0  0
  -24.9958  -33.9659   25.0329 H   0  0  0  0  0  0
  -22.7221  -31.3035   21.4065 H   0  0  0  0  0  0
  -23.3761  -35.9608   23.3270 H   0  0  0  0  0  0
  -24.3555  -36.8939   22.2055 H   0  0  0  0  0  0
  -23.7257  -37.6455   23.6699 H   0  0  0  0  0  0
  -26.1300  -31.5414   20.6253 H   0  0  0  0  0  0
  -26.8472  -30.8010   22.0247 H   0  0  0  0  0  0
  -28.1259  -28.9186   21.1846 H   0  0  0  0  0  0
  -25.8854  -25.9205   19.0011 H   0  0  0  0  0  0
  -23.9377  -27.3196   19.0317 H   0  0  0  0  0  0
  -23.7626  -30.5998   19.4056 H   0  0  0  0  0  0
  -22.7622  -29.2534   19.8623 H   0  0  0  0  0  0
  -25.1310  -36.1913   25.0805 H   0  0  0  0  0  0
  -21.0017  -28.3361   24.1351 H   0  0  0  0  0  0
  -20.5818  -26.2343   23.3610 H   0  0  0  0  0  0
  -21.6708  -26.7532   22.1147 H   0  0  0  0  0  0
  -19.6970  -25.6297   21.1261 H   0  0  0  0  0  0
  -19.6739  -27.3218   20.6757 H   0  0  0  0  0  0
  -17.4268  -26.6694   21.4013 H   0  0  0  0  0  0
  -18.0351  -26.0079   22.9000 H   0  0  0  0  0  0
  -19.7974  -30.7277   24.2257 H   0  0  0  0  0  0
  -17.5067  -31.6284   24.5184 H   0  0  0  0  0  0
  -15.5391  -30.3010   23.7660 H   0  0  0  0  0  0
  -15.8698  -28.0825   22.7101 H   0  0  0  0  0  0
  -24.5944  -30.7028   25.7680 H   0  0  0  0  0  0
  -24.8895  -32.2835   26.4827 H   0  0  0  0  0  0
  -25.8022  -30.8832   27.0210 H   0  0  0  0  0  0
  -26.3027  -29.6632   24.1327 H   0  0  0  0  0  0
  -27.4174  -29.7345   25.4764 H   0  0  0  0  0  0
  -27.8861  -30.4218   23.9448 H   0  0  0  0  0  0
  -27.2744  -33.3657   26.2012 H   0  0  0  0  0  0
  -28.3932  -32.6781   25.0318 H   0  0  0  0  0  0
  -28.0743  -31.8464   26.5442 H   0  0  0  0  0  0
  -28.2587  -38.0110   24.7565 H   0  0  0  0  0  0
  -28.1159  -36.2640   24.6257 H   0  0  0  0  0  0
  -27.2311  -37.1359   25.8859 H   0  0  0  0  0  0
  -20.9479  -29.8667   21.6696 H   0  0  0  0  0  0
  -26.0197  -38.2824   24.1405 H   0  0  0  0  0  0
  -26.5397  -22.7161   19.6648 H   0  0  0  0  0  0
  -30.5278  -21.2329   20.3023 H   0  0  0  0  0  0
  -26.4493  -18.0846   18.5151 H   0  0  0  0  0  0
  -26.4591  -17.7855   20.2519 H   0  0  0  0  0  0
  -27.8031  -17.2948   19.2368 H   0  0  0  0  0  0
  -23.8963  -20.4185   17.6177 H   0  0  0  0  0  0
  -25.5007  -19.8170   17.2100 H   0  0  0  0  0  0
  -25.2363  -21.5444   17.4314 H   0  0  0  0  0  0
  -31.6570  -19.4797   18.9324 H   0  0  0  0  0  0
  -32.1334  -17.9326   19.6126 H   0  0  0  0  0  0
  -31.8435  -19.3014   20.6793 H   0  0  0  0  0  0
  -29.8829  -23.8659   19.4751 H   0  0  0  0  0  0
  -29.5135  -23.8104   21.1779 H   0  0  0  0  0  0
  -24.7297  -21.1753   19.8528 H   0  0  0  0  0  0
  -24.9103  -19.4683   19.6759 H   0  0  0  0  0  0
  -28.9811  -17.4780   21.5782 H   0  0  0  0  0  0
  -30.6823  -17.3498   21.7468 H   0  0  0  0  0  0
  -27.1765  -24.6844   20.6599 H   0  0  0  0  0  0
  -27.6281  -24.7595   18.9657 H   0  0  0  0  0  0
  -29.8145  -17.9137   18.9265 H   0  0  0  0  0  0
  -28.7888  -15.4411   20.7870 H   0  0  0  0  0  0
  1 25  1  0  0  0
  1 30  2  0  0  0
  1 85  1  0  0  0
  2  3  1  0  0  0
  2 25  1  0  0  0
  2 86  1  0  0  0
  2 87  1  0  0  0
  3  4  1  0  0  0
  3 88  1  0  0  0
  3 89  1  0  0  0
  4  5  1  0  0  0
  4 90  1  0  0  0
  4 91  1  0  0  0
  5  6  1  0  0  0
  5 26  1  0  0  0
  5 92  1  0  0  0
  6 25  1  0  0  0
  6 93  1  0  0  0
  6 94  1  0  0  0
  7  8  2  0  0  0
  7 26  1  0  0  0
  7 29  1  0  0  0
  8  9  1  0  0  0
  8 22  1  0  0  0
  9 10  1  0  0  0
  9 27  2  0  0  0
 10 11  2  0  0  0
 10 15  1  0  0  0
 11 12  1  0  0  0
 11 95  1  0  0  0
 12 13  2  0  0  0
 12 96  1  0  0  0
 13 14  1  0  0  0
 13 31  1  0  0  0
 14 15  2  0  0  0
 14 97  1  0  0  0
 15 98  1  0  0  0
 16 17  2  0  0  0
 16 21  1  0  0  0
 16 31  1  0  0  0
 17 18  1  0  0  0
 17 99  1  0  0  0
 18 19  2  0  0  0
 18100  1  0  0  0
 19 20  1  0  0  0
 19 24  1  0  0  0
 20 21  2  0  0  0
 20101  1  0  0  0
 21 23  1  0  0  0
 22 28  1  0  0  0
 22 32  2  0  0  0
 26 27  1  0  0  0
 28102  1  0  0  0
 28103  1  0  0  0
 29104  1  0  0  0
 29105  1  0  0  0
 33 34  1  0  0  0
 33 66  1  0  0  0
 33 70  2  0  0  0
 34 36  1  0  0  0
 34 59  1  0  0  0
 34106  1  0  0  0
 35 44  2  0  0  0
 35 45  1  0  0  0
 35 68  1  0  0  0
 36 56  1  0  0  0
 36107  1  0  0  0
 37 39  1  0  0  0
 37 47  1  0  0  0
 37 66  1  0  0  0
 37108  1  0  0  0
 38 43  2  0  0  0
 38 46  1  0  0  0
 38 47  1  0  0  0
 39 64  1  0  0  0
 39 67  2  0  0  0
 40 52  1  0  0  0
 40 53  2  0  0  0
 40 58  1  0  0  0
 41109  1  0  0  0
 41110  1  0  0  0
 41111  1  0  0  0
 41 48  1  0  0  0
 42 43  1  0  0  0
 42 66  1  0  0  0
 42112  1  0  0  0
 42113  1  0  0  0
 43 44  1  0  0  0
 44114  1  0  0  0
 45 46  2  0  0  0
 45115  1  0  0  0
 46116  1  0  0  0
 47117  1  0  0  0
 47118  1  0  0  0
 48 56  1  0  0  0
 48 65  1  0  0  0
 48119  1  0  0  0
 49 50  1  0  0  0
 49 53  1  0  0  0
 49 64  1  0  0  0
 49120  1  0  0  0
 50 51  1  0  0  0
 50121  1  0  0  0
 50122  1  0  0  0
 51 52  1  0  0  0
 51123  1  0  0  0
 51124  1  0  0  0
 52125  1  0  0  0
 52126  1  0  0  0
 53 54  1  0  0  0
 54 55  2  0  0  0
 54127  1  0  0  0
 55 57  1  0  0  0
 55128  1  0  0  0
 56 69  2  0  0  0
 57 58  2  0  0  0
 57129  1  0  0  0
 58130  1  0  0  0
 59 60  1  0  0  0
 59 61  1  0  0  0
 59 62  1  0  0  0
 60131  1  0  0  0
 60132  1  0  0  0
 60133  1  0  0  0
 61134  1  0  0  0
 61135  1  0  0  0
 61136  1  0  0  0
 62137  1  0  0  0
 62138  1  0  0  0
 62139  1  0  0  0
 63 65  1  0  0  0
 63140  1  0  0  0
 63141  1  0  0  0
 63142  1  0  0  0
 64143  1  0  0  0
 65144  1  0  0  0
 68 83  1  0  0  0
 71 73  2  0  0  0
 71 74  1  0  0  0
 71145  1  0  0  0
 72 73  1  0  0  0
 72 75  2  0  0  0
 72146  1  0  0  0
 73 80  1  0  0  0
 74 76  2  0  0  0
 74 81  1  0  0  0
 75 76  1  0  0  0
 75 84  1  0  0  0
 76 77  1  0  0  0
 77147  1  0  0  0
 77148  1  0  0  0
 77149  1  0  0  0
 78 81  1  0  0  0
 78150  1  0  0  0
 78151  1  0  0  0
 78152  1  0  0  0
 79153  1  0  0  0
 79154  1  0  0  0
 79155  1  0  0  0
 79 84  1  0  0  0
 80 83  1  0  0  0
 80156  1  0  0  0
 80157  1  0  0  0
 81158  1  0  0  0
 81159  1  0  0  0
 82 84  1  0  0  0
 82 85  1  0  0  0
 82160  1  0  0  0
 82161  1  0  0  0
 83162  1  0  0  0
 83163  1  0  0  0
 84164  1  0  0  0
 85165  1  0  0  0
M  ISO  4   1 100  68 101  83 101  85 100
M  END
> <chiral flag>
0

> <version>
0

> <s_m_source_file>
/data/baiqing/PycharmProjects/Reinvent-master-3.2/result/LINK_invent/BTK/process_docking_weight1_custom_sum_contain_oxygen_bond_distance_aromatic_linkinvent_7_9_3/rearranged_h_0088.sdf

> <i_m_source_file_index>
24

> <r_mmod_Potential_Energy-OPLS-2005>
127.669448852539

> <r_mmod_Stretch_Energy-OPLS-2005>
117.006683349609

> <r_mmod_Bend_Energy-OPLS-2005>
170.732818603516

> <r_mmod_Torsional_Energy-OPLS-2005>
225.225463867188

> <r_mmod_Improper_Torsional_Energy-OPLS-2005>
5.53504467010498

> <r_mmod_Van_der_Waal_Energy-OPLS-2005>
147.610305786133

> <r_mmod_Electrostatic_Energy-OPLS-2005>
-411.875793457031

> <r_mmod_Solvation_Energy-OPLS-2005>
-203.605209350586

> <b_mmod_Minimization_Converged-OPLS-2005>
0

> <r_mmod_RMS_Derivative-OPLS-2005>
3.0962393283844

$$$$
24
                    3D
 Structure written by MMmdl.
160168  0  0  1  0            999 V2000
  -30.6601  -14.5380   20.4892 C   0  0  0  0  0  0
  -30.4319  -12.3212   19.4503 C   0  0  0  0  0  0
  -29.5096  -12.4918   18.2241 C   0  0  0  0  0  0
  -28.0268  -12.3586   18.6268 C   0  0  0  0  0  0
  -27.6612  -13.2074   19.8748 C   0  0  2  0  0  0
  -28.7059  -13.0256   21.0034 C   0  0  0  0  0  0
  -25.2607  -13.8177   20.5710 C   0  0  0  0  0  0
  -24.1851  -13.0452   20.9192 C   0  0  0  0  0  0
  -24.6405  -11.6919   20.8755 C   0  0  0  0  0  0
  -23.9062  -10.4308   21.0416 C   0  0  0  0  0  0
  -24.3619   -9.4223   21.9193 C   0  0  0  0  0  0
  -23.6294   -8.2257   22.0766 C   0  0  0  0  0  0
  -22.4275   -8.0294   21.3547 C   0  0  0  0  0  0
  -21.9915   -9.0277   20.4659 C   0  0  0  0  0  0
  -22.7241  -10.2160   20.3062 C   0  0  0  0  0  0
  -21.6865   -6.0744   22.5273 C   0  0  0  0  0  0
  -21.4016   -6.5643   23.8209 C   0  0  0  0  0  0
  -21.3656   -5.6791   24.9176 C   0  0  0  0  0  0
  -21.6042   -4.3054   24.7221 C   0  0  0  0  0  0
  -21.8818   -3.8152   23.4341 C   0  0  0  0  0  0
  -21.9206   -4.6974   22.3401 C   0  0  0  0  0  0
  -22.7871  -13.5271   21.1820 C   0  0  0  0  0  0
  -22.1669   -4.2166   21.0977 F   0  0  0  0  0  0
  -21.5636   -3.4524   25.7728 F   0  0  0  0  0  0
  -30.0328  -13.3291   20.4462 N   0  0  0  0  0  0
  -26.3033  -12.9319   20.3372 N   0  0  0  0  0  0
  -25.9331  -11.6493   20.5779 N   0  0  0  0  0  0
  -22.0483  -12.8289   22.0379 N   0  0  0  0  0  0
  -25.4348  -15.1901   20.4110 N   0  0  0  0  0  0
  -31.8176  -14.7002   20.0924 O   0  0  0  0  0  0
  -21.6648   -6.8883   21.4234 O   0  0  0  0  0  0
  -22.3572  -14.5575   20.6656 O   0  0  0  0  0  0
  -24.6204  -31.8666   23.2065 C   0  0  0  0  0  0
  -25.9067  -32.4817   23.8380 C   0  0  1  0  0  0
  -27.2269  -27.3795   20.0906 C   0  0  0  0  0  0
  -25.5901  -33.8620   24.2302 N   0  0  0  0  0  0
  -23.4098  -30.4901   21.5509 C   0  0  2  0  0  0
  -24.8506  -28.9523   20.1133 C   0  0  0  0  0  0
  -22.7441  -29.4648   22.4984 C   0  0  0  0  0  0
  -18.0275  -28.1366   22.8491 C   0  0  0  0  0  0
  -24.1472  -36.7318   23.2642 C   0  0  0  0  0  0
  -25.9451  -30.8114   21.3704 C   0  0  0  0  0  0
  -26.0153  -29.4442   20.7116 C   0  0  0  0  0  0
  -27.2023  -28.6667   20.6938 C   0  0  0  0  0  0
  -26.0341  -26.9222   19.4788 C   0  0  0  0  0  0
  -24.8589  -27.6945   19.4928 C   0  0  0  0  0  0
  -23.6171  -29.8267   20.1643 C   0  0  0  0  0  0
  -25.4104  -36.3114   24.0332 C   0  0  1  0  0  0
  -20.5866  -28.3658   23.1313 C   0  0  2  0  0  0
  -20.6756  -26.9394   22.5416 C   0  0  0  0  0  0
  -19.5728  -26.6374   21.5209 C   0  0  0  0  0  0
  -18.1912  -26.7908   22.1622 C   0  0  0  0  0  0
  -19.1527  -28.8827   23.2893 C   0  0  0  0  0  0
  -18.9452  -30.1434   23.8906 C   0  0  0  0  0  0
  -17.6452  -30.6575   24.0559 C   0  0  0  0  0  0
  -25.9048  -34.9480   23.5119 C   0  0  0  0  0  0
  -16.5347  -29.9077   23.6322 C   0  0  0  0  0  0
  -16.7266  -28.6491   23.0353 C   0  0  0  0  0  0
  -26.4465  -31.6616   25.0740 C   0  0  0  0  0  0
  -25.3713  -31.3773   26.1481 C   0  0  0  0  0  0
  -27.0297  -30.3042   24.6180 C   0  0  0  0  0  0
  -27.6039  -32.4351   25.7497 C   0  0  0  0  0  0
  -27.5580  -37.1819   24.8462 C   0  0  0  0  0  0
  -21.4160  -29.3029   22.3720 N   0  0  0  0  0  0
  -26.4288  -37.3810   23.9409 N   0  0  0  0  0  0
  -24.6768  -31.0717   22.1000 N   0  0  0  0  0  0
  -23.4187  -28.8196   23.3051 O   0  0  0  0  0  0
  -28.4071  -26.6397   20.1256 O   0  0  0  0  0  0
  -26.5622  -34.8941   22.4692 O   0  0  0  0  0  0
  -23.5390  -32.1435   23.7438 O   0  0  0  0  0  0
  -28.9779  -19.1623   20.5502 C   0  0  0  0  0  0
  -29.9151  -18.1660   20.3568 C   0  0  0  0  0  0
  -30.9557  -20.0422   21.0161 C   0  0  0  0  0  0
  -32.0814  -20.9590   21.3836 C   0  0  0  0  0  0
  -30.1729  -24.6767   21.5061 C   0  0  0  0  0  0
  -29.8257  -16.7651   19.7758 C   0  0  0  0  0  0
  -29.1031  -22.7543   20.2382 C   0  0  0  0  0  0
  -29.0342  -21.6266   21.3170 C   0  0  0  0  0  0
  -28.4947  -25.2544   19.6725 C   0  0  0  0  0  0
  -28.8981  -24.2192   20.7767 C   0  0  2  0  0  0
  -29.6379  -20.3095   20.9477 N   0  0  0  0  0  0
  -31.1126  -18.7554   20.6700 N   0  3  0  0  0  0
  -29.8465  -15.5990   20.6870 N   0  0  0  0  0  0
  -31.4776  -12.4200   19.1547 H   0  0  0  0  0  0
  -30.3377  -11.3183   19.8696 H   0  0  0  0  0  0
  -29.7559  -11.7509   17.4621 H   0  0  0  0  0  0
  -29.6847  -13.4682   17.7662 H   0  0  0  0  0  0
  -27.8354  -11.3032   18.8275 H   0  0  0  0  0  0
  -27.3853  -12.6297   17.7881 H   0  0  0  0  0  0
  -27.6902  -14.2470   19.5537 H   0  0  0  0  0  0
  -28.6903  -12.0000   21.3776 H   0  0  0  0  0  0
  -28.4740  -13.6594   21.8623 H   0  0  0  0  0  0
  -25.2775   -9.5719   22.4745 H   0  0  0  0  0  0
  -24.0032   -7.4654   22.7475 H   0  0  0  0  0  0
  -21.0857   -8.8776   19.8957 H   0  0  0  0  0  0
  -22.3696  -10.9689   19.6157 H   0  0  0  0  0  0
  -21.1976   -7.6142   23.9713 H   0  0  0  0  0  0
  -21.1485   -6.0517   25.9075 H   0  0  0  0  0  0
  -22.0599   -2.7612   23.2829 H   0  0  0  0  0  0
  -22.4075  -11.9972   22.4818 H   0  0  0  0  0  0
  -21.1084  -13.1306   22.2498 H   0  0  0  0  0  0
  -24.6655  -15.8440   20.5132 H   0  0  0  0  0  0
  -26.2794  -15.6297   20.0666 H   0  0  0  0  0  0
  -26.7151  -32.5503   23.1153 H   0  0  0  0  0  0
  -25.0007  -33.9772   25.0414 H   0  0  0  0  0  0
  -22.7010  -31.3096   21.4140 H   0  0  0  0  0  0
  -23.3742  -35.9647   23.3316 H   0  0  0  0  0  0
  -24.3557  -36.8933   22.2054 H   0  0  0  0  0  0
  -23.7207  -37.6521   23.6658 H   0  0  0  0  0  0
  -26.0747  -31.5810   20.6079 H   0  0  0  0  0  0
  -26.8271  -30.8539   21.9981 H   0  0  0  0  0  0
  -28.1024  -29.0472   21.1553 H   0  0  0  0  0  0
  -25.9573  -25.9751   18.9716 H   0  0  0  0  0  0
  -23.9650  -27.3134   19.0176 H   0  0  0  0  0  0
  -23.7324  -30.6043   19.4091 H   0  0  0  0  0  0
  -22.7369  -29.2548   19.8644 H   0  0  0  0  0  0
  -25.1280  -36.1993   25.0831 H   0  0  0  0  0  0
  -20.9958  -28.3211   24.1427 H   0  0  0  0  0  0
  -20.5638  -26.2272   23.3601 H   0  0  0  0  0  0
  -21.6631  -26.7410   22.1222 H   0  0  0  0  0  0
  -19.6891  -25.6285   21.1228 H   0  0  0  0  0  0
  -19.6667  -27.3191   20.6738 H   0  0  0  0  0  0
  -17.4185  -26.6660   21.4024 H   0  0  0  0  0  0
  -18.0319  -26.0041   22.9008 H   0  0  0  0  0  0
  -19.7934  -30.7240   24.2286 H   0  0  0  0  0  0
  -17.5014  -31.6257   24.5150 H   0  0  0  0  0  0
  -15.5348  -30.2982   23.7637 H   0  0  0  0  0  0
  -15.8662  -28.0807   22.7070 H   0  0  0  0  0  0
  -24.5850  -30.7163   25.7819 H   0  0  0  0  0  0
  -24.8942  -32.2952   26.4928 H   0  0  0  0  0  0
  -25.8027  -30.8930   27.0243 H   0  0  0  0  0  0
  -26.2862  -29.6826   24.1177 H   0  0  0  0  0  0
  -27.3958  -29.7281   25.4686 H   0  0  0  0  0  0
  -27.8749  -30.4337   23.9418 H   0  0  0  0  0  0
  -27.2646  -33.3647   26.2083 H   0  0  0  0  0  0
  -28.3825  -32.6929   25.0309 H   0  0  0  0  0  0
  -28.0723  -31.8482   26.5402 H   0  0  0  0  0  0
  -28.2609  -38.0108   24.7521 H   0  0  0  0  0  0
  -28.1063  -36.2647   24.6270 H   0  0  0  0  0  0
  -27.2305  -37.1449   25.8866 H   0  0  0  0  0  0
  -20.9326  -29.8790   21.6976 H   0  0  0  0  0  0
  -26.0180  -38.2897   24.1417 H   0  0  0  0  0  0
  -27.9051  -19.1443   20.4074 H   0  0  0  0  0  0
  -31.7046  -21.8919   21.7966 H   0  0  0  0  0  0
  -32.6652  -21.1657   20.4865 H   0  0  0  0  0  0
  -32.7024  -20.4538   22.1224 H   0  0  0  0  0  0
  -30.3355  -24.1102   22.4238 H   0  0  0  0  0  0
  -30.1207  -25.7270   21.7850 H   0  0  0  0  0  0
  -31.0520  -24.5423   20.8754 H   0  0  0  0  0  0
  -30.6050  -16.6773   19.0164 H   0  0  0  0  0  0
  -28.8911  -16.7049   19.2143 H   0  0  0  0  0  0
  -28.3542  -22.5355   19.4777 H   0  0  0  0  0  0
  -30.0599  -22.7026   19.7151 H   0  0  0  0  0  0
  -27.9927  -21.4469   21.5839 H   0  0  0  0  0  0
  -29.5095  -21.9486   22.2432 H   0  0  0  0  0  0
  -27.5972  -24.8762   19.1970 H   0  0  0  0  0  0
  -29.2475  -25.2332   18.8863 H   0  0  0  0  0  0
  -28.0834  -24.2011   21.5018 H   0  0  0  0  0  0
  -32.0124  -18.2903   20.6144 H   0  0  0  0  0  0
  -28.9571  -15.3777   21.1051 H   0  0  0  0  0  0
  1 25  1  0  0  0
  1 30  2  0  0  0
  1 83  1  0  0  0
  2  3  1  0  0  0
  2 25  1  0  0  0
  2 84  1  0  0  0
  2 85  1  0  0  0
  3  4  1  0  0  0
  3 86  1  0  0  0
  3 87  1  0  0  0
  4  5  1  0  0  0
  4 88  1  0  0  0
  4 89  1  0  0  0
  5  6  1  0  0  0
  5 26  1  0  0  0
  5 90  1  0  0  0
  6 25  1  0  0  0
  6 91  1  0  0  0
  6 92  1  0  0  0
  7  8  2  0  0  0
  7 26  1  0  0  0
  7 29  1  0  0  0
  8  9  1  0  0  0
  8 22  1  0  0  0
  9 10  1  0  0  0
  9 27  2  0  0  0
 10 11  2  0  0  0
 10 15  1  0  0  0
 11 12  1  0  0  0
 11 93  1  0  0  0
 12 13  2  0  0  0
 12 94  1  0  0  0
 13 14  1  0  0  0
 13 31  1  0  0  0
 14 15  2  0  0  0
 14 95  1  0  0  0
 15 96  1  0  0  0
 16 17  2  0  0  0
 16 21  1  0  0  0
 16 31  1  0  0  0
 17 18  1  0  0  0
 17 97  1  0  0  0
 18 19  2  0  0  0
 18 98  1  0  0  0
 19 20  1  0  0  0
 19 24  1  0  0  0
 20 21  2  0  0  0
 20 99  1  0  0  0
 21 23  1  0  0  0
 22 28  1  0  0  0
 22 32  2  0  0  0
 26 27  1  0  0  0
 28100  1  0  0  0
 28101  1  0  0  0
 29102  1  0  0  0
 29103  1  0  0  0
 33 34  1  0  0  0
 33 66  1  0  0  0
 33 70  2  0  0  0
 34 36  1  0  0  0
 34 59  1  0  0  0
 34104  1  0  0  0
 35 44  2  0  0  0
 35 45  1  0  0  0
 35 68  1  0  0  0
 36 56  1  0  0  0
 36105  1  0  0  0
 37 39  1  0  0  0
 37 47  1  0  0  0
 37 66  1  0  0  0
 37106  1  0  0  0
 38 43  2  0  0  0
 38 46  1  0  0  0
 38 47  1  0  0  0
 39 64  1  0  0  0
 39 67  2  0  0  0
 40 52  1  0  0  0
 40 53  2  0  0  0
 40 58  1  0  0  0
 41107  1  0  0  0
 41108  1  0  0  0
 41109  1  0  0  0
 41 48  1  0  0  0
 42 43  1  0  0  0
 42 66  1  0  0  0
 42110  1  0  0  0
 42111  1  0  0  0
 43 44  1  0  0  0
 44112  1  0  0  0
 45 46  2  0  0  0
 45113  1  0  0  0
 46114  1  0  0  0
 47115  1  0  0  0
 47116  1  0  0  0
 48 56  1  0  0  0
 48 65  1  0  0  0
 48117  1  0  0  0
 49 50  1  0  0  0
 49 53  1  0  0  0
 49 64  1  0  0  0
 49118  1  0  0  0
 50 51  1  0  0  0
 50119  1  0  0  0
 50120  1  0  0  0
 51 52  1  0  0  0
 51121  1  0  0  0
 51122  1  0  0  0
 52123  1  0  0  0
 52124  1  0  0  0
 53 54  1  0  0  0
 54 55  2  0  0  0
 54125  1  0  0  0
 55 57  1  0  0  0
 55126  1  0  0  0
 56 69  2  0  0  0
 57 58  2  0  0  0
 57127  1  0  0  0
 58128  1  0  0  0
 59 60  1  0  0  0
 59 61  1  0  0  0
 59 62  1  0  0  0
 60129  1  0  0  0
 60130  1  0  0  0
 60131  1  0  0  0
 61132  1  0  0  0
 61133  1  0  0  0
 61134  1  0  0  0
 62135  1  0  0  0
 62136  1  0  0  0
 62137  1  0  0  0
 63 65  1  0  0  0
 63138  1  0  0  0
 63139  1  0  0  0
 63140  1  0  0  0
 64141  1  0  0  0
 65142  1  0  0  0
 68 79  1  0  0  0
 71 72  2  0  0  0
 71 81  1  0  0  0
 71143  1  0  0  0
 72 76  1  0  0  0
 72 82  1  0  0  0
 73 74  1  0  0  0
 73 81  1  0  0  0
 73 82  2  0  0  0
 74144  1  0  0  0
 74145  1  0  0  0
 74146  1  0  0  0
 75147  1  0  0  0
 75148  1  0  0  0
 75149  1  0  0  0
 75 80  1  0  0  0
 76 83  1  0  0  0
 76150  1  0  0  0
 76151  1  0  0  0
 77 78  1  0  0  0
 77 80  1  0  0  0
 77152  1  0  0  0
 77153  1  0  0  0
 78 81  1  0  0  0
 78154  1  0  0  0
 78155  1  0  0  0
 79 80  1  0  0  0
 79156  1  0  0  0
 79157  1  0  0  0
 80158  1  0  0  0
 82159  1  0  0  0
 83160  1  0  0  0
M  CHG  1  82   1
M  ISO  4   1 100  68 101  79 101  83 100
M  END
> <chiral flag>
0

> <version>
0

> <s_m_source_file>
/data/baiqing/PycharmProjects/Reinvent-master-3.2/result/LINK_invent/BTK/process_docking_weight1_custom_sum_contain_oxygen_bond_distance_aromatic_linkinvent_7_9_3/rearranged_h_0088.sdf

> <i_m_source_file_index>
25

> <r_mmod_Potential_Energy-OPLS-2005>
-151.112991333008

> <r_mmod_Stretch_Energy-OPLS-2005>
47.2769432067871

> <r_mmod_Bend_Energy-OPLS-2005>
119.747695922852

> <r_mmod_Torsional_Energy-OPLS-2005>
242.59977722168

> <r_mmod_Improper_Torsional_Energy-OPLS-2005>
11.1667919158936

> <r_mmod_Van_der_Waal_Energy-OPLS-2005>
124.952392578125

> <r_mmod_Electrostatic_Energy-OPLS-2005>
-301.333251953125

> <r_mmod_Solvation_Energy-OPLS-2005>
-419.431854248047

> <b_mmod_Minimization_Converged-OPLS-2005>
0

> <r_mmod_RMS_Derivative-OPLS-2005>
3.07006931304932

$$$$
25
                    3D
 Structure written by MMmdl.
167174  0  0  1  0            999 V2000
  -30.5759  -14.6793   20.5141 C   0  0  0  0  0  0
  -30.4272  -12.4221   19.4630 C   0  0  0  0  0  0
  -29.5017  -12.5179   18.2299 C   0  0  0  0  0  0
  -28.0296  -12.3303   18.6370 C   0  0  0  0  0  0
  -27.6397  -13.2142   19.8502 C   0  0  2  0  0  0
  -28.6708  -13.0936   20.9940 C   0  0  0  0  0  0
  -25.2530  -13.8145   20.5726 C   0  0  0  0  0  0
  -24.1795  -13.0452   20.9133 C   0  0  0  0  0  0
  -24.6307  -11.6881   20.8652 C   0  0  0  0  0  0
  -23.8981  -10.4318   21.0361 C   0  0  0  0  0  0
  -24.3577   -9.4268   21.9157 C   0  0  0  0  0  0
  -23.6290   -8.2280   22.0749 C   0  0  0  0  0  0
  -22.4275   -8.0274   21.3537 C   0  0  0  0  0  0
  -21.9868   -9.0215   20.4650 C   0  0  0  0  0  0
  -22.7138  -10.2122   20.3030 C   0  0  0  0  0  0
  -21.6871   -6.0748   22.5273 C   0  0  0  0  0  0
  -21.4030   -6.5660   23.8197 C   0  0  0  0  0  0
  -21.3651   -5.6811   24.9161 C   0  0  0  0  0  0
  -21.6031   -4.3062   24.7225 C   0  0  0  0  0  0
  -21.8822   -3.8151   23.4356 C   0  0  0  0  0  0
  -21.9224   -4.6974   22.3412 C   0  0  0  0  0  0
  -22.7846  -13.5253   21.1853 C   0  0  0  0  0  0
  -22.1697   -4.2158   21.0989 F   0  0  0  0  0  0
  -21.5603   -3.4556   25.7742 F   0  0  0  0  0  0
  -29.9881  -13.4404   20.4435 N   0  0  0  0  0  0
  -26.2883  -12.9303   20.3178 N   0  0  0  0  0  0
  -25.9206  -11.6457   20.5600 N   0  0  0  0  0  0
  -22.0522  -12.8211   22.0405 N   0  0  0  0  0  0
  -25.4387  -15.1902   20.4419 N   0  0  0  0  0  0
  -31.7295  -14.8534   20.1078 O   0  0  0  0  0  0
  -21.6657   -6.8865   21.4227 O   0  0  0  0  0  0
  -22.3543  -14.5599   20.6752 O   0  0  0  0  0  0
  -24.6275  -31.8603   23.2012 C   0  0  0  0  0  0
  -25.9100  -32.4790   23.8360 C   0  0  1  0  0  0
  -27.2127  -27.2932   20.1348 C   0  0  0  0  0  0
  -25.5890  -33.8588   24.2229 N   0  0  0  0  0  0
  -23.4219  -30.4873   21.5444 C   0  0  2  0  0  0
  -24.8676  -28.9416   20.1056 C   0  0  0  0  0  0
  -22.7476  -29.4661   22.4924 C   0  0  0  0  0  0
  -18.0344  -28.1327   22.8493 C   0  0  0  0  0  0
  -24.1499  -36.7311   23.2642 C   0  0  0  0  0  0
  -25.9699  -30.7803   21.3831 C   0  0  0  0  0  0
  -26.0374  -29.4111   20.7165 C   0  0  0  0  0  0
  -27.2110  -28.5961   20.7229 C   0  0  0  0  0  0
  -26.0310  -26.9007   19.4687 C   0  0  0  0  0  0
  -24.8681  -27.6931   19.4690 C   0  0  0  0  0  0
  -23.6333  -29.8196   20.1607 C   0  0  0  0  0  0
  -25.4129  -36.3079   24.0317 C   0  0  1  0  0  0
  -20.5904  -28.3715   23.1207 C   0  0  2  0  0  0
  -20.6952  -26.9464   22.5185 C   0  0  0  0  0  0
  -19.5810  -26.6372   21.5166 C   0  0  0  0  0  0
  -18.2072  -26.7800   22.1762 C   0  0  0  0  0  0
  -19.1550  -28.8896   23.2802 C   0  0  0  0  0  0
  -18.9459  -30.1557   23.8695 C   0  0  0  0  0  0
  -17.6430  -30.6639   24.0330 C   0  0  0  0  0  0
  -25.9061  -34.9454   23.5065 C   0  0  0  0  0  0
  -16.5357  -29.9026   23.6234 C   0  0  0  0  0  0
  -16.7316  -28.6388   23.0359 C   0  0  0  0  0  0
  -26.4453  -31.6618   25.0755 C   0  0  0  0  0  0
  -25.3677  -31.3819   26.1483 C   0  0  0  0  0  0
  -27.0285  -30.3022   24.6257 C   0  0  0  0  0  0
  -27.5952  -32.4411   25.7546 C   0  0  0  0  0  0
  -27.5589  -37.1786   24.8449 C   0  0  0  0  0  0
  -21.4175  -29.3182   22.3712 N   0  0  0  0  0  0
  -26.4304  -37.3763   23.9390 N   0  0  0  0  0  0
  -24.6920  -31.0615   22.0963 N   0  0  0  0  0  0
  -23.4172  -28.8108   23.2939 O   0  0  0  0  0  0
  -28.3036  -26.4044   20.2391 O   0  0  0  0  0  0
  -26.5648  -34.8913   22.4645 O   0  0  0  0  0  0
  -23.5405  -32.1411   23.7294 O   0  0  0  0  0  0
  -25.3424  -19.3130   19.3753 C   0  0  0  0  0  0
  -26.4883  -18.9112   22.3582 C   0  0  0  0  0  0
  -30.9676  -18.5893   22.1657 C   0  0  0  0  0  0
  -26.7563  -18.8828   19.8125 C   0  0  0  0  0  0
  -28.6154  -22.2977   20.1000 C   0  0  0  0  0  0
  -28.9496  -23.7729   20.6439 C   0  0  0  0  0  0
  -29.4115  -20.9444   20.5066 C   0  0  0  0  0  0
  -29.7360  -17.1862   20.4242 C   0  0  0  0  0  0
  -28.0773  -24.9460   19.9838 C   0  0  0  0  0  0
  -27.2046  -19.5366   21.1400 C   0  0  2  0  0  0
  -29.5713  -18.3087   21.5604 C   0  0  1  0  0  0
  -28.7552  -19.7102   21.3308 C   0  0  1  0  0  0
  -29.7438  -15.7242   20.8474 N   0  0  0  0  0  0
  -31.4685  -12.5555   19.1666 H   0  0  0  0  0  0
  -30.3673  -11.4291   19.9078 H   0  0  0  0  0  0
  -29.7772  -11.7728   17.4819 H   0  0  0  0  0  0
  -29.6294  -13.4906   17.7569 H   0  0  0  0  0  0
  -27.8878  -11.2773   18.8836 H   0  0  0  0  0  0
  -27.3683  -12.5267   17.7919 H   0  0  0  0  0  0
  -27.6467  -14.2423   19.4865 H   0  0  0  0  0  0
  -28.6771  -12.0831   21.4047 H   0  0  0  0  0  0
  -28.3895  -13.7472   21.8211 H   0  0  0  0  0  0
  -25.2720   -9.5826   22.4734 H   0  0  0  0  0  0
  -24.0027   -7.4710   22.7491 H   0  0  0  0  0  0
  -21.0795   -8.8708   19.8984 H   0  0  0  0  0  0
  -22.3536  -10.9670   19.6156 H   0  0  0  0  0  0
  -21.2018   -7.6167   23.9686 H   0  0  0  0  0  0
  -21.1451   -6.0564   25.9061 H   0  0  0  0  0  0
  -22.0605   -2.7630   23.2862 H   0  0  0  0  0  0
  -22.4178  -11.9823   22.4642 H   0  0  0  0  0  0
  -21.1184  -13.1278   22.2738 H   0  0  0  0  0  0
  -24.6934  -15.8597   20.6027 H   0  0  0  0  0  0
  -26.3212  -15.6219   20.2083 H   0  0  0  0  0  0
  -26.7179  -32.5436   23.1111 H   0  0  0  0  0  0
  -24.9980  -33.9735   25.0326 H   0  0  0  0  0  0
  -22.7218  -31.3146   21.4007 H   0  0  0  0  0  0
  -23.3744  -35.9653   23.3316 H   0  0  0  0  0  0
  -24.3591  -36.8931   22.2047 H   0  0  0  0  0  0
  -23.7258  -37.6510   23.6689 H   0  0  0  0  0  0
  -26.1153  -31.5444   20.6209 H   0  0  0  0  0  0
  -26.8431  -30.8146   22.0225 H   0  0  0  0  0  0
  -28.0987  -28.9443   21.2260 H   0  0  0  0  0  0
  -25.9645  -25.9554   18.9557 H   0  0  0  0  0  0
  -23.9710  -27.3298   18.9827 H   0  0  0  0  0  0
  -23.7349  -30.5934   19.3992 H   0  0  0  0  0  0
  -22.7582  -29.2366   19.8743 H   0  0  0  0  0  0
  -25.1311  -36.1930   25.0811 H   0  0  0  0  0  0
  -20.9915  -28.3265   24.1342 H   0  0  0  0  0  0
  -20.6261  -26.2243   23.3292 H   0  0  0  0  0  0
  -21.6733  -26.7752   22.0657 H   0  0  0  0  0  0
  -19.6990  -25.6323   21.1112 H   0  0  0  0  0  0
  -19.6575  -27.3190   20.6697 H   0  0  0  0  0  0
  -17.4256  -26.6168   21.4330 H   0  0  0  0  0  0
  -18.0769  -26.0042   22.9339 H   0  0  0  0  0  0
  -19.7883  -30.7527   24.1909 H   0  0  0  0  0  0
  -17.4961  -31.6401   24.4726 H   0  0  0  0  0  0
  -15.5333  -30.2902   23.7575 H   0  0  0  0  0  0
  -15.8771  -28.0576   22.7186 H   0  0  0  0  0  0
  -24.5714  -30.7359   25.7788 H   0  0  0  0  0  0
  -24.9090  -32.3057   26.5031 H   0  0  0  0  0  0
  -25.7980  -30.8832   27.0179 H   0  0  0  0  0  0
  -26.2882  -29.6808   24.1220 H   0  0  0  0  0  0
  -27.3851  -29.7264   25.4805 H   0  0  0  0  0  0
  -27.8814  -30.4278   23.9587 H   0  0  0  0  0  0
  -27.2425  -33.3605   26.2242 H   0  0  0  0  0  0
  -28.3690  -32.7176   25.0376 H   0  0  0  0  0  0
  -28.0719  -31.8519   26.5380 H   0  0  0  0  0  0
  -28.2577  -38.0103   24.7473 H   0  0  0  0  0  0
  -28.1105  -36.2616   24.6309 H   0  0  0  0  0  0
  -27.2306  -37.1467   25.8851 H   0  0  0  0  0  0
  -20.9288  -29.9175   21.7192 H   0  0  0  0  0  0
  -26.0197  -38.2832   24.1401 H   0  0  0  0  0  0
  -25.0967  -18.9008   18.3967 H   0  0  0  0  0  0
  -25.2769  -20.4014   19.3000 H   0  0  0  0  0  0
  -24.5703  -18.9776   20.0699 H   0  0  0  0  0  0
  -25.4209  -19.1488   22.3496 H   0  0  0  0  0  0
  -26.8683  -19.3058   23.3004 H   0  0  0  0  0  0
  -26.6001  -17.8282   22.3968 H   0  0  0  0  0  0
  -31.4534  -17.6622   22.4761 H   0  0  0  0  0  0
  -30.9318  -19.2224   23.0530 H   0  0  0  0  0  0
  -31.6237  -19.0697   21.4373 H   0  0  0  0  0  0
  -27.4543  -19.1245   19.0120 H   0  0  0  0  0  0
  -26.7739  -17.7960   19.9083 H   0  0  0  0  0  0
  -28.7646  -22.3853   19.0207 H   0  0  0  0  0  0
  -27.5414  -22.1650   20.1809 H   0  0  0  0  0  0
  -28.7992  -23.7932   21.7257 H   0  0  0  0  0  0
  -30.0079  -23.9824   20.4849 H   0  0  0  0  0  0
  -30.3426  -21.2415   20.9904 H   0  0  0  0  0  0
  -29.7437  -20.5106   19.5640 H   0  0  0  0  0  0
  -30.6207  -17.4008   19.8252 H   0  0  0  0  0  0
  -28.9165  -17.2711   19.7146 H   0  0  0  0  0  0
  -27.0575  -24.6849   20.2682 H   0  0  0  0  0  0
  -28.1276  -24.8110   18.9007 H   0  0  0  0  0  0
  -26.7901  -20.5412   21.1374 H   0  0  0  0  0  0
  -29.0119  -17.8010   22.3507 H   0  0  0  0  0  0
  -28.7834  -20.1337   22.3346 H   0  0  0  0  0  0
  -28.8500  -15.3956   21.1842 H   0  0  0  0  0  0
  1 25  1  0  0  0
  1 30  2  0  0  0
  1 83  1  0  0  0
  2  3  1  0  0  0
  2 25  1  0  0  0
  2 84  1  0  0  0
  2 85  1  0  0  0
  3  4  1  0  0  0
  3 86  1  0  0  0
  3 87  1  0  0  0
  4  5  1  0  0  0
  4 88  1  0  0  0
  4 89  1  0  0  0
  5  6  1  0  0  0
  5 26  1  0  0  0
  5 90  1  0  0  0
  6 25  1  0  0  0
  6 91  1  0  0  0
  6 92  1  0  0  0
  7  8  2  0  0  0
  7 26  1  0  0  0
  7 29  1  0  0  0
  8  9  1  0  0  0
  8 22  1  0  0  0
  9 10  1  0  0  0
  9 27  2  0  0  0
 10 11  2  0  0  0
 10 15  1  0  0  0
 11 12  1  0  0  0
 11 93  1  0  0  0
 12 13  2  0  0  0
 12 94  1  0  0  0
 13 14  1  0  0  0
 13 31  1  0  0  0
 14 15  2  0  0  0
 14 95  1  0  0  0
 15 96  1  0  0  0
 16 17  2  0  0  0
 16 21  1  0  0  0
 16 31  1  0  0  0
 17 18  1  0  0  0
 17 97  1  0  0  0
 18 19  2  0  0  0
 18 98  1  0  0  0
 19 20  1  0  0  0
 19 24  1  0  0  0
 20 21  2  0  0  0
 20 99  1  0  0  0
 21 23  1  0  0  0
 22 28  1  0  0  0
 22 32  2  0  0  0
 26 27  1  0  0  0
 28100  1  0  0  0
 28101  1  0  0  0
 29102  1  0  0  0
 29103  1  0  0  0
 33 34  1  0  0  0
 33 66  1  0  0  0
 33 70  2  0  0  0
 34 36  1  0  0  0
 34 59  1  0  0  0
 34104  1  0  0  0
 35 44  2  0  0  0
 35 45  1  0  0  0
 35 68  1  0  0  0
 36 56  1  0  0  0
 36105  1  0  0  0
 37 39  1  0  0  0
 37 47  1  0  0  0
 37 66  1  0  0  0
 37106  1  0  0  0
 38 43  2  0  0  0
 38 46  1  0  0  0
 38 47  1  0  0  0
 39 64  1  0  0  0
 39 67  2  0  0  0
 40 52  1  0  0  0
 40 53  2  0  0  0
 40 58  1  0  0  0
 41107  1  0  0  0
 41108  1  0  0  0
 41109  1  0  0  0
 41 48  1  0  0  0
 42 43  1  0  0  0
 42 66  1  0  0  0
 42110  1  0  0  0
 42111  1  0  0  0
 43 44  1  0  0  0
 44112  1  0  0  0
 45 46  2  0  0  0
 45113  1  0  0  0
 46114  1  0  0  0
 47115  1  0  0  0
 47116  1  0  0  0
 48 56  1  0  0  0
 48 65  1  0  0  0
 48117  1  0  0  0
 49 50  1  0  0  0
 49 53  1  0  0  0
 49 64  1  0  0  0
 49118  1  0  0  0
 50 51  1  0  0  0
 50119  1  0  0  0
 50120  1  0  0  0
 51 52  1  0  0  0
 51121  1  0  0  0
 51122  1  0  0  0
 52123  1  0  0  0
 52124  1  0  0  0
 53 54  1  0  0  0
 54 55  2  0  0  0
 54125  1  0  0  0
 55 57  1  0  0  0
 55126  1  0  0  0
 56 69  2  0  0  0
 57 58  2  0  0  0
 57127  1  0  0  0
 58128  1  0  0  0
 59 60  1  0  0  0
 59 61  1  0  0  0
 59 62  1  0  0  0
 60129  1  0  0  0
 60130  1  0  0  0
 60131  1  0  0  0
 61132  1  0  0  0
 61133  1  0  0  0
 61134  1  0  0  0
 62135  1  0  0  0
 62136  1  0  0  0
 62137  1  0  0  0
 63 65  1  0  0  0
 63138  1  0  0  0
 63139  1  0  0  0
 63140  1  0  0  0
 64141  1  0  0  0
 65142  1  0  0  0
 68 79  1  0  0  0
 71 74  1  0  0  0
 71143  1  0  0  0
 71144  1  0  0  0
 71145  1  0  0  0
 72146  1  0  0  0
 72147  1  0  0  0
 72148  1  0  0  0
 72 80  1  0  0  0
 73149  1  0  0  0
 73150  1  0  0  0
 73151  1  0  0  0
 73 81  1  0  0  0
 74 80  1  0  0  0
 74152  1  0  0  0
 74153  1  0  0  0
 75 76  1  0  0  0
 75 77  1  0  0  0
 75154  1  0  0  0
 75155  1  0  0  0
 76 79  1  0  0  0
 76156  1  0  0  0
 76157  1  0  0  0
 77158  1  0  0  0
 77159  1  0  0  0
 77 82  1  0  0  0
 78 81  1  0  0  0
 78 83  1  0  0  0
 78160  1  0  0  0
 78161  1  0  0  0
 79162  1  0  0  0
 79163  1  0  0  0
 80 82  1  0  0  0
 80164  1  0  0  0
 81 82  1  0  0  0
 81165  1  0  0  0
 82166  1  0  0  0
 83167  1  0  0  0
M  ISO  4   1 100  68 101  79 101  83 100
M  END
> <chiral flag>
0

> <version>
0

> <s_m_source_file>
/data/baiqing/PycharmProjects/Reinvent-master-3.2/result/LINK_invent/BTK/process_docking_weight1_custom_sum_contain_oxygen_bond_distance_aromatic_linkinvent_7_9_3/rearranged_h_0088.sdf

> <i_m_source_file_index>
26

> <r_mmod_Potential_Energy-OPLS-2005>
204.70378112793

> <r_mmod_Stretch_Energy-OPLS-2005>
116.547294616699

> <r_mmod_Bend_Energy-OPLS-2005>
200.329925537109

> <r_mmod_Torsional_Energy-OPLS-2005>
263.488708496094

> <r_mmod_Improper_Torsional_Energy-OPLS-2005>
6.01778602600098

> <r_mmod_Van_der_Waal_Energy-OPLS-2005>
122.065994262695

> <r_mmod_Electrostatic_Energy-OPLS-2005>
-382.181518554688

> <r_mmod_Solvation_Energy-OPLS-2005>
-189.389465332031

> <b_mmod_Minimization_Converged-OPLS-2005>
0

> <r_mmod_RMS_Derivative-OPLS-2005>
7.44490194320679

$$$$
26
                    3D
 Structure written by MMmdl.
164172  0  0  1  0            999 V2000
  -30.6114  -14.7328   20.3896 C   0  0  0  0  0  0
  -30.4399  -12.4270   19.4636 C   0  0  0  0  0  0
  -29.5032  -12.3930   18.2337 C   0  0  0  0  0  0
  -28.0247  -12.2839   18.6540 C   0  0  0  0  0  0
  -27.6361  -13.2180   19.8319 C   0  0  2  0  0  0
  -28.6857  -13.1914   20.9611 C   0  0  0  0  0  0
  -25.2523  -13.8183   20.5679 C   0  0  0  0  0  0
  -24.1793  -13.0450   20.9211 C   0  0  0  0  0  0
  -24.6365  -11.6926   20.8772 C   0  0  0  0  0  0
  -23.9031  -10.4308   21.0426 C   0  0  0  0  0  0
  -24.3598   -9.4224   21.9189 C   0  0  0  0  0  0
  -23.6286   -8.2253   22.0753 C   0  0  0  0  0  0
  -22.4269   -8.0284   21.3543 C   0  0  0  0  0  0
  -21.9895   -9.0253   20.4646 C   0  0  0  0  0  0
  -22.7211  -10.2141   20.3064 C   0  0  0  0  0  0
  -21.6858   -6.0730   22.5275 C   0  0  0  0  0  0
  -21.4019   -6.5639   23.8204 C   0  0  0  0  0  0
  -21.3656   -5.6796   24.9170 C   0  0  0  0  0  0
  -21.6038   -4.3055   24.7225 C   0  0  0  0  0  0
  -21.8814   -3.8143   23.4348 C   0  0  0  0  0  0
  -21.9195   -4.6958   22.3404 C   0  0  0  0  0  0
  -22.7824  -13.5253   21.1871 C   0  0  0  0  0  0
  -22.1658   -4.2140   21.0982 F   0  0  0  0  0  0
  -21.5626   -3.4541   25.7737 F   0  0  0  0  0  0
  -29.9796  -13.5141   20.3512 N   0  0  0  0  0  0
  -26.2916  -12.9353   20.3247 N   0  0  0  0  0  0
  -25.9288  -11.6523   20.5793 N   0  0  0  0  0  0
  -22.0460  -12.8243   22.0426 N   0  0  0  0  0  0
  -25.4258  -15.1890   20.4069 N   0  0  0  0  0  0
  -31.8385  -14.7991   20.2666 O   0  0  0  0  0  0
  -21.6646   -6.8872   21.4235 O   0  0  0  0  0  0
  -22.3517  -14.5556   20.6723 O   0  0  0  0  0  0
  -24.6278  -31.8581   23.2004 C   0  0  0  0  0  0
  -25.9116  -32.4774   23.8347 C   0  0  1  0  0  0
  -27.2296  -27.3141   20.1270 C   0  0  0  0  0  0
  -25.5925  -33.8572   24.2271 N   0  0  0  0  0  0
  -23.4214  -30.4795   21.5436 C   0  0  2  0  0  0
  -24.8692  -28.9231   20.1172 C   0  0  0  0  0  0
  -22.7473  -29.4631   22.4938 C   0  0  0  0  0  0
  -18.0319  -28.1343   22.8457 C   0  0  0  0  0  0
  -24.1491  -36.7281   23.2637 C   0  0  0  0  0  0
  -25.9614  -30.7885   21.3688 C   0  0  0  0  0  0
  -26.0387  -29.4129   20.7151 C   0  0  0  0  0  0
  -27.2251  -28.6214   20.7058 C   0  0  0  0  0  0
  -26.0419  -26.8709   19.5124 C   0  0  0  0  0  0
  -24.8712  -27.6565   19.5083 C   0  0  0  0  0  0
  -23.6363  -29.8028   20.1634 C   0  0  0  0  0  0
  -25.4116  -36.3081   24.0328 C   0  0  1  0  0  0
  -20.5902  -28.3696   23.1293 C   0  0  2  0  0  0
  -20.6849  -26.9419   22.5411 C   0  0  0  0  0  0
  -19.5847  -26.6350   21.5191 C   0  0  0  0  0  0
  -18.2007  -26.7890   22.1569 C   0  0  0  0  0  0
  -19.1550  -28.8836   23.2865 C   0  0  0  0  0  0
  -18.9439  -30.1445   23.8859 C   0  0  0  0  0  0
  -17.6430  -30.6555   24.0496 C   0  0  0  0  0  0
  -25.9052  -34.9448   23.5099 C   0  0  0  0  0  0
  -16.5342  -29.9013   23.6292 C   0  0  0  0  0  0
  -16.7300  -28.6436   23.0323 C   0  0  0  0  0  0
  -26.4502  -31.6591   25.0721 C   0  0  0  0  0  0
  -25.3740  -31.3731   26.1454 C   0  0  0  0  0  0
  -27.0353  -30.3021   24.6178 C   0  0  0  0  0  0
  -27.6070  -32.4317   25.7495 C   0  0  0  0  0  0
  -27.5576  -37.1796   24.8464 C   0  0  0  0  0  0
  -21.4184  -29.3072   22.3683 N   0  0  0  0  0  0
  -26.4291  -37.3775   23.9402 N   0  0  0  0  0  0
  -24.6894  -31.0589   22.0952 N   0  0  0  0  0  0
  -23.4184  -28.8151   23.3010 O   0  0  0  0  0  0
  -28.3458  -26.4660   20.1333 O   0  0  0  0  0  0
  -26.5615  -34.8920   22.4664 O   0  0  0  0  0  0
  -23.5434  -32.1371   23.7323 O   0  0  0  0  0  0
  -28.9268  -21.1703   20.1820 C   0  0  0  0  0  0
  -28.5977  -19.8207   20.6030 C   0  0  0  0  0  0
  -28.1044  -22.3215   20.5066 C   0  0  0  0  0  0
  -27.4440  -19.7221   21.4124 C   0  0  0  0  0  0
  -26.9575  -22.0186   21.2847 C   0  0  0  0  0  0
  -26.8604  -18.4059   21.8850 C   0  0  0  0  0  0
  -25.9353  -23.5581   23.0329 C   0  0  0  0  0  0
  -29.7428  -16.0472   18.5811 C   0  0  0  0  0  0
  -29.2721  -18.5176   19.9866 C   0  0  0  0  0  0
  -28.3460  -23.7759   19.8887 C   0  0  0  0  0  0
  -25.8388  -22.9997   21.6049 C   0  0  0  0  0  0
  -29.6869  -17.1629   20.8023 C   0  0  0  0  0  0
  -28.2069  -25.1257   20.7555 C   0  0  0  0  0  0
  -26.6907  -20.7834   21.7516 N   0  0  0  0  0  0
  -29.8473  -15.8441   20.0366 N   0  0  0  0  0  0
  -31.4733  -12.5710   19.1414 H   0  0  0  0  0  0
  -30.4169  -11.4742   19.9951 H   0  0  0  0  0  0
  -29.7656  -11.5411   17.6045 H   0  0  0  0  0  0
  -29.6409  -13.2618   17.5982 H   0  0  0  0  0  0
  -27.8563  -11.2452   18.9419 H   0  0  0  0  0  0
  -27.3732  -12.4633   17.7976 H   0  0  0  0  0  0
  -27.6197  -14.2267   19.4213 H   0  0  0  0  0  0
  -28.7170  -12.2165   21.4494 H   0  0  0  0  0  0
  -28.4353  -13.9242   21.7307 H   0  0  0  0  0  0
  -25.2738   -9.5716   22.4762 H   0  0  0  0  0  0
  -23.9997   -7.4653   22.7479 H   0  0  0  0  0  0
  -21.0819   -8.8770   19.8960 H   0  0  0  0  0  0
  -22.3657  -10.9678   19.6181 H   0  0  0  0  0  0
  -21.2020   -7.6149   23.9702 H   0  0  0  0  0  0
  -21.1476   -6.0533   25.9071 H   0  0  0  0  0  0
  -22.0597   -2.7603   23.2857 H   0  0  0  0  0  0
  -22.4077  -11.9912   22.4821 H   0  0  0  0  0  0
  -21.1075  -13.1262   22.2613 H   0  0  0  0  0  0
  -24.6615  -15.8460   20.5155 H   0  0  0  0  0  0
  -26.2819  -15.6171   20.0797 H   0  0  0  0  0  0
  -26.7180  -32.5457   23.1093 H   0  0  0  0  0  0
  -25.0134  -33.9713   25.0459 H   0  0  0  0  0  0
  -22.7159  -31.3000   21.3937 H   0  0  0  0  0  0
  -23.3765  -35.9601   23.3312 H   0  0  0  0  0  0
  -24.3577  -36.8889   22.2047 H   0  0  0  0  0  0
  -23.7231  -37.6480   23.6653 H   0  0  0  0  0  0
  -26.0894  -31.5509   20.5993 H   0  0  0  0  0  0
  -26.8428  -30.8418   21.9959 H   0  0  0  0  0  0
  -28.1267  -28.9935   21.1738 H   0  0  0  0  0  0
  -26.0197  -25.9008   19.0372 H   0  0  0  0  0  0
  -23.9724  -27.2735   19.0429 H   0  0  0  0  0  0
  -23.7508  -30.5707   19.3984 H   0  0  0  0  0  0
  -22.7569  -29.2270   19.8698 H   0  0  0  0  0  0
  -25.1296  -36.1936   25.0819 H   0  0  0  0  0  0
  -20.9954  -28.3290   24.1429 H   0  0  0  0  0  0
  -20.5755  -26.2298   23.3603 H   0  0  0  0  0  0
  -21.6740  -26.7470   22.1254 H   0  0  0  0  0  0
  -19.7035  -25.6236   21.1288 H   0  0  0  0  0  0
  -19.6795  -27.3104   20.6677 H   0  0  0  0  0  0
  -17.4298  -26.6617   21.3950 H   0  0  0  0  0  0
  -18.0425  -26.0022   22.8961 H   0  0  0  0  0  0
  -19.7889  -30.7299   24.2224 H   0  0  0  0  0  0
  -17.4933  -31.6257   24.5040 H   0  0  0  0  0  0
  -15.5332  -30.2885   23.7592 H   0  0  0  0  0  0
  -15.8711  -28.0731   22.7037 H   0  0  0  0  0  0
  -24.5917  -30.7071   25.7794 H   0  0  0  0  0  0
  -24.8936  -32.2899   26.4882 H   0  0  0  0  0  0
  -25.8073  -30.8919   27.0233 H   0  0  0  0  0  0
  -26.2934  -29.6770   24.1198 H   0  0  0  0  0  0
  -27.4052  -29.7282   25.4686 H   0  0  0  0  0  0
  -27.8803  -30.4322   23.9412 H   0  0  0  0  0  0
  -27.2698  -33.3618   26.2082 H   0  0  0  0  0  0
  -28.3894  -32.6864   25.0333 H   0  0  0  0  0  0
  -28.0734  -31.8435   26.5410 H   0  0  0  0  0  0
  -28.2605  -38.0085   24.7510 H   0  0  0  0  0  0
  -28.1066  -36.2615   24.6304 H   0  0  0  0  0  0
  -27.2290  -37.1456   25.8867 H   0  0  0  0  0  0
  -20.9370  -29.8832   21.6918 H   0  0  0  0  0  0
  -26.0184  -38.2854   24.1405 H   0  0  0  0  0  0
  -29.7709  -21.3116   19.5219 H   0  0  0  0  0  0
  -26.8996  -17.6531   21.0996 H   0  0  0  0  0  0
  -25.8089  -18.5127   22.1563 H   0  0  0  0  0  0
  -27.3928  -18.0477   22.7654 H   0  0  0  0  0  0
  -25.1166  -24.2485   23.2346 H   0  0  0  0  0  0
  -26.8737  -24.0835   23.2038 H   0  0  0  0  0  0
  -25.8797  -22.7536   23.7666 H   0  0  0  0  0  0
  -28.7017  -16.1534   18.2789 H   0  0  0  0  0  0
  -30.1614  -15.2308   17.9980 H   0  0  0  0  0  0
  -30.3052  -16.9176   18.2457 H   0  0  0  0  0  0
  -30.1461  -18.8522   19.4273 H   0  0  0  0  0  0
  -28.5396  -18.2367   19.2310 H   0  0  0  0  0  0
  -27.6683  -23.8649   19.0391 H   0  0  0  0  0  0
  -29.3458  -23.7769   19.4535 H   0  0  0  0  0  0
  -24.8883  -22.4712   21.5163 H   0  0  0  0  0  0
  -25.7615  -23.7803   20.8521 H   0  0  0  0  0  0
  -28.9565  -16.9358   21.5708 H   0  0  0  0  0  0
  -30.6094  -17.3574   21.3508 H   0  0  0  0  0  0
  -28.9673  -25.0810   21.5358 H   0  0  0  0  0  0
  -27.2737  -25.1508   21.3031 H   0  0  0  0  0  0
  1 25  1  0  0  0
  1 30  2  0  0  0
  1 85  1  0  0  0
  2  3  1  0  0  0
  2 25  1  0  0  0
  2 86  1  0  0  0
  2 87  1  0  0  0
  3  4  1  0  0  0
  3 88  1  0  0  0
  3 89  1  0  0  0
  4  5  1  0  0  0
  4 90  1  0  0  0
  4 91  1  0  0  0
  5  6  1  0  0  0
  5 26  1  0  0  0
  5 92  1  0  0  0
  6 25  1  0  0  0
  6 93  1  0  0  0
  6 94  1  0  0  0
  7  8  2  0  0  0
  7 26  1  0  0  0
  7 29  1  0  0  0
  8  9  1  0  0  0
  8 22  1  0  0  0
  9 10  1  0  0  0
  9 27  2  0  0  0
 10 11  2  0  0  0
 10 15  1  0  0  0
 11 12  1  0  0  0
 11 95  1  0  0  0
 12 13  2  0  0  0
 12 96  1  0  0  0
 13 14  1  0  0  0
 13 31  1  0  0  0
 14 15  2  0  0  0
 14 97  1  0  0  0
 15 98  1  0  0  0
 16 17  2  0  0  0
 16 21  1  0  0  0
 16 31  1  0  0  0
 17 18  1  0  0  0
 17 99  1  0  0  0
 18 19  2  0  0  0
 18100  1  0  0  0
 19 20  1  0  0  0
 19 24  1  0  0  0
 20 21  2  0  0  0
 20101  1  0  0  0
 21 23  1  0  0  0
 22 28  1  0  0  0
 22 32  2  0  0  0
 26 27  1  0  0  0
 28102  1  0  0  0
 28103  1  0  0  0
 29104  1  0  0  0
 29105  1  0  0  0
 33 34  1  0  0  0
 33 66  1  0  0  0
 33 70  2  0  0  0
 34 36  1  0  0  0
 34 59  1  0  0  0
 34106  1  0  0  0
 35 44  2  0  0  0
 35 45  1  0  0  0
 35 68  1  0  0  0
 36 56  1  0  0  0
 36107  1  0  0  0
 37 39  1  0  0  0
 37 47  1  0  0  0
 37 66  1  0  0  0
 37108  1  0  0  0
 38 43  2  0  0  0
 38 46  1  0  0  0
 38 47  1  0  0  0
 39 64  1  0  0  0
 39 67  2  0  0  0
 40 52  1  0  0  0
 40 53  2  0  0  0
 40 58  1  0  0  0
 41109  1  0  0  0
 41110  1  0  0  0
 41111  1  0  0  0
 41 48  1  0  0  0
 42 43  1  0  0  0
 42 66  1  0  0  0
 42112  1  0  0  0
 42113  1  0  0  0
 43 44  1  0  0  0
 44114  1  0  0  0
 45 46  2  0  0  0
 45115  1  0  0  0
 46116  1  0  0  0
 47117  1  0  0  0
 47118  1  0  0  0
 48 56  1  0  0  0
 48 65  1  0  0  0
 48119  1  0  0  0
 49 50  1  0  0  0
 49 53  1  0  0  0
 49 64  1  0  0  0
 49120  1  0  0  0
 50 51  1  0  0  0
 50121  1  0  0  0
 50122  1  0  0  0
 51 52  1  0  0  0
 51123  1  0  0  0
 51124  1  0  0  0
 52125  1  0  0  0
 52126  1  0  0  0
 53 54  1  0  0  0
 54 55  2  0  0  0
 54127  1  0  0  0
 55 57  1  0  0  0
 55128  1  0  0  0
 56 69  2  0  0  0
 57 58  2  0  0  0
 57129  1  0  0  0
 58130  1  0  0  0
 59 60  1  0  0  0
 59 61  1  0  0  0
 59 62  1  0  0  0
 60131  1  0  0  0
 60132  1  0  0  0
 60133  1  0  0  0
 61134  1  0  0  0
 61135  1  0  0  0
 61136  1  0  0  0
 62137  1  0  0  0
 62138  1  0  0  0
 62139  1  0  0  0
 63 65  1  0  0  0
 63140  1  0  0  0
 63141  1  0  0  0
 63142  1  0  0  0
 64143  1  0  0  0
 65144  1  0  0  0
 68 83  1  0  0  0
 71 72  2  0  0  0
 71 73  1  0  0  0
 71145  1  0  0  0
 72 74  1  0  0  0
 72 79  1  0  0  0
 73 75  2  0  0  0
 73 80  1  0  0  0
 74 76  1  0  0  0
 74 84  2  0  0  0
 75 81  1  0  0  0
 75 84  1  0  0  0
 76146  1  0  0  0
 76147  1  0  0  0
 76148  1  0  0  0
 77 81  1  0  0  0
 77149  1  0  0  0
 77150  1  0  0  0
 77151  1  0  0  0
 78 85  1  0  0  0
 78152  1  0  0  0
 78153  1  0  0  0
 78154  1  0  0  0
 79 82  1  0  0  0
 79155  1  0  0  0
 79156  1  0  0  0
 80 83  1  0  0  0
 80157  1  0  0  0
 80158  1  0  0  0
 81159  1  0  0  0
 81160  1  0  0  0
 82 85  1  0  0  0
 82161  1  0  0  0
 82162  1  0  0  0
 83163  1  0  0  0
 83164  1  0  0  0
M  ISO  4   1 100  68 101  83 101  85 100
M  END
> <chiral flag>
0

> <version>
0

> <s_m_source_file>
/data/baiqing/PycharmProjects/Reinvent-master-3.2/result/LINK_invent/BTK/process_docking_weight1_custom_sum_contain_oxygen_bond_distance_aromatic_linkinvent_7_9_3/rearranged_h_0088.sdf

> <i_m_source_file_index>
27

> <r_mmod_Potential_Energy-OPLS-2005>
165.953582763672

> <r_mmod_Stretch_Energy-OPLS-2005>
113.731307983398

> <r_mmod_Bend_Energy-OPLS-2005>
172.815780639648

> <r_mmod_Torsional_Energy-OPLS-2005>
331.115997314453

> <r_mmod_Improper_Torsional_Energy-OPLS-2005>
21.7744617462158

> <r_mmod_Van_der_Waal_Energy-OPLS-2005>
147.691970825195

> <r_mmod_Electrostatic_Energy-OPLS-2005>
-493.824493408203

> <r_mmod_Solvation_Energy-OPLS-2005>
-207.282653808594

> <b_mmod_Minimization_Converged-OPLS-2005>
0

> <r_mmod_RMS_Derivative-OPLS-2005>
2.10849094390869

$$$$
27
                    3D
 Structure written by MMmdl.
176184  0  0  1  0            999 V2000
  -30.5842  -14.7669   20.4672 C   0  0  0  0  0  0
  -30.4373  -12.4748   19.4663 C   0  0  0  0  0  0
  -29.5106  -12.5057   18.2320 C   0  0  0  0  0  0
  -28.0368  -12.3245   18.6454 C   0  0  0  0  0  0
  -27.6382  -13.2233   19.8447 C   0  0  2  0  0  0
  -28.6823  -13.1619   20.9781 C   0  0  0  0  0  0
  -25.2468  -13.8070   20.5523 C   0  0  0  0  0  0
  -24.1777  -13.0374   20.9176 C   0  0  0  0  0  0
  -24.6393  -11.6870   20.8779 C   0  0  0  0  0  0
  -23.9063  -10.4248   21.0442 C   0  0  0  0  0  0
  -24.3613   -9.4160   21.9203 C   0  0  0  0  0  0
  -23.6285   -8.2199   22.0764 C   0  0  0  0  0  0
  -22.4268   -8.0247   21.3551 C   0  0  0  0  0  0
  -21.9902   -9.0228   20.4652 C   0  0  0  0  0  0
  -22.7244  -10.2098   20.3070 C   0  0  0  0  0  0
  -21.6839   -6.0711   22.5285 C   0  0  0  0  0  0
  -21.3991   -6.5626   23.8210 C   0  0  0  0  0  0
  -21.3651   -5.6789   24.9181 C   0  0  0  0  0  0
  -21.6051   -4.3051   24.7235 C   0  0  0  0  0  0
  -21.8823   -3.8133   23.4358 C   0  0  0  0  0  0
  -21.9188   -4.6941   22.3415 C   0  0  0  0  0  0
  -22.7815  -13.5180   21.1868 C   0  0  0  0  0  0
  -22.1660   -4.2124   21.0984 F   0  0  0  0  0  0
  -21.5635   -3.4537   25.7749 F   0  0  0  0  0  0
  -29.9750  -13.5346   20.3913 N   0  0  0  0  0  0
  -26.2928  -12.9300   20.3252 N   0  0  0  0  0  0
  -25.9328  -11.6469   20.5803 N   0  0  0  0  0  0
  -22.0476  -12.8173   22.0443 N   0  0  0  0  0  0
  -25.4099  -15.1718   20.3618 N   0  0  0  0  0  0
  -31.7821  -14.8746   20.1896 O   0  0  0  0  0  0
  -21.6633   -6.8858   21.4247 O   0  0  0  0  0  0
  -22.3519  -14.5506   20.6742 O   0  0  0  0  0  0
  -24.6305  -31.8553   23.2008 C   0  0  0  0  0  0
  -25.9130  -32.4759   23.8332 C   0  0  1  0  0  0
  -27.2019  -27.2518   20.1119 C   0  0  0  0  0  0
  -25.5985  -33.8582   24.2257 N   0  0  0  0  0  0
  -23.4284  -30.4844   21.5409 C   0  0  2  0  0  0
  -24.8682  -28.9378   20.0986 C   0  0  0  0  0  0
  -22.7505  -29.4592   22.4843 C   0  0  0  0  0  0
  -18.0305  -28.1366   22.8464 C   0  0  0  0  0  0
  -24.1499  -36.7260   23.2642 C   0  0  0  0  0  0
  -25.9760  -30.7652   21.3808 C   0  0  0  0  0  0
  -26.0424  -29.3891   20.7161 C   0  0  0  0  0  0
  -27.2089  -28.5581   20.7123 C   0  0  0  0  0  0
  -26.0080  -26.8839   19.4474 C   0  0  0  0  0  0
  -24.8565  -27.6942   19.4533 C   0  0  0  0  0  0
  -23.6471  -29.8371   20.1501 C   0  0  0  0  0  0
  -25.4130  -36.3066   24.0336 C   0  0  1  0  0  0
  -20.5903  -28.3671   23.1227 C   0  0  2  0  0  0
  -20.6818  -26.9385   22.5387 C   0  0  0  0  0  0
  -19.5812  -26.6344   21.5185 C   0  0  0  0  0  0
  -18.1967  -26.7902   22.1574 C   0  0  0  0  0  0
  -19.1558  -28.8827   23.2845 C   0  0  0  0  0  0
  -18.9510  -30.1432   23.8861 C   0  0  0  0  0  0
  -17.6519  -30.6571   24.0561 C   0  0  0  0  0  0
  -25.9082  -34.9456   23.5077 C   0  0  0  0  0  0
  -16.5389  -29.9100   23.6330 C   0  0  0  0  0  0
  -16.7293  -28.6517   23.0324 C   0  0  0  0  0  0
  -26.4528  -31.6583   25.0711 C   0  0  0  0  0  0
  -25.3793  -31.3745   26.1452 C   0  0  0  0  0  0
  -27.0364  -30.3002   24.6176 C   0  0  0  0  0  0
  -27.6084  -32.4323   25.7470 C   0  0  0  0  0  0
  -27.5574  -37.1781   24.8476 C   0  0  0  0  0  0
  -21.4195  -29.3033   22.3602 N   0  0  0  0  0  0
  -26.4273  -37.3774   23.9446 N   0  0  0  0  0  0
  -24.6980  -31.0526   22.0974 N   0  0  0  0  0  0
  -23.4215  -28.8111   23.2900 O   0  0  0  0  0  0
  -28.2868  -26.3432   20.1864 O   0  0  0  0  0  0
  -26.5605  -34.8929   22.4618 O   0  0  0  0  0  0
  -23.5440  -32.1358   23.7307 O   0  0  0  0  0  0
  -26.8752  -21.4618   20.6232 C   0  0  0  0  0  0
  -25.8381  -20.5746   20.9350 C   0  0  0  0  0  0
  -28.1990  -21.0149   20.4279 C   0  0  0  0  0  0
  -26.1579  -19.2190   21.1035 C   0  0  0  0  0  0
  -28.4220  -19.5563   20.5376 C   0  0  0  0  0  0
  -25.1160  -18.2032   21.5324 C   0  0  0  0  0  0
  -22.2431  -23.2600   21.2880 C   0  0  0  0  0  0
  -22.7030  -23.3961   23.7372 C   0  0  0  0  0  0
  -21.7974  -21.2687   22.7818 C   0  0  0  0  0  0
  -24.4158  -21.1076   21.0482 C   0  0  0  0  0  0
  -29.1822  -22.1888   20.0313 C   0  0  0  0  0  0
  -29.6529  -18.6576   20.0968 C   0  0  0  0  0  0
  -28.9787  -23.7280   20.5734 C   0  0  0  0  0  0
  -24.1935  -21.9691   22.3064 C   0  0  0  0  0  0
  -30.1643  -17.3591   20.9556 C   0  0  0  0  0  0
  -28.0947  -24.8794   19.8585 C   0  0  0  0  0  0
  -22.7375  -22.4625   22.5134 C   0  0  0  0  0  0
  -27.3991  -18.7400   20.8872 N   0  0  0  0  0  0
  -29.7899  -15.8925   20.6726 N   0  0  0  0  0  0
  -31.4742  -12.6217   19.1620 H   0  0  0  0  0  0
  -30.4020  -11.4984   19.9526 H   0  0  0  0  0  0
  -29.7992  -11.7281   17.5227 H   0  0  0  0  0  0
  -29.6294  -13.4548   17.7073 H   0  0  0  0  0  0
  -27.8942  -11.2772   18.9094 H   0  0  0  0  0  0
  -27.3782  -12.5114   17.7972 H   0  0  0  0  0  0
  -27.6300  -14.2442   19.4624 H   0  0  0  0  0  0
  -28.7322  -12.1629   21.4115 H   0  0  0  0  0  0
  -28.4127  -13.8371   21.7929 H   0  0  0  0  0  0
  -25.2762   -9.5614   22.4782 H   0  0  0  0  0  0
  -23.9990   -7.4568   22.7466 H   0  0  0  0  0  0
  -21.0840   -8.8735   19.8954 H   0  0  0  0  0  0
  -22.3712  -10.9631   19.6165 H   0  0  0  0  0  0
  -21.1962   -7.6133   23.9702 H   0  0  0  0  0  0
  -21.1479   -6.0522   25.9081 H   0  0  0  0  0  0
  -22.0612   -2.7595   23.2868 H   0  0  0  0  0  0
  -22.4105  -11.9798   22.4763 H   0  0  0  0  0  0
  -21.1112  -13.1199   22.2711 H   0  0  0  0  0  0
  -24.6189  -15.8025   20.3940 H   0  0  0  0  0  0
  -26.2520  -15.6097   20.0138 H   0  0  0  0  0  0
  -26.7172  -32.5363   23.1047 H   0  0  0  0  0  0
  -25.0324  -33.9766   25.0514 H   0  0  0  0  0  0
  -22.7244  -31.3083   21.4013 H   0  0  0  0  0  0
  -23.3792  -35.9563   23.3294 H   0  0  0  0  0  0
  -24.3614  -36.8879   22.2061 H   0  0  0  0  0  0
  -23.7215  -37.6445   23.6667 H   0  0  0  0  0  0
  -26.1254  -31.5311   20.6187 H   0  0  0  0  0  0
  -26.8509  -30.8018   22.0190 H   0  0  0  0  0  0
  -28.1094  -28.8995   21.2040 H   0  0  0  0  0  0
  -25.9276  -25.9513   18.9131 H   0  0  0  0  0  0
  -23.9625  -27.3513   18.9479 H   0  0  0  0  0  0
  -23.7942  -30.6285   19.4120 H   0  0  0  0  0  0
  -22.7588  -29.2934   19.8213 H   0  0  0  0  0  0
  -25.1308  -36.1898   25.0824 H   0  0  0  0  0  0
  -21.0006  -28.3229   24.1339 H   0  0  0  0  0  0
  -20.5674  -26.2284   23.3588 H   0  0  0  0  0  0
  -21.6692  -26.7368   22.1207 H   0  0  0  0  0  0
  -19.6998  -25.6259   21.1214 H   0  0  0  0  0  0
  -19.6775  -27.3150   20.6720 H   0  0  0  0  0  0
  -17.4257  -26.6634   21.3960 H   0  0  0  0  0  0
  -18.0375  -26.0038   22.8959 H   0  0  0  0  0  0
  -19.8006  -30.7236   24.2192 H   0  0  0  0  0  0
  -17.5111  -31.6250   24.5181 H   0  0  0  0  0  0
  -15.5402  -30.3024   23.7684 H   0  0  0  0  0  0
  -15.8676  -28.0872   22.7009 H   0  0  0  0  0  0
  -24.6006  -30.7024   25.7828 H   0  0  0  0  0  0
  -24.8946  -32.2908   26.4806 H   0  0  0  0  0  0
  -25.8139  -30.9012   27.0256 H   0  0  0  0  0  0
  -26.2907  -29.6741   24.1245 H   0  0  0  0  0  0
  -27.4118  -29.7271   25.4657 H   0  0  0  0  0  0
  -27.8781  -30.4297   23.9378 H   0  0  0  0  0  0
  -27.2715  -33.3682   26.1936 H   0  0  0  0  0  0
  -28.3938  -32.6753   25.0312 H   0  0  0  0  0  0
  -28.0695  -31.8513   26.5456 H   0  0  0  0  0  0
  -28.2550  -38.0105   24.7514 H   0  0  0  0  0  0
  -28.1063  -36.2617   24.6255 H   0  0  0  0  0  0
  -27.2304  -37.1380   25.8877 H   0  0  0  0  0  0
  -20.9338  -29.8862   21.6929 H   0  0  0  0  0  0
  -26.0130  -38.2822   24.1499 H   0  0  0  0  0  0
  -26.6245  -22.5032   20.5021 H   0  0  0  0  0  0
  -24.4209  -17.9853   20.7195 H   0  0  0  0  0  0
  -24.5441  -18.5729   22.3838 H   0  0  0  0  0  0
  -25.5829  -17.2733   21.8495 H   0  0  0  0  0  0
  -21.2490  -23.6737   21.4562 H   0  0  0  0  0  0
  -22.1774  -22.6379   20.3949 H   0  0  0  0  0  0
  -22.9103  -24.0926   21.0604 H   0  0  0  0  0  0
  -21.6925  -23.7511   23.9426 H   0  0  0  0  0  0
  -23.3284  -24.2768   23.5883 H   0  0  0  0  0  0
  -23.0593  -22.8883   24.6342 H   0  0  0  0  0  0
  -20.8071  -21.5997   23.0945 H   0  0  0  0  0  0
  -22.1898  -20.6255   23.5720 H   0  0  0  0  0  0
  -21.6583  -20.6483   21.8964 H   0  0  0  0  0  0
  -23.6965  -20.2912   21.0157 H   0  0  0  0  0  0
  -24.2189  -21.7003   20.1531 H   0  0  0  0  0  0
  -29.2689  -22.2046   18.9450 H   0  0  0  0  0  0
  -30.1613  -21.8632   20.3877 H   0  0  0  0  0  0
  -30.4907  -19.3536   20.0504 H   0  0  0  0  0  0
  -29.4885  -18.3577   19.0608 H   0  0  0  0  0  0
  -29.9850  -24.1477   20.5668 H   0  0  0  0  0  0
  -28.7168  -23.6922   21.6306 H   0  0  0  0  0  0
  -24.8606  -22.8320   22.2670 H   0  0  0  0  0  0
  -24.5056  -21.3929   23.1799 H   0  0  0  0  0  0
  -29.9731  -17.5534   22.0116 H   0  0  0  0  0  0
  -31.2515  -17.3814   20.8788 H   0  0  0  0  0  0
  -27.0648  -24.6040   20.0739 H   0  0  0  0  0  0
  -28.2114  -24.7814   18.7786 H   0  0  0  0  0  0
  -28.8105  -15.6841   20.8003 H   0  0  0  0  0  0
  1 25  1  0  0  0
  1 30  2  0  0  0
  1 89  1  0  0  0
  2  3  1  0  0  0
  2 25  1  0  0  0
  2 90  1  0  0  0
  2 91  1  0  0  0
  3  4  1  0  0  0
  3 92  1  0  0  0
  3 93  1  0  0  0
  4  5  1  0  0  0
  4 94  1  0  0  0
  4 95  1  0  0  0
  5  6  1  0  0  0
  5 26  1  0  0  0
  5 96  1  0  0  0
  6 25  1  0  0  0
  6 97  1  0  0  0
  6 98  1  0  0  0
  7  8  2  0  0  0
  7 26  1  0  0  0
  7 29  1  0  0  0
  8  9  1  0  0  0
  8 22  1  0  0  0
  9 10  1  0  0  0
  9 27  2  0  0  0
 10 11  2  0  0  0
 10 15  1  0  0  0
 11 12  1  0  0  0
 11 99  1  0  0  0
 12 13  2  0  0  0
 12100  1  0  0  0
 13 14  1  0  0  0
 13 31  1  0  0  0
 14 15  2  0  0  0
 14101  1  0  0  0
 15102  1  0  0  0
 16 17  2  0  0  0
 16 21  1  0  0  0
 16 31  1  0  0  0
 17 18  1  0  0  0
 17103  1  0  0  0
 18 19  2  0  0  0
 18104  1  0  0  0
 19 20  1  0  0  0
 19 24  1  0  0  0
 20 21  2  0  0  0
 20105  1  0  0  0
 21 23  1  0  0  0
 22 28  1  0  0  0
 22 32  2  0  0  0
 26 27  1  0  0  0
 28106  1  0  0  0
 28107  1  0  0  0
 29108  1  0  0  0
 29109  1  0  0  0
 33 34  1  0  0  0
 33 66  1  0  0  0
 33 70  2  0  0  0
 34 36  1  0  0  0
 34 59  1  0  0  0
 34110  1  0  0  0
 35 44  2  0  0  0
 35 45  1  0  0  0
 35 68  1  0  0  0
 36 56  1  0  0  0
 36111  1  0  0  0
 37 39  1  0  0  0
 37 47  1  0  0  0
 37 66  1  0  0  0
 37112  1  0  0  0
 38 43  2  0  0  0
 38 46  1  0  0  0
 38 47  1  0  0  0
 39 64  1  0  0  0
 39 67  2  0  0  0
 40 52  1  0  0  0
 40 53  2  0  0  0
 40 58  1  0  0  0
 41113  1  0  0  0
 41114  1  0  0  0
 41115  1  0  0  0
 41 48  1  0  0  0
 42 43  1  0  0  0
 42 66  1  0  0  0
 42116  1  0  0  0
 42117  1  0  0  0
 43 44  1  0  0  0
 44118  1  0  0  0
 45 46  2  0  0  0
 45119  1  0  0  0
 46120  1  0  0  0
 47121  1  0  0  0
 47122  1  0  0  0
 48 56  1  0  0  0
 48 65  1  0  0  0
 48123  1  0  0  0
 49 50  1  0  0  0
 49 53  1  0  0  0
 49 64  1  0  0  0
 49124  1  0  0  0
 50 51  1  0  0  0
 50125  1  0  0  0
 50126  1  0  0  0
 51 52  1  0  0  0
 51127  1  0  0  0
 51128  1  0  0  0
 52129  1  0  0  0
 52130  1  0  0  0
 53 54  1  0  0  0
 54 55  2  0  0  0
 54131  1  0  0  0
 55 57  1  0  0  0
 55132  1  0  0  0
 56 69  2  0  0  0
 57 58  2  0  0  0
 57133  1  0  0  0
 58134  1  0  0  0
 59 60  1  0  0  0
 59 61  1  0  0  0
 59 62  1  0  0  0
 60135  1  0  0  0
 60136  1  0  0  0
 60137  1  0  0  0
 61138  1  0  0  0
 61139  1  0  0  0
 61140  1  0  0  0
 62141  1  0  0  0
 62142  1  0  0  0
 62143  1  0  0  0
 63 65  1  0  0  0
 63144  1  0  0  0
 63145  1  0  0  0
 63146  1  0  0  0
 64147  1  0  0  0
 65148  1  0  0  0
 68 86  1  0  0  0
 71 72  2  0  0  0
 71 73  1  0  0  0
 71149  1  0  0  0
 72 74  1  0  0  0
 72 80  1  0  0  0
 73 75  2  0  0  0
 73 81  1  0  0  0
 74 76  1  0  0  0
 74 88  2  0  0  0
 75 82  1  0  0  0
 75 88  1  0  0  0
 76150  1  0  0  0
 76151  1  0  0  0
 76152  1  0  0  0
 77153  1  0  0  0
 77154  1  0  0  0
 77155  1  0  0  0
 77 87  1  0  0  0
 78 87  1  0  0  0
 78156  1  0  0  0
 78157  1  0  0  0
 78158  1  0  0  0
 79 87  1  0  0  0
 79159  1  0  0  0
 79160  1  0  0  0
 79161  1  0  0  0
 80 84  1  0  0  0
 80162  1  0  0  0
 80163  1  0  0  0
 81 83  1  0  0  0
 81164  1  0  0  0
 81165  1  0  0  0
 82 85  1  0  0  0
 82166  1  0  0  0
 82167  1  0  0  0
 83 86  1  0  0  0
 83168  1  0  0  0
 83169  1  0  0  0
 84 87  1  0  0  0
 84170  1  0  0  0
 84171  1  0  0  0
 85 89  1  0  0  0
 85172  1  0  0  0
 85173  1  0  0  0
 86174  1  0  0  0
 86175  1  0  0  0
 89176  1  0  0  0
M  ISO  4   1 100  68 101  86 101  89 100
M  END
> <chiral flag>
0

> <version>
0

> <s_m_source_file>
/data/baiqing/PycharmProjects/Reinvent-master-3.2/result/LINK_invent/BTK/process_docking_weight1_custom_sum_contain_oxygen_bond_distance_aromatic_linkinvent_7_9_3/rearranged_h_0088.sdf

> <i_m_source_file_index>
28

> <r_mmod_Potential_Energy-OPLS-2005>
118.610084533691

> <r_mmod_Stretch_Energy-OPLS-2005>
142.288757324219

> <r_mmod_Bend_Energy-OPLS-2005>
229.701751708984

> <r_mmod_Torsional_Energy-OPLS-2005>
232.730865478516

> <r_mmod_Improper_Torsional_Energy-OPLS-2005>
5.38857221603394

> <r_mmod_Van_der_Waal_Energy-OPLS-2005>
134.179214477539

> <r_mmod_Electrostatic_Energy-OPLS-2005>
-514.734313964844

> <r_mmod_Solvation_Energy-OPLS-2005>
-207.963806152344

> <b_mmod_Minimization_Converged-OPLS-2005>
0

> <r_mmod_RMS_Derivative-OPLS-2005>
3.63277840614319

$$$$
28
                    3D
 Structure written by MMmdl.
164172  0  0  1  0            999 V2000
  -30.4667  -14.9992   20.4240 C   0  0  0  0  0  0
  -30.4536  -12.6265   19.4787 C   0  0  0  0  0  0
  -29.5225  -12.5376   18.2453 C   0  0  0  0  0  0
  -28.0545  -12.3170   18.6661 C   0  0  0  0  0  0
  -27.6236  -13.2464   19.8306 C   0  0  2  0  0  0
  -28.6712  -13.2679   20.9614 C   0  0  0  0  0  0
  -25.2423  -13.8205   20.5697 C   0  0  0  0  0  0
  -24.1760  -13.0409   20.9249 C   0  0  0  0  0  0
  -24.6389  -11.6906   20.8750 C   0  0  0  0  0  0
  -23.9073  -10.4274   21.0404 C   0  0  0  0  0  0
  -24.3627   -9.4189   21.9181 C   0  0  0  0  0  0
  -23.6301   -8.2228   22.0749 C   0  0  0  0  0  0
  -22.4276   -8.0272   21.3546 C   0  0  0  0  0  0
  -21.9919   -9.0236   20.4639 C   0  0  0  0  0  0
  -22.7245  -10.2119   20.3051 C   0  0  0  0  0  0
  -21.6856   -6.0724   22.5276 C   0  0  0  0  0  0
  -21.4010   -6.5634   23.8206 C   0  0  0  0  0  0
  -21.3659   -5.6788   24.9172 C   0  0  0  0  0  0
  -21.6047   -4.3057   24.7228 C   0  0  0  0  0  0
  -21.8820   -3.8140   23.4350 C   0  0  0  0  0  0
  -21.9188   -4.6946   22.3402 C   0  0  0  0  0  0
  -22.7773  -13.5161   21.1900 C   0  0  0  0  0  0
  -22.1655   -4.2134   21.0981 F   0  0  0  0  0  0
  -21.5633   -3.4543   25.7743 F   0  0  0  0  0  0
  -29.9319  -13.7124   20.3546 N   0  0  0  0  0  0
  -26.2849  -12.9431   20.3206 N   0  0  0  0  0  0
  -25.9320  -11.6562   20.5719 N   0  0  0  0  0  0
  -22.0436  -12.8141   22.0470 N   0  0  0  0  0  0
  -25.4009  -15.1939   20.4088 N   0  0  0  0  0  0
  -31.6877  -15.1053   20.2584 O   0  0  0  0  0  0
  -21.6643   -6.8865   21.4238 O   0  0  0  0  0  0
  -22.3437  -14.5458   20.6740 O   0  0  0  0  0  0
  -24.6472  -31.8417   23.1852 C   0  0  0  0  0  0
  -25.9241  -32.4662   23.8264 C   0  0  1  0  0  0
  -27.2055  -27.1104   20.1640 C   0  0  0  0  0  0
  -25.5955  -33.8479   24.2142 N   0  0  0  0  0  0
  -23.4486  -30.4641   21.5335 C   0  0  2  0  0  0
  -24.8958  -28.8887   20.1108 C   0  0  0  0  0  0
  -22.7588  -29.4548   22.4857 C   0  0  0  0  0  0
  -18.0311  -28.1416   22.8478 C   0  0  0  0  0  0
  -24.1497  -36.7274   23.2642 C   0  0  0  0  0  0
  -26.0083  -30.7083   21.3877 C   0  0  0  0  0  0
  -26.0761  -29.3180   20.7310 C   0  0  0  0  0  0
  -27.2337  -28.4495   20.7363 C   0  0  0  0  0  0
  -26.0030  -26.7916   19.4954 C   0  0  0  0  0  0
  -24.8754  -27.6399   19.4746 C   0  0  0  0  0  0
  -23.6720  -29.7936   20.1535 C   0  0  0  0  0  0
  -25.4127  -36.3028   24.0309 C   0  0  1  0  0  0
  -20.5924  -28.3733   23.1251 C   0  0  2  0  0  0
  -20.6792  -26.9429   22.5426 C   0  0  0  0  0  0
  -19.5766  -26.6389   21.5235 C   0  0  0  0  0  0
  -18.1941  -26.7945   22.1635 C   0  0  0  0  0  0
  -19.1560  -28.8898   23.2847 C   0  0  0  0  0  0
  -18.9479  -30.1487   23.8880 C   0  0  0  0  0  0
  -17.6473  -30.6603   24.0568 C   0  0  0  0  0  0
  -25.9103  -34.9403   23.5051 C   0  0  0  0  0  0
  -16.5373  -29.9098   23.6351 C   0  0  0  0  0  0
  -16.7293  -28.6526   23.0358 C   0  0  0  0  0  0
  -26.4521  -31.6562   25.0749 C   0  0  0  0  0  0
  -25.3640  -31.3767   26.1400 C   0  0  0  0  0  0
  -27.0392  -30.2949   24.6371 C   0  0  0  0  0  0
  -27.6070  -32.4325   25.7527 C   0  0  0  0  0  0
  -27.5578  -37.1770   24.8450 C   0  0  0  0  0  0
  -21.4281  -29.3044   22.3618 N   0  0  0  0  0  0
  -26.4284  -37.3740   23.9400 N   0  0  0  0  0  0
  -24.7218  -31.0268   22.0895 N   0  0  0  0  0  0
  -23.4228  -28.8103   23.3027 O   0  0  0  0  0  0
  -28.2494  -26.1102   20.2172 O   0  0  0  0  0  0
  -26.5729  -34.8907   22.4656 O   0  0  0  0  0  0
  -23.5599  -32.1336   23.7059 O   0  0  0  0  0  0
  -31.0220  -21.1086   19.3890 C   0  0  0  0  0  0
  -32.1802  -20.4535   18.9534 C   0  0  0  0  0  0
  -29.9273  -20.4448   19.9969 C   0  0  0  0  0  0
  -32.2411  -19.0640   19.0826 C   0  0  0  0  0  0
  -30.1158  -18.9281   20.0903 C   0  0  0  0  0  0
  -33.3504  -21.2603   18.4108 C   0  0  0  0  0  0
  -34.2806  -18.0127   20.0811 C   0  0  0  0  0  0
  -29.5413  -17.8164   22.3396 C   0  0  0  0  0  0
  -28.7887  -21.5795   20.4171 C   0  0  0  0  0  0
  -33.4926  -18.2596   18.7875 C   0  0  0  0  0  0
  -29.0154  -23.2737   20.1776 C   0  0  0  0  0  0
  -27.9491  -24.5759   20.3857 C   0  0  0  0  0  0
  -29.3870  -17.6653   20.8171 C   0  0  2  0  0  0
  -31.2358  -18.3606   19.6063 N   0  0  0  0  0  0
  -29.5626  -16.1028   20.4804 N   0  0  0  0  0  0
  -31.4761  -12.8293   19.1572 H   0  0  0  0  0  0
  -30.4848  -11.6773   20.0160 H   0  0  0  0  0  0
  -29.8464  -11.7323   17.5840 H   0  0  0  0  0  0
  -29.6011  -13.4596   17.6658 H   0  0  0  0  0  0
  -27.9505  -11.2747   18.9712 H   0  0  0  0  0  0
  -27.3918  -12.4503   17.8092 H   0  0  0  0  0  0
  -27.5808  -14.2479   19.4028 H   0  0  0  0  0  0
  -28.7787  -12.2832   21.4188 H   0  0  0  0  0  0
  -28.3674  -13.9515   21.7567 H   0  0  0  0  0  0
  -25.2769   -9.5664   22.4755 H   0  0  0  0  0  0
  -23.9996   -7.4618   22.7487 H   0  0  0  0  0  0
  -21.0844   -8.8756   19.8956 H   0  0  0  0  0  0
  -22.3700  -10.9648   19.6168 H   0  0  0  0  0  0
  -21.2008   -7.6144   23.9703 H   0  0  0  0  0  0
  -21.1483   -6.0526   25.9070 H   0  0  0  0  0  0
  -22.0604   -2.7601   23.2865 H   0  0  0  0  0  0
  -22.4075  -11.9818   22.4867 H   0  0  0  0  0  0
  -21.1043  -13.1124   22.2675 H   0  0  0  0  0  0
  -24.6157  -15.8281   20.5092 H   0  0  0  0  0  0
  -26.2121  -15.6374   20.0020 H   0  0  0  0  0  0
  -26.7299  -32.5231   23.0991 H   0  0  0  0  0  0
  -24.9924  -33.9564   25.0158 H   0  0  0  0  0  0
  -22.7525  -31.2913   21.3794 H   0  0  0  0  0  0
  -23.3767  -35.9589   23.3283 H   0  0  0  0  0  0
  -24.3588  -36.8970   22.2063 H   0  0  0  0  0  0
  -23.7271  -37.6459   23.6728 H   0  0  0  0  0  0
  -26.1697  -31.4604   20.6139 H   0  0  0  0  0  0
  -26.8762  -30.7540   22.0344 H   0  0  0  0  0  0
  -28.1338  -28.7763   21.2393 H   0  0  0  0  0  0
  -25.8983  -25.8470   18.9855 H   0  0  0  0  0  0
  -23.9794  -27.3077   18.9695 H   0  0  0  0  0  0
  -23.8007  -30.5691   19.3977 H   0  0  0  0  0  0
  -22.7830  -29.2376   19.8462 H   0  0  0  0  0  0
  -25.1296  -36.1848   25.0796 H   0  0  0  0  0  0
  -20.9989  -28.3331   24.1382 H   0  0  0  0  0  0
  -20.5718  -26.2331   23.3637 H   0  0  0  0  0  0
  -21.6652  -26.7444   22.1196 H   0  0  0  0  0  0
  -19.6942  -25.6293   21.1281 H   0  0  0  0  0  0
  -19.6735  -27.3191   20.6756 H   0  0  0  0  0  0
  -17.4208  -26.6720   21.4030 H   0  0  0  0  0  0
  -18.0325  -26.0083   22.9024 H   0  0  0  0  0  0
  -19.7951  -30.7302   24.2252 H   0  0  0  0  0  0
  -17.5027  -31.6278   24.5170 H   0  0  0  0  0  0
  -15.5369  -30.2988   23.7689 H   0  0  0  0  0  0
  -15.8694  -28.0842   22.7079 H   0  0  0  0  0  0
  -24.5869  -30.7073   25.7687 H   0  0  0  0  0  0
  -24.8752  -32.2932   26.4703 H   0  0  0  0  0  0
  -25.7851  -30.9020   27.0269 H   0  0  0  0  0  0
  -26.3026  -29.6656   24.1356 H   0  0  0  0  0  0
  -27.3964  -29.7282   25.4987 H   0  0  0  0  0  0
  -27.8947  -30.4194   23.9732 H   0  0  0  0  0  0
  -27.2707  -33.3668   26.2033 H   0  0  0  0  0  0
  -28.3902  -32.6815   25.0353 H   0  0  0  0  0  0
  -28.0699  -31.8485   26.5492 H   0  0  0  0  0  0
  -28.2539  -38.0106   24.7513 H   0  0  0  0  0  0
  -28.1131  -36.2649   24.6242 H   0  0  0  0  0  0
  -27.2312  -37.1360   25.8850 H   0  0  0  0  0  0
  -20.9520  -29.8749   21.6767 H   0  0  0  0  0  0
  -26.0172  -38.2812   24.1395 H   0  0  0  0  0  0
  -31.0259  -22.1775   19.2730 H   0  0  0  0  0  0
  -33.1225  -22.3246   18.3715 H   0  0  0  0  0  0
  -33.6202  -20.9446   17.4028 H   0  0  0  0  0  0
  -34.2218  -21.1357   19.0544 H   0  0  0  0  0  0
  -35.1998  -17.4606   19.8953 H   0  0  0  0  0  0
  -33.6813  -17.4396   20.7908 H   0  0  0  0  0  0
  -34.5385  -18.9588   20.5590 H   0  0  0  0  0  0
  -29.1755  -18.7855   22.6815 H   0  0  0  0  0  0
  -30.5875  -17.7362   22.6368 H   0  0  0  0  0  0
  -28.9779  -17.0528   22.8774 H   0  0  0  0  0  0
  -28.5573  -21.4147   21.4700 H   0  0  0  0  0  0
  -27.8758  -21.3001   19.8893 H   0  0  0  0  0  0
  -34.1207  -18.7579   18.0498 H   0  0  0  0  0  0
  -33.2052  -17.3080   18.3368 H   0  0  0  0  0  0
  -29.3053  -23.3854   19.1336 H   0  0  0  0  0  0
  -29.9043  -23.5438   20.7474 H   0  0  0  0  0  0
  -27.5556  -24.4812   21.3997 H   0  0  0  0  0  0
  -27.1016  -24.3312   19.7506 H   0  0  0  0  0  0
  -28.3331  -17.8467   20.6025 H   0  0  0  0  0  0
  -28.6396  -15.7154   20.3698 H   0  0  0  0  0  0
  1 25  1  0  0  0
  1 30  2  0  0  0
  1 85  1  0  0  0
  2  3  1  0  0  0
  2 25  1  0  0  0
  2 86  1  0  0  0
  2 87  1  0  0  0
  3  4  1  0  0  0
  3 88  1  0  0  0
  3 89  1  0  0  0
  4  5  1  0  0  0
  4 90  1  0  0  0
  4 91  1  0  0  0
  5  6  1  0  0  0
  5 26  1  0  0  0
  5 92  1  0  0  0
  6 25  1  0  0  0
  6 93  1  0  0  0
  6 94  1  0  0  0
  7  8  2  0  0  0
  7 26  1  0  0  0
  7 29  1  0  0  0
  8  9  1  0  0  0
  8 22  1  0  0  0
  9 10  1  0  0  0
  9 27  2  0  0  0
 10 11  2  0  0  0
 10 15  1  0  0  0
 11 12  1  0  0  0
 11 95  1  0  0  0
 12 13  2  0  0  0
 12 96  1  0  0  0
 13 14  1  0  0  0
 13 31  1  0  0  0
 14 15  2  0  0  0
 14 97  1  0  0  0
 15 98  1  0  0  0
 16 17  2  0  0  0
 16 21  1  0  0  0
 16 31  1  0  0  0
 17 18  1  0  0  0
 17 99  1  0  0  0
 18 19  2  0  0  0
 18100  1  0  0  0
 19 20  1  0  0  0
 19 24  1  0  0  0
 20 21  2  0  0  0
 20101  1  0  0  0
 21 23  1  0  0  0
 22 28  1  0  0  0
 22 32  2  0  0  0
 26 27  1  0  0  0
 28102  1  0  0  0
 28103  1  0  0  0
 29104  1  0  0  0
 29105  1  0  0  0
 33 34  1  0  0  0
 33 66  1  0  0  0
 33 70  2  0  0  0
 34 36  1  0  0  0
 34 59  1  0  0  0
 34106  1  0  0  0
 35 44  2  0  0  0
 35 45  1  0  0  0
 35 68  1  0  0  0
 36 56  1  0  0  0
 36107  1  0  0  0
 37 39  1  0  0  0
 37 47  1  0  0  0
 37 66  1  0  0  0
 37108  1  0  0  0
 38 43  2  0  0  0
 38 46  1  0  0  0
 38 47  1  0  0  0
 39 64  1  0  0  0
 39 67  2  0  0  0
 40 52  1  0  0  0
 40 53  2  0  0  0
 40 58  1  0  0  0
 41109  1  0  0  0
 41110  1  0  0  0
 41111  1  0  0  0
 41 48  1  0  0  0
 42 43  1  0  0  0
 42 66  1  0  0  0
 42112  1  0  0  0
 42113  1  0  0  0
 43 44  1  0  0  0
 44114  1  0  0  0
 45 46  2  0  0  0
 45115  1  0  0  0
 46116  1  0  0  0
 47117  1  0  0  0
 47118  1  0  0  0
 48 56  1  0  0  0
 48 65  1  0  0  0
 48119  1  0  0  0
 49 50  1  0  0  0
 49 53  1  0  0  0
 49 64  1  0  0  0
 49120  1  0  0  0
 50 51  1  0  0  0
 50121  1  0  0  0
 50122  1  0  0  0
 51 52  1  0  0  0
 51123  1  0  0  0
 51124  1  0  0  0
 52125  1  0  0  0
 52126  1  0  0  0
 53 54  1  0  0  0
 54 55  2  0  0  0
 54127  1  0  0  0
 55 57  1  0  0  0
 55128  1  0  0  0
 56 69  2  0  0  0
 57 58  2  0  0  0
 57129  1  0  0  0
 58130  1  0  0  0
 59 60  1  0  0  0
 59 61  1  0  0  0
 59 62  1  0  0  0
 60131  1  0  0  0
 60132  1  0  0  0
 60133  1  0  0  0
 61134  1  0  0  0
 61135  1  0  0  0
 61136  1  0  0  0
 62137  1  0  0  0
 62138  1  0  0  0
 62139  1  0  0  0
 63 65  1  0  0  0
 63140  1  0  0  0
 63141  1  0  0  0
 63142  1  0  0  0
 64143  1  0  0  0
 65144  1  0  0  0
 68 82  1  0  0  0
 71 72  2  0  0  0
 71 73  1  0  0  0
 71145  1  0  0  0
 72 74  1  0  0  0
 72 76  1  0  0  0
 73 75  2  0  0  0
 73 79  1  0  0  0
 74 80  1  0  0  0
 74 84  2  0  0  0
 75 83  1  0  0  0
 75 84  1  0  0  0
 76146  1  0  0  0
 76147  1  0  0  0
 76148  1  0  0  0
 77 80  1  0  0  0
 77149  1  0  0  0
 77150  1  0  0  0
 77151  1  0  0  0
 78152  1  0  0  0
 78153  1  0  0  0
 78154  1  0  0  0
 78 83  1  0  0  0
 79 81  1  0  0  0
 79155  1  0  0  0
 79156  1  0  0  0
 80157  1  0  0  0
 80158  1  0  0  0
 81 82  1  0  0  0
 81159  1  0  0  0
 81160  1  0  0  0
 82161  1  0  0  0
 82162  1  0  0  0
 83 85  1  0  0  0
 83163  1  0  0  0
 85164  1  0  0  0
M  ISO  4   1 100  68 101  82 101  85 100
M  END
> <chiral flag>
0

> <version>
0

> <s_m_source_file>
/data/baiqing/PycharmProjects/Reinvent-master-3.2/result/LINK_invent/BTK/process_docking_weight1_custom_sum_contain_oxygen_bond_distance_aromatic_linkinvent_7_9_3/rearranged_h_0088.sdf

> <i_m_source_file_index>
29

> <r_mmod_Potential_Energy-OPLS-2005>
405.254608154297

> <r_mmod_Stretch_Energy-OPLS-2005>
311.630676269531

> <r_mmod_Bend_Energy-OPLS-2005>
367.311126708984

> <r_mmod_Torsional_Energy-OPLS-2005>
205.343688964844

> <r_mmod_Improper_Torsional_Energy-OPLS-2005>
5.761399269104

> <r_mmod_Van_der_Waal_Energy-OPLS-2005>
132.09587097168

> <r_mmod_Electrostatic_Energy-OPLS-2005>
-614.153625488281

> <r_mmod_Solvation_Energy-OPLS-2005>
-232.165405273438

> <b_mmod_Minimization_Converged-OPLS-2005>
0

> <r_mmod_RMS_Derivative-OPLS-2005>
3.11844921112061

$$$$
29
                    3D
 Structure written by MMmdl.
165173  0  0  1  0            999 V2000
  -30.7431  -14.4424   20.6276 C   0  0  0  0  0  0
  -30.4301  -12.3149   19.4063 C   0  0  0  0  0  0
  -29.4983  -12.5302   18.1982 C   0  0  0  0  0  0
  -28.0198  -12.3941   18.6127 C   0  0  0  0  0  0
  -27.6706  -13.2143   19.8834 C   0  0  2  0  0  0
  -28.7159  -12.9747   20.9976 C   0  0  0  0  0  0
  -25.2617  -13.8173   20.5688 C   0  0  0  0  0  0
  -24.1876  -13.0439   20.9184 C   0  0  0  0  0  0
  -24.6452  -11.6913   20.8743 C   0  0  0  0  0  0
  -23.9120  -10.4292   21.0398 C   0  0  0  0  0  0
  -24.3652   -9.4198   21.9184 C   0  0  0  0  0  0
  -23.6308   -8.2249   22.0763 C   0  0  0  0  0  0
  -22.4282   -8.0303   21.3555 C   0  0  0  0  0  0
  -21.9938   -9.0279   20.4657 C   0  0  0  0  0  0
  -22.7291  -10.2148   20.3056 C   0  0  0  0  0  0
  -21.6866   -6.0742   22.5285 C   0  0  0  0  0  0
  -21.4021   -6.5643   23.8216 C   0  0  0  0  0  0
  -21.3658   -5.6795   24.9179 C   0  0  0  0  0  0
  -21.6038   -4.3059   24.7228 C   0  0  0  0  0  0
  -21.8822   -3.8154   23.4350 C   0  0  0  0  0  0
  -21.9195   -4.6966   22.3403 C   0  0  0  0  0  0
  -22.7880  -13.5223   21.1819 C   0  0  0  0  0  0
  -22.1654   -4.2154   21.0976 F   0  0  0  0  0  0
  -21.5625   -3.4543   25.7741 F   0  0  0  0  0  0
  -30.0518  -13.2822   20.4496 N   0  0  0  0  0  0
  -26.3094  -12.9370   20.3423 N   0  0  0  0  0  0
  -25.9389  -11.6521   20.5805 N   0  0  0  0  0  0
  -22.0513  -12.8234   22.0381 N   0  0  0  0  0  0
  -25.4316  -15.1898   20.4072 N   0  0  0  0  0  0
  -31.8240  -14.6629   20.0794 O   0  0  0  0  0  0
  -21.6651   -6.8891   21.4255 O   0  0  0  0  0  0
  -22.3568  -14.5525   20.6661 O   0  0  0  0  0  0
  -24.6191  -31.8646   23.2125 C   0  0  0  0  0  0
  -25.9085  -32.4797   23.8411 C   0  0  1  0  0  0
  -27.2453  -27.4369   20.0895 C   0  0  0  0  0  0
  -25.5945  -33.8599   24.2340 N   0  0  0  0  0  0
  -23.4051  -30.4934   21.5508 C   0  0  2  0  0  0
  -24.8524  -28.9644   20.1145 C   0  0  0  0  0  0
  -22.7409  -29.4668   22.4975 C   0  0  0  0  0  0
  -18.0279  -28.1387   22.8485 C   0  0  0  0  0  0
  -24.1491  -36.7331   23.2632 C   0  0  0  0  0  0
  -25.9359  -30.8354   21.3621 C   0  0  0  0  0  0
  -26.0157  -29.4712   20.7081 C   0  0  0  0  0  0
  -27.2132  -28.7182   20.6893 C   0  0  0  0  0  0
  -26.0583  -26.9556   19.4801 C   0  0  0  0  0  0
  -24.8703  -27.7065   19.4939 C   0  0  0  0  0  0
  -23.6136  -29.8292   20.1643 C   0  0  0  0  0  0
  -25.4103  -36.3095   24.0335 C   0  0  1  0  0  0
  -20.5864  -28.3672   23.1305 C   0  0  2  0  0  0
  -20.6784  -26.9402   22.5405 C   0  0  0  0  0  0
  -19.5770  -26.6379   21.5200 C   0  0  0  0  0  0
  -18.1942  -26.7942   22.1597 C   0  0  0  0  0  0
  -19.1523  -28.8854   23.2903 C   0  0  0  0  0  0
  -18.9441  -30.1459   23.8915 C   0  0  0  0  0  0
  -17.6439  -30.6588   24.0570 C   0  0  0  0  0  0
  -25.9020  -34.9450   23.5117 C   0  0  0  0  0  0
  -16.5335  -29.9083   23.6339 C   0  0  0  0  0  0
  -16.7267  -28.6504   23.0353 C   0  0  0  0  0  0
  -26.4493  -31.6586   25.0750 C   0  0  0  0  0  0
  -25.3757  -31.3677   26.1497 C   0  0  0  0  0  0
  -27.0355  -30.3044   24.6133 C   0  0  0  0  0  0
  -27.6093  -32.4285   25.7498 C   0  0  0  0  0  0
  -27.5589  -37.1805   24.8453 C   0  0  0  0  0  0
  -21.4136  -29.3046   22.3723 N   0  0  0  0  0  0
  -26.4293  -37.3775   23.9401 N   0  0  0  0  0  0
  -24.6724  -31.0759   22.1014 N   0  0  0  0  0  0
  -23.4171  -28.8193   23.3013 O   0  0  0  0  0  0
  -28.4156  -26.6906   20.1238 O   0  0  0  0  0  0
  -26.5539  -34.8897   22.4649 O   0  0  0  0  0  0
  -23.5397  -32.1381   23.7540 O   0  0  0  0  0  0
  -30.5711  -19.7905   21.9694 C   0  0  0  0  0  0
  -30.0158  -21.0867   21.9034 C   0  0  0  0  0  0
  -30.7466  -19.7549   19.5527 C   0  0  0  0  0  0
  -30.8875  -19.0846   20.7877 C   0  0  0  0  0  0
  -29.7587  -21.7065   20.6582 C   0  0  0  0  0  0
  -30.1832  -21.0503   19.4707 C   0  0  0  0  0  0
  -28.9198  -20.9181   17.2696 C   0  0  0  0  0  0
  -32.8305  -17.5304   21.1552 C   0  0  0  0  0  0
  -28.8342  -22.9284   20.6249 C   0  0  0  0  0  0
  -29.9941  -21.6528   18.0826 C   0  0  0  0  0  0
  -29.4134  -24.3535   20.4190 C   0  0  0  0  0  0
  -30.4679  -16.7427   21.7816 C   0  0  0  0  0  0
  -28.2535  -25.2726   19.9593 C   0  0  0  0  0  0
  -31.3321  -17.6117   20.8134 C   0  0  1  0  0  0
  -30.1265  -15.3576   21.3929 N   0  0  0  0  0  0
  -31.4722  -12.4183   19.0960 H   0  0  0  0  0  0
  -30.3303  -11.2974   19.7868 H   0  0  0  0  0  0
  -29.7317  -11.8119   17.4112 H   0  0  0  0  0  0
  -29.6774  -13.5190   17.7705 H   0  0  0  0  0  0
  -27.8186  -11.3373   18.7888 H   0  0  0  0  0  0
  -27.3745  -12.6934   17.7865 H   0  0  0  0  0  0
  -27.7191  -14.2689   19.6101 H   0  0  0  0  0  0
  -28.6923  -11.9331   21.3211 H   0  0  0  0  0  0
  -28.4715  -13.5554   21.8883 H   0  0  0  0  0  0
  -25.2793   -9.5668   22.4777 H   0  0  0  0  0  0
  -24.0006   -7.4643   22.7488 H   0  0  0  0  0  0
  -21.0866   -8.8822   19.8967 H   0  0  0  0  0  0
  -22.3756  -10.9697   19.6175 H   0  0  0  0  0  0
  -21.2022   -7.6154   23.9726 H   0  0  0  0  0  0
  -21.1470   -6.0520   25.9078 H   0  0  0  0  0  0
  -22.0604   -2.7621   23.2856 H   0  0  0  0  0  0
  -22.4096  -11.9894   22.4796 H   0  0  0  0  0  0
  -21.1129  -13.1295   22.2550 H   0  0  0  0  0  0
  -24.6708  -15.8504   20.5226 H   0  0  0  0  0  0
  -26.2910  -15.6308   20.1034 H   0  0  0  0  0  0
  -26.7170  -32.5502   23.1193 H   0  0  0  0  0  0
  -25.0248  -33.9756   25.0590 H   0  0  0  0  0  0
  -22.6986  -31.3144   21.4123 H   0  0  0  0  0  0
  -23.3731  -35.9688   23.3292 H   0  0  0  0  0  0
  -24.3617  -36.8942   22.2052 H   0  0  0  0  0  0
  -23.7253  -37.6545   23.6635 H   0  0  0  0  0  0
  -26.0456  -31.6018   20.5934 H   0  0  0  0  0  0
  -26.8282  -30.8891   21.9753 H   0  0  0  0  0  0
  -28.1120  -29.1080   21.1473 H   0  0  0  0  0  0
  -26.0260  -25.9974   18.9819 H   0  0  0  0  0  0
  -23.9793  -27.3158   19.0209 H   0  0  0  0  0  0
  -23.7201  -30.6065   19.4060 H   0  0  0  0  0  0
  -22.7377  -29.2479   19.8682 H   0  0  0  0  0  0
  -25.1265  -36.1967   25.0830 H   0  0  0  0  0  0
  -20.9957  -28.3237   24.1422 H   0  0  0  0  0  0
  -20.5697  -26.2259   23.3583 H   0  0  0  0  0  0
  -21.6658  -26.7460   22.1187 H   0  0  0  0  0  0
  -19.6934  -25.6278   21.1266 H   0  0  0  0  0  0
  -19.6748  -27.3165   20.6715 H   0  0  0  0  0  0
  -17.4202  -26.6689   21.4000 H   0  0  0  0  0  0
  -18.0361  -26.0074   22.8987 H   0  0  0  0  0  0
  -19.7906  -30.7291   24.2275 H   0  0  0  0  0  0
  -17.4977  -31.6267   24.5166 H   0  0  0  0  0  0
  -15.5338  -30.2980   23.7657 H   0  0  0  0  0  0
  -15.8665  -28.0829   22.7058 H   0  0  0  0  0  0
  -24.5969  -30.6970   25.7832 H   0  0  0  0  0  0
  -24.8911  -32.2829   26.4911 H   0  0  0  0  0  0
  -25.8131  -30.8881   27.0265 H   0  0  0  0  0  0
  -26.2915  -29.6769   24.1220 H   0  0  0  0  0  0
  -27.4179  -29.7309   25.4585 H   0  0  0  0  0  0
  -27.8708  -30.4390   23.9261 H   0  0  0  0  0  0
  -27.2761  -33.3591   26.2096 H   0  0  0  0  0  0
  -28.3901  -32.6816   25.0314 H   0  0  0  0  0  0
  -28.0755  -31.8373   26.5390 H   0  0  0  0  0  0
  -28.2557  -38.0146   24.7537 H   0  0  0  0  0  0
  -28.1125  -36.2677   24.6215 H   0  0  0  0  0  0
  -27.2321  -37.1385   25.8857 H   0  0  0  0  0  0
  -20.9284  -29.8785   21.6972 H   0  0  0  0  0  0
  -26.0188  -38.2850   24.1417 H   0  0  0  0  0  0
  -30.6904  -19.3161   22.9338 H   0  0  0  0  0  0
  -29.7079  -21.5680   22.8217 H   0  0  0  0  0  0
  -31.0195  -19.2464   18.6382 H   0  0  0  0  0  0
  -28.7983  -21.3713   16.2852 H   0  0  0  0  0  0
  -27.9548  -20.9536   17.7759 H   0  0  0  0  0  0
  -29.1798  -19.8701   17.1150 H   0  0  0  0  0  0
  -33.4257  -18.0736   20.4216 H   0  0  0  0  0  0
  -33.1961  -16.5047   21.1719 H   0  0  0  0  0  0
  -33.0356  -17.9655   22.1337 H   0  0  0  0  0  0
  -28.2448  -22.9335   21.5442 H   0  0  0  0  0  0
  -28.1016  -22.7328   19.8425 H   0  0  0  0  0  0
  -30.9483  -21.5997   17.5550 H   0  0  0  0  0  0
  -29.7533  -22.7128   18.1306 H   0  0  0  0  0  0
  -30.1994  -24.3594   19.6645 H   0  0  0  0  0  0
  -29.8585  -24.7156   21.3461 H   0  0  0  0  0  0
  -29.4976  -17.2285   21.8946 H   0  0  0  0  0  0
  -30.9004  -16.7387   22.7829 H   0  0  0  0  0  0
  -27.3705  -24.9674   20.5261 H   0  0  0  0  0  0
  -28.0499  -25.0654   18.9072 H   0  0  0  0  0  0
  -31.1923  -17.2352   19.7991 H   0  0  0  0  0  0
  -29.2457  -15.0306   21.7618 H   0  0  0  0  0  0
  1 25  1  0  0  0
  1 30  2  0  0  0
  1 85  1  0  0  0
  2  3  1  0  0  0
  2 25  1  0  0  0
  2 86  1  0  0  0
  2 87  1  0  0  0
  3  4  1  0  0  0
  3 88  1  0  0  0
  3 89  1  0  0  0
  4  5  1  0  0  0
  4 90  1  0  0  0
  4 91  1  0  0  0
  5  6  1  0  0  0
  5 26  1  0  0  0
  5 92  1  0  0  0
  6 25  1  0  0  0
  6 93  1  0  0  0
  6 94  1  0  0  0
  7  8  2  0  0  0
  7 26  1  0  0  0
  7 29  1  0  0  0
  8  9  1  0  0  0
  8 22  1  0  0  0
  9 10  1  0  0  0
  9 27  2  0  0  0
 10 11  2  0  0  0
 10 15  1  0  0  0
 11 12  1  0  0  0
 11 95  1  0  0  0
 12 13  2  0  0  0
 12 96  1  0  0  0
 13 14  1  0  0  0
 13 31  1  0  0  0
 14 15  2  0  0  0
 14 97  1  0  0  0
 15 98  1  0  0  0
 16 17  2  0  0  0
 16 21  1  0  0  0
 16 31  1  0  0  0
 17 18  1  0  0  0
 17 99  1  0  0  0
 18 19  2  0  0  0
 18100  1  0  0  0
 19 20  1  0  0  0
 19 24  1  0  0  0
 20 21  2  0  0  0
 20101  1  0  0  0
 21 23  1  0  0  0
 22 28  1  0  0  0
 22 32  2  0  0  0
 26 27  1  0  0  0
 28102  1  0  0  0
 28103  1  0  0  0
 29104  1  0  0  0
 29105  1  0  0  0
 33 34  1  0  0  0
 33 66  1  0  0  0
 33 70  2  0  0  0
 34 36  1  0  0  0
 34 59  1  0  0  0
 34106  1  0  0  0
 35 44  2  0  0  0
 35 45  1  0  0  0
 35 68  1  0  0  0
 36 56  1  0  0  0
 36107  1  0  0  0
 37 39  1  0  0  0
 37 47  1  0  0  0
 37 66  1  0  0  0
 37108  1  0  0  0
 38 43  2  0  0  0
 38 46  1  0  0  0
 38 47  1  0  0  0
 39 64  1  0  0  0
 39 67  2  0  0  0
 40 52  1  0  0  0
 40 53  2  0  0  0
 40 58  1  0  0  0
 41109  1  0  0  0
 41110  1  0  0  0
 41111  1  0  0  0
 41 48  1  0  0  0
 42 43  1  0  0  0
 42 66  1  0  0  0
 42112  1  0  0  0
 42113  1  0  0  0
 43 44  1  0  0  0
 44114  1  0  0  0
 45 46  2  0  0  0
 45115  1  0  0  0
 46116  1  0  0  0
 47117  1  0  0  0
 47118  1  0  0  0
 48 56  1  0  0  0
 48 65  1  0  0  0
 48119  1  0  0  0
 49 50  1  0  0  0
 49 53  1  0  0  0
 49 64  1  0  0  0
 49120  1  0  0  0
 50 51  1  0  0  0
 50121  1  0  0  0
 50122  1  0  0  0
 51 52  1  0  0  0
 51123  1  0  0  0
 51124  1  0  0  0
 52125  1  0  0  0
 52126  1  0  0  0
 53 54  1  0  0  0
 54 55  2  0  0  0
 54127  1  0  0  0
 55 57  1  0  0  0
 55128  1  0  0  0
 56 69  2  0  0  0
 57 58  2  0  0  0
 57129  1  0  0  0
 58130  1  0  0  0
 59 60  1  0  0  0
 59 61  1  0  0  0
 59 62  1  0  0  0
 60131  1  0  0  0
 60132  1  0  0  0
 60133  1  0  0  0
 61134  1  0  0  0
 61135  1  0  0  0
 61136  1  0  0  0
 62137  1  0  0  0
 62138  1  0  0  0
 62139  1  0  0  0
 63 65  1  0  0  0
 63140  1  0  0  0
 63141  1  0  0  0
 63142  1  0  0  0
 64143  1  0  0  0
 65144  1  0  0  0
 68 83  1  0  0  0
 71 72  2  0  0  0
 71 74  1  0  0  0
 71145  1  0  0  0
 72 75  1  0  0  0
 72146  1  0  0  0
 73 74  2  0  0  0
 73 76  1  0  0  0
 73147  1  0  0  0
 74 84  1  0  0  0
 75 76  2  0  0  0
 75 79  1  0  0  0
 76 80  1  0  0  0
 77 80  1  0  0  0
 77148  1  0  0  0
 77149  1  0  0  0
 77150  1  0  0  0
 78151  1  0  0  0
 78152  1  0  0  0
 78153  1  0  0  0
 78 84  1  0  0  0
 79 81  1  0  0  0
 79154  1  0  0  0
 79155  1  0  0  0
 80156  1  0  0  0
 80157  1  0  0  0
 81 83  1  0  0  0
 81158  1  0  0  0
 81159  1  0  0  0
 82 84  1  0  0  0
 82 85  1  0  0  0
 82160  1  0  0  0
 82161  1  0  0  0
 83162  1  0  0  0
 83163  1  0  0  0
 84164  1  0  0  0
 85165  1  0  0  0
M  ISO  4   1 100  68 101  83 101  85 100
M  END
> <chiral flag>
0

> <version>
0

> <s_m_source_file>
/data/baiqing/PycharmProjects/Reinvent-master-3.2/result/LINK_invent/BTK/process_docking_weight1_custom_sum_contain_oxygen_bond_distance_aromatic_linkinvent_7_9_3/rearranged_h_0088.sdf

> <i_m_source_file_index>
30

> <r_mmod_Potential_Energy-OPLS-2005>
-66.8944778442383

> <r_mmod_Stretch_Energy-OPLS-2005>
40.9621696472168

> <r_mmod_Bend_Energy-OPLS-2005>
119.815078735352

> <r_mmod_Torsional_Energy-OPLS-2005>
219.214691162109

> <r_mmod_Improper_Torsional_Energy-OPLS-2005>
3.43572092056274

> <r_mmod_Van_der_Waal_Energy-OPLS-2005>
159.999557495117

> <r_mmod_Electrostatic_Energy-OPLS-2005>
-420.978332519531

> <r_mmod_Solvation_Energy-OPLS-2005>
-200.211669921875

> <b_mmod_Minimization_Converged-OPLS-2005>
0

> <r_mmod_RMS_Derivative-OPLS-2005>
2.69673013687134

$$$$
30
                    3D
 Structure written by MMmdl.
161169  0  0  1  0            999 V2000
  -30.3965  -15.2754   20.3920 C   0  0  0  0  0  0
  -30.4304  -12.8167   19.5485 C   0  0  0  0  0  0
  -29.5364  -12.5882   18.3025 C   0  0  0  0  0  0
  -28.0862  -12.2994   18.7276 C   0  0  0  0  0  0
  -27.6052  -13.2743   19.8317 C   0  0  2  0  0  0
  -28.6307  -13.4364   20.9730 C   0  0  0  0  0  0
  -25.2345  -13.8273   20.5774 C   0  0  0  0  0  0
  -24.1701  -13.0476   20.9270 C   0  0  0  0  0  0
  -24.6348  -11.6948   20.8769 C   0  0  0  0  0  0
  -23.9058  -10.4319   21.0398 C   0  0  0  0  0  0
  -24.3620   -9.4246   21.9185 C   0  0  0  0  0  0
  -23.6314   -8.2283   22.0754 C   0  0  0  0  0  0
  -22.4305   -8.0289   21.3534 C   0  0  0  0  0  0
  -21.9912   -9.0268   20.4649 C   0  0  0  0  0  0
  -22.7221  -10.2154   20.3059 C   0  0  0  0  0  0
  -21.6874   -6.0740   22.5272 C   0  0  0  0  0  0
  -21.4020   -6.5633   23.8204 C   0  0  0  0  0  0
  -21.3671   -5.6773   24.9163 C   0  0  0  0  0  0
  -21.6060   -4.3045   24.7206 C   0  0  0  0  0  0
  -21.8829   -3.8140   23.4319 C   0  0  0  0  0  0
  -21.9216   -4.6981   22.3377 C   0  0  0  0  0  0
  -22.7732  -13.5223   21.1934 C   0  0  0  0  0  0
  -22.1680   -4.2171   21.0944 F   0  0  0  0  0  0
  -21.5630   -3.4503   25.7705 F   0  0  0  0  0  0
  -29.8581  -13.9576   20.3564 N   0  0  0  0  0  0
  -26.2749  -12.9534   20.3239 N   0  0  0  0  0  0
  -25.9264  -11.6642   20.5693 N   0  0  0  0  0  0
  -22.0407  -12.8193   22.0478 N   0  0  0  0  0  0
  -25.4017  -15.2033   20.4248 N   0  0  0  0  0  0
  -31.6133  -15.2918   20.1482 O   0  0  0  0  0  0
  -21.6677   -6.8888   21.4237 O   0  0  0  0  0  0
  -22.3413  -14.5540   20.6795 O   0  0  0  0  0  0
  -24.6649  -31.8224   23.1679 C   0  0  0  0  0  0
  -25.9311  -32.4584   23.8169 C   0  0  1  0  0  0
  -27.2141  -26.9109   20.2069 C   0  0  0  0  0  0
  -25.5968  -33.8403   24.2082 N   0  0  0  0  0  0
  -23.4789  -30.4312   21.5209 C   0  0  2  0  0  0
  -24.9288  -28.8105   20.1184 C   0  0  0  0  0  0
  -22.7684  -29.4434   22.4822 C   0  0  0  0  0  0
  -18.0317  -28.1406   22.8477 C   0  0  0  0  0  0
  -24.1498  -36.7221   23.2641 C   0  0  0  0  0  0
  -26.0478  -30.6252   21.3945 C   0  0  0  0  0  0
  -26.1139  -29.2117   20.7452 C   0  0  0  0  0  0
  -27.2538  -28.2884   20.7541 C   0  0  0  0  0  0
  -26.0041  -26.6651   19.5185 C   0  0  0  0  0  0
  -24.8995  -27.5581   19.4807 C   0  0  0  0  0  0
  -23.7153  -29.7401   20.1512 C   0  0  0  0  0  0
  -25.4136  -36.2990   24.0309 C   0  0  1  0  0  0
  -20.5939  -28.3759   23.1206 C   0  0  2  0  0  0
  -20.6798  -26.9445   22.5411 C   0  0  0  0  0  0
  -19.5765  -26.6380   21.5227 C   0  0  0  0  0  0
  -18.1949  -26.7934   22.1637 C   0  0  0  0  0  0
  -19.1578  -28.8904   23.2820 C   0  0  0  0  0  0
  -18.9480  -30.1494   23.8859 C   0  0  0  0  0  0
  -17.6468  -30.6598   24.0548 C   0  0  0  0  0  0
  -25.9103  -34.9361   23.5024 C   0  0  0  0  0  0
  -16.5362  -29.9081   23.6340 C   0  0  0  0  0  0
  -16.7291  -28.6494   23.0373 C   0  0  0  0  0  0
  -26.4542  -31.6514   25.0692 C   0  0  0  0  0  0
  -25.3688  -31.3742   26.1371 C   0  0  0  0  0  0
  -27.0410  -30.2890   24.6377 C   0  0  0  0  0  0
  -27.6054  -32.4307   25.7460 C   0  0  0  0  0  0
  -27.5607  -37.1750   24.8457 C   0  0  0  0  0  0
  -21.4354  -29.3042   22.3563 N   0  0  0  0  0  0
  -26.4291  -37.3726   23.9430 N   0  0  0  0  0  0
  -24.7523  -30.9878   22.0806 N   0  0  0  0  0  0
  -23.4231  -28.8008   23.3081 O   0  0  0  0  0  0
  -28.2300  -25.8161   20.2804 O   0  0  0  0  0  0
  -26.5732  -34.8893   22.4635 O   0  0  0  0  0  0
  -23.5719  -32.1200   23.6766 O   0  0  0  0  0  0
  -31.0235  -21.1660   20.3650 C   0  0  0  0  0  0
  -32.0164  -22.1442   20.2593 C   0  0  0  0  0  0
  -29.6256  -21.3956   20.3971 C   0  0  0  0  0  0
  -31.6088  -23.4749   20.1663 C   0  0  0  0  0  0
  -29.2758  -22.9593   20.3379 C   0  0  0  0  0  0
  -33.8954  -20.9770   18.9884 C   0  0  0  0  0  0
  -33.1353  -25.1639   21.3206 C   0  0  0  0  0  0
  -33.4801  -21.7044   20.2763 C   0  0  0  0  0  0
  -28.9948  -19.7658   20.5287 C   0  0  0  0  0  0
  -32.5912  -24.6250   19.9879 C   0  0  0  0  0  0
  -28.0184  -24.1630   20.3579 C   0  0  0  0  0  0
  -29.9194  -18.1836   20.3472 C   0  0  0  0  0  0
  -30.3181  -23.8223   20.2253 N   0  0  0  0  0  0
  -29.6150  -16.5401   20.5049 N   0  0  0  0  0  0
  -31.4519  -13.0259   19.2367 H   0  0  0  0  0  0
  -30.4931  -11.9026   20.1402 H   0  0  0  0  0  0
  -29.9187  -11.7667   17.6960 H   0  0  0  0  0  0
  -29.5615  -13.4783   17.6749 H   0  0  0  0  0  0
  -28.0592  -11.2772   19.1078 H   0  0  0  0  0  0
  -27.4173  -12.3265   17.8672 H   0  0  0  0  0  0
  -27.5221  -14.2428   19.3366 H   0  0  0  0  0  0
  -28.7986  -12.4906   21.4905 H   0  0  0  0  0  0
  -28.2649  -14.1383   21.7243 H   0  0  0  0  0  0
  -25.2760   -9.5755   22.4761 H   0  0  0  0  0  0
  -24.0052   -7.4664   22.7443 H   0  0  0  0  0  0
  -21.0866   -8.8766   19.8927 H   0  0  0  0  0  0
  -22.3665  -10.9702   19.6177 H   0  0  0  0  0  0
  -21.2004   -7.6137   23.9710 H   0  0  0  0  0  0
  -21.1483   -6.0496   25.9062 H   0  0  0  0  0  0
  -22.0612   -2.7616   23.2795 H   0  0  0  0  0  0
  -22.4015  -11.9800   22.4783 H   0  0  0  0  0  0
  -21.1047  -13.1232   22.2767 H   0  0  0  0  0  0
  -24.6356  -15.8569   20.5415 H   0  0  0  0  0  0
  -26.2428  -15.6442   20.0773 H   0  0  0  0  0  0
  -26.7376  -32.5111   23.0883 H   0  0  0  0  0  0
  -25.0044  -33.9450   25.0185 H   0  0  0  0  0  0
  -22.7928  -31.2629   21.3508 H   0  0  0  0  0  0
  -23.3801  -35.9508   23.3213 H   0  0  0  0  0  0
  -24.3596  -36.8958   22.2077 H   0  0  0  0  0  0
  -23.7193  -37.6359   23.6744 H   0  0  0  0  0  0
  -26.2282  -31.3562   20.6060 H   0  0  0  0  0  0
  -26.9104  -30.6851   22.0459 H   0  0  0  0  0  0
  -28.1607  -28.6032   21.2506 H   0  0  0  0  0  0
  -25.8812  -25.7149   19.0204 H   0  0  0  0  0  0
  -23.9989  -27.2443   18.9701 H   0  0  0  0  0  0
  -23.8745  -30.5063   19.3906 H   0  0  0  0  0  0
  -22.8215  -29.1993   19.8358 H   0  0  0  0  0  0
  -25.1317  -36.1799   25.0797 H   0  0  0  0  0  0
  -21.0014  -28.3355   24.1332 H   0  0  0  0  0  0
  -20.5721  -26.2368   23.3639 H   0  0  0  0  0  0
  -21.6655  -26.7439   22.1187 H   0  0  0  0  0  0
  -19.6928  -25.6284   21.1275 H   0  0  0  0  0  0
  -19.6695  -27.3182   20.6745 H   0  0  0  0  0  0
  -17.4219  -26.6684   21.4035 H   0  0  0  0  0  0
  -18.0339  -26.0088   22.9042 H   0  0  0  0  0  0
  -19.7952  -30.7322   24.2226 H   0  0  0  0  0  0
  -17.5010  -31.6279   24.5155 H   0  0  0  0  0  0
  -15.5359  -30.2964   23.7679 H   0  0  0  0  0  0
  -15.8690  -28.0782   22.7129 H   0  0  0  0  0  0
  -24.5745  -30.7267   25.7627 H   0  0  0  0  0  0
  -24.9036  -32.2949   26.4909 H   0  0  0  0  0  0
  -25.7900  -30.8739   27.0103 H   0  0  0  0  0  0
  -26.3039  -29.6587   24.1387 H   0  0  0  0  0  0
  -27.3966  -29.7218   25.4986 H   0  0  0  0  0  0
  -27.8986  -30.4087   23.9756 H   0  0  0  0  0  0
  -27.2628  -33.3600   26.2023 H   0  0  0  0  0  0
  -28.3844  -32.6895   25.0275 H   0  0  0  0  0  0
  -28.0769  -31.8473   26.5379 H   0  0  0  0  0  0
  -28.2540  -38.0127   24.7609 H   0  0  0  0  0  0
  -28.1184  -36.2662   24.6140 H   0  0  0  0  0  0
  -27.2343  -37.1227   25.8857 H   0  0  0  0  0  0
  -20.9630  -29.8691   21.6636 H   0  0  0  0  0  0
  -26.0151  -38.2783   24.1463 H   0  0  0  0  0  0
  -31.4097  -20.1673   20.4334 H   0  0  0  0  0  0
  -34.8903  -20.5417   19.0999 H   0  0  0  0  0  0
  -33.9316  -21.6637   18.1444 H   0  0  0  0  0  0
  -33.2095  -20.1683   18.7249 H   0  0  0  0  0  0
  -33.8586  -25.9630   21.1478 H   0  0  0  0  0  0
  -33.6390  -24.3812   21.8896 H   0  0  0  0  0  0
  -32.3272  -25.5676   21.9321 H   0  0  0  0  0  0
  -33.6266  -21.0479   21.1352 H   0  0  0  0  0  0
  -34.1699  -22.5296   20.4491 H   0  0  0  0  0  0
  -28.1199  -19.7295   19.8776 H   0  0  0  0  0  0
  -28.5684  -19.7403   21.5334 H   0  0  0  0  0  0
  -32.0951  -25.4340   19.4508 H   0  0  0  0  0  0
  -33.4059  -24.3107   19.3344 H   0  0  0  0  0  0
  -27.4866  -24.0003   21.2981 H   0  0  0  0  0  0
  -27.3030  -23.8839   19.5826 H   0  0  0  0  0  0
  -30.7747  -18.2688   21.0156 H   0  0  0  0  0  0
  -30.3469  -18.2377   19.3457 H   0  0  0  0  0  0
  -28.6421  -16.3459   20.7035 H   0  0  0  0  0  0
  1 25  1  0  0  0
  1 30  2  0  0  0
  1 84  1  0  0  0
  2  3  1  0  0  0
  2 25  1  0  0  0
  2 85  1  0  0  0
  2 86  1  0  0  0
  3  4  1  0  0  0
  3 87  1  0  0  0
  3 88  1  0  0  0
  4  5  1  0  0  0
  4 89  1  0  0  0
  4 90  1  0  0  0
  5  6  1  0  0  0
  5 26  1  0  0  0
  5 91  1  0  0  0
  6 25  1  0  0  0
  6 92  1  0  0  0
  6 93  1  0  0  0
  7  8  2  0  0  0
  7 26  1  0  0  0
  7 29  1  0  0  0
  8  9  1  0  0  0
  8 22  1  0  0  0
  9 10  1  0  0  0
  9 27  2  0  0  0
 10 11  2  0  0  0
 10 15  1  0  0  0
 11 12  1  0  0  0
 11 94  1  0  0  0
 12 13  2  0  0  0
 12 95  1  0  0  0
 13 14  1  0  0  0
 13 31  1  0  0  0
 14 15  2  0  0  0
 14 96  1  0  0  0
 15 97  1  0  0  0
 16 17  2  0  0  0
 16 21  1  0  0  0
 16 31  1  0  0  0
 17 18  1  0  0  0
 17 98  1  0  0  0
 18 19  2  0  0  0
 18 99  1  0  0  0
 19 20  1  0  0  0
 19 24  1  0  0  0
 20 21  2  0  0  0
 20100  1  0  0  0
 21 23  1  0  0  0
 22 28  1  0  0  0
 22 32  2  0  0  0
 26 27  1  0  0  0
 28101  1  0  0  0
 28102  1  0  0  0
 29103  1  0  0  0
 29104  1  0  0  0
 33 34  1  0  0  0
 33 66  1  0  0  0
 33 70  2  0  0  0
 34 36  1  0  0  0
 34 59  1  0  0  0
 34105  1  0  0  0
 35 44  2  0  0  0
 35 45  1  0  0  0
 35 68  1  0  0  0
 36 56  1  0  0  0
 36106  1  0  0  0
 37 39  1  0  0  0
 37 47  1  0  0  0
 37 66  1  0  0  0
 37107  1  0  0  0
 38 43  2  0  0  0
 38 46  1  0  0  0
 38 47  1  0  0  0
 39 64  1  0  0  0
 39 67  2  0  0  0
 40 52  1  0  0  0
 40 53  2  0  0  0
 40 58  1  0  0  0
 41108  1  0  0  0
 41109  1  0  0  0
 41110  1  0  0  0
 41 48  1  0  0  0
 42 43  1  0  0  0
 42 66  1  0  0  0
 42111  1  0  0  0
 42112  1  0  0  0
 43 44  1  0  0  0
 44113  1  0  0  0
 45 46  2  0  0  0
 45114  1  0  0  0
 46115  1  0  0  0
 47116  1  0  0  0
 47117  1  0  0  0
 48 56  1  0  0  0
 48 65  1  0  0  0
 48118  1  0  0  0
 49 50  1  0  0  0
 49 53  1  0  0  0
 49 64  1  0  0  0
 49119  1  0  0  0
 50 51  1  0  0  0
 50120  1  0  0  0
 50121  1  0  0  0
 51 52  1  0  0  0
 51122  1  0  0  0
 51123  1  0  0  0
 52124  1  0  0  0
 52125  1  0  0  0
 53 54  1  0  0  0
 54 55  2  0  0  0
 54126  1  0  0  0
 55 57  1  0  0  0
 55127  1  0  0  0
 56 69  2  0  0  0
 57 58  2  0  0  0
 57128  1  0  0  0
 58129  1  0  0  0
 59 60  1  0  0  0
 59 61  1  0  0  0
 59 62  1  0  0  0
 60130  1  0  0  0
 60131  1  0  0  0
 60132  1  0  0  0
 61133  1  0  0  0
 61134  1  0  0  0
 61135  1  0  0  0
 62136  1  0  0  0
 62137  1  0  0  0
 62138  1  0  0  0
 63 65  1  0  0  0
 63139  1  0  0  0
 63140  1  0  0  0
 63141  1  0  0  0
 64142  1  0  0  0
 65143  1  0  0  0
 68 81  1  0  0  0
 71 72  2  0  0  0
 71 73  1  0  0  0
 71144  1  0  0  0
 72 74  1  0  0  0
 72 78  1  0  0  0
 73 75  2  0  0  0
 73 79  1  0  0  0
 74 80  1  0  0  0
 74 83  2  0  0  0
 75 81  1  0  0  0
 75 83  1  0  0  0
 76 78  1  0  0  0
 76145  1  0  0  0
 76146  1  0  0  0
 76147  1  0  0  0
 77 80  1  0  0  0
 77148  1  0  0  0
 77149  1  0  0  0
 77150  1  0  0  0
 78151  1  0  0  0
 78152  1  0  0  0
 79 82  1  0  0  0
 79153  1  0  0  0
 79154  1  0  0  0
 80155  1  0  0  0
 80156  1  0  0  0
 81157  1  0  0  0
 81158  1  0  0  0
 82 84  1  0  0  0
 82159  1  0  0  0
 82160  1  0  0  0
 84161  1  0  0  0
M  ISO  4   1 100  68 101  81 101  84 100
M  END
> <chiral flag>
0

> <version>
0

> <s_m_source_file>
/data/baiqing/PycharmProjects/Reinvent-master-3.2/result/LINK_invent/BTK/process_docking_weight1_custom_sum_contain_oxygen_bond_distance_aromatic_linkinvent_7_9_3/rearranged_h_0088.sdf

> <i_m_source_file_index>
31

> <r_mmod_Potential_Energy-OPLS-2005>
1271.13818359375

> <r_mmod_Stretch_Energy-OPLS-2005>
668.473754882812

> <r_mmod_Bend_Energy-OPLS-2005>
541.715454101562

> <r_mmod_Torsional_Energy-OPLS-2005>
201.692047119141

> <r_mmod_Improper_Torsional_Energy-OPLS-2005>
3.74527478218079

> <r_mmod_Van_der_Waal_Energy-OPLS-2005>
131.384124755859

> <r_mmod_Electrostatic_Energy-OPLS-2005>
-513.687561035156

> <r_mmod_Solvation_Energy-OPLS-2005>
-236.736801147461

> <b_mmod_Minimization_Converged-OPLS-2005>
0

> <r_mmod_RMS_Derivative-OPLS-2005>
5.05552005767822

$$$$
31
                    3D
 Structure written by MMmdl.
164172  0  0  1  0            999 V2000
  -31.4452  -14.7117   20.1954 C   0  0  0  0  0  0
  -30.7912  -12.3539   19.5532 C   0  0  0  0  0  0
  -29.8704  -12.4856   18.3481 C   0  0  0  0  0  0
  -29.1936  -13.8501   18.4025 C   0  0  0  0  0  0
  -28.4216  -14.6556   19.8514 C   0  0  2  0  0  0
  -29.4584  -13.8246   20.9018 C   0  0  0  0  0  0
  -24.5461  -14.5795   20.9535 C   0  0  0  0  0  0
  -23.8178  -13.4542   21.3240 C   0  0  0  0  0  0
  -24.3804  -12.2254   20.9316 C   0  0  0  0  0  0
  -23.8632  -10.7392   20.9932 C   0  0  0  0  0  0
  -24.3413   -9.7070   21.8813 C   0  0  0  0  0  0
  -23.6819   -8.4411   22.0502 C   0  0  0  0  0  0
  -22.4919   -8.1414   21.3398 C   0  0  0  0  0  0
  -22.0473   -9.1143   20.4245 C   0  0  0  0  0  0
  -22.7162  -10.3559   20.2511 C   0  0  0  0  0  0
  -21.7449   -6.1245   22.5196 C   0  0  0  0  0  0
  -21.4467   -6.5987   23.8170 C   0  0  0  0  0  0
  -21.3811   -5.7043   24.9071 C   0  0  0  0  0  0
  -21.6021   -4.3276   24.7093 C   0  0  0  0  0  0
  -21.8742   -3.8430   23.4180 C   0  0  0  0  0  0
  -21.9369   -4.7349   22.3291 C   0  0  0  0  0  0
  -22.3818  -13.5977   21.4385 C   0  0  0  0  0  0
  -22.1729   -4.2443   21.0881 F   0  0  0  0  0  0
  -21.5517   -3.4701   25.7568 F   0  0  0  0  0  0
  -30.6907  -13.6056   20.3506 N   0  0  0  0  0  0
  -25.5076  -14.3321   20.1143 N   0  0  0  0  0  0
  -24.8242  -12.9206   19.8778 N   0  0  0  0  0  0
  -21.7574  -12.7511   22.2312 N   0  0  0  0  0  0
  -24.3738  -15.9179   20.9662 N   0  0  0  0  0  0
  -32.6244  -14.5907   20.0261 O   0  0  0  0  0  0
  -21.7626   -6.9578   21.4171 O   0  0  0  0  0  0
  -21.8291  -14.4811   20.7893 O   0  0  0  0  0  0
  -24.7635  -31.6899   23.0838 C   0  0  0  0  0  0
  -25.9828  -32.3906   23.7658 C   0  0  1  0  0  0
  -26.7578  -25.6719   20.2629 C   0  0  0  0  0  0
  -25.6052  -33.7810   24.1416 N   0  0  0  0  0  0
  -23.5941  -30.2871   21.4669 C   0  0  2  0  0  0
  -24.9497  -28.4377   20.0976 C   0  0  0  0  0  0
  -22.7974  -29.3803   22.4489 C   0  0  0  0  0  0
  -18.0361  -28.1452   22.8422 C   0  0  0  0  0  0
  -24.1497  -36.6914   23.2671 C   0  0  0  0  0  0
  -26.1764  -30.0458   21.4992 C   0  0  0  0  0  0
  -26.1253  -28.5190   20.8409 C   0  0  0  0  0  0
  -26.9991  -27.1893   20.8727 C   0  0  0  0  0  0
  -25.6735  -26.0707   19.4008 C   0  0  0  0  0  0
  -24.8339  -27.2574   19.3391 C   0  0  0  0  0  0
  -23.8553  -29.5506   20.1118 C   0  0  0  0  0  0
  -25.4183  -36.2578   24.0210 C   0  0  1  0  0  0
  -20.6008  -28.3817   23.1026 C   0  0  2  0  0  0
  -20.6778  -26.9412   22.5437 C   0  0  0  0  0  0
  -19.5778  -26.6326   21.5238 C   0  0  0  0  0  0
  -18.1955  -26.7969   22.1605 C   0  0  0  0  0  0
  -19.1640  -28.8980   23.2685 C   0  0  0  0  0  0
  -18.9546  -30.1551   23.8753 C   0  0  0  0  0  0
  -17.6532  -30.6620   24.0537 C   0  0  0  0  0  0
  -25.9235  -34.8995   23.4724 C   0  0  0  0  0  0
  -16.5415  -29.9092   23.6367 C   0  0  0  0  0  0
  -16.7341  -28.6519   23.0376 C   0  0  0  0  0  0
  -26.4731  -31.6397   25.0673 C   0  0  0  0  0  0
  -25.3572  -31.3986   26.1127 C   0  0  0  0  0  0
  -27.0820  -30.2668   24.7264 C   0  0  0  0  0  0
  -27.5998  -32.4516   25.7494 C   0  0  0  0  0  0
  -27.5553  -37.1579   24.8443 C   0  0  0  0  0  0
  -21.4574  -29.2905   22.3235 N   0  0  0  0  0  0
  -26.4215  -37.3460   23.9437 N   0  0  0  0  0  0
  -24.8895  -30.7380   22.0630 N   0  0  0  0  0  0
  -23.4100  -28.7511   23.3144 O   0  0  0  0  0  0
  -27.2761  -23.9373   20.3390 O   0  0  0  0  0  0
  -26.6010  -34.8764   22.4439 O   0  0  0  0  0  0
  -23.6518  -32.0493   23.5254 O   0  0  0  0  0  0
  -27.0206  -15.6638   21.4660 C   0  0  0  0  0  0
  -27.1361  -13.7861   21.5177 C   0  0  0  0  0  0
  -26.8710  -16.8999   20.1444 C   0  0  0  0  0  0
  -27.1663  -12.8630   19.8115 C   0  0  0  0  0  0
  -26.8043  -15.8541   18.6882 C   0  0  0  0  0  0
  -27.1071  -16.2821   22.8455 C   0  0  0  0  0  0
  -27.1573  -13.0284   22.8336 C   0  0  0  0  0  0
  -27.2757  -11.3460   19.6466 C   0  0  0  0  0  0
  -27.0925  -19.2386   20.3951 C   0  0  0  0  0  0
  -27.7919  -16.5518   17.6806 C   0  0  0  0  0  0
  -29.1792  -17.2427   18.2233 C   0  0  0  0  0  0
  -30.6357  -16.6421   18.6567 C   0  0  0  0  0  0
  -26.8852  -21.7354   20.0725 C   0  0  0  0  0  0
  -26.8215  -14.0574   18.3778 N   0  0  0  0  0  0
  -30.9131  -15.9583   19.9887 N   0  0  0  0  0  0
  -31.8152  -12.1967   19.2044 H   0  0  0  0  0  0
  -30.5568  -11.4617   20.1338 H   0  0  0  0  0  0
  -29.2293  -11.6320   18.1802 H   0  0  0  0  0  0
  -30.5110  -12.4761   17.4614 H   0  0  0  0  0  0
  -28.7782  -13.9577   17.3989 H   0  0  0  0  0  0
  -30.0039  -14.4624   18.0798 H   0  0  0  0  0  0
  -28.7474  -15.6553   19.9567 H   0  0  0  0  0  0
  -29.2087  -12.8093   21.2101 H   0  0  0  0  0  0
  -29.5791  -14.3761   21.8408 H   0  0  0  0  0  0
  -25.2106   -9.9168   22.4882 H   0  0  0  0  0  0
  -24.0848   -7.7211   22.7475 H   0  0  0  0  0  0
  -21.1588   -8.9166   19.8418 H   0  0  0  0  0  0
  -22.2951  -11.0721   19.5600 H   0  0  0  0  0  0
  -21.2669   -7.6521   23.9772 H   0  0  0  0  0  0
  -21.1625   -6.0755   25.8983 H   0  0  0  0  0  0
  -22.0287   -2.7871   23.2610 H   0  0  0  0  0  0
  -22.2610  -12.0391   22.7392 H   0  0  0  0  0  0
  -20.7583  -12.8286   22.3573 H   0  0  0  0  0  0
  -23.6699  -16.4244   21.4862 H   0  0  0  0  0  0
  -25.1201  -16.4986   20.5813 H   0  0  0  0  0  0
  -26.8028  -32.4170   23.0455 H   0  0  0  0  0  0
  -24.9906  -33.8701   24.9374 H   0  0  0  0  0  0
  -22.9738  -31.1576   21.2443 H   0  0  0  0  0  0
  -23.3833  -35.9156   23.3106 H   0  0  0  0  0  0
  -24.3552  -36.8869   22.2134 H   0  0  0  0  0  0
  -23.7163  -37.5949   23.6976 H   0  0  0  0  0  0
  -26.5311  -30.6982   20.7010 H   0  0  0  0  0  0
  -26.9904  -30.0529   22.2084 H   0  0  0  0  0  0
  -27.8615  -27.2577   21.5193 H   0  0  0  0  0  0
  -25.3139  -25.2737   18.7654 H   0  0  0  0  0  0
  -23.9832  -27.2006   18.6722 H   0  0  0  0  0  0
  -24.1379  -30.2900   19.3614 H   0  0  0  0  0  0
  -22.9181  -29.1240   19.7494 H   0  0  0  0  0  0
  -25.1419  -36.1187   25.0687 H   0  0  0  0  0  0
  -21.0086  -28.3500   24.1158 H   0  0  0  0  0  0
  -20.5567  -26.2464   23.3762 H   0  0  0  0  0  0
  -21.6631  -26.7227   22.1300 H   0  0  0  0  0  0
  -19.6909  -25.6196   21.1360 H   0  0  0  0  0  0
  -19.6758  -27.3058   20.6711 H   0  0  0  0  0  0
  -17.4235  -26.6737   21.3989 H   0  0  0  0  0  0
  -18.0287  -26.0147   22.9025 H   0  0  0  0  0  0
  -19.8026  -30.7400   24.2054 H   0  0  0  0  0  0
  -17.5081  -31.6285   24.5168 H   0  0  0  0  0  0
  -15.5408  -30.2952   23.7781 H   0  0  0  0  0  0
  -15.8737  -28.0800   22.7168 H   0  0  0  0  0  0
  -24.5813  -30.7285   25.7404 H   0  0  0  0  0  0
  -24.8715  -32.3295   26.4059 H   0  0  0  0  0  0
  -25.7535  -30.9456   27.0222 H   0  0  0  0  0  0
  -26.3598  -29.5875   24.2736 H   0  0  0  0  0  0
  -27.4301  -29.7655   25.6306 H   0  0  0  0  0  0
  -27.9565  -30.3594   24.0824 H   0  0  0  0  0  0
  -27.2411  -33.3997   26.1514 H   0  0  0  0  0  0
  -28.4041  -32.6805   25.0491 H   0  0  0  0  0  0
  -28.0421  -31.9077   26.5848 H   0  0  0  0  0  0
  -28.2385  -38.0044   24.7637 H   0  0  0  0  0  0
  -28.1226  -36.2564   24.6066 H   0  0  0  0  0  0
  -27.2300  -37.0942   25.8844 H   0  0  0  0  0  0
  -21.0042  -29.8469   21.6121 H   0  0  0  0  0  0
  -25.9943  -38.2439   24.1562 H   0  0  0  0  0  0
  -26.4157  -15.7828   23.5237 H   0  0  0  0  0  0
  -26.8551  -17.3415   22.8277 H   0  0  0  0  0  0
  -28.1152  -16.1720   23.2411 H   0  0  0  0  0  0
  -28.0625  -13.2410   23.4037 H   0  0  0  0  0  0
  -27.1160  -11.9548   22.6455 H   0  0  0  0  0  0
  -26.2974  -13.3047   23.4445 H   0  0  0  0  0  0
  -26.5079  -10.8165   20.2001 H   0  0  0  0  0  0
  -28.2256  -10.9851   20.0383 H   0  0  0  0  0  0
  -27.1893  -11.0698   18.5970 H   0  0  0  0  0  0
  -26.6044  -19.2226   21.3689 H   0  0  0  0  0  0
  -28.1573  -19.2210   20.6292 H   0  0  0  0  0  0
  -27.2039  -17.3570   17.2386 H   0  0  0  0  0  0
  -28.0087  -15.8985   16.8375 H   0  0  0  0  0  0
  -28.9267  -17.9872   18.9668 H   0  0  0  0  0  0
  -29.4575  -17.8466   17.3572 H   0  0  0  0  0  0
  -31.1400  -16.1359   17.8310 H   0  0  0  0  0  0
  -31.2588  -17.5322   18.7435 H   0  0  0  0  0  0
  -25.7994  -21.8005   20.1514 H   0  0  0  0  0  0
  -27.0779  -21.7272   18.9997 H   0  0  0  0  0  0
  -31.3742  -16.6115   20.6053 H   0  0  0  0  0  0
  1 25  1  0  0  0
  1 30  2  0  0  0
  1 85  1  0  0  0
  2  3  1  0  0  0
  2 25  1  0  0  0
  2 86  1  0  0  0
  2 87  1  0  0  0
  3  4  1  0  0  0
  3 88  1  0  0  0
  3 89  1  0  0  0
  4  5  1  0  0  0
  4 90  1  0  0  0
  4 91  1  0  0  0
  5  6  1  0  0  0
  5 26  1  0  0  0
  5 92  1  0  0  0
  6 25  1  0  0  0
  6 93  1  0  0  0
  6 94  1  0  0  0
  7  8  2  0  0  0
  7 26  1  0  0  0
  7 29  1  0  0  0
  8  9  1  0  0  0
  8 22  1  0  0  0
  9 10  1  0  0  0
  9 27  2  0  0  0
 10 11  2  0  0  0
 10 15  1  0  0  0
 11 12  1  0  0  0
 11 95  1  0  0  0
 12 13  2  0  0  0
 12 96  1  0  0  0
 13 14  1  0  0  0
 13 31  1  0  0  0
 14 15  2  0  0  0
 14 97  1  0  0  0
 15 98  1  0  0  0
 16 17  2  0  0  0
 16 21  1  0  0  0
 16 31  1  0  0  0
 17 18  1  0  0  0
 17 99  1  0  0  0
 18 19  2  0  0  0
 18100  1  0  0  0
 19 20  1  0  0  0
 19 24  1  0  0  0
 20 21  2  0  0  0
 20101  1  0  0  0
 21 23  1  0  0  0
 22 28  1  0  0  0
 22 32  2  0  0  0
 26 27  1  0  0  0
 28102  1  0  0  0
 28103  1  0  0  0
 29104  1  0  0  0
 29105  1  0  0  0
 33 34  1  0  0  0
 33 66  1  0  0  0
 33 70  2  0  0  0
 34 36  1  0  0  0
 34 59  1  0  0  0
 34106  1  0  0  0
 35 44  2  0  0  0
 35 45  1  0  0  0
 35 68  1  0  0  0
 36 56  1  0  0  0
 36107  1  0  0  0
 37 39  1  0  0  0
 37 47  1  0  0  0
 37 66  1  0  0  0
 37108  1  0  0  0
 38 43  2  0  0  0
 38 46  1  0  0  0
 38 47  1  0  0  0
 39 64  1  0  0  0
 39 67  2  0  0  0
 40 52  1  0  0  0
 40 53  2  0  0  0
 40 58  1  0  0  0
 41109  1  0  0  0
 41110  1  0  0  0
 41111  1  0  0  0
 41 48  1  0  0  0
 42 43  1  0  0  0
 42 66  1  0  0  0
 42112  1  0  0  0
 42113  1  0  0  0
 43 44  1  0  0  0
 44114  1  0  0  0
 45 46  2  0  0  0
 45115  1  0  0  0
 46116  1  0  0  0
 47117  1  0  0  0
 47118  1  0  0  0
 48 56  1  0  0  0
 48 65  1  0  0  0
 48119  1  0  0  0
 49 50  1  0  0  0
 49 53  1  0  0  0
 49 64  1  0  0  0
 49120  1  0  0  0
 50 51  1  0  0  0
 50121  1  0  0  0
 50122  1  0  0  0
 51 52  1  0  0  0
 51123  1  0  0  0
 51124  1  0  0  0
 52125  1  0  0  0
 52126  1  0  0  0
 53 54  1  0  0  0
 54 55  2  0  0  0
 54127  1  0  0  0
 55 57  1  0  0  0
 55128  1  0  0  0
 56 69  2  0  0  0
 57 58  2  0  0  0
 57129  1  0  0  0
 58130  1  0  0  0
 59 60  1  0  0  0
 59 61  1  0  0  0
 59 62  1  0  0  0
 60131  1  0  0  0
 60132  1  0  0  0
 60133  1  0  0  0
 61134  1  0  0  0
 61135  1  0  0  0
 61136  1  0  0  0
 62137  1  0  0  0
 62138  1  0  0  0
 62139  1  0  0  0
 63 65  1  0  0  0
 63140  1  0  0  0
 63141  1  0  0  0
 63142  1  0  0  0
 64143  1  0  0  0
 65144  1  0  0  0
 68 83  1  0  0  0
 71 72  2  0  0  0
 71 73  1  0  0  0
 71 76  1  0  0  0
 72 74  1  0  0  0
 72 77  1  0  0  0
 73 75  2  0  0  0
 73 79  1  0  0  0
 74 78  1  0  0  0
 74 84  2  0  0  0
 75 80  1  0  0  0
 75 84  1  0  0  0
 76145  1  0  0  0
 76146  1  0  0  0
 76147  1  0  0  0
 77148  1  0  0  0
 77149  1  0  0  0
 77150  1  0  0  0
 78151  1  0  0  0
 78152  1  0  0  0
 78153  1  0  0  0
 79 83  1  0  0  0
 79154  1  0  0  0
 79155  1  0  0  0
 80 81  1  0  0  0
 80156  1  0  0  0
 80157  1  0  0  0
 81 82  1  0  0  0
 81158  1  0  0  0
 81159  1  0  0  0
 82 85  1  0  0  0
 82160  1  0  0  0
 82161  1  0  0  0
 83162  1  0  0  0
 83163  1  0  0  0
 85164  1  0  0  0
M  ISO  4   1 100  68 101  83 101  85 100
M  END
> <chiral flag>
0

> <version>
0

> <s_m_source_file>
/data/baiqing/PycharmProjects/Reinvent-master-3.2/result/LINK_invent/BTK/process_docking_weight1_custom_sum_contain_oxygen_bond_distance_aromatic_linkinvent_7_9_3/rearranged_h_0088.sdf

> <i_m_source_file_index>
32

> <r_mmod_Potential_Energy-OPLS-2005>
18014.85546875

> <r_mmod_Stretch_Energy-OPLS-2005>
9828.3466796875

> <r_mmod_Bend_Energy-OPLS-2005>
1475.22338867188

> <r_mmod_Torsional_Energy-OPLS-2005>
554.809265136719

> <r_mmod_Improper_Torsional_Energy-OPLS-2005>
63.2731590270996

> <r_mmod_Van_der_Waal_Energy-OPLS-2005>
2828.12768554688

> <r_mmod_Electrostatic_Energy-OPLS-2005>
-507.464263916016

> <r_mmod_Solvation_Energy-OPLS-2005>
-265.020812988281

> <b_mmod_Minimization_Converged-OPLS-2005>
0

> <r_mmod_RMS_Derivative-OPLS-2005>
5.9928994178772

$$$$
32
                    3D
 Structure written by MMmdl.
169177  0  0  1  0            999 V2000
  -30.5923  -14.7881   20.3690 C   0  0  0  0  0  0
  -30.4479  -12.4570   19.4704 C   0  0  0  0  0  0
  -29.5165  -12.3783   18.2378 C   0  0  0  0  0  0
  -28.0299  -12.2845   18.6515 C   0  0  0  0  0  0
  -27.6299  -13.2068   19.8369 C   0  0  2  0  0  0
  -28.6879  -13.2094   20.9586 C   0  0  0  0  0  0
  -25.2524  -13.8108   20.5734 C   0  0  0  0  0  0
  -24.1791  -13.0406   20.9227 C   0  0  0  0  0  0
  -24.6348  -11.6871   20.8804 C   0  0  0  0  0  0
  -23.9026  -10.4265   21.0442 C   0  0  0  0  0  0
  -24.3589   -9.4175   21.9205 C   0  0  0  0  0  0
  -23.6269   -8.2217   22.0765 C   0  0  0  0  0  0
  -22.4255   -8.0262   21.3553 C   0  0  0  0  0  0
  -21.9884   -9.0236   20.4655 C   0  0  0  0  0  0
  -22.7209  -10.2120   20.3073 C   0  0  0  0  0  0
  -21.6832   -6.0717   22.5280 C   0  0  0  0  0  0
  -21.4000   -6.5626   23.8211 C   0  0  0  0  0  0
  -21.3651   -5.6786   24.9180 C   0  0  0  0  0  0
  -21.6048   -4.3050   24.7238 C   0  0  0  0  0  0
  -21.8817   -3.8131   23.4360 C   0  0  0  0  0  0
  -21.9196   -4.6946   22.3410 C   0  0  0  0  0  0
  -22.7823  -13.5203   21.1885 C   0  0  0  0  0  0
  -22.1670   -4.2136   21.0987 F   0  0  0  0  0  0
  -21.5640   -3.4531   25.7750 F   0  0  0  0  0  0
  -29.9740  -13.5552   20.3400 N   0  0  0  0  0  0
  -26.2907  -12.9250   20.3318 N   0  0  0  0  0  0
  -25.9271  -11.6434   20.5818 N   0  0  0  0  0  0
  -22.0456  -12.8209   22.0434 N   0  0  0  0  0  0
  -25.4283  -15.1837   20.4177 N   0  0  0  0  0  0
  -31.8215  -14.8561   20.2740 O   0  0  0  0  0  0
  -21.6622   -6.8860   21.4240 O   0  0  0  0  0  0
  -22.3523  -14.5514   20.6722 O   0  0  0  0  0  0
  -24.6287  -31.8540   23.1981 C   0  0  0  0  0  0
  -25.9116  -32.4741   23.8333 C   0  0  1  0  0  0
  -27.2326  -27.2825   20.1300 C   0  0  0  0  0  0
  -25.5926  -33.8550   24.2263 N   0  0  0  0  0  0
  -23.4248  -30.4742   21.5412 C   0  0  2  0  0  0
  -24.8729  -28.9162   20.1107 C   0  0  0  0  0  0
  -22.7486  -29.4578   22.4936 C   0  0  0  0  0  0
  -18.0284  -28.1379   22.8471 C   0  0  0  0  0  0
  -24.1487  -36.7282   23.2644 C   0  0  0  0  0  0
  -25.9661  -30.7754   21.3703 C   0  0  0  0  0  0
  -26.0402  -29.3974   20.7150 C   0  0  0  0  0  0
  -27.2182  -28.5922   20.7113 C   0  0  0  0  0  0
  -26.0401  -26.8506   19.5082 C   0  0  0  0  0  0
  -24.8771  -27.6509   19.4983 C   0  0  0  0  0  0
  -23.6397  -29.7995   20.1578 C   0  0  0  0  0  0
  -25.4117  -36.3080   24.0338 C   0  0  1  0  0  0
  -20.5877  -28.3676   23.1284 C   0  0  2  0  0  0
  -20.6763  -26.9398   22.5415 C   0  0  0  0  0  0
  -19.5746  -26.6378   21.5202 C   0  0  0  0  0  0
  -18.1925  -26.7924   22.1608 C   0  0  0  0  0  0
  -19.1533  -28.8853   23.2860 C   0  0  0  0  0  0
  -18.9458  -30.1451   23.8888 C   0  0  0  0  0  0
  -17.6461  -30.6585   24.0556 C   0  0  0  0  0  0
  -25.9058  -34.9438   23.5108 C   0  0  0  0  0  0
  -16.5350  -29.9087   23.6328 C   0  0  0  0  0  0
  -16.7271  -28.6497   23.0358 C   0  0  0  0  0  0
  -26.4504  -31.6584   25.0728 C   0  0  0  0  0  0
  -25.3737  -31.3718   26.1452 C   0  0  0  0  0  0
  -27.0360  -30.3026   24.6184 C   0  0  0  0  0  0
  -27.6070  -32.4328   25.7487 C   0  0  0  0  0  0
  -27.5577  -37.1798   24.8471 C   0  0  0  0  0  0
  -21.4198  -29.3018   22.3672 N   0  0  0  0  0  0
  -26.4295  -37.3778   23.9417 N   0  0  0  0  0  0
  -24.6925  -31.0530   22.0933 N   0  0  0  0  0  0
  -23.4191  -28.8110   23.3023 O   0  0  0  0  0  0
  -28.3776  -26.4680   20.2091 O   0  0  0  0  0  0
  -26.5623  -34.8906   22.4674 O   0  0  0  0  0  0
  -23.5454  -32.1339   23.7312 O   0  0  0  0  0  0
  -30.2271  -22.1485   19.8801 C   0  0  0  0  0  0
  -28.4840  -21.1000   20.7070 C   0  0  0  0  0  0
  -28.9573  -22.3978   20.4832 C   0  0  0  0  0  0
  -30.4540  -20.7958   19.7257 C   0  0  0  0  0  0
  -33.0468  -19.9606   16.9468 C   0  0  0  0  0  0
  -29.0868  -24.2800   22.1358 C   0  0  0  0  0  0
  -26.8522  -23.6569   21.1965 C   0  0  0  0  0  0
  -29.2362  -16.0246   18.8141 C   0  0  0  0  0  0
  -31.6131  -20.1251   19.0500 C   0  0  0  0  0  0
  -31.8778  -20.6678   17.6395 C   0  0  0  0  0  0
  -29.0944  -18.5911   20.1374 C   0  0  0  0  0  0
  -30.0584  -17.3735   20.6751 C   0  0  0  0  0  0
  -28.4666  -25.0322   19.7943 C   0  0  0  0  0  0
  -28.3456  -23.8272   20.8656 C   0  0  0  0  0  0
  -29.3785  -20.0887   20.2627 N   0  0  0  0  0  0
  -29.8075  -15.9345   20.1660 N   0  0  0  0  0  0
  -31.4791  -12.6134   19.1478 H   0  0  0  0  0  0
  -30.4436  -11.5135   20.0191 H   0  0  0  0  0  0
  -29.7744  -11.4942   17.6520 H   0  0  0  0  0  0
  -29.6916  -13.2103   17.5592 H   0  0  0  0  0  0
  -27.8555  -11.2464   18.9358 H   0  0  0  0  0  0
  -27.3842  -12.4707   17.7916 H   0  0  0  0  0  0
  -27.5704  -14.2066   19.4274 H   0  0  0  0  0  0
  -28.7462  -12.2369   21.4491 H   0  0  0  0  0  0
  -28.4244  -13.9353   21.7299 H   0  0  0  0  0  0
  -25.2737   -9.5646   22.4781 H   0  0  0  0  0  0
  -23.9979   -7.4581   22.7458 H   0  0  0  0  0  0
  -21.0826   -8.8746   19.8928 H   0  0  0  0  0  0
  -22.3670  -10.9670   19.6186 H   0  0  0  0  0  0
  -21.1978   -7.6128   23.9708 H   0  0  0  0  0  0
  -21.1479   -6.0522   25.9084 H   0  0  0  0  0  0
  -22.0609   -2.7596   23.2870 H   0  0  0  0  0  0
  -22.4043  -11.9865   22.4832 H   0  0  0  0  0  0
  -21.1072  -13.1252   22.2606 H   0  0  0  0  0  0
  -24.6717  -15.8483   20.5388 H   0  0  0  0  0  0
  -26.2979  -15.6207   20.1403 H   0  0  0  0  0  0
  -26.7172  -32.5401   23.1063 H   0  0  0  0  0  0
  -25.0096  -33.9680   25.0424 H   0  0  0  0  0  0
  -22.7218  -31.2965   21.3950 H   0  0  0  0  0  0
  -23.3756  -35.9602   23.3318 H   0  0  0  0  0  0
  -24.3576  -36.8895   22.2056 H   0  0  0  0  0  0
  -23.7219  -37.6483   23.6652 H   0  0  0  0  0  0
  -26.0971  -31.5344   20.5975 H   0  0  0  0  0  0
  -26.8451  -30.8279   22.0011 H   0  0  0  0  0  0
  -28.1143  -28.9579   21.1923 H   0  0  0  0  0  0
  -25.9752  -25.8769   19.0485 H   0  0  0  0  0  0
  -23.9784  -27.2772   19.0270 H   0  0  0  0  0  0
  -23.7571  -30.5712   19.3965 H   0  0  0  0  0  0
  -22.7591  -29.2275   19.8609 H   0  0  0  0  0  0
  -25.1291  -36.1942   25.0831 H   0  0  0  0  0  0
  -20.9957  -28.3240   24.1407 H   0  0  0  0  0  0
  -20.5664  -26.2273   23.3606 H   0  0  0  0  0  0
  -21.6635  -26.7421   22.1208 H   0  0  0  0  0  0
  -19.6919  -25.6287   21.1239 H   0  0  0  0  0  0
  -19.6720  -27.3177   20.6723 H   0  0  0  0  0  0
  -17.4204  -26.6663   21.4007 H   0  0  0  0  0  0
  -18.0328  -26.0072   22.9010 H   0  0  0  0  0  0
  -19.7938  -30.7250   24.2274 H   0  0  0  0  0  0
  -17.5024  -31.6274   24.5139 H   0  0  0  0  0  0
  -15.5348  -30.2990   23.7682 H   0  0  0  0  0  0
  -15.8650  -28.0816   22.7104 H   0  0  0  0  0  0
  -24.5907  -30.7073   25.7774 H   0  0  0  0  0  0
  -24.8920  -32.2874   26.4899 H   0  0  0  0  0  0
  -25.8056  -30.8883   27.0216 H   0  0  0  0  0  0
  -26.2929  -29.6764   24.1225 H   0  0  0  0  0  0
  -27.4095  -29.7309   25.4685 H   0  0  0  0  0  0
  -27.8778  -30.4358   23.9382 H   0  0  0  0  0  0
  -27.2697  -33.3639   26.2052 H   0  0  0  0  0  0
  -28.3868  -32.6865   25.0294 H   0  0  0  0  0  0
  -28.0732  -31.8453   26.5406 H   0  0  0  0  0  0
  -28.2604  -38.0083   24.7511 H   0  0  0  0  0  0
  -28.1064  -36.2620   24.6310 H   0  0  0  0  0  0
  -27.2292  -37.1457   25.8871 H   0  0  0  0  0  0
  -20.9404  -29.8751   21.6868 H   0  0  0  0  0  0
  -26.0187  -38.2855   24.1423 H   0  0  0  0  0  0
  -30.9196  -22.9140   19.5559 H   0  0  0  0  0  0
  -27.5390  -20.7943   21.1374 H   0  0  0  0  0  0
  -33.1771  -20.3399   15.9323 H   0  0  0  0  0  0
  -32.8739  -18.8859   16.8789 H   0  0  0  0  0  0
  -33.9832  -20.1171   17.4843 H   0  0  0  0  0  0
  -28.9748  -23.5577   22.9443 H   0  0  0  0  0  0
  -28.7138  -25.2386   22.4991 H   0  0  0  0  0  0
  -30.1548  -24.3958   21.9454 H   0  0  0  0  0  0
  -26.6966  -22.9420   22.0047 H   0  0  0  0  0  0
  -26.2911  -23.3061   20.3288 H   0  0  0  0  0  0
  -26.4089  -24.6009   21.5132 H   0  0  0  0  0  0
  -28.2121  -16.3962   18.8467 H   0  0  0  0  0  0
  -29.2001  -15.0879   18.2742 H   0  0  0  0  0  0
  -29.8401  -16.6790   18.1855 H   0  0  0  0  0  0
  -31.4459  -19.0563   18.9527 H   0  0  0  0  0  0
  -32.5052  -20.2399   19.6671 H   0  0  0  0  0  0
  -30.9785  -20.5382   17.0357 H   0  0  0  0  0  0
  -32.0748  -21.7403   17.6792 H   0  0  0  0  0  0
  -28.0893  -18.4186   20.5238 H   0  0  0  0  0  0
  -28.9836  -18.4941   19.0608 H   0  0  0  0  0  0
  -29.9703  -17.3428   21.7613 H   0  0  0  0  0  0
  -31.1057  -17.6085   20.4937 H   0  0  0  0  0  0
  -27.8416  -24.8316   18.9255 H   0  0  0  0  0  0
  -29.4786  -24.9682   19.3950 H   0  0  0  0  0  0
  1 25  1  0  0  0
  1 30  2  0  0  0
  1 86  1  0  0  0
  2  3  1  0  0  0
  2 25  1  0  0  0
  2 87  1  0  0  0
  2 88  1  0  0  0
  3  4  1  0  0  0
  3 89  1  0  0  0
  3 90  1  0  0  0
  4  5  1  0  0  0
  4 91  1  0  0  0
  4 92  1  0  0  0
  5  6  1  0  0  0
  5 26  1  0  0  0
  5 93  1  0  0  0
  6 25  1  0  0  0
  6 94  1  0  0  0
  6 95  1  0  0  0
  7  8  2  0  0  0
  7 26  1  0  0  0
  7 29  1  0  0  0
  8  9  1  0  0  0
  8 22  1  0  0  0
  9 10  1  0  0  0
  9 27  2  0  0  0
 10 11  2  0  0  0
 10 15  1  0  0  0
 11 12  1  0  0  0
 11 96  1  0  0  0
 12 13  2  0  0  0
 12 97  1  0  0  0
 13 14  1  0  0  0
 13 31  1  0  0  0
 14 15  2  0  0  0
 14 98  1  0  0  0
 15 99  1  0  0  0
 16 17  2  0  0  0
 16 21  1  0  0  0
 16 31  1  0  0  0
 17 18  1  0  0  0
 17100  1  0  0  0
 18 19  2  0  0  0
 18101  1  0  0  0
 19 20  1  0  0  0
 19 24  1  0  0  0
 20 21  2  0  0  0
 20102  1  0  0  0
 21 23  1  0  0  0
 22 28  1  0  0  0
 22 32  2  0  0  0
 26 27  1  0  0  0
 28103  1  0  0  0
 28104  1  0  0  0
 29105  1  0  0  0
 29106  1  0  0  0
 33 34  1  0  0  0
 33 66  1  0  0  0
 33 70  2  0  0  0
 34 36  1  0  0  0
 34 59  1  0  0  0
 34107  1  0  0  0
 35 44  2  0  0  0
 35 45  1  0  0  0
 35 68  1  0  0  0
 36 56  1  0  0  0
 36108  1  0  0  0
 37 39  1  0  0  0
 37 47  1  0  0  0
 37 66  1  0  0  0
 37109  1  0  0  0
 38 43  2  0  0  0
 38 46  1  0  0  0
 38 47  1  0  0  0
 39 64  1  0  0  0
 39 67  2  0  0  0
 40 52  1  0  0  0
 40 53  2  0  0  0
 40 58  1  0  0  0
 41110  1  0  0  0
 41111  1  0  0  0
 41112  1  0  0  0
 41 48  1  0  0  0
 42 43  1  0  0  0
 42 66  1  0  0  0
 42113  1  0  0  0
 42114  1  0  0  0
 43 44  1  0  0  0
 44115  1  0  0  0
 45 46  2  0  0  0
 45116  1  0  0  0
 46117  1  0  0  0
 47118  1  0  0  0
 47119  1  0  0  0
 48 56  1  0  0  0
 48 65  1  0  0  0
 48120  1  0  0  0
 49 50  1  0  0  0
 49 53  1  0  0  0
 49 64  1  0  0  0
 49121  1  0  0  0
 50 51  1  0  0  0
 50122  1  0  0  0
 50123  1  0  0  0
 51 52  1  0  0  0
 51124  1  0  0  0
 51125  1  0  0  0
 52126  1  0  0  0
 52127  1  0  0  0
 53 54  1  0  0  0
 54 55  2  0  0  0
 54128  1  0  0  0
 55 57  1  0  0  0
 55129  1  0  0  0
 56 69  2  0  0  0
 57 58  2  0  0  0
 57130  1  0  0  0
 58131  1  0  0  0
 59 60  1  0  0  0
 59 61  1  0  0  0
 59 62  1  0  0  0
 60132  1  0  0  0
 60133  1  0  0  0
 60134  1  0  0  0
 61135  1  0  0  0
 61136  1  0  0  0
 61137  1  0  0  0
 62138  1  0  0  0
 62139  1  0  0  0
 62140  1  0  0  0
 63 65  1  0  0  0
 63141  1  0  0  0
 63142  1  0  0  0
 63143  1  0  0  0
 64144  1  0  0  0
 65145  1  0  0  0
 68 83  1  0  0  0
 71 73  1  0  0  0
 71 74  2  0  0  0
 71146  1  0  0  0
 72 73  2  0  0  0
 72 85  1  0  0  0
 72147  1  0  0  0
 73 84  1  0  0  0
 74 79  1  0  0  0
 74 85  1  0  0  0
 75 80  1  0  0  0
 75148  1  0  0  0
 75149  1  0  0  0
 75150  1  0  0  0
 76151  1  0  0  0
 76152  1  0  0  0
 76153  1  0  0  0
 76 84  1  0  0  0
 77 84  1  0  0  0
 77154  1  0  0  0
 77155  1  0  0  0
 77156  1  0  0  0
 78 86  1  0  0  0
 78157  1  0  0  0
 78158  1  0  0  0
 78159  1  0  0  0
 79 80  1  0  0  0
 79160  1  0  0  0
 79161  1  0  0  0
 80162  1  0  0  0
 80163  1  0  0  0
 81 82  1  0  0  0
 81 85  1  0  0  0
 81164  1  0  0  0
 81165  1  0  0  0
 82 86  1  0  0  0
 82166  1  0  0  0
 82167  1  0  0  0
 83 84  1  0  0  0
 83168  1  0  0  0
 83169  1  0  0  0
M  ISO  4   1 100  68 101  83 101  86 100
M  END
> <chiral flag>
0

> <version>
0

> <s_m_source_file>
/data/baiqing/PycharmProjects/Reinvent-master-3.2/result/LINK_invent/BTK/process_docking_weight1_custom_sum_contain_oxygen_bond_distance_aromatic_linkinvent_7_9_3/rearranged_h_0088.sdf

> <i_m_source_file_index>
33

> <r_mmod_Potential_Energy-OPLS-2005>
369.773132324219

> <r_mmod_Stretch_Energy-OPLS-2005>
126.644836425781

> <r_mmod_Bend_Energy-OPLS-2005>
201.671295166016

> <r_mmod_Torsional_Energy-OPLS-2005>
318.804290771484

> <r_mmod_Improper_Torsional_Energy-OPLS-2005>
13.6403207778931

> <r_mmod_Van_der_Waal_Energy-OPLS-2005>
124.601684570312

> <r_mmod_Electrostatic_Energy-OPLS-2005>
-323.156524658203

> <r_mmod_Solvation_Energy-OPLS-2005>
-192.066070556641

> <b_mmod_Minimization_Converged-OPLS-2005>
0

> <r_mmod_RMS_Derivative-OPLS-2005>
2.33970808982849

$$$$
33
                    3D
 Structure written by MMmdl.
168176  0  0  1  0            999 V2000
  -30.6151  -14.7203   20.4787 C   0  0  0  0  0  0
  -30.4286  -12.4428   19.4696 C   0  0  0  0  0  0
  -29.5096  -12.5059   18.2304 C   0  0  0  0  0  0
  -28.0295  -12.3555   18.6337 C   0  0  0  0  0  0
  -27.6420  -13.2354   19.8537 C   0  0  2  0  0  0
  -28.6875  -13.1444   20.9847 C   0  0  0  0  0  0
  -25.2502  -13.8188   20.5698 C   0  0  0  0  0  0
  -24.1804  -13.0421   20.9208 C   0  0  0  0  0  0
  -24.6395  -11.6908   20.8739 C   0  0  0  0  0  0
  -23.9070  -10.4285   21.0397 C   0  0  0  0  0  0
  -24.3623   -9.4193   21.9169 C   0  0  0  0  0  0
  -23.6300   -8.2221   22.0741 C   0  0  0  0  0  0
  -22.4276   -8.0262   21.3540 C   0  0  0  0  0  0
  -21.9915   -9.0223   20.4637 C   0  0  0  0  0  0
  -22.7243  -10.2103   20.3037 C   0  0  0  0  0  0
  -21.6847   -6.0705   22.5266 C   0  0  0  0  0  0
  -21.4003   -6.5609   23.8208 C   0  0  0  0  0  0
  -21.3686   -5.6786   24.9174 C   0  0  0  0  0  0
  -21.6073   -4.3045   24.7236 C   0  0  0  0  0  0
  -21.8834   -3.8125   23.4363 C   0  0  0  0  0  0
  -21.9195   -4.6928   22.3404 C   0  0  0  0  0  0
  -22.7847  -13.5200   21.1880 C   0  0  0  0  0  0
  -22.1667   -4.2119   21.0976 F   0  0  0  0  0  0
  -21.5638   -3.4523   25.7750 F   0  0  0  0  0  0
  -29.9883  -13.4985   20.4088 N   0  0  0  0  0  0
  -26.2940  -12.9418   20.3284 N   0  0  0  0  0  0
  -25.9331  -11.6563   20.5762 N   0  0  0  0  0  0
  -22.0514  -12.8180   22.0448 N   0  0  0  0  0  0
  -25.4177  -15.1914   20.4131 N   0  0  0  0  0  0
  -31.7995  -14.8230   20.1469 O   0  0  0  0  0  0
  -21.6664   -6.8838   21.4233 O   0  0  0  0  0  0
  -22.3514  -14.5513   20.6721 O   0  0  0  0  0  0
  -24.6331  -31.8544   23.1972 C   0  0  0  0  0  0
  -25.9146  -32.4753   23.8338 C   0  0  1  0  0  0
  -27.2214  -27.2471   20.1453 C   0  0  0  0  0  0
  -25.5949  -33.8561   24.2273 N   0  0  0  0  0  0
  -23.4317  -30.4744   21.5407 C   0  0  2  0  0  0
  -24.8806  -28.9187   20.1122 C   0  0  0  0  0  0
  -22.7521  -29.4590   22.4903 C   0  0  0  0  0  0
  -18.0305  -28.1397   22.8473 C   0  0  0  0  0  0
  -24.1480  -36.7274   23.2636 C   0  0  0  0  0  0
  -25.9786  -30.7630   21.3797 C   0  0  0  0  0  0
  -26.0517  -29.3847   20.7222 C   0  0  0  0  0  0
  -27.2284  -28.5651   20.7187 C   0  0  0  0  0  0
  -26.0296  -26.8505   19.5020 C   0  0  0  0  0  0
  -24.8768  -27.6627   19.4839 C   0  0  0  0  0  0
  -23.6533  -29.8101   20.1558 C   0  0  0  0  0  0
  -25.4110  -36.3077   24.0324 C   0  0  1  0  0  0
  -20.5904  -28.3714   23.1249 C   0  0  2  0  0  0
  -20.6800  -26.9427   22.5405 C   0  0  0  0  0  0
  -19.5787  -26.6384   21.5211 C   0  0  0  0  0  0
  -18.1957  -26.7942   22.1605 C   0  0  0  0  0  0
  -19.1554  -28.8879   23.2852 C   0  0  0  0  0  0
  -18.9473  -30.1475   23.8882 C   0  0  0  0  0  0
  -17.6462  -30.6583   24.0566 C   0  0  0  0  0  0
  -25.9070  -34.9442   23.5109 C   0  0  0  0  0  0
  -16.5358  -29.9070   23.6330 C   0  0  0  0  0  0
  -16.7285  -28.6495   23.0339 C   0  0  0  0  0  0
  -26.4520  -31.6574   25.0725 C   0  0  0  0  0  0
  -25.3736  -31.3689   26.1427 C   0  0  0  0  0  0
  -27.0382  -30.2998   24.6211 C   0  0  0  0  0  0
  -27.6085  -32.4306   25.7498 C   0  0  0  0  0  0
  -27.5583  -37.1783   24.8462 C   0  0  0  0  0  0
  -21.4233  -29.3031   22.3625 N   0  0  0  0  0  0
  -26.4285  -37.3777   23.9422 N   0  0  0  0  0  0
  -24.7002  -31.0480   22.0968 N   0  0  0  0  0  0
  -23.4206  -28.8138   23.3021 O   0  0  0  0  0  0
  -28.3222  -26.3568   20.1642 O   0  0  0  0  0  0
  -26.5623  -34.8914   22.4669 O   0  0  0  0  0  0
  -23.5468  -32.1387   23.7242 O   0  0  0  0  0  0
  -29.6476  -19.4882   16.7747 C   0  0  0  0  0  0
  -29.8025  -21.5782   17.9563 C   0  0  0  0  0  0
  -29.9668  -20.8434   16.7789 C   0  0  0  0  0  0
  -29.2667  -18.8430   17.9629 C   0  0  0  0  0  0
  -29.3568  -21.0140   19.1790 C   0  0  0  0  0  0
  -29.2861  -19.5269   19.2268 C   0  0  0  0  0  0
  -30.3975  -21.5312   15.5002 C   0  0  0  0  0  0
  -27.2226  -17.3140   17.8996 C   0  0  0  0  0  0
  -30.5294  -24.1282   20.0997 C   0  0  0  0  0  0
  -28.7507  -17.4130   17.7705 C   0  0  0  0  0  0
  -28.8947  -22.1239   20.2455 C   0  0  0  0  0  0
  -29.2211  -18.5549   20.4819 C   0  0  0  0  0  0
  -30.2865  -17.3168   20.5718 C   0  0  0  0  0  0
  -28.1300  -24.9037   20.5486 C   0  0  0  0  0  0
  -29.0538  -23.7375   19.8965 C   0  0  1  0  0  0
  -29.8525  -15.8533   20.7130 N   0  0  0  0  0  0
  -31.4683  -12.5692   19.1637 H   0  0  0  0  0  0
  -30.3693  -11.4606   19.9399 H   0  0  0  0  0  0
  -29.7794  -11.7236   17.5194 H   0  0  0  0  0  0
  -29.6602  -13.4519   17.7085 H   0  0  0  0  0  0
  -27.8629  -11.3043   18.8708 H   0  0  0  0  0  0
  -27.3832  -12.5835   17.7849 H   0  0  0  0  0  0
  -27.6398  -14.2655   19.4968 H   0  0  0  0  0  0
  -28.7166  -12.1362   21.4005 H   0  0  0  0  0  0
  -28.4318  -13.8102   21.8106 H   0  0  0  0  0  0
  -25.2763   -9.5661   22.4738 H   0  0  0  0  0  0
  -24.0010   -7.4618   22.7441 H   0  0  0  0  0  0
  -21.0846   -8.8719   19.8943 H   0  0  0  0  0  0
  -22.3690  -10.9613   19.6131 H   0  0  0  0  0  0
  -21.1974   -7.6118   23.9690 H   0  0  0  0  0  0
  -21.1512   -6.0513   25.9078 H   0  0  0  0  0  0
  -22.0598   -2.7572   23.2883 H   0  0  0  0  0  0
  -22.4144  -11.9841   22.4824 H   0  0  0  0  0  0
  -21.1090  -13.1100   22.2613 H   0  0  0  0  0  0
  -24.6492  -15.8431   20.5245 H   0  0  0  0  0  0
  -26.2627  -15.6311   20.0741 H   0  0  0  0  0  0
  -26.7203  -32.5393   23.1064 H   0  0  0  0  0  0
  -25.0139  -33.9711   25.0447 H   0  0  0  0  0  0
  -22.7303  -31.2976   21.3936 H   0  0  0  0  0  0
  -23.3780  -35.9570   23.3278 H   0  0  0  0  0  0
  -24.3580  -36.8927   22.2058 H   0  0  0  0  0  0
  -23.7189  -37.6445   23.6683 H   0  0  0  0  0  0
  -26.1197  -31.5239   20.6110 H   0  0  0  0  0  0
  -26.8527  -30.8116   22.0156 H   0  0  0  0  0  0
  -28.1307  -28.9222   21.1941 H   0  0  0  0  0  0
  -25.9752  -25.8915   19.0062 H   0  0  0  0  0  0
  -23.9838  -27.3085   18.9864 H   0  0  0  0  0  0
  -23.7867  -30.5900   19.4050 H   0  0  0  0  0  0
  -22.7709  -29.2483   19.8439 H   0  0  0  0  0  0
  -25.1287  -36.1936   25.0819 H   0  0  0  0  0  0
  -20.9997  -28.3300   24.1369 H   0  0  0  0  0  0
  -20.5719  -26.2321   23.3613 H   0  0  0  0  0  0
  -21.6664  -26.7458   22.1184 H   0  0  0  0  0  0
  -19.6951  -25.6290   21.1258 H   0  0  0  0  0  0
  -19.6738  -27.3173   20.6728 H   0  0  0  0  0  0
  -17.4238  -26.6695   21.3994 H   0  0  0  0  0  0
  -18.0341  -26.0070   22.8989 H   0  0  0  0  0  0
  -19.7951  -30.7303   24.2227 H   0  0  0  0  0  0
  -17.5015  -31.6261   24.5181 H   0  0  0  0  0  0
  -15.5359  -30.2964   23.7680 H   0  0  0  0  0  0
  -15.8687  -28.0813   22.7057 H   0  0  0  0  0  0
  -24.5924  -30.7046   25.7705 H   0  0  0  0  0  0
  -24.8917  -32.2844   26.4874 H   0  0  0  0  0  0
  -25.8034  -30.8827   27.0197 H   0  0  0  0  0  0
  -26.2961  -29.6709   24.1271 H   0  0  0  0  0  0
  -27.4119  -29.7287   25.4726 H   0  0  0  0  0  0
  -27.8823  -30.4292   23.9427 H   0  0  0  0  0  0
  -27.2719  -33.3607   26.2084 H   0  0  0  0  0  0
  -28.3887  -32.6853   25.0312 H   0  0  0  0  0  0
  -28.0771  -31.8429   26.5402 H   0  0  0  0  0  0
  -28.2567  -38.0109   24.7559 H   0  0  0  0  0  0
  -28.1114  -36.2651   24.6235 H   0  0  0  0  0  0
  -27.2317  -37.1355   25.8864 H   0  0  0  0  0  0
  -20.9446  -29.8717   21.6783 H   0  0  0  0  0  0
  -26.0177  -38.2848   24.1462 H   0  0  0  0  0  0
  -29.6837  -18.9423   15.8413 H   0  0  0  0  0  0
  -29.9991  -22.6294   17.8484 H   0  0  0  0  0  0
  -29.9792  -21.0318   14.6254 H   0  0  0  0  0  0
  -31.4838  -21.5166   15.4121 H   0  0  0  0  0  0
  -30.0647  -22.5704   15.4820 H   0  0  0  0  0  0
  -26.8841  -16.2907   17.7280 H   0  0  0  0  0  0
  -26.7213  -17.9513   17.1693 H   0  0  0  0  0  0
  -26.8713  -17.6121   18.8860 H   0  0  0  0  0  0
  -31.2024  -23.4751   19.5448 H   0  0  0  0  0  0
  -30.8102  -24.0630   21.1514 H   0  0  0  0  0  0
  -30.7225  -25.1477   19.7673 H   0  0  0  0  0  0
  -29.2291  -16.6901   18.4141 H   0  0  0  0  0  0
  -29.0188  -17.0645   16.7727 H   0  0  0  0  0  0
  -29.3696  -21.9035   21.2015 H   0  0  0  0  0  0
  -27.8329  -21.9350   20.4064 H   0  0  0  0  0  0
  -28.2081  -18.1690   20.5788 H   0  0  0  0  0  0
  -29.3634  -19.1726   21.3686 H   0  0  0  0  0  0
  -30.9313  -17.5132   21.4305 H   0  0  0  0  0  0
  -30.9703  -17.3844   19.7236 H   0  0  0  0  0  0
  -28.2789  -24.8670   21.6289 H   0  0  0  0  0  0
  -27.0900  -24.6068   20.4101 H   0  0  0  0  0  0
  -28.7881  -23.8724   18.8516 H   0  0  0  0  0  0
  -28.8847  -15.6856   20.9436 H   0  0  0  0  0  0
  1 25  1  0  0  0
  1 30  2  0  0  0
  1 86  1  0  0  0
  2  3  1  0  0  0
  2 25  1  0  0  0
  2 87  1  0  0  0
  2 88  1  0  0  0
  3  4  1  0  0  0
  3 89  1  0  0  0
  3 90  1  0  0  0
  4  5  1  0  0  0
  4 91  1  0  0  0
  4 92  1  0  0  0
  5  6  1  0  0  0
  5 26  1  0  0  0
  5 93  1  0  0  0
  6 25  1  0  0  0
  6 94  1  0  0  0
  6 95  1  0  0  0
  7  8  2  0  0  0
  7 26  1  0  0  0
  7 29  1  0  0  0
  8  9  1  0  0  0
  8 22  1  0  0  0
  9 10  1  0  0  0
  9 27  2  0  0  0
 10 11  2  0  0  0
 10 15  1  0  0  0
 11 12  1  0  0  0
 11 96  1  0  0  0
 12 13  2  0  0  0
 12 97  1  0  0  0
 13 14  1  0  0  0
 13 31  1  0  0  0
 14 15  2  0  0  0
 14 98  1  0  0  0
 15 99  1  0  0  0
 16 17  2  0  0  0
 16 21  1  0  0  0
 16 31  1  0  0  0
 17 18  1  0  0  0
 17100  1  0  0  0
 18 19  2  0  0  0
 18101  1  0  0  0
 19 20  1  0  0  0
 19 24  1  0  0  0
 20 21  2  0  0  0
 20102  1  0  0  0
 21 23  1  0  0  0
 22 28  1  0  0  0
 22 32  2  0  0  0
 26 27  1  0  0  0
 28103  1  0  0  0
 28104  1  0  0  0
 29105  1  0  0  0
 29106  1  0  0  0
 33 34  1  0  0  0
 33 66  1  0  0  0
 33 70  2  0  0  0
 34 36  1  0  0  0
 34 59  1  0  0  0
 34107  1  0  0  0
 35 44  2  0  0  0
 35 45  1  0  0  0
 35 68  1  0  0  0
 36 56  1  0  0  0
 36108  1  0  0  0
 37 39  1  0  0  0
 37 47  1  0  0  0
 37 66  1  0  0  0
 37109  1  0  0  0
 38 43  2  0  0  0
 38 46  1  0  0  0
 38 47  1  0  0  0
 39 64  1  0  0  0
 39 67  2  0  0  0
 40 52  1  0  0  0
 40 53  2  0  0  0
 40 58  1  0  0  0
 41110  1  0  0  0
 41111  1  0  0  0
 41112  1  0  0  0
 41 48  1  0  0  0
 42 43  1  0  0  0
 42 66  1  0  0  0
 42113  1  0  0  0
 42114  1  0  0  0
 43 44  1  0  0  0
 44115  1  0  0  0
 45 46  2  0  0  0
 45116  1  0  0  0
 46117  1  0  0  0
 47118  1  0  0  0
 47119  1  0  0  0
 48 56  1  0  0  0
 48 65  1  0  0  0
 48120  1  0  0  0
 49 50  1  0  0  0
 49 53  1  0  0  0
 49 64  1  0  0  0
 49121  1  0  0  0
 50 51  1  0  0  0
 50122  1  0  0  0
 50123  1  0  0  0
 51 52  1  0  0  0
 51124  1  0  0  0
 51125  1  0  0  0
 52126  1  0  0  0
 52127  1  0  0  0
 53 54  1  0  0  0
 54 55  2  0  0  0
 54128  1  0  0  0
 55 57  1  0  0  0
 55129  1  0  0  0
 56 69  2  0  0  0
 57 58  2  0  0  0
 57130  1  0  0  0
 58131  1  0  0  0
 59 60  1  0  0  0
 59 61  1  0  0  0
 59 62  1  0  0  0
 60132  1  0  0  0
 60133  1  0  0  0
 60134  1  0  0  0
 61135  1  0  0  0
 61136  1  0  0  0
 61137  1  0  0  0
 62138  1  0  0  0
 62139  1  0  0  0
 62140  1  0  0  0
 63 65  1  0  0  0
 63141  1  0  0  0
 63142  1  0  0  0
 63143  1  0  0  0
 64144  1  0  0  0
 65145  1  0  0  0
 68 84  1  0  0  0
 71 73  2  0  0  0
 71 74  1  0  0  0
 71146  1  0  0  0
 72 73  1  0  0  0
 72 75  2  0  0  0
 72147  1  0  0  0
 73 77  1  0  0  0
 74 76  2  0  0  0
 74 80  1  0  0  0
 75 76  1  0  0  0
 75 81  1  0  0  0
 76 82  1  0  0  0
 77148  1  0  0  0
 77149  1  0  0  0
 77150  1  0  0  0
 78 80  1  0  0  0
 78151  1  0  0  0
 78152  1  0  0  0
 78153  1  0  0  0
 79154  1  0  0  0
 79155  1  0  0  0
 79156  1  0  0  0
 79 85  1  0  0  0
 80157  1  0  0  0
 80158  1  0  0  0
 81 85  1  0  0  0
 81159  1  0  0  0
 81160  1  0  0  0
 82 83  1  0  0  0
 82161  1  0  0  0
 82162  1  0  0  0
 83 86  1  0  0  0
 83163  1  0  0  0
 83164  1  0  0  0
 84 85  1  0  0  0
 84165  1  0  0  0
 84166  1  0  0  0
 85167  1  0  0  0
 86168  1  0  0  0
M  ISO  4   1 100  68 101  84 101  86 100
M  END
> <chiral flag>
0

> <version>
0

> <s_m_source_file>
/data/baiqing/PycharmProjects/Reinvent-master-3.2/result/LINK_invent/BTK/process_docking_weight1_custom_sum_contain_oxygen_bond_distance_aromatic_linkinvent_7_9_3/rearranged_h_0088.sdf

> <i_m_source_file_index>
34

> <r_mmod_Potential_Energy-OPLS-2005>
257.392211914062

> <r_mmod_Stretch_Energy-OPLS-2005>
156.077560424805

> <r_mmod_Bend_Energy-OPLS-2005>
197.805755615234

> <r_mmod_Torsional_Energy-OPLS-2005>
273.916717529297

> <r_mmod_Improper_Torsional_Energy-OPLS-2005>
5.33035945892334

> <r_mmod_Van_der_Waal_Energy-OPLS-2005>
144.405548095703

> <r_mmod_Electrostatic_Energy-OPLS-2005>
-397.421051025391

> <r_mmod_Solvation_Energy-OPLS-2005>
-203.813537597656

> <b_mmod_Minimization_Converged-OPLS-2005>
0

> <r_mmod_RMS_Derivative-OPLS-2005>
3.37200498580933

$$$$
34
                    3D
 Structure written by MMmdl.
174182  0  0  1  0            999 V2000
  -30.7296  -14.4598   20.5979 C   0  0  0  0  0  0
  -30.4198  -12.3110   19.4140 C   0  0  0  0  0  0
  -29.4892  -12.5110   18.2017 C   0  0  0  0  0  0
  -28.0128  -12.3692   18.6192 C   0  0  0  0  0  0
  -27.6614  -13.2119   19.8737 C   0  0  2  0  0  0
  -28.7062  -12.9960   20.9927 C   0  0  0  0  0  0
  -25.2574  -13.8167   20.5687 C   0  0  0  0  0  0
  -24.1835  -13.0441   20.9180 C   0  0  0  0  0  0
  -24.6400  -11.6905   20.8720 C   0  0  0  0  0  0
  -23.9064  -10.4294   21.0394 C   0  0  0  0  0  0
  -24.3611   -9.4208   21.9177 C   0  0  0  0  0  0
  -23.6286   -8.2242   22.0750 C   0  0  0  0  0  0
  -22.4267   -8.0278   21.3542 C   0  0  0  0  0  0
  -21.9905   -9.0252   20.4639 C   0  0  0  0  0  0
  -22.7233  -10.2134   20.3044 C   0  0  0  0  0  0
  -21.6856   -6.0726   22.5274 C   0  0  0  0  0  0
  -21.4020   -6.5632   23.8205 C   0  0  0  0  0  0
  -21.3658   -5.6789   24.9173 C   0  0  0  0  0  0
  -21.6044   -4.3048   24.7232 C   0  0  0  0  0  0
  -21.8821   -3.8143   23.4352 C   0  0  0  0  0  0
  -21.9192   -4.6955   22.3405 C   0  0  0  0  0  0
  -22.7849  -13.5222   21.1845 C   0  0  0  0  0  0
  -22.1658   -4.2136   21.0981 F   0  0  0  0  0  0
  -21.5632   -3.4534   25.7746 F   0  0  0  0  0  0
  -30.0387  -13.2961   20.4403 N   0  0  0  0  0  0
  -26.3028  -12.9352   20.3376 N   0  0  0  0  0  0
  -25.9330  -11.6507   20.5764 N   0  0  0  0  0  0
  -22.0500  -12.8204   22.0405 N   0  0  0  0  0  0
  -25.4289  -15.1884   20.4101 N   0  0  0  0  0  0
  -31.8334  -14.6537   20.0849 O   0  0  0  0  0  0
  -21.6635   -6.8874   21.4234 O   0  0  0  0  0  0
  -22.3526  -14.5533   20.6707 O   0  0  0  0  0  0
  -24.6222  -31.8643   23.2120 C   0  0  0  0  0  0
  -25.9104  -32.4775   23.8412 C   0  0  1  0  0  0
  -27.2179  -27.3882   20.0981 C   0  0  0  0  0  0
  -25.5947  -33.8570   24.2330 N   0  0  0  0  0  0
  -23.4078  -30.4969   21.5542 C   0  0  2  0  0  0
  -24.8495  -28.9698   20.1106 C   0  0  0  0  0  0
  -22.7439  -29.4664   22.4962 C   0  0  0  0  0  0
  -18.0291  -28.1360   22.8487 C   0  0  0  0  0  0
  -24.1490  -36.7319   23.2639 C   0  0  0  0  0  0
  -25.9436  -30.8222   21.3670 C   0  0  0  0  0  0
  -26.0166  -29.4534   20.7143 C   0  0  0  0  0  0
  -27.2013  -28.6713   20.7065 C   0  0  0  0  0  0
  -26.0275  -26.9482   19.4650 C   0  0  0  0  0  0
  -24.8519  -27.7168   19.4857 C   0  0  0  0  0  0
  -23.6147  -29.8427   20.1645 C   0  0  0  0  0  0
  -25.4106  -36.3070   24.0324 C   0  0  1  0  0  0
  -20.5886  -28.3667   23.1287 C   0  0  2  0  0  0
  -20.6773  -26.9388   22.5405 C   0  0  0  0  0  0
  -19.5740  -26.6367   21.5215 C   0  0  0  0  0  0
  -18.1923  -26.7905   22.1623 C   0  0  0  0  0  0
  -19.1545  -28.8834   23.2886 C   0  0  0  0  0  0
  -18.9461  -30.1438   23.8884 C   0  0  0  0  0  0
  -17.6463  -30.6566   24.0560 C   0  0  0  0  0  0
  -25.9038  -34.9435   23.5118 C   0  0  0  0  0  0
  -16.5356  -29.9059   23.6316 C   0  0  0  0  0  0
  -16.7280  -28.6484   23.0322 C   0  0  0  0  0  0
  -26.4511  -31.6529   25.0722 C   0  0  0  0  0  0
  -25.3780  -31.3592   26.1475 C   0  0  0  0  0  0
  -27.0375  -30.2981   24.6086 C   0  0  0  0  0  0
  -27.6101  -32.4238   25.7464 C   0  0  0  0  0  0
  -27.5566  -37.1793   24.8448 C   0  0  0  0  0  0
  -21.4163  -29.3041   22.3690 N   0  0  0  0  0  0
  -26.4277  -37.3766   23.9406 N   0  0  0  0  0  0
  -24.6772  -31.0746   22.1036 N   0  0  0  0  0  0
  -23.4190  -28.8166   23.2990 O   0  0  0  0  0  0
  -28.3585  -26.5885   20.1529 O   0  0  0  0  0  0
  -26.5580  -34.8877   22.4670 O   0  0  0  0  0  0
  -23.5404  -32.1425   23.7506 O   0  0  0  0  0  0
  -29.7673  -20.3667   20.2329 C   0  0  0  0  0  0
  -28.3953  -18.9219   21.5974 C   0  0  0  0  0  0
  -29.5243  -19.0763   20.7748 C   0  0  0  0  0  0
  -28.8825  -21.4590   20.4508 C   0  0  0  0  0  0
  -27.4839  -19.9718   21.8454 C   0  0  0  0  0  0
  -27.7195  -21.2530   21.2518 C   0  0  0  0  0  0
  -26.7298  -22.4059   21.4072 C   0  0  0  0  0  0
  -27.1749  -21.0997   24.6880 C   0  0  0  0  0  0
  -31.6656  -18.1401   19.6622 C   0  0  0  0  0  0
  -25.6243  -18.2860   22.4087 C   0  0  0  0  0  0
  -29.1254  -22.7614   19.6389 C   0  0  0  0  0  0
  -26.6271  -19.7350   24.2423 C   0  0  0  0  0  0
  -29.2280  -24.1588   20.3472 C   0  0  0  0  0  0
  -30.6069  -16.7950   21.5480 C   0  0  0  0  0  0
  -28.2067  -25.1914   19.7834 C   0  0  0  0  0  0
  -30.3437  -17.8179   20.3881 C   0  0  1  0  0  0
  -26.2716  -19.6462   22.7421 C   0  0  1  0  0  0
  -30.1009  -15.4344   21.2780 N   0  0  0  0  0  0
  -31.4640  -12.4043   19.1101 H   0  0  0  0  0  0
  -30.3192  -11.2995   19.8112 H   0  0  0  0  0  0
  -29.7251  -11.7878   17.4194 H   0  0  0  0  0  0
  -29.6582  -13.4984   17.7675 H   0  0  0  0  0  0
  -27.8281  -11.3128   18.8228 H   0  0  0  0  0  0
  -27.3579  -12.6367   17.7896 H   0  0  0  0  0  0
  -27.7050  -14.2592   19.5736 H   0  0  0  0  0  0
  -28.6818  -11.9602   21.3340 H   0  0  0  0  0  0
  -28.4653  -13.5957   21.8709 H   0  0  0  0  0  0
  -25.2758   -9.5677   22.4747 H   0  0  0  0  0  0
  -23.9987   -7.4635   22.7474 H   0  0  0  0  0  0
  -21.0837   -8.8777   19.8947 H   0  0  0  0  0  0
  -22.3698  -10.9669   19.6147 H   0  0  0  0  0  0
  -21.2016   -7.6137   23.9710 H   0  0  0  0  0  0
  -21.1474   -6.0517   25.9075 H   0  0  0  0  0  0
  -22.0603   -2.7601   23.2861 H   0  0  0  0  0  0
  -22.4112  -11.9848   22.4764 H   0  0  0  0  0  0
  -21.1119  -13.1213   22.2628 H   0  0  0  0  0  0
  -24.6658  -15.8445   20.5312 H   0  0  0  0  0  0
  -26.2870  -15.6292   20.1057 H   0  0  0  0  0  0
  -26.7168  -32.5463   23.1162 H   0  0  0  0  0  0
  -25.0082  -33.9714   25.0462 H   0  0  0  0  0  0
  -22.7035  -31.3203   21.4211 H   0  0  0  0  0  0
  -23.3705  -35.9692   23.3292 H   0  0  0  0  0  0
  -24.3624  -36.8982   22.2065 H   0  0  0  0  0  0
  -23.7307  -37.6546   23.6682 H   0  0  0  0  0  0
  -26.0570  -31.5835   20.5939 H   0  0  0  0  0  0
  -26.8346  -30.8809   21.9801 H   0  0  0  0  0  0
  -28.0965  -29.0395   21.1882 H   0  0  0  0  0  0
  -25.9620  -26.0040   18.9471 H   0  0  0  0  0  0
  -23.9541  -27.3405   19.0145 H   0  0  0  0  0  0
  -23.7190  -30.6260   19.4131 H   0  0  0  0  0  0
  -22.7346  -29.2707   19.8650 H   0  0  0  0  0  0
  -25.1279  -36.1933   25.0815 H   0  0  0  0  0  0
  -21.0008  -28.3237   24.1395 H   0  0  0  0  0  0
  -20.5689  -26.2265   23.3600 H   0  0  0  0  0  0
  -21.6637  -26.7393   22.1197 H   0  0  0  0  0  0
  -19.6893  -25.6284   21.1230 H   0  0  0  0  0  0
  -19.6680  -27.3179   20.6748 H   0  0  0  0  0  0
  -17.4197  -26.6671   21.4012 H   0  0  0  0  0  0
  -18.0301  -26.0036   22.9002 H   0  0  0  0  0  0
  -19.7936  -30.7272   24.2230 H   0  0  0  0  0  0
  -17.5004  -31.6241   24.5160 H   0  0  0  0  0  0
  -15.5347  -30.2947   23.7654 H   0  0  0  0  0  0
  -15.8682  -28.0822   22.6994 H   0  0  0  0  0  0
  -24.5993  -30.6874   25.7815 H   0  0  0  0  0  0
  -24.8879  -32.2703   26.4897 H   0  0  0  0  0  0
  -25.8148  -30.8797   27.0240 H   0  0  0  0  0  0
  -26.2921  -29.6689   24.1189 H   0  0  0  0  0  0
  -27.4249  -29.7249   25.4517 H   0  0  0  0  0  0
  -27.8690  -30.4323   23.9172 H   0  0  0  0  0  0
  -27.2769  -33.3577   26.1997 H   0  0  0  0  0  0
  -28.3923  -32.6730   25.0278 H   0  0  0  0  0  0
  -28.0736  -31.8366   26.5409 H   0  0  0  0  0  0
  -28.2534  -38.0121   24.7542 H   0  0  0  0  0  0
  -28.1111  -36.2660   24.6226 H   0  0  0  0  0  0
  -27.2297  -37.1427   25.8847 H   0  0  0  0  0  0
  -20.9311  -29.8817   21.6965 H   0  0  0  0  0  0
  -26.0145  -38.2827   24.1432 H   0  0  0  0  0  0
  -30.6089  -20.5181   19.5739 H   0  0  0  0  0  0
  -28.2009  -17.9477   22.0184 H   0  0  0  0  0  0
  -26.4694  -22.7935   20.4237 H   0  0  0  0  0  0
  -27.1615  -23.2082   22.0027 H   0  0  0  0  0  0
  -25.7814  -22.1727   21.8732 H   0  0  0  0  0  0
  -27.3672  -21.1087   25.7616 H   0  0  0  0  0  0
  -26.4687  -21.9021   24.4729 H   0  0  0  0  0  0
  -28.1132  -21.3338   24.1859 H   0  0  0  0  0  0
  -31.4978  -18.6766   18.7283 H   0  0  0  0  0  0
  -32.2011  -17.2279   19.4008 H   0  0  0  0  0  0
  -32.3292  -18.7386   20.2862 H   0  0  0  0  0  0
  -25.3998  -18.2099   21.3441 H   0  0  0  0  0  0
  -24.6848  -18.1595   22.9467 H   0  0  0  0  0  0
  -26.2504  -17.4366   22.6783 H   0  0  0  0  0  0
  -28.3477  -22.7947   18.8760 H   0  0  0  0  0  0
  -30.0442  -22.6334   19.0660 H   0  0  0  0  0  0
  -25.7409  -19.5093   24.8359 H   0  0  0  0  0  0
  -27.3579  -18.9649   24.4889 H   0  0  0  0  0  0
  -30.2335  -24.5524   20.1882 H   0  0  0  0  0  0
  -29.1313  -24.0634   21.4273 H   0  0  0  0  0  0
  -30.1759  -17.1296   22.4904 H   0  0  0  0  0  0
  -31.6745  -16.7343   21.7658 H   0  0  0  0  0  0
  -27.2394  -24.8249   20.1171 H   0  0  0  0  0  0
  -28.2051  -25.1393   18.6921 H   0  0  0  0  0  0
  -29.7143  -17.3155   19.6514 H   0  0  0  0  0  0
  -25.4591  -20.3391   22.5622 H   0  0  0  0  0  0
  -29.1927  -15.2032   21.6517 H   0  0  0  0  0  0
  1 25  1  0  0  0
  1 30  2  0  0  0
  1 88  1  0  0  0
  2  3  1  0  0  0
  2 25  1  0  0  0
  2 89  1  0  0  0
  2 90  1  0  0  0
  3  4  1  0  0  0
  3 91  1  0  0  0
  3 92  1  0  0  0
  4  5  1  0  0  0
  4 93  1  0  0  0
  4 94  1  0  0  0
  5  6  1  0  0  0
  5 26  1  0  0  0
  5 95  1  0  0  0
  6 25  1  0  0  0
  6 96  1  0  0  0
  6 97  1  0  0  0
  7  8  2  0  0  0
  7 26  1  0  0  0
  7 29  1  0  0  0
  8  9  1  0  0  0
  8 22  1  0  0  0
  9 10  1  0  0  0
  9 27  2  0  0  0
 10 11  2  0  0  0
 10 15  1  0  0  0
 11 12  1  0  0  0
 11 98  1  0  0  0
 12 13  2  0  0  0
 12 99  1  0  0  0
 13 14  1  0  0  0
 13 31  1  0  0  0
 14 15  2  0  0  0
 14100  1  0  0  0
 15101  1  0  0  0
 16 17  2  0  0  0
 16 21  1  0  0  0
 16 31  1  0  0  0
 17 18  1  0  0  0
 17102  1  0  0  0
 18 19  2  0  0  0
 18103  1  0  0  0
 19 20  1  0  0  0
 19 24  1  0  0  0
 20 21  2  0  0  0
 20104  1  0  0  0
 21 23  1  0  0  0
 22 28  1  0  0  0
 22 32  2  0  0  0
 26 27  1  0  0  0
 28105  1  0  0  0
 28106  1  0  0  0
 29107  1  0  0  0
 29108  1  0  0  0
 33 34  1  0  0  0
 33 66  1  0  0  0
 33 70  2  0  0  0
 34 36  1  0  0  0
 34 59  1  0  0  0
 34109  1  0  0  0
 35 44  2  0  0  0
 35 45  1  0  0  0
 35 68  1  0  0  0
 36 56  1  0  0  0
 36110  1  0  0  0
 37 39  1  0  0  0
 37 47  1  0  0  0
 37 66  1  0  0  0
 37111  1  0  0  0
 38 43  2  0  0  0
 38 46  1  0  0  0
 38 47  1  0  0  0
 39 64  1  0  0  0
 39 67  2  0  0  0
 40 52  1  0  0  0
 40 53  2  0  0  0
 40 58  1  0  0  0
 41112  1  0  0  0
 41113  1  0  0  0
 41114  1  0  0  0
 41 48  1  0  0  0
 42 43  1  0  0  0
 42 66  1  0  0  0
 42115  1  0  0  0
 42116  1  0  0  0
 43 44  1  0  0  0
 44117  1  0  0  0
 45 46  2  0  0  0
 45118  1  0  0  0
 46119  1  0  0  0
 47120  1  0  0  0
 47121  1  0  0  0
 48 56  1  0  0  0
 48 65  1  0  0  0
 48122  1  0  0  0
 49 50  1  0  0  0
 49 53  1  0  0  0
 49 64  1  0  0  0
 49123  1  0  0  0
 50 51  1  0  0  0
 50124  1  0  0  0
 50125  1  0  0  0
 51 52  1  0  0  0
 51126  1  0  0  0
 51127  1  0  0  0
 52128  1  0  0  0
 52129  1  0  0  0
 53 54  1  0  0  0
 54 55  2  0  0  0
 54130  1  0  0  0
 55 57  1  0  0  0
 55131  1  0  0  0
 56 69  2  0  0  0
 57 58  2  0  0  0
 57132  1  0  0  0
 58133  1  0  0  0
 59 60  1  0  0  0
 59 61  1  0  0  0
 59 62  1  0  0  0
 60134  1  0  0  0
 60135  1  0  0  0
 60136  1  0  0  0
 61137  1  0  0  0
 61138  1  0  0  0
 61139  1  0  0  0
 62140  1  0  0  0
 62141  1  0  0  0
 62142  1  0  0  0
 63 65  1  0  0  0
 63143  1  0  0  0
 63144  1  0  0  0
 63145  1  0  0  0
 64146  1  0  0  0
 65147  1  0  0  0
 68 85  1  0  0  0
 71 73  2  0  0  0
 71 74  1  0  0  0
 71148  1  0  0  0
 72 73  1  0  0  0
 72 75  2  0  0  0
 72149  1  0  0  0
 73 86  1  0  0  0
 74 76  2  0  0  0
 74 81  1  0  0  0
 75 76  1  0  0  0
 75 87  1  0  0  0
 76 77  1  0  0  0
 77150  1  0  0  0
 77151  1  0  0  0
 77152  1  0  0  0
 78 82  1  0  0  0
 78153  1  0  0  0
 78154  1  0  0  0
 78155  1  0  0  0
 79156  1  0  0  0
 79157  1  0  0  0
 79158  1  0  0  0
 79 86  1  0  0  0
 80159  1  0  0  0
 80160  1  0  0  0
 80161  1  0  0  0
 80 87  1  0  0  0
 81 83  1  0  0  0
 81162  1  0  0  0
 81163  1  0  0  0
 82 87  1  0  0  0
 82164  1  0  0  0
 82165  1  0  0  0
 83 85  1  0  0  0
 83166  1  0  0  0
 83167  1  0  0  0
 84 86  1  0  0  0
 84 88  1  0  0  0
 84168  1  0  0  0
 84169  1  0  0  0
 85170  1  0  0  0
 85171  1  0  0  0
 86172  1  0  0  0
 87173  1  0  0  0
 88174  1  0  0  0
M  ISO  4   1 100  68 101  85 101  88 100
M  END
> <chiral flag>
0

> <version>
0

> <s_m_source_file>
/data/baiqing/PycharmProjects/Reinvent-master-3.2/result/LINK_invent/BTK/process_docking_weight1_custom_sum_contain_oxygen_bond_distance_aromatic_linkinvent_7_9_3/rearranged_h_0088.sdf

> <i_m_source_file_index>
35

> <r_mmod_Potential_Energy-OPLS-2005>
-28.9188632965088

> <r_mmod_Stretch_Energy-OPLS-2005>
53.6071472167969

> <r_mmod_Bend_Energy-OPLS-2005>
126.065299987793

> <r_mmod_Torsional_Energy-OPLS-2005>
232.578338623047

> <r_mmod_Improper_Torsional_Energy-OPLS-2005>
3.61562991142273

> <r_mmod_Van_der_Waal_Energy-OPLS-2005>
169.4599609375

> <r_mmod_Electrostatic_Energy-OPLS-2005>
-438.377655029297

> <r_mmod_Solvation_Energy-OPLS-2005>
-193.532531738281

> <b_mmod_Minimization_Converged-OPLS-2005>
0

> <r_mmod_RMS_Derivative-OPLS-2005>
2.71993565559387

$$$$
35
                    3D
 Structure written by MMmdl.
164172  0  0  1  0            999 V2000
  -30.4410  -15.0456   20.2494 C   0  0  0  0  0  0
  -30.4626  -12.5910   19.5540 C   0  0  0  0  0  0
  -29.5739  -12.3422   18.3181 C   0  0  0  0  0  0
  -28.0693  -12.2690   18.6832 C   0  0  0  0  0  0
  -27.6269  -13.2352   19.8195 C   0  0  2  0  0  0
  -28.6580  -13.3217   20.9467 C   0  0  0  0  0  0
  -25.2555  -13.8207   20.5991 C   0  0  0  0  0  0
  -24.1789  -13.0427   20.9250 C   0  0  0  0  0  0
  -24.6377  -11.6920   20.8696 C   0  0  0  0  0  0
  -23.9070  -10.4296   21.0388 C   0  0  0  0  0  0
  -24.3629   -9.4222   21.9180 C   0  0  0  0  0  0
  -23.6307   -8.2257   22.0749 C   0  0  0  0  0  0
  -22.4291   -8.0285   21.3531 C   0  0  0  0  0  0
  -21.9920   -9.0271   20.4637 C   0  0  0  0  0  0
  -22.7247  -10.2155   20.3047 C   0  0  0  0  0  0
  -21.6864   -6.0745   22.5278 C   0  0  0  0  0  0
  -21.4039   -6.5653   23.8210 C   0  0  0  0  0  0
  -21.3653   -5.6799   24.9166 C   0  0  0  0  0  0
  -21.6047   -4.3052   24.7217 C   0  0  0  0  0  0
  -21.8828   -3.8149   23.4329 C   0  0  0  0  0  0
  -21.9207   -4.6974   22.3397 C   0  0  0  0  0  0
  -22.7817  -13.5208   21.1901 C   0  0  0  0  0  0
  -22.1658   -4.2160   21.0967 F   0  0  0  0  0  0
  -21.5627   -3.4536   25.7732 F   0  0  0  0  0  0
  -29.9099  -13.7500   20.3172 N   0  0  0  0  0  0
  -26.2878  -12.9406   20.3183 N   0  0  0  0  0  0
  -25.9279  -11.6549   20.5611 N   0  0  0  0  0  0
  -22.0462  -12.8163   22.0432 N   0  0  0  0  0  0
  -25.4403  -15.1946   20.5057 N   0  0  0  0  0  0
  -31.6762  -15.0659   20.1476 O   0  0  0  0  0  0
  -21.6643   -6.8891   21.4237 O   0  0  0  0  0  0
  -22.3495  -14.5513   20.6752 O   0  0  0  0  0  0
  -24.6408  -31.8404   23.1832 C   0  0  0  0  0  0
  -25.9168  -32.4674   23.8224 C   0  0  1  0  0  0
  -27.2189  -27.1198   20.1627 C   0  0  0  0  0  0
  -25.5899  -33.8477   24.2130 N   0  0  0  0  0  0
  -23.4477  -30.4547   21.5280 C   0  0  2  0  0  0
  -24.8974  -28.8720   20.1032 C   0  0  0  0  0  0
  -22.7560  -29.4523   22.4856 C   0  0  0  0  0  0
  -18.0308  -28.1379   22.8497 C   0  0  0  0  0  0
  -24.1507  -36.7281   23.2649 C   0  0  0  0  0  0
  -26.0016  -30.7059   21.3844 C   0  0  0  0  0  0
  -26.0684  -29.3157   20.7265 C   0  0  0  0  0  0
  -27.2250  -28.4533   20.7412 C   0  0  0  0  0  0
  -26.0290  -26.7753   19.4894 C   0  0  0  0  0  0
  -24.8918  -27.6175   19.4648 C   0  0  0  0  0  0
  -23.6718  -29.7741   20.1488 C   0  0  0  0  0  0
  -25.4138  -36.3028   24.0311 C   0  0  1  0  0  0
  -20.5915  -28.3714   23.1239 C   0  0  2  0  0  0
  -20.6792  -26.9410   22.5422 C   0  0  0  0  0  0
  -19.5770  -26.6367   21.5222 C   0  0  0  0  0  0
  -18.1935  -26.7935   22.1606 C   0  0  0  0  0  0
  -19.1562  -28.8872   23.2859 C   0  0  0  0  0  0
  -18.9471  -30.1454   23.8893 C   0  0  0  0  0  0
  -17.6463  -30.6580   24.0557 C   0  0  0  0  0  0
  -25.9095  -34.9406   23.5062 C   0  0  0  0  0  0
  -16.5364  -29.9067   23.6318 C   0  0  0  0  0  0
  -16.7292  -28.6475   23.0371 C   0  0  0  0  0  0
  -26.4481  -31.6551   25.0685 C   0  0  0  0  0  0
  -25.3669  -31.3737   26.1383 C   0  0  0  0  0  0
  -27.0331  -30.2923   24.6319 C   0  0  0  0  0  0
  -27.6026  -32.4326   25.7439 C   0  0  0  0  0  0
  -27.5600  -37.1765   24.8441 C   0  0  0  0  0  0
  -21.4262  -29.3029   22.3607 N   0  0  0  0  0  0
  -26.4301  -37.3733   23.9406 N   0  0  0  0  0  0
  -24.7160  -31.0245   22.0869 N   0  0  0  0  0  0
  -23.4192  -28.8100   23.3044 O   0  0  0  0  0  0
  -28.2908  -26.1689   20.3075 O   0  0  0  0  0  0
  -26.5721  -34.8910   22.4667 O   0  0  0  0  0  0
  -23.5526  -32.1274   23.7060 O   0  0  0  0  0  0
  -30.0121  -17.7675   20.5898 C   0  0  0  0  0  0
  -28.2388  -18.2567   19.4230 C   0  0  0  0  0  0
  -29.6284  -16.4818   20.0722 C   0  0  0  0  0  0
  -28.6079  -16.9567   19.1258 C   0  0  0  0  0  0
  -26.5631  -16.1683   17.6621 C   0  0  0  0  0  0
  -28.9298  -15.4372   17.0352 C   0  0  0  0  0  0
  -28.1324  -21.1437   22.1766 C   0  0  0  0  0  0
  -26.5573  -22.8541   19.9878 C   0  0  0  0  0  0
  -29.3858  -20.4986   19.9995 C   0  0  0  0  0  0
  -28.4183  -24.6835   19.8325 C   0  0  0  0  0  0
  -28.0728  -16.4503   17.7780 C   0  0  0  0  0  0
  -28.8004  -21.7782   20.9369 C   0  0  1  0  0  0
  -27.9462  -23.2247   20.5454 C   0  0  2  0  0  0
  -29.2144  -18.9096   20.1315 N   0  0  0  0  0  0
  -31.4909  -12.7683   19.2335 H   0  0  0  0  0  0
  -30.5004  -11.6998   20.1848 H   0  0  0  0  0  0
  -29.8617  -11.3991   17.8532 H   0  0  0  0  0  0
  -29.8058  -13.0781   17.5605 H   0  0  0  0  0  0
  -27.8913  -11.2416   19.0033 H   0  0  0  0  0  0
  -27.4495  -12.4071   17.7962 H   0  0  0  0  0  0
  -27.5919  -14.2265   19.3804 H   0  0  0  0  0  0
  -28.7682  -12.3640   21.4574 H   0  0  0  0  0  0
  -28.3559  -14.0451   21.7037 H   0  0  0  0  0  0
  -25.2799   -9.5696   22.4737 H   0  0  0  0  0  0
  -24.0031   -7.4649   22.7472 H   0  0  0  0  0  0
  -21.0858   -8.8789   19.8944 H   0  0  0  0  0  0
  -22.3714  -10.9696   19.6147 H   0  0  0  0  0  0
  -21.2038   -7.6171   23.9712 H   0  0  0  0  0  0
  -21.1459   -6.0525   25.9069 H   0  0  0  0  0  0
  -22.0612   -2.7617   23.2826 H   0  0  0  0  0  0
  -22.4079  -11.9800   22.4769 H   0  0  0  0  0  0
  -21.1086  -13.1162   22.2644 H   0  0  0  0  0  0
  -24.7213  -15.8605   20.7599 H   0  0  0  0  0  0
  -26.3226  -15.6354   20.2749 H   0  0  0  0  0  0
  -26.7262  -32.5241   23.0969 H   0  0  0  0  0  0
  -24.9882  -33.9592   25.0164 H   0  0  0  0  0  0
  -22.7494  -31.2791   21.3708 H   0  0  0  0  0  0
  -23.3773  -35.9601   23.3252 H   0  0  0  0  0  0
  -24.3622  -36.8996   22.2079 H   0  0  0  0  0  0
  -23.7249  -37.6449   23.6751 H   0  0  0  0  0  0
  -26.1659  -31.4571   20.6107 H   0  0  0  0  0  0
  -26.8697  -30.7508   22.0311 H   0  0  0  0  0  0
  -28.1158  -28.7834   21.2562 H   0  0  0  0  0  0
  -25.9527  -25.8090   19.0163 H   0  0  0  0  0  0
  -23.9975  -27.2738   18.9651 H   0  0  0  0  0  0
  -23.7980  -30.5431   19.3856 H   0  0  0  0  0  0
  -22.7873  -29.2079   19.8490 H   0  0  0  0  0  0
  -25.1318  -36.1857   25.0798 H   0  0  0  0  0  0
  -21.0006  -28.3339   24.1367 H   0  0  0  0  0  0
  -20.5684  -26.2321   23.3657 H   0  0  0  0  0  0
  -21.6655  -26.7420   22.1210 H   0  0  0  0  0  0
  -19.6928  -25.6267   21.1272 H   0  0  0  0  0  0
  -19.6723  -27.3179   20.6761 H   0  0  0  0  0  0
  -17.4216  -26.6718   21.3997 H   0  0  0  0  0  0
  -18.0295  -26.0066   22.8983 H   0  0  0  0  0  0
  -19.7951  -30.7250   24.2284 H   0  0  0  0  0  0
  -17.5026  -31.6277   24.5132 H   0  0  0  0  0  0
  -15.5358  -30.2953   23.7673 H   0  0  0  0  0  0
  -15.8697  -28.0790   22.7103 H   0  0  0  0  0  0
  -24.5866  -30.7075   25.7685 H   0  0  0  0  0  0
  -24.8830  -32.2907   26.4742 H   0  0  0  0  0  0
  -25.7934  -30.8932   27.0194 H   0  0  0  0  0  0
  -26.2931  -29.6626   24.1362 H   0  0  0  0  0  0
  -27.3923  -29.7254   25.4912 H   0  0  0  0  0  0
  -27.8861  -30.4102   23.9640 H   0  0  0  0  0  0
  -27.2630  -33.3642   26.1961 H   0  0  0  0  0  0
  -28.3816  -32.6851   25.0247 H   0  0  0  0  0  0
  -28.0713  -31.8488   26.5363 H   0  0  0  0  0  0
  -28.2540  -38.0130   24.7543 H   0  0  0  0  0  0
  -28.1168  -36.2653   24.6182 H   0  0  0  0  0  0
  -27.2349  -37.1321   25.8850 H   0  0  0  0  0  0
  -20.9477  -29.8695   21.6752 H   0  0  0  0  0  0
  -26.0175  -38.2806   24.1402 H   0  0  0  0  0  0
  -30.8844  -17.9782   21.1931 H   0  0  0  0  0  0
  -27.5082  -18.8711   18.9115 H   0  0  0  0  0  0
  -25.9526  -16.9195   18.1646 H   0  0  0  0  0  0
  -26.2717  -15.1883   18.0287 H   0  0  0  0  0  0
  -26.2656  -16.1765   16.6124 H   0  0  0  0  0  0
  -29.9341  -15.3532   17.4480 H   0  0  0  0  0  0
  -29.0331  -15.7168   15.9857 H   0  0  0  0  0  0
  -28.4237  -14.4765   17.0358 H   0  0  0  0  0  0
  -28.7495  -20.3499   22.5998 H   0  0  0  0  0  0
  -27.1667  -20.6993   21.9368 H   0  0  0  0  0  0
  -27.9775  -21.8766   22.9702 H   0  0  0  0  0  0
  -26.6270  -22.4429   18.9797 H   0  0  0  0  0  0
  -25.8988  -23.7227   19.9451 H   0  0  0  0  0  0
  -26.0437  -22.1193   20.6068 H   0  0  0  0  0  0
  -30.4658  -20.6472   19.9527 H   0  0  0  0  0  0
  -29.0765  -20.7326   18.9788 H   0  0  0  0  0  0
  -28.0557  -24.6718   18.8025 H   0  0  0  0  0  0
  -29.4948  -24.5695   19.7088 H   0  0  0  0  0  0
  -28.1991  -17.3426   17.1594 H   0  0  0  0  0  0
  -29.7293  -22.1895   21.3321 H   0  0  0  0  0  0
  -27.7377  -23.6132   21.5426 H   0  0  0  0  0  0
  1 25  1  0  0  0
  1 30  2  0  0  0
  1 73  1  0  0  0
  2  3  1  0  0  0
  2 25  1  0  0  0
  2 85  1  0  0  0
  2 86  1  0  0  0
  3  4  1  0  0  0
  3 87  1  0  0  0
  3 88  1  0  0  0
  4  5  1  0  0  0
  4 89  1  0  0  0
  4 90  1  0  0  0
  5  6  1  0  0  0
  5 26  1  0  0  0
  5 91  1  0  0  0
  6 25  1  0  0  0
  6 92  1  0  0  0
  6 93  1  0  0  0
  7  8  2  0  0  0
  7 26  1  0  0  0
  7 29  1  0  0  0
  8  9  1  0  0  0
  8 22  1  0  0  0
  9 10  1  0  0  0
  9 27  2  0  0  0
 10 11  2  0  0  0
 10 15  1  0  0  0
 11 12  1  0  0  0
 11 94  1  0  0  0
 12 13  2  0  0  0
 12 95  1  0  0  0
 13 14  1  0  0  0
 13 31  1  0  0  0
 14 15  2  0  0  0
 14 96  1  0  0  0
 15 97  1  0  0  0
 16 17  2  0  0  0
 16 21  1  0  0  0
 16 31  1  0  0  0
 17 18  1  0  0  0
 17 98  1  0  0  0
 18 19  2  0  0  0
 18 99  1  0  0  0
 19 20  1  0  0  0
 19 24  1  0  0  0
 20 21  2  0  0  0
 20100  1  0  0  0
 21 23  1  0  0  0
 22 28  1  0  0  0
 22 32  2  0  0  0
 26 27  1  0  0  0
 28101  1  0  0  0
 28102  1  0  0  0
 29103  1  0  0  0
 29104  1  0  0  0
 33 34  1  0  0  0
 33 66  1  0  0  0
 33 70  2  0  0  0
 34 36  1  0  0  0
 34 59  1  0  0  0
 34105  1  0  0  0
 35 44  2  0  0  0
 35 45  1  0  0  0
 35 68  1  0  0  0
 36 56  1  0  0  0
 36106  1  0  0  0
 37 39  1  0  0  0
 37 47  1  0  0  0
 37 66  1  0  0  0
 37107  1  0  0  0
 38 43  2  0  0  0
 38 46  1  0  0  0
 38 47  1  0  0  0
 39 64  1  0  0  0
 39 67  2  0  0  0
 40 52  1  0  0  0
 40 53  2  0  0  0
 40 58  1  0  0  0
 41108  1  0  0  0
 41109  1  0  0  0
 41110  1  0  0  0
 41 48  1  0  0  0
 42 43  1  0  0  0
 42 66  1  0  0  0
 42111  1  0  0  0
 42112  1  0  0  0
 43 44  1  0  0  0
 44113  1  0  0  0
 45 46  2  0  0  0
 45114  1  0  0  0
 46115  1  0  0  0
 47116  1  0  0  0
 47117  1  0  0  0
 48 56  1  0  0  0
 48 65  1  0  0  0
 48118  1  0  0  0
 49 50  1  0  0  0
 49 53  1  0  0  0
 49 64  1  0  0  0
 49119  1  0  0  0
 50 51  1  0  0  0
 50120  1  0  0  0
 50121  1  0  0  0
 51 52  1  0  0  0
 51122  1  0  0  0
 51123  1  0  0  0
 52124  1  0  0  0
 52125  1  0  0  0
 53 54  1  0  0  0
 54 55  2  0  0  0
 54126  1  0  0  0
 55 57  1  0  0  0
 55127  1  0  0  0
 56 69  2  0  0  0
 57 58  2  0  0  0
 57128  1  0  0  0
 58129  1  0  0  0
 59 60  1  0  0  0
 59 61  1  0  0  0
 59 62  1  0  0  0
 60130  1  0  0  0
 60131  1  0  0  0
 60132  1  0  0  0
 61133  1  0  0  0
 61134  1  0  0  0
 61135  1  0  0  0
 62136  1  0  0  0
 62137  1  0  0  0
 62138  1  0  0  0
 63 65  1  0  0  0
 63139  1  0  0  0
 63140  1  0  0  0
 63141  1  0  0  0
 64142  1  0  0  0
 65143  1  0  0  0
 68 80  1  0  0  0
 71 73  2  0  0  0
 71 84  1  0  0  0
 71144  1  0  0  0
 72 74  2  0  0  0
 72 84  1  0  0  0
 72145  1  0  0  0
 73 74  1  0  0  0
 74 81  1  0  0  0
 75146  1  0  0  0
 75147  1  0  0  0
 75148  1  0  0  0
 75 81  1  0  0  0
 76 81  1  0  0  0
 76149  1  0  0  0
 76150  1  0  0  0
 76151  1  0  0  0
 77152  1  0  0  0
 77153  1  0  0  0
 77154  1  0  0  0
 77 82  1  0  0  0
 78155  1  0  0  0
 78156  1  0  0  0
 78157  1  0  0  0
 78 83  1  0  0  0
 79 82  1  0  0  0
 79 84  1  0  0  0
 79158  1  0  0  0
 79159  1  0  0  0
 80 83  1  0  0  0
 80160  1  0  0  0
 80161  1  0  0  0
 81162  1  0  0  0
 82 83  1  0  0  0
 82163  1  0  0  0
 83164  1  0  0  0
M  ISO  4   1 100  68 101  73 100  80 101
M  END
> <chiral flag>
0

> <version>
0

> <s_m_source_file>
/data/baiqing/PycharmProjects/Reinvent-master-3.2/result/LINK_invent/BTK/process_docking_weight1_custom_sum_contain_oxygen_bond_distance_aromatic_linkinvent_7_9_3/rearranged_h_0088.sdf

> <i_m_source_file_index>
36

> <r_mmod_Potential_Energy-OPLS-2005>
936.84033203125

> <r_mmod_Stretch_Energy-OPLS-2005>
312.730346679688

> <r_mmod_Bend_Energy-OPLS-2005>
419.024597167969

> <r_mmod_Torsional_Energy-OPLS-2005>
305.817352294922

> <r_mmod_Improper_Torsional_Energy-OPLS-2005>
13.4502468109131

> <r_mmod_Van_der_Waal_Energy-OPLS-2005>
106.67813873291

> <r_mmod_Electrostatic_Energy-OPLS-2005>
-296.804473876953

> <r_mmod_Solvation_Energy-OPLS-2005>
-179.184341430664

> <b_mmod_Minimization_Converged-OPLS-2005>
0

> <r_mmod_RMS_Derivative-OPLS-2005>
3.92110896110535

$$$$
36
                    3D
 Structure written by MMmdl.
167175  0  0  1  0            999 V2000
  -30.6741  -14.4897   20.5185 C   0  0  0  0  0  0
  -30.4366  -12.2899   19.4354 C   0  0  0  0  0  0
  -29.5059  -12.4553   18.2152 C   0  0  0  0  0  0
  -28.0210  -12.3567   18.6234 C   0  0  0  0  0  0
  -27.6675  -13.1922   19.8838 C   0  0  2  0  0  0
  -28.7149  -12.9811   21.0022 C   0  0  0  0  0  0
  -25.2647  -13.8135   20.5690 C   0  0  0  0  0  0
  -24.1872  -13.0420   20.9150 C   0  0  0  0  0  0
  -24.6419  -11.6892   20.8748 C   0  0  0  0  0  0
  -23.9088  -10.4285   21.0416 C   0  0  0  0  0  0
  -24.3630   -9.4206   21.9188 C   0  0  0  0  0  0
  -23.6287   -8.2260   22.0776 C   0  0  0  0  0  0
  -22.4283   -8.0299   21.3547 C   0  0  0  0  0  0
  -21.9918   -9.0283   20.4654 C   0  0  0  0  0  0
  -22.7261  -10.2152   20.3067 C   0  0  0  0  0  0
  -21.6861   -6.0746   22.5276 C   0  0  0  0  0  0
  -21.4017   -6.5661   23.8208 C   0  0  0  0  0  0
  -21.3639   -5.6819   24.9171 C   0  0  0  0  0  0
  -21.6031   -4.3082   24.7229 C   0  0  0  0  0  0
  -21.8822   -3.8155   23.4355 C   0  0  0  0  0  0
  -21.9195   -4.6962   22.3406 C   0  0  0  0  0  0
  -22.7891  -13.5220   21.1794 C   0  0  0  0  0  0
  -22.1670   -4.2148   21.0984 F   0  0  0  0  0  0
  -21.5611   -3.4576   25.7734 F   0  0  0  0  0  0
  -30.0423  -13.2869   20.4390 N   0  0  0  0  0  0
  -26.3074  -12.9267   20.3444 N   0  0  0  0  0  0
  -25.9346  -11.6448   20.5822 N   0  0  0  0  0  0
  -22.0567  -12.8190   22.0370 N   0  0  0  0  0  0
  -25.4397  -15.1851   20.4096 N   0  0  0  0  0  0
  -31.8204  -14.6850   20.1065 O   0  0  0  0  0  0
  -21.6642   -6.8889   21.4233 O   0  0  0  0  0  0
  -22.3563  -14.5511   20.6633 O   0  0  0  0  0  0
  -24.6135  -31.8685   23.2105 C   0  0  0  0  0  0
  -25.9021  -32.4837   23.8411 C   0  0  1  0  0  0
  -27.2508  -27.4619   20.0915 C   0  0  0  0  0  0
  -25.5887  -33.8633   24.2348 N   0  0  0  0  0  0
  -23.4039  -30.4869   21.5515 C   0  0  2  0  0  0
  -24.8537  -28.9491   20.1231 C   0  0  0  0  0  0
  -22.7423  -29.4645   22.5018 C   0  0  0  0  0  0
  -18.0269  -28.1382   22.8500 C   0  0  0  0  0  0
  -24.1486  -36.7330   23.2638 C   0  0  0  0  0  0
  -25.9288  -30.8411   21.3591 C   0  0  0  0  0  0
  -26.0107  -29.4735   20.7138 C   0  0  0  0  0  0
  -27.2148  -28.7363   20.6944 C   0  0  0  0  0  0
  -26.0797  -26.9392   19.5042 C   0  0  0  0  0  0
  -24.8805  -27.6793   19.5169 C   0  0  0  0  0  0
  -23.6129  -29.8120   20.1687 C   0  0  0  0  0  0
  -25.4108  -36.3127   24.0343 C   0  0  1  0  0  0
  -20.5862  -28.3656   23.1343 C   0  0  2  0  0  0
  -20.6756  -26.9395   22.5423 C   0  0  0  0  0  0
  -19.5730  -26.6387   21.5223 C   0  0  0  0  0  0
  -18.1912  -26.7929   22.1630 C   0  0  0  0  0  0
  -19.1517  -28.8839   23.2919 C   0  0  0  0  0  0
  -18.9438  -30.1451   23.8923 C   0  0  0  0  0  0
  -17.6436  -30.6584   24.0574 C   0  0  0  0  0  0
  -25.9030  -34.9488   23.5146 C   0  0  0  0  0  0
  -16.5334  -29.9084   23.6321 C   0  0  0  0  0  0
  -16.7261  -28.6505   23.0346 C   0  0  0  0  0  0
  -26.4454  -31.6610   25.0732 C   0  0  0  0  0  0
  -25.3732  -31.3665   26.1483 C   0  0  0  0  0  0
  -27.0283  -30.3072   24.6064 C   0  0  0  0  0  0
  -27.6040  -32.4321   25.7490 C   0  0  0  0  0  0
  -27.5592  -37.1814   24.8462 C   0  0  0  0  0  0
  -21.4150  -29.3023   22.3762 N   0  0  0  0  0  0
  -26.4300  -37.3807   23.9416 N   0  0  0  0  0  0
  -24.6671  -31.0794   22.0996 N   0  0  0  0  0  0
  -23.4189  -28.8190   23.3066 O   0  0  0  0  0  0
  -28.4274  -26.7586   20.0233 O   0  0  0  0  0  0
  -26.5593  -34.8926   22.4703 O   0  0  0  0  0  0
  -23.5327  -32.1422   23.7502 O   0  0  0  0  0  0
  -31.7172  -22.2106   20.1746 C   0  0  0  0  0  0
  -29.5979  -21.0685   20.3338 C   0  0  0  0  0  0
  -30.3768  -22.2100   20.6031 C   0  0  0  0  0  0
  -32.2108  -21.0846   19.4865 C   0  0  0  0  0  0
  -30.1647  -19.9914   19.6219 C   0  0  0  0  0  0
  -33.6382  -21.0474   18.9827 C   0  0  0  0  0  0
  -28.8541  -19.3565   17.6179 C   0  0  0  0  0  0
  -28.8207  -16.4837   18.3699 C   0  0  0  0  0  0
  -29.7615  -23.4238   21.2859 C   0  0  0  0  0  0
  -29.4582  -24.5784   20.3079 C   0  0  0  0  0  0
  -30.0460  -16.9562   20.6088 C   0  0  0  0  0  0
  -28.5199  -25.6425   20.9057 C   0  0  0  0  0  0
  -29.2494  -18.9109   19.0449 C   0  0  1  0  0  0
  -29.7670  -17.4311   19.1425 C   0  0  2  0  0  0
  -31.4498  -20.0058   19.1990 N   0  0  0  0  0  0
  -29.8643  -15.5107   20.8537 N   0  0  0  0  0  0
  -31.4788  -12.3951   19.1298 H   0  0  0  0  0  0
  -30.3458  -11.2839   19.8492 H   0  0  0  0  0  0
  -29.7323  -11.6879   17.4730 H   0  0  0  0  0  0
  -29.7028  -13.4075   17.7237 H   0  0  0  0  0  0
  -27.8011  -11.3046   18.8067 H   0  0  0  0  0  0
  -27.3863  -12.6554   17.7879 H   0  0  0  0  0  0
  -27.7010  -14.2369   19.5885 H   0  0  0  0  0  0
  -28.6976  -11.9498   21.3572 H   0  0  0  0  0  0
  -28.4886  -13.5910   21.8776 H   0  0  0  0  0  0
  -25.2784   -9.5686   22.4743 H   0  0  0  0  0  0
  -23.9982   -7.4683   22.7539 H   0  0  0  0  0  0
  -21.0849   -8.8845   19.8952 H   0  0  0  0  0  0
  -22.3737  -10.9724   19.6202 H   0  0  0  0  0  0
  -21.2025   -7.6176   23.9685 H   0  0  0  0  0  0
  -21.1450   -6.0569   25.9062 H   0  0  0  0  0  0
  -22.0597   -2.7619   23.2874 H   0  0  0  0  0  0
  -22.4208  -11.9818   22.4662 H   0  0  0  0  0  0
  -21.1221  -13.1230   22.2679 H   0  0  0  0  0  0
  -24.6750  -15.8428   20.5087 H   0  0  0  0  0  0
  -26.2906  -15.6165   20.0739 H   0  0  0  0  0  0
  -26.7113  -32.5566   23.1198 H   0  0  0  0  0  0
  -25.0040  -33.9801   25.0496 H   0  0  0  0  0  0
  -22.6911  -31.3016   21.4080 H   0  0  0  0  0  0
  -23.3756  -35.9650   23.3279 H   0  0  0  0  0  0
  -24.3585  -36.8971   22.2057 H   0  0  0  0  0  0
  -23.7221  -37.6518   23.6672 H   0  0  0  0  0  0
  -26.0307  -31.6015   20.5834 H   0  0  0  0  0  0
  -26.8219  -30.9051   21.9700 H   0  0  0  0  0  0
  -28.1153  -29.1432   21.1319 H   0  0  0  0  0  0
  -26.1035  -25.9697   19.0255 H   0  0  0  0  0  0
  -23.9921  -27.2703   19.0546 H   0  0  0  0  0  0
  -23.7193  -30.5818   19.4034 H   0  0  0  0  0  0
  -22.7397  -29.2247   19.8783 H   0  0  0  0  0  0
  -25.1271  -36.2001   25.0836 H   0  0  0  0  0  0
  -20.9945  -28.3206   24.1471 H   0  0  0  0  0  0
  -20.5673  -26.2255   23.3596 H   0  0  0  0  0  0
  -21.6627  -26.7429   22.1226 H   0  0  0  0  0  0
  -19.6882  -25.6305   21.1241 H   0  0  0  0  0  0
  -19.6669  -27.3208   20.6766 H   0  0  0  0  0  0
  -17.4181  -26.6700   21.4032 H   0  0  0  0  0  0
  -18.0280  -26.0069   22.9017 H   0  0  0  0  0  0
  -19.7905  -30.7270   24.2307 H   0  0  0  0  0  0
  -17.4977  -31.6262   24.5173 H   0  0  0  0  0  0
  -15.5332  -30.2989   23.7617 H   0  0  0  0  0  0
  -15.8667  -28.0830   22.7035 H   0  0  0  0  0  0
  -24.5918  -30.7005   25.7803 H   0  0  0  0  0  0
  -24.8896  -32.2789   26.4983 H   0  0  0  0  0  0
  -25.8100  -30.8798   27.0214 H   0  0  0  0  0  0
  -26.2805  -29.6845   24.1138 H   0  0  0  0  0  0
  -27.4101  -29.7288   25.4488 H   0  0  0  0  0  0
  -27.8615  -30.4421   23.9166 H   0  0  0  0  0  0
  -27.2680  -33.3618   26.2093 H   0  0  0  0  0  0
  -28.3827  -32.6891   25.0300 H   0  0  0  0  0  0
  -28.0734  -31.8434   26.5380 H   0  0  0  0  0  0
  -28.2588  -38.0136   24.7559 H   0  0  0  0  0  0
  -28.1117  -36.2672   24.6235 H   0  0  0  0  0  0
  -27.2317  -37.1402   25.8864 H   0  0  0  0  0  0
  -20.9318  -29.8755   21.6988 H   0  0  0  0  0  0
  -26.0195  -38.2882   24.1436 H   0  0  0  0  0  0
  -32.3521  -23.0706   20.3479 H   0  0  0  0  0  0
  -28.5494  -21.0517   20.5981 H   0  0  0  0  0  0
  -34.2645  -21.7545   19.5261 H   0  0  0  0  0  0
  -33.6745  -21.3090   17.9248 H   0  0  0  0  0  0
  -34.0719  -20.0537   19.1030 H   0  0  0  0  0  0
  -28.5314  -20.3981   17.6173 H   0  0  0  0  0  0
  -28.0188  -18.7885   17.2141 H   0  0  0  0  0  0
  -29.6938  -19.2787   16.9265 H   0  0  0  0  0  0
  -29.1705  -15.4581   18.3774 H   0  0  0  0  0  0
  -28.7683  -16.7348   17.3115 H   0  0  0  0  0  0
  -27.8079  -16.5144   18.7751 H   0  0  0  0  0  0
  -30.4293  -23.7728   22.0747 H   0  0  0  0  0  0
  -28.8415  -23.1155   21.7857 H   0  0  0  0  0  0
  -28.9925  -24.1767   19.4075 H   0  0  0  0  0  0
  -30.3947  -25.0375   19.9894 H   0  0  0  0  0  0
  -29.3606  -17.4699   21.2820 H   0  0  0  0  0  0
  -31.0456  -17.2639   20.9186 H   0  0  0  0  0  0
  -28.9095  -25.9965   21.8614 H   0  0  0  0  0  0
  -27.5418  -25.1984   21.1051 H   0  0  0  0  0  0
  -28.3299  -18.9473   19.6325 H   0  0  0  0  0  0
  -30.7243  -17.3854   18.6192 H   0  0  0  0  0  0
  -28.9502  -15.2327   21.1787 H   0  0  0  0  0  0
  1 25  1  0  0  0
  1 30  2  0  0  0
  1 86  1  0  0  0
  2  3  1  0  0  0
  2 25  1  0  0  0
  2 87  1  0  0  0
  2 88  1  0  0  0
  3  4  1  0  0  0
  3 89  1  0  0  0
  3 90  1  0  0  0
  4  5  1  0  0  0
  4 91  1  0  0  0
  4 92  1  0  0  0
  5  6  1  0  0  0
  5 26  1  0  0  0
  5 93  1  0  0  0
  6 25  1  0  0  0
  6 94  1  0  0  0
  6 95  1  0  0  0
  7  8  2  0  0  0
  7 26  1  0  0  0
  7 29  1  0  0  0
  8  9  1  0  0  0
  8 22  1  0  0  0
  9 10  1  0  0  0
  9 27  2  0  0  0
 10 11  2  0  0  0
 10 15  1  0  0  0
 11 12  1  0  0  0
 11 96  1  0  0  0
 12 13  2  0  0  0
 12 97  1  0  0  0
 13 14  1  0  0  0
 13 31  1  0  0  0
 14 15  2  0  0  0
 14 98  1  0  0  0
 15 99  1  0  0  0
 16 17  2  0  0  0
 16 21  1  0  0  0
 16 31  1  0  0  0
 17 18  1  0  0  0
 17100  1  0  0  0
 18 19  2  0  0  0
 18101  1  0  0  0
 19 20  1  0  0  0
 19 24  1  0  0  0
 20 21  2  0  0  0
 20102  1  0  0  0
 21 23  1  0  0  0
 22 28  1  0  0  0
 22 32  2  0  0  0
 26 27  1  0  0  0
 28103  1  0  0  0
 28104  1  0  0  0
 29105  1  0  0  0
 29106  1  0  0  0
 33 34  1  0  0  0
 33 66  1  0  0  0
 33 70  2  0  0  0
 34 36  1  0  0  0
 34 59  1  0  0  0
 34107  1  0  0  0
 35 44  2  0  0  0
 35 45  1  0  0  0
 35 68  1  0  0  0
 36 56  1  0  0  0
 36108  1  0  0  0
 37 39  1  0  0  0
 37 47  1  0  0  0
 37 66  1  0  0  0
 37109  1  0  0  0
 38 43  2  0  0  0
 38 46  1  0  0  0
 38 47  1  0  0  0
 39 64  1  0  0  0
 39 67  2  0  0  0
 40 52  1  0  0  0
 40 53  2  0  0  0
 40 58  1  0  0  0
 41110  1  0  0  0
 41111  1  0  0  0
 41112  1  0  0  0
 41 48  1  0  0  0
 42 43  1  0  0  0
 42 66  1  0  0  0
 42113  1  0  0  0
 42114  1  0  0  0
 43 44  1  0  0  0
 44115  1  0  0  0
 45 46  2  0  0  0
 45116  1  0  0  0
 46117  1  0  0  0
 47118  1  0  0  0
 47119  1  0  0  0
 48 56  1  0  0  0
 48 65  1  0  0  0
 48120  1  0  0  0
 49 50  1  0  0  0
 49 53  1  0  0  0
 49 64  1  0  0  0
 49121  1  0  0  0
 50 51  1  0  0  0
 50122  1  0  0  0
 50123  1  0  0  0
 51 52  1  0  0  0
 51124  1  0  0  0
 51125  1  0  0  0
 52126  1  0  0  0
 52127  1  0  0  0
 53 54  1  0  0  0
 54 55  2  0  0  0
 54128  1  0  0  0
 55 57  1  0  0  0
 55129  1  0  0  0
 56 69  2  0  0  0
 57 58  2  0  0  0
 57130  1  0  0  0
 58131  1  0  0  0
 59 60  1  0  0  0
 59 61  1  0  0  0
 59 62  1  0  0  0
 60132  1  0  0  0
 60133  1  0  0  0
 60134  1  0  0  0
 61135  1  0  0  0
 61136  1  0  0  0
 61137  1  0  0  0
 62138  1  0  0  0
 62139  1  0  0  0
 62140  1  0  0  0
 63 65  1  0  0  0
 63141  1  0  0  0
 63142  1  0  0  0
 63143  1  0  0  0
 64144  1  0  0  0
 65145  1  0  0  0
 68 82  1  0  0  0
 71 73  2  0  0  0
 71 74  1  0  0  0
 71146  1  0  0  0
 72 73  1  0  0  0
 72 75  2  0  0  0
 72147  1  0  0  0
 73 79  1  0  0  0
 74 76  1  0  0  0
 74 85  2  0  0  0
 75 83  1  0  0  0
 75 85  1  0  0  0
 76148  1  0  0  0
 76149  1  0  0  0
 76150  1  0  0  0
 77151  1  0  0  0
 77152  1  0  0  0
 77153  1  0  0  0
 77 83  1  0  0  0
 78154  1  0  0  0
 78155  1  0  0  0
 78156  1  0  0  0
 78 84  1  0  0  0
 79 80  1  0  0  0
 79157  1  0  0  0
 79158  1  0  0  0
 80 82  1  0  0  0
 80159  1  0  0  0
 80160  1  0  0  0
 81 84  1  0  0  0
 81 86  1  0  0  0
 81161  1  0  0  0
 81162  1  0  0  0
 82163  1  0  0  0
 82164  1  0  0  0
 83 84  1  0  0  0
 83165  1  0  0  0
 84166  1  0  0  0
 86167  1  0  0  0
M  ISO  4   1 100  68 101  82 101  86 100
M  END
> <chiral flag>
0

> <version>
0

> <s_m_source_file>
/data/baiqing/PycharmProjects/Reinvent-master-3.2/result/LINK_invent/BTK/process_docking_weight1_custom_sum_contain_oxygen_bond_distance_aromatic_linkinvent_7_9_3/rearranged_h_0088.sdf

> <i_m_source_file_index>
37

> <r_mmod_Potential_Energy-OPLS-2005>
-240.787399291992

> <r_mmod_Stretch_Energy-OPLS-2005>
37.2653160095215

> <r_mmod_Bend_Energy-OPLS-2005>
98.4203033447266

> <r_mmod_Torsional_Energy-OPLS-2005>
237.589126586914

> <r_mmod_Improper_Torsional_Energy-OPLS-2005>
7.93271923065186

> <r_mmod_Van_der_Waal_Energy-OPLS-2005>
150.4677734375

> <r_mmod_Electrostatic_Energy-OPLS-2005>
-567.664001464844

> <r_mmod_Solvation_Energy-OPLS-2005>
-218.1884765625

> <b_mmod_Minimization_Converged-OPLS-2005>
0

> <r_mmod_RMS_Derivative-OPLS-2005>
2.4476056098938

$$$$
37
                    3D
 Structure written by MMmdl.
160168  0  0  1  0            999 V2000
  -30.6811  -14.5104   20.5769 C   0  0  0  0  0  0
  -30.4231  -12.3365   19.4236 C   0  0  0  0  0  0
  -29.4929  -12.5062   18.2052 C   0  0  0  0  0  0
  -28.0173  -12.3553   18.6220 C   0  0  0  0  0  0
  -27.6544  -13.2075   19.8681 C   0  0  2  0  0  0
  -28.6939  -13.0102   20.9921 C   0  0  0  0  0  0
  -25.2556  -13.8165   20.5690 C   0  0  0  0  0  0
  -24.1810  -13.0427   20.9187 C   0  0  0  0  0  0
  -24.6372  -11.6898   20.8721 C   0  0  0  0  0  0
  -23.9036  -10.4287   21.0402 C   0  0  0  0  0  0
  -24.3595   -9.4208   21.9180 C   0  0  0  0  0  0
  -23.6284   -8.2232   22.0744 C   0  0  0  0  0  0
  -22.4271   -8.0264   21.3536 C   0  0  0  0  0  0
  -21.9900   -9.0230   20.4637 C   0  0  0  0  0  0
  -22.7210  -10.2124   20.3049 C   0  0  0  0  0  0
  -21.6841   -6.0720   22.5283 C   0  0  0  0  0  0
  -21.4004   -6.5627   23.8213 C   0  0  0  0  0  0
  -21.3671   -5.6786   24.9177 C   0  0  0  0  0  0
  -21.6048   -4.3051   24.7234 C   0  0  0  0  0  0
  -21.8812   -3.8136   23.4357 C   0  0  0  0  0  0
  -21.9193   -4.6947   22.3410 C   0  0  0  0  0  0
  -22.7835  -13.5226   21.1857 C   0  0  0  0  0  0
  -22.1660   -4.2124   21.0989 F   0  0  0  0  0  0
  -21.5644   -3.4540   25.7757 F   0  0  0  0  0  0
  -30.0210  -13.3261   20.4392 N   0  0  0  0  0  0
  -26.2966  -12.9317   20.3314 N   0  0  0  0  0  0
  -25.9286  -11.6473   20.5719 N   0  0  0  0  0  0
  -22.0478  -12.8217   22.0419 N   0  0  0  0  0  0
  -25.4297  -15.1874   20.4162 N   0  0  0  0  0  0
  -31.8113  -14.6931   20.1160 O   0  0  0  0  0  0
  -21.6633   -6.8863   21.4242 O   0  0  0  0  0  0
  -22.3527  -14.5535   20.6728 O   0  0  0  0  0  0
  -24.6178  -31.8634   23.2065 C   0  0  0  0  0  0
  -25.9056  -32.4805   23.8368 C   0  0  1  0  0  0
  -27.2352  -27.3892   20.1106 C   0  0  0  0  0  0
  -25.5869  -33.8597   24.2301 N   0  0  0  0  0  0
  -23.4092  -30.4874   21.5451 C   0  0  2  0  0  0
  -24.8539  -28.9427   20.1175 C   0  0  0  0  0  0
  -22.7411  -29.4673   22.4959 C   0  0  0  0  0  0
  -18.0293  -28.1327   22.8427 C   0  0  0  0  0  0
  -24.1480  -36.7320   23.2645 C   0  0  0  0  0  0
  -25.9395  -30.8163   21.3635 C   0  0  0  0  0  0
  -26.0156  -29.4450   20.7157 C   0  0  0  0  0  0
  -27.2067  -28.6773   20.7043 C   0  0  0  0  0  0
  -26.0500  -26.9138   19.5017 C   0  0  0  0  0  0
  -24.8686  -27.6799   19.5037 C   0  0  0  0  0  0
  -23.6207  -29.8162   20.1613 C   0  0  0  0  0  0
  -25.4095  -36.3111   24.0348 C   0  0  1  0  0  0
  -20.5888  -28.3635   23.1292 C   0  0  2  0  0  0
  -20.6814  -26.9377   22.5357 C   0  0  0  0  0  0
  -19.5758  -26.6344   21.5162 C   0  0  0  0  0  0
  -18.1904  -26.7899   22.1490 C   0  0  0  0  0  0
  -19.1531  -28.8771   23.2900 C   0  0  0  0  0  0
  -18.9442  -30.1348   23.8966 C   0  0  0  0  0  0
  -17.6446  -30.6482   24.0601 C   0  0  0  0  0  0
  -25.9020  -34.9472   23.5127 C   0  0  0  0  0  0
  -16.5347  -29.9023   23.6282 C   0  0  0  0  0  0
  -16.7276  -28.6465   23.0258 C   0  0  0  0  0  0
  -26.4457  -31.6594   25.0708 C   0  0  0  0  0  0
  -25.3717  -31.3675   26.1444 C   0  0  0  0  0  0
  -27.0300  -30.3053   24.6069 C   0  0  0  0  0  0
  -27.6021  -32.4317   25.7470 C   0  0  0  0  0  0
  -27.5579  -37.1817   24.8471 C   0  0  0  0  0  0
  -21.4130  -29.3023   22.3679 N   0  0  0  0  0  0
  -26.4292  -37.3792   23.9413 N   0  0  0  0  0  0
  -24.6744  -31.0713   22.0982 N   0  0  0  0  0  0
  -23.4151  -28.8245   23.3055 O   0  0  0  0  0  0
  -28.4223  -26.6675   20.1196 O   0  0  0  0  0  0
  -26.5593  -34.8935   22.4698 O   0  0  0  0  0  0
  -23.5354  -32.1380   23.7430 O   0  0  0  0  0  0
  -29.1174  -21.9730   21.3524 C   0  0  0  0  0  0
  -28.0867  -22.9582   21.3091 C   0  0  0  0  0  0
  -28.7642  -20.5934   21.3487 C   0  0  0  0  0  0
  -26.7634  -22.4472   21.2604 C   0  0  0  0  0  0
  -25.5426  -23.3499   21.2606 C   0  0  0  0  0  0
  -29.5713  -24.8333   22.2689 C   0  0  0  0  0  0
  -29.8138  -19.4711   21.5065 C   0  0  0  0  0  0
  -29.3846  -18.0197   21.0912 C   0  0  0  0  0  0
  -30.4553  -16.9133   21.3535 C   0  0  0  0  0  0
  -28.4331  -25.2175   20.0151 C   0  0  0  0  0  0
  -28.3513  -24.4909   21.3922 C   0  0  1  0  0  0
  -27.4650  -20.2085   21.3155 N   0  0  0  0  0  0
  -26.4872  -21.1183   21.2574 N   0  0  0  0  0  0
  -29.9814  -15.5263   21.1314 N   0  0  0  0  0  0
  -31.4636  -12.4501   19.1138 H   0  0  0  0  0  0
  -30.3440  -11.3272   19.8307 H   0  0  0  0  0  0
  -29.7452  -11.7750   17.4354 H   0  0  0  0  0  0
  -29.6437  -13.4876   17.7553 H   0  0  0  0  0  0
  -27.8429  -11.3002   18.8344 H   0  0  0  0  0  0
  -27.3615  -12.6079   17.7877 H   0  0  0  0  0  0
  -27.6903  -14.2513   19.5567 H   0  0  0  0  0  0
  -28.6759  -11.9788   21.3460 H   0  0  0  0  0  0
  -28.4443  -13.6214   21.8591 H   0  0  0  0  0  0
  -25.2745   -9.5682   22.4743 H   0  0  0  0  0  0
  -23.9999   -7.4621   22.7462 H   0  0  0  0  0  0
  -21.0828   -8.8737   19.8943 H   0  0  0  0  0  0
  -22.3665  -10.9649   19.6152 H   0  0  0  0  0  0
  -21.1974   -7.6132   23.9702 H   0  0  0  0  0  0
  -21.1512   -6.0525   25.9082 H   0  0  0  0  0  0
  -22.0585   -2.7591   23.2867 H   0  0  0  0  0  0
  -22.4111  -11.9894   22.4832 H   0  0  0  0  0  0
  -21.1079  -13.1203   22.2590 H   0  0  0  0  0  0
  -24.6685  -15.8466   20.5390 H   0  0  0  0  0  0
  -26.2901  -15.6286   20.1144 H   0  0  0  0  0  0
  -26.7129  -32.5495   23.1125 H   0  0  0  0  0  0
  -25.0055  -33.9742   25.0470 H   0  0  0  0  0  0
  -22.7032  -31.3082   21.3996 H   0  0  0  0  0  0
  -23.3744  -35.9658   23.3312 H   0  0  0  0  0  0
  -24.3604  -36.8912   22.2067 H   0  0  0  0  0  0
  -23.7242  -37.6530   23.6649 H   0  0  0  0  0  0
  -26.0457  -31.5723   20.5851 H   0  0  0  0  0  0
  -26.8313  -30.8751   21.9780 H   0  0  0  0  0  0
  -28.1058  -29.0633   21.1630 H   0  0  0  0  0  0
  -26.0053  -25.9606   19.0022 H   0  0  0  0  0  0
  -23.9764  -27.2913   19.0314 H   0  0  0  0  0  0
  -23.7436  -30.5866   19.3985 H   0  0  0  0  0  0
  -22.7431  -29.2422   19.8587 H   0  0  0  0  0  0
  -25.1276  -36.1980   25.0848 H   0  0  0  0  0  0
  -21.0024  -28.3225   24.1406 H   0  0  0  0  0  0
  -20.5857  -26.2213   23.3525 H   0  0  0  0  0  0
  -21.6664  -26.7545   22.1038 H   0  0  0  0  0  0
  -19.6916  -25.6244   21.1178 H   0  0  0  0  0  0
  -19.6746  -27.3139   20.6699 H   0  0  0  0  0  0
  -17.4206  -26.6719   21.3843 H   0  0  0  0  0  0
  -18.0179  -25.9962   22.8798 H   0  0  0  0  0  0
  -19.7894  -30.7144   24.2406 H   0  0  0  0  0  0
  -17.4979  -31.6128   24.5268 H   0  0  0  0  0  0
  -15.5360  -30.2933   23.7580 H   0  0  0  0  0  0
  -15.8693  -28.0781   22.6928 H   0  0  0  0  0  0
  -24.5896  -30.7015   25.7770 H   0  0  0  0  0  0
  -24.8898  -32.2823   26.4908 H   0  0  0  0  0  0
  -25.8068  -30.8834   27.0199 H   0  0  0  0  0  0
  -26.2847  -29.6822   24.1106 H   0  0  0  0  0  0
  -27.4075  -29.7264   25.4507 H   0  0  0  0  0  0
  -27.8677  -30.4401   23.9224 H   0  0  0  0  0  0
  -27.2632  -33.3595   26.2089 H   0  0  0  0  0  0
  -28.3811  -32.6903   25.0289 H   0  0  0  0  0  0
  -28.0723  -31.8422   26.5344 H   0  0  0  0  0  0
  -28.2601  -38.0102   24.7504 H   0  0  0  0  0  0
  -28.1054  -36.2633   24.6301 H   0  0  0  0  0  0
  -27.2307  -37.1495   25.8876 H   0  0  0  0  0  0
  -20.9316  -29.8550   21.6730 H   0  0  0  0  0  0
  -26.0174  -38.2873   24.1402 H   0  0  0  0  0  0
  -30.1590  -22.2510   21.4297 H   0  0  0  0  0  0
  -25.4370  -23.8366   22.2313 H   0  0  0  0  0  0
  -24.6260  -22.7922   21.0659 H   0  0  0  0  0  0
  -25.6222  -24.1212   20.4973 H   0  0  0  0  0  0
  -29.4491  -24.4513   23.2828 H   0  0  0  0  0  0
  -29.6974  -25.9141   22.3511 H   0  0  0  0  0  0
  -30.4972  -24.4295   21.8585 H   0  0  0  0  0  0
  -30.1271  -19.4681   22.5511 H   0  0  0  0  0  0
  -30.6925  -19.7578   20.9272 H   0  0  0  0  0  0
  -29.1149  -18.0154   20.0349 H   0  0  0  0  0  0
  -28.4831  -17.7559   21.6428 H   0  0  0  0  0  0
  -30.7894  -16.9786   22.3890 H   0  0  0  0  0  0
  -31.3353  -17.1154   20.7407 H   0  0  0  0  0  0
  -27.6701  -24.8384   19.3429 H   0  0  0  0  0  0
  -29.3707  -24.9314   19.5369 H   0  0  0  0  0  0
  -27.4986  -24.9282   21.9101 H   0  0  0  0  0  0
  -29.0527  -15.2980   21.4566 H   0  0  0  0  0  0
  1 25  1  0  0  0
  1 30  2  0  0  0
  1 84  1  0  0  0
  2  3  1  0  0  0
  2 25  1  0  0  0
  2 85  1  0  0  0
  2 86  1  0  0  0
  3  4  1  0  0  0
  3 87  1  0  0  0
  3 88  1  0  0  0
  4  5  1  0  0  0
  4 89  1  0  0  0
  4 90  1  0  0  0
  5  6  1  0  0  0
  5 26  1  0  0  0
  5 91  1  0  0  0
  6 25  1  0  0  0
  6 92  1  0  0  0
  6 93  1  0  0  0
  7  8  2  0  0  0
  7 26  1  0  0  0
  7 29  1  0  0  0
  8  9  1  0  0  0
  8 22  1  0  0  0
  9 10  1  0  0  0
  9 27  2  0  0  0
 10 11  2  0  0  0
 10 15  1  0  0  0
 11 12  1  0  0  0
 11 94  1  0  0  0
 12 13  2  0  0  0
 12 95  1  0  0  0
 13 14  1  0  0  0
 13 31  1  0  0  0
 14 15  2  0  0  0
 14 96  1  0  0  0
 15 97  1  0  0  0
 16 17  2  0  0  0
 16 21  1  0  0  0
 16 31  1  0  0  0
 17 18  1  0  0  0
 17 98  1  0  0  0
 18 19  2  0  0  0
 18 99  1  0  0  0
 19 20  1  0  0  0
 19 24  1  0  0  0
 20 21  2  0  0  0
 20100  1  0  0  0
 21 23  1  0  0  0
 22 28  1  0  0  0
 22 32  2  0  0  0
 26 27  1  0  0  0
 28101  1  0  0  0
 28102  1  0  0  0
 29103  1  0  0  0
 29104  1  0  0  0
 33 34  1  0  0  0
 33 66  1  0  0  0
 33 70  2  0  0  0
 34 36  1  0  0  0
 34 59  1  0  0  0
 34105  1  0  0  0
 35 44  2  0  0  0
 35 45  1  0  0  0
 35 68  1  0  0  0
 36 56  1  0  0  0
 36106  1  0  0  0
 37 39  1  0  0  0
 37 47  1  0  0  0
 37 66  1  0  0  0
 37107  1  0  0  0
 38 43  2  0  0  0
 38 46  1  0  0  0
 38 47  1  0  0  0
 39 64  1  0  0  0
 39 67  2  0  0  0
 40 52  1  0  0  0
 40 53  2  0  0  0
 40 58  1  0  0  0
 41108  1  0  0  0
 41109  1  0  0  0
 41110  1  0  0  0
 41 48  1  0  0  0
 42 43  1  0  0  0
 42 66  1  0  0  0
 42111  1  0  0  0
 42112  1  0  0  0
 43 44  1  0  0  0
 44113  1  0  0  0
 45 46  2  0  0  0
 45114  1  0  0  0
 46115  1  0  0  0
 47116  1  0  0  0
 47117  1  0  0  0
 48 56  1  0  0  0
 48 65  1  0  0  0
 48118  1  0  0  0
 49 50  1  0  0  0
 49 53  1  0  0  0
 49 64  1  0  0  0
 49119  1  0  0  0
 50 51  1  0  0  0
 50120  1  0  0  0
 50121  1  0  0  0
 51 52  1  0  0  0
 51122  1  0  0  0
 51123  1  0  0  0
 52124  1  0  0  0
 52125  1  0  0  0
 53 54  1  0  0  0
 54 55  2  0  0  0
 54126  1  0  0  0
 55 57  1  0  0  0
 55127  1  0  0  0
 56 69  2  0  0  0
 57 58  2  0  0  0
 57128  1  0  0  0
 58129  1  0  0  0
 59 60  1  0  0  0
 59 61  1  0  0  0
 59 62  1  0  0  0
 60130  1  0  0  0
 60131  1  0  0  0
 60132  1  0  0  0
 61133  1  0  0  0
 61134  1  0  0  0
 61135  1  0  0  0
 62136  1  0  0  0
 62137  1  0  0  0
 62138  1  0  0  0
 63 65  1  0  0  0
 63139  1  0  0  0
 63140  1  0  0  0
 63141  1  0  0  0
 64142  1  0  0  0
 65143  1  0  0  0
 68 80  1  0  0  0
 71 72  2  0  0  0
 71 73  1  0  0  0
 71144  1  0  0  0
 72 74  1  0  0  0
 72 81  1  0  0  0
 73 77  1  0  0  0
 73 82  2  0  0  0
 74 75  1  0  0  0
 74 83  2  0  0  0
 75145  1  0  0  0
 75146  1  0  0  0
 75147  1  0  0  0
 76148  1  0  0  0
 76149  1  0  0  0
 76150  1  0  0  0
 76 81  1  0  0  0
 77 78  1  0  0  0
 77151  1  0  0  0
 77152  1  0  0  0
 78 79  1  0  0  0
 78153  1  0  0  0
 78154  1  0  0  0
 79 84  1  0  0  0
 79155  1  0  0  0
 79156  1  0  0  0
 80 81  1  0  0  0
 80157  1  0  0  0
 80158  1  0  0  0
 81159  1  0  0  0
 82 83  1  0  0  0
 84160  1  0  0  0
M  ISO  4   1 100  68 101  80 101  84 100
M  END
> <chiral flag>
0

> <version>
0

> <s_m_source_file>
/data/baiqing/PycharmProjects/Reinvent-master-3.2/result/LINK_invent/BTK/process_docking_weight1_custom_sum_contain_oxygen_bond_distance_aromatic_linkinvent_7_9_3/rearranged_h_0088.sdf

> <i_m_source_file_index>
38

> <r_mmod_Potential_Energy-OPLS-2005>
-81.1315689086914

> <r_mmod_Stretch_Energy-OPLS-2005>
50.4454002380371

> <r_mmod_Bend_Energy-OPLS-2005>
113.561805725098

> <r_mmod_Torsional_Energy-OPLS-2005>
197.962509155273

> <r_mmod_Improper_Torsional_Energy-OPLS-2005>
3.32986950874329

> <r_mmod_Van_der_Waal_Energy-OPLS-2005>
151.595184326172

> <r_mmod_Electrostatic_Energy-OPLS-2005>
-389.197082519531

> <r_mmod_Solvation_Energy-OPLS-2005>
-227.139450073242

> <b_mmod_Minimization_Converged-OPLS-2005>
0

> <r_mmod_RMS_Derivative-OPLS-2005>
3.44324350357056

$$$$
38
                    3D
 Structure written by MMmdl.
170178  0  0  1  0            999 V2000
  -30.5400  -14.9762   20.4195 C   0  0  0  0  0  0
  -30.4384  -12.6123   19.4887 C   0  0  0  0  0  0
  -29.5171  -12.5277   18.2506 C   0  0  0  0  0  0
  -28.0535  -12.3070   18.6763 C   0  0  0  0  0  0
  -27.6249  -13.2495   19.8313 C   0  0  2  0  0  0
  -28.6697  -13.2996   20.9645 C   0  0  0  0  0  0
  -25.2447  -13.8216   20.5712 C   0  0  0  0  0  0
  -24.1771  -13.0438   20.9240 C   0  0  0  0  0  0
  -24.6393  -11.6926   20.8765 C   0  0  0  0  0  0
  -23.9080  -10.4294   21.0414 C   0  0  0  0  0  0
  -24.3629   -9.4205   21.9189 C   0  0  0  0  0  0
  -23.6298   -8.2243   22.0755 C   0  0  0  0  0  0
  -22.4279   -8.0285   21.3547 C   0  0  0  0  0  0
  -21.9921   -9.0260   20.4647 C   0  0  0  0  0  0
  -22.7254  -10.2137   20.3059 C   0  0  0  0  0  0
  -21.6854   -6.0738   22.5280 C   0  0  0  0  0  0
  -21.4015   -6.5641   23.8213 C   0  0  0  0  0  0
  -21.3658   -5.6794   24.9175 C   0  0  0  0  0  0
  -21.6046   -4.3056   24.7226 C   0  0  0  0  0  0
  -21.8818   -3.8148   23.4345 C   0  0  0  0  0  0
  -21.9192   -4.6966   22.3401 C   0  0  0  0  0  0
  -22.7791  -13.5207   21.1893 C   0  0  0  0  0  0
  -22.1661   -4.2151   21.0979 F   0  0  0  0  0  0
  -21.5628   -3.4539   25.7737 F   0  0  0  0  0  0
  -29.9356  -13.7204   20.3518 N   0  0  0  0  0  0
  -26.2867  -12.9451   20.3229 N   0  0  0  0  0  0
  -25.9323  -11.6582   20.5740 N   0  0  0  0  0  0
  -22.0444  -12.8191   22.0447 N   0  0  0  0  0  0
  -25.4097  -15.1944   20.4119 N   0  0  0  0  0  0
  -31.7566  -15.0174   20.2093 O   0  0  0  0  0  0
  -21.6642   -6.8882   21.4242 O   0  0  0  0  0  0
  -22.3473  -14.5511   20.6735 O   0  0  0  0  0  0
  -24.6454  -31.8417   23.1868 C   0  0  0  0  0  0
  -25.9216  -32.4681   23.8265 C   0  0  1  0  0  0
  -27.2103  -27.1048   20.1602 C   0  0  0  0  0  0
  -25.5948  -33.8488   24.2176 N   0  0  0  0  0  0
  -23.4510  -30.4607   21.5333 C   0  0  2  0  0  0
  -24.9001  -28.8823   20.1129 C   0  0  0  0  0  0
  -22.7582  -29.4530   22.4854 C   0  0  0  0  0  0
  -18.0311  -28.1393   22.8472 C   0  0  0  0  0  0
  -24.1495  -36.7255   23.2644 C   0  0  0  0  0  0
  -26.0094  -30.7047   21.3920 C   0  0  0  0  0  0
  -26.0794  -29.3124   20.7358 C   0  0  0  0  0  0
  -27.2368  -28.4408   20.7405 C   0  0  0  0  0  0
  -26.0103  -26.7914   19.4856 C   0  0  0  0  0  0
  -24.8801  -27.6362   19.4708 C   0  0  0  0  0  0
  -23.6794  -29.7890   20.1537 C   0  0  0  0  0  0
  -25.4127  -36.3025   24.0311 C   0  0  1  0  0  0
  -20.5923  -28.3721   23.1228 C   0  0  2  0  0  0
  -20.6798  -26.9421   22.5404 C   0  0  0  0  0  0
  -19.5771  -26.6377   21.5212 C   0  0  0  0  0  0
  -18.1953  -26.7930   22.1621 C   0  0  0  0  0  0
  -19.1566  -28.8876   23.2842 C   0  0  0  0  0  0
  -18.9481  -30.1472   23.8869 C   0  0  0  0  0  0
  -17.6478  -30.6591   24.0552 C   0  0  0  0  0  0
  -25.9076  -34.9397   23.5057 C   0  0  0  0  0  0
  -16.5368  -29.9081   23.6333 C   0  0  0  0  0  0
  -16.7295  -28.6498   23.0354 C   0  0  0  0  0  0
  -26.4523  -31.6559   25.0720 C   0  0  0  0  0  0
  -25.3692  -31.3749   26.1404 C   0  0  0  0  0  0
  -27.0402  -30.2951   24.6332 C   0  0  0  0  0  0
  -27.6052  -32.4333   25.7505 C   0  0  0  0  0  0
  -27.5580  -37.1782   24.8461 C   0  0  0  0  0  0
  -21.4271  -29.3045   22.3598 N   0  0  0  0  0  0
  -26.4289  -37.3739   23.9405 N   0  0  0  0  0  0
  -24.7222  -31.0240   22.0923 N   0  0  0  0  0  0
  -23.4209  -28.8082   23.3018 O   0  0  0  0  0  0
  -28.2485  -26.0940   20.1928 O   0  0  0  0  0  0
  -26.5673  -34.8897   22.4645 O   0  0  0  0  0  0
  -23.5565  -32.1314   23.7061 O   0  0  0  0  0  0
  -26.9630  -21.9019   21.5749 C   0  0  0  0  0  0
  -27.6717  -19.2932   21.5360 C   0  0  0  0  0  0
  -28.1460  -21.6442   20.8311 C   0  0  0  0  0  0
  -28.5350  -20.1558   20.8218 C   0  0  0  0  0  0
  -26.2044  -20.9178   22.2292 C   0  0  0  0  0  0
  -28.6859  -22.9475   18.6478 C   0  0  0  0  0  0
  -30.9405  -20.0458   19.9544 C   0  0  0  0  0  0
  -23.7317  -20.4332   22.3609 C   0  0  0  0  0  0
  -24.5061  -22.7152   22.9643 C   0  0  0  0  0  0
  -25.0565  -20.8153   24.4749 C   0  0  0  0  0  0
  -30.1997  -17.6882   20.8063 C   0  0  0  0  0  0
  -27.9264  -24.5908   20.5275 C   0  0  0  0  0  0
  -28.6893  -23.0817   20.1761 C   0  0  1  0  0  0
  -29.6768  -19.1905   20.1441 C   0  0  1  0  0  0
  -24.8972  -21.2200   22.9955 C   0  0  0  0  0  0
  -26.5699  -19.6333   22.2099 N   0  0  0  0  0  0
  -29.7784  -16.1828   20.5255 N   0  0  0  0  0  0
  -31.4686  -12.7789   19.1705 H   0  0  0  0  0  0
  -30.4440  -11.6684   20.0362 H   0  0  0  0  0  0
  -29.8411  -11.7226   17.5898 H   0  0  0  0  0  0
  -29.5949  -13.4498   17.6724 H   0  0  0  0  0  0
  -27.9599  -11.2688   18.9974 H   0  0  0  0  0  0
  -27.3859  -12.4220   17.8216 H   0  0  0  0  0  0
  -27.5804  -14.2459   19.3907 H   0  0  0  0  0  0
  -28.7692  -12.3303   21.4552 H   0  0  0  0  0  0
  -28.3663  -14.0095   21.7356 H   0  0  0  0  0  0
  -25.2771   -9.5680   22.4767 H   0  0  0  0  0  0
  -24.0006   -7.4633   22.7476 H   0  0  0  0  0  0
  -21.0851   -8.8783   19.8952 H   0  0  0  0  0  0
  -22.3715  -10.9678   19.6171 H   0  0  0  0  0  0
  -21.2010   -7.6151   23.9717 H   0  0  0  0  0  0
  -21.1480   -6.0523   25.9077 H   0  0  0  0  0  0
  -22.0598   -2.7611   23.2845 H   0  0  0  0  0  0
  -22.4072  -11.9858   22.4832 H   0  0  0  0  0  0
  -21.1058  -13.1204   22.2651 H   0  0  0  0  0  0
  -24.6384  -15.8427   20.5274 H   0  0  0  0  0  0
  -26.2455  -15.6364   20.0535 H   0  0  0  0  0  0
  -26.7282  -32.5278   23.0990 H   0  0  0  0  0  0
  -25.0041  -33.9597   25.0286 H   0  0  0  0  0  0
  -22.7545  -31.2871   21.3767 H   0  0  0  0  0  0
  -23.3759  -35.9585   23.3285 H   0  0  0  0  0  0
  -24.3580  -36.8916   22.2064 H   0  0  0  0  0  0
  -23.7250  -37.6443   23.6700 H   0  0  0  0  0  0
  -26.1686  -31.4564   20.6179 H   0  0  0  0  0  0
  -26.8782  -30.7560   22.0365 H   0  0  0  0  0  0
  -28.1357  -28.7649   21.2461 H   0  0  0  0  0  0
  -25.9211  -25.8502   18.9640 H   0  0  0  0  0  0
  -23.9848  -27.3067   18.9617 H   0  0  0  0  0  0
  -23.8188  -30.5625   19.3977 H   0  0  0  0  0  0
  -22.7929  -29.2336   19.8424 H   0  0  0  0  0  0
  -25.1315  -36.1850   25.0802 H   0  0  0  0  0  0
  -21.0010  -28.3318   24.1351 H   0  0  0  0  0  0
  -20.5694  -26.2334   23.3625 H   0  0  0  0  0  0
  -21.6664  -26.7427   22.1202 H   0  0  0  0  0  0
  -19.6933  -25.6280   21.1265 H   0  0  0  0  0  0
  -19.6711  -27.3166   20.6724 H   0  0  0  0  0  0
  -17.4223  -26.6669   21.4026 H   0  0  0  0  0  0
  -18.0349  -26.0080   22.9023 H   0  0  0  0  0  0
  -19.7956  -30.7293   24.2228 H   0  0  0  0  0  0
  -17.5030  -31.6266   24.5163 H   0  0  0  0  0  0
  -15.5364  -30.2971   23.7681 H   0  0  0  0  0  0
  -15.8694  -28.0810   22.7083 H   0  0  0  0  0  0
  -24.5885  -30.7086   25.7713 H   0  0  0  0  0  0
  -24.8858  -32.2924   26.4763 H   0  0  0  0  0  0
  -25.7960  -30.8960   27.0225 H   0  0  0  0  0  0
  -26.3033  -29.6655   24.1331 H   0  0  0  0  0  0
  -27.3991  -29.7271   25.4924 H   0  0  0  0  0  0
  -27.8948  -30.4180   23.9678 H   0  0  0  0  0  0
  -27.2650  -33.3661   26.2010 H   0  0  0  0  0  0
  -28.3895  -32.6849   25.0353 H   0  0  0  0  0  0
  -28.0682  -31.8504   26.5475 H   0  0  0  0  0  0
  -28.2575  -38.0100   24.7520 H   0  0  0  0  0  0
  -28.1101  -36.2626   24.6275 H   0  0  0  0  0  0
  -27.2294  -37.1409   25.8863 H   0  0  0  0  0  0
  -20.9490  -29.8751   21.6766 H   0  0  0  0  0  0
  -26.0153  -38.2807   24.1410 H   0  0  0  0  0  0
  -26.5843  -22.9002   21.6477 H   0  0  0  0  0  0
  -27.8464  -18.2288   21.5577 H   0  0  0  0  0  0
  -29.2379  -22.0748   18.3067 H   0  0  0  0  0  0
  -29.1305  -23.8253   18.1791 H   0  0  0  0  0  0
  -27.6665  -22.8518   18.2738 H   0  0  0  0  0  0
  -30.7404  -20.9611   19.4046 H   0  0  0  0  0  0
  -31.7066  -19.5094   19.3931 H   0  0  0  0  0  0
  -31.3702  -20.3281   20.9161 H   0  0  0  0  0  0
  -23.6064  -20.6969   21.3106 H   0  0  0  0  0  0
  -22.7879  -20.6357   22.8678 H   0  0  0  0  0  0
  -23.8982  -19.3566   22.4088 H   0  0  0  0  0  0
  -24.3440  -23.0669   21.9447 H   0  0  0  0  0  0
  -25.2721  -23.3420   23.4221 H   0  0  0  0  0  0
  -23.5807  -22.8947   23.5121 H   0  0  0  0  0  0
  -25.2644  -19.7500   24.5797 H   0  0  0  0  0  0
  -24.1527  -21.0253   25.0475 H   0  0  0  0  0  0
  -25.8788  -21.3561   24.9438 H   0  0  0  0  0  0
  -30.1954  -17.8013   21.8911 H   0  0  0  0  0  0
  -31.2659  -17.6417   20.5817 H   0  0  0  0  0  0
  -27.8871  -24.6289   21.6162 H   0  0  0  0  0  0
  -26.8945  -24.4414   20.2206 H   0  0  0  0  0  0
  -29.7261  -23.1705   20.5018 H   0  0  0  0  0  0
  -29.3040  -18.9663   19.1438 H   0  0  0  0  0  0
  -28.7838  -16.0199   20.5646 H   0  0  0  0  0  0
  1 25  1  0  0  0
  1 30  2  0  0  0
  1 87  1  0  0  0
  2  3  1  0  0  0
  2 25  1  0  0  0
  2 88  1  0  0  0
  2 89  1  0  0  0
  3  4  1  0  0  0
  3 90  1  0  0  0
  3 91  1  0  0  0
  4  5  1  0  0  0
  4 92  1  0  0  0
  4 93  1  0  0  0
  5  6  1  0  0  0
  5 26  1  0  0  0
  5 94  1  0  0  0
  6 25  1  0  0  0
  6 95  1  0  0  0
  6 96  1  0  0  0
  7  8  2  0  0  0
  7 26  1  0  0  0
  7 29  1  0  0  0
  8  9  1  0  0  0
  8 22  1  0  0  0
  9 10  1  0  0  0
  9 27  2  0  0  0
 10 11  2  0  0  0
 10 15  1  0  0  0
 11 12  1  0  0  0
 11 97  1  0  0  0
 12 13  2  0  0  0
 12 98  1  0  0  0
 13 14  1  0  0  0
 13 31  1  0  0  0
 14 15  2  0  0  0
 14 99  1  0  0  0
 15100  1  0  0  0
 16 17  2  0  0  0
 16 21  1  0  0  0
 16 31  1  0  0  0
 17 18  1  0  0  0
 17101  1  0  0  0
 18 19  2  0  0  0
 18102  1  0  0  0
 19 20  1  0  0  0
 19 24  1  0  0  0
 20 21  2  0  0  0
 20103  1  0  0  0
 21 23  1  0  0  0
 22 28  1  0  0  0
 22 32  2  0  0  0
 26 27  1  0  0  0
 28104  1  0  0  0
 28105  1  0  0  0
 29106  1  0  0  0
 29107  1  0  0  0
 33 34  1  0  0  0
 33 66  1  0  0  0
 33 70  2  0  0  0
 34 36  1  0  0  0
 34 59  1  0  0  0
 34108  1  0  0  0
 35 44  2  0  0  0
 35 45  1  0  0  0
 35 68  1  0  0  0
 36 56  1  0  0  0
 36109  1  0  0  0
 37 39  1  0  0  0
 37 47  1  0  0  0
 37 66  1  0  0  0
 37110  1  0  0  0
 38 43  2  0  0  0
 38 46  1  0  0  0
 38 47  1  0  0  0
 39 64  1  0  0  0
 39 67  2  0  0  0
 40 52  1  0  0  0
 40 53  2  0  0  0
 40 58  1  0  0  0
 41111  1  0  0  0
 41112  1  0  0  0
 41113  1  0  0  0
 41 48  1  0  0  0
 42 43  1  0  0  0
 42 66  1  0  0  0
 42114  1  0  0  0
 42115  1  0  0  0
 43 44  1  0  0  0
 44116  1  0  0  0
 45 46  2  0  0  0
 45117  1  0  0  0
 46118  1  0  0  0
 47119  1  0  0  0
 47120  1  0  0  0
 48 56  1  0  0  0
 48 65  1  0  0  0
 48121  1  0  0  0
 49 50  1  0  0  0
 49 53  1  0  0  0
 49 64  1  0  0  0
 49122  1  0  0  0
 50 51  1  0  0  0
 50123  1  0  0  0
 50124  1  0  0  0
 51 52  1  0  0  0
 51125  1  0  0  0
 51126  1  0  0  0
 52127  1  0  0  0
 52128  1  0  0  0
 53 54  1  0  0  0
 54 55  2  0  0  0
 54129  1  0  0  0
 55 57  1  0  0  0
 55130  1  0  0  0
 56 69  2  0  0  0
 57 58  2  0  0  0
 57131  1  0  0  0
 58132  1  0  0  0
 59 60  1  0  0  0
 59 61  1  0  0  0
 59 62  1  0  0  0
 60133  1  0  0  0
 60134  1  0  0  0
 60135  1  0  0  0
 61136  1  0  0  0
 61137  1  0  0  0
 61138  1  0  0  0
 62139  1  0  0  0
 62140  1  0  0  0
 62141  1  0  0  0
 63 65  1  0  0  0
 63142  1  0  0  0
 63143  1  0  0  0
 63144  1  0  0  0
 64145  1  0  0  0
 65146  1  0  0  0
 68 82  1  0  0  0
 71 73  2  0  0  0
 71 75  1  0  0  0
 71147  1  0  0  0
 72 74  2  0  0  0
 72 86  1  0  0  0
 72148  1  0  0  0
 73 74  1  0  0  0
 73 83  1  0  0  0
 74 84  1  0  0  0
 75 85  1  0  0  0
 75 86  2  0  0  0
 76149  1  0  0  0
 76150  1  0  0  0
 76151  1  0  0  0
 76 83  1  0  0  0
 77152  1  0  0  0
 77153  1  0  0  0
 77154  1  0  0  0
 77 84  1  0  0  0
 78155  1  0  0  0
 78156  1  0  0  0
 78157  1  0  0  0
 78 85  1  0  0  0
 79 85  1  0  0  0
 79158  1  0  0  0
 79159  1  0  0  0
 79160  1  0  0  0
 80 85  1  0  0  0
 80161  1  0  0  0
 80162  1  0  0  0
 80163  1  0  0  0
 81 84  1  0  0  0
 81 87  1  0  0  0
 81164  1  0  0  0
 81165  1  0  0  0
 82 83  1  0  0  0
 82166  1  0  0  0
 82167  1  0  0  0
 83168  1  0  0  0
 84169  1  0  0  0
 87170  1  0  0  0
M  ISO  4   1 100  68 101  82 101  87 100
M  END
> <chiral flag>
0

> <version>
0

> <s_m_source_file>
/data/baiqing/PycharmProjects/Reinvent-master-3.2/result/LINK_invent/BTK/process_docking_weight1_custom_sum_contain_oxygen_bond_distance_aromatic_linkinvent_7_9_3/rearranged_h_0088.sdf

> <i_m_source_file_index>
39

> <r_mmod_Potential_Energy-OPLS-2005>
493.957611083984

> <r_mmod_Stretch_Energy-OPLS-2005>
332.252685546875

> <r_mmod_Bend_Energy-OPLS-2005>
373.623229980469

> <r_mmod_Torsional_Energy-OPLS-2005>
228.371063232422

> <r_mmod_Improper_Torsional_Energy-OPLS-2005>
4.32817459106445

> <r_mmod_Van_der_Waal_Energy-OPLS-2005>
150.59635925293

> <r_mmod_Electrostatic_Energy-OPLS-2005>
-605.224975585938

> <r_mmod_Solvation_Energy-OPLS-2005>
-208.291778564453

> <b_mmod_Minimization_Converged-OPLS-2005>
0

> <r_mmod_RMS_Derivative-OPLS-2005>
0.552628099918365

$$$$
39
                    3D
 Structure written by MMmdl.
169177  0  0  1  0            999 V2000
  -30.5104  -14.9901   20.4370 C   0  0  0  0  0  0
  -30.4501  -12.6237   19.4730 C   0  0  0  0  0  0
  -29.5193  -12.5216   18.2420 C   0  0  0  0  0  0
  -28.0561  -12.2966   18.6712 C   0  0  0  0  0  0
  -27.6260  -13.2415   19.8237 C   0  0  2  0  0  0
  -28.6740  -13.2828   20.9544 C   0  0  0  0  0  0
  -25.2480  -13.8179   20.5705 C   0  0  0  0  0  0
  -24.1801  -13.0426   20.9212 C   0  0  0  0  0  0
  -24.6399  -11.6905   20.8765 C   0  0  0  0  0  0
  -23.9072  -10.4285   21.0413 C   0  0  0  0  0  0
  -24.3625   -9.4191   21.9185 C   0  0  0  0  0  0
  -23.6286   -8.2236   22.0757 C   0  0  0  0  0  0
  -22.4284   -8.0272   21.3530 C   0  0  0  0  0  0
  -21.9919   -9.0244   20.4642 C   0  0  0  0  0  0
  -22.7255  -10.2115   20.3044 C   0  0  0  0  0  0
  -21.6850   -6.0734   22.5282 C   0  0  0  0  0  0
  -21.4006   -6.5636   23.8214 C   0  0  0  0  0  0
  -21.3663   -5.6794   24.9180 C   0  0  0  0  0  0
  -21.6032   -4.3057   24.7233 C   0  0  0  0  0  0
  -21.8824   -3.8148   23.4364 C   0  0  0  0  0  0
  -21.9185   -4.6959   22.3413 C   0  0  0  0  0  0
  -22.7815  -13.5179   21.1879 C   0  0  0  0  0  0
  -22.1662   -4.2146   21.0990 F   0  0  0  0  0  0
  -21.5627   -3.4541   25.7744 F   0  0  0  0  0  0
  -29.9341  -13.7213   20.3387 N   0  0  0  0  0  0
  -26.2880  -12.9406   20.3185 N   0  0  0  0  0  0
  -25.9315  -11.6545   20.5711 N   0  0  0  0  0  0
  -22.0471  -12.8167   22.0435 N   0  0  0  0  0  0
  -25.4130  -15.1923   20.4131 N   0  0  0  0  0  0
  -31.7347  -15.0619   20.2914 O   0  0  0  0  0  0
  -21.6638   -6.8885   21.4246 O   0  0  0  0  0  0
  -22.3504  -14.5501   20.6745 O   0  0  0  0  0  0
  -24.6490  -31.8370   23.1852 C   0  0  0  0  0  0
  -25.9257  -32.4661   23.8237 C   0  0  1  0  0  0
  -27.2263  -27.0984   20.1520 C   0  0  0  0  0  0
  -25.5961  -33.8455   24.2148 N   0  0  0  0  0  0
  -23.4548  -30.4590   21.5283 C   0  0  2  0  0  0
  -24.9052  -28.8740   20.1069 C   0  0  0  0  0  0
  -22.7580  -29.4518   22.4794 C   0  0  0  0  0  0
  -18.0291  -28.1386   22.8451 C   0  0  0  0  0  0
  -24.1486  -36.7242   23.2644 C   0  0  0  0  0  0
  -26.0118  -30.6991   21.3895 C   0  0  0  0  0  0
  -26.0817  -29.3055   20.7304 C   0  0  0  0  0  0
  -27.2381  -28.4335   20.7357 C   0  0  0  0  0  0
  -26.0279  -26.7833   19.4709 C   0  0  0  0  0  0
  -24.8929  -27.6286   19.4602 C   0  0  0  0  0  0
  -23.6847  -29.7838   20.1490 C   0  0  0  0  0  0
  -25.4105  -36.2990   24.0325 C   0  0  1  0  0  0
  -20.5912  -28.3720   23.1179 C   0  0  2  0  0  0
  -20.6780  -26.9401   22.5371 C   0  0  0  0  0  0
  -19.5760  -26.6349   21.5172 C   0  0  0  0  0  0
  -18.1936  -26.7934   22.1581 C   0  0  0  0  0  0
  -19.1552  -28.8856   23.2832 C   0  0  0  0  0  0
  -18.9492  -30.1452   23.8870 C   0  0  0  0  0  0
  -17.6503  -30.6594   24.0531 C   0  0  0  0  0  0
  -25.9060  -34.9382   23.5044 C   0  0  0  0  0  0
  -16.5377  -29.9089   23.6344 C   0  0  0  0  0  0
  -16.7286  -28.6501   23.0362 C   0  0  0  0  0  0
  -26.4555  -31.6546   25.0717 C   0  0  0  0  0  0
  -25.3743  -31.3756   26.1417 C   0  0  0  0  0  0
  -27.0451  -30.2946   24.6345 C   0  0  0  0  0  0
  -27.6039  -32.4363   25.7521 C   0  0  0  0  0  0
  -27.5558  -37.1762   24.8458 C   0  0  0  0  0  0
  -21.4257  -29.3070   22.3560 N   0  0  0  0  0  0
  -26.4246  -37.3716   23.9419 N   0  0  0  0  0  0
  -24.7253  -31.0208   22.0887 N   0  0  0  0  0  0
  -23.4191  -28.8036   23.2944 O   0  0  0  0  0  0
  -28.2867  -26.1114   20.2725 O   0  0  0  0  0  0
  -26.5640  -34.8896   22.4624 O   0  0  0  0  0  0
  -23.5613  -32.1222   23.7106 O   0  0  0  0  0  0
  -29.0021  -20.3885   20.5714 C   0  0  0  0  0  0
  -29.5061  -21.7976   20.3863 C   0  0  0  0  0  0
  -29.8520  -19.1573   20.4281 C   0  0  0  0  0  0
  -30.9128  -21.7772   20.0631 C   0  0  0  0  0  0
  -25.6923  -20.1469   22.6515 C   0  0  0  0  0  0
  -32.3792  -23.1023   21.6321 C   0  0  0  0  0  0
  -31.3983  -24.3359   19.6743 C   0  0  0  0  0  0
  -33.1917  -22.7242   19.2993 C   0  0  0  0  0  0
  -27.5302  -20.1980   20.9042 C   0  0  0  0  0  0
  -28.7395  -23.2351   20.8078 C   0  0  0  0  0  0
  -29.7075  -17.6283   21.0770 C   0  0  0  0  0  0
  -27.2057  -20.2038   22.4063 C   0  0  0  0  0  0
  -28.2282  -24.5810   19.8881 C   0  0  0  0  0  0
  -31.9216  -22.9726   20.1631 C   0  0  0  0  0  0
  -31.1105  -19.3725   20.0094 N   0  0  0  0  0  0
  -31.5899  -20.6072   19.8493 N   0  0  0  0  0  0
  -29.6812  -16.1514   20.4763 N   0  0  0  0  0  0
  -31.4782  -12.8125   19.1550 H   0  0  0  0  0  0
  -30.4743  -11.6785   20.0198 H   0  0  0  0  0  0
  -29.8421  -11.7111   17.5864 H   0  0  0  0  0  0
  -29.5929  -13.4381   17.6566 H   0  0  0  0  0  0
  -27.9631  -11.2596   18.9957 H   0  0  0  0  0  0
  -27.3853  -12.4061   17.8173 H   0  0  0  0  0  0
  -27.5795  -14.2364   19.3794 H   0  0  0  0  0  0
  -28.7832  -12.3051   21.4268 H   0  0  0  0  0  0
  -28.3696  -13.9766   21.7401 H   0  0  0  0  0  0
  -25.2771   -9.5670   22.4768 H   0  0  0  0  0  0
  -23.9991   -7.4630   22.7493 H   0  0  0  0  0  0
  -21.0841   -8.8758   19.8955 H   0  0  0  0  0  0
  -22.3709  -10.9648   19.6159 H   0  0  0  0  0  0
  -21.2001   -7.6147   23.9716 H   0  0  0  0  0  0
  -21.1476   -6.0528   25.9080 H   0  0  0  0  0  0
  -22.0602   -2.7608   23.2860 H   0  0  0  0  0  0
  -22.4092  -11.9804   22.4781 H   0  0  0  0  0  0
  -21.1086  -13.1188   22.2663 H   0  0  0  0  0  0
  -24.6364  -15.8376   20.5219 H   0  0  0  0  0  0
  -26.2378  -15.6365   20.0338 H   0  0  0  0  0  0
  -26.7326  -32.5250   23.0959 H   0  0  0  0  0  0
  -25.0103  -33.9492   25.0306 H   0  0  0  0  0  0
  -22.7650  -31.2893   21.3705 H   0  0  0  0  0  0
  -23.3735  -35.9590   23.3298 H   0  0  0  0  0  0
  -24.3538  -36.8890   22.2048 H   0  0  0  0  0  0
  -23.7255  -37.6439   23.6700 H   0  0  0  0  0  0
  -26.1703  -31.4504   20.6154 H   0  0  0  0  0  0
  -26.8817  -30.7509   22.0314 H   0  0  0  0  0  0
  -28.1314  -28.7544   21.2518 H   0  0  0  0  0  0
  -25.9302  -25.8410   18.9532 H   0  0  0  0  0  0
  -23.9985  -27.2965   18.9502 H   0  0  0  0  0  0
  -23.8327  -30.5575   19.3951 H   0  0  0  0  0  0
  -22.8002  -29.2341   19.8275 H   0  0  0  0  0  0
  -25.1302  -36.1777   25.0816 H   0  0  0  0  0  0
  -21.0019  -28.3333   24.1295 H   0  0  0  0  0  0
  -20.5606  -26.2348   23.3619 H   0  0  0  0  0  0
  -21.6658  -26.7364   22.1211 H   0  0  0  0  0  0
  -19.6918  -25.6247   21.1235 H   0  0  0  0  0  0
  -19.6710  -27.3137   20.6691 H   0  0  0  0  0  0
  -17.4201  -26.6651   21.3993 H   0  0  0  0  0  0
  -18.0352  -26.0072   22.8976 H   0  0  0  0  0  0
  -19.7975  -30.7224   24.2256 H   0  0  0  0  0  0
  -17.5072  -31.6283   24.5125 H   0  0  0  0  0  0
  -15.5388  -30.2985   23.7701 H   0  0  0  0  0  0
  -15.8674  -28.0814   22.7121 H   0  0  0  0  0  0
  -24.5944  -30.7054   25.7764 H   0  0  0  0  0  0
  -24.8895  -32.2948   26.4738 H   0  0  0  0  0  0
  -25.8045  -30.9015   27.0254 H   0  0  0  0  0  0
  -26.3091  -29.6632   24.1358 H   0  0  0  0  0  0
  -27.4044  -29.7289   25.4940 H   0  0  0  0  0  0
  -27.9013  -30.4163   23.9712 H   0  0  0  0  0  0
  -27.2587  -33.3717   26.1961 H   0  0  0  0  0  0
  -28.3940  -32.6845   25.0414 H   0  0  0  0  0  0
  -28.0627  -31.8586   26.5546 H   0  0  0  0  0  0
  -28.2545  -38.0092   24.7528 H   0  0  0  0  0  0
  -28.1086  -36.2616   24.6276 H   0  0  0  0  0  0
  -27.2278  -37.1412   25.8860 H   0  0  0  0  0  0
  -20.9472  -29.8822   21.6777 H   0  0  0  0  0  0
  -26.0120  -38.2771   24.1466 H   0  0  0  0  0  0
  -25.4647  -20.1677   23.7171 H   0  0  0  0  0  0
  -25.2557  -19.2360   22.2364 H   0  0  0  0  0  0
  -25.1871  -21.0012   22.1993 H   0  0  0  0  0  0
  -31.5445  -23.2943   22.3046 H   0  0  0  0  0  0
  -33.0972  -23.9103   21.7664 H   0  0  0  0  0  0
  -32.8574  -22.1826   21.9729 H   0  0  0  0  0  0
  -30.7470  -24.8273   20.3879 H   0  0  0  0  0  0
  -30.8928  -24.2414   18.7145 H   0  0  0  0  0  0
  -32.2094  -25.0509   19.5331 H   0  0  0  0  0  0
  -33.7859  -21.8884   19.6708 H   0  0  0  0  0  0
  -33.8682  -23.5780   19.2987 H   0  0  0  0  0  0
  -32.9322  -22.5097   18.2621 H   0  0  0  0  0  0
  -27.1908  -19.2638   20.4541 H   0  0  0  0  0  0
  -26.9622  -20.9782   20.3978 H   0  0  0  0  0  0
  -29.3783  -23.6511   21.5824 H   0  0  0  0  0  0
  -27.8623  -22.9432   21.3851 H   0  0  0  0  0  0
  -28.8106  -17.6766   21.6924 H   0  0  0  0  0  0
  -30.5125  -17.5817   21.8137 H   0  0  0  0  0  0
  -27.6809  -19.3507   22.8890 H   0  0  0  0  0  0
  -27.6155  -21.0959   22.8823 H   0  0  0  0  0  0
  -27.2045  -24.3314   19.6190 H   0  0  0  0  0  0
  -28.7381  -24.5309   18.9279 H   0  0  0  0  0  0
  -28.7232  -15.8706   20.3404 H   0  0  0  0  0  0
  1 25  1  0  0  0
  1 30  2  0  0  0
  1 87  1  0  0  0
  2  3  1  0  0  0
  2 25  1  0  0  0
  2 88  1  0  0  0
  2 89  1  0  0  0
  3  4  1  0  0  0
  3 90  1  0  0  0
  3 91  1  0  0  0
  4  5  1  0  0  0
  4 92  1  0  0  0
  4 93  1  0  0  0
  5  6  1  0  0  0
  5 26  1  0  0  0
  5 94  1  0  0  0
  6 25  1  0  0  0
  6 95  1  0  0  0
  6 96  1  0  0  0
  7  8  2  0  0  0
  7 26  1  0  0  0
  7 29  1  0  0  0
  8  9  1  0  0  0
  8 22  1  0  0  0
  9 10  1  0  0  0
  9 27  2  0  0  0
 10 11  2  0  0  0
 10 15  1  0  0  0
 11 12  1  0  0  0
 11 97  1  0  0  0
 12 13  2  0  0  0
 12 98  1  0  0  0
 13 14  1  0  0  0
 13 31  1  0  0  0
 14 15  2  0  0  0
 14 99  1  0  0  0
 15100  1  0  0  0
 16 17  2  0  0  0
 16 21  1  0  0  0
 16 31  1  0  0  0
 17 18  1  0  0  0
 17101  1  0  0  0
 18 19  2  0  0  0
 18102  1  0  0  0
 19 20  1  0  0  0
 19 24  1  0  0  0
 20 21  2  0  0  0
 20103  1  0  0  0
 21 23  1  0  0  0
 22 28  1  0  0  0
 22 32  2  0  0  0
 26 27  1  0  0  0
 28104  1  0  0  0
 28105  1  0  0  0
 29106  1  0  0  0
 29107  1  0  0  0
 33 34  1  0  0  0
 33 66  1  0  0  0
 33 70  2  0  0  0
 34 36  1  0  0  0
 34 59  1  0  0  0
 34108  1  0  0  0
 35 44  2  0  0  0
 35 45  1  0  0  0
 35 68  1  0  0  0
 36 56  1  0  0  0
 36109  1  0  0  0
 37 39  1  0  0  0
 37 47  1  0  0  0
 37 66  1  0  0  0
 37110  1  0  0  0
 38 43  2  0  0  0
 38 46  1  0  0  0
 38 47  1  0  0  0
 39 64  1  0  0  0
 39 67  2  0  0  0
 40 52  1  0  0  0
 40 53  2  0  0  0
 40 58  1  0  0  0
 41111  1  0  0  0
 41112  1  0  0  0
 41113  1  0  0  0
 41 48  1  0  0  0
 42 43  1  0  0  0
 42 66  1  0  0  0
 42114  1  0  0  0
 42115  1  0  0  0
 43 44  1  0  0  0
 44116  1  0  0  0
 45 46  2  0  0  0
 45117  1  0  0  0
 46118  1  0  0  0
 47119  1  0  0  0
 47120  1  0  0  0
 48 56  1  0  0  0
 48 65  1  0  0  0
 48121  1  0  0  0
 49 50  1  0  0  0
 49 53  1  0  0  0
 49 64  1  0  0  0
 49122  1  0  0  0
 50 51  1  0  0  0
 50123  1  0  0  0
 50124  1  0  0  0
 51 52  1  0  0  0
 51125  1  0  0  0
 51126  1  0  0  0
 52127  1  0  0  0
 52128  1  0  0  0
 53 54  1  0  0  0
 54 55  2  0  0  0
 54129  1  0  0  0
 55 57  1  0  0  0
 55130  1  0  0  0
 56 69  2  0  0  0
 57 58  2  0  0  0
 57131  1  0  0  0
 58132  1  0  0  0
 59 60  1  0  0  0
 59 61  1  0  0  0
 59 62  1  0  0  0
 60133  1  0  0  0
 60134  1  0  0  0
 60135  1  0  0  0
 61136  1  0  0  0
 61137  1  0  0  0
 61138  1  0  0  0
 62139  1  0  0  0
 62140  1  0  0  0
 62141  1  0  0  0
 63 65  1  0  0  0
 63142  1  0  0  0
 63143  1  0  0  0
 63144  1  0  0  0
 64145  1  0  0  0
 65146  1  0  0  0
 68 83  1  0  0  0
 71 72  2  0  0  0
 71 73  1  0  0  0
 71 79  1  0  0  0
 72 74  1  0  0  0
 72 80  1  0  0  0
 73 81  1  0  0  0
 73 85  2  0  0  0
 74 84  1  0  0  0
 74 86  2  0  0  0
 75 82  1  0  0  0
 75147  1  0  0  0
 75148  1  0  0  0
 75149  1  0  0  0
 76150  1  0  0  0
 76151  1  0  0  0
 76152  1  0  0  0
 76 84  1  0  0  0
 77 84  1  0  0  0
 77153  1  0  0  0
 77154  1  0  0  0
 77155  1  0  0  0
 78 84  1  0  0  0
 78156  1  0  0  0
 78157  1  0  0  0
 78158  1  0  0  0
 79 82  1  0  0  0
 79159  1  0  0  0
 79160  1  0  0  0
 80 83  1  0  0  0
 80161  1  0  0  0
 80162  1  0  0  0
 81 87  1  0  0  0
 81163  1  0  0  0
 81164  1  0  0  0
 82165  1  0  0  0
 82166  1  0  0  0
 83167  1  0  0  0
 83168  1  0  0  0
 85 86  1  0  0  0
 87169  1  0  0  0
M  ISO  4   1 100  68 101  83 101  87 100
M  END
> <chiral flag>
0

> <version>
0

> <s_m_source_file>
/data/baiqing/PycharmProjects/Reinvent-master-3.2/result/LINK_invent/BTK/process_docking_weight1_custom_sum_contain_oxygen_bond_distance_aromatic_linkinvent_7_9_3/rearranged_h_0088.sdf

> <i_m_source_file_index>
40

> <r_mmod_Potential_Energy-OPLS-2005>
694.024047851562

> <r_mmod_Stretch_Energy-OPLS-2005>
317.783752441406

> <r_mmod_Bend_Energy-OPLS-2005>
355.23583984375

> <r_mmod_Torsional_Energy-OPLS-2005>
254.234817504883

> <r_mmod_Improper_Torsional_Energy-OPLS-2005>
11.8094167709351

> <r_mmod_Van_der_Waal_Energy-OPLS-2005>
142.1376953125

> <r_mmod_Electrostatic_Energy-OPLS-2005>
-375.8740234375

> <r_mmod_Solvation_Energy-OPLS-2005>
-241.379440307617

> <b_mmod_Minimization_Converged-OPLS-2005>
0

> <r_mmod_RMS_Derivative-OPLS-2005>
4.10498380661011

$$$$
40
                    3D
 Structure written by MMmdl.
164172  0  0  1  0            999 V2000
  -30.6312  -14.4782   20.6101 C   0  0  0  0  0  0
  -30.4338  -12.3129   19.4321 C   0  0  0  0  0  0
  -29.5078  -12.5362   18.2193 C   0  0  0  0  0  0
  -28.0232  -12.3867   18.6146 C   0  0  0  0  0  0
  -27.6654  -13.1944   19.8870 C   0  0  2  0  0  0
  -28.6957  -12.9196   21.0026 C   0  0  0  0  0  0
  -25.2556  -13.8084   20.5532 C   0  0  0  0  0  0
  -24.1831  -13.0428   20.9207 C   0  0  0  0  0  0
  -24.6361  -11.6895   20.8763 C   0  0  0  0  0  0
  -23.9067  -10.4286   21.0430 C   0  0  0  0  0  0
  -24.3628   -9.4171   21.9166 C   0  0  0  0  0  0
  -23.6295   -8.2216   22.0736 C   0  0  0  0  0  0
  -22.4245   -8.0293   21.3587 C   0  0  0  0  0  0
  -21.9924   -9.0229   20.4644 C   0  0  0  0  0  0
  -22.7266  -10.2099   20.3058 C   0  0  0  0  0  0
  -21.6837   -6.0723   22.5279 C   0  0  0  0  0  0
  -21.3978   -6.5630   23.8225 C   0  0  0  0  0  0
  -21.3674   -5.6781   24.9172 C   0  0  0  0  0  0
  -21.6074   -4.3067   24.7230 C   0  0  0  0  0  0
  -21.8813   -3.8138   23.4337 C   0  0  0  0  0  0
  -21.9163   -4.6964   22.3412 C   0  0  0  0  0  0
  -22.7855  -13.5248   21.1824 C   0  0  0  0  0  0
  -22.1652   -4.2142   21.0985 F   0  0  0  0  0  0
  -21.5639   -3.4543   25.7728 F   0  0  0  0  0  0
  -30.0315  -13.2590   20.4886 N   0  0  0  0  0  0
  -26.3022  -12.9233   20.3345 N   0  0  0  0  0  0
  -25.9288  -11.6427   20.5807 N   0  0  0  0  0  0
  -22.0516  -12.8216   22.0359 N   0  0  0  0  0  0
  -25.4184  -15.1779   20.3597 N   0  0  0  0  0  0
  -31.6998  -14.7576   20.0651 O   0  0  0  0  0  0
  -21.6661   -6.8880   21.4267 O   0  0  0  0  0  0
  -22.3557  -14.5554   20.6681 O   0  0  0  0  0  0
  -24.6133  -31.8718   23.2032 C   0  0  0  0  0  0
  -25.9070  -32.4776   23.8308 C   0  0  1  0  0  0
  -27.2175  -27.3796   20.0890 C   0  0  0  0  0  0
  -25.5898  -33.8558   24.2263 N   0  0  0  0  0  0
  -23.4023  -30.4890   21.5470 C   0  0  2  0  0  0
  -24.8467  -28.9455   20.1176 C   0  0  0  0  0  0
  -22.7379  -29.4611   22.4920 C   0  0  0  0  0  0
  -18.0122  -28.1457   22.8731 C   0  0  0  0  0  0
  -24.1507  -36.7279   23.2636 C   0  0  0  0  0  0
  -25.9358  -30.8162   21.3640 C   0  0  0  0  0  0
  -26.0110  -29.4430   20.7080 C   0  0  0  0  0  0
  -27.1992  -28.6691   20.6872 C   0  0  0  0  0  0
  -26.0326  -26.9181   19.4748 C   0  0  0  0  0  0
  -24.8562  -27.6861   19.4970 C   0  0  0  0  0  0
  -23.6144  -29.8247   20.1657 C   0  0  0  0  0  0
  -25.4122  -36.3032   24.0333 C   0  0  1  0  0  0
  -20.5839  -28.3552   23.1296 C   0  0  2  0  0  0
  -20.6413  -26.9168   22.5585 C   0  0  0  0  0  0
  -19.5407  -26.6457   21.5351 C   0  0  0  0  0  0
  -18.1612  -26.8008   22.1807 C   0  0  0  0  0  0
  -19.1549  -28.8887   23.2929 C   0  0  0  0  0  0
  -18.9647  -30.1619   23.8733 C   0  0  0  0  0  0
  -17.6722  -30.6979   24.0456 C   0  0  0  0  0  0
  -25.9055  -34.9414   23.5073 C   0  0  0  0  0  0
  -16.5472  -29.9466   23.6580 C   0  0  0  0  0  0
  -16.7170  -28.6666   23.0879 C   0  0  0  0  0  0
  -26.4479  -31.6539   25.0657 C   0  0  0  0  0  0
  -25.3782  -31.3651   26.1423 C   0  0  0  0  0  0
  -27.0357  -30.2980   24.6085 C   0  0  0  0  0  0
  -27.6038  -32.4247   25.7460 C   0  0  0  0  0  0
  -27.5576  -37.1790   24.8468 C   0  0  0  0  0  0
  -21.4109  -29.2803   22.3479 N   0  0  0  0  0  0
  -26.4286  -37.3738   23.9416 N   0  0  0  0  0  0
  -24.6660  -31.0772   22.0948 N   0  0  0  0  0  0
  -23.4161  -28.8304   23.3074 O   0  0  0  0  0  0
  -28.3651  -26.5951   20.1540 O   0  0  0  0  0  0
  -26.5606  -34.8857   22.4639 O   0  0  0  0  0  0
  -23.5351  -32.1446   23.7475 O   0  0  0  0  0  0
  -28.0875  -21.3577   22.4280 C   0  0  0  0  0  0
  -28.5423  -20.0396   22.6698 C   0  0  0  0  0  0
  -28.3679  -19.0377   21.6652 C   0  0  0  0  0  0
  -27.4936  -21.6882   21.2004 C   0  0  0  0  0  0
  -27.6531  -19.4462   20.4945 C   0  0  0  0  0  0
  -29.1617  -19.7389   24.0232 C   0  0  0  0  0  0
  -27.0677  -18.4940   19.4500 C   0  0  0  0  0  0
  -27.5472  -16.7711   22.4418 C   0  0  0  0  0  0
  -26.8740  -23.0732   20.9224 C   0  0  0  0  0  0
  -27.7238  -24.3671   21.2005 C   0  0  0  0  0  0
  -29.7496  -16.8407   20.9579 C   0  0  0  0  0  0
  -28.2696  -25.1550   19.9676 C   0  0  0  0  0  0
  -28.7741  -17.5639   21.9562 C   0  0  1  0  0  0
  -27.2795  -20.7306   20.2703 N   0  0  0  0  0  0
  -29.8671  -15.3970   21.2417 N   0  0  0  0  0  0
  -31.4757  -12.4356   19.1375 H   0  0  0  0  0  0
  -30.3548  -11.2872   19.7949 H   0  0  0  0  0  0
  -29.7520  -11.8367   17.4194 H   0  0  0  0  0  0
  -29.6807  -13.5364   17.8103 H   0  0  0  0  0  0
  -27.8218  -11.3275   18.7853 H   0  0  0  0  0  0
  -27.3812  -12.6877   17.7850 H   0  0  0  0  0  0
  -27.7294  -14.2562   19.6298 H   0  0  0  0  0  0
  -28.6697  -11.8645   21.2781 H   0  0  0  0  0  0
  -28.4455  -13.4468   21.9229 H   0  0  0  0  0  0
  -25.2753   -9.5616   22.4783 H   0  0  0  0  0  0
  -23.9974   -7.4603   22.7434 H   0  0  0  0  0  0
  -21.0874   -8.8797   19.8920 H   0  0  0  0  0  0
  -22.3774  -10.9662   19.6197 H   0  0  0  0  0  0
  -21.1982   -7.6132   23.9731 H   0  0  0  0  0  0
  -21.1518   -6.0508   25.9092 H   0  0  0  0  0  0
  -22.0577   -2.7604   23.2851 H   0  0  0  0  0  0
  -22.4068  -11.9857   22.4778 H   0  0  0  0  0  0
  -21.1154  -13.1209   22.2592 H   0  0  0  0  0  0
  -24.6492  -15.8322   20.4641 H   0  0  0  0  0  0
  -26.2297  -15.5838   19.9134 H   0  0  0  0  0  0
  -26.7120  -32.5402   23.1030 H   0  0  0  0  0  0
  -25.0053  -33.9745   25.0399 H   0  0  0  0  0  0
  -22.6875  -31.3057   21.4199 H   0  0  0  0  0  0
  -23.3739  -35.9648   23.3311 H   0  0  0  0  0  0
  -24.3599  -36.8920   22.2052 H   0  0  0  0  0  0
  -23.7323  -37.6491   23.6671 H   0  0  0  0  0  0
  -26.0449  -31.5933   20.6097 H   0  0  0  0  0  0
  -26.8231  -30.8748   21.9817 H   0  0  0  0  0  0
  -28.0961  -29.0656   21.1398 H   0  0  0  0  0  0
  -25.9728  -25.9579   18.9852 H   0  0  0  0  0  0
  -23.9593  -27.2914   19.0451 H   0  0  0  0  0  0
  -23.7088  -30.6097   19.4160 H   0  0  0  0  0  0
  -22.7347  -29.2668   19.8444 H   0  0  0  0  0  0
  -25.1319  -36.1843   25.0837 H   0  0  0  0  0  0
  -21.0136  -28.3129   24.1349 H   0  0  0  0  0  0
  -20.4479  -26.2279   23.3847 H   0  0  0  0  0  0
  -21.6296  -26.6414   22.1893 H   0  0  0  0  0  0
  -19.6351  -25.6510   21.0973 H   0  0  0  0  0  0
  -19.6566  -27.3694   20.7274 H   0  0  0  0  0  0
  -17.3768  -26.6852   21.4276 H   0  0  0  0  0  0
  -18.0056  -26.0113   22.9237 H   0  0  0  0  0  0
  -19.8180  -30.7449   24.1852 H   0  0  0  0  0  0
  -17.5472  -31.6773   24.4782 H   0  0  0  0  0  0
  -15.5578  -30.3506   23.8136 H   0  0  0  0  0  0
  -15.8381  -28.0955   22.8216 H   0  0  0  0  0  0
  -24.5902  -30.7078   25.7745 H   0  0  0  0  0  0
  -24.8971  -32.2792   26.4890 H   0  0  0  0  0  0
  -25.8117  -30.8728   27.0148 H   0  0  0  0  0  0
  -26.2898  -29.6693   24.1187 H   0  0  0  0  0  0
  -27.4204  -29.7250   25.4543 H   0  0  0  0  0  0
  -27.8674  -30.4295   23.9169 H   0  0  0  0  0  0
  -27.2630  -33.3518   26.2072 H   0  0  0  0  0  0
  -28.3808  -32.6906   25.0294 H   0  0  0  0  0  0
  -28.0725  -31.8349   26.5349 H   0  0  0  0  0  0
  -28.2594  -38.0074   24.7475 H   0  0  0  0  0  0
  -28.1071  -36.2614   24.6315 H   0  0  0  0  0  0
  -27.2291  -37.1441   25.8867 H   0  0  0  0  0  0
  -20.9348  -29.8108   21.6319 H   0  0  0  0  0  0
  -26.0155  -38.2836   24.1330 H   0  0  0  0  0  0
  -28.1588  -22.1164   23.1958 H   0  0  0  0  0  0
  -29.0368  -20.5811   24.7017 H   0  0  0  0  0  0
  -30.2257  -19.5413   23.9109 H   0  0  0  0  0  0
  -28.7046  -18.8793   24.5101 H   0  0  0  0  0  0
  -27.6041  -17.5649   19.2651 H   0  0  0  0  0  0
  -26.9671  -19.0014   18.4898 H   0  0  0  0  0  0
  -26.0617  -18.2130   19.7549 H   0  0  0  0  0  0
  -27.3347  -17.0552   23.4795 H   0  0  0  0  0  0
  -27.6745  -15.6863   22.4508 H   0  0  0  0  0  0
  -26.6528  -17.0098   21.8684 H   0  0  0  0  0  0
  -25.9845  -23.0971   21.5609 H   0  0  0  0  0  0
  -26.4809  -23.0953   19.9070 H   0  0  0  0  0  0
  -28.5510  -24.1531   21.8810 H   0  0  0  0  0  0
  -27.0602  -25.0419   21.7399 H   0  0  0  0  0  0
  -30.7387  -17.2967   20.9999 H   0  0  0  0  0  0
  -29.4457  -16.9353   19.9183 H   0  0  0  0  0  0
  -27.7528  -24.8954   19.0396 H   0  0  0  0  0  0
  -29.2873  -24.8080   19.8024 H   0  0  0  0  0  0
  -29.4160  -17.5768   22.8321 H   0  0  0  0  0  0
  -29.1039  -15.0081   21.7753 H   0  0  0  0  0  0
  1 25  1  0  0  0
  1 30  2  0  0  0
  1 85  1  0  0  0
  2  3  1  0  0  0
  2 25  1  0  0  0
  2 86  1  0  0  0
  2 87  1  0  0  0
  3  4  1  0  0  0
  3 88  1  0  0  0
  3 89  1  0  0  0
  4  5  1  0  0  0
  4 90  1  0  0  0
  4 91  1  0  0  0
  5  6  1  0  0  0
  5 26  1  0  0  0
  5 92  1  0  0  0
  6 25  1  0  0  0
  6 93  1  0  0  0
  6 94  1  0  0  0
  7  8  2  0  0  0
  7 26  1  0  0  0
  7 29  1  0  0  0
  8  9  1  0  0  0
  8 22  1  0  0  0
  9 10  1  0  0  0
  9 27  2  0  0  0
 10 11  2  0  0  0
 10 15  1  0  0  0
 11 12  1  0  0  0
 11 95  1  0  0  0
 12 13  2  0  0  0
 12 96  1  0  0  0
 13 14  1  0  0  0
 13 31  1  0  0  0
 14 15  2  0  0  0
 14 97  1  0  0  0
 15 98  1  0  0  0
 16 17  2  0  0  0
 16 21  1  0  0  0
 16 31  1  0  0  0
 17 18  1  0  0  0
 17 99  1  0  0  0
 18 19  2  0  0  0
 18100  1  0  0  0
 19 20  1  0  0  0
 19 24  1  0  0  0
 20 21  2  0  0  0
 20101  1  0  0  0
 21 23  1  0  0  0
 22 28  1  0  0  0
 22 32  2  0  0  0
 26 27  1  0  0  0
 28102  1  0  0  0
 28103  1  0  0  0
 29104  1  0  0  0
 29105  1  0  0  0
 33 34  1  0  0  0
 33 66  1  0  0  0
 33 70  2  0  0  0
 34 36  1  0  0  0
 34 59  1  0  0  0
 34106  1  0  0  0
 35 44  2  0  0  0
 35 45  1  0  0  0
 35 68  1  0  0  0
 36 56  1  0  0  0
 36107  1  0  0  0
 37 39  1  0  0  0
 37 47  1  0  0  0
 37 66  1  0  0  0
 37108  1  0  0  0
 38 43  2  0  0  0
 38 46  1  0  0  0
 38 47  1  0  0  0
 39 64  1  0  0  0
 39 67  2  0  0  0
 40 52  1  0  0  0
 40 53  2  0  0  0
 40 58  1  0  0  0
 41109  1  0  0  0
 41110  1  0  0  0
 41111  1  0  0  0
 41 48  1  0  0  0
 42 43  1  0  0  0
 42 66  1  0  0  0
 42112  1  0  0  0
 42113  1  0  0  0
 43 44  1  0  0  0
 44114  1  0  0  0
 45 46  2  0  0  0
 45115  1  0  0  0
 46116  1  0  0  0
 47117  1  0  0  0
 47118  1  0  0  0
 48 56  1  0  0  0
 48 65  1  0  0  0
 48119  1  0  0  0
 49 50  1  0  0  0
 49 53  1  0  0  0
 49 64  1  0  0  0
 49120  1  0  0  0
 50 51  1  0  0  0
 50121  1  0  0  0
 50122  1  0  0  0
 51 52  1  0  0  0
 51123  1  0  0  0
 51124  1  0  0  0
 52125  1  0  0  0
 52126  1  0  0  0
 53 54  1  0  0  0
 54 55  2  0  0  0
 54127  1  0  0  0
 55 57  1  0  0  0
 55128  1  0  0  0
 56 69  2  0  0  0
 57 58  2  0  0  0
 57129  1  0  0  0
 58130  1  0  0  0
 59 60  1  0  0  0
 59 61  1  0  0  0
 59 62  1  0  0  0
 60131  1  0  0  0
 60132  1  0  0  0
 60133  1  0  0  0
 61134  1  0  0  0
 61135  1  0  0  0
 61136  1  0  0  0
 62137  1  0  0  0
 62138  1  0  0  0
 62139  1  0  0  0
 63 65  1  0  0  0
 63140  1  0  0  0
 63141  1  0  0  0
 63142  1  0  0  0
 64143  1  0  0  0
 65144  1  0  0  0
 68 82  1  0  0  0
 71 72  2  0  0  0
 71 74  1  0  0  0
 71145  1  0  0  0
 72 73  1  0  0  0
 72 76  1  0  0  0
 73 75  2  0  0  0
 73 83  1  0  0  0
 74 79  1  0  0  0
 74 84  2  0  0  0
 75 77  1  0  0  0
 75 84  1  0  0  0
 76146  1  0  0  0
 76147  1  0  0  0
 76148  1  0  0  0
 77149  1  0  0  0
 77150  1  0  0  0
 77151  1  0  0  0
 78152  1  0  0  0
 78153  1  0  0  0
 78154  1  0  0  0
 78 83  1  0  0  0
 79 80  1  0  0  0
 79155  1  0  0  0
 79156  1  0  0  0
 80 82  1  0  0  0
 80157  1  0  0  0
 80158  1  0  0  0
 81 83  1  0  0  0
 81 85  1  0  0  0
 81159  1  0  0  0
 81160  1  0  0  0
 82161  1  0  0  0
 82162  1  0  0  0
 83163  1  0  0  0
 85164  1  0  0  0
M  ISO  4   1 100  68 101  82 101  85 100
M  END
> <chiral flag>
0

> <version>
0

> <s_m_source_file>
/data/baiqing/PycharmProjects/Reinvent-master-3.2/result/LINK_invent/BTK/process_docking_weight1_custom_sum_contain_oxygen_bond_distance_aromatic_linkinvent_7_9_3/rearranged_h_0088.sdf

> <i_m_source_file_index>
41

> <r_mmod_Potential_Energy-OPLS-2005>
-211.375244140625

> <r_mmod_Stretch_Energy-OPLS-2005>
53.3231163024902

> <r_mmod_Bend_Energy-OPLS-2005>
138.360290527344

> <r_mmod_Torsional_Energy-OPLS-2005>
236.048492431641

> <r_mmod_Improper_Torsional_Energy-OPLS-2005>
7.64580202102661

> <r_mmod_Van_der_Waal_Energy-OPLS-2005>
155.735809326172

> <r_mmod_Electrostatic_Energy-OPLS-2005>
-604.26953125

> <r_mmod_Solvation_Energy-OPLS-2005>
-220.507827758789

> <b_mmod_Minimization_Converged-OPLS-2005>
0

> <r_mmod_RMS_Derivative-OPLS-2005>
12.3119115829468

$$$$
42
                    3D
 Structure written by MMmdl.
157165  0  0  1  0            999 V2000
  -30.6134  -14.7227   20.4520 C   0  0  0  0  0  0
  -30.4425  -12.4390   19.4640 C   0  0  0  0  0  0
  -29.5149  -12.5083   18.2300 C   0  0  0  0  0  0
  -28.0380  -12.3383   18.6389 C   0  0  0  0  0  0
  -27.6475  -13.2263   19.8502 C   0  0  2  0  0  0
  -28.6965  -13.1421   20.9819 C   0  0  0  0  0  0
  -25.2530  -13.8087   20.5648 C   0  0  0  0  0  0
  -24.1813  -13.0373   20.9193 C   0  0  0  0  0  0
  -24.6395  -11.6870   20.8725 C   0  0  0  0  0  0
  -23.9044  -10.4271   21.0380 C   0  0  0  0  0  0
  -24.3603   -9.4192   21.9152 C   0  0  0  0  0  0
  -23.6260   -8.2243   22.0727 C   0  0  0  0  0  0
  -22.4236   -8.0285   21.3537 C   0  0  0  0  0  0
  -21.9884   -9.0255   20.4631 C   0  0  0  0  0  0
  -22.7216  -10.2123   20.3026 C   0  0  0  0  0  0
  -21.6832   -6.0747   22.5286 C   0  0  0  0  0  0
  -21.4012   -6.5643   23.8226 C   0  0  0  0  0  0
  -21.3662   -5.6776   24.9184 C   0  0  0  0  0  0
  -21.6037   -4.3037   24.7214 C   0  0  0  0  0  0
  -21.8823   -3.8150   23.4329 C   0  0  0  0  0  0
  -21.9179   -4.6978   22.3395 C   0  0  0  0  0  0
  -22.7844  -13.5201   21.1843 C   0  0  0  0  0  0
  -22.1650   -4.2181   21.0960 F   0  0  0  0  0  0
  -21.5616   -3.4510   25.7722 F   0  0  0  0  0  0
  -30.0026  -13.4915   20.4043 N   0  0  0  0  0  0
  -26.2976  -12.9329   20.3264 N   0  0  0  0  0  0
  -25.9340  -11.6475   20.5753 N   0  0  0  0  0  0
  -22.0441  -12.8249   22.0398 N   0  0  0  0  0  0
  -25.4140  -15.1770   20.4020 N   0  0  0  0  0  0
  -31.7953  -14.8486   20.1181 O   0  0  0  0  0  0
  -21.6586   -6.8897   21.4253 O   0  0  0  0  0  0
  -22.3568  -14.5525   20.6694 O   0  0  0  0  0  0
  -24.6302  -31.8553   23.1979 C   0  0  0  0  0  0
  -25.9127  -32.4757   23.8324 C   0  0  1  0  0  0
  -27.2293  -27.2806   20.1203 C   0  0  0  0  0  0
  -25.5926  -33.8556   24.2256 N   0  0  0  0  0  0
  -23.4280  -30.4770   21.5395 C   0  0  2  0  0  0
  -24.8761  -28.9199   20.1163 C   0  0  0  0  0  0
  -22.7501  -29.4609   22.4897 C   0  0  0  0  0  0
  -18.0307  -28.1397   22.8489 C   0  0  0  0  0  0
  -24.1493  -36.7284   23.2638 C   0  0  0  0  0  0
  -25.9726  -30.7718   21.3776 C   0  0  0  0  0  0
  -26.0473  -29.3945   20.7220 C   0  0  0  0  0  0
  -27.2284  -28.5865   20.7130 C   0  0  0  0  0  0
  -26.0368  -26.8693   19.4875 C   0  0  0  0  0  0
  -24.8731  -27.6626   19.4925 C   0  0  0  0  0  0
  -23.6473  -29.8058   20.1584 C   0  0  0  0  0  0
  -25.4121  -36.3073   24.0322 C   0  0  1  0  0  0
  -20.5911  -28.3710   23.1266 C   0  0  2  0  0  0
  -20.6793  -26.9420   22.5408 C   0  0  0  0  0  0
  -19.5767  -26.6387   21.5213 C   0  0  0  0  0  0
  -18.1946  -26.7939   22.1624 C   0  0  0  0  0  0
  -19.1561  -28.8872   23.2875 C   0  0  0  0  0  0
  -18.9472  -30.1473   23.8893 C   0  0  0  0  0  0
  -17.6468  -30.6588   24.0567 C   0  0  0  0  0  0
  -25.9054  -34.9443   23.5085 C   0  0  0  0  0  0
  -16.5362  -29.9088   23.6327 C   0  0  0  0  0  0
  -16.7291  -28.6509   23.0343 C   0  0  0  0  0  0
  -26.4498  -31.6583   25.0708 C   0  0  0  0  0  0
  -25.3722  -31.3730   26.1427 C   0  0  0  0  0  0
  -27.0344  -30.3001   24.6201 C   0  0  0  0  0  0
  -27.6058  -32.4329   25.7484 C   0  0  0  0  0  0
  -27.5582  -37.1804   24.8464 C   0  0  0  0  0  0
  -21.4211  -29.3053   22.3645 N   0  0  0  0  0  0
  -26.4295  -37.3772   23.9402 N   0  0  0  0  0  0
  -24.6956  -31.0533   22.0944 N   0  0  0  0  0  0
  -23.4197  -28.8130   23.2980 O   0  0  0  0  0  0
  -28.3392  -26.4095   20.1158 O   0  0  0  0  0  0
  -26.5619  -34.8921   22.4655 O   0  0  0  0  0  0
  -23.5445  -32.1358   23.7276 O   0  0  0  0  0  0
  -27.6261  -17.6661   21.1896 C   0  0  0  0  0  0
  -27.1053  -19.7523   20.6677 C   0  0  0  0  0  0
  -26.5689  -18.6020   21.1461 C   0  0  0  0  0  0
  -28.7814  -18.2189   20.6968 C   0  0  0  0  0  0
  -25.1325  -18.3750   21.5289 C   0  0  0  0  0  0
  -30.0478  -17.3237   20.4807 C   0  0  0  0  0  0
  -28.7629  -22.3025   20.6466 C   0  0  0  0  0  0
  -28.9351  -23.7309   19.9106 C   0  0  0  0  0  0
  -29.2337  -20.8681   20.0202 C   0  0  0  0  0  0
  -28.1360  -24.9872   20.5428 C   0  0  0  0  0  0
  -28.4779  -19.6282   20.4767 N   0  0  0  0  0  0
  -29.8113  -15.8234   20.6628 N   0  0  0  0  0  0
  -31.4828  -12.5660   19.1562 H   0  0  0  0  0  0
  -30.3874  -11.4580   19.9401 H   0  0  0  0  0  0
  -29.7955  -11.7411   17.5064 H   0  0  0  0  0  0
  -29.6450  -13.4665   17.7247 H   0  0  0  0  0  0
  -27.8829  -11.2877   18.8904 H   0  0  0  0  0  0
  -27.3853  -12.5494   17.7915 H   0  0  0  0  0  0
  -27.6408  -14.2530   19.4806 H   0  0  0  0  0  0
  -28.7277  -12.1396   21.4098 H   0  0  0  0  0  0
  -28.4396  -13.8155   21.8002 H   0  0  0  0  0  0
  -25.2752   -9.5677   22.4718 H   0  0  0  0  0  0
  -23.9960   -7.4645   22.7448 H   0  0  0  0  0  0
  -21.0807   -8.8800   19.8953 H   0  0  0  0  0  0
  -22.3665  -10.9677   19.6147 H   0  0  0  0  0  0
  -21.2016   -7.6146   23.9771 H   0  0  0  0  0  0
  -21.1464   -6.0474   25.9092 H   0  0  0  0  0  0
  -22.0594   -2.7610   23.2795 H   0  0  0  0  0  0
  -22.3927  -11.9861   22.4798 H   0  0  0  0  0  0
  -21.1106  -13.1412   22.2573 H   0  0  0  0  0  0
  -24.6357  -15.8084   20.5461 H   0  0  0  0  0  0
  -26.2457  -15.6472   20.0713 H   0  0  0  0  0  0
  -26.7191  -32.5421   23.1063 H   0  0  0  0  0  0
  -25.0089  -33.9700   25.0414 H   0  0  0  0  0  0
  -22.7245  -31.2980   21.3884 H   0  0  0  0  0  0
  -23.3755  -35.9616   23.3303 H   0  0  0  0  0  0
  -24.3572  -36.8899   22.2049 H   0  0  0  0  0  0
  -23.7249  -37.6487   23.6660 H   0  0  0  0  0  0
  -26.1134  -31.5320   20.6085 H   0  0  0  0  0  0
  -26.8498  -30.8208   22.0105 H   0  0  0  0  0  0
  -28.1304  -28.9423   21.1907 H   0  0  0  0  0  0
  -25.9965  -25.9141   18.9819 H   0  0  0  0  0  0
  -23.9768  -27.2933   19.0126 H   0  0  0  0  0  0
  -23.7744  -30.5776   19.3984 H   0  0  0  0  0  0
  -22.7679  -29.2362   19.8535 H   0  0  0  0  0  0
  -25.1315  -36.1913   25.0811 H   0  0  0  0  0  0
  -21.0022  -28.3291   24.1380 H   0  0  0  0  0  0
  -20.5684  -26.2314   23.3613 H   0  0  0  0  0  0
  -21.6656  -26.7423   22.1204 H   0  0  0  0  0  0
  -19.6908  -25.6293   21.1254 H   0  0  0  0  0  0
  -19.6708  -27.3186   20.6733 H   0  0  0  0  0  0
  -17.4211  -26.6695   21.4031 H   0  0  0  0  0  0
  -18.0341  -26.0090   22.9032 H   0  0  0  0  0  0
  -19.7944  -30.7304   24.2240 H   0  0  0  0  0  0
  -17.5015  -31.6263   24.5178 H   0  0  0  0  0  0
  -15.5363  -30.2978   23.7654 H   0  0  0  0  0  0
  -15.8696  -28.0826   22.7040 H   0  0  0  0  0  0
  -24.5896  -30.7086   25.7738 H   0  0  0  0  0  0
  -24.8917  -32.2895   26.4856 H   0  0  0  0  0  0
  -25.8032  -30.8890   27.0197 H   0  0  0  0  0  0
  -26.2921  -29.6753   24.1217 H   0  0  0  0  0  0
  -27.4002  -29.7267   25.4726 H   0  0  0  0  0  0
  -27.8815  -30.4266   23.9458 H   0  0  0  0  0  0
  -27.2664  -33.3629   26.2056 H   0  0  0  0  0  0
  -28.3870  -32.6885   25.0313 H   0  0  0  0  0  0
  -28.0724  -31.8454   26.5398 H   0  0  0  0  0  0
  -28.2605  -38.0100   24.7506 H   0  0  0  0  0  0
  -28.1080  -36.2627   24.6308 H   0  0  0  0  0  0
  -27.2291  -37.1467   25.8866 H   0  0  0  0  0  0
  -20.9374  -29.8780   21.6873 H   0  0  0  0  0  0
  -26.0174  -38.2843   24.1405 H   0  0  0  0  0  0
  -27.5202  -16.6436   21.5206 H   0  0  0  0  0  0
  -26.5784  -20.6716   20.4631 H   0  0  0  0  0  0
  -25.0609  -17.9430   22.5272 H   0  0  0  0  0  0
  -24.6605  -17.6949   20.8230 H   0  0  0  0  0  0
  -24.5718  -19.3101   21.5097 H   0  0  0  0  0  0
  -30.8413  -17.6342   21.1627 H   0  0  0  0  0  0
  -30.4390  -17.4852   19.4751 H   0  0  0  0  0  0
  -27.7078  -22.2766   20.8891 H   0  0  0  0  0  0
  -29.2396  -22.3842   21.6238 H   0  0  0  0  0  0
  -28.6197  -23.6200   18.8722 H   0  0  0  0  0  0
  -29.9968  -23.9704   19.8667 H   0  0  0  0  0  0
  -30.2967  -20.7115   20.2039 H   0  0  0  0  0  0
  -29.1246  -20.9146   18.9363 H   0  0  0  0  0  0
  -28.3578  -24.9892   21.6101 H   0  0  0  0  0  0
  -27.0790  -24.7300   20.5001 H   0  0  0  0  0  0
  -28.8604  -15.5882   20.8915 H   0  0  0  0  0  0
  1 25  1  0  0  0
  1 30  2  0  0  0
  1 82  1  0  0  0
  2  3  1  0  0  0
  2 25  1  0  0  0
  2 83  1  0  0  0
  2 84  1  0  0  0
  3  4  1  0  0  0
  3 85  1  0  0  0
  3 86  1  0  0  0
  4  5  1  0  0  0
  4 87  1  0  0  0
  4 88  1  0  0  0
  5  6  1  0  0  0
  5 26  1  0  0  0
  5 89  1  0  0  0
  6 25  1  0  0  0
  6 90  1  0  0  0
  6 91  1  0  0  0
  7  8  2  0  0  0
  7 26  1  0  0  0
  7 29  1  0  0  0
  8  9  1  0  0  0
  8 22  1  0  0  0
  9 10  1  0  0  0
  9 27  2  0  0  0
 10 11  2  0  0  0
 10 15  1  0  0  0
 11 12  1  0  0  0
 11 92  1  0  0  0
 12 13  2  0  0  0
 12 93  1  0  0  0
 13 14  1  0  0  0
 13 31  1  0  0  0
 14 15  2  0  0  0
 14 94  1  0  0  0
 15 95  1  0  0  0
 16 17  2  0  0  0
 16 21  1  0  0  0
 16 31  1  0  0  0
 17 18  1  0  0  0
 17 96  1  0  0  0
 18 19  2  0  0  0
 18 97  1  0  0  0
 19 20  1  0  0  0
 19 24  1  0  0  0
 20 21  2  0  0  0
 20 98  1  0  0  0
 21 23  1  0  0  0
 22 28  1  0  0  0
 22 32  2  0  0  0
 26 27  1  0  0  0
 28 99  1  0  0  0
 28100  1  0  0  0
 29101  1  0  0  0
 29102  1  0  0  0
 33 34  1  0  0  0
 33 66  1  0  0  0
 33 70  2  0  0  0
 34 36  1  0  0  0
 34 59  1  0  0  0
 34103  1  0  0  0
 35 44  2  0  0  0
 35 45  1  0  0  0
 35 68  1  0  0  0
 36 56  1  0  0  0
 36104  1  0  0  0
 37 39  1  0  0  0
 37 47  1  0  0  0
 37 66  1  0  0  0
 37105  1  0  0  0
 38 43  2  0  0  0
 38 46  1  0  0  0
 38 47  1  0  0  0
 39 64  1  0  0  0
 39 67  2  0  0  0
 40 52  1  0  0  0
 40 53  2  0  0  0
 40 58  1  0  0  0
 41106  1  0  0  0
 41107  1  0  0  0
 41108  1  0  0  0
 41 48  1  0  0  0
 42 43  1  0  0  0
 42 66  1  0  0  0
 42109  1  0  0  0
 42110  1  0  0  0
 43 44  1  0  0  0
 44111  1  0  0  0
 45 46  2  0  0  0
 45112  1  0  0  0
 46113  1  0  0  0
 47114  1  0  0  0
 47115  1  0  0  0
 48 56  1  0  0  0
 48 65  1  0  0  0
 48116  1  0  0  0
 49 50  1  0  0  0
 49 53  1  0  0  0
 49 64  1  0  0  0
 49117  1  0  0  0
 50 51  1  0  0  0
 50118  1  0  0  0
 50119  1  0  0  0
 51 52  1  0  0  0
 51120  1  0  0  0
 51121  1  0  0  0
 52122  1  0  0  0
 52123  1  0  0  0
 53 54  1  0  0  0
 54 55  2  0  0  0
 54124  1  0  0  0
 55 57  1  0  0  0
 55125  1  0  0  0
 56 69  2  0  0  0
 57 58  2  0  0  0
 57126  1  0  0  0
 58127  1  0  0  0
 59 60  1  0  0  0
 59 61  1  0  0  0
 59 62  1  0  0  0
 60128  1  0  0  0
 60129  1  0  0  0
 60130  1  0  0  0
 61131  1  0  0  0
 61132  1  0  0  0
 61133  1  0  0  0
 62134  1  0  0  0
 62135  1  0  0  0
 62136  1  0  0  0
 63 65  1  0  0  0
 63137  1  0  0  0
 63138  1  0  0  0
 63139  1  0  0  0
 64140  1  0  0  0
 65141  1  0  0  0
 68 80  1  0  0  0
 71 73  1  0  0  0
 71 74  2  0  0  0
 71142  1  0  0  0
 72 73  2  0  0  0
 72 81  1  0  0  0
 72143  1  0  0  0
 73 75  1  0  0  0
 74 76  1  0  0  0
 74 81  1  0  0  0
 75144  1  0  0  0
 75145  1  0  0  0
 75146  1  0  0  0
 76 82  1  0  0  0
 76147  1  0  0  0
 76148  1  0  0  0
 77 78  1  0  0  0
 77 79  1  0  0  0
 77149  1  0  0  0
 77150  1  0  0  0
 78 80  1  0  0  0
 78151  1  0  0  0
 78152  1  0  0  0
 79 81  1  0  0  0
 79153  1  0  0  0
 79154  1  0  0  0
 80155  1  0  0  0
 80156  1  0  0  0
 82157  1  0  0  0
M  ISO  4   1 100  68 101  80 101  82 100
M  END
> <chiral flag>
0

> <version>
0

> <s_m_source_file>
/data/baiqing/PycharmProjects/Reinvent-master-3.2/result/LINK_invent/BTK/process_docking_weight1_custom_sum_contain_oxygen_bond_distance_aromatic_linkinvent_7_9_3/rearranged_h_0088.sdf

> <i_m_source_file_index>
42

> <r_mmod_Potential_Energy-OPLS-2005>
112.059883117676

> <r_mmod_Stretch_Energy-OPLS-2005>
121.31404876709

> <r_mmod_Bend_Energy-OPLS-2005>
187.368026733398

> <r_mmod_Torsional_Energy-OPLS-2005>
233.82341003418

> <r_mmod_Improper_Torsional_Energy-OPLS-2005>
5.42588710784912

> <r_mmod_Van_der_Waal_Energy-OPLS-2005>
119.37474822998

> <r_mmod_Electrostatic_Energy-OPLS-2005>
-425.726287841797

> <r_mmod_Solvation_Energy-OPLS-2005>
-202.639602661133

> <b_mmod_Minimization_Converged-OPLS-2005>
0

> <r_mmod_RMS_Derivative-OPLS-2005>
2.48259997367859

$$$$
43
                    3D
 Structure written by MMmdl.
168176  0  0  1  0            999 V2000
  -30.6146  -14.7400   20.4468 C   0  0  0  0  0  0
  -30.4413  -12.4541   19.4652 C   0  0  0  0  0  0
  -29.5127  -12.5008   18.2310 C   0  0  0  0  0  0
  -28.0387  -12.3309   18.6483 C   0  0  0  0  0  0
  -27.6468  -13.2296   19.8519 C   0  0  2  0  0  0
  -28.6961  -13.1690   20.9843 C   0  0  0  0  0  0
  -25.2555  -13.8196   20.5674 C   0  0  0  0  0  0
  -24.1830  -13.0448   20.9200 C   0  0  0  0  0  0
  -24.6438  -11.6926   20.8768 C   0  0  0  0  0  0
  -23.9105  -10.4307   21.0426 C   0  0  0  0  0  0
  -24.3663   -9.4214   21.9191 C   0  0  0  0  0  0
  -23.6323   -8.2255   22.0764 C   0  0  0  0  0  0
  -22.4299   -8.0316   21.3558 C   0  0  0  0  0  0
  -21.9948   -9.0284   20.4649 C   0  0  0  0  0  0
  -22.7287  -10.2152   20.3058 C   0  0  0  0  0  0
  -21.6853   -6.0761   22.5282 C   0  0  0  0  0  0
  -21.4011   -6.5655   23.8219 C   0  0  0  0  0  0
  -21.3662   -5.6800   24.9185 C   0  0  0  0  0  0
  -21.6038   -4.3062   24.7217 C   0  0  0  0  0  0
  -21.8821   -3.8159   23.4340 C   0  0  0  0  0  0
  -21.9201   -4.6984   22.3400 C   0  0  0  0  0  0
  -22.7861  -13.5255   21.1834 C   0  0  0  0  0  0
  -22.1660   -4.2180   21.0975 F   0  0  0  0  0  0
  -21.5630   -3.4539   25.7725 F   0  0  0  0  0  0
  -29.9967  -13.5140   20.3964 N   0  0  0  0  0  0
  -26.2979  -12.9392   20.3289 N   0  0  0  0  0  0
  -25.9370  -11.6537   20.5775 N   0  0  0  0  0  0
  -22.0489  -12.8244   22.0392 N   0  0  0  0  0  0
  -25.4201  -15.1907   20.4055 N   0  0  0  0  0  0
  -31.8040  -14.8524   20.1355 O   0  0  0  0  0  0
  -21.6656   -6.8908   21.4245 O   0  0  0  0  0  0
  -22.3564  -14.5561   20.6694 O   0  0  0  0  0  0
  -24.6319  -31.8582   23.1989 C   0  0  0  0  0  0
  -25.9178  -32.4749   23.8328 C   0  0  1  0  0  0
  -27.2100  -27.2542   20.1318 C   0  0  0  0  0  0
  -25.5982  -33.8546   24.2246 N   0  0  0  0  0  0
  -23.4251  -30.4799   21.5429 C   0  0  2  0  0  0
  -24.8758  -28.9291   20.1116 C   0  0  0  0  0  0
  -22.7473  -29.4633   22.4944 C   0  0  0  0  0  0
  -18.0308  -28.1360   22.8580 C   0  0  0  0  0  0
  -24.1507  -36.7276   23.2631 C   0  0  0  0  0  0
  -25.9767  -30.7684   21.3813 C   0  0  0  0  0  0
  -26.0492  -29.3908   20.7224 C   0  0  0  0  0  0
  -27.2224  -28.5650   20.7222 C   0  0  0  0  0  0
  -26.0219  -26.8731   19.4778 C   0  0  0  0  0  0
  -24.8657  -27.6767   19.4799 C   0  0  0  0  0  0
  -23.6454  -29.8150   20.1594 C   0  0  0  0  0  0
  -25.4130  -36.3047   24.0304 C   0  0  1  0  0  0
  -20.5911  -28.3675   23.1352 C   0  0  2  0  0  0
  -20.6801  -26.9454   22.5300 C   0  0  0  0  0  0
  -19.5763  -26.6649   21.5068 C   0  0  0  0  0  0
  -18.1985  -26.7994   22.1596 C   0  0  0  0  0  0
  -19.1542  -28.8802   23.3054 C   0  0  0  0  0  0
  -18.9416  -30.1378   23.9089 C   0  0  0  0  0  0
  -17.6389  -30.6494   24.0666 C   0  0  0  0  0  0
  -25.9067  -34.9427   23.5067 C   0  0  0  0  0  0
  -16.5283  -29.9016   23.6356 C   0  0  0  0  0  0
  -16.7266  -28.6427   23.0390 C   0  0  0  0  0  0
  -26.4531  -31.6576   25.0711 C   0  0  0  0  0  0
  -25.3733  -31.3756   26.1403 C   0  0  0  0  0  0
  -27.0382  -30.2987   24.6227 C   0  0  0  0  0  0
  -27.6067  -32.4332   25.7495 C   0  0  0  0  0  0
  -27.5578  -37.1793   24.8464 C   0  0  0  0  0  0
  -21.4162  -29.3170   22.3830 N   0  0  0  0  0  0
  -26.4306  -37.3747   23.9388 N   0  0  0  0  0  0
  -24.6961  -31.0551   22.0949 N   0  0  0  0  0  0
  -23.4208  -28.8100   23.2950 O   0  0  0  0  0  0
  -28.2780  -26.3262   20.1542 O   0  0  0  0  0  0
  -26.5628  -34.8913   22.4621 O   0  0  0  0  0  0
  -23.5474  -32.1390   23.7292 O   0  0  0  0  0  0
  -25.1548  -20.7336   19.7853 C   0  0  0  0  0  0
  -26.2948  -22.7700   19.3026 C   0  0  0  0  0  0
  -25.1230  -22.0018   19.2127 C   0  0  0  0  0  0
  -26.3311  -20.1916   20.3309 C   0  0  0  0  0  0
  -27.5068  -22.3080   19.8797 C   0  0  0  0  0  0
  -27.6029  -20.8692   20.2503 C   0  0  0  0  0  0
  -26.0762  -18.8886   21.0740 C   0  0  0  0  0  0
  -23.1764  -21.5725   17.6079 C   0  0  0  0  0  0
  -23.8791  -23.9570   18.0671 C   0  0  0  0  0  0
  -28.5319  -23.5202   19.9960 C   0  0  0  0  0  0
  -28.9354  -20.0081   20.5211 C   0  0  0  0  0  0
  -28.9084  -18.3655   20.4377 C   0  0  0  0  0  0
  -30.1564  -17.3508   20.5165 C   0  0  0  0  0  0
  -27.9901  -24.9262   20.6489 C   0  0  0  0  0  0
  -23.7990  -22.5323   18.6394 C   0  0  0  0  0  0
  -29.8216  -15.8596   20.6298 N   0  0  0  0  0  0
  -31.4791  -12.5888   19.1540 H   0  0  0  0  0  0
  -30.3964  -11.4776   19.9479 H   0  0  0  0  0  0
  -29.7925  -11.7217   17.5219 H   0  0  0  0  0  0
  -29.6381  -13.4480   17.7063 H   0  0  0  0  0  0
  -27.8897  -11.2801   18.9051 H   0  0  0  0  0  0
  -27.3801  -12.5312   17.8016 H   0  0  0  0  0  0
  -27.6391  -14.2497   19.4675 H   0  0  0  0  0  0
  -28.7295  -12.1783   21.4350 H   0  0  0  0  0  0
  -28.4360  -13.8580   21.7906 H   0  0  0  0  0  0
  -25.2809   -9.5695   22.4777 H   0  0  0  0  0  0
  -24.0023   -7.4651   22.7501 H   0  0  0  0  0  0
  -21.0873   -8.8816   19.8968 H   0  0  0  0  0  0
  -22.3746  -10.9707   19.6186 H   0  0  0  0  0  0
  -21.1994   -7.6162   23.9732 H   0  0  0  0  0  0
  -21.1476   -6.0525   25.9086 H   0  0  0  0  0  0
  -22.0600   -2.7626   23.2821 H   0  0  0  0  0  0
  -22.4095  -11.9915   22.4791 H   0  0  0  0  0  0
  -21.1117  -13.1269   22.2604 H   0  0  0  0  0  0
  -24.6371  -15.8281   20.5000 H   0  0  0  0  0  0
  -26.2490  -15.6277   20.0279 H   0  0  0  0  0  0
  -26.7232  -32.5400   23.1052 H   0  0  0  0  0  0
  -25.0127  -33.9670   25.0398 H   0  0  0  0  0  0
  -22.7205  -31.3004   21.3936 H   0  0  0  0  0  0
  -23.3770  -35.9610   23.3287 H   0  0  0  0  0  0
  -24.3605  -36.8914   22.2052 H   0  0  0  0  0  0
  -23.7282  -37.6480   23.6669 H   0  0  0  0  0  0
  -26.1137  -31.5280   20.6119 H   0  0  0  0  0  0
  -26.8551  -30.8154   22.0127 H   0  0  0  0  0  0
  -28.1212  -28.9155   21.2095 H   0  0  0  0  0  0
  -25.9774  -25.9252   18.9699 H   0  0  0  0  0  0
  -23.9665  -27.3178   19.0004 H   0  0  0  0  0  0
  -23.7674  -30.5920   19.4038 H   0  0  0  0  0  0
  -22.7653  -29.2451   19.8533 H   0  0  0  0  0  0
  -25.1318  -36.1854   25.0796 H   0  0  0  0  0  0
  -21.0057  -28.3079   24.1448 H   0  0  0  0  0  0
  -20.5676  -26.2188   23.3358 H   0  0  0  0  0  0
  -21.6652  -26.7539   22.1019 H   0  0  0  0  0  0
  -19.7004  -25.6756   21.0689 H   0  0  0  0  0  0
  -19.6575  -27.3792   20.6862 H   0  0  0  0  0  0
  -17.4247  -26.6843   21.3989 H   0  0  0  0  0  0
  -18.0401  -26.0101   22.8937 H   0  0  0  0  0  0
  -19.7867  -30.7139   24.2575 H   0  0  0  0  0  0
  -17.4912  -31.6132   24.5351 H   0  0  0  0  0  0
  -15.5274  -30.2900   23.7655 H   0  0  0  0  0  0
  -15.8684  -28.0757   22.7016 H   0  0  0  0  0  0
  -24.5901  -30.7109   25.7738 H   0  0  0  0  0  0
  -24.8918  -32.2938   26.4779 H   0  0  0  0  0  0
  -25.8012  -30.8962   27.0216 H   0  0  0  0  0  0
  -26.2975  -29.6712   24.1251 H   0  0  0  0  0  0
  -27.4059  -29.7256   25.4762 H   0  0  0  0  0  0
  -27.8856  -30.4254   23.9480 H   0  0  0  0  0  0
  -27.2658  -33.3642   26.2051 H   0  0  0  0  0  0
  -28.3899  -32.6903   25.0339 H   0  0  0  0  0  0
  -28.0725  -31.8480   26.5437 H   0  0  0  0  0  0
  -28.2589  -38.0100   24.7484 H   0  0  0  0  0  0
  -28.1079  -36.2613   24.6313 H   0  0  0  0  0  0
  -27.2278  -37.1467   25.8870 H   0  0  0  0  0  0
  -20.9256  -29.9200   21.7373 H   0  0  0  0  0  0
  -26.0167  -38.2809   24.1403 H   0  0  0  0  0  0
  -24.2363  -20.1637   19.8285 H   0  0  0  0  0  0
  -26.2647  -23.7813   18.9350 H   0  0  0  0  0  0
  -25.0284  -18.7958   21.3658 H   0  0  0  0  0  0
  -26.6243  -18.8709   22.0148 H   0  0  0  0  0  0
  -26.2921  -18.0139   20.4607 H   0  0  0  0  0  0
  -22.9627  -20.5940   18.0354 H   0  0  0  0  0  0
  -23.8312  -21.4165   16.7509 H   0  0  0  0  0  0
  -22.2281  -21.9565   17.2333 H   0  0  0  0  0  0
  -24.1777  -24.6610   18.8404 H   0  0  0  0  0  0
  -22.9120  -24.2897   17.6925 H   0  0  0  0  0  0
  -24.5883  -24.0115   17.2403 H   0  0  0  0  0  0
  -28.8660  -23.7361   18.9814 H   0  0  0  0  0  0
  -29.4243  -23.1853   20.5271 H   0  0  0  0  0  0
  -29.3132  -20.3001   21.5021 H   0  0  0  0  0  0
  -29.6759  -20.3617   19.8040 H   0  0  0  0  0  0
  -28.3589  -18.0980   19.5330 H   0  0  0  0  0  0
  -28.3519  -18.0098   21.2945 H   0  0  0  0  0  0
  -30.7648  -17.6129   21.3841 H   0  0  0  0  0  0
  -30.7988  -17.5038   19.6512 H   0  0  0  0  0  0
  -28.3772  -24.9296   21.6672 H   0  0  0  0  0  0
  -26.9221  -24.8286   20.8310 H   0  0  0  0  0  0
  -23.1073  -22.5779   19.4821 H   0  0  0  0  0  0
  -28.8595  -15.6492   20.8455 H   0  0  0  0  0  0
  1 25  1  0  0  0
  1 30  2  0  0  0
  1 86  1  0  0  0
  2  3  1  0  0  0
  2 25  1  0  0  0
  2 87  1  0  0  0
  2 88  1  0  0  0
  3  4  1  0  0  0
  3 89  1  0  0  0
  3 90  1  0  0  0
  4  5  1  0  0  0
  4 91  1  0  0  0
  4 92  1  0  0  0
  5  6  1  0  0  0
  5 26  1  0  0  0
  5 93  1  0  0  0
  6 25  1  0  0  0
  6 94  1  0  0  0
  6 95  1  0  0  0
  7  8  2  0  0  0
  7 26  1  0  0  0
  7 29  1  0  0  0
  8  9  1  0  0  0
  8 22  1  0  0  0
  9 10  1  0  0  0
  9 27  2  0  0  0
 10 11  2  0  0  0
 10 15  1  0  0  0
 11 12  1  0  0  0
 11 96  1  0  0  0
 12 13  2  0  0  0
 12 97  1  0  0  0
 13 14  1  0  0  0
 13 31  1  0  0  0
 14 15  2  0  0  0
 14 98  1  0  0  0
 15 99  1  0  0  0
 16 17  2  0  0  0
 16 21  1  0  0  0
 16 31  1  0  0  0
 17 18  1  0  0  0
 17100  1  0  0  0
 18 19  2  0  0  0
 18101  1  0  0  0
 19 20  1  0  0  0
 19 24  1  0  0  0
 20 21  2  0  0  0
 20102  1  0  0  0
 21 23  1  0  0  0
 22 28  1  0  0  0
 22 32  2  0  0  0
 26 27  1  0  0  0
 28103  1  0  0  0
 28104  1  0  0  0
 29105  1  0  0  0
 29106  1  0  0  0
 33 34  1  0  0  0
 33 66  1  0  0  0
 33 70  2  0  0  0
 34 36  1  0  0  0
 34 59  1  0  0  0
 34107  1  0  0  0
 35 44  2  0  0  0
 35 45  1  0  0  0
 35 68  1  0  0  0
 36 56  1  0  0  0
 36108  1  0  0  0
 37 39  1  0  0  0
 37 47  1  0  0  0
 37 66  1  0  0  0
 37109  1  0  0  0
 38 43  2  0  0  0
 38 46  1  0  0  0
 38 47  1  0  0  0
 39 64  1  0  0  0
 39 67  2  0  0  0
 40 52  1  0  0  0
 40 53  2  0  0  0
 40 58  1  0  0  0
 41110  1  0  0  0
 41111  1  0  0  0
 41112  1  0  0  0
 41 48  1  0  0  0
 42 43  1  0  0  0
 42 66  1  0  0  0
 42113  1  0  0  0
 42114  1  0  0  0
 43 44  1  0  0  0
 44115  1  0  0  0
 45 46  2  0  0  0
 45116  1  0  0  0
 46117  1  0  0  0
 47118  1  0  0  0
 47119  1  0  0  0
 48 56  1  0  0  0
 48 65  1  0  0  0
 48120  1  0  0  0
 49 50  1  0  0  0
 49 53  1  0  0  0
 49 64  1  0  0  0
 49121  1  0  0  0
 50 51  1  0  0  0
 50122  1  0  0  0
 50123  1  0  0  0
 51 52  1  0  0  0
 51124  1  0  0  0
 51125  1  0  0  0
 52126  1  0  0  0
 52127  1  0  0  0
 53 54  1  0  0  0
 54 55  2  0  0  0
 54128  1  0  0  0
 55 57  1  0  0  0
 55129  1  0  0  0
 56 69  2  0  0  0
 57 58  2  0  0  0
 57130  1  0  0  0
 58131  1  0  0  0
 59 60  1  0  0  0
 59 61  1  0  0  0
 59 62  1  0  0  0
 60132  1  0  0  0
 60133  1  0  0  0
 60134  1  0  0  0
 61135  1  0  0  0
 61136  1  0  0  0
 61137  1  0  0  0
 62138  1  0  0  0
 62139  1  0  0  0
 62140  1  0  0  0
 63 65  1  0  0  0
 63141  1  0  0  0
 63142  1  0  0  0
 63143  1  0  0  0
 64144  1  0  0  0
 65145  1  0  0  0
 68 84  1  0  0  0
 71 73  2  0  0  0
 71 74  1  0  0  0
 71146  1  0  0  0
 72 73  1  0  0  0
 72 75  2  0  0  0
 72147  1  0  0  0
 73 85  1  0  0  0
 74 76  2  0  0  0
 74 77  1  0  0  0
 75 76  1  0  0  0
 75 80  1  0  0  0
 76 81  1  0  0  0
 77148  1  0  0  0
 77149  1  0  0  0
 77150  1  0  0  0
 78151  1  0  0  0
 78152  1  0  0  0
 78153  1  0  0  0
 78 85  1  0  0  0
 79 85  1  0  0  0
 79154  1  0  0  0
 79155  1  0  0  0
 79156  1  0  0  0
 80 84  1  0  0  0
 80157  1  0  0  0
 80158  1  0  0  0
 81 82  1  0  0  0
 81159  1  0  0  0
 81160  1  0  0  0
 82 83  1  0  0  0
 82161  1  0  0  0
 82162  1  0  0  0
 83 86  1  0  0  0
 83163  1  0  0  0
 83164  1  0  0  0
 84165  1  0  0  0
 84166  1  0  0  0
 85167  1  0  0  0
 86168  1  0  0  0
M  ISO  4   1 100  68 101  84 101  86 100
M  END
> <chiral flag>
0

> <version>
0

> <s_m_source_file>
/data/baiqing/PycharmProjects/Reinvent-master-3.2/result/LINK_invent/BTK/process_docking_weight1_custom_sum_contain_oxygen_bond_distance_aromatic_linkinvent_7_9_3/rearranged_h_0088.sdf

> <i_m_source_file_index>
43

> <r_mmod_Potential_Energy-OPLS-2005>
276.326110839844

> <r_mmod_Stretch_Energy-OPLS-2005>
152.468521118164

> <r_mmod_Bend_Energy-OPLS-2005>
215.278182983398

> <r_mmod_Torsional_Energy-OPLS-2005>
260.648956298828

> <r_mmod_Improper_Torsional_Energy-OPLS-2005>
5.67910051345825

> <r_mmod_Van_der_Waal_Energy-OPLS-2005>
154.169799804688

> <r_mmod_Electrostatic_Energy-OPLS-2005>
-396.574462890625

> <r_mmod_Solvation_Energy-OPLS-2005>
-204.486831665039

> <b_mmod_Minimization_Converged-OPLS-2005>
0

> <r_mmod_RMS_Derivative-OPLS-2005>
4.93749856948853

$$$$
44
                    3D
 Structure written by MMmdl.
180188  0  0  1  0            999 V2000
  -30.7763  -14.4702   20.5954 C   0  0  0  0  0  0
  -30.4178  -12.3348   19.4065 C   0  0  0  0  0  0
  -29.4965  -12.5437   18.1902 C   0  0  0  0  0  0
  -28.0239  -12.3848   18.6085 C   0  0  0  0  0  0
  -27.6678  -13.2217   19.8673 C   0  0  2  0  0  0
  -28.7154  -13.0334   20.9898 C   0  0  0  0  0  0
  -25.2638  -13.8179   20.5621 C   0  0  0  0  0  0
  -24.1903  -13.0433   20.9145 C   0  0  0  0  0  0
  -24.6498  -11.6923   20.8729 C   0  0  0  0  0  0
  -23.9166  -10.4290   21.0404 C   0  0  0  0  0  0
  -24.3699   -9.4200   21.9172 C   0  0  0  0  0  0
  -23.6346   -8.2259   22.0737 C   0  0  0  0  0  0
  -22.4327   -8.0322   21.3528 C   0  0  0  0  0  0
  -21.9985   -9.0317   20.4632 C   0  0  0  0  0  0
  -22.7353  -10.2166   20.3049 C   0  0  0  0  0  0
  -21.6863   -6.0777   22.5274 C   0  0  0  0  0  0
  -21.4019   -6.5669   23.8212 C   0  0  0  0  0  0
  -21.3649   -5.6801   24.9164 C   0  0  0  0  0  0
  -21.6052   -4.3072   24.7202 C   0  0  0  0  0  0
  -21.8829   -3.8179   23.4313 C   0  0  0  0  0  0
  -21.9197   -4.7001   22.3374 C   0  0  0  0  0  0
  -22.7927  -13.5238   21.1827 C   0  0  0  0  0  0
  -22.1665   -4.2195   21.0949 F   0  0  0  0  0  0
  -21.5639   -3.4546   25.7702 F   0  0  0  0  0  0
  -30.0496  -13.3259   20.4346 N   0  0  0  0  0  0
  -26.3087  -12.9374   20.3316 N   0  0  0  0  0  0
  -25.9423  -11.6522   20.5741 N   0  0  0  0  0  0
  -22.0550  -12.8216   22.0371 N   0  0  0  0  0  0
  -25.4371  -15.1880   20.4014 N   0  0  0  0  0  0
  -31.8703  -14.6329   20.0538 O   0  0  0  0  0  0
  -21.6683   -6.8929   21.4236 O   0  0  0  0  0  0
  -22.3585  -14.5526   20.6662 O   0  0  0  0  0  0
  -24.6173  -31.8681   23.2164 C   0  0  0  0  0  0
  -25.9082  -32.4819   23.8452 C   0  0  1  0  0  0
  -27.2440  -27.4250   20.0741 C   0  0  0  0  0  0
  -25.5948  -33.8623   24.2347 N   0  0  0  0  0  0
  -23.4053  -30.4948   21.5561 C   0  0  2  0  0  0
  -24.8536  -28.9676   20.1201 C   0  0  0  0  0  0
  -22.7432  -29.4640   22.4999 C   0  0  0  0  0  0
  -18.0266  -28.1360   22.8475 C   0  0  0  0  0  0
  -24.1498  -36.7296   23.2642 C   0  0  0  0  0  0
  -25.9433  -30.8189   21.3872 C   0  0  0  0  0  0
  -26.0181  -29.4603   20.7191 C   0  0  0  0  0  0
  -27.2141  -28.6996   20.6942 C   0  0  0  0  0  0
  -26.0459  -26.9561   19.4744 C   0  0  0  0  0  0
  -24.8619  -27.7111   19.4986 C   0  0  0  0  0  0
  -23.6169  -29.8354   20.1691 C   0  0  0  0  0  0
  -25.4131  -36.3122   24.0322 C   0  0  1  0  0  0
  -20.5850  -28.3651   23.1294 C   0  0  2  0  0  0
  -20.6756  -26.9381   22.5403 C   0  0  0  0  0  0
  -19.5736  -26.6360   21.5207 C   0  0  0  0  0  0
  -18.1906  -26.7902   22.1601 C   0  0  0  0  0  0
  -19.1516  -28.8820   23.2870 C   0  0  0  0  0  0
  -18.9456  -30.1445   23.8860 C   0  0  0  0  0  0
  -17.6457  -30.6557   24.0566 C   0  0  0  0  0  0
  -25.9052  -34.9471   23.5116 C   0  0  0  0  0  0
  -16.5341  -29.9052   23.6360 C   0  0  0  0  0  0
  -16.7261  -28.6483   23.0345 C   0  0  0  0  0  0
  -26.4515  -31.6630   25.0792 C   0  0  0  0  0  0
  -25.3754  -31.3700   26.1511 C   0  0  0  0  0  0
  -27.0434  -30.3075   24.6295 C   0  0  0  0  0  0
  -27.6095  -32.4388   25.7504 C   0  0  0  0  0  0
  -27.5584  -37.1795   24.8457 C   0  0  0  0  0  0
  -21.4145  -29.3023   22.3706 N   0  0  0  0  0  0
  -26.4311  -37.3808   23.9382 N   0  0  0  0  0  0
  -24.6719  -31.0747   22.1085 N   0  0  0  0  0  0
  -23.4191  -28.8173   23.3029 O   0  0  0  0  0  0
  -28.4136  -26.6707   20.0663 O   0  0  0  0  0  0
  -26.5610  -34.8909   22.4676 O   0  0  0  0  0  0
  -23.5355  -32.1471   23.7498 O   0  0  0  0  0  0
  -30.4444  -21.4845   18.8211 C   0  0  0  0  0  0
  -29.6838  -20.4542   20.8705 C   0  0  0  0  0  0
  -29.7600  -21.5961   20.0425 C   0  0  0  0  0  0
  -30.9823  -20.2470   18.4003 C   0  0  0  0  0  0
  -30.2148  -19.1888   20.5029 C   0  0  0  0  0  0
  -30.8553  -19.0806   19.2244 C   0  0  0  0  0  0
  -31.3808  -17.7349   18.7261 C   0  0  0  0  0  0
  -28.4436  -17.7040   21.6124 C   0  0  0  0  0  0
  -34.1375  -18.4708   15.9446 C   0  0  0  0  0  0
  -35.4914  -20.5616   16.1152 C   0  0  0  0  0  0
  -33.5373  -20.5123   14.5814 C   0  0  0  0  0  0
  -28.9327  -22.8414   20.4013 C   0  0  0  0  0  0
  -31.6635  -20.2427   17.0248 C   0  0  0  0  0  0
  -29.4474  -24.2865   20.1090 C   0  0  0  0  0  0
  -33.1810  -20.5181   17.1151 C   0  0  0  0  0  0
  -30.8770  -16.7731   21.6226 C   0  0  0  0  0  0
  -28.2249  -25.2412   20.0006 C   0  0  0  0  0  0
  -29.9481  -18.0398   21.5287 C   0  0  1  0  0  0
  -34.0629  -20.0109   15.9399 C   0  0  0  0  0  0
  -30.2321  -15.4678   21.3194 N   0  0  0  0  0  0
  -31.4631  -12.4093   19.1039 H   0  0  0  0  0  0
  -30.2929  -11.3216   19.7931 H   0  0  0  0  0  0
  -29.7426  -11.8377   17.3925 H   0  0  0  0  0  0
  -29.6582  -13.5381   17.7710 H   0  0  0  0  0  0
  -27.8490  -11.3270   18.8006 H   0  0  0  0  0  0
  -27.3754  -12.6593   17.7758 H   0  0  0  0  0  0
  -27.7055  -14.2689   19.5668 H   0  0  0  0  0  0
  -28.6878  -12.0037   21.3522 H   0  0  0  0  0  0
  -28.4755  -13.6558   21.8514 H   0  0  0  0  0  0
  -25.2853   -9.5649   22.4751 H   0  0  0  0  0  0
  -24.0054   -7.4613   22.7420 H   0  0  0  0  0  0
  -21.0937   -8.8882   19.8897 H   0  0  0  0  0  0
  -22.3876  -10.9731   19.6166 H   0  0  0  0  0  0
  -21.2029   -7.6178   23.9730 H   0  0  0  0  0  0
  -21.1445   -6.0525   25.9062 H   0  0  0  0  0  0
  -22.0617   -2.7651   23.2797 H   0  0  0  0  0  0
  -22.4246  -11.9982   22.4876 H   0  0  0  0  0  0
  -21.1093  -13.1146   22.2406 H   0  0  0  0  0  0
  -24.6735  -15.8497   20.4880 H   0  0  0  0  0  0
  -26.3016  -15.6148   20.0918 H   0  0  0  0  0  0
  -26.7133  -32.5505   23.1189 H   0  0  0  0  0  0
  -25.0185  -33.9834   25.0555 H   0  0  0  0  0  0
  -22.6964  -31.3121   21.4193 H   0  0  0  0  0  0
  -23.3790  -35.9600   23.3337 H   0  0  0  0  0  0
  -24.3582  -36.8912   22.2054 H   0  0  0  0  0  0
  -23.7234  -37.6480   23.6680 H   0  0  0  0  0  0
  -26.0882  -31.5970   20.6367 H   0  0  0  0  0  0
  -26.8151  -30.8439   22.0297 H   0  0  0  0  0  0
  -28.1093  -29.0776   21.1700 H   0  0  0  0  0  0
  -25.9883  -26.0113   18.9615 H   0  0  0  0  0  0
  -23.9668  -27.3261   19.0281 H   0  0  0  0  0  0
  -23.7240  -30.6130   19.4118 H   0  0  0  0  0  0
  -22.7432  -29.2556   19.8717 H   0  0  0  0  0  0
  -25.1316  -36.1991   25.0820 H   0  0  0  0  0  0
  -20.9936  -28.3218   24.1416 H   0  0  0  0  0  0
  -20.5650  -26.2261   23.3595 H   0  0  0  0  0  0
  -21.6629  -26.7405   22.1203 H   0  0  0  0  0  0
  -19.6903  -25.6279   21.1219 H   0  0  0  0  0  0
  -19.6676  -27.3185   20.6749 H   0  0  0  0  0  0
  -17.4185  -26.6662   21.3995 H   0  0  0  0  0  0
  -18.0298  -26.0029   22.8978 H   0  0  0  0  0  0
  -19.7941  -30.7284   24.2173 H   0  0  0  0  0  0
  -17.5009  -31.6233   24.5189 H   0  0  0  0  0  0
  -15.5339  -30.2928   23.7728 H   0  0  0  0  0  0
  -15.8657  -28.0814   22.7047 H   0  0  0  0  0  0
  -24.5905  -30.7118   25.7780 H   0  0  0  0  0  0
  -24.8968  -32.2833   26.5053 H   0  0  0  0  0  0
  -25.8051  -30.8743   27.0227 H   0  0  0  0  0  0
  -26.3058  -29.6704   24.1413 H   0  0  0  0  0  0
  -27.4249  -29.7451   25.4839 H   0  0  0  0  0  0
  -27.8861  -30.4403   23.9501 H   0  0  0  0  0  0
  -27.2775  -33.3695   26.2115 H   0  0  0  0  0  0
  -28.3853  -32.6954   25.0273 H   0  0  0  0  0  0
  -28.0870  -31.8517   26.5372 H   0  0  0  0  0  0
  -28.2602  -38.0097   24.7562 H   0  0  0  0  0  0
  -28.1086  -36.2634   24.6255 H   0  0  0  0  0  0
  -27.2273  -37.1400   25.8849 H   0  0  0  0  0  0
  -20.9323  -29.8797   21.6961 H   0  0  0  0  0  0
  -26.0199  -38.2867   24.1439 H   0  0  0  0  0  0
  -30.5141  -22.3458   18.1706 H   0  0  0  0  0  0
  -29.1380  -20.5432   21.8006 H   0  0  0  0  0  0
  -30.6732  -16.9378   18.9500 H   0  0  0  0  0  0
  -32.3442  -17.5111   19.1810 H   0  0  0  0  0  0
  -31.5437  -17.6705   17.6559 H   0  0  0  0  0  0
  -27.8437  -18.5825   21.8550 H   0  0  0  0  0  0
  -28.2334  -16.9662   22.3890 H   0  0  0  0  0  0
  -28.0750  -17.3210   20.6631 H   0  0  0  0  0  0
  -34.7955  -18.1010   15.1575 H   0  0  0  0  0  0
  -33.1654  -18.0051   15.7906 H   0  0  0  0  0  0
  -34.5311  -18.0974   16.8909 H   0  0  0  0  0  0
  -36.1411  -20.2483   15.2966 H   0  0  0  0  0  0
  -35.9491  -20.2217   17.0458 H   0  0  0  0  0  0
  -35.4984  -21.6521   16.1257 H   0  0  0  0  0  0
  -34.2122  -20.2378   13.7704 H   0  0  0  0  0  0
  -33.4534  -21.5986   14.5706 H   0  0  0  0  0  0
  -32.5595  -20.1011   14.3310 H   0  0  0  0  0  0
  -28.6632  -22.7906   21.4554 H   0  0  0  0  0  0
  -27.9941  -22.7001   19.8653 H   0  0  0  0  0  0
  -31.2220  -21.0308   16.4109 H   0  0  0  0  0  0
  -31.4289  -19.3443   16.4621 H   0  0  0  0  0  0
  -30.0086  -24.3369   19.1757 H   0  0  0  0  0  0
  -30.1234  -24.6076   20.9010 H   0  0  0  0  0  0
  -33.5585  -20.0691   18.0334 H   0  0  0  0  0  0
  -33.3118  -21.5951   17.2447 H   0  0  0  0  0  0
  -31.1718  -16.6780   22.6685 H   0  0  0  0  0  0
  -31.8399  -16.9181   21.1405 H   0  0  0  0  0  0
  -27.5240  -24.9827   20.7971 H   0  0  0  0  0  0
  -27.7540  -24.9894   19.0535 H   0  0  0  0  0  0
  -30.1713  -18.5363   22.4779 H   0  0  0  0  0  0
  -29.3306  -15.3007   21.7377 H   0  0  0  0  0  0
  1 25  1  0  0  0
  1 30  2  0  0  0
  1 90  1  0  0  0
  2  3  1  0  0  0
  2 25  1  0  0  0
  2 91  1  0  0  0
  2 92  1  0  0  0
  3  4  1  0  0  0
  3 93  1  0  0  0
  3 94  1  0  0  0
  4  5  1  0  0  0
  4 95  1  0  0  0
  4 96  1  0  0  0
  5  6  1  0  0  0
  5 26  1  0  0  0
  5 97  1  0  0  0
  6 25  1  0  0  0
  6 98  1  0  0  0
  6 99  1  0  0  0
  7  8  2  0  0  0
  7 26  1  0  0  0
  7 29  1  0  0  0
  8  9  1  0  0  0
  8 22  1  0  0  0
  9 10  1  0  0  0
  9 27  2  0  0  0
 10 11  2  0  0  0
 10 15  1  0  0  0
 11 12  1  0  0  0
 11100  1  0  0  0
 12 13  2  0  0  0
 12101  1  0  0  0
 13 14  1  0  0  0
 13 31  1  0  0  0
 14 15  2  0  0  0
 14102  1  0  0  0
 15103  1  0  0  0
 16 17  2  0  0  0
 16 21  1  0  0  0
 16 31  1  0  0  0
 17 18  1  0  0  0
 17104  1  0  0  0
 18 19  2  0  0  0
 18105  1  0  0  0
 19 20  1  0  0  0
 19 24  1  0  0  0
 20 21  2  0  0  0
 20106  1  0  0  0
 21 23  1  0  0  0
 22 28  1  0  0  0
 22 32  2  0  0  0
 26 27  1  0  0  0
 28107  1  0  0  0
 28108  1  0  0  0
 29109  1  0  0  0
 29110  1  0  0  0
 33 34  1  0  0  0
 33 66  1  0  0  0
 33 70  2  0  0  0
 34 36  1  0  0  0
 34 59  1  0  0  0
 34111  1  0  0  0
 35 44  2  0  0  0
 35 45  1  0  0  0
 35 68  1  0  0  0
 36 56  1  0  0  0
 36112  1  0  0  0
 37 39  1  0  0  0
 37 47  1  0  0  0
 37 66  1  0  0  0
 37113  1  0  0  0
 38 43  2  0  0  0
 38 46  1  0  0  0
 38 47  1  0  0  0
 39 64  1  0  0  0
 39 67  2  0  0  0
 40 52  1  0  0  0
 40 53  2  0  0  0
 40 58  1  0  0  0
 41114  1  0  0  0
 41115  1  0  0  0
 41116  1  0  0  0
 41 48  1  0  0  0
 42 43  1  0  0  0
 42 66  1  0  0  0
 42117  1  0  0  0
 42118  1  0  0  0
 43 44  1  0  0  0
 44119  1  0  0  0
 45 46  2  0  0  0
 45120  1  0  0  0
 46121  1  0  0  0
 47122  1  0  0  0
 47123  1  0  0  0
 48 56  1  0  0  0
 48 65  1  0  0  0
 48124  1  0  0  0
 49 50  1  0  0  0
 49 53  1  0  0  0
 49 64  1  0  0  0
 49125  1  0  0  0
 50 51  1  0  0  0
 50126  1  0  0  0
 50127  1  0  0  0
 51 52  1  0  0  0
 51128  1  0  0  0
 51129  1  0  0  0
 52130  1  0  0  0
 52131  1  0  0  0
 53 54  1  0  0  0
 54 55  2  0  0  0
 54132  1  0  0  0
 55 57  1  0  0  0
 55133  1  0  0  0
 56 69  2  0  0  0
 57 58  2  0  0  0
 57134  1  0  0  0
 58135  1  0  0  0
 59 60  1  0  0  0
 59 61  1  0  0  0
 59 62  1  0  0  0
 60136  1  0  0  0
 60137  1  0  0  0
 60138  1  0  0  0
 61139  1  0  0  0
 61140  1  0  0  0
 61141  1  0  0  0
 62142  1  0  0  0
 62143  1  0  0  0
 62144  1  0  0  0
 63 65  1  0  0  0
 63145  1  0  0  0
 63146  1  0  0  0
 63147  1  0  0  0
 64148  1  0  0  0
 65149  1  0  0  0
 68 87  1  0  0  0
 71 73  2  0  0  0
 71 74  1  0  0  0
 71150  1  0  0  0
 72 73  1  0  0  0
 72 75  2  0  0  0
 72151  1  0  0  0
 73 82  1  0  0  0
 74 76  2  0  0  0
 74 83  1  0  0  0
 75 76  1  0  0  0
 75 88  1  0  0  0
 76 77  1  0  0  0
 77152  1  0  0  0
 77153  1  0  0  0
 77154  1  0  0  0
 78155  1  0  0  0
 78156  1  0  0  0
 78157  1  0  0  0
 78 88  1  0  0  0
 79158  1  0  0  0
 79159  1  0  0  0
 79160  1  0  0  0
 79 89  1  0  0  0
 80 89  1  0  0  0
 80161  1  0  0  0
 80162  1  0  0  0
 80163  1  0  0  0
 81 89  1  0  0  0
 81164  1  0  0  0
 81165  1  0  0  0
 81166  1  0  0  0
 82 84  1  0  0  0
 82167  1  0  0  0
 82168  1  0  0  0
 83 85  1  0  0  0
 83169  1  0  0  0
 83170  1  0  0  0
 84 87  1  0  0  0
 84171  1  0  0  0
 84172  1  0  0  0
 85 89  1  0  0  0
 85173  1  0  0  0
 85174  1  0  0  0
 86 88  1  0  0  0
 86 90  1  0  0  0
 86175  1  0  0  0
 86176  1  0  0  0
 87177  1  0  0  0
 87178  1  0  0  0
 88179  1  0  0  0
 90180  1  0  0  0
M  ISO  4   1 100  68 101  87 101  90 100
M  END
> <chiral flag>
0

> <version>
0

> <s_m_source_file>
/data/baiqing/PycharmProjects/Reinvent-master-3.2/result/LINK_invent/BTK/process_docking_weight1_custom_sum_contain_oxygen_bond_distance_aromatic_linkinvent_7_9_3/rearranged_h_0088.sdf

> <i_m_source_file_index>
44

> <r_mmod_Potential_Energy-OPLS-2005>
-5.12103986740112

> <r_mmod_Stretch_Energy-OPLS-2005>
54.3745803833008

> <r_mmod_Bend_Energy-OPLS-2005>
158.379638671875

> <r_mmod_Torsional_Energy-OPLS-2005>
235.599182128906

> <r_mmod_Improper_Torsional_Energy-OPLS-2005>
3.00004601478577

> <r_mmod_Van_der_Waal_Energy-OPLS-2005>
165.552947998047

> <r_mmod_Electrostatic_Energy-OPLS-2005>
-445.408142089844

> <r_mmod_Solvation_Energy-OPLS-2005>
-191.551879882812

> <b_mmod_Minimization_Converged-OPLS-2005>
0

> <r_mmod_RMS_Derivative-OPLS-2005>
4.59326267242432

$$$$
45
                    3D
 Structure written by MMmdl.
162170  0  0  1  0            999 V2000
  -30.5485  -15.1375   20.3611 C   0  0  0  0  0  0
  -30.4103  -12.7061   19.5529 C   0  0  0  0  0  0
  -29.5266  -12.5527   18.2936 C   0  0  0  0  0  0
  -28.0680  -12.3067   18.7064 C   0  0  0  0  0  0
  -27.6085  -13.2801   19.8221 C   0  0  2  0  0  0
  -28.6345  -13.4481   20.9635 C   0  0  0  0  0  0
  -25.2361  -13.8269   20.5741 C   0  0  0  0  0  0
  -24.1722  -13.0446   20.9251 C   0  0  0  0  0  0
  -24.6387  -11.6947   20.8761 C   0  0  0  0  0  0
  -23.9090  -10.4299   21.0404 C   0  0  0  0  0  0
  -24.3637   -9.4211   21.9182 C   0  0  0  0  0  0
  -23.6306   -8.2247   22.0754 C   0  0  0  0  0  0
  -22.4287   -8.0285   21.3542 C   0  0  0  0  0  0
  -21.9926   -9.0260   20.4645 C   0  0  0  0  0  0
  -22.7262  -10.2135   20.3054 C   0  0  0  0  0  0
  -21.6856   -6.0738   22.5278 C   0  0  0  0  0  0
  -21.4018   -6.5643   23.8211 C   0  0  0  0  0  0
  -21.3658   -5.6793   24.9173 C   0  0  0  0  0  0
  -21.6041   -4.3056   24.7223 C   0  0  0  0  0  0
  -21.8820   -3.8149   23.4343 C   0  0  0  0  0  0
  -21.9194   -4.6965   22.3400 C   0  0  0  0  0  0
  -22.7742  -13.5193   21.1902 C   0  0  0  0  0  0
  -22.1662   -4.2150   21.0977 F   0  0  0  0  0  0
  -21.5626   -3.4540   25.7736 F   0  0  0  0  0  0
  -29.9014  -13.8777   20.3596 N   0  0  0  0  0  0
  -26.2789  -12.9562   20.3206 N   0  0  0  0  0  0
  -25.9324  -11.6660   20.5722 N   0  0  0  0  0  0
  -22.0409  -12.8173   22.0462 N   0  0  0  0  0  0
  -25.4002  -15.2003   20.4195 N   0  0  0  0  0  0
  -31.7468  -15.0152   20.0840 O   0  0  0  0  0  0
  -21.6646   -6.8883   21.4239 O   0  0  0  0  0  0
  -22.3419  -14.5492   20.6744 O   0  0  0  0  0  0
  -24.6540  -31.8302   23.1754 C   0  0  0  0  0  0
  -25.9258  -32.4619   23.8192 C   0  0  1  0  0  0
  -27.2154  -27.0078   20.1676 C   0  0  0  0  0  0
  -25.5960  -33.8431   24.2106 N   0  0  0  0  0  0
  -23.4640  -30.4435   21.5218 C   0  0  2  0  0  0
  -24.9145  -28.8443   20.1009 C   0  0  0  0  0  0
  -22.7622  -29.4471   22.4798 C   0  0  0  0  0  0
  -18.0314  -28.1404   22.8474 C   0  0  0  0  0  0
  -24.1490  -36.7221   23.2646 C   0  0  0  0  0  0
  -26.0257  -30.6622   21.3917 C   0  0  0  0  0  0
  -26.0914  -29.2611   20.7327 C   0  0  0  0  0  0
  -27.2321  -28.3578   20.7488 C   0  0  0  0  0  0
  -26.0118  -26.7169   19.4912 C   0  0  0  0  0  0
  -24.8952  -27.5915   19.4625 C   0  0  0  0  0  0
  -23.6964  -29.7618   20.1439 C   0  0  0  0  0  0
  -25.4129  -36.2986   24.0306 C   0  0  1  0  0  0
  -20.5934  -28.3737   23.1211 C   0  0  2  0  0  0
  -20.6790  -26.9426   22.5408 C   0  0  0  0  0  0
  -19.5764  -26.6380   21.5216 C   0  0  0  0  0  0
  -18.1946  -26.7942   22.1626 C   0  0  0  0  0  0
  -19.1574  -28.8891   23.2833 C   0  0  0  0  0  0
  -18.9487  -30.1484   23.8864 C   0  0  0  0  0  0
  -17.6480  -30.6597   24.0558 C   0  0  0  0  0  0
  -25.9090  -34.9369   23.5024 C   0  0  0  0  0  0
  -16.5372  -29.9088   23.6341 C   0  0  0  0  0  0
  -16.7297  -28.6506   23.0361 C   0  0  0  0  0  0
  -26.4541  -31.6543   25.0693 C   0  0  0  0  0  0
  -25.3692  -31.3775   26.1368 C   0  0  0  0  0  0
  -27.0423  -30.2924   24.6368 C   0  0  0  0  0  0
  -27.6050  -32.4337   25.7484 C   0  0  0  0  0  0
  -27.5572  -37.1767   24.8467 C   0  0  0  0  0  0
  -21.4300  -29.3037   22.3561 N   0  0  0  0  0  0
  -26.4282  -37.3719   23.9409 N   0  0  0  0  0  0
  -24.7352  -31.0044   22.0838 N   0  0  0  0  0  0
  -23.4212  -28.8042   23.3009 O   0  0  0  0  0  0
  -28.2526  -25.9817   20.3484 O   0  0  0  0  0  0
  -26.5695  -34.8892   22.4618 O   0  0  0  0  0  0
  -23.5634  -32.1233   23.6906 O   0  0  0  0  0  0
  -30.5901  -19.2286   20.9037 C   0  0  0  0  0  0
  -28.7967  -17.3838   20.1586 C   0  0  0  0  0  0
  -30.0416  -16.7184   20.5451 C   0  0  0  0  0  0
  -30.9262  -17.8045   20.9509 C   0  0  0  0  0  0
  -29.3452  -19.8151   20.5009 C   0  0  0  0  0  0
  -33.4170  -17.7608   20.4486 C   0  0  0  0  0  0
  -28.6854  -21.5753   22.3009 C   0  0  0  0  0  0
  -30.0974  -24.5628   20.0161 C   0  0  0  0  0  0
  -28.3890  -24.7265   18.2392 C   0  0  0  0  0  0
  -32.3226  -17.5250   21.4983 C   0  0  0  0  0  0
  -28.1977  -22.8057   20.0464 C   0  0  0  0  0  0
  -29.0558  -21.4870   20.8138 C   0  0  2  0  0  0
  -28.5826  -24.5133   19.7549 C   0  0  0  0  0  0
  -28.4580  -18.7809   20.1869 N   0  0  0  0  0  0
  -31.4506  -12.8172   19.2459 H   0  0  0  0  0  0
  -30.3902  -11.7922   20.1488 H   0  0  0  0  0  0
  -29.8865  -11.7310   17.6731 H   0  0  0  0  0  0
  -29.5936  -13.4550   17.6841 H   0  0  0  0  0  0
  -27.9997  -11.2791   19.0656 H   0  0  0  0  0  0
  -27.4064  -12.3720   17.8418 H   0  0  0  0  0  0
  -27.5320  -14.2505   19.3312 H   0  0  0  0  0  0
  -28.7544  -12.5251   21.5322 H   0  0  0  0  0  0
  -28.2943  -14.2075   21.6694 H   0  0  0  0  0  0
  -25.2777   -9.5688   22.4762 H   0  0  0  0  0  0
  -24.0009   -7.4639   22.7478 H   0  0  0  0  0  0
  -21.0856   -8.8783   19.8953 H   0  0  0  0  0  0
  -22.3716  -10.9677   19.6167 H   0  0  0  0  0  0
  -21.2017   -7.6151   23.9715 H   0  0  0  0  0  0
  -21.1478   -6.0523   25.9075 H   0  0  0  0  0  0
  -22.0602   -2.7611   23.2841 H   0  0  0  0  0  0
  -22.4046  -11.9845   22.4854 H   0  0  0  0  0  0
  -21.1020  -13.1179   22.2669 H   0  0  0  0  0  0
  -24.6312  -15.8507   20.5399 H   0  0  0  0  0  0
  -26.2463  -15.6450   20.0909 H   0  0  0  0  0  0
  -26.7321  -32.5176   23.0904 H   0  0  0  0  0  0
  -25.0062  -33.9521   25.0227 H   0  0  0  0  0  0
  -22.7729  -31.2728   21.3574 H   0  0  0  0  0  0
  -23.3762  -35.9542   23.3285 H   0  0  0  0  0  0
  -24.3571  -36.8888   22.2066 H   0  0  0  0  0  0
  -23.7238  -37.6403   23.6710 H   0  0  0  0  0  0
  -26.1974  -31.4093   20.6155 H   0  0  0  0  0  0
  -26.8901  -30.7153   22.0420 H   0  0  0  0  0  0
  -28.1205  -28.6655   21.2816 H   0  0  0  0  0  0
  -25.8853  -25.7455   19.0400 H   0  0  0  0  0  0
  -23.9940  -27.2643   18.9623 H   0  0  0  0  0  0
  -23.8415  -30.5320   19.3856 H   0  0  0  0  0  0
  -22.8080  -29.2101   19.8315 H   0  0  0  0  0  0
  -25.1327  -36.1791   25.0799 H   0  0  0  0  0  0
  -21.0029  -28.3337   24.1331 H   0  0  0  0  0  0
  -20.5670  -26.2355   23.3640 H   0  0  0  0  0  0
  -21.6654  -26.7409   22.1214 H   0  0  0  0  0  0
  -19.6921  -25.6281   21.1269 H   0  0  0  0  0  0
  -19.6703  -27.3170   20.6729 H   0  0  0  0  0  0
  -17.4217  -26.6687   21.4028 H   0  0  0  0  0  0
  -18.0339  -26.0092   22.9030 H   0  0  0  0  0  0
  -19.7960  -30.7309   24.2220 H   0  0  0  0  0  0
  -17.5032  -31.6272   24.5165 H   0  0  0  0  0  0
  -15.5371  -30.2977   23.7683 H   0  0  0  0  0  0
  -15.8698  -28.0812   22.7097 H   0  0  0  0  0  0
  -24.5877  -30.7120   25.7684 H   0  0  0  0  0  0
  -24.8875  -32.2970   26.4702 H   0  0  0  0  0  0
  -25.7944  -30.9004   27.0207 H   0  0  0  0  0  0
  -26.3068  -29.6617   24.1364 H   0  0  0  0  0  0
  -27.3976  -29.7266   25.4991 H   0  0  0  0  0  0
  -27.9000  -30.4128   23.9747 H   0  0  0  0  0  0
  -27.2634  -33.3675   26.1961 H   0  0  0  0  0  0
  -28.3910  -32.6839   25.0346 H   0  0  0  0  0  0
  -28.0661  -31.8530   26.5483 H   0  0  0  0  0  0
  -28.2578  -38.0074   24.7513 H   0  0  0  0  0  0
  -28.1079  -36.2603   24.6294 H   0  0  0  0  0  0
  -27.2290  -37.1411   25.8870 H   0  0  0  0  0  0
  -20.9534  -29.8732   21.6708 H   0  0  0  0  0  0
  -26.0134  -38.2779   24.1416 H   0  0  0  0  0  0
  -31.3429  -19.9213   21.2570 H   0  0  0  0  0  0
  -27.9979  -16.7583   19.7885 H   0  0  0  0  0  0
  -33.2870  -17.1104   19.5839 H   0  0  0  0  0  0
  -34.4041  -17.5648   20.8666 H   0  0  0  0  0  0
  -33.4043  -18.7913   20.0929 H   0  0  0  0  0  0
  -29.4254  -21.0691   22.9216 H   0  0  0  0  0  0
  -27.7197  -21.1047   22.4866 H   0  0  0  0  0  0
  -28.6262  -22.6101   22.6390 H   0  0  0  0  0  0
  -30.6262  -23.7697   19.4867 H   0  0  0  0  0  0
  -30.3125  -24.4498   21.0791 H   0  0  0  0  0  0
  -30.5369  -25.5075   19.6927 H   0  0  0  0  0  0
  -28.9664  -24.0073   17.6568 H   0  0  0  0  0  0
  -28.7110  -25.7190   17.9229 H   0  0  0  0  0  0
  -27.3495  -24.6011   17.9427 H   0  0  0  0  0  0
  -32.3978  -16.5265   21.9263 H   0  0  0  0  0  0
  -32.4980  -18.1900   22.3454 H   0  0  0  0  0  0
  -27.1684  -22.7721   20.4042 H   0  0  0  0  0  0
  -28.0957  -22.3966   19.0415 H   0  0  0  0  0  0
  -30.0796  -21.8527   20.7536 H   0  0  0  0  0  0
  1 25  1  0  0  0
  1 30  2  0  0  0
  1 73  1  0  0  0
  2  3  1  0  0  0
  2 25  1  0  0  0
  2 85  1  0  0  0
  2 86  1  0  0  0
  3  4  1  0  0  0
  3 87  1  0  0  0
  3 88  1  0  0  0
  4  5  1  0  0  0
  4 89  1  0  0  0
  4 90  1  0  0  0
  5  6  1  0  0  0
  5 26  1  0  0  0
  5 91  1  0  0  0
  6 25  1  0  0  0
  6 92  1  0  0  0
  6 93  1  0  0  0
  7  8  2  0  0  0
  7 26  1  0  0  0
  7 29  1  0  0  0
  8  9  1  0  0  0
  8 22  1  0  0  0
  9 10  1  0  0  0
  9 27  2  0  0  0
 10 11  2  0  0  0
 10 15  1  0  0  0
 11 12  1  0  0  0
 11 94  1  0  0  0
 12 13  2  0  0  0
 12 95  1  0  0  0
 13 14  1  0  0  0
 13 31  1  0  0  0
 14 15  2  0  0  0
 14 96  1  0  0  0
 15 97  1  0  0  0
 16 17  2  0  0  0
 16 21  1  0  0  0
 16 31  1  0  0  0
 17 18  1  0  0  0
 17 98  1  0  0  0
 18 19  2  0  0  0
 18 99  1  0  0  0
 19 20  1  0  0  0
 19 24  1  0  0  0
 20 21  2  0  0  0
 20100  1  0  0  0
 21 23  1  0  0  0
 22 28  1  0  0  0
 22 32  2  0  0  0
 26 27  1  0  0  0
 28101  1  0  0  0
 28102  1  0  0  0
 29103  1  0  0  0
 29104  1  0  0  0
 33 34  1  0  0  0
 33 66  1  0  0  0
 33 70  2  0  0  0
 34 36  1  0  0  0
 34 59  1  0  0  0
 34105  1  0  0  0
 35 44  2  0  0  0
 35 45  1  0  0  0
 35 68  1  0  0  0
 36 56  1  0  0  0
 36106  1  0  0  0
 37 39  1  0  0  0
 37 47  1  0  0  0
 37 66  1  0  0  0
 37107  1  0  0  0
 38 43  2  0  0  0
 38 46  1  0  0  0
 38 47  1  0  0  0
 39 64  1  0  0  0
 39 67  2  0  0  0
 40 52  1  0  0  0
 40 53  2  0  0  0
 40 58  1  0  0  0
 41108  1  0  0  0
 41109  1  0  0  0
 41110  1  0  0  0
 41 48  1  0  0  0
 42 43  1  0  0  0
 42 66  1  0  0  0
 42111  1  0  0  0
 42112  1  0  0  0
 43 44  1  0  0  0
 44113  1  0  0  0
 45 46  2  0  0  0
 45114  1  0  0  0
 46115  1  0  0  0
 47116  1  0  0  0
 47117  1  0  0  0
 48 56  1  0  0  0
 48 65  1  0  0  0
 48118  1  0  0  0
 49 50  1  0  0  0
 49 53  1  0  0  0
 49 64  1  0  0  0
 49119  1  0  0  0
 50 51  1  0  0  0
 50120  1  0  0  0
 50121  1  0  0  0
 51 52  1  0  0  0
 51122  1  0  0  0
 51123  1  0  0  0
 52124  1  0  0  0
 52125  1  0  0  0
 53 54  1  0  0  0
 54 55  2  0  0  0
 54126  1  0  0  0
 55 57  1  0  0  0
 55127  1  0  0  0
 56 69  2  0  0  0
 57 58  2  0  0  0
 57128  1  0  0  0
 58129  1  0  0  0
 59 60  1  0  0  0
 59 61  1  0  0  0
 59 62  1  0  0  0
 60130  1  0  0  0
 60131  1  0  0  0
 60132  1  0  0  0
 61133  1  0  0  0
 61134  1  0  0  0
 61135  1  0  0  0
 62136  1  0  0  0
 62137  1  0  0  0
 62138  1  0  0  0
 63 65  1  0  0  0
 63139  1  0  0  0
 63140  1  0  0  0
 63141  1  0  0  0
 64142  1  0  0  0
 65143  1  0  0  0
 68 83  1  0  0  0
 71 74  2  0  0  0
 71 75  1  0  0  0
 71144  1  0  0  0
 72 73  2  0  0  0
 72 84  1  0  0  0
 72145  1  0  0  0
 73 74  1  0  0  0
 74 80  1  0  0  0
 75 82  1  0  0  0
 75 84  2  0  0  0
 76 80  1  0  0  0
 76146  1  0  0  0
 76147  1  0  0  0
 76148  1  0  0  0
 77149  1  0  0  0
 77150  1  0  0  0
 77151  1  0  0  0
 77 82  1  0  0  0
 78152  1  0  0  0
 78153  1  0  0  0
 78154  1  0  0  0
 78 83  1  0  0  0
 79 83  1  0  0  0
 79155  1  0  0  0
 79156  1  0  0  0
 79157  1  0  0  0
 80158  1  0  0  0
 80159  1  0  0  0
 81 82  1  0  0  0
 81 83  1  0  0  0
 81160  1  0  0  0
 81161  1  0  0  0
 82162  1  0  0  0
M  ISO  4   1 100  68 101  73 100  83 101
M  END
> <chiral flag>
0

> <version>
0

> <s_m_source_file>
/data/baiqing/PycharmProjects/Reinvent-master-3.2/result/LINK_invent/BTK/process_docking_weight1_custom_sum_contain_oxygen_bond_distance_aromatic_linkinvent_7_9_3/rearranged_h_0088.sdf

> <i_m_source_file_index>
45

> <r_mmod_Potential_Energy-OPLS-2005>
972.275024414062

> <r_mmod_Stretch_Energy-OPLS-2005>
438.24560546875

> <r_mmod_Bend_Energy-OPLS-2005>
533.329528808594

> <r_mmod_Torsional_Energy-OPLS-2005>
205.673767089844

> <r_mmod_Improper_Torsional_Energy-OPLS-2005>
5.92845249176025

> <r_mmod_Van_der_Waal_Energy-OPLS-2005>
138.506530761719

> <r_mmod_Electrostatic_Energy-OPLS-2005>
-494.298797607422

> <r_mmod_Solvation_Energy-OPLS-2005>
-190.453109741211

> <b_mmod_Minimization_Converged-OPLS-2005>
0

> <r_mmod_RMS_Derivative-OPLS-2005>
0.580720782279968

$$$$
46
                    3D
 Structure written by MMmdl.
169177  0  0  1  0            999 V2000
  -30.5519  -14.8058   20.4641 C   0  0  0  0  0  0
  -30.4510  -12.5038   19.4540 C   0  0  0  0  0  0
  -29.5108  -12.5086   18.2266 C   0  0  0  0  0  0
  -28.0388  -12.3202   18.6490 C   0  0  0  0  0  0
  -27.6390  -13.2253   19.8432 C   0  0  2  0  0  0
  -28.6891  -13.1632   20.9715 C   0  0  0  0  0  0
  -25.2520  -13.8174   20.5692 C   0  0  0  0  0  0
  -24.1807  -13.0435   20.9218 C   0  0  0  0  0  0
  -24.6387  -11.6908   20.8759 C   0  0  0  0  0  0
  -23.9064  -10.4290   21.0419 C   0  0  0  0  0  0
  -24.3618   -9.4201   21.9189 C   0  0  0  0  0  0
  -23.6295   -8.2239   22.0752 C   0  0  0  0  0  0
  -22.4280   -8.0279   21.3541 C   0  0  0  0  0  0
  -21.9914   -9.0251   20.4642 C   0  0  0  0  0  0
  -22.7242  -10.2132   20.3059 C   0  0  0  0  0  0
  -21.6844   -6.0736   22.5276 C   0  0  0  0  0  0
  -21.4012   -6.5642   23.8210 C   0  0  0  0  0  0
  -21.3656   -5.6794   24.9172 C   0  0  0  0  0  0
  -21.6044   -4.3054   24.7222 C   0  0  0  0  0  0
  -21.8820   -3.8147   23.4340 C   0  0  0  0  0  0
  -21.9197   -4.6967   22.3398 C   0  0  0  0  0  0
  -22.7831  -13.5222   21.1881 C   0  0  0  0  0  0
  -22.1664   -4.2152   21.0978 F   0  0  0  0  0  0
  -21.5630   -3.4538   25.7734 F   0  0  0  0  0  0
  -29.9747  -13.5564   20.3784 N   0  0  0  0  0  0
  -26.2926  -12.9358   20.3253 N   0  0  0  0  0  0
  -25.9314  -11.6512   20.5749 N   0  0  0  0  0  0
  -22.0475  -12.8204   22.0426 N   0  0  0  0  0  0
  -25.4210  -15.1898   20.4095 N   0  0  0  0  0  0
  -31.7586  -14.9450   20.2470 O   0  0  0  0  0  0
  -21.6642   -6.8878   21.4238 O   0  0  0  0  0  0
  -22.3522  -14.5530   20.6727 O   0  0  0  0  0  0
  -24.6319  -31.8513   23.1929 C   0  0  0  0  0  0
  -25.9128  -32.4737   23.8289 C   0  0  1  0  0  0
  -27.2304  -27.2215   20.1550 C   0  0  0  0  0  0
  -25.5918  -33.8537   24.2216 N   0  0  0  0  0  0
  -23.4321  -30.4671   21.5381 C   0  0  2  0  0  0
  -24.8814  -28.8927   20.1247 C   0  0  0  0  0  0
  -22.7513  -29.4566   22.4915 C   0  0  0  0  0  0
  -18.0295  -28.1377   22.8485 C   0  0  0  0  0  0
  -24.1497  -36.7275   23.2644 C   0  0  0  0  0  0
  -25.9777  -30.7508   21.3782 C   0  0  0  0  0  0
  -26.0519  -29.3637   20.7332 C   0  0  0  0  0  0
  -27.2281  -28.5433   20.7282 C   0  0  0  0  0  0
  -26.0375  -26.8178   19.5226 C   0  0  0  0  0  0
  -24.8800  -27.6277   19.5107 C   0  0  0  0  0  0
  -23.6545  -29.7872   20.1602 C   0  0  0  0  0  0
  -25.4124  -36.3051   24.0316 C   0  0  1  0  0  0
  -20.5899  -28.3686   23.1269 C   0  0  2  0  0  0
  -20.6784  -26.9404   22.5415 C   0  0  0  0  0  0
  -19.5759  -26.6374   21.5214 C   0  0  0  0  0  0
  -18.1930  -26.7920   22.1618 C   0  0  0  0  0  0
  -19.1548  -28.8851   23.2868 C   0  0  0  0  0  0
  -18.9466  -30.1455   23.8886 C   0  0  0  0  0  0
  -17.6462  -30.6584   24.0557 C   0  0  0  0  0  0
  -25.9067  -34.9427   23.5077 C   0  0  0  0  0  0
  -16.5349  -29.9080   23.6333 C   0  0  0  0  0  0
  -16.7279  -28.6500   23.0353 C   0  0  0  0  0  0
  -26.4496  -31.6570   25.0692 C   0  0  0  0  0  0
  -25.3710  -31.3706   26.1411 C   0  0  0  0  0  0
  -27.0357  -30.2982   24.6196 C   0  0  0  0  0  0
  -27.6048  -32.4326   25.7464 C   0  0  0  0  0  0
  -27.5584  -37.1782   24.8462 C   0  0  0  0  0  0
  -21.4217  -29.3028   22.3657 N   0  0  0  0  0  0
  -26.4300  -37.3746   23.9405 N   0  0  0  0  0  0
  -24.6999  -31.0433   22.0922 N   0  0  0  0  0  0
  -23.4194  -28.8128   23.3046 O   0  0  0  0  0  0
  -28.3818  -26.4012   20.0696 O   0  0  0  0  0  0
  -26.5655  -34.8905   22.4658 O   0  0  0  0  0  0
  -23.5459  -32.1360   23.7193 O   0  0  0  0  0  0
  -29.2109  -21.2437   20.5171 C   0  0  0  0  0  0
  -28.2766  -22.0934   19.8882 C   0  0  0  0  0  0
  -27.6768  -21.1993   18.9289 C   0  0  0  0  0  0
  -28.1697  -19.9155   19.0639 C   0  0  0  0  0  0
  -26.6410  -21.6058   17.9038 C   0  0  0  0  0  0
  -29.1890  -16.8910   15.0983 C   0  0  0  0  0  0
  -26.4698  -23.5730   20.9132 C   0  0  0  0  0  0
  -27.7972  -18.6652   18.3124 C   0  0  0  0  0  0
  -28.3769  -17.0865   16.3846 C   0  0  0  0  0  0
  -28.5587  -18.4890   16.9882 C   0  0  0  0  0  0
  -30.1255  -18.6808   20.2312 C   0  0  0  0  0  0
  -29.7565  -17.3505   21.1028 C   0  0  0  0  0  0
  -28.5680  -24.9482   20.4991 C   0  0  0  0  0  0
  -27.7332  -23.6330   20.0375 C   0  0  1  0  0  0
  -29.1832  -19.8950   20.0097 N   0  0  0  0  0  0
  -29.6853  -15.8914   20.5919 N   0  0  0  0  0  0
  -31.4805  -12.6806   19.1370 H   0  0  0  0  0  0
  -30.4468  -11.5311   19.9475 H   0  0  0  0  0  0
  -29.8001  -11.7218   17.5283 H   0  0  0  0  0  0
  -29.6164  -13.4504   17.6863 H   0  0  0  0  0  0
  -27.9073  -11.2729   18.9233 H   0  0  0  0  0  0
  -27.3751  -12.4962   17.8015 H   0  0  0  0  0  0
  -27.6269  -14.2428   19.4534 H   0  0  0  0  0  0
  -28.7493  -12.1589   21.3936 H   0  0  0  0  0  0
  -28.4153  -13.8238   21.7963 H   0  0  0  0  0  0
  -25.2758   -9.5678   22.4771 H   0  0  0  0  0  0
  -23.9999   -7.4628   22.7469 H   0  0  0  0  0  0
  -21.0849   -8.8775   19.8944 H   0  0  0  0  0  0
  -22.3700  -10.9678   19.6179 H   0  0  0  0  0  0
  -21.1998   -7.6147   23.9711 H   0  0  0  0  0  0
  -21.1477   -6.0523   25.9075 H   0  0  0  0  0  0
  -22.0604   -2.7609   23.2841 H   0  0  0  0  0  0
  -22.4097  -11.9863   22.4802 H   0  0  0  0  0  0
  -21.1092  -13.1218   22.2643 H   0  0  0  0  0  0
  -24.6490  -15.8383   20.5193 H   0  0  0  0  0  0
  -26.2542  -15.6290   20.0430 H   0  0  0  0  0  0
  -26.7194  -32.5381   23.1023 H   0  0  0  0  0  0
  -25.0024  -33.9659   25.0332 H   0  0  0  0  0  0
  -22.7298  -31.2891   21.3829 H   0  0  0  0  0  0
  -23.3764  -35.9605   23.3297 H   0  0  0  0  0  0
  -24.3576  -36.8923   22.2064 H   0  0  0  0  0  0
  -23.7261  -37.6465   23.6693 H   0  0  0  0  0  0
  -26.1169  -31.5053   20.6028 H   0  0  0  0  0  0
  -26.8537  -30.8075   22.0134 H   0  0  0  0  0  0
  -28.1358  -28.9107   21.1867 H   0  0  0  0  0  0
  -26.0028  -25.8606   19.0232 H   0  0  0  0  0  0
  -23.9851  -27.2637   19.0234 H   0  0  0  0  0  0
  -23.7806  -30.5558   19.3970 H   0  0  0  0  0  0
  -22.7725  -29.2186   19.8585 H   0  0  0  0  0  0
  -25.1309  -36.1890   25.0810 H   0  0  0  0  0  0
  -20.9972  -28.3272   24.1398 H   0  0  0  0  0  0
  -20.5681  -26.2290   23.3617 H   0  0  0  0  0  0
  -21.6648  -26.7433   22.1203 H   0  0  0  0  0  0
  -19.6926  -25.6286   21.1246 H   0  0  0  0  0  0
  -19.6703  -27.3188   20.6748 H   0  0  0  0  0  0
  -17.4206  -26.6666   21.4019 H   0  0  0  0  0  0
  -18.0328  -26.0061   22.9010 H   0  0  0  0  0  0
  -19.7941  -30.7269   24.2250 H   0  0  0  0  0  0
  -17.5019  -31.6268   24.5152 H   0  0  0  0  0  0
  -15.5347  -30.2968   23.7685 H   0  0  0  0  0  0
  -15.8675  -28.0822   22.7065 H   0  0  0  0  0  0
  -24.5907  -30.7042   25.7719 H   0  0  0  0  0  0
  -24.8870  -32.2867   26.4811 H   0  0  0  0  0  0
  -25.8012  -30.8896   27.0209 H   0  0  0  0  0  0
  -26.2946  -29.6690   24.1248 H   0  0  0  0  0  0
  -27.4079  -29.7279   25.4718 H   0  0  0  0  0  0
  -27.8805  -30.4249   23.9414 H   0  0  0  0  0  0
  -27.2673  -33.3660   26.1979 H   0  0  0  0  0  0
  -28.3875  -32.6828   25.0289 H   0  0  0  0  0  0
  -28.0696  -31.8492   26.5423 H   0  0  0  0  0  0
  -28.2578  -38.0098   24.7523 H   0  0  0  0  0  0
  -28.1100  -36.2622   24.6277 H   0  0  0  0  0  0
  -27.2289  -37.1420   25.8859 H   0  0  0  0  0  0
  -20.9416  -29.8741   21.6841 H   0  0  0  0  0  0
  -26.0174  -38.2819   24.1408 H   0  0  0  0  0  0
  -29.9222  -21.4854   21.2967 H   0  0  0  0  0  0
  -25.7737  -22.0631   18.3761 H   0  0  0  0  0  0
  -26.2881  -20.7578   17.3189 H   0  0  0  0  0  0
  -27.0703  -22.3268   17.2074 H   0  0  0  0  0  0
  -29.0492  -15.8861   14.6973 H   0  0  0  0  0  0
  -30.2557  -17.0278   15.2798 H   0  0  0  0  0  0
  -28.8853  -17.6003   14.3277 H   0  0  0  0  0  0
  -25.7184  -22.9048   20.4968 H   0  0  0  0  0  0
  -26.0034  -24.5494   21.0296 H   0  0  0  0  0  0
  -26.7128  -23.2093   21.9124 H   0  0  0  0  0  0
  -26.7236  -18.6569   18.1191 H   0  0  0  0  0  0
  -27.9619  -17.7931   18.9445 H   0  0  0  0  0  0
  -28.6824  -16.3323   17.1118 H   0  0  0  0  0  0
  -27.3198  -16.9076   16.1810 H   0  0  0  0  0  0
  -29.6221  -18.6623   17.1534 H   0  0  0  0  0  0
  -28.2360  -19.2520   16.2782 H   0  0  0  0  0  0
  -30.4668  -18.3480   19.2527 H   0  0  0  0  0  0
  -31.0289  -19.0965   20.6781 H   0  0  0  0  0  0
  -28.7922  -17.5470   21.5716 H   0  0  0  0  0  0
  -30.4508  -17.3253   21.9429 H   0  0  0  0  0  0
  -29.5918  -24.7446   20.1850 H   0  0  0  0  0  0
  -28.6249  -24.9471   21.5882 H   0  0  0  0  0  0
  -27.4184  -23.8953   19.0280 H   0  0  0  0  0  0
  -28.7309  -15.5699   20.5529 H   0  0  0  0  0  0
  1 25  1  0  0  0
  1 30  2  0  0  0
  1 86  1  0  0  0
  2  3  1  0  0  0
  2 25  1  0  0  0
  2 87  1  0  0  0
  2 88  1  0  0  0
  3  4  1  0  0  0
  3 89  1  0  0  0
  3 90  1  0  0  0
  4  5  1  0  0  0
  4 91  1  0  0  0
  4 92  1  0  0  0
  5  6  1  0  0  0
  5 26  1  0  0  0
  5 93  1  0  0  0
  6 25  1  0  0  0
  6 94  1  0  0  0
  6 95  1  0  0  0
  7  8  2  0  0  0
  7 26  1  0  0  0
  7 29  1  0  0  0
  8  9  1  0  0  0
  8 22  1  0  0  0
  9 10  1  0  0  0
  9 27  2  0  0  0
 10 11  2  0  0  0
 10 15  1  0  0  0
 11 12  1  0  0  0
 11 96  1  0  0  0
 12 13  2  0  0  0
 12 97  1  0  0  0
 13 14  1  0  0  0
 13 31  1  0  0  0
 14 15  2  0  0  0
 14 98  1  0  0  0
 15 99  1  0  0  0
 16 17  2  0  0  0
 16 21  1  0  0  0
 16 31  1  0  0  0
 17 18  1  0  0  0
 17100  1  0  0  0
 18 19  2  0  0  0
 18101  1  0  0  0
 19 20  1  0  0  0
 19 24  1  0  0  0
 20 21  2  0  0  0
 20102  1  0  0  0
 21 23  1  0  0  0
 22 28  1  0  0  0
 22 32  2  0  0  0
 26 27  1  0  0  0
 28103  1  0  0  0
 28104  1  0  0  0
 29105  1  0  0  0
 29106  1  0  0  0
 33 34  1  0  0  0
 33 66  1  0  0  0
 33 70  2  0  0  0
 34 36  1  0  0  0
 34 59  1  0  0  0
 34107  1  0  0  0
 35 44  2  0  0  0
 35 45  1  0  0  0
 35 68  1  0  0  0
 36 56  1  0  0  0
 36108  1  0  0  0
 37 39  1  0  0  0
 37 47  1  0  0  0
 37 66  1  0  0  0
 37109  1  0  0  0
 38 43  2  0  0  0
 38 46  1  0  0  0
 38 47  1  0  0  0
 39 64  1  0  0  0
 39 67  2  0  0  0
 40 52  1  0  0  0
 40 53  2  0  0  0
 40 58  1  0  0  0
 41110  1  0  0  0
 41111  1  0  0  0
 41112  1  0  0  0
 41 48  1  0  0  0
 42 43  1  0  0  0
 42 66  1  0  0  0
 42113  1  0  0  0
 42114  1  0  0  0
 43 44  1  0  0  0
 44115  1  0  0  0
 45 46  2  0  0  0
 45116  1  0  0  0
 46117  1  0  0  0
 47118  1  0  0  0
 47119  1  0  0  0
 48 56  1  0  0  0
 48 65  1  0  0  0
 48120  1  0  0  0
 49 50  1  0  0  0
 49 53  1  0  0  0
 49 64  1  0  0  0
 49121  1  0  0  0
 50 51  1  0  0  0
 50122  1  0  0  0
 50123  1  0  0  0
 51 52  1  0  0  0
 51124  1  0  0  0
 51125  1  0  0  0
 52126  1  0  0  0
 52127  1  0  0  0
 53 54  1  0  0  0
 54 55  2  0  0  0
 54128  1  0  0  0
 55 57  1  0  0  0
 55129  1  0  0  0
 56 69  2  0  0  0
 57 58  2  0  0  0
 57130  1  0  0  0
 58131  1  0  0  0
 59 60  1  0  0  0
 59 61  1  0  0  0
 59 62  1  0  0  0
 60132  1  0  0  0
 60133  1  0  0  0
 60134  1  0  0  0
 61135  1  0  0  0
 61136  1  0  0  0
 61137  1  0  0  0
 62138  1  0  0  0
 62139  1  0  0  0
 62140  1  0  0  0
 63 65  1  0  0  0
 63141  1  0  0  0
 63142  1  0  0  0
 63143  1  0  0  0
 64144  1  0  0  0
 65145  1  0  0  0
 68 83  1  0  0  0
 71 72  2  0  0  0
 71 85  1  0  0  0
 71146  1  0  0  0
 72 73  1  0  0  0
 72 84  1  0  0  0
 73 74  2  0  0  0
 73 75  1  0  0  0
 74 78  1  0  0  0
 74 85  1  0  0  0
 75147  1  0  0  0
 75148  1  0  0  0
 75149  1  0  0  0
 76 79  1  0  0  0
 76150  1  0  0  0
 76151  1  0  0  0
 76152  1  0  0  0
 77153  1  0  0  0
 77154  1  0  0  0
 77155  1  0  0  0
 77 84  1  0  0  0
 78 80  1  0  0  0
 78156  1  0  0  0
 78157  1  0  0  0
 79 80  1  0  0  0
 79158  1  0  0  0
 79159  1  0  0  0
 80160  1  0  0  0
 80161  1  0  0  0
 81 82  1  0  0  0
 81 85  1  0  0  0
 81162  1  0  0  0
 81163  1  0  0  0
 82 86  1  0  0  0
 82164  1  0  0  0
 82165  1  0  0  0
 83 84  1  0  0  0
 83166  1  0  0  0
 83167  1  0  0  0
 84168  1  0  0  0
 86169  1  0  0  0
M  ISO  4   1 100  68 101  83 101  86 100
M  END
> <chiral flag>
0

> <version>
0

> <s_m_source_file>
/data/baiqing/PycharmProjects/Reinvent-master-3.2/result/LINK_invent/BTK/process_docking_weight1_custom_sum_contain_oxygen_bond_distance_aromatic_linkinvent_7_9_3/rearranged_h_0088.sdf

> <i_m_source_file_index>
46

> <r_mmod_Potential_Energy-OPLS-2005>
310.441223144531

> <r_mmod_Stretch_Energy-OPLS-2005>
157.81120300293

> <r_mmod_Bend_Energy-OPLS-2005>
285.504638671875

> <r_mmod_Torsional_Energy-OPLS-2005>
263.527923583984

> <r_mmod_Improper_Torsional_Energy-OPLS-2005>
6.95976305007935

> <r_mmod_Van_der_Waal_Energy-OPLS-2005>
96.5308532714844

> <r_mmod_Electrostatic_Energy-OPLS-2005>
-397.181060791016

> <r_mmod_Solvation_Energy-OPLS-2005>
-208.694976806641

> <b_mmod_Minimization_Converged-OPLS-2005>
0

> <r_mmod_RMS_Derivative-OPLS-2005>
1.53981935977936

$$$$
47
                    3D
 Structure written by MMmdl.
161169  0  0  1  0            999 V2000
  -30.4685  -15.0178   20.4319 C   0  0  0  0  0  0
  -30.4732  -12.6420   19.5185 C   0  0  0  0  0  0
  -29.5686  -12.5619   18.2673 C   0  0  0  0  0  0
  -28.0797  -12.3641   18.6363 C   0  0  0  0  0  0
  -27.6435  -13.2414   19.8403 C   0  0  2  0  0  0
  -28.6786  -13.2452   20.9825 C   0  0  0  0  0  0
  -25.2529  -13.8192   20.5606 C   0  0  0  0  0  0
  -24.1843  -13.0418   20.9170 C   0  0  0  0  0  0
  -24.6410  -11.6881   20.8646 C   0  0  0  0  0  0
  -23.9005  -10.4300   21.0316 C   0  0  0  0  0  0
  -24.3555   -9.4260   21.9151 C   0  0  0  0  0  0
  -23.6300   -8.2249   22.0720 C   0  0  0  0  0  0
  -22.4277   -8.0251   21.3501 C   0  0  0  0  0  0
  -21.9865   -9.0201   20.4578 C   0  0  0  0  0  0
  -22.7139  -10.2132   20.2987 C   0  0  0  0  0  0
  -21.6866   -6.0730   22.5286 C   0  0  0  0  0  0
  -21.4008   -6.5613   23.8219 C   0  0  0  0  0  0
  -21.3696   -5.6783   24.9184 C   0  0  0  0  0  0
  -21.6036   -4.3038   24.7216 C   0  0  0  0  0  0
  -21.8834   -3.8134   23.4342 C   0  0  0  0  0  0
  -21.9205   -4.6942   22.3398 C   0  0  0  0  0  0
  -22.7848  -13.5189   21.1819 C   0  0  0  0  0  0
  -22.1646   -4.2131   21.0991 F   0  0  0  0  0  0
  -21.5669   -3.4549   25.7756 F   0  0  0  0  0  0
  -29.9541  -13.7120   20.4138 N   0  0  0  0  0  0
  -26.2941  -12.9377   20.3075 N   0  0  0  0  0  0
  -25.9341  -11.6520   20.5559 N   0  0  0  0  0  0
  -22.0420  -12.8230   22.0365 N   0  0  0  0  0  0
  -25.4296  -15.1954   20.4152 N   0  0  0  0  0  0
  -31.6424  -15.1565   20.0628 O   0  0  0  0  0  0
  -21.6601   -6.8869   21.4221 O   0  0  0  0  0  0
  -22.3527  -14.5502   20.6686 O   0  0  0  0  0  0
  -24.6512  -31.8402   23.1876 C   0  0  0  0  0  0
  -25.9201  -32.4701   23.8329 C   0  0  1  0  0  0
  -27.2027  -27.0642   20.1764 C   0  0  0  0  0  0
  -25.5911  -33.8510   24.2219 N   0  0  0  0  0  0
  -23.4581  -30.4576   21.5351 C   0  0  2  0  0  0
  -24.9063  -28.8624   20.1296 C   0  0  0  0  0  0
  -22.7590  -29.4531   22.4868 C   0  0  0  0  0  0
  -18.0311  -28.1403   22.8471 C   0  0  0  0  0  0
  -24.1463  -36.7239   23.2650 C   0  0  0  0  0  0
  -26.0202  -30.6824   21.4046 C   0  0  0  0  0  0
  -26.0853  -29.2834   20.7597 C   0  0  0  0  0  0
  -27.2392  -28.3971   20.7724 C   0  0  0  0  0  0
  -25.9991  -26.7594   19.5090 C   0  0  0  0  0  0
  -24.8745  -27.6150   19.4931 C   0  0  0  0  0  0
  -23.6906  -29.7807   20.1606 C   0  0  0  0  0  0
  -25.4096  -36.3040   24.0346 C   0  0  1  0  0  0
  -20.5927  -28.3753   23.1216 C   0  0  2  0  0  0
  -20.6794  -26.9447   22.5397 C   0  0  0  0  0  0
  -19.5763  -26.6380   21.5207 C   0  0  0  0  0  0
  -18.1942  -26.7943   22.1614 C   0  0  0  0  0  0
  -19.1558  -28.8881   23.2839 C   0  0  0  0  0  0
  -18.9489  -30.1482   23.8874 C   0  0  0  0  0  0
  -17.6482  -30.6604   24.0547 C   0  0  0  0  0  0
  -25.9066  -34.9414   23.5123 C   0  0  0  0  0  0
  -16.5368  -29.9110   23.6330 C   0  0  0  0  0  0
  -16.7293  -28.6514   23.0364 C   0  0  0  0  0  0
  -26.4449  -31.6600   25.0818 C   0  0  0  0  0  0
  -25.3592  -31.3818   26.1509 C   0  0  0  0  0  0
  -27.0349  -30.3021   24.6452 C   0  0  0  0  0  0
  -27.6025  -32.4325   25.7566 C   0  0  0  0  0  0
  -27.5600  -37.1745   24.8425 C   0  0  0  0  0  0
  -21.4282  -29.3071   22.3605 N   0  0  0  0  0  0
  -26.4221  -37.3799   23.9475 N   0  0  0  0  0  0
  -24.7315  -31.0178   22.0976 N   0  0  0  0  0  0
  -23.4210  -28.8112   23.3063 O   0  0  0  0  0  0
  -28.2108  -26.0150   20.1008 O   0  0  0  0  0  0
  -26.5668  -34.8909   22.4714 O   0  0  0  0  0  0
  -23.5587  -32.1299   23.7024 O   0  0  0  0  0  0
  -29.1145  -22.0770   20.5191 C   0  0  0  0  0  0
  -28.3667  -23.1869   21.2200 C   0  0  0  0  0  0
  -27.6674  -22.6398   22.3648 C   0  0  0  0  0  0
  -29.0991  -20.6221   20.9248 C   0  0  0  0  0  0
  -27.7571  -21.2593   22.7291 C   0  0  0  0  0  0
  -26.8880  -23.5596   23.3052 C   0  0  0  0  0  0
  -28.2336  -20.9572   25.2067 C   0  0  0  0  0  0
  -29.5961  -25.4535   21.9461 C   0  0  0  0  0  0
  -29.9074  -19.2200   20.4784 C   0  0  0  0  0  0
  -27.2583  -20.6636   24.0521 C   0  0  0  0  0  0
  -29.1869  -17.6762   20.5946 C   0  0  0  0  0  0
  -28.3977  -24.9086   21.1714 C   0  0  1  0  0  0
  -28.4267  -20.3337   22.0365 N   0  0  0  0  0  0
  -29.5966  -16.1085   20.7165 N   0  0  0  0  0  0
  -31.4984  -12.8581   19.2062 H   0  0  0  0  0  0
  -30.5105  -11.6837   20.0420 H   0  0  0  0  0  0
  -29.9177  -11.7538   17.6235 H   0  0  0  0  0  0
  -29.6827  -13.4849   17.6980 H   0  0  0  0  0  0
  -27.9156  -11.3136   18.8617 H   0  0  0  0  0  0
  -27.4574  -12.5810   17.7688 H   0  0  0  0  0  0
  -27.6081  -14.2584   19.4592 H   0  0  0  0  0  0
  -28.7788  -12.2408   21.4056 H   0  0  0  0  0  0
  -28.3440  -13.8799   21.8031 H   0  0  0  0  0  0
  -25.2701   -9.5813   22.4738 H   0  0  0  0  0  0
  -24.0088   -7.4602   22.7406 H   0  0  0  0  0  0
  -21.0819   -8.8588   19.8863 H   0  0  0  0  0  0
  -22.3498  -10.9622   19.6099 H   0  0  0  0  0  0
  -21.1938   -7.6120   23.9734 H   0  0  0  0  0  0
  -21.1527   -6.0473   25.9098 H   0  0  0  0  0  0
  -22.0596   -2.7569   23.2813 H   0  0  0  0  0  0
  -22.3979  -11.9926   22.4912 H   0  0  0  0  0  0
  -21.0967  -13.1243   22.2377 H   0  0  0  0  0  0
  -24.6699  -15.8551   20.5513 H   0  0  0  0  0  0
  -26.2706  -15.6234   20.0503 H   0  0  0  0  0  0
  -26.7279  -32.5270   23.1076 H   0  0  0  0  0  0
  -24.9998  -33.9617   25.0319 H   0  0  0  0  0  0
  -22.7685  -31.2876   21.3745 H   0  0  0  0  0  0
  -23.3817  -35.9458   23.3127 H   0  0  0  0  0  0
  -24.3608  -36.9058   22.2097 H   0  0  0  0  0  0
  -23.7035  -37.6317   23.6779 H   0  0  0  0  0  0
  -26.1805  -31.4165   20.6149 H   0  0  0  0  0  0
  -26.8913  -30.7471   22.0452 H   0  0  0  0  0  0
  -28.1363  -28.7066   21.2878 H   0  0  0  0  0  0
  -25.9032  -25.7964   19.0207 H   0  0  0  0  0  0
  -23.9716  -27.2909   18.9911 H   0  0  0  0  0  0
  -23.8395  -30.5468   19.4008 H   0  0  0  0  0  0
  -22.8037  -29.2269   19.8484 H   0  0  0  0  0  0
  -25.1242  -36.1898   25.0826 H   0  0  0  0  0  0
  -20.9997  -28.3334   24.1346 H   0  0  0  0  0  0
  -20.5679  -26.2366   23.3638 H   0  0  0  0  0  0
  -21.6668  -26.7452   22.1206 H   0  0  0  0  0  0
  -19.6950  -25.6282   21.1274 H   0  0  0  0  0  0
  -19.6719  -27.3154   20.6706 H   0  0  0  0  0  0
  -17.4232  -26.6685   21.4007 H   0  0  0  0  0  0
  -18.0360  -26.0084   22.9010 H   0  0  0  0  0  0
  -19.7962  -30.7276   24.2262 H   0  0  0  0  0  0
  -17.5050  -31.6286   24.5157 H   0  0  0  0  0  0
  -15.5377  -30.3016   23.7657 H   0  0  0  0  0  0
  -15.8690  -28.0825   22.7116 H   0  0  0  0  0  0
  -24.5761  -30.7193   25.7809 H   0  0  0  0  0  0
  -24.8776  -32.3006   26.4884 H   0  0  0  0  0  0
  -25.7826  -30.9017   27.0347 H   0  0  0  0  0  0
  -26.3037  -29.6757   24.1375 H   0  0  0  0  0  0
  -27.3864  -29.7330   25.5056 H   0  0  0  0  0  0
  -27.8943  -30.4312   23.9888 H   0  0  0  0  0  0
  -27.2726  -33.3674   26.2107 H   0  0  0  0  0  0
  -28.3851  -32.6807   25.0379 H   0  0  0  0  0  0
  -28.0681  -31.8470   26.5510 H   0  0  0  0  0  0
  -28.2447  -38.0206   24.7756 H   0  0  0  0  0  0
  -28.1264  -36.2793   24.5867 H   0  0  0  0  0  0
  -27.2402  -37.0902   25.8821 H   0  0  0  0  0  0
  -20.9545  -29.8766   21.6732 H   0  0  0  0  0  0
  -26.0115  -38.2836   24.1637 H   0  0  0  0  0  0
  -29.7463  -22.3512   19.6825 H   0  0  0  0  0  0
  -27.5888  -24.2053   23.8362 H   0  0  0  0  0  0
  -26.2883  -23.0619   24.0665 H   0  0  0  0  0  0
  -26.1707  -24.1704   22.7514 H   0  0  0  0  0  0
  -27.7921  -20.7099   26.1737 H   0  0  0  0  0  0
  -28.5036  -22.0120   25.2252 H   0  0  0  0  0  0
  -29.1657  -20.3955   25.1161 H   0  0  0  0  0  0
  -29.6136  -25.0872   22.9711 H   0  0  0  0  0  0
  -29.5401  -26.5424   21.9771 H   0  0  0  0  0  0
  -30.5370  -25.1937   21.4671 H   0  0  0  0  0  0
  -30.8028  -19.2024   21.0976 H   0  0  0  0  0  0
  -30.2741  -19.3551   19.4629 H   0  0  0  0  0  0
  -27.1791  -19.5765   23.9674 H   0  0  0  0  0  0
  -26.2401  -20.9604   24.2993 H   0  0  0  0  0  0
  -28.3846  -17.6972   19.8579 H   0  0  0  0  0  0
  -28.6433  -17.7514   21.5370 H   0  0  0  0  0  0
  -27.5421  -25.2281   21.7464 H   0  0  0  0  0  0
  -28.7788  -15.6598   21.1031 H   0  0  0  0  0  0
  1 25  1  0  0  0
  1 30  2  0  0  0
  1 84  1  0  0  0
  2  3  1  0  0  0
  2 25  1  0  0  0
  2 85  1  0  0  0
  2 86  1  0  0  0
  3  4  1  0  0  0
  3 87  1  0  0  0
  3 88  1  0  0  0
  4  5  1  0  0  0
  4 89  1  0  0  0
  4 90  1  0  0  0
  5  6  1  0  0  0
  5 26  1  0  0  0
  5 91  1  0  0  0
  6 25  1  0  0  0
  6 92  1  0  0  0
  6 93  1  0  0  0
  7  8  2  0  0  0
  7 26  1  0  0  0
  7 29  1  0  0  0
  8  9  1  0  0  0
  8 22  1  0  0  0
  9 10  1  0  0  0
  9 27  2  0  0  0
 10 11  2  0  0  0
 10 15  1  0  0  0
 11 12  1  0  0  0
 11 94  1  0  0  0
 12 13  2  0  0  0
 12 95  1  0  0  0
 13 14  1  0  0  0
 13 31  1  0  0  0
 14 15  2  0  0  0
 14 96  1  0  0  0
 15 97  1  0  0  0
 16 17  2  0  0  0
 16 21  1  0  0  0
 16 31  1  0  0  0
 17 18  1  0  0  0
 17 98  1  0  0  0
 18 19  2  0  0  0
 18 99  1  0  0  0
 19 20  1  0  0  0
 19 24  1  0  0  0
 20 21  2  0  0  0
 20100  1  0  0  0
 21 23  1  0  0  0
 22 28  1  0  0  0
 22 32  2  0  0  0
 26 27  1  0  0  0
 28101  1  0  0  0
 28102  1  0  0  0
 29103  1  0  0  0
 29104  1  0  0  0
 33 34  1  0  0  0
 33 66  1  0  0  0
 33 70  2  0  0  0
 34 36  1  0  0  0
 34 59  1  0  0  0
 34105  1  0  0  0
 35 44  2  0  0  0
 35 45  1  0  0  0
 35 68  1  0  0  0
 36 56  1  0  0  0
 36106  1  0  0  0
 37 39  1  0  0  0
 37 47  1  0  0  0
 37 66  1  0  0  0
 37107  1  0  0  0
 38 43  2  0  0  0
 38 46  1  0  0  0
 38 47  1  0  0  0
 39 64  1  0  0  0
 39 67  2  0  0  0
 40 52  1  0  0  0
 40 53  2  0  0  0
 40 58  1  0  0  0
 41108  1  0  0  0
 41109  1  0  0  0
 41110  1  0  0  0
 41 48  1  0  0  0
 42 43  1  0  0  0
 42 66  1  0  0  0
 42111  1  0  0  0
 42112  1  0  0  0
 43 44  1  0  0  0
 44113  1  0  0  0
 45 46  2  0  0  0
 45114  1  0  0  0
 46115  1  0  0  0
 47116  1  0  0  0
 47117  1  0  0  0
 48 56  1  0  0  0
 48 65  1  0  0  0
 48118  1  0  0  0
 49 50  1  0  0  0
 49 53  1  0  0  0
 49 64  1  0  0  0
 49119  1  0  0  0
 50 51  1  0  0  0
 50120  1  0  0  0
 50121  1  0  0  0
 51 52  1  0  0  0
 51122  1  0  0  0
 51123  1  0  0  0
 52124  1  0  0  0
 52125  1  0  0  0
 53 54  1  0  0  0
 54 55  2  0  0  0
 54126  1  0  0  0
 55 57  1  0  0  0
 55127  1  0  0  0
 56 69  2  0  0  0
 57 58  2  0  0  0
 57128  1  0  0  0
 58129  1  0  0  0
 59 60  1  0  0  0
 59 61  1  0  0  0
 59 62  1  0  0  0
 60130  1  0  0  0
 60131  1  0  0  0
 60132  1  0  0  0
 61133  1  0  0  0
 61134  1  0  0  0
 61135  1  0  0  0
 62136  1  0  0  0
 62137  1  0  0  0
 62138  1  0  0  0
 63 65  1  0  0  0
 63139  1  0  0  0
 63140  1  0  0  0
 63141  1  0  0  0
 64142  1  0  0  0
 65143  1  0  0  0
 68 82  1  0  0  0
 71 72  2  0  0  0
 71 74  1  0  0  0
 71144  1  0  0  0
 72 73  1  0  0  0
 72 82  1  0  0  0
 73 75  2  0  0  0
 73 76  1  0  0  0
 74 79  1  0  0  0
 74 83  2  0  0  0
 75 80  1  0  0  0
 75 83  1  0  0  0
 76145  1  0  0  0
 76146  1  0  0  0
 76147  1  0  0  0
 77 80  1  0  0  0
 77148  1  0  0  0
 77149  1  0  0  0
 77150  1  0  0  0
 78151  1  0  0  0
 78152  1  0  0  0
 78153  1  0  0  0
 78 82  1  0  0  0
 79 81  1  0  0  0
 79154  1  0  0  0
 79155  1  0  0  0
 80156  1  0  0  0
 80157  1  0  0  0
 81 84  1  0  0  0
 81158  1  0  0  0
 81159  1  0  0  0
 82160  1  0  0  0
 84161  1  0  0  0
M  ISO  4   1 100  68 101  82 101  84 100
M  END
> <chiral flag>
0

> <version>
0

> <s_m_source_file>
/data/baiqing/PycharmProjects/Reinvent-master-3.2/result/LINK_invent/BTK/process_docking_weight1_custom_sum_contain_oxygen_bond_distance_aromatic_linkinvent_7_9_3/rearranged_h_0088.sdf

> <i_m_source_file_index>
47

> <r_mmod_Potential_Energy-OPLS-2005>
735.426147460938

> <r_mmod_Stretch_Energy-OPLS-2005>
350.487701416016

> <r_mmod_Bend_Energy-OPLS-2005>
488.202026367188

> <r_mmod_Torsional_Energy-OPLS-2005>
247.94319152832

> <r_mmod_Improper_Torsional_Energy-OPLS-2005>
7.65195989608765

> <r_mmod_Van_der_Waal_Energy-OPLS-2005>
144.276016235352

> <r_mmod_Electrostatic_Energy-OPLS-2005>
-539.579833984375

> <r_mmod_Solvation_Energy-OPLS-2005>
-220.987930297852

> <b_mmod_Minimization_Converged-OPLS-2005>
0

> <r_mmod_RMS_Derivative-OPLS-2005>
9.11361217498779

$$$$
48
                    3D
 Structure written by MMmdl.
163171  0  0  1  0            999 V2000
  -30.6851  -14.5162   20.4833 C   0  0  0  0  0  0
  -30.4142  -12.3044   19.4403 C   0  0  0  0  0  0
  -29.4979  -12.4918   18.2132 C   0  0  0  0  0  0
  -28.0191  -12.3510   18.6223 C   0  0  0  0  0  0
  -27.6584  -13.2083   19.8660 C   0  0  2  0  0  0
  -28.7035  -13.0433   20.9958 C   0  0  0  0  0  0
  -25.2597  -13.8180   20.5653 C   0  0  0  0  0  0
  -24.1856  -13.0465   20.9169 C   0  0  0  0  0  0
  -24.6401  -11.6918   20.8726 C   0  0  0  0  0  0
  -23.9061  -10.4307   21.0396 C   0  0  0  0  0  0
  -24.3621   -9.4220   21.9163 C   0  0  0  0  0  0
  -23.6290   -8.2255   22.0754 C   0  0  0  0  0  0
  -22.4274   -8.0288   21.3545 C   0  0  0  0  0  0
  -21.9911   -9.0260   20.4648 C   0  0  0  0  0  0
  -22.7240  -10.2136   20.3043 C   0  0  0  0  0  0
  -21.6870   -6.0727   22.5274 C   0  0  0  0  0  0
  -21.4019   -6.5628   23.8205 C   0  0  0  0  0  0
  -21.3666   -5.6785   24.9170 C   0  0  0  0  0  0
  -21.6057   -4.3051   24.7223 C   0  0  0  0  0  0
  -21.8821   -3.8136   23.4346 C   0  0  0  0  0  0
  -21.9197   -4.6952   22.3398 C   0  0  0  0  0  0
  -22.7875  -13.5251   21.1818 C   0  0  0  0  0  0
  -22.1662   -4.2131   21.0976 F   0  0  0  0  0  0
  -21.5635   -3.4538   25.7740 F   0  0  0  0  0  0
  -30.0313  -13.3236   20.4305 N   0  0  0  0  0  0
  -26.3021  -12.9334   20.3319 N   0  0  0  0  0  0
  -25.9337  -11.6501   20.5765 N   0  0  0  0  0  0
  -22.0520  -12.8245   22.0379 N   0  0  0  0  0  0
  -25.4350  -15.1889   20.4006 N   0  0  0  0  0  0
  -31.8432  -14.6592   20.0850 O   0  0  0  0  0  0
  -21.6660   -6.8869   21.4233 O   0  0  0  0  0  0
  -22.3553  -14.5546   20.6653 O   0  0  0  0  0  0
  -24.6181  -31.8663   23.2074 C   0  0  0  0  0  0
  -25.9064  -32.4816   23.8381 C   0  0  1  0  0  0
  -27.2307  -27.4009   20.1108 C   0  0  0  0  0  0
  -25.5912  -33.8617   24.2315 N   0  0  0  0  0  0
  -23.4086  -30.4892   21.5483 C   0  0  2  0  0  0
  -24.8562  -28.9532   20.1114 C   0  0  0  0  0  0
  -22.7440  -29.4646   22.4962 C   0  0  0  0  0  0
  -18.0286  -28.1380   22.8491 C   0  0  0  0  0  0
  -24.1486  -36.7317   23.2641 C   0  0  0  0  0  0
  -25.9404  -30.8210   21.3659 C   0  0  0  0  0  0
  -26.0179  -29.4529   20.7142 C   0  0  0  0  0  0
  -27.2098  -28.6850   20.7113 C   0  0  0  0  0  0
  -26.0570  -26.9367   19.4755 C   0  0  0  0  0  0
  -24.8715  -27.6956   19.4869 C   0  0  0  0  0  0
  -23.6205  -29.8255   20.1616 C   0  0  0  0  0  0
  -25.4103  -36.3112   24.0337 C   0  0  1  0  0  0
  -20.5874  -28.3668   23.1308 C   0  0  2  0  0  0
  -20.6775  -26.9401   22.5417 C   0  0  0  0  0  0
  -19.5743  -26.6383   21.5222 C   0  0  0  0  0  0
  -18.1922  -26.7925   22.1635 C   0  0  0  0  0  0
  -19.1534  -28.8842   23.2904 C   0  0  0  0  0  0
  -18.9469  -30.1449   23.8903 C   0  0  0  0  0  0
  -17.6468  -30.6585   24.0572 C   0  0  0  0  0  0
  -25.9033  -34.9478   23.5123 C   0  0  0  0  0  0
  -16.5358  -29.9082   23.6335 C   0  0  0  0  0  0
  -16.7279  -28.6510   23.0347 C   0  0  0  0  0  0
  -26.4478  -31.6608   25.0726 C   0  0  0  0  0  0
  -25.3735  -31.3737   26.1472 C   0  0  0  0  0  0
  -27.0327  -30.3053   24.6117 C   0  0  0  0  0  0
  -27.6054  -32.4326   25.7488 C   0  0  0  0  0  0
  -27.5573  -37.1815   24.8464 C   0  0  0  0  0  0
  -21.4162  -29.3035   22.3711 N   0  0  0  0  0  0
  -26.4292  -37.3795   23.9405 N   0  0  0  0  0  0
  -24.6739  -31.0731   22.0990 N   0  0  0  0  0  0
  -23.4204  -28.8189   23.3017 O   0  0  0  0  0  0
  -28.3667  -26.6089   20.1370 O   0  0  0  0  0  0
  -26.5597  -34.8932   22.4686 O   0  0  0  0  0  0
  -23.5365  -32.1442   23.7437 O   0  0  0  0  0  0
  -28.8861  -20.3376   17.4729 C   0  0  0  0  0  0
  -29.1151  -19.2019   18.2608 C   0  0  0  0  0  0
  -28.6177  -21.5855   18.0793 C   0  0  0  0  0  0
  -29.1031  -19.3227   19.6602 C   0  0  0  0  0  0
  -28.6874  -21.6523   19.5011 C   0  0  0  0  0  0
  -27.1665  -22.3569   16.0988 C   0  0  0  0  0  0
  -29.4274  -23.4017   16.4988 C   0  0  0  0  0  0
  -29.1689  -18.0638   20.5600 C   0  0  0  0  0  0
  -30.1701  -16.9357   20.1350 C   0  0  0  0  0  0
  -28.9854  -24.1510   19.9950 C   0  0  0  0  0  0
  -28.1845  -25.2838   20.7009 C   0  0  0  0  0  0
  -28.2028  -22.7510   17.1682 C   0  0  0  0  0  0
  -28.9105  -20.5386   20.2516 N   0  0  0  0  0  0
  -28.4371  -22.8073   20.2759 N   0  0  0  0  0  0
  -29.9093  -15.5959   20.7194 N   0  0  0  0  0  0
  -31.4632  -12.3744   19.1479 H   0  0  0  0  0  0
  -30.2870  -11.3063   19.8601 H   0  0  0  0  0  0
  -29.7457  -11.7634   17.4403 H   0  0  0  0  0  0
  -29.6666  -13.4749   17.7712 H   0  0  0  0  0  0
  -27.8326  -11.2963   18.8291 H   0  0  0  0  0  0
  -27.3708  -12.6148   17.7854 H   0  0  0  0  0  0
  -27.6868  -14.2467   19.5364 H   0  0  0  0  0  0
  -28.6809  -12.0312   21.4032 H   0  0  0  0  0  0
  -28.4748  -13.7058   21.8320 H   0  0  0  0  0  0
  -25.2773   -9.5704   22.4727 H   0  0  0  0  0  0
  -24.0020   -7.4656   22.7482 H   0  0  0  0  0  0
  -21.0844   -8.8767   19.8941 H   0  0  0  0  0  0
  -22.3700  -10.9666   19.6142 H   0  0  0  0  0  0
  -21.2008   -7.6140   23.9694 H   0  0  0  0  0  0
  -21.1489   -6.0520   25.9069 H   0  0  0  0  0  0
  -22.0593   -2.7595   23.2855 H   0  0  0  0  0  0
  -22.4155  -11.9922   22.4778 H   0  0  0  0  0  0
  -21.1130  -13.1241   22.2563 H   0  0  0  0  0  0
  -24.6671  -15.8459   20.4922 H   0  0  0  0  0  0
  -26.2808  -15.6157   20.0450 H   0  0  0  0  0  0
  -26.7135  -32.5526   23.1148 H   0  0  0  0  0  0
  -25.0098  -33.9764   25.0479 H   0  0  0  0  0  0
  -22.7007  -31.3082   21.4079 H   0  0  0  0  0  0
  -23.3741  -35.9661   23.3319 H   0  0  0  0  0  0
  -24.3582  -36.8911   22.2053 H   0  0  0  0  0  0
  -23.7240  -37.6529   23.6642 H   0  0  0  0  0  0
  -26.0546  -31.5829   20.5936 H   0  0  0  0  0  0
  -26.8267  -30.8764   21.9853 H   0  0  0  0  0  0
  -28.1032  -29.0598   21.1912 H   0  0  0  0  0  0
  -26.0541  -25.9807   18.9713 H   0  0  0  0  0  0
  -23.9806  -27.3080   19.0122 H   0  0  0  0  0  0
  -23.7402  -30.6033   19.4057 H   0  0  0  0  0  0
  -22.7423  -29.2540   19.8580 H   0  0  0  0  0  0
  -25.1278  -36.1984   25.0832 H   0  0  0  0  0  0
  -20.9986  -28.3234   24.1422 H   0  0  0  0  0  0
  -20.5689  -26.2279   23.3609 H   0  0  0  0  0  0
  -21.6641  -26.7434   22.1199 H   0  0  0  0  0  0
  -19.6899  -25.6299   21.1236 H   0  0  0  0  0  0
  -19.6674  -27.3215   20.6767 H   0  0  0  0  0  0
  -17.4199  -26.6696   21.4033 H   0  0  0  0  0  0
  -18.0306  -26.0060   22.9022 H   0  0  0  0  0  0
  -19.7949  -30.7270   24.2264 H   0  0  0  0  0  0
  -17.5027  -31.6261   24.5185 H   0  0  0  0  0  0
  -15.5362  -30.2996   23.7640 H   0  0  0  0  0  0
  -15.8683  -28.0839   22.7034 H   0  0  0  0  0  0
  -24.5873  -30.7128   25.7804 H   0  0  0  0  0  0
  -24.8974  -32.2918   26.4938 H   0  0  0  0  0  0
  -25.8065  -30.8880   27.0226 H   0  0  0  0  0  0
  -26.2888  -29.6796   24.1173 H   0  0  0  0  0  0
  -27.4117  -29.7304   25.4576 H   0  0  0  0  0  0
  -27.8709  -30.4385   23.9270 H   0  0  0  0  0  0
  -27.2673  -33.3611   26.2104 H   0  0  0  0  0  0
  -28.3847  -32.6906   25.0306 H   0  0  0  0  0  0
  -28.0751  -31.8434   26.5377 H   0  0  0  0  0  0
  -28.2604  -38.0097   24.7503 H   0  0  0  0  0  0
  -28.1055  -36.2634   24.6302 H   0  0  0  0  0  0
  -27.2301  -37.1479   25.8870 H   0  0  0  0  0  0
  -20.9326  -29.8798   21.6956 H   0  0  0  0  0  0
  -26.0185  -38.2877   24.1403 H   0  0  0  0  0  0
  -28.8667  -20.2228   16.4003 H   0  0  0  0  0  0
  -29.2373  -18.2476   17.7694 H   0  0  0  0  0  0
  -26.2723  -21.9269   16.5518 H   0  0  0  0  0  0
  -27.5547  -21.6462   15.3698 H   0  0  0  0  0  0
  -26.8509  -23.2386   15.5398 H   0  0  0  0  0  0
  -30.1520  -23.7724   17.2241 H   0  0  0  0  0  0
  -29.1332  -24.2449   15.8739 H   0  0  0  0  0  0
  -29.9481  -22.6889   15.8597 H   0  0  0  0  0  0
  -28.1571  -17.6573   20.5917 H   0  0  0  0  0  0
  -29.3983  -18.3674   21.5823 H   0  0  0  0  0  0
  -31.1928  -17.2553   20.3403 H   0  0  0  0  0  0
  -30.1205  -16.7876   19.0566 H   0  0  0  0  0  0
  -30.0237  -24.1721   20.3257 H   0  0  0  0  0  0
  -29.0252  -24.3821   18.9403 H   0  0  0  0  0  0
  -28.4777  -25.3244   21.7513 H   0  0  0  0  0  0
  -27.1328  -24.9952   20.7183 H   0  0  0  0  0  0
  -27.6678  -23.4828   17.7704 H   0  0  0  0  0  0
  -28.3707  -22.6070   21.2674 H   0  0  0  0  0  0
  -28.9712  -15.3999   21.0333 H   0  0  0  0  0  0
  1 25  1  0  0  0
  1 30  2  0  0  0
  1 85  1  0  0  0
  2  3  1  0  0  0
  2 25  1  0  0  0
  2 86  1  0  0  0
  2 87  1  0  0  0
  3  4  1  0  0  0
  3 88  1  0  0  0
  3 89  1  0  0  0
  4  5  1  0  0  0
  4 90  1  0  0  0
  4 91  1  0  0  0
  5  6  1  0  0  0
  5 26  1  0  0  0
  5 92  1  0  0  0
  6 25  1  0  0  0
  6 93  1  0  0  0
  6 94  1  0  0  0
  7  8  2  0  0  0
  7 26  1  0  0  0
  7 29  1  0  0  0
  8  9  1  0  0  0
  8 22  1  0  0  0
  9 10  1  0  0  0
  9 27  2  0  0  0
 10 11  2  0  0  0
 10 15  1  0  0  0
 11 12  1  0  0  0
 11 95  1  0  0  0
 12 13  2  0  0  0
 12 96  1  0  0  0
 13 14  1  0  0  0
 13 31  1  0  0  0
 14 15  2  0  0  0
 14 97  1  0  0  0
 15 98  1  0  0  0
 16 17  2  0  0  0
 16 21  1  0  0  0
 16 31  1  0  0  0
 17 18  1  0  0  0
 17 99  1  0  0  0
 18 19  2  0  0  0
 18100  1  0  0  0
 19 20  1  0  0  0
 19 24  1  0  0  0
 20 21  2  0  0  0
 20101  1  0  0  0
 21 23  1  0  0  0
 22 28  1  0  0  0
 22 32  2  0  0  0
 26 27  1  0  0  0
 28102  1  0  0  0
 28103  1  0  0  0
 29104  1  0  0  0
 29105  1  0  0  0
 33 34  1  0  0  0
 33 66  1  0  0  0
 33 70  2  0  0  0
 34 36  1  0  0  0
 34 59  1  0  0  0
 34106  1  0  0  0
 35 44  2  0  0  0
 35 45  1  0  0  0
 35 68  1  0  0  0
 36 56  1  0  0  0
 36107  1  0  0  0
 37 39  1  0  0  0
 37 47  1  0  0  0
 37 66  1  0  0  0
 37108  1  0  0  0
 38 43  2  0  0  0
 38 46  1  0  0  0
 38 47  1  0  0  0
 39 64  1  0  0  0
 39 67  2  0  0  0
 40 52  1  0  0  0
 40 53  2  0  0  0
 40 58  1  0  0  0
 41109  1  0  0  0
 41110  1  0  0  0
 41111  1  0  0  0
 41 48  1  0  0  0
 42 43  1  0  0  0
 42 66  1  0  0  0
 42112  1  0  0  0
 42113  1  0  0  0
 43 44  1  0  0  0
 44114  1  0  0  0
 45 46  2  0  0  0
 45115  1  0  0  0
 46116  1  0  0  0
 47117  1  0  0  0
 47118  1  0  0  0
 48 56  1  0  0  0
 48 65  1  0  0  0
 48119  1  0  0  0
 49 50  1  0  0  0
 49 53  1  0  0  0
 49 64  1  0  0  0
 49120  1  0  0  0
 50 51  1  0  0  0
 50121  1  0  0  0
 50122  1  0  0  0
 51 52  1  0  0  0
 51123  1  0  0  0
 51124  1  0  0  0
 52125  1  0  0  0
 52126  1  0  0  0
 53 54  1  0  0  0
 54 55  2  0  0  0
 54127  1  0  0  0
 55 57  1  0  0  0
 55128  1  0  0  0
 56 69  2  0  0  0
 57 58  2  0  0  0
 57129  1  0  0  0
 58130  1  0  0  0
 59 60  1  0  0  0
 59 61  1  0  0  0
 59 62  1  0  0  0
 60131  1  0  0  0
 60132  1  0  0  0
 60133  1  0  0  0
 61134  1  0  0  0
 61135  1  0  0  0
 61136  1  0  0  0
 62137  1  0  0  0
 62138  1  0  0  0
 62139  1  0  0  0
 63 65  1  0  0  0
 63140  1  0  0  0
 63141  1  0  0  0
 63142  1  0  0  0
 64143  1  0  0  0
 65144  1  0  0  0
 68 81  1  0  0  0
 71 72  2  0  0  0
 71 73  1  0  0  0
 71145  1  0  0  0
 72 74  1  0  0  0
 72146  1  0  0  0
 73 75  2  0  0  0
 73 82  1  0  0  0
 74 78  1  0  0  0
 74 83  2  0  0  0
 75 83  1  0  0  0
 75 84  1  0  0  0
 76147  1  0  0  0
 76148  1  0  0  0
 76149  1  0  0  0
 76 82  1  0  0  0
 77 82  1  0  0  0
 77150  1  0  0  0
 77151  1  0  0  0
 77152  1  0  0  0
 78 79  1  0  0  0
 78153  1  0  0  0
 78154  1  0  0  0
 79 85  1  0  0  0
 79155  1  0  0  0
 79156  1  0  0  0
 80 81  1  0  0  0
 80 84  1  0  0  0
 80157  1  0  0  0
 80158  1  0  0  0
 81159  1  0  0  0
 81160  1  0  0  0
 82161  1  0  0  0
 84162  1  0  0  0
 85163  1  0  0  0
M  ISO  4   1 100  68 101  81 101  85 100
M  END
> <chiral flag>
0

> <version>
0

> <s_m_source_file>
/data/baiqing/PycharmProjects/Reinvent-master-3.2/result/LINK_invent/BTK/process_docking_weight1_custom_sum_contain_oxygen_bond_distance_aromatic_linkinvent_7_9_3/rearranged_h_0088.sdf

> <i_m_source_file_index>
48

> <r_mmod_Potential_Energy-OPLS-2005>
-218.507720947266

> <r_mmod_Stretch_Energy-OPLS-2005>
47.5355949401855

> <r_mmod_Bend_Energy-OPLS-2005>
120.242538452148

> <r_mmod_Torsional_Energy-OPLS-2005>
236.799987792969

> <r_mmod_Improper_Torsional_Energy-OPLS-2005>
11.9356641769409

> <r_mmod_Van_der_Waal_Energy-OPLS-2005>
159.170257568359

> <r_mmod_Electrostatic_Energy-OPLS-2005>
-582.898193359375

> <r_mmod_Solvation_Energy-OPLS-2005>
-233.498504638672

> <b_mmod_Minimization_Converged-OPLS-2005>
0

> <r_mmod_RMS_Derivative-OPLS-2005>
2.49203586578369

$$$$
49
                    3D
 Structure written by MMmdl.
161169  0  0  1  0            999 V2000
  -30.6746  -14.5073   20.5227 C   0  0  0  0  0  0
  -30.4235  -12.3109   19.4353 C   0  0  0  0  0  0
  -29.5027  -12.5010   18.2115 C   0  0  0  0  0  0
  -28.0200  -12.3685   18.6165 C   0  0  0  0  0  0
  -27.6601  -13.2109   19.8712 C   0  0  2  0  0  0
  -28.7013  -13.0124   20.9974 C   0  0  0  0  0  0
  -25.2587  -13.8176   20.5706 C   0  0  0  0  0  0
  -24.1841  -13.0440   20.9204 C   0  0  0  0  0  0
  -24.6394  -11.6908   20.8732 C   0  0  0  0  0  0
  -23.9055  -10.4295   21.0392 C   0  0  0  0  0  0
  -24.3608   -9.4224   21.9185 C   0  0  0  0  0  0
  -23.6294   -8.2246   22.0752 C   0  0  0  0  0  0
  -22.4273   -8.0277   21.3548 C   0  0  0  0  0  0
  -21.9897   -9.0243   20.4650 C   0  0  0  0  0  0
  -22.7215  -10.2129   20.3055 C   0  0  0  0  0  0
  -21.6856   -6.0740   22.5302 C   0  0  0  0  0  0
  -21.4013   -6.5644   23.8235 C   0  0  0  0  0  0
  -21.3658   -5.6808   24.9199 C   0  0  0  0  0  0
  -21.6037   -4.3068   24.7254 C   0  0  0  0  0  0
  -21.8820   -3.8152   23.4379 C   0  0  0  0  0  0
  -21.9190   -4.6966   22.3425 C   0  0  0  0  0  0
  -22.7863  -13.5233   21.1874 C   0  0  0  0  0  0
  -22.1666   -4.2148   21.1005 F   0  0  0  0  0  0
  -21.5610   -3.4552   25.7765 F   0  0  0  0  0  0
  -30.0298  -13.3116   20.4413 N   0  0  0  0  0  0
  -26.3018  -12.9346   20.3347 N   0  0  0  0  0  0
  -25.9325  -11.6500   20.5747 N   0  0  0  0  0  0
  -22.0485  -12.8220   22.0420 N   0  0  0  0  0  0
  -25.4275  -15.1897   20.4137 N   0  0  0  0  0  0
  -31.8188  -14.6732   20.0944 O   0  0  0  0  0  0
  -21.6642   -6.8872   21.4255 O   0  0  0  0  0  0
  -22.3549  -14.5538   20.6734 O   0  0  0  0  0  0
  -24.6190  -31.8637   23.2067 C   0  0  0  0  0  0
  -25.9052  -32.4797   23.8363 C   0  0  1  0  0  0
  -27.2300  -27.3972   20.0942 C   0  0  0  0  0  0
  -25.5879  -33.8600   24.2303 N   0  0  0  0  0  0
  -23.4086  -30.4880   21.5490 C   0  0  2  0  0  0
  -24.8495  -28.9473   20.1139 C   0  0  0  0  0  0
  -22.7423  -29.4642   22.4975 C   0  0  0  0  0  0
  -18.0267  -28.1377   22.8485 C   0  0  0  0  0  0
  -24.1486  -36.7326   23.2647 C   0  0  0  0  0  0
  -25.9405  -30.8175   21.3627 C   0  0  0  0  0  0
  -26.0108  -29.4485   20.7108 C   0  0  0  0  0  0
  -27.1983  -28.6779   20.7018 C   0  0  0  0  0  0
  -26.0390  -26.9094   19.5072 C   0  0  0  0  0  0
  -24.8584  -27.6774   19.5127 C   0  0  0  0  0  0
  -23.6150  -29.8198   20.1637 C   0  0  0  0  0  0
  -25.4107  -36.3121   24.0353 C   0  0  1  0  0  0
  -20.5867  -28.3667   23.1317 C   0  0  2  0  0  0
  -20.6780  -26.9400   22.5434 C   0  0  0  0  0  0
  -19.5752  -26.6388   21.5232 C   0  0  0  0  0  0
  -18.1917  -26.7922   22.1630 C   0  0  0  0  0  0
  -19.1522  -28.8831   23.2893 C   0  0  0  0  0  0
  -18.9459  -30.1435   23.8902 C   0  0  0  0  0  0
  -17.6464  -30.6584   24.0562 C   0  0  0  0  0  0
  -25.9043  -34.9472   23.5144 C   0  0  0  0  0  0
  -16.5344  -29.9099   23.6317 C   0  0  0  0  0  0
  -16.7256  -28.6509   23.0345 C   0  0  0  0  0  0
  -26.4448  -31.6595   25.0716 C   0  0  0  0  0  0
  -25.3700  -31.3752   26.1472 C   0  0  0  0  0  0
  -27.0272  -30.3029   24.6124 C   0  0  0  0  0  0
  -27.6014  -32.4325   25.7474 C   0  0  0  0  0  0
  -27.5593  -37.1817   24.8467 C   0  0  0  0  0  0
  -21.4144  -29.3032   22.3710 N   0  0  0  0  0  0
  -26.4300  -37.3802   23.9414 N   0  0  0  0  0  0
  -24.6750  -31.0717   22.0974 N   0  0  0  0  0  0
  -23.4167  -28.8175   23.3030 O   0  0  0  0  0  0
  -28.4213  -26.6863   20.1046 O   0  0  0  0  0  0
  -26.5629  -34.8933   22.4722 O   0  0  0  0  0  0
  -23.5375  -32.1389   23.7460 O   0  0  0  0  0  0
  -28.9729  -20.4023   20.6647 C   0  0  0  0  0  0
  -30.6396  -22.1428   20.6978 C   0  0  0  0  0  0
  -29.3201  -21.7575   20.4220 C   0  0  0  0  0  0
  -29.9331  -19.4960   21.2049 C   0  0  0  0  0  0
  -31.2233  -20.0271   21.4735 C   0  0  0  0  0  0
  -32.3478  -19.2118   22.0965 C   0  0  0  0  0  0
  -28.0788  -17.7903   21.7724 C   0  0  0  0  0  0
  -28.3320  -22.7688   19.8079 C   0  0  0  0  0  0
  -28.2585  -24.1879   20.4692 C   0  0  0  0  0  0
  -30.1838  -16.9753   20.5477 C   0  0  0  0  0  0
  -28.5308  -25.3779   19.4999 C   0  0  0  0  0  0
  -29.5865  -18.0169   21.5460 C   0  0  1  0  0  0
  -31.5623  -21.3067   21.2105 N   0  0  0  0  0  0
  -29.9092  -15.5601   20.8864 N   0  0  0  0  0  0
  -31.4706  -12.4040   19.1417 H   0  0  0  0  0  0
  -30.3192  -11.3038   19.8422 H   0  0  0  0  0  0
  -29.7475  -11.7721   17.4377 H   0  0  0  0  0  0
  -29.6790  -13.4824   17.7705 H   0  0  0  0  0  0
  -27.8214  -11.3135   18.8074 H   0  0  0  0  0  0
  -27.3778  -12.6490   17.7816 H   0  0  0  0  0  0
  -27.6979  -14.2561   19.5650 H   0  0  0  0  0  0
  -28.6748  -11.9851   21.3634 H   0  0  0  0  0  0
  -28.4694  -13.6400   21.8597 H   0  0  0  0  0  0
  -25.2745   -9.5715   22.4770 H   0  0  0  0  0  0
  -24.0020   -7.4642   22.7471 H   0  0  0  0  0  0
  -21.0827   -8.8752   19.8962 H   0  0  0  0  0  0
  -22.3661  -10.9666   19.6171 H   0  0  0  0  0  0
  -21.2008   -7.6150   23.9741 H   0  0  0  0  0  0
  -21.1471   -6.0533   25.9103 H   0  0  0  0  0  0
  -22.0588   -2.7612   23.2894 H   0  0  0  0  0  0
  -22.4080  -11.9880   22.4813 H   0  0  0  0  0  0
  -21.1098  -13.1260   22.2603 H   0  0  0  0  0  0
  -24.6560  -15.8378   20.5242 H   0  0  0  0  0  0
  -26.2716  -15.6359   20.0780 H   0  0  0  0  0  0
  -26.7111  -32.5485   23.1103 H   0  0  0  0  0  0
  -24.9977  -33.9726   25.0418 H   0  0  0  0  0  0
  -22.7026  -31.3082   21.4077 H   0  0  0  0  0  0
  -23.3742  -35.9660   23.3304 H   0  0  0  0  0  0
  -24.3574  -36.8967   22.2066 H   0  0  0  0  0  0
  -23.7231  -37.6539   23.6639 H   0  0  0  0  0  0
  -26.0634  -31.5794   20.5909 H   0  0  0  0  0  0
  -26.8264  -30.8682   21.9842 H   0  0  0  0  0  0
  -28.0956  -29.0557   21.1710 H   0  0  0  0  0  0
  -25.9901  -25.9323   19.0525 H   0  0  0  0  0  0
  -23.9596  -27.2819   19.0584 H   0  0  0  0  0  0
  -23.7212  -30.5930   19.4010 H   0  0  0  0  0  0
  -22.7376  -29.2419   19.8685 H   0  0  0  0  0  0
  -25.1269  -36.2016   25.0846 H   0  0  0  0  0  0
  -20.9941  -28.3252   24.1447 H   0  0  0  0  0  0
  -20.5736  -26.2254   23.3620 H   0  0  0  0  0  0
  -21.6637  -26.7480   22.1187 H   0  0  0  0  0  0
  -19.6927  -25.6313   21.1232 H   0  0  0  0  0  0
  -19.6706  -27.3218   20.6781 H   0  0  0  0  0  0
  -17.4207  -26.6668   21.4017 H   0  0  0  0  0  0
  -18.0295  -26.0069   22.9027 H   0  0  0  0  0  0
  -19.7946  -30.7226   24.2292 H   0  0  0  0  0  0
  -17.5037  -31.6264   24.5167 H   0  0  0  0  0  0
  -15.5352  -30.3009   23.7647 H   0  0  0  0  0  0
  -15.8657  -28.0836   22.7068 H   0  0  0  0  0  0
  -24.5822  -30.7157   25.7826 H   0  0  0  0  0  0
  -24.8935  -32.2944   26.4905 H   0  0  0  0  0  0
  -25.8029  -30.8916   27.0244 H   0  0  0  0  0  0
  -26.2838  -29.6806   24.1136 H   0  0  0  0  0  0
  -27.4005  -29.7253   25.4596 H   0  0  0  0  0  0
  -27.8673  -30.4342   23.9296 H   0  0  0  0  0  0
  -27.2608  -33.3625   26.2033 H   0  0  0  0  0  0
  -28.3796  -32.6910   25.0280 H   0  0  0  0  0  0
  -28.0675  -31.8463   26.5408 H   0  0  0  0  0  0
  -28.2615  -38.0112   24.7514 H   0  0  0  0  0  0
  -28.1077  -36.2648   24.6259 H   0  0  0  0  0  0
  -27.2306  -37.1458   25.8870 H   0  0  0  0  0  0
  -20.9311  -29.8752   21.6927 H   0  0  0  0  0  0
  -26.0211  -38.2900   24.1372 H   0  0  0  0  0  0
  -27.9706  -20.0719   20.4377 H   0  0  0  0  0  0
  -30.9704  -23.1524   20.5010 H   0  0  0  0  0  0
  -32.7363  -18.4774   21.3939 H   0  0  0  0  0  0
  -32.0215  -18.6977   22.9993 H   0  0  0  0  0  0
  -33.1869  -19.8484   22.3812 H   0  0  0  0  0  0
  -27.6789  -18.5194   22.4780 H   0  0  0  0  0  0
  -27.8820  -16.8048   22.1948 H   0  0  0  0  0  0
  -27.5075  -17.8640   20.8470 H   0  0  0  0  0  0
  -27.3345  -22.3272   19.8223 H   0  0  0  0  0  0
  -28.5808  -22.8671   18.7505 H   0  0  0  0  0  0
  -28.9417  -24.2523   21.3158 H   0  0  0  0  0  0
  -27.2641  -24.3128   20.9014 H   0  0  0  0  0  0
  -31.2588  -17.1228   20.4606 H   0  0  0  0  0  0
  -29.7795  -17.1607   19.5502 H   0  0  0  0  0  0
  -27.9435  -25.2959   18.5862 H   0  0  0  0  0  0
  -29.5638  -25.2956   19.1577 H   0  0  0  0  0  0
  -30.0440  -17.8158   22.5147 H   0  0  0  0  0  0
  -28.9839  -15.3445   21.2214 H   0  0  0  0  0  0
  1 25  1  0  0  0
  1 30  2  0  0  0
  1 84  1  0  0  0
  2  3  1  0  0  0
  2 25  1  0  0  0
  2 85  1  0  0  0
  2 86  1  0  0  0
  3  4  1  0  0  0
  3 87  1  0  0  0
  3 88  1  0  0  0
  4  5  1  0  0  0
  4 89  1  0  0  0
  4 90  1  0  0  0
  5  6  1  0  0  0
  5 26  1  0  0  0
  5 91  1  0  0  0
  6 25  1  0  0  0
  6 92  1  0  0  0
  6 93  1  0  0  0
  7  8  2  0  0  0
  7 26  1  0  0  0
  7 29  1  0  0  0
  8  9  1  0  0  0
  8 22  1  0  0  0
  9 10  1  0  0  0
  9 27  2  0  0  0
 10 11  2  0  0  0
 10 15  1  0  0  0
 11 12  1  0  0  0
 11 94  1  0  0  0
 12 13  2  0  0  0
 12 95  1  0  0  0
 13 14  1  0  0  0
 13 31  1  0  0  0
 14 15  2  0  0  0
 14 96  1  0  0  0
 15 97  1  0  0  0
 16 17  2  0  0  0
 16 21  1  0  0  0
 16 31  1  0  0  0
 17 18  1  0  0  0
 17 98  1  0  0  0
 18 19  2  0  0  0
 18 99  1  0  0  0
 19 20  1  0  0  0
 19 24  1  0  0  0
 20 21  2  0  0  0
 20100  1  0  0  0
 21 23  1  0  0  0
 22 28  1  0  0  0
 22 32  2  0  0  0
 26 27  1  0  0  0
 28101  1  0  0  0
 28102  1  0  0  0
 29103  1  0  0  0
 29104  1  0  0  0
 33 34  1  0  0  0
 33 66  1  0  0  0
 33 70  2  0  0  0
 34 36  1  0  0  0
 34 59  1  0  0  0
 34105  1  0  0  0
 35 44  2  0  0  0
 35 45  1  0  0  0
 35 68  1  0  0  0
 36 56  1  0  0  0
 36106  1  0  0  0
 37 39  1  0  0  0
 37 47  1  0  0  0
 37 66  1  0  0  0
 37107  1  0  0  0
 38 43  2  0  0  0
 38 46  1  0  0  0
 38 47  1  0  0  0
 39 64  1  0  0  0
 39 67  2  0  0  0
 40 52  1  0  0  0
 40 53  2  0  0  0
 40 58  1  0  0  0
 41108  1  0  0  0
 41109  1  0  0  0
 41110  1  0  0  0
 41 48  1  0  0  0
 42 43  1  0  0  0
 42 66  1  0  0  0
 42111  1  0  0  0
 42112  1  0  0  0
 43 44  1  0  0  0
 44113  1  0  0  0
 45 46  2  0  0  0
 45114  1  0  0  0
 46115  1  0  0  0
 47116  1  0  0  0
 47117  1  0  0  0
 48 56  1  0  0  0
 48 65  1  0  0  0
 48118  1  0  0  0
 49 50  1  0  0  0
 49 53  1  0  0  0
 49 64  1  0  0  0
 49119  1  0  0  0
 50 51  1  0  0  0
 50120  1  0  0  0
 50121  1  0  0  0
 51 52  1  0  0  0
 51122  1  0  0  0
 51123  1  0  0  0
 52124  1  0  0  0
 52125  1  0  0  0
 53 54  1  0  0  0
 54 55  2  0  0  0
 54126  1  0  0  0
 55 57  1  0  0  0
 55127  1  0  0  0
 56 69  2  0  0  0
 57 58  2  0  0  0
 57128  1  0  0  0
 58129  1  0  0  0
 59 60  1  0  0  0
 59 61  1  0  0  0
 59 62  1  0  0  0
 60130  1  0  0  0
 60131  1  0  0  0
 60132  1  0  0  0
 61133  1  0  0  0
 61134  1  0  0  0
 61135  1  0  0  0
 62136  1  0  0  0
 62137  1  0  0  0
 62138  1  0  0  0
 63 65  1  0  0  0
 63139  1  0  0  0
 63140  1  0  0  0
 63141  1  0  0  0
 64142  1  0  0  0
 65143  1  0  0  0
 68 81  1  0  0  0
 71 73  2  0  0  0
 71 74  1  0  0  0
 71144  1  0  0  0
 72 73  1  0  0  0
 72 83  2  0  0  0
 72145  1  0  0  0
 73 78  1  0  0  0
 74 75  2  0  0  0
 74 82  1  0  0  0
 75 76  1  0  0  0
 75 83  1  0  0  0
 76146  1  0  0  0
 76147  1  0  0  0
 76148  1  0  0  0
 77149  1  0  0  0
 77150  1  0  0  0
 77151  1  0  0  0
 77 82  1  0  0  0
 78 79  1  0  0  0
 78152  1  0  0  0
 78153  1  0  0  0
 79 81  1  0  0  0
 79154  1  0  0  0
 79155  1  0  0  0
 80 82  1  0  0  0
 80 84  1  0  0  0
 80156  1  0  0  0
 80157  1  0  0  0
 81158  1  0  0  0
 81159  1  0  0  0
 82160  1  0  0  0
 84161  1  0  0  0
M  ISO  4   1 100  68 101  81 101  84 100
M  END
> <chiral flag>
0

> <version>
0

> <s_m_source_file>
/data/baiqing/PycharmProjects/Reinvent-master-3.2/result/LINK_invent/BTK/process_docking_weight1_custom_sum_contain_oxygen_bond_distance_aromatic_linkinvent_7_9_3/rearranged_h_0088.sdf

> <i_m_source_file_index>
49

> <r_mmod_Potential_Energy-OPLS-2005>
-237.518524169922

> <r_mmod_Stretch_Energy-OPLS-2005>
46.6835250854492

> <r_mmod_Bend_Energy-OPLS-2005>
109.57795715332

> <r_mmod_Torsional_Energy-OPLS-2005>
210.812316894531

> <r_mmod_Improper_Torsional_Energy-OPLS-2005>
6.01956653594971

> <r_mmod_Van_der_Waal_Energy-OPLS-2005>
154.268997192383

> <r_mmod_Electrostatic_Energy-OPLS-2005>
-559.83544921875

> <r_mmod_Solvation_Energy-OPLS-2005>
-223.163940429688

> <b_mmod_Minimization_Converged-OPLS-2005>
0

> <r_mmod_RMS_Derivative-OPLS-2005>
2.35542988777161

$$$$
50
                    3D
 Structure written by MMmdl.
179187  0  0  1  0            999 V2000
  -30.7278  -14.4548   20.5525 C   0  0  0  0  0  0
  -30.4181  -12.2970   19.4207 C   0  0  0  0  0  0
  -29.4986  -12.4988   18.2024 C   0  0  0  0  0  0
  -28.0207  -12.3602   18.6159 C   0  0  0  0  0  0
  -27.6599  -13.2105   19.8663 C   0  0  2  0  0  0
  -28.7021  -13.0167   20.9923 C   0  0  0  0  0  0
  -25.2595  -13.8165   20.5665 C   0  0  0  0  0  0
  -24.1844  -13.0439   20.9153 C   0  0  0  0  0  0
  -24.6397  -11.6899   20.8699 C   0  0  0  0  0  0
  -23.9067  -10.4284   21.0350 C   0  0  0  0  0  0
  -24.3619   -9.4217   21.9142 C   0  0  0  0  0  0
  -23.6298   -8.2250   22.0734 C   0  0  0  0  0  0
  -22.4280   -8.0255   21.3532 C   0  0  0  0  0  0
  -21.9912   -9.0227   20.4635 C   0  0  0  0  0  0
  -22.7234  -10.2111   20.3023 C   0  0  0  0  0  0
  -21.6868   -6.0720   22.5272 C   0  0  0  0  0  0
  -21.4020   -6.5630   23.8197 C   0  0  0  0  0  0
  -21.3666   -5.6789   24.9169 C   0  0  0  0  0  0
  -21.6056   -4.3048   24.7223 C   0  0  0  0  0  0
  -21.8830   -3.8136   23.4348 C   0  0  0  0  0  0
  -21.9207   -4.6951   22.3401 C   0  0  0  0  0  0
  -22.7877  -13.5211   21.1834 C   0  0  0  0  0  0
  -22.1667   -4.2141   21.0972 F   0  0  0  0  0  0
  -21.5636   -3.4524   25.7744 F   0  0  0  0  0  0
  -30.0342  -13.2943   20.4315 N   0  0  0  0  0  0
  -26.3022  -12.9341   20.3319 N   0  0  0  0  0  0
  -25.9339  -11.6494   20.5750 N   0  0  0  0  0  0
  -22.0511  -12.8192   22.0372 N   0  0  0  0  0  0
  -25.4329  -15.1892   20.4097 N   0  0  0  0  0  0
  -31.8687  -14.5984   20.1042 O   0  0  0  0  0  0
  -21.6654   -6.8847   21.4221 O   0  0  0  0  0  0
  -22.3558  -14.5521   20.6679 O   0  0  0  0  0  0
  -24.6138  -31.8699   23.2104 C   0  0  0  0  0  0
  -25.9033  -32.4835   23.8405 C   0  0  1  0  0  0
  -27.2344  -27.4483   20.0990 C   0  0  0  0  0  0
  -25.5883  -33.8625   24.2359 N   0  0  0  0  0  0
  -23.4022  -30.4920   21.5521 C   0  0  2  0  0  0
  -24.8474  -28.9581   20.1186 C   0  0  0  0  0  0
  -22.7411  -29.4668   22.5006 C   0  0  0  0  0  0
  -18.0286  -28.1358   22.8509 C   0  0  0  0  0  0
  -24.1468  -36.7318   23.2636 C   0  0  0  0  0  0
  -25.9263  -30.8437   21.3523 C   0  0  0  0  0  0
  -26.0081  -29.4750   20.7077 C   0  0  0  0  0  0
  -27.2093  -28.7309   20.6906 C   0  0  0  0  0  0
  -26.0598  -26.9464   19.4976 C   0  0  0  0  0  0
  -24.8671  -27.6911   19.5104 C   0  0  0  0  0  0
  -23.6091  -29.8230   20.1680 C   0  0  0  0  0  0
  -25.4089  -36.3137   24.0357 C   0  0  1  0  0  0
  -20.5871  -28.3661   23.1327 C   0  0  2  0  0  0
  -20.6758  -26.9387   22.5443 C   0  0  0  0  0  0
  -19.5751  -26.6369   21.5223 C   0  0  0  0  0  0
  -18.1925  -26.7916   22.1618 C   0  0  0  0  0  0
  -19.1527  -28.8825   23.2924 C   0  0  0  0  0  0
  -18.9451  -30.1426   23.8941 C   0  0  0  0  0  0
  -17.6451  -30.6570   24.0565 C   0  0  0  0  0  0
  -25.9023  -34.9495   23.5169 C   0  0  0  0  0  0
  -16.5351  -29.9079   23.6299 C   0  0  0  0  0  0
  -16.7269  -28.6481   23.0349 C   0  0  0  0  0  0
  -26.4465  -31.6576   25.0706 C   0  0  0  0  0  0
  -25.3741  -31.3606   26.1459 C   0  0  0  0  0  0
  -27.0284  -30.3047   24.5997 C   0  0  0  0  0  0
  -27.6080  -32.4254   25.7461 C   0  0  0  0  0  0
  -27.5586  -37.1814   24.8464 C   0  0  0  0  0  0
  -21.4134  -29.3038   22.3743 N   0  0  0  0  0  0
  -26.4277  -37.3835   23.9436 N   0  0  0  0  0  0
  -24.6672  -31.0808   22.0995 N   0  0  0  0  0  0
  -23.4176  -28.8203   23.3046 O   0  0  0  0  0  0
  -28.3877  -26.6974   20.0963 O   0  0  0  0  0  0
  -26.5606  -34.8950   22.4744 O   0  0  0  0  0  0
  -23.5344  -32.1443   23.7504 O   0  0  0  0  0  0
  -28.6094  -23.0232   22.4833 C   0  0  0  0  0  0
  -29.7538  -21.8670   20.7182 C   0  0  0  0  0  0
  -29.2539  -23.0943   21.2282 C   0  0  0  0  0  0
  -28.4408  -21.7861   23.1348 C   0  0  0  0  0  0
  -29.5844  -20.6680   21.4519 C   0  0  0  0  0  0
  -23.4482  -23.1266   25.4048 C   0  0  0  0  0  0
  -22.9003  -22.2496   23.1039 C   0  0  0  0  0  0
  -29.6115  -24.2796   18.9860 C   0  0  0  0  0  0
  -30.7450  -25.1151   21.0561 C   0  0  0  0  0  0
  -27.7766  -21.7003   24.5061 C   0  0  0  0  0  0
  -30.3416  -19.3976   21.0586 C   0  0  0  0  0  0
  -26.4742  -22.5159   24.6704 C   0  0  0  0  0  0
  -29.6015  -18.0376   21.1872 C   0  0  0  0  0  0
  -25.2230  -21.8632   24.0547 C   0  0  0  0  0  0
  -30.6071  -16.8780   20.9755 C   0  0  0  0  0  0
  -28.2613  -25.4277   20.7626 C   0  0  0  0  0  0
  -24.0067  -22.8123   24.0074 C   0  0  0  0  0  0
  -29.4597  -24.4612   20.5136 C   0  0  0  0  0  0
  -28.9321  -20.6330   22.6336 N   0  0  0  0  0  0
  -30.0535  -15.5165   21.0324 N   0  0  0  0  0  0
  -31.4634  -12.3789   19.1176 H   0  0  0  0  0  0
  -30.3042  -11.2907   19.8247 H   0  0  0  0  0  0
  -29.7395  -11.7729   17.4262 H   0  0  0  0  0  0
  -29.6776  -13.4830   17.7657 H   0  0  0  0  0  0
  -27.8333  -11.3028   18.8146 H   0  0  0  0  0  0
  -27.3717  -12.6262   17.7816 H   0  0  0  0  0  0
  -27.6970  -14.2550   19.5561 H   0  0  0  0  0  0
  -28.6735  -11.9937   21.3682 H   0  0  0  0  0  0
  -28.4712  -13.6558   21.8466 H   0  0  0  0  0  0
  -25.2756   -9.5723   22.4714 H   0  0  0  0  0  0
  -24.0035   -7.4656   22.7455 H   0  0  0  0  0  0
  -21.0856   -8.8713   19.8935 H   0  0  0  0  0  0
  -22.3651  -10.9638   19.6131 H   0  0  0  0  0  0
  -21.1979   -7.6142   23.9708 H   0  0  0  0  0  0
  -21.1492   -6.0507   25.9073 H   0  0  0  0  0  0
  -22.0607   -2.7601   23.2853 H   0  0  0  0  0  0
  -22.4147  -11.9903   22.4838 H   0  0  0  0  0  0
  -21.1109  -13.1188   22.2518 H   0  0  0  0  0  0
  -24.6684  -15.8463   20.5190 H   0  0  0  0  0  0
  -26.2902  -15.6313   20.1004 H   0  0  0  0  0  0
  -26.7095  -32.5578   23.1160 H   0  0  0  0  0  0
  -25.0000  -33.9755   25.0488 H   0  0  0  0  0  0
  -22.6939  -31.3099   21.4105 H   0  0  0  0  0  0
  -23.3759  -35.9618   23.3283 H   0  0  0  0  0  0
  -24.3579  -36.8951   22.2056 H   0  0  0  0  0  0
  -23.7169  -37.6498   23.6655 H   0  0  0  0  0  0
  -26.0186  -31.6010   20.5725 H   0  0  0  0  0  0
  -26.8214  -30.9131   21.9582 H   0  0  0  0  0  0
  -28.1073  -29.1341   21.1377 H   0  0  0  0  0  0
  -26.0650  -25.9803   19.0135 H   0  0  0  0  0  0
  -23.9750  -27.2885   19.0524 H   0  0  0  0  0  0
  -23.7192  -30.5960   19.4064 H   0  0  0  0  0  0
  -22.7337  -29.2396   19.8782 H   0  0  0  0  0  0
  -25.1257  -36.2012   25.0845 H   0  0  0  0  0  0
  -20.9955  -28.3226   24.1448 H   0  0  0  0  0  0
  -20.5619  -26.2282   23.3642 H   0  0  0  0  0  0
  -21.6639  -26.7395   22.1267 H   0  0  0  0  0  0
  -19.6904  -25.6276   21.1266 H   0  0  0  0  0  0
  -19.6689  -27.3181   20.6749 H   0  0  0  0  0  0
  -17.4199  -26.6708   21.4000 H   0  0  0  0  0  0
  -18.0296  -26.0034   22.8985 H   0  0  0  0  0  0
  -19.7923  -30.7241   24.2336 H   0  0  0  0  0  0
  -17.5000  -31.6256   24.5163 H   0  0  0  0  0  0
  -15.5353  -30.2994   23.7581 H   0  0  0  0  0  0
  -15.8673  -28.0808   22.7037 H   0  0  0  0  0  0
  -24.5948  -30.6919   25.7773 H   0  0  0  0  0  0
  -24.8863  -32.2704   26.4969 H   0  0  0  0  0  0
  -25.8111  -30.8740   27.0183 H   0  0  0  0  0  0
  -26.2791  -29.6815   24.1094 H   0  0  0  0  0  0
  -27.4160  -29.7267   25.4393 H   0  0  0  0  0  0
  -27.8577  -30.4434   23.9054 H   0  0  0  0  0  0
  -27.2761  -33.3547   26.2098 H   0  0  0  0  0  0
  -28.3856  -32.6808   25.0250 H   0  0  0  0  0  0
  -28.0773  -31.8314   26.5311 H   0  0  0  0  0  0
  -28.2603  -38.0121   24.7577 H   0  0  0  0  0  0
  -28.1094  -36.2677   24.6201 H   0  0  0  0  0  0
  -27.2332  -37.1345   25.8870 H   0  0  0  0  0  0
  -20.9289  -29.8795   21.6999 H   0  0  0  0  0  0
  -26.0184  -38.2911   24.1479 H   0  0  0  0  0  0
  -28.2657  -23.9175   22.9748 H   0  0  0  0  0  0
  -30.3247  -21.8412   19.8010 H   0  0  0  0  0  0
  -22.6003  -23.8090   25.3387 H   0  0  0  0  0  0
  -24.1912  -23.6007   26.0446 H   0  0  0  0  0  0
  -23.1040  -22.2240   25.9102 H   0  0  0  0  0  0
  -22.0786  -22.9597   23.0044 H   0  0  0  0  0  0
  -22.4900  -21.3212   23.5025 H   0  0  0  0  0  0
  -23.2745  -22.0438   22.1003 H   0  0  0  0  0  0
  -30.5197  -23.7350   18.7298 H   0  0  0  0  0  0
  -29.6760  -25.2386   18.4694 H   0  0  0  0  0  0
  -28.7607  -23.7417   18.5662 H   0  0  0  0  0  0
  -31.6202  -24.5156   20.8075 H   0  0  0  0  0  0
  -30.7128  -25.2219   22.1407 H   0  0  0  0  0  0
  -30.8982  -26.1115   20.6384 H   0  0  0  0  0  0
  -28.5103  -22.0654   25.2244 H   0  0  0  0  0  0
  -27.5931  -20.6571   24.7728 H   0  0  0  0  0  0
  -31.2478  -19.3726   21.6655 H   0  0  0  0  0  0
  -30.6852  -19.5025   20.0299 H   0  0  0  0  0  0
  -26.6006  -23.5245   24.2825 H   0  0  0  0  0  0
  -26.2985  -22.6435   25.7389 H   0  0  0  0  0  0
  -28.7888  -17.9916   20.4611 H   0  0  0  0  0  0
  -29.1489  -17.9459   22.1752 H   0  0  0  0  0  0
  -24.9702  -20.9603   24.6122 H   0  0  0  0  0  0
  -25.4616  -21.5348   23.0425 H   0  0  0  0  0  0
  -31.4104  -16.9438   21.7116 H   0  0  0  0  0  0
  -31.0822  -17.0250   20.0027 H   0  0  0  0  0  0
  -28.1655  -25.6664   21.8205 H   0  0  0  0  0  0
  -27.3454  -24.9089   20.4839 H   0  0  0  0  0  0
  -24.3319  -23.7533   23.5595 H   0  0  0  0  0  0
  -29.1144  -15.3751   21.3761 H   0  0  0  0  0  0
  1 25  1  0  0  0
  1 30  2  0  0  0
  1 90  1  0  0  0
  2  3  1  0  0  0
  2 25  1  0  0  0
  2 91  1  0  0  0
  2 92  1  0  0  0
  3  4  1  0  0  0
  3 93  1  0  0  0
  3 94  1  0  0  0
  4  5  1  0  0  0
  4 95  1  0  0  0
  4 96  1  0  0  0
  5  6  1  0  0  0
  5 26  1  0  0  0
  5 97  1  0  0  0
  6 25  1  0  0  0
  6 98  1  0  0  0
  6 99  1  0  0  0
  7  8  2  0  0  0
  7 26  1  0  0  0
  7 29  1  0  0  0
  8  9  1  0  0  0
  8 22  1  0  0  0
  9 10  1  0  0  0
  9 27  2  0  0  0
 10 11  2  0  0  0
 10 15  1  0  0  0
 11 12  1  0  0  0
 11100  1  0  0  0
 12 13  2  0  0  0
 12101  1  0  0  0
 13 14  1  0  0  0
 13 31  1  0  0  0
 14 15  2  0  0  0
 14102  1  0  0  0
 15103  1  0  0  0
 16 17  2  0  0  0
 16 21  1  0  0  0
 16 31  1  0  0  0
 17 18  1  0  0  0
 17104  1  0  0  0
 18 19  2  0  0  0
 18105  1  0  0  0
 19 20  1  0  0  0
 19 24  1  0  0  0
 20 21  2  0  0  0
 20106  1  0  0  0
 21 23  1  0  0  0
 22 28  1  0  0  0
 22 32  2  0  0  0
 26 27  1  0  0  0
 28107  1  0  0  0
 28108  1  0  0  0
 29109  1  0  0  0
 29110  1  0  0  0
 33 34  1  0  0  0
 33 66  1  0  0  0
 33 70  2  0  0  0
 34 36  1  0  0  0
 34 59  1  0  0  0
 34111  1  0  0  0
 35 44  2  0  0  0
 35 45  1  0  0  0
 35 68  1  0  0  0
 36 56  1  0  0  0
 36112  1  0  0  0
 37 39  1  0  0  0
 37 47  1  0  0  0
 37 66  1  0  0  0
 37113  1  0  0  0
 38 43  2  0  0  0
 38 46  1  0  0  0
 38 47  1  0  0  0
 39 64  1  0  0  0
 39 67  2  0  0  0
 40 52  1  0  0  0
 40 53  2  0  0  0
 40 58  1  0  0  0
 41114  1  0  0  0
 41115  1  0  0  0
 41116  1  0  0  0
 41 48  1  0  0  0
 42 43  1  0  0  0
 42 66  1  0  0  0
 42117  1  0  0  0
 42118  1  0  0  0
 43 44  1  0  0  0
 44119  1  0  0  0
 45 46  2  0  0  0
 45120  1  0  0  0
 46121  1  0  0  0
 47122  1  0  0  0
 47123  1  0  0  0
 48 56  1  0  0  0
 48 65  1  0  0  0
 48124  1  0  0  0
 49 50  1  0  0  0
 49 53  1  0  0  0
 49 64  1  0  0  0
 49125  1  0  0  0
 50 51  1  0  0  0
 50126  1  0  0  0
 50127  1  0  0  0
 51 52  1  0  0  0
 51128  1  0  0  0
 51129  1  0  0  0
 52130  1  0  0  0
 52131  1  0  0  0
 53 54  1  0  0  0
 54 55  2  0  0  0
 54132  1  0  0  0
 55 57  1  0  0  0
 55133  1  0  0  0
 56 69  2  0  0  0
 57 58  2  0  0  0
 57134  1  0  0  0
 58135  1  0  0  0
 59 60  1  0  0  0
 59 61  1  0  0  0
 59 62  1  0  0  0
 60136  1  0  0  0
 60137  1  0  0  0
 60138  1  0  0  0
 61139  1  0  0  0
 61140  1  0  0  0
 61141  1  0  0  0
 62142  1  0  0  0
 62143  1  0  0  0
 62144  1  0  0  0
 63 65  1  0  0  0
 63145  1  0  0  0
 63146  1  0  0  0
 63147  1  0  0  0
 64148  1  0  0  0
 65149  1  0  0  0
 68 86  1  0  0  0
 71 73  2  0  0  0
 71 74  1  0  0  0
 71150  1  0  0  0
 72 73  1  0  0  0
 72 75  2  0  0  0
 72151  1  0  0  0
 73 88  1  0  0  0
 74 80  1  0  0  0
 74 89  2  0  0  0
 75 81  1  0  0  0
 75 89  1  0  0  0
 76152  1  0  0  0
 76153  1  0  0  0
 76154  1  0  0  0
 76 87  1  0  0  0
 77 87  1  0  0  0
 77155  1  0  0  0
 77156  1  0  0  0
 77157  1  0  0  0
 78158  1  0  0  0
 78159  1  0  0  0
 78160  1  0  0  0
 78 88  1  0  0  0
 79 88  1  0  0  0
 79161  1  0  0  0
 79162  1  0  0  0
 79163  1  0  0  0
 80 82  1  0  0  0
 80164  1  0  0  0
 80165  1  0  0  0
 81 83  1  0  0  0
 81166  1  0  0  0
 81167  1  0  0  0
 82 84  1  0  0  0
 82168  1  0  0  0
 82169  1  0  0  0
 83 85  1  0  0  0
 83170  1  0  0  0
 83171  1  0  0  0
 84 87  1  0  0  0
 84172  1  0  0  0
 84173  1  0  0  0
 85 90  1  0  0  0
 85174  1  0  0  0
 85175  1  0  0  0
 86 88  1  0  0  0
 86176  1  0  0  0
 86177  1  0  0  0
 87178  1  0  0  0
 90179  1  0  0  0
M  ISO  4   1 100  68 101  86 101  90 100
M  END
> <chiral flag>
0

> <version>
0

> <s_m_source_file>
/data/baiqing/PycharmProjects/Reinvent-master-3.2/result/LINK_invent/BTK/process_docking_weight1_custom_sum_contain_oxygen_bond_distance_aromatic_linkinvent_7_9_3/rearranged_h_0088.sdf

> <i_m_source_file_index>
50

> <r_mmod_Potential_Energy-OPLS-2005>
-209.988403320312

> <r_mmod_Stretch_Energy-OPLS-2005>
40.4949989318848

> <r_mmod_Bend_Energy-OPLS-2005>
105.919166564941

> <r_mmod_Torsional_Energy-OPLS-2005>
228.059539794922

> <r_mmod_Improper_Torsional_Energy-OPLS-2005>
5.10288000106812

> <r_mmod_Van_der_Waal_Energy-OPLS-2005>
159.729385375977

> <r_mmod_Electrostatic_Energy-OPLS-2005>
-561.270629882812

> <r_mmod_Solvation_Energy-OPLS-2005>
-200.858688354492

> <b_mmod_Minimization_Converged-OPLS-2005>
0

> <r_mmod_RMS_Derivative-OPLS-2005>
3.37239718437195

$$$$
51
                    3D
 Structure written by MMmdl.
164172  0  0  1  0            999 V2000
  -30.7148  -14.4612   20.5696 C   0  0  0  0  0  0
  -30.4186  -12.2993   19.4237 C   0  0  0  0  0  0
  -29.4937  -12.4962   18.2057 C   0  0  0  0  0  0
  -28.0138  -12.3631   18.6157 C   0  0  0  0  0  0
  -27.6606  -13.2090   19.8699 C   0  0  2  0  0  0
  -28.7012  -12.9963   20.9921 C   0  0  0  0  0  0
  -25.2574  -13.8160   20.5680 C   0  0  0  0  0  0
  -24.1830  -13.0429   20.9171 C   0  0  0  0  0  0
  -24.6392  -11.6902   20.8717 C   0  0  0  0  0  0
  -23.9070  -10.4279   21.0385 C   0  0  0  0  0  0
  -24.3619   -9.4197   21.9168 C   0  0  0  0  0  0
  -23.6292   -8.2230   22.0747 C   0  0  0  0  0  0
  -22.4266   -8.0279   21.3543 C   0  0  0  0  0  0
  -21.9898   -9.0257   20.4642 C   0  0  0  0  0  0
  -22.7234  -10.2130   20.3046 C   0  0  0  0  0  0
  -21.6844   -6.0734   22.5281 C   0  0  0  0  0  0
  -21.4018   -6.5638   23.8216 C   0  0  0  0  0  0
  -21.3664   -5.6787   24.9178 C   0  0  0  0  0  0
  -21.6043   -4.3049   24.7229 C   0  0  0  0  0  0
  -21.8819   -3.8147   23.4346 C   0  0  0  0  0  0
  -21.9184   -4.6963   22.3402 C   0  0  0  0  0  0
  -22.7848  -13.5234   21.1836 C   0  0  0  0  0  0
  -22.1649   -4.2150   21.0978 F   0  0  0  0  0  0
  -21.5629   -3.4533   25.7741 F   0  0  0  0  0  0
  -30.0337  -13.2916   20.4389 N   0  0  0  0  0  0
  -26.3017  -12.9337   20.3345 N   0  0  0  0  0  0
  -25.9317  -11.6496   20.5747 N   0  0  0  0  0  0
  -22.0484  -12.8245   22.0403 N   0  0  0  0  0  0
  -25.4289  -15.1886   20.4092 N   0  0  0  0  0  0
  -31.8422  -14.6349   20.1047 O   0  0  0  0  0  0
  -21.6629   -6.8881   21.4240 O   0  0  0  0  0  0
  -22.3527  -14.5530   20.6669 O   0  0  0  0  0  0
  -24.6173  -31.8683   23.2144 C   0  0  0  0  0  0
  -25.9066  -32.4821   23.8417 C   0  0  1  0  0  0
  -27.2256  -27.4174   20.0818 C   0  0  0  0  0  0
  -25.5921  -33.8624   24.2335 N   0  0  0  0  0  0
  -23.4052  -30.4974   21.5545 C   0  0  2  0  0  0
  -24.8482  -28.9708   20.1161 C   0  0  0  0  0  0
  -22.7420  -29.4668   22.4974 C   0  0  0  0  0  0
  -18.0277  -28.1376   22.8497 C   0  0  0  0  0  0
  -24.1495  -36.7309   23.2635 C   0  0  0  0  0  0
  -25.9417  -30.8237   21.3792 C   0  0  0  0  0  0
  -26.0141  -29.4627   20.7152 C   0  0  0  0  0  0
  -27.2044  -28.6931   20.6990 C   0  0  0  0  0  0
  -26.0313  -26.9569   19.4693 C   0  0  0  0  0  0
  -24.8518  -27.7154   19.4942 C   0  0  0  0  0  0
  -23.6153  -29.8419   20.1666 C   0  0  0  0  0  0
  -25.4119  -36.3107   24.0332 C   0  0  1  0  0  0
  -20.5871  -28.3668   23.1308 C   0  0  2  0  0  0
  -20.6770  -26.9398   22.5416 C   0  0  0  0  0  0
  -19.5746  -26.6381   21.5219 C   0  0  0  0  0  0
  -18.1923  -26.7923   22.1628 C   0  0  0  0  0  0
  -19.1527  -28.8839   23.2904 C   0  0  0  0  0  0
  -18.9455  -30.1443   23.8917 C   0  0  0  0  0  0
  -17.6456  -30.6581   24.0566 C   0  0  0  0  0  0
  -25.9043  -34.9469   23.5125 C   0  0  0  0  0  0
  -16.5348  -29.9082   23.6328 C   0  0  0  0  0  0
  -16.7266  -28.6500   23.0351 C   0  0  0  0  0  0
  -26.4483  -31.6617   25.0760 C   0  0  0  0  0  0
  -25.3744  -31.3740   26.1509 C   0  0  0  0  0  0
  -27.0320  -30.3045   24.6189 C   0  0  0  0  0  0
  -27.6050  -32.4356   25.7514 C   0  0  0  0  0  0
  -27.5585  -37.1815   24.8462 C   0  0  0  0  0  0
  -21.4145  -29.3037   22.3710 N   0  0  0  0  0  0
  -26.4302  -37.3793   23.9400 N   0  0  0  0  0  0
  -24.6722  -31.0770   22.1055 N   0  0  0  0  0  0
  -23.4192  -28.8180   23.2994 O   0  0  0  0  0  0
  -28.3817  -26.6462   20.1007 O   0  0  0  0  0  0
  -26.5588  -34.8921   22.4675 O   0  0  0  0  0  0
  -23.5365  -32.1441   23.7527 O   0  0  0  0  0  0
  -31.2717  -21.9193   20.3676 C   0  0  0  0  0  0
  -29.4639  -20.3477   20.0771 C   0  0  0  0  0  0
  -29.9049  -21.6903   20.1193 C   0  0  0  0  0  0
  -32.1280  -20.8145   20.5307 C   0  0  0  0  0  0
  -30.3867  -19.2939   20.2635 C   0  0  0  0  0  0
  -33.9449  -20.9412   22.2914 C   0  0  0  0  0  0
  -30.3255  -17.3281   18.6801 C   0  0  0  0  0  0
  -28.9112  -22.8213   19.8491 C   0  0  0  0  0  0
  -33.6071  -21.0163   20.7975 C   0  0  0  0  0  0
  -29.3611  -24.2852   20.1188 C   0  0  0  0  0  0
  -30.4783  -16.8836   21.2224 C   0  0  0  0  0  0
  -28.2071  -25.2514   19.7757 C   0  0  0  0  0  0
  -29.9605  -17.8234   20.0906 C   0  0  1  0  0  0
  -31.7011  -19.5341   20.4713 N   0  0  0  0  0  0
  -30.0248  -15.4804   21.1138 N   0  0  0  0  0  0
  -31.4649  -12.3870   19.1253 H   0  0  0  0  0  0
  -30.3122  -11.2925   19.8298 H   0  0  0  0  0  0
  -29.7320  -11.7671   17.4298 H   0  0  0  0  0  0
  -29.6659  -13.4809   17.7673 H   0  0  0  0  0  0
  -27.8230  -11.3091   18.8203 H   0  0  0  0  0  0
  -27.3665  -12.6315   17.7796 H   0  0  0  0  0  0
  -27.7054  -14.2554   19.5676 H   0  0  0  0  0  0
  -28.6717  -11.9639   21.3447 H   0  0  0  0  0  0
  -28.4646  -13.6069   21.8638 H   0  0  0  0  0  0
  -25.2762   -9.5665   22.4750 H   0  0  0  0  0  0
  -23.9999   -7.4613   22.7456 H   0  0  0  0  0  0
  -21.0834   -8.8787   19.8943 H   0  0  0  0  0  0
  -22.3698  -10.9680   19.6165 H   0  0  0  0  0  0
  -21.2022   -7.6145   23.9730 H   0  0  0  0  0  0
  -21.1480   -6.0511   25.9085 H   0  0  0  0  0  0
  -22.0592   -2.7610   23.2843 H   0  0  0  0  0  0
  -22.4092  -11.9949   22.4869 H   0  0  0  0  0  0
  -21.1093  -13.1266   22.2564 H   0  0  0  0  0  0
  -24.6624  -15.8440   20.5158 H   0  0  0  0  0  0
  -26.2801  -15.6245   20.0794 H   0  0  0  0  0  0
  -26.7128  -32.5513   23.1167 H   0  0  0  0  0  0
  -25.0107  -33.9791   25.0506 H   0  0  0  0  0  0
  -22.6954  -31.3156   21.4200 H   0  0  0  0  0  0
  -23.3754  -35.9644   23.3315 H   0  0  0  0  0  0
  -24.3587  -36.8910   22.2045 H   0  0  0  0  0  0
  -23.7262  -37.6524   23.6642 H   0  0  0  0  0  0
  -26.0761  -31.5972   20.6220 H   0  0  0  0  0  0
  -26.8211  -30.8572   22.0105 H   0  0  0  0  0  0
  -28.1005  -29.0666   21.1750 H   0  0  0  0  0  0
  -25.9710  -26.0066   18.9600 H   0  0  0  0  0  0
  -23.9556  -27.3306   19.0268 H   0  0  0  0  0  0
  -23.7341  -30.6232   19.4145 H   0  0  0  0  0  0
  -22.7372  -29.2706   19.8604 H   0  0  0  0  0  0
  -25.1303  -36.1963   25.0826 H   0  0  0  0  0  0
  -20.9975  -28.3232   24.1424 H   0  0  0  0  0  0
  -20.5686  -26.2263   23.3600 H   0  0  0  0  0  0
  -21.6635  -26.7439   22.1196 H   0  0  0  0  0  0
  -19.6901  -25.6297   21.1234 H   0  0  0  0  0  0
  -19.6685  -27.3201   20.6756 H   0  0  0  0  0  0
  -17.4191  -26.6679   21.4027 H   0  0  0  0  0  0
  -18.0315  -26.0059   22.9016 H   0  0  0  0  0  0
  -19.7932  -30.7253   24.2294 H   0  0  0  0  0  0
  -17.5013  -31.6268   24.5151 H   0  0  0  0  0  0
  -15.5349  -30.2990   23.7651 H   0  0  0  0  0  0
  -15.8663  -28.0826   22.7061 H   0  0  0  0  0  0
  -24.5887  -30.7124   25.7849 H   0  0  0  0  0  0
  -24.8976  -32.2906   26.4990 H   0  0  0  0  0  0
  -25.8091  -30.8875   27.0249 H   0  0  0  0  0  0
  -26.2884  -29.6811   24.1210 H   0  0  0  0  0  0
  -27.4018  -29.7290   25.4685 H   0  0  0  0  0  0
  -27.8758  -30.4342   23.9409 H   0  0  0  0  0  0
  -27.2648  -33.3632   26.2132 H   0  0  0  0  0  0
  -28.3827  -32.6970   25.0323 H   0  0  0  0  0  0
  -28.0759  -31.8469   26.5398 H   0  0  0  0  0  0
  -28.2610  -38.0105   24.7502 H   0  0  0  0  0  0
  -28.1074  -36.2637   24.6299 H   0  0  0  0  0  0
  -27.2292  -37.1481   25.8861 H   0  0  0  0  0  0
  -20.9293  -29.8769   21.6950 H   0  0  0  0  0  0
  -26.0186  -38.2868   24.1408 H   0  0  0  0  0  0
  -31.6742  -22.9216   20.4193 H   0  0  0  0  0  0
  -28.4270  -20.1246   19.8677 H   0  0  0  0  0  0
  -35.0124  -21.0846   22.4581 H   0  0  0  0  0  0
  -33.6673  -19.9701   22.7028 H   0  0  0  0  0  0
  -33.4103  -21.7081   22.8521 H   0  0  0  0  0  0
  -29.9357  -18.0074   17.9218 H   0  0  0  0  0  0
  -29.9072  -16.3439   18.4720 H   0  0  0  0  0  0
  -31.4064  -17.2704   18.5516 H   0  0  0  0  0  0
  -28.0181  -22.6117   20.4400 H   0  0  0  0  0  0
  -28.6065  -22.7319   18.8047 H   0  0  0  0  0  0
  -33.9173  -21.9809   20.3932 H   0  0  0  0  0  0
  -34.1764  -20.2617   20.2524 H   0  0  0  0  0  0
  -30.2368  -24.5341   19.5189 H   0  0  0  0  0  0
  -29.6420  -24.3971   21.1658 H   0  0  0  0  0  0
  -30.1462  -17.2694   22.1877 H   0  0  0  0  0  0
  -31.5692  -16.9166   21.2531 H   0  0  0  0  0  0
  -27.3315  -24.8747   20.3080 H   0  0  0  0  0  0
  -28.0027  -25.1669   18.7068 H   0  0  0  0  0  0
  -28.8711  -17.8122   20.1515 H   0  0  0  0  0  0
  -29.1011  -15.2693   21.4604 H   0  0  0  0  0  0
  1 25  1  0  0  0
  1 30  2  0  0  0
  1 85  1  0  0  0
  2  3  1  0  0  0
  2 25  1  0  0  0
  2 86  1  0  0  0
  2 87  1  0  0  0
  3  4  1  0  0  0
  3 88  1  0  0  0
  3 89  1  0  0  0
  4  5  1  0  0  0
  4 90  1  0  0  0
  4 91  1  0  0  0
  5  6  1  0  0  0
  5 26  1  0  0  0
  5 92  1  0  0  0
  6 25  1  0  0  0
  6 93  1  0  0  0
  6 94  1  0  0  0
  7  8  2  0  0  0
  7 26  1  0  0  0
  7 29  1  0  0  0
  8  9  1  0  0  0
  8 22  1  0  0  0
  9 10  1  0  0  0
  9 27  2  0  0  0
 10 11  2  0  0  0
 10 15  1  0  0  0
 11 12  1  0  0  0
 11 95  1  0  0  0
 12 13  2  0  0  0
 12 96  1  0  0  0
 13 14  1  0  0  0
 13 31  1  0  0  0
 14 15  2  0  0  0
 14 97  1  0  0  0
 15 98  1  0  0  0
 16 17  2  0  0  0
 16 21  1  0  0  0
 16 31  1  0  0  0
 17 18  1  0  0  0
 17 99  1  0  0  0
 18 19  2  0  0  0
 18100  1  0  0  0
 19 20  1  0  0  0
 19 24  1  0  0  0
 20 21  2  0  0  0
 20101  1  0  0  0
 21 23  1  0  0  0
 22 28  1  0  0  0
 22 32  2  0  0  0
 26 27  1  0  0  0
 28102  1  0  0  0
 28103  1  0  0  0
 29104  1  0  0  0
 29105  1  0  0  0
 33 34  1  0  0  0
 33 66  1  0  0  0
 33 70  2  0  0  0
 34 36  1  0  0  0
 34 59  1  0  0  0
 34106  1  0  0  0
 35 44  2  0  0  0
 35 45  1  0  0  0
 35 68  1  0  0  0
 36 56  1  0  0  0
 36107  1  0  0  0
 37 39  1  0  0  0
 37 47  1  0  0  0
 37 66  1  0  0  0
 37108  1  0  0  0
 38 43  2  0  0  0
 38 46  1  0  0  0
 38 47  1  0  0  0
 39 64  1  0  0  0
 39 67  2  0  0  0
 40 52  1  0  0  0
 40 53  2  0  0  0
 40 58  1  0  0  0
 41109  1  0  0  0
 41110  1  0  0  0
 41111  1  0  0  0
 41 48  1  0  0  0
 42 43  1  0  0  0
 42 66  1  0  0  0
 42112  1  0  0  0
 42113  1  0  0  0
 43 44  1  0  0  0
 44114  1  0  0  0
 45 46  2  0  0  0
 45115  1  0  0  0
 46116  1  0  0  0
 47117  1  0  0  0
 47118  1  0  0  0
 48 56  1  0  0  0
 48 65  1  0  0  0
 48119  1  0  0  0
 49 50  1  0  0  0
 49 53  1  0  0  0
 49 64  1  0  0  0
 49120  1  0  0  0
 50 51  1  0  0  0
 50121  1  0  0  0
 50122  1  0  0  0
 51 52  1  0  0  0
 51123  1  0  0  0
 51124  1  0  0  0
 52125  1  0  0  0
 52126  1  0  0  0
 53 54  1  0  0  0
 54 55  2  0  0  0
 54127  1  0  0  0
 55 57  1  0  0  0
 55128  1  0  0  0
 56 69  2  0  0  0
 57 58  2  0  0  0
 57129  1  0  0  0
 58130  1  0  0  0
 59 60  1  0  0  0
 59 61  1  0  0  0
 59 62  1  0  0  0
 60131  1  0  0  0
 60132  1  0  0  0
 60133  1  0  0  0
 61134  1  0  0  0
 61135  1  0  0  0
 61136  1  0  0  0
 62137  1  0  0  0
 62138  1  0  0  0
 62139  1  0  0  0
 63 65  1  0  0  0
 63140  1  0  0  0
 63141  1  0  0  0
 63142  1  0  0  0
 64143  1  0  0  0
 65144  1  0  0  0
 68 82  1  0  0  0
 71 73  2  0  0  0
 71 74  1  0  0  0
 71145  1  0  0  0
 72 73  1  0  0  0
 72 75  2  0  0  0
 72146  1  0  0  0
 73 78  1  0  0  0
 74 79  1  0  0  0
 74 84  2  0  0  0
 75 83  1  0  0  0
 75 84  1  0  0  0
 76 79  1  0  0  0
 76147  1  0  0  0
 76148  1  0  0  0
 76149  1  0  0  0
 77150  1  0  0  0
 77151  1  0  0  0
 77152  1  0  0  0
 77 83  1  0  0  0
 78 80  1  0  0  0
 78153  1  0  0  0
 78154  1  0  0  0
 79155  1  0  0  0
 79156  1  0  0  0
 80 82  1  0  0  0
 80157  1  0  0  0
 80158  1  0  0  0
 81 83  1  0  0  0
 81 85  1  0  0  0
 81159  1  0  0  0
 81160  1  0  0  0
 82161  1  0  0  0
 82162  1  0  0  0
 83163  1  0  0  0
 85164  1  0  0  0
M  ISO  4   1 100  68 101  82 101  85 100
M  END
> <chiral flag>
0

> <version>
0

> <s_m_source_file>
/data/baiqing/PycharmProjects/Reinvent-master-3.2/result/LINK_invent/BTK/process_docking_weight1_custom_sum_contain_oxygen_bond_distance_aromatic_linkinvent_7_9_3/rearranged_h_0088.sdf

> <i_m_source_file_index>
51

> <r_mmod_Potential_Energy-OPLS-2005>
-282.860076904297

> <r_mmod_Stretch_Energy-OPLS-2005>
39.4009971618652

> <r_mmod_Bend_Energy-OPLS-2005>
100.1357421875

> <r_mmod_Torsional_Energy-OPLS-2005>
176.101821899414

> <r_mmod_Improper_Torsional_Energy-OPLS-2005>
3.59748435020447

> <r_mmod_Van_der_Waal_Energy-OPLS-2005>
160.80207824707

> <r_mmod_Electrostatic_Energy-OPLS-2005>
-557.925659179688

> <r_mmod_Solvation_Energy-OPLS-2005>
-219.910308837891

> <b_mmod_Minimization_Converged-OPLS-2005>
0

> <r_mmod_RMS_Derivative-OPLS-2005>
2.00279808044434

$$$$
52
                    3D
 Structure written by MMmdl.
173181  0  0  1  0            999 V2000
  -30.6157  -14.7251   20.4731 C   0  0  0  0  0  0
  -30.4482  -12.4491   19.4494 C   0  0  0  0  0  0
  -29.5141  -12.5090   18.2208 C   0  0  0  0  0  0
  -28.0389  -12.3383   18.6361 C   0  0  0  0  0  0
  -27.6498  -13.2262   19.8483 C   0  0  2  0  0  0
  -28.7033  -13.1408   20.9750 C   0  0  0  0  0  0
  -25.2578  -13.8190   20.5697 C   0  0  0  0  0  0
  -24.1856  -13.0447   20.9213 C   0  0  0  0  0  0
  -24.6423  -11.6911   20.8725 C   0  0  0  0  0  0
  -23.9079  -10.4293   21.0391 C   0  0  0  0  0  0
  -24.3633   -9.4214   21.9173 C   0  0  0  0  0  0
  -23.6303   -8.2252   22.0756 C   0  0  0  0  0  0
  -22.4276   -8.0286   21.3554 C   0  0  0  0  0  0
  -21.9910   -9.0256   20.4650 C   0  0  0  0  0  0
  -22.7239  -10.2133   20.3047 C   0  0  0  0  0  0
  -21.6860   -6.0727   22.5268 C   0  0  0  0  0  0
  -21.4012   -6.5629   23.8202 C   0  0  0  0  0  0
  -21.3665   -5.6788   24.9167 C   0  0  0  0  0  0
  -21.6056   -4.3054   24.7223 C   0  0  0  0  0  0
  -21.8824   -3.8135   23.4348 C   0  0  0  0  0  0
  -21.9201   -4.6951   22.3393 C   0  0  0  0  0  0
  -22.7872  -13.5242   21.1851 C   0  0  0  0  0  0
  -22.1667   -4.2136   21.0967 F   0  0  0  0  0  0
  -21.5637   -3.4539   25.7733 F   0  0  0  0  0  0
  -30.0021  -13.4983   20.3873 N   0  0  0  0  0  0
  -26.3004  -12.9379   20.3278 N   0  0  0  0  0  0
  -25.9353  -11.6534   20.5753 N   0  0  0  0  0  0
  -22.0490  -12.8243   22.0397 N   0  0  0  0  0  0
  -25.4270  -15.1918   20.4100 N   0  0  0  0  0  0
  -31.8144  -14.8520   20.2108 O   0  0  0  0  0  0
  -21.6655   -6.8868   21.4229 O   0  0  0  0  0  0
  -22.3556  -14.5534   20.6671 O   0  0  0  0  0  0
  -24.6305  -31.8574   23.2004 C   0  0  0  0  0  0
  -25.9136  -32.4767   23.8353 C   0  0  1  0  0  0
  -27.2196  -27.2845   20.1057 C   0  0  0  0  0  0
  -25.5946  -33.8572   24.2274 N   0  0  0  0  0  0
  -23.4240  -30.4836   21.5433 C   0  0  2  0  0  0
  -24.8682  -28.9335   20.1124 C   0  0  0  0  0  0
  -22.7487  -29.4633   22.4916 C   0  0  0  0  0  0
  -18.0290  -28.1397   22.8478 C   0  0  0  0  0  0
  -24.1488  -36.7269   23.2641 C   0  0  0  0  0  0
  -25.9695  -30.7787   21.3747 C   0  0  0  0  0  0
  -26.0415  -29.4028   20.7142 C   0  0  0  0  0  0
  -27.2204  -28.5888   20.7023 C   0  0  0  0  0  0
  -26.0157  -26.8800   19.4822 C   0  0  0  0  0  0
  -24.8562  -27.6760   19.4933 C   0  0  0  0  0  0
  -23.6404  -29.8194   20.1592 C   0  0  0  0  0  0
  -25.4109  -36.3061   24.0332 C   0  0  1  0  0  0
  -20.5897  -28.3699   23.1259 C   0  0  2  0  0  0
  -20.6771  -26.9422   22.5390 C   0  0  0  0  0  0
  -19.5753  -26.6393   21.5193 C   0  0  0  0  0  0
  -18.1940  -26.7936   22.1620 C   0  0  0  0  0  0
  -19.1548  -28.8860   23.2870 C   0  0  0  0  0  0
  -18.9480  -30.1461   23.8899 C   0  0  0  0  0  0
  -17.6480  -30.6597   24.0567 C   0  0  0  0  0  0
  -25.9053  -34.9432   23.5090 C   0  0  0  0  0  0
  -16.5370  -29.9095   23.6340 C   0  0  0  0  0  0
  -16.7283  -28.6517   23.0355 C   0  0  0  0  0  0
  -26.4524  -31.6583   25.0726 C   0  0  0  0  0  0
  -25.3770  -31.3706   26.1464 C   0  0  0  0  0  0
  -27.0370  -30.3009   24.6185 C   0  0  0  0  0  0
  -27.6102  -32.4308   25.7481 C   0  0  0  0  0  0
  -27.5576  -37.1778   24.8478 C   0  0  0  0  0  0
  -21.4195  -29.3053   22.3656 N   0  0  0  0  0  0
  -26.4283  -37.3760   23.9430 N   0  0  0  0  0  0
  -24.6935  -31.0565   22.0962 N   0  0  0  0  0  0
  -23.4195  -28.8171   23.3015 O   0  0  0  0  0  0
  -28.3271  -26.4081   20.1459 O   0  0  0  0  0  0
  -26.5611  -34.8921   22.4658 O   0  0  0  0  0  0
  -23.5451  -32.1391   23.7297 O   0  0  0  0  0  0
  -27.5318  -21.9547   19.5143 C   0  0  0  0  0  0
  -29.6872  -21.1459   20.2171 C   0  0  0  0  0  0
  -28.8135  -22.2875   20.0031 C   0  0  0  0  0  0
  -27.1684  -20.6058   19.3016 C   0  0  0  0  0  0
  -29.2571  -19.7843   19.9700 C   0  0  0  0  0  0
  -25.9312  -19.7902   17.2560 C   0  0  0  0  0  0
  -24.7058  -21.2613   18.9111 C   0  0  0  0  0  0
  -30.2808  -17.9008   18.5319 C   0  0  0  0  0  0
  -29.0211  -17.6505   22.1540 C   0  0  0  0  0  0
  -30.4542  -24.1535   19.4337 C   0  0  0  0  0  0
  -29.5473  -23.9677   21.7577 C   0  0  0  0  0  0
  -28.0970  -24.9451   19.9091 C   0  0  0  0  0  0
  -25.8071  -20.2013   18.7326 C   0  0  0  0  0  0
  -30.1725  -18.4711   19.9570 C   0  0  2  0  0  0
  -30.0332  -17.2803   21.0554 C   0  0  2  0  0  0
  -29.2035  -23.8192   20.2643 C   0  0  0  0  0  0
  -27.9988  -19.5670   19.5371 N   0  0  0  0  0  0
  -29.7940  -15.8184   20.6674 N   0  0  0  0  0  0
  -31.4838  -12.5954   19.1395 H   0  0  0  0  0  0
  -30.4087  -11.4682   19.9248 H   0  0  0  0  0  0
  -29.7882  -11.7364   17.5015 H   0  0  0  0  0  0
  -29.6447  -13.4635   17.7088 H   0  0  0  0  0  0
  -27.8884  -11.2872   18.8864 H   0  0  0  0  0  0
  -27.3837  -12.5504   17.7902 H   0  0  0  0  0  0
  -27.6450  -14.2511   19.4790 H   0  0  0  0  0  0
  -28.7437  -12.1371   21.3998 H   0  0  0  0  0  0
  -28.4471  -13.8092   21.7978 H   0  0  0  0  0  0
  -25.2769   -9.5706   22.4747 H   0  0  0  0  0  0
  -24.0013   -7.4660   22.7477 H   0  0  0  0  0  0
  -21.0839   -8.8769   19.8964 H   0  0  0  0  0  0
  -22.3680  -10.9679   19.6163 H   0  0  0  0  0  0
  -21.1980   -7.6135   23.9698 H   0  0  0  0  0  0
  -21.1494   -6.0515   25.9074 H   0  0  0  0  0  0
  -22.0596   -2.7595   23.2851 H   0  0  0  0  0  0
  -22.4103  -11.9925   22.4825 H   0  0  0  0  0  0
  -21.1099  -13.1272   22.2544 H   0  0  0  0  0  0
  -24.6591  -15.8432   20.5329 H   0  0  0  0  0  0
  -26.2617  -15.6356   20.0479 H   0  0  0  0  0  0
  -26.7197  -32.5432   23.1097 H   0  0  0  0  0  0
  -25.0135  -33.9712   25.0442 H   0  0  0  0  0  0
  -22.7228  -31.3072   21.3965 H   0  0  0  0  0  0
  -23.3764  -35.9586   23.3281 H   0  0  0  0  0  0
  -24.3593  -36.8908   22.2060 H   0  0  0  0  0  0
  -23.7213  -37.6461   23.6667 H   0  0  0  0  0  0
  -26.1051  -31.5437   20.6083 H   0  0  0  0  0  0
  -26.8483  -30.8276   22.0059 H   0  0  0  0  0  0
  -28.1210  -28.9392   21.1873 H   0  0  0  0  0  0
  -25.9327  -25.9223   18.9908 H   0  0  0  0  0  0
  -23.9513  -27.3063   19.0299 H   0  0  0  0  0  0
  -23.7683  -30.5964   19.4047 H   0  0  0  0  0  0
  -22.7576  -29.2559   19.8514 H   0  0  0  0  0  0
  -25.1278  -36.1899   25.0821 H   0  0  0  0  0  0
  -21.0007  -28.3261   24.1372 H   0  0  0  0  0  0
  -20.5647  -26.2319   23.3587 H   0  0  0  0  0  0
  -21.6640  -26.7430   22.1205 H   0  0  0  0  0  0
  -19.6920  -25.6300   21.1231 H   0  0  0  0  0  0
  -19.6691  -27.3192   20.6712 H   0  0  0  0  0  0
  -17.4197  -26.6675   21.4036 H   0  0  0  0  0  0
  -18.0364  -26.0069   22.9011 H   0  0  0  0  0  0
  -19.7955  -30.7265   24.2274 H   0  0  0  0  0  0
  -17.5043  -31.6281   24.5158 H   0  0  0  0  0  0
  -15.5374  -30.3010   23.7654 H   0  0  0  0  0  0
  -15.8676  -28.0833   22.7079 H   0  0  0  0  0  0
  -24.5969  -30.7024   25.7808 H   0  0  0  0  0  0
  -24.8944  -32.2855   26.4903 H   0  0  0  0  0  0
  -25.8123  -30.8897   27.0233 H   0  0  0  0  0  0
  -26.2937  -29.6743   24.1248 H   0  0  0  0  0  0
  -27.4118  -29.7285   25.4682 H   0  0  0  0  0  0
  -27.8781  -30.4318   23.9378 H   0  0  0  0  0  0
  -27.2763  -33.3642   26.2028 H   0  0  0  0  0  0
  -28.3925  -32.6807   25.0301 H   0  0  0  0  0  0
  -28.0753  -31.8444   26.5415 H   0  0  0  0  0  0
  -28.2584  -38.0086   24.7532 H   0  0  0  0  0  0
  -28.1072  -36.2614   24.6269 H   0  0  0  0  0  0
  -27.2305  -37.1385   25.8887 H   0  0  0  0  0  0
  -20.9365  -29.8803   21.6889 H   0  0  0  0  0  0
  -26.0152  -38.2829   24.1469 H   0  0  0  0  0  0
  -26.8201  -22.7336   19.2926 H   0  0  0  0  0  0
  -30.7027  -21.3199   20.5446 H   0  0  0  0  0  0
  -26.6953  -19.0220   17.1230 H   0  0  0  0  0  0
  -26.2057  -20.6418   16.6343 H   0  0  0  0  0  0
  -24.9923  -19.3842   16.8776 H   0  0  0  0  0  0
  -24.6173  -21.5663   19.9531 H   0  0  0  0  0  0
  -23.7380  -20.8702   18.5957 H   0  0  0  0  0  0
  -24.9023  -22.1489   18.3119 H   0  0  0  0  0  0
  -29.3261  -17.4971   18.1974 H   0  0  0  0  0  0
  -31.0189  -17.1007   18.4821 H   0  0  0  0  0  0
  -30.5815  -18.6714   17.8227 H   0  0  0  0  0  0
  -29.2269  -18.6421   22.5570 H   0  0  0  0  0  0
  -29.0655  -16.9495   22.9871 H   0  0  0  0  0  0
  -27.9991  -17.6544   21.7730 H   0  0  0  0  0  0
  -31.2969  -23.5094   19.6836 H   0  0  0  0  0  0
  -30.7719  -25.1834   19.6022 H   0  0  0  0  0  0
  -30.2560  -24.0414   18.3673 H   0  0  0  0  0  0
  -30.4108  -23.3614   22.0318 H   0  0  0  0  0  0
  -28.7122  -23.6524   22.3830 H   0  0  0  0  0  0
  -29.7777  -25.0025   22.0132 H   0  0  0  0  0  0
  -27.1921  -24.6730   20.4522 H   0  0  0  0  0  0
  -27.8642  -24.8327   18.8508 H   0  0  0  0  0  0
  -25.4861  -19.3223   19.2935 H   0  0  0  0  0  0
  -31.1623  -18.8868   20.1552 H   0  0  0  0  0  0
  -31.0036  -17.2571   21.5545 H   0  0  0  0  0  0
  -28.8236  -15.5503   20.7216 H   0  0  0  0  0  0
  1 25  1  0  0  0
  1 30  2  0  0  0
  1 88  1  0  0  0
  2  3  1  0  0  0
  2 25  1  0  0  0
  2 89  1  0  0  0
  2 90  1  0  0  0
  3  4  1  0  0  0
  3 91  1  0  0  0
  3 92  1  0  0  0
  4  5  1  0  0  0
  4 93  1  0  0  0
  4 94  1  0  0  0
  5  6  1  0  0  0
  5 26  1  0  0  0
  5 95  1  0  0  0
  6 25  1  0  0  0
  6 96  1  0  0  0
  6 97  1  0  0  0
  7  8  2  0  0  0
  7 26  1  0  0  0
  7 29  1  0  0  0
  8  9  1  0  0  0
  8 22  1  0  0  0
  9 10  1  0  0  0
  9 27  2  0  0  0
 10 11  2  0  0  0
 10 15  1  0  0  0
 11 12  1  0  0  0
 11 98  1  0  0  0
 12 13  2  0  0  0
 12 99  1  0  0  0
 13 14  1  0  0  0
 13 31  1  0  0  0
 14 15  2  0  0  0
 14100  1  0  0  0
 15101  1  0  0  0
 16 17  2  0  0  0
 16 21  1  0  0  0
 16 31  1  0  0  0
 17 18  1  0  0  0
 17102  1  0  0  0
 18 19  2  0  0  0
 18103  1  0  0  0
 19 20  1  0  0  0
 19 24  1  0  0  0
 20 21  2  0  0  0
 20104  1  0  0  0
 21 23  1  0  0  0
 22 28  1  0  0  0
 22 32  2  0  0  0
 26 27  1  0  0  0
 28105  1  0  0  0
 28106  1  0  0  0
 29107  1  0  0  0
 29108  1  0  0  0
 33 34  1  0  0  0
 33 66  1  0  0  0
 33 70  2  0  0  0
 34 36  1  0  0  0
 34 59  1  0  0  0
 34109  1  0  0  0
 35 44  2  0  0  0
 35 45  1  0  0  0
 35 68  1  0  0  0
 36 56  1  0  0  0
 36110  1  0  0  0
 37 39  1  0  0  0
 37 47  1  0  0  0
 37 66  1  0  0  0
 37111  1  0  0  0
 38 43  2  0  0  0
 38 46  1  0  0  0
 38 47  1  0  0  0
 39 64  1  0  0  0
 39 67  2  0  0  0
 40 52  1  0  0  0
 40 53  2  0  0  0
 40 58  1  0  0  0
 41112  1  0  0  0
 41113  1  0  0  0
 41114  1  0  0  0
 41 48  1  0  0  0
 42 43  1  0  0  0
 42 66  1  0  0  0
 42115  1  0  0  0
 42116  1  0  0  0
 43 44  1  0  0  0
 44117  1  0  0  0
 45 46  2  0  0  0
 45118  1  0  0  0
 46119  1  0  0  0
 47120  1  0  0  0
 47121  1  0  0  0
 48 56  1  0  0  0
 48 65  1  0  0  0
 48122  1  0  0  0
 49 50  1  0  0  0
 49 53  1  0  0  0
 49 64  1  0  0  0
 49123  1  0  0  0
 50 51  1  0  0  0
 50124  1  0  0  0
 50125  1  0  0  0
 51 52  1  0  0  0
 51126  1  0  0  0
 51127  1  0  0  0
 52128  1  0  0  0
 52129  1  0  0  0
 53 54  1  0  0  0
 54 55  2  0  0  0
 54130  1  0  0  0
 55 57  1  0  0  0
 55131  1  0  0  0
 56 69  2  0  0  0
 57 58  2  0  0  0
 57132  1  0  0  0
 58133  1  0  0  0
 59 60  1  0  0  0
 59 61  1  0  0  0
 59 62  1  0  0  0
 60134  1  0  0  0
 60135  1  0  0  0
 60136  1  0  0  0
 61137  1  0  0  0
 61138  1  0  0  0
 61139  1  0  0  0
 62140  1  0  0  0
 62141  1  0  0  0
 62142  1  0  0  0
 63 65  1  0  0  0
 63143  1  0  0  0
 63144  1  0  0  0
 63145  1  0  0  0
 64146  1  0  0  0
 65147  1  0  0  0
 68 82  1  0  0  0
 71 73  2  0  0  0
 71 74  1  0  0  0
 71148  1  0  0  0
 72 73  1  0  0  0
 72 75  2  0  0  0
 72149  1  0  0  0
 73 86  1  0  0  0
 74 83  1  0  0  0
 74 87  2  0  0  0
 75 84  1  0  0  0
 75 87  1  0  0  0
 76150  1  0  0  0
 76151  1  0  0  0
 76152  1  0  0  0
 76 83  1  0  0  0
 77 83  1  0  0  0
 77153  1  0  0  0
 77154  1  0  0  0
 77155  1  0  0  0
 78156  1  0  0  0
 78157  1  0  0  0
 78158  1  0  0  0
 78 84  1  0  0  0
 79159  1  0  0  0
 79160  1  0  0  0
 79161  1  0  0  0
 79 85  1  0  0  0
 80162  1  0  0  0
 80163  1  0  0  0
 80164  1  0  0  0
 80 86  1  0  0  0
 81 86  1  0  0  0
 81165  1  0  0  0
 81166  1  0  0  0
 81167  1  0  0  0
 82 86  1  0  0  0
 82168  1  0  0  0
 82169  1  0  0  0
 83170  1  0  0  0
 84 85  1  0  0  0
 84171  1  0  0  0
 85 88  1  0  0  0
 85172  1  0  0  0
 88173  1  0  0  0
M  ISO  4   1 100  68 101  82 101  88 100
M  END
> <chiral flag>
0

> <version>
0

> <s_m_source_file>
/data/baiqing/PycharmProjects/Reinvent-master-3.2/result/LINK_invent/BTK/process_docking_weight1_custom_sum_contain_oxygen_bond_distance_aromatic_linkinvent_7_9_3/rearranged_h_0088.sdf

> <i_m_source_file_index>
52

> <r_mmod_Potential_Energy-OPLS-2005>
-19.2850017547607

> <r_mmod_Stretch_Energy-OPLS-2005>
120.336723327637

> <r_mmod_Bend_Energy-OPLS-2005>
182.121078491211

> <r_mmod_Torsional_Energy-OPLS-2005>
207.452301025391

> <r_mmod_Improper_Torsional_Energy-OPLS-2005>
5.22568893432617

> <r_mmod_Van_der_Waal_Energy-OPLS-2005>
138.139526367188

> <r_mmod_Electrostatic_Energy-OPLS-2005>
-555.851684570312

> <r_mmod_Solvation_Energy-OPLS-2005>
-192.248840332031

> <b_mmod_Minimization_Converged-OPLS-2005>
0

> <r_mmod_RMS_Derivative-OPLS-2005>
2.82412958145142

$$$$
53
                    3D
 Structure written by MMmdl.
178186  0  0  1  0            999 V2000
  -30.6995  -14.4338   20.6026 C   0  0  0  0  0  0
  -30.4380  -12.3055   19.3918 C   0  0  0  0  0  0
  -29.4979  -12.5184   18.1887 C   0  0  0  0  0  0
  -28.0174  -12.3815   18.5995 C   0  0  0  0  0  0
  -27.6693  -13.1977   19.8725 C   0  0  2  0  0  0
  -28.7114  -12.9346   20.9817 C   0  0  0  0  0  0
  -25.2645  -13.8146   20.5654 C   0  0  0  0  0  0
  -24.1884  -13.0445   20.9145 C   0  0  0  0  0  0
  -24.6417  -11.6911   20.8700 C   0  0  0  0  0  0
  -23.9058  -10.4297   21.0379 C   0  0  0  0  0  0
  -24.3605   -9.4227   21.9176 C   0  0  0  0  0  0
  -23.6280   -8.2267   22.0764 C   0  0  0  0  0  0
  -22.4271   -8.0292   21.3545 C   0  0  0  0  0  0
  -21.9893   -9.0264   20.4638 C   0  0  0  0  0  0
  -22.7215  -10.2139   20.3041 C   0  0  0  0  0  0
  -21.6860   -6.0719   22.5263 C   0  0  0  0  0  0
  -21.4010   -6.5617   23.8188 C   0  0  0  0  0  0
  -21.3667   -5.6774   24.9153 C   0  0  0  0  0  0
  -21.6052   -4.3039   24.7207 C   0  0  0  0  0  0
  -21.8833   -3.8132   23.4340 C   0  0  0  0  0  0
  -21.9218   -4.6944   22.3394 C   0  0  0  0  0  0
  -22.7901  -13.5269   21.1786 C   0  0  0  0  0  0
  -22.1686   -4.2129   21.0974 F   0  0  0  0  0  0
  -21.5639   -3.4528   25.7730 F   0  0  0  0  0  0
  -30.0428  -13.2579   20.4377 N   0  0  0  0  0  0
  -26.3078  -12.9297   20.3339 N   0  0  0  0  0  0
  -25.9338  -11.6463   20.5717 N   0  0  0  0  0  0
  -22.0543  -12.8271   22.0351 N   0  0  0  0  0  0
  -25.4414  -15.1858   20.4051 N   0  0  0  0  0  0
  -31.8138  -14.6599   20.1243 O   0  0  0  0  0  0
  -21.6671   -6.8870   21.4234 O   0  0  0  0  0  0
  -22.3591  -14.5565   20.6607 O   0  0  0  0  0  0
  -24.6119  -31.8689   23.2104 C   0  0  0  0  0  0
  -25.9024  -32.4823   23.8394 C   0  0  1  0  0  0
  -27.2368  -27.4563   20.0951 C   0  0  0  0  0  0
  -25.5884  -33.8621   24.2328 N   0  0  0  0  0  0
  -23.4002  -30.4909   21.5485 C   0  0  2  0  0  0
  -24.8495  -28.9554   20.1185 C   0  0  0  0  0  0
  -22.7397  -29.4665   22.4990 C   0  0  0  0  0  0
  -18.0267  -28.1370   22.8493 C   0  0  0  0  0  0
  -24.1481  -36.7323   23.2642 C   0  0  0  0  0  0
  -25.9257  -30.8391   21.3635 C   0  0  0  0  0  0
  -26.0058  -29.4717   20.7174 C   0  0  0  0  0  0
  -27.2050  -28.7257   20.7123 C   0  0  0  0  0  0
  -26.0722  -26.9481   19.4892 C   0  0  0  0  0  0
  -24.8734  -27.6884   19.5059 C   0  0  0  0  0  0
  -23.6091  -29.8186   20.1646 C   0  0  0  0  0  0
  -25.4101  -36.3117   24.0340 C   0  0  1  0  0  0
  -20.5855  -28.3655   23.1320 C   0  0  2  0  0  0
  -20.6755  -26.9391   22.5419 C   0  0  0  0  0  0
  -19.5739  -26.6378   21.5210 C   0  0  0  0  0  0
  -18.1915  -26.7922   22.1622 C   0  0  0  0  0  0
  -19.1519  -28.8828   23.2905 C   0  0  0  0  0  0
  -18.9454  -30.1439   23.8908 C   0  0  0  0  0  0
  -17.6458  -30.6582   24.0561 C   0  0  0  0  0  0
  -25.9023  -34.9476   23.5135 C   0  0  0  0  0  0
  -16.5346  -29.9082   23.6323 C   0  0  0  0  0  0
  -16.7259  -28.6502   23.0345 C   0  0  0  0  0  0
  -26.4470  -31.6607   25.0718 C   0  0  0  0  0  0
  -25.3752  -31.3701   26.1475 C   0  0  0  0  0  0
  -27.0292  -30.3045   24.6077 C   0  0  0  0  0  0
  -27.6048  -32.4324   25.7478 C   0  0  0  0  0  0
  -27.5579  -37.1810   24.8464 C   0  0  0  0  0  0
  -21.4131  -29.3025   22.3725 N   0  0  0  0  0  0
  -26.4291  -37.3798   23.9411 N   0  0  0  0  0  0
  -24.6633  -31.0790   22.1003 N   0  0  0  0  0  0
  -23.4172  -28.8203   23.3033 O   0  0  0  0  0  0
  -28.3844  -26.7069   20.0458 O   0  0  0  0  0  0
  -26.5595  -34.8932   22.4699 O   0  0  0  0  0  0
  -23.5319  -32.1439   23.7508 O   0  0  0  0  0  0
  -29.3096  -20.2415   20.6274 C   0  0  0  0  0  0
  -30.1939  -19.1993   20.4893 C   0  0  0  0  0  0
  -31.5057  -19.7749   20.6586 C   0  0  0  0  0  0
  -31.3419  -21.1125   20.9504 C   0  0  0  0  0  0
  -32.3576  -22.1731   21.2762 C   0  0  0  0  0  0
  -33.5127  -18.8512   21.9317 C   0  0  0  0  0  0
  -33.7814  -19.6874   19.5263 C   0  0  0  0  0  0
  -31.1475  -26.0566   20.5956 C   0  0  0  0  0  0
  -30.2944  -17.3091   18.8101 C   0  0  0  0  0  0
  -28.2663  -17.5853   20.1749 C   0  0  0  0  0  0
  -29.7882  -23.8913   20.3446 C   0  0  0  0  0  0
  -29.3417  -22.6917   21.2252 C   0  0  0  0  0  0
  -30.3549  -16.8034   21.3459 C   0  0  0  0  0  0
  -28.6926  -26.0514   21.2729 C   0  0  0  0  0  0
  -32.8427  -19.0466   20.5607 C   0  0  0  0  0  0
  -29.9818  -25.2116   21.1392 C   0  0  2  0  0  0
  -29.8048  -17.7324   20.2122 C   0  0  0  0  0  0
  -29.9855  -21.4092   20.9110 N   0  0  0  0  0  0
  -29.9838  -15.3908   21.2101 N   0  0  0  0  0  0
  -31.4766  -12.4396   19.0809 H   0  0  0  0  0  0
  -30.3663  -11.2828   19.7628 H   0  0  0  0  0  0
  -29.7342  -11.8043   17.3983 H   0  0  0  0  0  0
  -29.6694  -13.5081   17.7641 H   0  0  0  0  0  0
  -27.8186  -11.3236   18.7714 H   0  0  0  0  0  0
  -27.3719  -12.6824   17.7736 H   0  0  0  0  0  0
  -27.7243  -14.2509   19.5962 H   0  0  0  0  0  0
  -28.6912  -11.8829   21.2692 H   0  0  0  0  0  0
  -28.4730  -13.4827   21.8930 H   0  0  0  0  0  0
  -25.2769   -9.5723   22.4708 H   0  0  0  0  0  0
  -24.0017   -7.4669   22.7485 H   0  0  0  0  0  0
  -21.0835   -8.8746   19.8934 H   0  0  0  0  0  0
  -22.3685  -10.9654   19.6117 H   0  0  0  0  0  0
  -21.1971   -7.6123   23.9670 H   0  0  0  0  0  0
  -21.1484   -6.0512   25.9043 H   0  0  0  0  0  0
  -22.0606   -2.7608   23.2842 H   0  0  0  0  0  0
  -22.4162  -11.9958   22.4792 H   0  0  0  0  0  0
  -21.1147  -13.1270   22.2456 H   0  0  0  0  0  0
  -24.6836  -15.8488   20.5077 H   0  0  0  0  0  0
  -26.2978  -15.6159   20.0797 H   0  0  0  0  0  0
  -26.7094  -32.5551   23.1162 H   0  0  0  0  0  0
  -25.0018  -33.9782   25.0462 H   0  0  0  0  0  0
  -22.6883  -31.3064   21.4065 H   0  0  0  0  0  0
  -23.3736  -35.9664   23.3314 H   0  0  0  0  0  0
  -24.3578  -36.8929   22.2055 H   0  0  0  0  0  0
  -23.7236  -37.6533   23.6647 H   0  0  0  0  0  0
  -26.0345  -31.6013   20.5903 H   0  0  0  0  0  0
  -26.8154  -30.8958   21.9785 H   0  0  0  0  0  0
  -28.1002  -29.1203   21.1735 H   0  0  0  0  0  0
  -26.0943  -25.9790   19.0111 H   0  0  0  0  0  0
  -23.9841  -27.2831   19.0423 H   0  0  0  0  0  0
  -23.7133  -30.5894   19.4002 H   0  0  0  0  0  0
  -22.7360  -29.2326   19.8736 H   0  0  0  0  0  0
  -25.1276  -36.1986   25.0833 H   0  0  0  0  0  0
  -20.9961  -28.3219   24.1435 H   0  0  0  0  0  0
  -20.5646  -26.2267   23.3604 H   0  0  0  0  0  0
  -21.6627  -26.7419   22.1216 H   0  0  0  0  0  0
  -19.6894  -25.6291   21.1228 H   0  0  0  0  0  0
  -19.6680  -27.3200   20.6749 H   0  0  0  0  0  0
  -17.4184  -26.6679   21.4015 H   0  0  0  0  0  0
  -18.0312  -26.0051   22.9013 H   0  0  0  0  0  0
  -19.7929  -30.7252   24.2280 H   0  0  0  0  0  0
  -17.5009  -31.6266   24.5165 H   0  0  0  0  0  0
  -15.5347  -30.2991   23.7631 H   0  0  0  0  0  0
  -15.8664  -28.0825   22.7045 H   0  0  0  0  0  0
  -24.5907  -30.7068   25.7807 H   0  0  0  0  0  0
  -24.8970  -32.2860   26.4955 H   0  0  0  0  0  0
  -25.8123  -30.8838   27.0208 H   0  0  0  0  0  0
  -26.2822  -29.6812   24.1136 H   0  0  0  0  0  0
  -27.4072  -29.7266   25.4524 H   0  0  0  0  0  0
  -27.8662  -30.4356   23.9209 H   0  0  0  0  0  0
  -27.2651  -33.3591   26.2103 H   0  0  0  0  0  0
  -28.3828  -32.6934   25.0299 H   0  0  0  0  0  0
  -28.0746  -31.8428   26.5355 H   0  0  0  0  0  0
  -28.2599  -38.0105   24.7508 H   0  0  0  0  0  0
  -28.1071  -36.2638   24.6285 H   0  0  0  0  0  0
  -27.2304  -37.1457   25.8870 H   0  0  0  0  0  0
  -20.9284  -29.8753   21.6954 H   0  0  0  0  0  0
  -26.0185  -38.2878   24.1416 H   0  0  0  0  0  0
  -28.2279  -20.2490   20.5713 H   0  0  0  0  0  0
  -33.2661  -21.7558   21.7023 H   0  0  0  0  0  0
  -31.9793  -22.8884   22.0050 H   0  0  0  0  0  0
  -32.6513  -22.7219   20.3815 H   0  0  0  0  0  0
  -32.8401  -18.3601   22.6343 H   0  0  0  0  0  0
  -33.8214  -19.7883   22.3880 H   0  0  0  0  0  0
  -34.4003  -18.2220   21.8417 H   0  0  0  0  0  0
  -33.2982  -19.7420   18.5499 H   0  0  0  0  0  0
  -34.6932  -19.1002   19.4061 H   0  0  0  0  0  0
  -34.0772  -20.6967   19.8023 H   0  0  0  0  0  0
  -32.0820  -25.4959   20.6177 H   0  0  0  0  0  0
  -31.2937  -26.9540   21.1978 H   0  0  0  0  0  0
  -30.9727  -26.3696   19.5666 H   0  0  0  0  0  0
  -29.9151  -17.9870   18.0431 H   0  0  0  0  0  0
  -29.9445  -16.3108   18.5480 H   0  0  0  0  0  0
  -31.3762  -17.2862   18.7197 H   0  0  0  0  0  0
  -27.8187  -18.2382   19.4217 H   0  0  0  0  0  0
  -27.8090  -17.8213   21.1368 H   0  0  0  0  0  0
  -27.9697  -16.5713   19.9177 H   0  0  0  0  0  0
  -29.0774  -24.0396   19.5315 H   0  0  0  0  0  0
  -30.7174  -23.6465   19.8369 H   0  0  0  0  0  0
  -28.2589  -22.5801   21.1511 H   0  0  0  0  0  0
  -29.5429  -22.8816   22.2794 H   0  0  0  0  0  0
  -29.9712  -17.1513   22.3048 H   0  0  0  0  0  0
  -31.4339  -16.8659   21.4415 H   0  0  0  0  0  0
  -28.8296  -26.7938   22.0615 H   0  0  0  0  0  0
  -27.8603  -25.4147   21.5796 H   0  0  0  0  0  0
  -32.6636  -18.0490   20.1807 H   0  0  0  0  0  0
  -30.2826  -24.9408   22.1526 H   0  0  0  0  0  0
  -29.0722  -15.1224   21.5482 H   0  0  0  0  0  0
  1 25  1  0  0  0
  1 30  2  0  0  0
  1 89  1  0  0  0
  2  3  1  0  0  0
  2 25  1  0  0  0
  2 90  1  0  0  0
  2 91  1  0  0  0
  3  4  1  0  0  0
  3 92  1  0  0  0
  3 93  1  0  0  0
  4  5  1  0  0  0
  4 94  1  0  0  0
  4 95  1  0  0  0
  5  6  1  0  0  0
  5 26  1  0  0  0
  5 96  1  0  0  0
  6 25  1  0  0  0
  6 97  1  0  0  0
  6 98  1  0  0  0
  7  8  2  0  0  0
  7 26  1  0  0  0
  7 29  1  0  0  0
  8  9  1  0  0  0
  8 22  1  0  0  0
  9 10  1  0  0  0
  9 27  2  0  0  0
 10 11  2  0  0  0
 10 15  1  0  0  0
 11 12  1  0  0  0
 11 99  1  0  0  0
 12 13  2  0  0  0
 12100  1  0  0  0
 13 14  1  0  0  0
 13 31  1  0  0  0
 14 15  2  0  0  0
 14101  1  0  0  0
 15102  1  0  0  0
 16 17  2  0  0  0
 16 21  1  0  0  0
 16 31  1  0  0  0
 17 18  1  0  0  0
 17103  1  0  0  0
 18 19  2  0  0  0
 18104  1  0  0  0
 19 20  1  0  0  0
 19 24  1  0  0  0
 20 21  2  0  0  0
 20105  1  0  0  0
 21 23  1  0  0  0
 22 28  1  0  0  0
 22 32  2  0  0  0
 26 27  1  0  0  0
 28106  1  0  0  0
 28107  1  0  0  0
 29108  1  0  0  0
 29109  1  0  0  0
 33 34  1  0  0  0
 33 66  1  0  0  0
 33 70  2  0  0  0
 34 36  1  0  0  0
 34 59  1  0  0  0
 34110  1  0  0  0
 35 44  2  0  0  0
 35 45  1  0  0  0
 35 68  1  0  0  0
 36 56  1  0  0  0
 36111  1  0  0  0
 37 39  1  0  0  0
 37 47  1  0  0  0
 37 66  1  0  0  0
 37112  1  0  0  0
 38 43  2  0  0  0
 38 46  1  0  0  0
 38 47  1  0  0  0
 39 64  1  0  0  0
 39 67  2  0  0  0
 40 52  1  0  0  0
 40 53  2  0  0  0
 40 58  1  0  0  0
 41113  1  0  0  0
 41114  1  0  0  0
 41115  1  0  0  0
 41 48  1  0  0  0
 42 43  1  0  0  0
 42 66  1  0  0  0
 42116  1  0  0  0
 42117  1  0  0  0
 43 44  1  0  0  0
 44118  1  0  0  0
 45 46  2  0  0  0
 45119  1  0  0  0
 46120  1  0  0  0
 47121  1  0  0  0
 47122  1  0  0  0
 48 56  1  0  0  0
 48 65  1  0  0  0
 48123  1  0  0  0
 49 50  1  0  0  0
 49 53  1  0  0  0
 49 64  1  0  0  0
 49124  1  0  0  0
 50 51  1  0  0  0
 50125  1  0  0  0
 50126  1  0  0  0
 51 52  1  0  0  0
 51127  1  0  0  0
 51128  1  0  0  0
 52129  1  0  0  0
 52130  1  0  0  0
 53 54  1  0  0  0
 54 55  2  0  0  0
 54131  1  0  0  0
 55 57  1  0  0  0
 55132  1  0  0  0
 56 69  2  0  0  0
 57 58  2  0  0  0
 57133  1  0  0  0
 58134  1  0  0  0
 59 60  1  0  0  0
 59 61  1  0  0  0
 59 62  1  0  0  0
 60135  1  0  0  0
 60136  1  0  0  0
 60137  1  0  0  0
 61138  1  0  0  0
 61139  1  0  0  0
 61140  1  0  0  0
 62141  1  0  0  0
 62142  1  0  0  0
 62143  1  0  0  0
 63 65  1  0  0  0
 63144  1  0  0  0
 63145  1  0  0  0
 63146  1  0  0  0
 64147  1  0  0  0
 65148  1  0  0  0
 68 84  1  0  0  0
 71 72  2  0  0  0
 71 88  1  0  0  0
 71149  1  0  0  0
 72 73  1  0  0  0
 72 87  1  0  0  0
 73 74  2  0  0  0
 73 85  1  0  0  0
 74 75  1  0  0  0
 74 88  1  0  0  0
 75150  1  0  0  0
 75151  1  0  0  0
 75152  1  0  0  0
 76153  1  0  0  0
 76154  1  0  0  0
 76155  1  0  0  0
 76 85  1  0  0  0
 77 85  1  0  0  0
 77156  1  0  0  0
 77157  1  0  0  0
 77158  1  0  0  0
 78159  1  0  0  0
 78160  1  0  0  0
 78161  1  0  0  0
 78 86  1  0  0  0
 79162  1  0  0  0
 79163  1  0  0  0
 79164  1  0  0  0
 79 87  1  0  0  0
 80 87  1  0  0  0
 80165  1  0  0  0
 80166  1  0  0  0
 80167  1  0  0  0
 81 82  1  0  0  0
 81 86  1  0  0  0
 81168  1  0  0  0
 81169  1  0  0  0
 82 88  1  0  0  0
 82170  1  0  0  0
 82171  1  0  0  0
 83 87  1  0  0  0
 83 89  1  0  0  0
 83172  1  0  0  0
 83173  1  0  0  0
 84 86  1  0  0  0
 84174  1  0  0  0
 84175  1  0  0  0
 85176  1  0  0  0
 86177  1  0  0  0
 89178  1  0  0  0
M  ISO  4   1 100  68 101  84 101  89 100
M  END
> <chiral flag>
0

> <version>
0

> <s_m_source_file>
/data/baiqing/PycharmProjects/Reinvent-master-3.2/result/LINK_invent/BTK/process_docking_weight1_custom_sum_contain_oxygen_bond_distance_aromatic_linkinvent_7_9_3/rearranged_h_0088.sdf

> <i_m_source_file_index>
53

> <r_mmod_Potential_Energy-OPLS-2005>
-140.511459350586

> <r_mmod_Stretch_Energy-OPLS-2005>
38.4534873962402

> <r_mmod_Bend_Energy-OPLS-2005>
105.978790283203

> <r_mmod_Torsional_Energy-OPLS-2005>
263.319549560547

> <r_mmod_Improper_Torsional_Energy-OPLS-2005>
3.52414989471436

> <r_mmod_Van_der_Waal_Energy-OPLS-2005>
130.635711669922

> <r_mmod_Electrostatic_Energy-OPLS-2005>
-496.652740478516

> <r_mmod_Solvation_Energy-OPLS-2005>
-194.891036987305

> <b_mmod_Minimization_Converged-OPLS-2005>
0

> <r_mmod_RMS_Derivative-OPLS-2005>
3.03490662574768

$$$$
54
                    3D
 Structure written by MMmdl.
183191  0  0  1  0            999 V2000
  -30.5580  -14.6688   20.4215 C   0  0  0  0  0  0
  -30.4085  -12.3880   19.4761 C   0  0  0  0  0  0
  -29.4897  -12.4978   18.2382 C   0  0  0  0  0  0
  -28.0090  -12.3332   18.6377 C   0  0  0  0  0  0
  -27.6275  -13.2200   19.8513 C   0  0  2  0  0  0
  -28.6636  -13.1060   20.9871 C   0  0  0  0  0  0
  -25.2498  -13.8207   20.5756 C   0  0  0  0  0  0
  -24.1759  -13.0452   20.9357 C   0  0  0  0  0  0
  -24.6322  -11.6917   20.8861 C   0  0  0  0  0  0
  -23.9005  -10.4326   21.0499 C   0  0  0  0  0  0
  -24.3606   -9.4247   21.9249 C   0  0  0  0  0  0
  -23.6346   -8.2266   22.0683 C   0  0  0  0  0  0
  -22.4313   -8.0321   21.3497 C   0  0  0  0  0  0
  -21.9952   -9.0286   20.4588 C   0  0  0  0  0  0
  -22.7231  -10.2184   20.3093 C   0  0  0  0  0  0
  -21.6841   -6.0840   22.5369 C   0  0  0  0  0  0
  -21.4008   -6.5719   23.8331 C   0  0  0  0  0  0
  -21.3648   -5.6809   24.9262 C   0  0  0  0  0  0
  -21.6042   -4.3093   24.7244 C   0  0  0  0  0  0
  -21.8824   -3.8229   23.4372 C   0  0  0  0  0  0
  -21.9179   -4.7083   22.3433 C   0  0  0  0  0  0
  -22.7808  -13.5254   21.2065 C   0  0  0  0  0  0
  -22.1670   -4.2313   21.1004 F   0  0  0  0  0  0
  -21.5592   -3.4525   25.7745 F   0  0  0  0  0  0
  -29.9710  -13.4373   20.4188 N   0  0  0  0  0  0
  -26.2828  -12.9353   20.3299 N   0  0  0  0  0  0
  -25.9229  -11.6513   20.5823 N   0  0  0  0  0  0
  -22.0429  -12.8164   22.0571 N   0  0  0  0  0  0
  -25.4198  -15.1908   20.4051 N   0  0  0  0  0  0
  -31.7585  -14.7783   20.1536 O   0  0  0  0  0  0
  -21.6663   -6.8945   21.4284 O   0  0  0  0  0  0
  -22.3509  -14.5583   20.6983 O   0  0  0  0  0  0
  -24.6298  -31.8535   23.1976 C   0  0  0  0  0  0
  -25.9119  -32.4725   23.8308 C   0  0  1  0  0  0
  -27.2076  -27.2575   20.0788 C   0  0  0  0  0  0
  -25.5943  -33.8536   24.2233 N   0  0  0  0  0  0
  -23.4250  -30.4782   21.5464 C   0  0  2  0  0  0
  -24.8636  -28.9290   20.1074 C   0  0  0  0  0  0
  -22.7539  -29.4553   22.4954 C   0  0  0  0  0  0
  -18.0302  -28.1343   22.8450 C   0  0  0  0  0  0
  -24.1510  -36.7322   23.2647 C   0  0  0  0  0  0
  -25.9748  -30.7628   21.3754 C   0  0  0  0  0  0
  -26.0435  -29.3865   20.7135 C   0  0  0  0  0  0
  -27.2136  -28.5574   20.6947 C   0  0  0  0  0  0
  -25.9982  -26.8784   19.4553 C   0  0  0  0  0  0
  -24.8463  -27.6795   19.4801 C   0  0  0  0  0  0
  -23.6412  -29.8207   20.1614 C   0  0  0  0  0  0
  -25.4126  -36.3072   24.0320 C   0  0  1  0  0  0
  -20.5914  -28.3621   23.1351 C   0  0  2  0  0  0
  -20.6794  -26.9333   22.5480 C   0  0  0  0  0  0
  -19.5766  -26.6327   21.5282 C   0  0  0  0  0  0
  -18.1922  -26.7887   22.1631 C   0  0  0  0  0  0
  -19.1543  -28.8800   23.2869 C   0  0  0  0  0  0
  -18.9489  -30.1445   23.8801 C   0  0  0  0  0  0
  -17.6490  -30.6520   24.0558 C   0  0  0  0  0  0
  -25.9062  -34.9430   23.5076 C   0  0  0  0  0  0
  -16.5366  -29.9012   23.6353 C   0  0  0  0  0  0
  -16.7299  -28.6494   23.0245 C   0  0  0  0  0  0
  -26.4477  -31.6500   25.0696 C   0  0  0  0  0  0
  -25.3697  -31.3703   26.1418 C   0  0  0  0  0  0
  -27.0354  -30.2895   24.6209 C   0  0  0  0  0  0
  -27.6024  -32.4240   25.7443 C   0  0  0  0  0  0
  -27.5571  -37.1791   24.8448 C   0  0  0  0  0  0
  -21.4229  -29.2974   22.3734 N   0  0  0  0  0  0
  -26.4301  -37.3783   23.9376 N   0  0  0  0  0  0
  -24.6969  -31.0533   22.0963 N   0  0  0  0  0  0
  -23.4238  -28.8125   23.3060 O   0  0  0  0  0  0
  -28.3166  -26.3741   20.1064 O   0  0  0  0  0  0
  -26.5693  -34.8917   22.4665 O   0  0  0  0  0  0
  -23.5457  -32.1336   23.7303 O   0  0  0  0  0  0
  -32.5395  -20.2902   20.4737 C   0  0  0  0  0  0
  -30.7171  -21.6833   21.2194 C   0  0  0  0  0  0
  -32.0525  -21.2736   21.3499 C   0  0  0  0  0  0
  -31.6618  -19.6544   19.5758 C   0  0  0  0  0  0
  -29.8476  -21.1268   20.2617 C   0  0  0  0  0  0
  -30.2444  -19.8279   19.7145 C   0  0  0  0  0  0
  -32.2990  -18.9334   18.3888 C   0  0  0  0  0  0
  -28.6990  -18.2142   18.3946 C   0  0  0  0  0  0
  -28.2239  -18.6861   20.7719 C   0  0  0  0  0  0
  -30.7391  -26.3301   23.5181 C   0  0  0  0  0  0
  -32.7776  -26.5162   22.1348 C   0  0  0  0  0  0
  -33.0147  -22.0379   22.2440 C   0  0  0  0  0  0
  -28.7375  -22.1488   19.7458 C   0  0  0  0  0  0
  -32.9577  -23.5614   22.0064 C   0  0  0  0  0  0
  -28.7818  -23.7006   20.3070 C   0  0  0  0  0  0
  -30.2379  -17.1940   20.2503 C   0  0  0  0  0  0
  -32.0580  -24.3266   23.0061 C   0  0  0  0  0  0
  -28.3206  -25.0007   19.4761 C   0  0  0  0  0  0
  -29.3672  -18.4841   19.7607 C   0  0  0  0  0  0
  -29.7402  -15.7820   20.4813 N   0  0  0  0  0  0
  -31.6290  -25.6690   22.5283 N   0  3  0  0  0  0
  -31.4563  -12.4966   19.1801 H   0  0  0  0  0  0
  -30.3236  -11.4047   19.9484 H   0  0  0  0  0  0
  -29.7690  -11.7633   17.4852 H   0  0  0  0  0  0
  -29.6195  -13.4757   17.7736 H   0  0  0  0  0  0
  -27.8447  -11.2785   18.8697 H   0  0  0  0  0  0
  -27.3537  -12.5608   17.7988 H   0  0  0  0  0  0
  -27.6225  -14.2496   19.4892 H   0  0  0  0  0  0
  -28.6688  -12.0898   21.3922 H   0  0  0  0  0  0
  -28.4138  -13.7690   21.8136 H   0  0  0  0  0  0
  -25.2719   -9.5803   22.4837 H   0  0  0  0  0  0
  -24.0150   -7.4613   22.7268 H   0  0  0  0  0  0
  -21.0944   -8.8765   19.8837 H   0  0  0  0  0  0
  -22.3682  -10.9755   19.6246 H   0  0  0  0  0  0
  -21.2028   -7.6212   23.9916 H   0  0  0  0  0  0
  -21.1418   -6.0498   25.9160 H   0  0  0  0  0  0
  -22.0589   -2.7704   23.2801 H   0  0  0  0  0  0
  -22.3989  -11.9729   22.4800 H   0  0  0  0  0  0
  -21.1054  -13.1229   22.2840 H   0  0  0  0  0  0
  -24.6353  -15.8295   20.4588 H   0  0  0  0  0  0
  -26.2453  -15.6134   20.0034 H   0  0  0  0  0  0
  -26.7190  -32.5357   23.1025 H   0  0  0  0  0  0
  -24.9999  -33.9668   25.0308 H   0  0  0  0  0  0
  -22.7171  -31.2963   21.4014 H   0  0  0  0  0  0
  -23.3773  -35.9661   23.3280 H   0  0  0  0  0  0
  -24.3630  -36.8974   22.2083 H   0  0  0  0  0  0
  -23.7256  -37.6496   23.6715 H   0  0  0  0  0  0
  -26.1168  -31.5365   20.6170 H   0  0  0  0  0  0
  -26.8551  -30.8074   22.0080 H   0  0  0  0  0  0
  -28.1189  -28.9053   21.1767 H   0  0  0  0  0  0
  -25.8730  -25.9465   18.9364 H   0  0  0  0  0  0
  -23.9432  -27.3198   18.9996 H   0  0  0  0  0  0
  -23.7568  -30.5968   19.4053 H   0  0  0  0  0  0
  -22.7593  -29.2563   19.8591 H   0  0  0  0  0  0
  -25.1284  -36.1925   25.0835 H   0  0  0  0  0  0
  -20.9945  -28.3188   24.1502 H   0  0  0  0  0  0
  -20.5754  -26.2212   23.3656 H   0  0  0  0  0  0
  -21.6641  -26.7392   22.1196 H   0  0  0  0  0  0
  -19.6931  -25.6270   21.1210 H   0  0  0  0  0  0
  -19.6676  -27.3238   20.6892 H   0  0  0  0  0  0
  -17.4209  -26.6660   21.3989 H   0  0  0  0  0  0
  -18.0216  -26.0019   22.9014 H   0  0  0  0  0  0
  -19.7973  -30.7320   24.1970 H   0  0  0  0  0  0
  -17.5037  -31.6159   24.5225 H   0  0  0  0  0  0
  -15.5344  -30.2854   23.7761 H   0  0  0  0  0  0
  -15.8715  -28.0887   22.6796 H   0  0  0  0  0  0
  -24.5917  -30.6954   25.7809 H   0  0  0  0  0  0
  -24.8818  -32.2904   26.4675 H   0  0  0  0  0  0
  -25.8011  -30.9034   27.0275 H   0  0  0  0  0  0
  -26.2991  -29.6561   24.1244 H   0  0  0  0  0  0
  -27.4042  -29.7208   25.4741 H   0  0  0  0  0  0
  -27.8830  -30.4121   23.9461 H   0  0  0  0  0  0
  -27.2622  -33.3559   26.1953 H   0  0  0  0  0  0
  -28.3845  -32.6714   25.0266 H   0  0  0  0  0  0
  -28.0636  -31.8380   26.5381 H   0  0  0  0  0  0
  -28.2548  -38.0131   24.7545 H   0  0  0  0  0  0
  -28.1094  -36.2642   24.6178 H   0  0  0  0  0  0
  -27.2331  -37.1389   25.8876 H   0  0  0  0  0  0
  -20.9397  -29.8752   21.6997 H   0  0  0  0  0  0
  -26.0156  -38.2849   24.1389 H   0  0  0  0  0  0
  -33.6017  -20.0701   20.4516 H   0  0  0  0  0  0
  -30.3753  -22.5234   21.7866 H   0  0  0  0  0  0
  -33.2592  -19.3904   18.1324 H   0  0  0  0  0  0
  -31.6855  -19.0690   17.5010 H   0  0  0  0  0  0
  -32.5057  -17.8760   18.5301 H   0  0  0  0  0  0
  -27.8619  -18.8880   18.2060 H   0  0  0  0  0  0
  -28.2751  -17.2140   18.3710 H   0  0  0  0  0  0
  -29.3765  -18.3126   17.5472 H   0  0  0  0  0  0
  -27.5628  -19.4990   20.4746 H   0  0  0  0  0  0
  -28.6280  -18.9298   21.7529 H   0  0  0  0  0  0
  -27.6000  -17.7984   20.8708 H   0  0  0  0  0  0
  -30.4511  -27.3348   23.2052 H   0  0  0  0  0  0
  -31.2238  -26.4079   24.4917 H   0  0  0  0  0  0
  -29.8186  -25.7606   23.6589 H   0  0  0  0  0  0
  -32.4812  -27.5419   21.9131 H   0  0  0  0  0  0
  -33.2818  -26.1120   21.2534 H   0  0  0  0  0  0
  -33.5110  -26.5463   22.9404 H   0  0  0  0  0  0
  -34.0215  -21.6959   22.0084 H   0  0  0  0  0  0
  -32.8455  -21.7996   23.2964 H   0  0  0  0  0  0
  -27.7652  -21.7122   19.9694 H   0  0  0  0  0  0
  -28.8087  -22.1626   18.6545 H   0  0  0  0  0  0
  -32.6627  -23.7469   20.9758 H   0  0  0  0  0  0
  -33.9689  -23.9589   22.0856 H   0  0  0  0  0  0
  -29.8076  -23.9808   20.5181 H   0  0  0  0  0  0
  -28.2789  -23.6959   21.2761 H   0  0  0  0  0  0
  -30.7454  -17.4867   21.1705 H   0  0  0  0  0  0
  -30.9957  -17.0157   19.5060 H   0  0  0  0  0  0
  -32.5846  -24.4415   23.9528 H   0  0  0  0  0  0
  -31.1623  -23.7491   23.2303 H   0  0  0  0  0  0
  -27.4201  -24.7364   18.9351 H   0  0  0  0  0  0
  -29.0584  -25.0981   18.6800 H   0  0  0  0  0  0
  -28.7534  -15.6377   20.6384 H   0  0  0  0  0  0
  -31.0710  -25.5442   21.6945 H   0  0  0  0  0  0
  1 25  1  0  0  0
  1 30  2  0  0  0
  1 90  1  0  0  0
  2  3  1  0  0  0
  2 25  1  0  0  0
  2 92  1  0  0  0
  2 93  1  0  0  0
  3  4  1  0  0  0
  3 94  1  0  0  0
  3 95  1  0  0  0
  4  5  1  0  0  0
  4 96  1  0  0  0
  4 97  1  0  0  0
  5  6  1  0  0  0
  5 26  1  0  0  0
  5 98  1  0  0  0
  6 25  1  0  0  0
  6 99  1  0  0  0
  6100  1  0  0  0
  7  8  2  0  0  0
  7 26  1  0  0  0
  7 29  1  0  0  0
  8  9  1  0  0  0
  8 22  1  0  0  0
  9 10  1  0  0  0
  9 27  2  0  0  0
 10 11  2  0  0  0
 10 15  1  0  0  0
 11 12  1  0  0  0
 11101  1  0  0  0
 12 13  2  0  0  0
 12102  1  0  0  0
 13 14  1  0  0  0
 13 31  1  0  0  0
 14 15  2  0  0  0
 14103  1  0  0  0
 15104  1  0  0  0
 16 17  2  0  0  0
 16 21  1  0  0  0
 16 31  1  0  0  0
 17 18  1  0  0  0
 17105  1  0  0  0
 18 19  2  0  0  0
 18106  1  0  0  0
 19 20  1  0  0  0
 19 24  1  0  0  0
 20 21  2  0  0  0
 20107  1  0  0  0
 21 23  1  0  0  0
 22 28  1  0  0  0
 22 32  2  0  0  0
 26 27  1  0  0  0
 28108  1  0  0  0
 28109  1  0  0  0
 29110  1  0  0  0
 29111  1  0  0  0
 33 34  1  0  0  0
 33 66  1  0  0  0
 33 70  2  0  0  0
 34 36  1  0  0  0
 34 59  1  0  0  0
 34112  1  0  0  0
 35 44  2  0  0  0
 35 45  1  0  0  0
 35 68  1  0  0  0
 36 56  1  0  0  0
 36113  1  0  0  0
 37 39  1  0  0  0
 37 47  1  0  0  0
 37 66  1  0  0  0
 37114  1  0  0  0
 38 43  2  0  0  0
 38 46  1  0  0  0
 38 47  1  0  0  0
 39 64  1  0  0  0
 39 67  2  0  0  0
 40 52  1  0  0  0
 40 53  2  0  0  0
 40 58  1  0  0  0
 41115  1  0  0  0
 41116  1  0  0  0
 41117  1  0  0  0
 41 48  1  0  0  0
 42 43  1  0  0  0
 42 66  1  0  0  0
 42118  1  0  0  0
 42119  1  0  0  0
 43 44  1  0  0  0
 44120  1  0  0  0
 45 46  2  0  0  0
 45121  1  0  0  0
 46122  1  0  0  0
 47123  1  0  0  0
 47124  1  0  0  0
 48 56  1  0  0  0
 48 65  1  0  0  0
 48125  1  0  0  0
 49 50  1  0  0  0
 49 53  1  0  0  0
 49 64  1  0  0  0
 49126  1  0  0  0
 50 51  1  0  0  0
 50127  1  0  0  0
 50128  1  0  0  0
 51 52  1  0  0  0
 51129  1  0  0  0
 51130  1  0  0  0
 52131  1  0  0  0
 52132  1  0  0  0
 53 54  1  0  0  0
 54 55  2  0  0  0
 54133  1  0  0  0
 55 57  1  0  0  0
 55134  1  0  0  0
 56 69  2  0  0  0
 57 58  2  0  0  0
 57135  1  0  0  0
 58136  1  0  0  0
 59 60  1  0  0  0
 59 61  1  0  0  0
 59 62  1  0  0  0
 60137  1  0  0  0
 60138  1  0  0  0
 60139  1  0  0  0
 61140  1  0  0  0
 61141  1  0  0  0
 61142  1  0  0  0
 62143  1  0  0  0
 62144  1  0  0  0
 62145  1  0  0  0
 63 65  1  0  0  0
 63146  1  0  0  0
 63147  1  0  0  0
 63148  1  0  0  0
 64149  1  0  0  0
 65150  1  0  0  0
 68 88  1  0  0  0
 71 73  2  0  0  0
 71 74  1  0  0  0
 71151  1  0  0  0
 72 73  1  0  0  0
 72 75  2  0  0  0
 72152  1  0  0  0
 73 82  1  0  0  0
 74 76  2  0  0  0
 74 77  1  0  0  0
 75 76  1  0  0  0
 75 83  1  0  0  0
 76 89  1  0  0  0
 77153  1  0  0  0
 77154  1  0  0  0
 77155  1  0  0  0
 78156  1  0  0  0
 78157  1  0  0  0
 78158  1  0  0  0
 78 89  1  0  0  0
 79 89  1  0  0  0
 79159  1  0  0  0
 79160  1  0  0  0
 79161  1  0  0  0
 80162  1  0  0  0
 80163  1  0  0  0
 80164  1  0  0  0
 80 91  1  0  0  0
 81 91  1  0  0  0
 81165  1  0  0  0
 81166  1  0  0  0
 81167  1  0  0  0
 82 84  1  0  0  0
 82168  1  0  0  0
 82169  1  0  0  0
 83 85  1  0  0  0
 83170  1  0  0  0
 83171  1  0  0  0
 84 87  1  0  0  0
 84172  1  0  0  0
 84173  1  0  0  0
 85 88  1  0  0  0
 85174  1  0  0  0
 85175  1  0  0  0
 86 89  1  0  0  0
 86 90  1  0  0  0
 86176  1  0  0  0
 86177  1  0  0  0
 87 91  1  0  0  0
 87178  1  0  0  0
 87179  1  0  0  0
 88180  1  0  0  0
 88181  1  0  0  0
 90182  1  0  0  0
 91183  1  0  0  0
M  CHG  1  91   1
M  ISO  4   1 100  68 101  88 101  90 100
M  END
> <chiral flag>
0

> <version>
0

> <s_m_source_file>
/data/baiqing/PycharmProjects/Reinvent-master-3.2/result/LINK_invent/BTK/process_docking_weight1_custom_sum_contain_oxygen_bond_distance_aromatic_linkinvent_7_9_3/rearranged_h_0088.sdf

> <i_m_source_file_index>
54

> <r_mmod_Potential_Energy-OPLS-2005>
214.694152832031

> <r_mmod_Stretch_Energy-OPLS-2005>
137.195465087891

> <r_mmod_Bend_Energy-OPLS-2005>
212.128936767578

> <r_mmod_Torsional_Energy-OPLS-2005>
399.916198730469

> <r_mmod_Improper_Torsional_Energy-OPLS-2005>
15.2815456390381

> <r_mmod_Van_der_Waal_Energy-OPLS-2005>
166.772537231445

> <r_mmod_Electrostatic_Energy-OPLS-2005>
-368.21435546875

> <r_mmod_Solvation_Energy-OPLS-2005>
-421.503997802734

> <b_mmod_Minimization_Converged-OPLS-2005>
0

> <r_mmod_RMS_Derivative-OPLS-2005>
10.431342124939

$$$$
55
                    3D
 Structure written by MMmdl.
180188  0  0  1  0            999 V2000
  -30.5892  -15.0173   20.4173 C   0  0  0  0  0  0
  -30.4396  -12.6372   19.5195 C   0  0  0  0  0  0
  -29.5279  -12.5537   18.2730 C   0  0  0  0  0  0
  -28.0634  -12.3236   18.6869 C   0  0  0  0  0  0
  -27.6206  -13.2657   19.8373 C   0  0  2  0  0  0
  -28.6692  -13.3575   20.9742 C   0  0  0  0  0  0
  -25.2120  -13.7870   20.5517 C   0  0  0  0  0  0
  -24.1615  -13.0149   20.9292 C   0  0  0  0  0  0
  -24.6390  -11.6730   20.8854 C   0  0  0  0  0  0
  -23.9100  -10.4132   21.0448 C   0  0  0  0  0  0
  -24.3624   -9.4056   21.9229 C   0  0  0  0  0  0
  -23.6264   -8.2122   22.0766 C   0  0  0  0  0  0
  -22.4251   -8.0198   21.3538 C   0  0  0  0  0  0
  -21.9915   -9.0179   20.4637 C   0  0  0  0  0  0
  -22.7281  -10.2030   20.3068 C   0  0  0  0  0  0
  -21.6818   -6.0695   22.5283 C   0  0  0  0  0  0
  -21.3988   -6.5606   23.8214 C   0  0  0  0  0  0
  -21.3661   -5.6771   24.9186 C   0  0  0  0  0  0
  -21.6052   -4.3033   24.7247 C   0  0  0  0  0  0
  -21.8815   -3.8114   23.4368 C   0  0  0  0  0  0
  -21.9170   -4.6925   22.3414 C   0  0  0  0  0  0
  -22.7655  -13.4975   21.1944 C   0  0  0  0  0  0
  -22.1641   -4.2107   21.0996 F   0  0  0  0  0  0
  -21.5647   -3.4521   25.7765 F   0  0  0  0  0  0
  -29.9517  -13.7654   20.3729 N   0  0  0  0  0  0
  -26.2812  -12.9389   20.3273 N   0  0  0  0  0  0
  -25.9369  -11.6496   20.5886 N   0  0  0  0  0  0
  -22.0319  -12.8036   22.0538 N   0  0  0  0  0  0
  -25.2950  -15.1422   20.3346 N   0  0  0  0  0  0
  -31.7912  -15.0268   20.1375 O   0  0  0  0  0  0
  -21.6581   -6.8830   21.4242 O   0  0  0  0  0  0
  -22.3352  -14.5297   20.6777 O   0  0  0  0  0  0
  -24.6424  -31.8420   23.1843 C   0  0  0  0  0  0
  -25.9193  -32.4686   23.8240 C   0  0  1  0  0  0
  -27.2589  -27.1436   20.1667 C   0  0  0  0  0  0
  -25.5924  -33.8489   24.2159 N   0  0  0  0  0  0
  -23.4497  -30.4577   21.5265 C   0  0  2  0  0  0
  -24.9074  -28.8716   20.1169 C   0  0  0  0  0  0
  -22.7567  -29.4578   22.4846 C   0  0  0  0  0  0
  -18.0316  -28.1414   22.8497 C   0  0  0  0  0  0
  -24.1475  -36.7250   23.2648 C   0  0  0  0  0  0
  -26.0022  -30.7180   21.3811 C   0  0  0  0  0  0
  -26.0804  -29.3263   20.7310 C   0  0  0  0  0  0
  -27.2516  -28.4815   20.7348 C   0  0  0  0  0  0
  -26.0531  -26.7813   19.5207 C   0  0  0  0  0  0
  -24.9057  -27.6103   19.4964 C   0  0  0  0  0  0
  -23.6802  -29.7711   20.1516 C   0  0  0  0  0  0
  -25.4104  -36.3036   24.0336 C   0  0  1  0  0  0
  -20.5923  -28.3762   23.1221 C   0  0  2  0  0  0
  -20.6795  -26.9459   22.5407 C   0  0  0  0  0  0
  -19.5761  -26.6405   21.5225 C   0  0  0  0  0  0
  -18.1949  -26.7952   22.1637 C   0  0  0  0  0  0
  -19.1572  -28.8904   23.2852 C   0  0  0  0  0  0
  -18.9486  -30.1490   23.8888 C   0  0  0  0  0  0
  -17.6483  -30.6609   24.0577 C   0  0  0  0  0  0
  -25.9065  -34.9411   23.5069 C   0  0  0  0  0  0
  -16.5378  -29.9105   23.6341 C   0  0  0  0  0  0
  -16.7299  -28.6517   23.0377 C   0  0  0  0  0  0
  -26.4492  -31.6556   25.0692 C   0  0  0  0  0  0
  -25.3680  -31.3764   26.1398 C   0  0  0  0  0  0
  -27.0346  -30.2933   24.6306 C   0  0  0  0  0  0
  -27.6017  -32.4326   25.7490 C   0  0  0  0  0  0
  -27.5561  -37.1790   24.8473 C   0  0  0  0  0  0
  -21.4257  -29.3074   22.3580 N   0  0  0  0  0  0
  -26.4268  -37.3750   23.9429 N   0  0  0  0  0  0
  -24.7174  -31.0301   22.0849 N   0  0  0  0  0  0
  -23.4189  -28.8175   23.3053 O   0  0  0  0  0  0
  -28.3501  -26.1959   20.2497 O   0  0  0  0  0  0
  -26.5667  -34.8931   22.4657 O   0  0  0  0  0  0
  -23.5544  -32.1277   23.7082 O   0  0  0  0  0  0
  -28.0020  -20.9741   21.8754 C   0  0  0  0  0  0
  -27.0247  -20.1729   22.4857 C   0  0  0  0  0  0
  -28.9201  -20.5100   20.9088 C   0  0  0  0  0  0
  -27.7083  -18.4047   20.9589 C   0  0  0  0  0  0
  -26.8070  -18.8898   21.9412 C   0  0  0  0  0  0
  -28.9690  -18.9987   20.7132 C   0  0  0  0  0  0
  -27.2677  -17.2980   20.0341 C   0  0  0  0  0  0
  -26.0341  -16.8747   23.3000 C   0  0  0  0  0  0
  -30.7349  -18.1003   18.9988 C   0  0  0  0  0  0
  -26.3364  -23.4471   26.3830 C   0  0  0  0  0  0
  -24.4354  -23.3204   24.7309 C   0  0  0  0  0  0
  -26.1129  -20.7526   23.5750 C   0  0  0  0  0  0
  -29.4964  -21.8127   20.1034 C   0  0  0  0  0  0
  -25.6134  -18.0353   22.3855 C   0  0  0  0  0  0
  -29.3055  -23.4632   20.5416 C   0  0  0  0  0  0
  -26.5912  -22.0580   24.2593 C   0  0  0  0  0  0
  -28.2059  -24.6528   20.0498 C   0  0  0  0  0  0
  -30.1280  -17.8364   20.3803 C   0  0  2  0  0  0
  -25.6225  -22.5620   25.3495 C   0  0  0  0  0  0
  -29.8678  -16.2488   20.5655 N   0  0  0  0  0  0
  -31.4756  -12.7790   19.2074 H   0  0  0  0  0  0
  -30.4274  -11.6990   20.0784 H   0  0  0  0  0  0
  -29.8636  -11.7565   17.6085 H   0  0  0  0  0  0
  -29.6026  -13.4829   17.7054 H   0  0  0  0  0  0
  -27.9686  -11.2835   19.0047 H   0  0  0  0  0  0
  -27.4035  -12.4394   17.8260 H   0  0  0  0  0  0
  -27.5585  -14.2573   19.3873 H   0  0  0  0  0  0
  -28.7653  -12.4074   21.5015 H   0  0  0  0  0  0
  -28.3530  -14.0917   21.7176 H   0  0  0  0  0  0
  -25.2751   -9.5513   22.4834 H   0  0  0  0  0  0
  -23.9929   -7.4497   22.7490 H   0  0  0  0  0  0
  -21.0850   -8.8735   19.8933 H   0  0  0  0  0  0
  -22.3777  -10.9594   19.6181 H   0  0  0  0  0  0
  -21.1963   -7.6107   23.9720 H   0  0  0  0  0  0
  -21.1507   -6.0494   25.9098 H   0  0  0  0  0  0
  -22.0595   -2.7572   23.2885 H   0  0  0  0  0  0
  -22.3942  -11.9705   22.4944 H   0  0  0  0  0  0
  -21.0941  -13.1087   22.2741 H   0  0  0  0  0  0
  -24.4632  -15.7194   20.3736 H   0  0  0  0  0  0
  -26.0671  -15.5818   19.8574 H   0  0  0  0  0  0
  -26.7285  -32.5303   23.0998 H   0  0  0  0  0  0
  -25.0055  -33.9577   25.0300 H   0  0  0  0  0  0
  -22.7527  -31.2822   21.3642 H   0  0  0  0  0  0
  -23.3743  -35.9575   23.3298 H   0  0  0  0  0  0
  -24.3539  -36.8875   22.2060 H   0  0  0  0  0  0
  -23.7238  -37.6459   23.6661 H   0  0  0  0  0  0
  -26.1582  -31.4684   20.6044 H   0  0  0  0  0  0
  -26.8697  -30.7702   22.0261 H   0  0  0  0  0  0
  -28.1433  -28.8387   21.2303 H   0  0  0  0  0  0
  -25.9782  -25.8146   19.0477 H   0  0  0  0  0  0
  -24.0130  -27.2526   19.0021 H   0  0  0  0  0  0
  -23.8105  -30.5328   19.3826 H   0  0  0  0  0  0
  -22.7981  -29.2035   19.8521 H   0  0  0  0  0  0
  -25.1294  -36.1859   25.0830 H   0  0  0  0  0  0
  -21.0022  -28.3377   24.1335 H   0  0  0  0  0  0
  -20.5680  -26.2398   23.3649 H   0  0  0  0  0  0
  -21.6671  -26.7452   22.1218 H   0  0  0  0  0  0
  -19.6916  -25.6306   21.1278 H   0  0  0  0  0  0
  -19.6680  -27.3206   20.6747 H   0  0  0  0  0  0
  -17.4216  -26.6719   21.4040 H   0  0  0  0  0  0
  -18.0331  -26.0080   22.9018 H   0  0  0  0  0  0
  -19.7969  -30.7324   24.2227 H   0  0  0  0  0  0
  -17.5046  -31.6284   24.5202 H   0  0  0  0  0  0
  -15.5377  -30.3019   23.7664 H   0  0  0  0  0  0
  -15.8698  -28.0838   22.7089 H   0  0  0  0  0  0
  -24.5916  -30.7013   25.7764 H   0  0  0  0  0  0
  -24.8795  -32.2946   26.4674 H   0  0  0  0  0  0
  -25.7992  -30.9091   27.0265 H   0  0  0  0  0  0
  -26.2965  -29.6675   24.1277 H   0  0  0  0  0  0
  -27.3880  -29.7214   25.4899 H   0  0  0  0  0  0
  -27.8902  -30.4116   23.9655 H   0  0  0  0  0  0
  -27.2602  -33.3691   26.1910 H   0  0  0  0  0  0
  -28.3916  -32.6772   25.0373 H   0  0  0  0  0  0
  -28.0561  -31.8538   26.5542 H   0  0  0  0  0  0
  -28.2604  -38.0066   24.7520 H   0  0  0  0  0  0
  -28.1035  -36.2609   24.6295 H   0  0  0  0  0  0
  -27.2277  -37.1444   25.8876 H   0  0  0  0  0  0
  -20.9473  -29.8721   21.6705 H   0  0  0  0  0  0
  -26.0129  -38.2826   24.1401 H   0  0  0  0  0  0
  -27.9996  -22.0199   22.1139 H   0  0  0  0  0  0
  -26.2447  -17.4720   19.7016 H   0  0  0  0  0  0
  -27.3619  -16.3526   20.5551 H   0  0  0  0  0  0
  -27.8551  -17.2693   19.1164 H   0  0  0  0  0  0
  -25.1676  -16.2916   23.6098 H   0  0  0  0  0  0
  -26.5274  -17.2410   24.2004 H   0  0  0  0  0  0
  -26.7178  -16.1898   22.7982 H   0  0  0  0  0  0
  -31.0996  -19.1256   18.9314 H   0  0  0  0  0  0
  -30.0005  -17.9519   18.2082 H   0  0  0  0  0  0
  -31.5808  -17.4401   18.8049 H   0  0  0  0  0  0
  -25.6432  -23.7967   27.1496 H   0  0  0  0  0  0
  -26.7868  -24.3263   25.9202 H   0  0  0  0  0  0
  -27.1295  -22.8994   26.8937 H   0  0  0  0  0  0
  -23.6798  -23.5504   25.4822 H   0  0  0  0  0  0
  -23.9486  -22.7398   23.9478 H   0  0  0  0  0  0
  -24.7562  -24.2646   24.2873 H   0  0  0  0  0  0
  -26.0050  -19.9944   24.3518 H   0  0  0  0  0  0
  -25.1206  -20.9004   23.1467 H   0  0  0  0  0  0
  -29.1600  -21.7103   19.0716 H   0  0  0  0  0  0
  -30.5708  -21.6324   20.0544 H   0  0  0  0  0  0
  -25.0827  -17.6449   21.5203 H   0  0  0  0  0  0
  -24.8558  -18.6271   22.8953 H   0  0  0  0  0  0
  -30.2442  -23.8917   20.1866 H   0  0  0  0  0  0
  -29.4159  -23.5433   21.6237 H   0  0  0  0  0  0
  -26.7190  -22.8632   23.5355 H   0  0  0  0  0  0
  -27.5752  -21.8738   24.6912 H   0  0  0  0  0  0
  -27.2582  -24.3800   20.5136 H   0  0  0  0  0  0
  -28.0470  -24.5166   18.9794 H   0  0  0  0  0  0
  -30.9167  -18.0461   21.1044 H   0  0  0  0  0  0
  -25.2314  -21.6973   25.8879 H   0  0  0  0  0  0
  -28.9051  -16.0732   20.8032 H   0  0  0  0  0  0
  1 25  1  0  0  0
  1 30  2  0  0  0
  1 90  1  0  0  0
  2  3  1  0  0  0
  2 25  1  0  0  0
  2 91  1  0  0  0
  2 92  1  0  0  0
  3  4  1  0  0  0
  3 93  1  0  0  0
  3 94  1  0  0  0
  4  5  1  0  0  0
  4 95  1  0  0  0
  4 96  1  0  0  0
  5  6  1  0  0  0
  5 26  1  0  0  0
  5 97  1  0  0  0
  6 25  1  0  0  0
  6 98  1  0  0  0
  6 99  1  0  0  0
  7  8  2  0  0  0
  7 26  1  0  0  0
  7 29  1  0  0  0
  8  9  1  0  0  0
  8 22  1  0  0  0
  9 10  1  0  0  0
  9 27  2  0  0  0
 10 11  2  0  0  0
 10 15  1  0  0  0
 11 12  1  0  0  0
 11100  1  0  0  0
 12 13  2  0  0  0
 12101  1  0  0  0
 13 14  1  0  0  0
 13 31  1  0  0  0
 14 15  2  0  0  0
 14102  1  0  0  0
 15103  1  0  0  0
 16 17  2  0  0  0
 16 21  1  0  0  0
 16 31  1  0  0  0
 17 18  1  0  0  0
 17104  1  0  0  0
 18 19  2  0  0  0
 18105  1  0  0  0
 19 20  1  0  0  0
 19 24  1  0  0  0
 20 21  2  0  0  0
 20106  1  0  0  0
 21 23  1  0  0  0
 22 28  1  0  0  0
 22 32  2  0  0  0
 26 27  1  0  0  0
 28107  1  0  0  0
 28108  1  0  0  0
 29109  1  0  0  0
 29110  1  0  0  0
 33 34  1  0  0  0
 33 66  1  0  0  0
 33 70  2  0  0  0
 34 36  1  0  0  0
 34 59  1  0  0  0
 34111  1  0  0  0
 35 44  2  0  0  0
 35 45  1  0  0  0
 35 68  1  0  0  0
 36 56  1  0  0  0
 36112  1  0  0  0
 37 39  1  0  0  0
 37 47  1  0  0  0
 37 66  1  0  0  0
 37113  1  0  0  0
 38 43  2  0  0  0
 38 46  1  0  0  0
 38 47  1  0  0  0
 39 64  1  0  0  0
 39 67  2  0  0  0
 40 52  1  0  0  0
 40 53  2  0  0  0
 40 58  1  0  0  0
 41114  1  0  0  0
 41115  1  0  0  0
 41116  1  0  0  0
 41 48  1  0  0  0
 42 43  1  0  0  0
 42 66  1  0  0  0
 42117  1  0  0  0
 42118  1  0  0  0
 43 44  1  0  0  0
 44119  1  0  0  0
 45 46  2  0  0  0
 45120  1  0  0  0
 46121  1  0  0  0
 47122  1  0  0  0
 47123  1  0  0  0
 48 56  1  0  0  0
 48 65  1  0  0  0
 48124  1  0  0  0
 49 50  1  0  0  0
 49 53  1  0  0  0
 49 64  1  0  0  0
 49125  1  0  0  0
 50 51  1  0  0  0
 50126  1  0  0  0
 50127  1  0  0  0
 51 52  1  0  0  0
 51128  1  0  0  0
 51129  1  0  0  0
 52130  1  0  0  0
 52131  1  0  0  0
 53 54  1  0  0  0
 54 55  2  0  0  0
 54132  1  0  0  0
 55 57  1  0  0  0
 55133  1  0  0  0
 56 69  2  0  0  0
 57 58  2  0  0  0
 57134  1  0  0  0
 58135  1  0  0  0
 59 60  1  0  0  0
 59 61  1  0  0  0
 59 62  1  0  0  0
 60136  1  0  0  0
 60137  1  0  0  0
 60138  1  0  0  0
 61139  1  0  0  0
 61140  1  0  0  0
 61141  1  0  0  0
 62142  1  0  0  0
 62143  1  0  0  0
 62144  1  0  0  0
 63 65  1  0  0  0
 63145  1  0  0  0
 63146  1  0  0  0
 63147  1  0  0  0
 64148  1  0  0  0
 65149  1  0  0  0
 68 87  1  0  0  0
 71 72  2  0  0  0
 71 73  1  0  0  0
 71150  1  0  0  0
 72 75  1  0  0  0
 72 82  1  0  0  0
 73 76  2  0  0  0
 73 83  1  0  0  0
 74 75  2  0  0  0
 74 76  1  0  0  0
 74 77  1  0  0  0
 75 84  1  0  0  0
 76 88  1  0  0  0
 77151  1  0  0  0
 77152  1  0  0  0
 77153  1  0  0  0
 78 84  1  0  0  0
 78154  1  0  0  0
 78155  1  0  0  0
 78156  1  0  0  0
 79157  1  0  0  0
 79158  1  0  0  0
 79159  1  0  0  0
 79 88  1  0  0  0
 80160  1  0  0  0
 80161  1  0  0  0
 80162  1  0  0  0
 80 89  1  0  0  0
 81 89  1  0  0  0
 81163  1  0  0  0
 81164  1  0  0  0
 81165  1  0  0  0
 82 86  1  0  0  0
 82166  1  0  0  0
 82167  1  0  0  0
 83 85  1  0  0  0
 83168  1  0  0  0
 83169  1  0  0  0
 84170  1  0  0  0
 84171  1  0  0  0
 85 87  1  0  0  0
 85172  1  0  0  0
 85173  1  0  0  0
 86 89  1  0  0  0
 86174  1  0  0  0
 86175  1  0  0  0
 87176  1  0  0  0
 87177  1  0  0  0
 88 90  1  0  0  0
 88178  1  0  0  0
 89179  1  0  0  0
 90180  1  0  0  0
M  ISO  4   1 100  68 101  87 101  90 100
M  END
> <chiral flag>
0

> <version>
0

> <s_m_source_file>
/data/baiqing/PycharmProjects/Reinvent-master-3.2/result/LINK_invent/BTK/process_docking_weight1_custom_sum_contain_oxygen_bond_distance_aromatic_linkinvent_7_9_3/rearranged_h_0088.sdf

> <i_m_source_file_index>
55

> <r_mmod_Potential_Energy-OPLS-2005>
760.856994628906

> <r_mmod_Stretch_Energy-OPLS-2005>
322.875183105469

> <r_mmod_Bend_Energy-OPLS-2005>
341.624664306641

> <r_mmod_Torsional_Energy-OPLS-2005>
332.129241943359

> <r_mmod_Improper_Torsional_Energy-OPLS-2005>
8.12083625793457

> <r_mmod_Van_der_Waal_Energy-OPLS-2005>
154.467514038086

> <r_mmod_Electrostatic_Energy-OPLS-2005>
-426.454803466797

> <r_mmod_Solvation_Energy-OPLS-2005>
-189.168029785156

> <b_mmod_Minimization_Converged-OPLS-2005>
0

> <r_mmod_RMS_Derivative-OPLS-2005>
3.1267991065979

$$$$
56
                    3D
 Structure written by MMmdl.
167175  0  0  1  0            999 V2000
  -30.5731  -14.7840   20.4219 C   0  0  0  0  0  0
  -30.4460  -12.4803   19.4485 C   0  0  0  0  0  0
  -29.5040  -12.4875   18.2232 C   0  0  0  0  0  0
  -28.0313  -12.3116   18.6534 C   0  0  0  0  0  0
  -27.6376  -13.2289   19.8423 C   0  0  2  0  0  0
  -28.6918  -13.1762   20.9645 C   0  0  0  0  0  0
  -25.2504  -13.8191   20.5696 C   0  0  0  0  0  0
  -24.1817  -13.0455   20.9256 C   0  0  0  0  0  0
  -24.6426  -11.6931   20.8832 C   0  0  0  0  0  0
  -23.9138  -10.4314   21.0488 C   0  0  0  0  0  0
  -24.3685   -9.4186   21.9214 C   0  0  0  0  0  0
  -23.6345   -8.2231   22.0770 C   0  0  0  0  0  0
  -22.4299   -8.0308   21.3572 C   0  0  0  0  0  0
  -21.9975   -9.0309   20.4664 C   0  0  0  0  0  0
  -22.7348  -10.2164   20.3099 C   0  0  0  0  0  0
  -21.6861   -6.0764   22.5295 C   0  0  0  0  0  0
  -21.4015   -6.5663   23.8227 C   0  0  0  0  0  0
  -21.3657   -5.6807   24.9197 C   0  0  0  0  0  0
  -21.6034   -4.3076   24.7216 C   0  0  0  0  0  0
  -21.8833   -3.8183   23.4347 C   0  0  0  0  0  0
  -21.9184   -4.7001   22.3407 C   0  0  0  0  0  0
  -22.7812  -13.5171   21.1947 C   0  0  0  0  0  0
  -22.1646   -4.2193   21.0988 F   0  0  0  0  0  0
  -21.5663   -3.4553   25.7725 F   0  0  0  0  0  0
  -29.9767  -13.5456   20.3559 N   0  0  0  0  0  0
  -26.2942  -12.9406   20.3331 N   0  0  0  0  0  0
  -25.9334  -11.6563   20.5816 N   0  0  0  0  0  0
  -22.0493  -12.8108   22.0487 N   0  0  0  0  0  0
  -25.4132  -15.1922   20.4031 N   0  0  0  0  0  0
  -31.7898  -14.8925   20.2578 O   0  0  0  0  0  0
  -21.6663   -6.8899   21.4241 O   0  0  0  0  0  0
  -22.3459  -14.5474   20.6815 O   0  0  0  0  0  0
  -24.6337  -31.8526   23.1947 C   0  0  0  0  0  0
  -25.9148  -32.4751   23.8311 C   0  0  1  0  0  0
  -27.2211  -27.2382   20.1447 C   0  0  0  0  0  0
  -25.5916  -33.8547   24.2225 N   0  0  0  0  0  0
  -23.4328  -30.4718   21.5398 C   0  0  2  0  0  0
  -24.8822  -28.9165   20.1099 C   0  0  0  0  0  0
  -22.7534  -29.4550   22.4911 C   0  0  0  0  0  0
  -18.0287  -28.1368   22.8494 C   0  0  0  0  0  0
  -24.1487  -36.7278   23.2638 C   0  0  0  0  0  0
  -25.9812  -30.7592   21.3775 C   0  0  0  0  0  0
  -26.0543  -29.3792   20.7223 C   0  0  0  0  0  0
  -27.2290  -28.5569   20.7204 C   0  0  0  0  0  0
  -26.0307  -26.8511   19.4913 C   0  0  0  0  0  0
  -24.8798  -27.6646   19.4753 C   0  0  0  0  0  0
  -23.6521  -29.8043   20.1566 C   0  0  0  0  0  0
  -25.4119  -36.3070   24.0324 C   0  0  1  0  0  0
  -20.5887  -28.3667   23.1287 C   0  0  2  0  0  0
  -20.6761  -26.9380   22.5423 C   0  0  0  0  0  0
  -19.5735  -26.6364   21.5230 C   0  0  0  0  0  0
  -18.1915  -26.7913   22.1630 C   0  0  0  0  0  0
  -19.1539  -28.8843   23.2875 C   0  0  0  0  0  0
  -18.9453  -30.1441   23.8899 C   0  0  0  0  0  0
  -17.6451  -30.6575   24.0550 C   0  0  0  0  0  0
  -25.9075  -34.9444   23.5102 C   0  0  0  0  0  0
  -16.5342  -29.9080   23.6315 C   0  0  0  0  0  0
  -16.7269  -28.6482   23.0368 C   0  0  0  0  0  0
  -26.4490  -31.6578   25.0711 C   0  0  0  0  0  0
  -25.3680  -31.3722   26.1396 C   0  0  0  0  0  0
  -27.0327  -30.2990   24.6209 C   0  0  0  0  0  0
  -27.6040  -32.4321   25.7492 C   0  0  0  0  0  0
  -27.5593  -37.1786   24.8449 C   0  0  0  0  0  0
  -21.4232  -29.3023   22.3687 N   0  0  0  0  0  0
  -26.4283  -37.3786   23.9421 N   0  0  0  0  0  0
  -24.7025  -31.0477   22.0936 N   0  0  0  0  0  0
  -23.4229  -28.8100   23.3018 O   0  0  0  0  0  0
  -28.3151  -26.3364   20.1748 O   0  0  0  0  0  0
  -26.5668  -34.8929   22.4682 O   0  0  0  0  0  0
  -23.5479  -32.1352   23.7220 O   0  0  0  0  0  0
  -27.6353  -21.4366   18.7049 C   0  0  0  0  0  0
  -27.1529  -20.6126   17.6856 C   0  0  0  0  0  0
  -28.6194  -20.9946   19.6088 C   0  0  0  0  0  0
  -27.6930  -19.3203   17.5719 C   0  0  0  0  0  0
  -29.0235  -19.5769   19.5012 C   0  0  0  0  0  0
  -26.0534  -21.1572   16.7875 C   0  0  0  0  0  0
  -26.0654  -17.5220   16.9083 C   0  0  0  0  0  0
  -30.5620  -24.2075   20.3739 C   0  0  0  0  0  0
  -29.0492  -22.1491   20.5982 C   0  0  0  0  0  0
  -27.2835  -18.3468   16.4801 C   0  0  0  0  0  0
  -30.1134  -18.7383   20.2854 C   0  0  0  0  0  0
  -29.8690  -17.3048   21.0397 C   0  0  0  0  0  0
  -28.0987  -24.8765   20.5313 C   0  0  0  0  0  0
  -29.1422  -23.7101   20.0687 C   0  0  1  0  0  0
  -28.5643  -18.8273   18.4733 N   0  0  0  0  0  0
  -29.7390  -15.8942   20.4413 N   0  0  0  0  0  0
  -31.4790  -12.6365   19.1347 H   0  0  0  0  0  0
  -30.4287  -11.5199   19.9625 H   0  0  0  0  0  0
  -29.7836  -11.6938   17.5296 H   0  0  0  0  0  0
  -29.6132  -13.4257   17.6758 H   0  0  0  0  0  0
  -27.8958  -11.2667   18.9394 H   0  0  0  0  0  0
  -27.3671  -12.4795   17.8058 H   0  0  0  0  0  0
  -27.6224  -14.2432   19.4453 H   0  0  0  0  0  0
  -28.7421  -12.1764   21.3978 H   0  0  0  0  0  0
  -28.4342  -13.8591   21.7786 H   0  0  0  0  0  0
  -25.2837   -9.5620   22.4794 H   0  0  0  0  0  0
  -24.0079   -7.4571   22.7438 H   0  0  0  0  0  0
  -21.0959   -8.8844   19.8898 H   0  0  0  0  0  0
  -22.3877  -10.9725   19.6216 H   0  0  0  0  0  0
  -21.1983   -7.6159   23.9733 H   0  0  0  0  0  0
  -21.1487   -6.0547   25.9090 H   0  0  0  0  0  0
  -22.0602   -2.7649   23.2851 H   0  0  0  0  0  0
  -22.4165  -11.9756   22.4829 H   0  0  0  0  0  0
  -21.1095  -13.1052   22.2749 H   0  0  0  0  0  0
  -24.6398  -15.8377   20.4983 H   0  0  0  0  0  0
  -26.2483  -15.6319   20.0433 H   0  0  0  0  0  0
  -26.7218  -32.5389   23.1046 H   0  0  0  0  0  0
  -25.0009  -33.9670   25.0332 H   0  0  0  0  0  0
  -22.7291  -31.2933   21.3929 H   0  0  0  0  0  0
  -23.3785  -35.9574   23.3254 H   0  0  0  0  0  0
  -24.3583  -36.8959   22.2064 H   0  0  0  0  0  0
  -23.7194  -37.6444   23.6701 H   0  0  0  0  0  0
  -26.1250  -31.5164   20.6051 H   0  0  0  0  0  0
  -26.8572  -30.8082   22.0125 H   0  0  0  0  0  0
  -28.1310  -28.9128   21.2002 H   0  0  0  0  0  0
  -25.9757  -25.8997   18.9839 H   0  0  0  0  0  0
  -23.9916  -27.3161   18.9683 H   0  0  0  0  0  0
  -23.7756  -30.5793   19.4002 H   0  0  0  0  0  0
  -22.7713  -29.2366   19.8539 H   0  0  0  0  0  0
  -25.1299  -36.1921   25.0815 H   0  0  0  0  0  0
  -20.9966  -28.3242   24.1412 H   0  0  0  0  0  0
  -20.5658  -26.2278   23.3636 H   0  0  0  0  0  0
  -21.6632  -26.7397   22.1228 H   0  0  0  0  0  0
  -19.6899  -25.6278   21.1264 H   0  0  0  0  0  0
  -19.6689  -27.3178   20.6764 H   0  0  0  0  0  0
  -17.4200  -26.6672   21.4028 H   0  0  0  0  0  0
  -18.0293  -26.0052   22.9018 H   0  0  0  0  0  0
  -19.7923  -30.7250   24.2299 H   0  0  0  0  0  0
  -17.4997  -31.6264   24.5138 H   0  0  0  0  0  0
  -15.5343  -30.2985   23.7620 H   0  0  0  0  0  0
  -15.8664  -28.0792   22.7111 H   0  0  0  0  0  0
  -24.5865  -30.7084   25.7681 H   0  0  0  0  0  0
  -24.8845  -32.2881   26.4807 H   0  0  0  0  0  0
  -25.7946  -30.8885   27.0183 H   0  0  0  0  0  0
  -26.2903  -29.6756   24.1211 H   0  0  0  0  0  0
  -27.3965  -29.7252   25.4736 H   0  0  0  0  0  0
  -27.8804  -30.4261   23.9473 H   0  0  0  0  0  0
  -27.2648  -33.3620   26.2061 H   0  0  0  0  0  0
  -28.3845  -32.6879   25.0320 H   0  0  0  0  0  0
  -28.0704  -31.8446   26.5406 H   0  0  0  0  0  0
  -28.2561  -38.0140   24.7594 H   0  0  0  0  0  0
  -28.1147  -36.2673   24.6158 H   0  0  0  0  0  0
  -27.2319  -37.1291   25.8853 H   0  0  0  0  0  0
  -20.9433  -29.8753   21.6884 H   0  0  0  0  0  0
  -26.0164  -38.2850   24.1487 H   0  0  0  0  0  0
  -27.2392  -22.4368   18.7799 H   0  0  0  0  0  0
  -26.0142  -22.2480   16.8386 H   0  0  0  0  0  0
  -25.0852  -20.7826   17.1196 H   0  0  0  0  0  0
  -26.1966  -20.9013   15.7410 H   0  0  0  0  0  0
  -25.7336  -16.8571   16.1114 H   0  0  0  0  0  0
  -25.2282  -18.1663   17.1782 H   0  0  0  0  0  0
  -26.3180  -16.9180   17.7812 H   0  0  0  0  0  0
  -31.3149  -23.5146   19.9979 H   0  0  0  0  0  0
  -30.7238  -24.3224   21.4452 H   0  0  0  0  0  0
  -30.7466  -25.1710   19.8978 H   0  0  0  0  0  0
  -30.0207  -21.8407   20.9855 H   0  0  0  0  0  0
  -28.3848  -22.1017   21.4620 H   0  0  0  0  0  0
  -28.1116  -17.6664   16.2714 H   0  0  0  0  0  0
  -27.1048  -18.8657   15.5389 H   0  0  0  0  0  0
  -30.4438  -19.4220   21.0653 H   0  0  0  0  0  0
  -30.9821  -18.6362   19.6329 H   0  0  0  0  0  0
  -28.9941  -17.4334   21.6798 H   0  0  0  0  0  0
  -30.7033  -17.2100   21.7366 H   0  0  0  0  0  0
  -28.0476  -24.8458   21.6221 H   0  0  0  0  0  0
  -27.1107  -24.5520   20.2093 H   0  0  0  0  0  0
  -29.0937  -23.6811   18.9821 H   0  0  0  0  0  0
  -28.7774  -15.6342   20.2882 H   0  0  0  0  0  0
  1 25  1  0  0  0
  1 30  2  0  0  0
  1 86  1  0  0  0
  2  3  1  0  0  0
  2 25  1  0  0  0
  2 87  1  0  0  0
  2 88  1  0  0  0
  3  4  1  0  0  0
  3 89  1  0  0  0
  3 90  1  0  0  0
  4  5  1  0  0  0
  4 91  1  0  0  0
  4 92  1  0  0  0
  5  6  1  0  0  0
  5 26  1  0  0  0
  5 93  1  0  0  0
  6 25  1  0  0  0
  6 94  1  0  0  0
  6 95  1  0  0  0
  7  8  2  0  0  0
  7 26  1  0  0  0
  7 29  1  0  0  0
  8  9  1  0  0  0
  8 22  1  0  0  0
  9 10  1  0  0  0
  9 27  2  0  0  0
 10 11  2  0  0  0
 10 15  1  0  0  0
 11 12  1  0  0  0
 11 96  1  0  0  0
 12 13  2  0  0  0
 12 97  1  0  0  0
 13 14  1  0  0  0
 13 31  1  0  0  0
 14 15  2  0  0  0
 14 98  1  0  0  0
 15 99  1  0  0  0
 16 17  2  0  0  0
 16 21  1  0  0  0
 16 31  1  0  0  0
 17 18  1  0  0  0
 17100  1  0  0  0
 18 19  2  0  0  0
 18101  1  0  0  0
 19 20  1  0  0  0
 19 24  1  0  0  0
 20 21  2  0  0  0
 20102  1  0  0  0
 21 23  1  0  0  0
 22 28  1  0  0  0
 22 32  2  0  0  0
 26 27  1  0  0  0
 28103  1  0  0  0
 28104  1  0  0  0
 29105  1  0  0  0
 29106  1  0  0  0
 33 34  1  0  0  0
 33 66  1  0  0  0
 33 70  2  0  0  0
 34 36  1  0  0  0
 34 59  1  0  0  0
 34107  1  0  0  0
 35 44  2  0  0  0
 35 45  1  0  0  0
 35 68  1  0  0  0
 36 56  1  0  0  0
 36108  1  0  0  0
 37 39  1  0  0  0
 37 47  1  0  0  0
 37 66  1  0  0  0
 37109  1  0  0  0
 38 43  2  0  0  0
 38 46  1  0  0  0
 38 47  1  0  0  0
 39 64  1  0  0  0
 39 67  2  0  0  0
 40 52  1  0  0  0
 40 53  2  0  0  0
 40 58  1  0  0  0
 41110  1  0  0  0
 41111  1  0  0  0
 41112  1  0  0  0
 41 48  1  0  0  0
 42 43  1  0  0  0
 42 66  1  0  0  0
 42113  1  0  0  0
 42114  1  0  0  0
 43 44  1  0  0  0
 44115  1  0  0  0
 45 46  2  0  0  0
 45116  1  0  0  0
 46117  1  0  0  0
 47118  1  0  0  0
 47119  1  0  0  0
 48 56  1  0  0  0
 48 65  1  0  0  0
 48120  1  0  0  0
 49 50  1  0  0  0
 49 53  1  0  0  0
 49 64  1  0  0  0
 49121  1  0  0  0
 50 51  1  0  0  0
 50122  1  0  0  0
 50123  1  0  0  0
 51 52  1  0  0  0
 51124  1  0  0  0
 51125  1  0  0  0
 52126  1  0  0  0
 52127  1  0  0  0
 53 54  1  0  0  0
 54 55  2  0  0  0
 54128  1  0  0  0
 55 57  1  0  0  0
 55129  1  0  0  0
 56 69  2  0  0  0
 57 58  2  0  0  0
 57130  1  0  0  0
 58131  1  0  0  0
 59 60  1  0  0  0
 59 61  1  0  0  0
 59 62  1  0  0  0
 60132  1  0  0  0
 60133  1  0  0  0
 60134  1  0  0  0
 61135  1  0  0  0
 61136  1  0  0  0
 61137  1  0  0  0
 62138  1  0  0  0
 62139  1  0  0  0
 62140  1  0  0  0
 63 65  1  0  0  0
 63141  1  0  0  0
 63142  1  0  0  0
 63143  1  0  0  0
 64144  1  0  0  0
 65145  1  0  0  0
 68 83  1  0  0  0
 71 72  2  0  0  0
 71 73  1  0  0  0
 71146  1  0  0  0
 72 74  1  0  0  0
 72 76  1  0  0  0
 73 75  2  0  0  0
 73 79  1  0  0  0
 74 80  1  0  0  0
 74 85  2  0  0  0
 75 81  1  0  0  0
 75 85  1  0  0  0
 76147  1  0  0  0
 76148  1  0  0  0
 76149  1  0  0  0
 77 80  1  0  0  0
 77150  1  0  0  0
 77151  1  0  0  0
 77152  1  0  0  0
 78153  1  0  0  0
 78154  1  0  0  0
 78155  1  0  0  0
 78 84  1  0  0  0
 79 84  1  0  0  0
 79156  1  0  0  0
 79157  1  0  0  0
 80158  1  0  0  0
 80159  1  0  0  0
 81 82  1  0  0  0
 81160  1  0  0  0
 81161  1  0  0  0
 82 86  1  0  0  0
 82162  1  0  0  0
 82163  1  0  0  0
 83 84  1  0  0  0
 83164  1  0  0  0
 83165  1  0  0  0
 84166  1  0  0  0
 86167  1  0  0  0
M  ISO  4   1 100  68 101  83 101  86 100
M  END
> <chiral flag>
0

> <version>
0

> <s_m_source_file>
/data/baiqing/PycharmProjects/Reinvent-master-3.2/result/LINK_invent/BTK/process_docking_weight1_custom_sum_contain_oxygen_bond_distance_aromatic_linkinvent_7_9_3/rearranged_h_0088.sdf

> <i_m_source_file_index>
56

> <r_mmod_Potential_Energy-OPLS-2005>
144.894241333008

> <r_mmod_Stretch_Energy-OPLS-2005>
145.203125

> <r_mmod_Bend_Energy-OPLS-2005>
248.25163269043

> <r_mmod_Torsional_Energy-OPLS-2005>
242.949584960938

> <r_mmod_Improper_Torsional_Energy-OPLS-2005>
7.01971578598022

> <r_mmod_Van_der_Waal_Energy-OPLS-2005>
132.165100097656

> <r_mmod_Electrostatic_Energy-OPLS-2005>
-519.365600585938

> <r_mmod_Solvation_Energy-OPLS-2005>
-218.011184692383

> <b_mmod_Minimization_Converged-OPLS-2005>
0

> <r_mmod_RMS_Derivative-OPLS-2005>
4.99929332733154

$$$$
57
                    3D
 Structure written by MMmdl.
169177  0  0  1  0            999 V2000
  -30.6768  -14.4985   20.5531 C   0  0  0  0  0  0
  -30.4258  -12.3064   19.4485 C   0  0  0  0  0  0
  -29.5029  -12.4877   18.2243 C   0  0  0  0  0  0
  -28.0233  -12.3497   18.6333 C   0  0  0  0  0  0
  -27.6629  -13.2032   19.8799 C   0  0  2  0  0  0
  -28.7020  -12.9984   21.0066 C   0  0  0  0  0  0
  -25.2586  -13.8146   20.5678 C   0  0  0  0  0  0
  -24.1825  -13.0437   20.9153 C   0  0  0  0  0  0
  -24.6376  -11.6903   20.8733 C   0  0  0  0  0  0
  -23.9044  -10.4284   21.0394 C   0  0  0  0  0  0
  -24.3591   -9.4202   21.9181 C   0  0  0  0  0  0
  -23.6271   -8.2237   22.0749 C   0  0  0  0  0  0
  -22.4254   -8.0271   21.3542 C   0  0  0  0  0  0
  -21.9883   -9.0245   20.4654 C   0  0  0  0  0  0
  -22.7201  -10.2129   20.3064 C   0  0  0  0  0  0
  -21.6858   -6.0719   22.5268 C   0  0  0  0  0  0
  -21.4020   -6.5629   23.8196 C   0  0  0  0  0  0
  -21.3665   -5.6786   24.9168 C   0  0  0  0  0  0
  -21.6042   -4.3044   24.7223 C   0  0  0  0  0  0
  -21.8822   -3.8134   23.4347 C   0  0  0  0  0  0
  -21.9186   -4.6947   22.3402 C   0  0  0  0  0  0
  -22.7858  -13.5246   21.1832 C   0  0  0  0  0  0
  -22.1655   -4.2126   21.0984 F   0  0  0  0  0  0
  -21.5626   -3.4539   25.7745 F   0  0  0  0  0  0
  -30.0339  -13.3021   20.4584 N   0  0  0  0  0  0
  -26.3025  -12.9307   20.3380 N   0  0  0  0  0  0
  -25.9299  -11.6479   20.5783 N   0  0  0  0  0  0
  -22.0507  -12.8257   22.0410 N   0  0  0  0  0  0
  -25.4334  -15.1864   20.4086 N   0  0  0  0  0  0
  -31.7968  -14.6956   20.0726 O   0  0  0  0  0  0
  -21.6634   -6.8856   21.4230 O   0  0  0  0  0  0
  -22.3551  -14.5539   20.6659 O   0  0  0  0  0  0
  -24.6153  -31.8659   23.2119 C   0  0  0  0  0  0
  -25.9033  -32.4812   23.8407 C   0  0  1  0  0  0
  -27.2361  -27.4153   20.1163 C   0  0  0  0  0  0
  -25.5894  -33.8614   24.2340 N   0  0  0  0  0  0
  -23.4073  -30.4882   21.5501 C   0  0  2  0  0  0
  -24.8585  -28.9485   20.1229 C   0  0  0  0  0  0
  -22.7421  -29.4627   22.4974 C   0  0  0  0  0  0
  -18.0259  -28.1361   22.8481 C   0  0  0  0  0  0
  -24.1485  -36.7315   23.2638 C   0  0  0  0  0  0
  -25.9384  -30.8248   21.3729 C   0  0  0  0  0  0
  -26.0183  -29.4548   20.7266 C   0  0  0  0  0  0
  -27.2128  -28.6939   20.7245 C   0  0  0  0  0  0
  -26.0666  -26.9294   19.5030 C   0  0  0  0  0  0
  -24.8776  -27.6837   19.5077 C   0  0  0  0  0  0
  -23.6222  -29.8204   20.1658 C   0  0  0  0  0  0
  -25.4103  -36.3105   24.0342 C   0  0  1  0  0  0
  -20.5850  -28.3655   23.1301 C   0  0  2  0  0  0
  -20.6738  -26.9386   22.5399 C   0  0  0  0  0  0
  -19.5714  -26.6376   21.5191 C   0  0  0  0  0  0
  -18.1902  -26.7901   22.1620 C   0  0  0  0  0  0
  -19.1510  -28.8821   23.2888 C   0  0  0  0  0  0
  -18.9436  -30.1420   23.8913 C   0  0  0  0  0  0
  -17.6441  -30.6572   24.0546 C   0  0  0  0  0  0
  -25.9027  -34.9467   23.5135 C   0  0  0  0  0  0
  -16.5335  -29.9066   23.6325 C   0  0  0  0  0  0
  -16.7249  -28.6477   23.0361 C   0  0  0  0  0  0
  -26.4481  -31.6603   25.0738 C   0  0  0  0  0  0
  -25.3761  -31.3711   26.1496 C   0  0  0  0  0  0
  -27.0298  -30.3028   24.6135 C   0  0  0  0  0  0
  -27.6070  -32.4316   25.7488 C   0  0  0  0  0  0
  -27.5573  -37.1802   24.8471 C   0  0  0  0  0  0
  -21.4149  -29.3027   22.3715 N   0  0  0  0  0  0
  -26.4291  -37.3787   23.9406 N   0  0  0  0  0  0
  -24.6709  -31.0738   22.1036 N   0  0  0  0  0  0
  -23.4181  -28.8149   23.3005 O   0  0  0  0  0  0
  -28.3772  -26.6499   20.0153 O   0  0  0  0  0  0
  -26.5576  -34.8916   22.4689 O   0  0  0  0  0  0
  -23.5340  -32.1407   23.7488 O   0  0  0  0  0  0
  -30.3685  -20.2845   21.1140 C   0  0  0  0  0  0
  -29.2803  -19.3975   21.2968 C   0  0  0  0  0  0
  -28.9125  -22.0600   20.6999 C   0  0  0  0  0  0
  -27.8136  -21.1707   20.8947 C   0  0  0  0  0  0
  -23.4330  -21.1911   18.2780 C   0  0  0  0  0  0
  -23.4052  -20.3980   20.6738 C   0  0  0  0  0  0
  -29.4647  -17.9239   21.7210 C   0  0  0  0  0  0
  -28.7649  -23.5446   20.2926 C   0  0  0  0  0  0
  -26.3526  -21.6130   20.8642 C   0  0  0  0  0  0
  -28.4394  -24.5514   21.4334 C   0  0  0  0  0  0
  -25.6001  -21.1694   19.5958 C   0  0  0  0  0  0
  -30.0929  -16.9542   20.6768 C   0  0  0  0  0  0
  -28.8811  -26.0294   21.2060 C   0  0  0  0  0  0
  -24.0678  -21.3599   19.6682 C   0  0  0  0  0  0
  -30.1879  -21.6022   20.8221 N   0  0  0  0  0  0
  -28.0046  -19.8513   21.1823 N   0  0  0  0  0  0
  -29.9281  -15.5201   21.0208 N   0  0  0  0  0  0
  -31.4734  -12.3959   19.1586 H   0  0  0  0  0  0
  -30.3202  -11.3022   19.8619 H   0  0  0  0  0  0
  -29.7441  -11.7482   17.4595 H   0  0  0  0  0  0
  -29.6712  -13.4661   17.7709 H   0  0  0  0  0  0
  -27.8388  -11.2945   18.8432 H   0  0  0  0  0  0
  -27.3731  -12.6082   17.7965 H   0  0  0  0  0  0
  -27.7040  -14.2482   19.5693 H   0  0  0  0  0  0
  -28.6795  -11.9671   21.3633 H   0  0  0  0  0  0
  -28.4636  -13.6096   21.8783 H   0  0  0  0  0  0
  -25.2746   -9.5677   22.4738 H   0  0  0  0  0  0
  -23.9980   -7.4639   22.7470 H   0  0  0  0  0  0
  -21.0801   -8.8759   19.8975 H   0  0  0  0  0  0
  -22.3646  -10.9660   19.6167 H   0  0  0  0  0  0
  -21.2024   -7.6140   23.9693 H   0  0  0  0  0  0
  -21.1485   -6.0526   25.9065 H   0  0  0  0  0  0
  -22.0597   -2.7594   23.2860 H   0  0  0  0  0  0
  -22.4147  -11.9944   22.4821 H   0  0  0  0  0  0
  -21.1144  -13.1294   22.2637 H   0  0  0  0  0  0
  -24.6709  -15.8446   20.5188 H   0  0  0  0  0  0
  -26.2905  -15.6235   20.0943 H   0  0  0  0  0  0
  -26.7101  -32.5537   23.1172 H   0  0  0  0  0  0
  -25.0088  -33.9787   25.0514 H   0  0  0  0  0  0
  -22.6970  -31.3053   21.4081 H   0  0  0  0  0  0
  -23.3742  -35.9655   23.3332 H   0  0  0  0  0  0
  -24.3565  -36.8895   22.2043 H   0  0  0  0  0  0
  -23.7254  -37.6540   23.6631 H   0  0  0  0  0  0
  -26.0548  -31.5881   20.6028 H   0  0  0  0  0  0
  -26.8257  -30.8800   21.9914 H   0  0  0  0  0  0
  -28.1156  -29.0887   21.1692 H   0  0  0  0  0  0
  -26.0822  -25.9634   19.0193 H   0  0  0  0  0  0
  -23.9893  -27.2906   19.0318 H   0  0  0  0  0  0
  -23.7393  -30.5984   19.4101 H   0  0  0  0  0  0
  -22.7472  -29.2433   19.8612 H   0  0  0  0  0  0
  -25.1272  -36.1980   25.0835 H   0  0  0  0  0  0
  -20.9940  -28.3202   24.1419 H   0  0  0  0  0  0
  -20.5608  -26.2259   23.3579 H   0  0  0  0  0  0
  -21.6608  -26.7385   22.1200 H   0  0  0  0  0  0
  -19.6880  -25.6293   21.1192 H   0  0  0  0  0  0
  -19.6653  -27.3207   20.6731 H   0  0  0  0  0  0
  -17.4157  -26.6630   21.4043 H   0  0  0  0  0  0
  -18.0328  -26.0048   22.9024 H   0  0  0  0  0  0
  -19.7922  -30.7206   24.2324 H   0  0  0  0  0  0
  -17.5007  -31.6272   24.5107 H   0  0  0  0  0  0
  -15.5337  -30.2967   23.7655 H   0  0  0  0  0  0
  -15.8644  -28.0789   22.7098 H   0  0  0  0  0  0
  -24.5919  -30.7073   25.7847 H   0  0  0  0  0  0
  -24.8981  -32.2871   26.4979 H   0  0  0  0  0  0
  -25.8122  -30.8859   27.0238 H   0  0  0  0  0  0
  -26.2836  -29.6796   24.1188 H   0  0  0  0  0  0
  -27.4048  -29.7251   25.4601 H   0  0  0  0  0  0
  -27.8698  -30.4324   23.9300 H   0  0  0  0  0  0
  -27.2722  -33.3649   26.2024 H   0  0  0  0  0  0
  -28.3902  -32.6803   25.0318 H   0  0  0  0  0  0
  -28.0708  -31.8456   26.5434 H   0  0  0  0  0  0
  -28.2595  -38.0091   24.7484 H   0  0  0  0  0  0
  -28.1053  -36.2606   24.6340 H   0  0  0  0  0  0
  -27.2268  -37.1510   25.8871 H   0  0  0  0  0  0
  -20.9302  -29.8800   21.6985 H   0  0  0  0  0  0
  -26.0188  -38.2869   24.1414 H   0  0  0  0  0  0
  -31.3870  -19.9399   21.2137 H   0  0  0  0  0  0
  -22.3482  -21.3014   18.3216 H   0  0  0  0  0  0
  -23.6498  -20.2096   17.8532 H   0  0  0  0  0  0
  -23.7998  -21.9434   17.5800 H   0  0  0  0  0  0
  -22.3167  -20.4409   20.6089 H   0  0  0  0  0  0
  -23.6647  -20.6424   21.7034 H   0  0  0  0  0  0
  -23.7012  -19.3626   20.4953 H   0  0  0  0  0  0
  -28.4884  -17.5348   22.0135 H   0  0  0  0  0  0
  -30.0685  -17.9114   22.6296 H   0  0  0  0  0  0
  -28.0113  -23.6297   19.5084 H   0  0  0  0  0  0
  -29.6990  -23.8500   19.8191 H   0  0  0  0  0  0
  -26.2694  -22.6911   20.9760 H   0  0  0  0  0  0
  -25.8754  -21.1975   21.7504 H   0  0  0  0  0  0
  -28.9488  -24.2151   22.3366 H   0  0  0  0  0  0
  -27.3779  -24.5175   21.6728 H   0  0  0  0  0  0
  -25.8132  -20.1198   19.3890 H   0  0  0  0  0  0
  -26.0001  -21.7269   18.7487 H   0  0  0  0  0  0
  -31.1445  -17.2004   20.5322 H   0  0  0  0  0  0
  -29.6041  -17.1016   19.7125 H   0  0  0  0  0  0
  -29.9697  -26.0648   21.1424 H   0  0  0  0  0  0
  -28.6210  -26.6231   22.0853 H   0  0  0  0  0  0
  -23.8610  -22.3819   19.9919 H   0  0  0  0  0  0
  -29.0465  -15.2524   21.4316 H   0  0  0  0  0  0
  1 25  1  0  0  0
  1 30  2  0  0  0
  1 87  1  0  0  0
  2  3  1  0  0  0
  2 25  1  0  0  0
  2 88  1  0  0  0
  2 89  1  0  0  0
  3  4  1  0  0  0
  3 90  1  0  0  0
  3 91  1  0  0  0
  4  5  1  0  0  0
  4 92  1  0  0  0
  4 93  1  0  0  0
  5  6  1  0  0  0
  5 26  1  0  0  0
  5 94  1  0  0  0
  6 25  1  0  0  0
  6 95  1  0  0  0
  6 96  1  0  0  0
  7  8  2  0  0  0
  7 26  1  0  0  0
  7 29  1  0  0  0
  8  9  1  0  0  0
  8 22  1  0  0  0
  9 10  1  0  0  0
  9 27  2  0  0  0
 10 11  2  0  0  0
 10 15  1  0  0  0
 11 12  1  0  0  0
 11 97  1  0  0  0
 12 13  2  0  0  0
 12 98  1  0  0  0
 13 14  1  0  0  0
 13 31  1  0  0  0
 14 15  2  0  0  0
 14 99  1  0  0  0
 15100  1  0  0  0
 16 17  2  0  0  0
 16 21  1  0  0  0
 16 31  1  0  0  0
 17 18  1  0  0  0
 17101  1  0  0  0
 18 19  2  0  0  0
 18102  1  0  0  0
 19 20  1  0  0  0
 19 24  1  0  0  0
 20 21  2  0  0  0
 20103  1  0  0  0
 21 23  1  0  0  0
 22 28  1  0  0  0
 22 32  2  0  0  0
 26 27  1  0  0  0
 28104  1  0  0  0
 28105  1  0  0  0
 29106  1  0  0  0
 29107  1  0  0  0
 33 34  1  0  0  0
 33 66  1  0  0  0
 33 70  2  0  0  0
 34 36  1  0  0  0
 34 59  1  0  0  0
 34108  1  0  0  0
 35 44  2  0  0  0
 35 45  1  0  0  0
 35 68  1  0  0  0
 36 56  1  0  0  0
 36109  1  0  0  0
 37 39  1  0  0  0
 37 47  1  0  0  0
 37 66  1  0  0  0
 37110  1  0  0  0
 38 43  2  0  0  0
 38 46  1  0  0  0
 38 47  1  0  0  0
 39 64  1  0  0  0
 39 67  2  0  0  0
 40 52  1  0  0  0
 40 53  2  0  0  0
 40 58  1  0  0  0
 41111  1  0  0  0
 41112  1  0  0  0
 41113  1  0  0  0
 41 48  1  0  0  0
 42 43  1  0  0  0
 42 66  1  0  0  0
 42114  1  0  0  0
 42115  1  0  0  0
 43 44  1  0  0  0
 44116  1  0  0  0
 45 46  2  0  0  0
 45117  1  0  0  0
 46118  1  0  0  0
 47119  1  0  0  0
 47120  1  0  0  0
 48 56  1  0  0  0
 48 65  1  0  0  0
 48121  1  0  0  0
 49 50  1  0  0  0
 49 53  1  0  0  0
 49 64  1  0  0  0
 49122  1  0  0  0
 50 51  1  0  0  0
 50123  1  0  0  0
 50124  1  0  0  0
 51 52  1  0  0  0
 51125  1  0  0  0
 51126  1  0  0  0
 52127  1  0  0  0
 52128  1  0  0  0
 53 54  1  0  0  0
 54 55  2  0  0  0
 54129  1  0  0  0
 55 57  1  0  0  0
 55130  1  0  0  0
 56 69  2  0  0  0
 57 58  2  0  0  0
 57131  1  0  0  0
 58132  1  0  0  0
 59 60  1  0  0  0
 59 61  1  0  0  0
 59 62  1  0  0  0
 60133  1  0  0  0
 60134  1  0  0  0
 60135  1  0  0  0
 61136  1  0  0  0
 61137  1  0  0  0
 61138  1  0  0  0
 62139  1  0  0  0
 62140  1  0  0  0
 62141  1  0  0  0
 63 65  1  0  0  0
 63142  1  0  0  0
 63143  1  0  0  0
 63144  1  0  0  0
 64145  1  0  0  0
 65146  1  0  0  0
 68 83  1  0  0  0
 71 72  2  0  0  0
 71 85  1  0  0  0
 71147  1  0  0  0
 72 77  1  0  0  0
 72 86  1  0  0  0
 73 74  1  0  0  0
 73 78  1  0  0  0
 73 85  2  0  0  0
 74 79  1  0  0  0
 74 86  2  0  0  0
 75148  1  0  0  0
 75149  1  0  0  0
 75150  1  0  0  0
 75 84  1  0  0  0
 76 84  1  0  0  0
 76151  1  0  0  0
 76152  1  0  0  0
 76153  1  0  0  0
 77 82  1  0  0  0
 77154  1  0  0  0
 77155  1  0  0  0
 78 80  1  0  0  0
 78156  1  0  0  0
 78157  1  0  0  0
 79 81  1  0  0  0
 79158  1  0  0  0
 79159  1  0  0  0
 80 83  1  0  0  0
 80160  1  0  0  0
 80161  1  0  0  0
 81 84  1  0  0  0
 81162  1  0  0  0
 81163  1  0  0  0
 82 87  1  0  0  0
 82164  1  0  0  0
 82165  1  0  0  0
 83166  1  0  0  0
 83167  1  0  0  0
 84168  1  0  0  0
 87169  1  0  0  0
M  ISO  4   1 100  68 101  83 101  87 100
M  END
> <chiral flag>
0

> <version>
0

> <s_m_source_file>
/data/baiqing/PycharmProjects/Reinvent-master-3.2/result/LINK_invent/BTK/process_docking_weight1_custom_sum_contain_oxygen_bond_distance_aromatic_linkinvent_7_9_3/rearranged_h_0088.sdf

> <i_m_source_file_index>
57

> <r_mmod_Potential_Energy-OPLS-2005>
-16.5800762176514

> <r_mmod_Stretch_Energy-OPLS-2005>
45.9207801818848

> <r_mmod_Bend_Energy-OPLS-2005>
109.092575073242

> <r_mmod_Torsional_Energy-OPLS-2005>
220.894973754883

> <r_mmod_Improper_Torsional_Energy-OPLS-2005>
5.7913966178894

> <r_mmod_Van_der_Waal_Energy-OPLS-2005>
139.442428588867

> <r_mmod_Electrostatic_Energy-OPLS-2005>
-337.508636474609

> <r_mmod_Solvation_Energy-OPLS-2005>
-215.204071044922

> <b_mmod_Minimization_Converged-OPLS-2005>
0

> <r_mmod_RMS_Derivative-OPLS-2005>
2.90394020080566

$$$$
58
                    3D
 Structure written by MMmdl.
158166  0  0  1  0            999 V2000
  -30.6302  -14.6049   20.4883 C   0  0  0  0  0  0
  -30.4298  -12.3596   19.4414 C   0  0  0  0  0  0
  -29.5000  -12.4923   18.2154 C   0  0  0  0  0  0
  -28.0217  -12.3482   18.6275 C   0  0  0  0  0  0
  -27.6574  -13.2104   19.8648 C   0  0  2  0  0  0
  -28.7023  -13.0463   20.9926 C   0  0  0  0  0  0
  -25.2565  -13.8152   20.5663 C   0  0  0  0  0  0
  -24.1810  -13.0438   20.9204 C   0  0  0  0  0  0
  -24.6376  -11.6919   20.8737 C   0  0  0  0  0  0
  -23.9038  -10.4312   21.0422 C   0  0  0  0  0  0
  -24.3599   -9.4215   21.9192 C   0  0  0  0  0  0
  -23.6276   -8.2252   22.0763 C   0  0  0  0  0  0
  -22.4255   -8.0283   21.3561 C   0  0  0  0  0  0
  -21.9884   -9.0252   20.4655 C   0  0  0  0  0  0
  -22.7209  -10.2143   20.3060 C   0  0  0  0  0  0
  -21.6866   -6.0713   22.5262 C   0  0  0  0  0  0
  -21.4018   -6.5629   23.8197 C   0  0  0  0  0  0
  -21.3649   -5.6780   24.9163 C   0  0  0  0  0  0
  -21.6058   -4.3053   24.7222 C   0  0  0  0  0  0
  -21.8802   -3.8139   23.4358 C   0  0  0  0  0  0
  -21.9191   -4.6940   22.3404 C   0  0  0  0  0  0
  -22.7838  -13.5259   21.1815 C   0  0  0  0  0  0
  -22.1662   -4.2144   21.0981 F   0  0  0  0  0  0
  -21.5627   -3.4525   25.7736 F   0  0  0  0  0  0
  -30.0228  -13.3771   20.4338 N   0  0  0  0  0  0
  -26.3000  -12.9322   20.3330 N   0  0  0  0  0  0
  -25.9306  -11.6520   20.5771 N   0  0  0  0  0  0
  -22.0449  -12.8311   22.0395 N   0  0  0  0  0  0
  -25.4319  -15.1848   20.4022 N   0  0  0  0  0  0
  -31.7780  -14.7823   20.0746 O   0  0  0  0  0  0
  -21.6634   -6.8864   21.4248 O   0  0  0  0  0  0
  -22.3580  -14.5574   20.6651 O   0  0  0  0  0  0
  -24.6273  -31.8586   23.2000 C   0  0  0  0  0  0
  -25.9123  -32.4772   23.8335 C   0  0  1  0  0  0
  -27.2330  -27.3107   20.1192 C   0  0  0  0  0  0
  -25.5939  -33.8574   24.2269 N   0  0  0  0  0  0
  -23.4194  -30.4795   21.5427 C   0  0  2  0  0  0
  -24.8670  -28.9258   20.1098 C   0  0  0  0  0  0
  -22.7470  -29.4600   22.4910 C   0  0  0  0  0  0
  -18.0283  -28.1397   22.8503 C   0  0  0  0  0  0
  -24.1478  -36.7284   23.2633 C   0  0  0  0  0  0
  -25.9587  -30.7897   21.3643 C   0  0  0  0  0  0
  -26.0338  -29.4116   20.7132 C   0  0  0  0  0  0
  -27.2140  -28.6152   20.7060 C   0  0  0  0  0  0
  -26.0400  -26.8663   19.5081 C   0  0  0  0  0  0
  -24.8710  -27.6593   19.4999 C   0  0  0  0  0  0
  -23.6340  -29.8089   20.1588 C   0  0  0  0  0  0
  -25.4109  -36.3082   24.0331 C   0  0  1  0  0  0
  -20.5893  -28.3698   23.1282 C   0  0  2  0  0  0
  -20.6772  -26.9412   22.5407 C   0  0  0  0  0  0
  -19.5736  -26.6399   21.5215 C   0  0  0  0  0  0
  -18.1922  -26.7943   22.1634 C   0  0  0  0  0  0
  -19.1546  -28.8861   23.2894 C   0  0  0  0  0  0
  -18.9459  -30.1471   23.8910 C   0  0  0  0  0  0
  -17.6454  -30.6598   24.0569 C   0  0  0  0  0  0
  -25.9065  -34.9455   23.5098 C   0  0  0  0  0  0
  -16.5350  -29.9096   23.6323 C   0  0  0  0  0  0
  -16.7278  -28.6519   23.0349 C   0  0  0  0  0  0
  -26.4497  -31.6594   25.0709 C   0  0  0  0  0  0
  -25.3733  -31.3724   26.1429 C   0  0  0  0  0  0
  -27.0317  -30.3023   24.6140 C   0  0  0  0  0  0
  -27.6069  -32.4301   25.7487 C   0  0  0  0  0  0
  -27.5575  -37.1795   24.8468 C   0  0  0  0  0  0
  -21.4179  -29.3063   22.3689 N   0  0  0  0  0  0
  -26.4291  -37.3780   23.9413 N   0  0  0  0  0  0
  -24.6882  -31.0598   22.0940 N   0  0  0  0  0  0
  -23.4174  -28.8171   23.3018 O   0  0  0  0  0  0
  -28.3895  -26.5202   20.1737 O   0  0  0  0  0  0
  -26.5619  -34.8927   22.4651 O   0  0  0  0  0  0
  -23.5442  -32.1386   23.7334 O   0  0  0  0  0  0
  -28.5310  -20.0796   19.9552 C   0  0  0  0  0  0
  -30.3319  -20.8329   21.3086 C   0  0  0  0  0  0
  -29.6669  -19.7305   20.7229 C   0  0  0  0  0  0
  -28.0667  -21.4326   19.9017 C   0  0  0  0  0  0
  -28.7857  -22.4699   20.5674 C   0  0  0  0  0  0
  -25.5635  -21.0968   19.9775 C   0  0  0  0  0  0
  -30.1234  -18.2616   21.0693 C   0  0  0  0  0  0
  -26.7425  -21.6910   19.1968 C   0  0  0  0  0  0
  -28.2510  -23.9422   20.8103 C   0  0  0  0  0  0
  -29.7405  -17.0244   20.1641 C   0  0  0  0  0  0
  -28.4670  -25.0994   19.7399 C   0  0  0  0  0  0
  -29.9292  -22.1345   21.2208 N   0  0  0  0  0  0
  -29.8070  -15.6518   20.7790 N   0  0  0  0  0  0
  -31.4703  -12.4767   19.1343 H   0  0  0  0  0  0
  -30.3543  -11.3582   19.8674 H   0  0  0  0  0  0
  -29.7490  -11.7323   17.4742 H   0  0  0  0  0  0
  -29.6560  -13.4581   17.7273 H   0  0  0  0  0  0
  -27.8385  -11.2934   18.8435 H   0  0  0  0  0  0
  -27.3678  -12.6024   17.7916 H   0  0  0  0  0  0
  -27.6822  -14.2484   19.5364 H   0  0  0  0  0  0
  -28.6997  -12.0201   21.3647 H   0  0  0  0  0  0
  -28.4587  -13.6731   21.8492 H   0  0  0  0  0  0
  -25.2735   -9.5707   22.4781 H   0  0  0  0  0  0
  -23.9970   -7.4654   22.7495 H   0  0  0  0  0  0
  -21.0797   -8.8786   19.8987 H   0  0  0  0  0  0
  -22.3643  -10.9698   19.6185 H   0  0  0  0  0  0
  -21.2014   -7.6142   23.9711 H   0  0  0  0  0  0
  -21.1490   -6.0511   25.9069 H   0  0  0  0  0  0
  -22.0596   -2.7607   23.2849 H   0  0  0  0  0  0
  -22.4003  -11.9955   22.4819 H   0  0  0  0  0  0
  -21.1085  -13.1425   22.2563 H   0  0  0  0  0  0
  -24.6659  -15.8415   20.4948 H   0  0  0  0  0  0
  -26.2655  -15.6157   20.0287 H   0  0  0  0  0  0
  -26.7192  -32.5434   23.1083 H   0  0  0  0  0  0
  -25.0107  -33.9721   25.0433 H   0  0  0  0  0  0
  -22.7162  -31.3012   21.3971 H   0  0  0  0  0  0
  -23.3748  -35.9606   23.3305 H   0  0  0  0  0  0
  -24.3564  -36.8899   22.2046 H   0  0  0  0  0  0
  -23.7239  -37.6492   23.6650 H   0  0  0  0  0  0
  -26.0790  -31.5477   20.5894 H   0  0  0  0  0  0
  -26.8440  -30.8471   21.9884 H   0  0  0  0  0  0
  -28.1120  -28.9918   21.1736 H   0  0  0  0  0  0
  -25.9803  -25.8938   19.0464 H   0  0  0  0  0  0
  -23.9747  -27.2768   19.0303 H   0  0  0  0  0  0
  -23.7560  -30.5829   19.4009 H   0  0  0  0  0  0
  -22.7534  -29.2392   19.8542 H   0  0  0  0  0  0
  -25.1283  -36.1923   25.0830 H   0  0  0  0  0  0
  -20.9991  -28.3278   24.1401 H   0  0  0  0  0  0
  -20.5679  -26.2309   23.3607 H   0  0  0  0  0  0
  -21.6640  -26.7457   22.1201 H   0  0  0  0  0  0
  -19.6911  -25.6319   21.1238 H   0  0  0  0  0  0
  -19.6682  -27.3210   20.6744 H   0  0  0  0  0  0
  -17.4195  -26.6703   21.4032 H   0  0  0  0  0  0
  -18.0334  -26.0072   22.9025 H   0  0  0  0  0  0
  -19.7928  -30.7291   24.2278 H   0  0  0  0  0  0
  -17.5006  -31.6274   24.5166 H   0  0  0  0  0  0
  -15.5349  -30.3001   23.7641 H   0  0  0  0  0  0
  -15.8676  -28.0839   22.7043 H   0  0  0  0  0  0
  -24.5940  -30.7029   25.7764 H   0  0  0  0  0  0
  -24.8878  -32.2884   26.4816 H   0  0  0  0  0  0
  -25.8072  -30.8947   27.0229 H   0  0  0  0  0  0
  -26.2879  -29.6802   24.1140 H   0  0  0  0  0  0
  -27.4002  -29.7242   25.4631 H   0  0  0  0  0  0
  -27.8760  -30.4308   23.9354 H   0  0  0  0  0  0
  -27.2705  -33.3613   26.2050 H   0  0  0  0  0  0
  -28.3902  -32.6831   25.0330 H   0  0  0  0  0  0
  -28.0702  -31.8420   26.5419 H   0  0  0  0  0  0
  -28.2589  -38.0092   24.7502 H   0  0  0  0  0  0
  -28.1067  -36.2621   24.6298 H   0  0  0  0  0  0
  -27.2285  -37.1456   25.8870 H   0  0  0  0  0  0
  -20.9367  -29.8766   21.6884 H   0  0  0  0  0  0
  -26.0159  -38.2849   24.1432 H   0  0  0  0  0  0
  -27.9570  -19.3057   19.4667 H   0  0  0  0  0  0
  -31.1988  -20.6611   21.9279 H   0  0  0  0  0  0
  -24.6408  -21.1506   19.3996 H   0  0  0  0  0  0
  -25.4064  -21.6367   20.9102 H   0  0  0  0  0  0
  -25.7269  -20.0477   20.2281 H   0  0  0  0  0  0
  -29.7490  -18.0667   22.0757 H   0  0  0  0  0  0
  -31.2092  -18.2707   21.1589 H   0  0  0  0  0  0
  -26.7834  -21.2532   18.1979 H   0  0  0  0  0  0
  -26.5733  -22.7578   19.0442 H   0  0  0  0  0  0
  -28.7272  -24.2830   21.7303 H   0  0  0  0  0  0
  -27.1913  -23.8752   21.0593 H   0  0  0  0  0  0
  -28.6992  -17.1237   19.8687 H   0  0  0  0  0  0
  -30.3065  -17.0478   19.2326 H   0  0  0  0  0  0
  -27.8663  -24.9123   18.8493 H   0  0  0  0  0  0
  -29.4951  -24.9875   19.3930 H   0  0  0  0  0  0
  -28.9421  -15.3535   21.2011 H   0  0  0  0  0  0
  1 25  1  0  0  0
  1 30  2  0  0  0
  1 83  1  0  0  0
  2  3  1  0  0  0
  2 25  1  0  0  0
  2 84  1  0  0  0
  2 85  1  0  0  0
  3  4  1  0  0  0
  3 86  1  0  0  0
  3 87  1  0  0  0
  4  5  1  0  0  0
  4 88  1  0  0  0
  4 89  1  0  0  0
  5  6  1  0  0  0
  5 26  1  0  0  0
  5 90  1  0  0  0
  6 25  1  0  0  0
  6 91  1  0  0  0
  6 92  1  0  0  0
  7  8  2  0  0  0
  7 26  1  0  0  0
  7 29  1  0  0  0
  8  9  1  0  0  0
  8 22  1  0  0  0
  9 10  1  0  0  0
  9 27  2  0  0  0
 10 11  2  0  0  0
 10 15  1  0  0  0
 11 12  1  0  0  0
 11 93  1  0  0  0
 12 13  2  0  0  0
 12 94  1  0  0  0
 13 14  1  0  0  0
 13 31  1  0  0  0
 14 15  2  0  0  0
 14 95  1  0  0  0
 15 96  1  0  0  0
 16 17  2  0  0  0
 16 21  1  0  0  0
 16 31  1  0  0  0
 17 18  1  0  0  0
 17 97  1  0  0  0
 18 19  2  0  0  0
 18 98  1  0  0  0
 19 20  1  0  0  0
 19 24  1  0  0  0
 20 21  2  0  0  0
 20 99  1  0  0  0
 21 23  1  0  0  0
 22 28  1  0  0  0
 22 32  2  0  0  0
 26 27  1  0  0  0
 28100  1  0  0  0
 28101  1  0  0  0
 29102  1  0  0  0
 29103  1  0  0  0
 33 34  1  0  0  0
 33 66  1  0  0  0
 33 70  2  0  0  0
 34 36  1  0  0  0
 34 59  1  0  0  0
 34104  1  0  0  0
 35 44  2  0  0  0
 35 45  1  0  0  0
 35 68  1  0  0  0
 36 56  1  0  0  0
 36105  1  0  0  0
 37 39  1  0  0  0
 37 47  1  0  0  0
 37 66  1  0  0  0
 37106  1  0  0  0
 38 43  2  0  0  0
 38 46  1  0  0  0
 38 47  1  0  0  0
 39 64  1  0  0  0
 39 67  2  0  0  0
 40 52  1  0  0  0
 40 53  2  0  0  0
 40 58  1  0  0  0
 41107  1  0  0  0
 41108  1  0  0  0
 41109  1  0  0  0
 41 48  1  0  0  0
 42 43  1  0  0  0
 42 66  1  0  0  0
 42110  1  0  0  0
 42111  1  0  0  0
 43 44  1  0  0  0
 44112  1  0  0  0
 45 46  2  0  0  0
 45113  1  0  0  0
 46114  1  0  0  0
 47115  1  0  0  0
 47116  1  0  0  0
 48 56  1  0  0  0
 48 65  1  0  0  0
 48117  1  0  0  0
 49 50  1  0  0  0
 49 53  1  0  0  0
 49 64  1  0  0  0
 49118  1  0  0  0
 50 51  1  0  0  0
 50119  1  0  0  0
 50120  1  0  0  0
 51 52  1  0  0  0
 51121  1  0  0  0
 51122  1  0  0  0
 52123  1  0  0  0
 52124  1  0  0  0
 53 54  1  0  0  0
 54 55  2  0  0  0
 54125  1  0  0  0
 55 57  1  0  0  0
 55126  1  0  0  0
 56 69  2  0  0  0
 57 58  2  0  0  0
 57127  1  0  0  0
 58128  1  0  0  0
 59 60  1  0  0  0
 59 61  1  0  0  0
 59 62  1  0  0  0
 60129  1  0  0  0
 60130  1  0  0  0
 60131  1  0  0  0
 61132  1  0  0  0
 61133  1  0  0  0
 61134  1  0  0  0
 62135  1  0  0  0
 62136  1  0  0  0
 62137  1  0  0  0
 63 65  1  0  0  0
 63138  1  0  0  0
 63139  1  0  0  0
 63140  1  0  0  0
 64141  1  0  0  0
 65142  1  0  0  0
 68 81  1  0  0  0
 71 73  2  0  0  0
 71 74  1  0  0  0
 71143  1  0  0  0
 72 73  1  0  0  0
 72 82  2  0  0  0
 72144  1  0  0  0
 73 77  1  0  0  0
 74 75  2  0  0  0
 74 78  1  0  0  0
 75 79  1  0  0  0
 75 82  1  0  0  0
 76 78  1  0  0  0
 76145  1  0  0  0
 76146  1  0  0  0
 76147  1  0  0  0
 77 80  1  0  0  0
 77148  1  0  0  0
 77149  1  0  0  0
 78150  1  0  0  0
 78151  1  0  0  0
 79 81  1  0  0  0
 79152  1  0  0  0
 79153  1  0  0  0
 80 83  1  0  0  0
 80154  1  0  0  0
 80155  1  0  0  0
 81156  1  0  0  0
 81157  1  0  0  0
 83158  1  0  0  0
M  ISO  4   1 100  68 101  81 101  83 100
M  END
> <chiral flag>
0

> <version>
0

> <s_m_source_file>
/data/baiqing/PycharmProjects/Reinvent-master-3.2/result/LINK_invent/BTK/process_docking_weight1_custom_sum_contain_oxygen_bond_distance_aromatic_linkinvent_7_9_3/rearranged_h_0088.sdf

> <i_m_source_file_index>
58

> <r_mmod_Potential_Energy-OPLS-2005>
-117.65258026123

> <r_mmod_Stretch_Energy-OPLS-2005>
79.1845092773438

> <r_mmod_Bend_Energy-OPLS-2005>
156.749725341797

> <r_mmod_Torsional_Energy-OPLS-2005>
211.991149902344

> <r_mmod_Improper_Torsional_Energy-OPLS-2005>
9.50694370269775

> <r_mmod_Van_der_Waal_Energy-OPLS-2005>
136.432891845703

> <r_mmod_Electrostatic_Energy-OPLS-2005>
-522.968994140625

> <r_mmod_Solvation_Energy-OPLS-2005>
-230.161529541016

> <b_mmod_Minimization_Converged-OPLS-2005>
0

> <r_mmod_RMS_Derivative-OPLS-2005>
5.30937385559082

$$$$
59
                    3D
 Structure written by MMmdl.
162170  0  0  1  0            999 V2000
  -30.6275  -14.6858   20.4804 C   0  0  0  0  0  0
  -30.4256  -12.4169   19.4772 C   0  0  0  0  0  0
  -29.5081  -12.5062   18.2396 C   0  0  0  0  0  0
  -28.0344  -12.3390   18.6551 C   0  0  0  0  0  0
  -27.6465  -13.2303   19.8657 C   0  0  2  0  0  0
  -28.6871  -13.1361   21.0033 C   0  0  0  0  0  0
  -25.2505  -13.8197   20.5708 C   0  0  0  0  0  0
  -24.1803  -13.0432   20.9210 C   0  0  0  0  0  0
  -24.6401  -11.6914   20.8775 C   0  0  0  0  0  0
  -23.9090  -10.4282   21.0437 C   0  0  0  0  0  0
  -24.3637   -9.4192   21.9208 C   0  0  0  0  0  0
  -23.6307   -8.2225   22.0764 C   0  0  0  0  0  0
  -22.4290   -8.0279   21.3547 C   0  0  0  0  0  0
  -21.9929   -9.0259   20.4656 C   0  0  0  0  0  0
  -22.7264  -10.2131   20.3075 C   0  0  0  0  0  0
  -21.6855   -6.0747   22.5294 C   0  0  0  0  0  0
  -21.4016   -6.5652   23.8229 C   0  0  0  0  0  0
  -21.3648   -5.6800   24.9188 C   0  0  0  0  0  0
  -21.6046   -4.3065   24.7225 C   0  0  0  0  0  0
  -21.8818   -3.8152   23.4348 C   0  0  0  0  0  0
  -21.9185   -4.6971   22.3411 C   0  0  0  0  0  0
  -22.7819  -13.5203   21.1881 C   0  0  0  0  0  0
  -22.1654   -4.2168   21.0980 F   0  0  0  0  0  0
  -21.5630   -3.4539   25.7730 F   0  0  0  0  0  0
  -29.9936  -13.4710   20.4238 N   0  0  0  0  0  0
  -26.2960  -12.9411   20.3360 N   0  0  0  0  0  0
  -25.9331  -11.6548   20.5802 N   0  0  0  0  0  0
  -22.0477  -12.8164   22.0433 N   0  0  0  0  0  0
  -25.4164  -15.1919   20.4086 N   0  0  0  0  0  0
  -31.8118  -14.7842   20.1437 O   0  0  0  0  0  0
  -21.6633   -6.8890   21.4257 O   0  0  0  0  0  0
  -22.3493  -14.5514   20.6752 O   0  0  0  0  0  0
  -24.6298  -31.8580   23.2018 C   0  0  0  0  0  0
  -25.9140  -32.4766   23.8352 C   0  0  1  0  0  0
  -27.2072  -27.2867   20.1295 C   0  0  0  0  0  0
  -25.5955  -33.8573   24.2272 N   0  0  0  0  0  0
  -23.4218  -30.4831   21.5472 C   0  0  2  0  0  0
  -24.8645  -28.9301   20.1172 C   0  0  0  0  0  0
  -22.7481  -29.4627   22.4960 C   0  0  0  0  0  0
  -18.0278  -28.1396   22.8478 C   0  0  0  0  0  0
  -24.1496  -36.7276   23.2631 C   0  0  0  0  0  0
  -25.9673  -30.7785   21.3782 C   0  0  0  0  0  0
  -26.0377  -29.4046   20.7191 C   0  0  0  0  0  0
  -27.2174  -28.5978   20.7055 C   0  0  0  0  0  0
  -26.0143  -26.8683   19.5124 C   0  0  0  0  0  0
  -24.8562  -27.6683   19.5034 C   0  0  0  0  0  0
  -23.6363  -29.8160   20.1635 C   0  0  0  0  0  0
  -25.4121  -36.3073   24.0328 C   0  0  1  0  0  0
  -20.5882  -28.3695   23.1272 C   0  0  2  0  0  0
  -20.6789  -26.9426   22.5400 C   0  0  0  0  0  0
  -19.5764  -26.6390   21.5205 C   0  0  0  0  0  0
  -18.1932  -26.7948   22.1600 C   0  0  0  0  0  0
  -19.1529  -28.8861   23.2870 C   0  0  0  0  0  0
  -18.9461  -30.1466   23.8880 C   0  0  0  0  0  0
  -17.6465  -30.6602   24.0560 C   0  0  0  0  0  0
  -25.9053  -34.9441   23.5090 C   0  0  0  0  0  0
  -16.5354  -29.9094   23.6346 C   0  0  0  0  0  0
  -16.7266  -28.6514   23.0360 C   0  0  0  0  0  0
  -26.4512  -31.6596   25.0747 C   0  0  0  0  0  0
  -25.3726  -31.3753   26.1464 C   0  0  0  0  0  0
  -27.0352  -30.3006   24.6237 C   0  0  0  0  0  0
  -27.6057  -32.4354   25.7521 C   0  0  0  0  0  0
  -27.5582  -37.1786   24.8466 C   0  0  0  0  0  0
  -21.4194  -29.3052   22.3683 N   0  0  0  0  0  0
  -26.4289  -37.3778   23.9414 N   0  0  0  0  0  0
  -24.6919  -31.0577   22.0980 N   0  0  0  0  0  0
  -23.4197  -28.8170   23.3053 O   0  0  0  0  0  0
  -28.3183  -26.4295   20.1010 O   0  0  0  0  0  0
  -26.5613  -34.8900   22.4649 O   0  0  0  0  0  0
  -23.5454  -32.1396   23.7333 O   0  0  0  0  0  0
  -30.6934  -21.6850   18.8049 C   0  0  0  0  0  0
  -29.7609  -21.2986   19.7358 C   0  0  0  0  0  0
  -29.8808  -19.8137   19.6826 C   0  0  0  0  0  0
  -28.7620  -24.0123   18.4564 C   0  0  0  0  0  0
  -26.7864  -23.1831   19.6939 C   0  0  0  0  0  0
  -32.0777  -20.5049   17.0309 C   0  0  0  0  0  0
  -28.9869  -22.3925   20.5768 C   0  0  0  0  0  0
  -29.3290  -18.5236   20.4055 C   0  0  0  0  0  0
  -30.3498  -17.2576   20.5096 C   0  0  0  0  0  0
  -28.2428  -25.0647   20.7081 C   0  0  0  0  0  0
  -28.2424  -23.6729   19.8677 C   0  0  0  0  0  0
  -30.6243  -19.4709   18.6380 N   0  0  0  0  0  0
  -31.1518  -20.5879   18.1370 N   0  0  0  0  0  0
  -29.8741  -15.8224   20.7030 N   0  0  0  0  0  0
  -31.4716  -12.5208   19.1834 H   0  0  0  0  0  0
  -30.3453  -11.4316   19.9400 H   0  0  0  0  0  0
  -29.7816  -11.7424   17.5107 H   0  0  0  0  0  0
  -29.6485  -13.4680   17.7439 H   0  0  0  0  0  0
  -27.8888  -11.2900   18.9139 H   0  0  0  0  0  0
  -27.3747  -12.5382   17.8104 H   0  0  0  0  0  0
  -27.6512  -14.2589   19.5029 H   0  0  0  0  0  0
  -28.7036  -12.1343   21.4355 H   0  0  0  0  0  0
  -28.4313  -13.8141   21.8194 H   0  0  0  0  0  0
  -25.2783   -9.5652   22.4789 H   0  0  0  0  0  0
  -24.0021   -7.4597   22.7468 H   0  0  0  0  0  0
  -21.0873   -8.8779   19.8939 H   0  0  0  0  0  0
  -22.3748  -10.9679   19.6181 H   0  0  0  0  0  0
  -21.2013   -7.6162   23.9739 H   0  0  0  0  0  0
  -21.1486   -6.0531   25.9099 H   0  0  0  0  0  0
  -22.0604   -2.7617   23.2840 H   0  0  0  0  0  0
  -22.4080  -11.9787   22.4772 H   0  0  0  0  0  0
  -21.1115  -13.1197   22.2709 H   0  0  0  0  0  0
  -24.6435  -15.8404   20.5153 H   0  0  0  0  0  0
  -26.2584  -15.6346   20.0631 H   0  0  0  0  0  0
  -26.7213  -32.5421   23.1097 H   0  0  0  0  0  0
  -25.0224  -33.9741   25.0497 H   0  0  0  0  0  0
  -22.7176  -31.3058   21.4059 H   0  0  0  0  0  0
  -23.3774  -35.9596   23.3299 H   0  0  0  0  0  0
  -24.3575  -36.8889   22.2039 H   0  0  0  0  0  0
  -23.7221  -37.6463   23.6653 H   0  0  0  0  0  0
  -26.1093  -31.5418   20.6130 H   0  0  0  0  0  0
  -26.8431  -30.8206   22.0139 H   0  0  0  0  0  0
  -28.1261  -28.9621   21.1633 H   0  0  0  0  0  0
  -25.9706  -25.9114   19.0247 H   0  0  0  0  0  0
  -23.9591  -27.3005   19.0243 H   0  0  0  0  0  0
  -23.7581  -30.5941   19.4080 H   0  0  0  0  0  0
  -22.7535  -29.2497   19.8600 H   0  0  0  0  0  0
  -25.1291  -36.1931   25.0825 H   0  0  0  0  0  0
  -20.9948  -28.3288   24.1398 H   0  0  0  0  0  0
  -20.5710  -26.2309   23.3604 H   0  0  0  0  0  0
  -21.6664  -26.7505   22.1185 H   0  0  0  0  0  0
  -19.6952  -25.6291   21.1263 H   0  0  0  0  0  0
  -19.6726  -27.3180   20.6723 H   0  0  0  0  0  0
  -17.4223  -26.6700   21.3986 H   0  0  0  0  0  0
  -18.0333  -26.0090   22.8991 H   0  0  0  0  0  0
  -19.7938  -30.7280   24.2262 H   0  0  0  0  0  0
  -17.5018  -31.6280   24.5161 H   0  0  0  0  0  0
  -15.5348  -30.2980   23.7690 H   0  0  0  0  0  0
  -15.8673  -28.0818   22.7093 H   0  0  0  0  0  0
  -24.5954  -30.7038   25.7811 H   0  0  0  0  0  0
  -24.8849  -32.2905   26.4818 H   0  0  0  0  0  0
  -25.8029  -30.9010   27.0292 H   0  0  0  0  0  0
  -26.2936  -29.6764   24.1241 H   0  0  0  0  0  0
  -27.3997  -29.7272   25.4769 H   0  0  0  0  0  0
  -27.8835  -30.4277   23.9514 H   0  0  0  0  0  0
  -27.2691  -33.3715   26.2005 H   0  0  0  0  0  0
  -28.3910  -32.6821   25.0360 H   0  0  0  0  0  0
  -28.0686  -31.8542   26.5508 H   0  0  0  0  0  0
  -28.2594  -38.0093   24.7536 H   0  0  0  0  0  0
  -28.1085  -36.2615   24.6282 H   0  0  0  0  0  0
  -27.2296  -37.1426   25.8869 H   0  0  0  0  0  0
  -20.9395  -29.8729   21.6841 H   0  0  0  0  0  0
  -26.0176  -38.2854   24.1429 H   0  0  0  0  0  0
  -31.0500  -22.6631   18.5186 H   0  0  0  0  0  0
  -28.7296  -23.1549   17.7843 H   0  0  0  0  0  0
  -29.7769  -24.4074   18.4853 H   0  0  0  0  0  0
  -28.1479  -24.7849   17.9922 H   0  0  0  0  0  0
  -26.7625  -22.2154   19.1891 H   0  0  0  0  0  0
  -26.1728  -23.8532   19.0995 H   0  0  0  0  0  0
  -26.2885  -23.0503   20.6552 H   0  0  0  0  0  0
  -31.5495  -20.1849   16.1327 H   0  0  0  0  0  0
  -32.8641  -19.7831   17.2579 H   0  0  0  0  0  0
  -32.5359  -21.4770   16.8464 H   0  0  0  0  0  0
  -29.7173  -22.8228   21.2627 H   0  0  0  0  0  0
  -28.2883  -21.9034   21.2566 H   0  0  0  0  0  0
  -28.4269  -18.2002   19.8859 H   0  0  0  0  0  0
  -28.9988  -18.7922   21.4100 H   0  0  0  0  0  0
  -31.0826  -17.4775   21.2871 H   0  0  0  0  0  0
  -30.9316  -17.2076   19.5894 H   0  0  0  0  0  0
  -29.1388  -25.0383   21.3259 H   0  0  0  0  0  0
  -27.4291  -25.0468   21.4344 H   0  0  0  0  0  0
  -28.9028  -15.6825   20.9359 H   0  0  0  0  0  0
  1 25  1  0  0  0
  1 30  2  0  0  0
  1 84  1  0  0  0
  2  3  1  0  0  0
  2 25  1  0  0  0
  2 85  1  0  0  0
  2 86  1  0  0  0
  3  4  1  0  0  0
  3 87  1  0  0  0
  3 88  1  0  0  0
  4  5  1  0  0  0
  4 89  1  0  0  0
  4 90  1  0  0  0
  5  6  1  0  0  0
  5 26  1  0  0  0
  5 91  1  0  0  0
  6 25  1  0  0  0
  6 92  1  0  0  0
  6 93  1  0  0  0
  7  8  2  0  0  0
  7 26  1  0  0  0
  7 29  1  0  0  0
  8  9  1  0  0  0
  8 22  1  0  0  0
  9 10  1  0  0  0
  9 27  2  0  0  0
 10 11  2  0  0  0
 10 15  1  0  0  0
 11 12  1  0  0  0
 11 94  1  0  0  0
 12 13  2  0  0  0
 12 95  1  0  0  0
 13 14  1  0  0  0
 13 31  1  0  0  0
 14 15  2  0  0  0
 14 96  1  0  0  0
 15 97  1  0  0  0
 16 17  2  0  0  0
 16 21  1  0  0  0
 16 31  1  0  0  0
 17 18  1  0  0  0
 17 98  1  0  0  0
 18 19  2  0  0  0
 18 99  1  0  0  0
 19 20  1  0  0  0
 19 24  1  0  0  0
 20 21  2  0  0  0
 20100  1  0  0  0
 21 23  1  0  0  0
 22 28  1  0  0  0
 22 32  2  0  0  0
 26 27  1  0  0  0
 28101  1  0  0  0
 28102  1  0  0  0
 29103  1  0  0  0
 29104  1  0  0  0
 33 34  1  0  0  0
 33 66  1  0  0  0
 33 70  2  0  0  0
 34 36  1  0  0  0
 34 59  1  0  0  0
 34105  1  0  0  0
 35 44  2  0  0  0
 35 45  1  0  0  0
 35 68  1  0  0  0
 36 56  1  0  0  0
 36106  1  0  0  0
 37 39  1  0  0  0
 37 47  1  0  0  0
 37 66  1  0  0  0
 37107  1  0  0  0
 38 43  2  0  0  0
 38 46  1  0  0  0
 38 47  1  0  0  0
 39 64  1  0  0  0
 39 67  2  0  0  0
 40 52  1  0  0  0
 40 53  2  0  0  0
 40 58  1  0  0  0
 41108  1  0  0  0
 41109  1  0  0  0
 41110  1  0  0  0
 41 48  1  0  0  0
 42 43  1  0  0  0
 42 66  1  0  0  0
 42111  1  0  0  0
 42112  1  0  0  0
 43 44  1  0  0  0
 44113  1  0  0  0
 45 46  2  0  0  0
 45114  1  0  0  0
 46115  1  0  0  0
 47116  1  0  0  0
 47117  1  0  0  0
 48 56  1  0  0  0
 48 65  1  0  0  0
 48118  1  0  0  0
 49 50  1  0  0  0
 49 53  1  0  0  0
 49 64  1  0  0  0
 49119  1  0  0  0
 50 51  1  0  0  0
 50120  1  0  0  0
 50121  1  0  0  0
 51 52  1  0  0  0
 51122  1  0  0  0
 51123  1  0  0  0
 52124  1  0  0  0
 52125  1  0  0  0
 53 54  1  0  0  0
 54 55  2  0  0  0
 54126  1  0  0  0
 55 57  1  0  0  0
 55127  1  0  0  0
 56 69  2  0  0  0
 57 58  2  0  0  0
 57128  1  0  0  0
 58129  1  0  0  0
 59 60  1  0  0  0
 59 61  1  0  0  0
 59 62  1  0  0  0
 60130  1  0  0  0
 60131  1  0  0  0
 60132  1  0  0  0
 61133  1  0  0  0
 61134  1  0  0  0
 61135  1  0  0  0
 62136  1  0  0  0
 62137  1  0  0  0
 62138  1  0  0  0
 63 65  1  0  0  0
 63139  1  0  0  0
 63140  1  0  0  0
 63141  1  0  0  0
 64142  1  0  0  0
 65143  1  0  0  0
 68 80  1  0  0  0
 71 72  2  0  0  0
 71 83  1  0  0  0
 71144  1  0  0  0
 72 73  1  0  0  0
 72 77  1  0  0  0
 73 78  1  0  0  0
 73 82  2  0  0  0
 74145  1  0  0  0
 74146  1  0  0  0
 74147  1  0  0  0
 74 81  1  0  0  0
 75 81  1  0  0  0
 75148  1  0  0  0
 75149  1  0  0  0
 75150  1  0  0  0
 76 83  1  0  0  0
 76151  1  0  0  0
 76152  1  0  0  0
 76153  1  0  0  0
 77 81  1  0  0  0
 77154  1  0  0  0
 77155  1  0  0  0
 78 79  1  0  0  0
 78156  1  0  0  0
 78157  1  0  0  0
 79 84  1  0  0  0
 79158  1  0  0  0
 79159  1  0  0  0
 80 81  1  0  0  0
 80160  1  0  0  0
 80161  1  0  0  0
 82 83  1  0  0  0
 84162  1  0  0  0
M  ISO  4   1 100  68 101  80 101  84 100
M  END
> <chiral flag>
0

> <version>
0

> <s_m_source_file>
/data/baiqing/PycharmProjects/Reinvent-master-3.2/result/LINK_invent/BTK/process_docking_weight1_custom_sum_contain_oxygen_bond_distance_aromatic_linkinvent_7_9_3/rearranged_h_0088.sdf

> <i_m_source_file_index>
59

> <r_mmod_Potential_Energy-OPLS-2005>
140.975784301758

> <r_mmod_Stretch_Energy-OPLS-2005>
124.005836486816

> <r_mmod_Bend_Energy-OPLS-2005>
198.365386962891

> <r_mmod_Torsional_Energy-OPLS-2005>
237.619476318359

> <r_mmod_Improper_Torsional_Energy-OPLS-2005>
5.3895115852356

> <r_mmod_Van_der_Waal_Energy-OPLS-2005>
126.805656433105

> <r_mmod_Electrostatic_Energy-OPLS-2005>
-392.88720703125

> <r_mmod_Solvation_Energy-OPLS-2005>
-221.450744628906

> <b_mmod_Minimization_Converged-OPLS-2005>
0

> <r_mmod_RMS_Derivative-OPLS-2005>
2.48517632484436

$$$$
60
                    3D
 Structure written by MMmdl.
170177  0  0  1  0            999 V2000
  -30.7491  -14.4206   20.6321 C   0  0  0  0  0  0
  -30.4155  -12.3019   19.4105 C   0  0  0  0  0  0
  -29.4877  -12.5154   18.1998 C   0  0  0  0  0  0
  -28.0122  -12.3711   18.6166 C   0  0  0  0  0  0
  -27.6630  -13.2080   19.8763 C   0  0  2  0  0  0
  -28.7029  -12.9812   20.9959 C   0  0  0  0  0  0
  -25.2594  -13.8168   20.5681 C   0  0  0  0  0  0
  -24.1841  -13.0440   20.9173 C   0  0  0  0  0  0
  -24.6396  -11.6913   20.8727 C   0  0  0  0  0  0
  -23.9060  -10.4297   21.0402 C   0  0  0  0  0  0
  -24.3614   -9.4214   21.9182 C   0  0  0  0  0  0
  -23.6291   -8.2248   22.0754 C   0  0  0  0  0  0
  -22.4271   -8.0282   21.3549 C   0  0  0  0  0  0
  -21.9908   -9.0253   20.4649 C   0  0  0  0  0  0
  -22.7234  -10.2136   20.3054 C   0  0  0  0  0  0
  -21.6851   -6.0736   22.5279 C   0  0  0  0  0  0
  -21.4015   -6.5641   23.8211 C   0  0  0  0  0  0
  -21.3660   -5.6796   24.9175 C   0  0  0  0  0  0
  -21.6044   -4.3057   24.7228 C   0  0  0  0  0  0
  -21.8820   -3.8149   23.4348 C   0  0  0  0  0  0
  -21.9194   -4.6965   22.3404 C   0  0  0  0  0  0
  -22.7866  -13.5242   21.1838 C   0  0  0  0  0  0
  -22.1662   -4.2151   21.0980 F   0  0  0  0  0  0
  -21.5629   -3.4537   25.7739 F   0  0  0  0  0  0
  -30.0376  -13.2766   20.4460 N   0  0  0  0  0  0
  -26.3033  -12.9341   20.3371 N   0  0  0  0  0  0
  -25.9325  -11.6500   20.5764 N   0  0  0  0  0  0
  -22.0503  -12.8235   22.0393 N   0  0  0  0  0  0
  -25.4326  -15.1880   20.4105 N   0  0  0  0  0  0
  -31.8333  -14.6311   20.0820 O   0  0  0  0  0  0
  -21.6639   -6.8877   21.4242 O   0  0  0  0  0  0
  -22.3561  -14.5555   20.6693 O   0  0  0  0  0  0
  -24.6138  -31.8684   23.2108 C   0  0  0  0  0  0
  -25.9027  -32.4825   23.8405 C   0  0  1  0  0  0
  -27.2334  -27.4467   20.0909 C   0  0  0  0  0  0
  -25.5878  -33.8622   24.2328 N   0  0  0  0  0  0
  -23.4024  -30.4930   21.5514 C   0  0  2  0  0  0
  -24.8495  -28.9615   20.1139 C   0  0  0  0  0  0
  -22.7406  -29.4660   22.4990 C   0  0  0  0  0  0
  -18.0275  -28.1371   22.8499 C   0  0  0  0  0  0
  -24.1494  -36.7329   23.2638 C   0  0  0  0  0  0
  -25.9311  -30.8381   21.3626 C   0  0  0  0  0  0
  -26.0103  -29.4745   20.7075 C   0  0  0  0  0  0
  -27.2085  -28.7245   20.6929 C   0  0  0  0  0  0
  -26.0589  -26.9450   19.4933 C   0  0  0  0  0  0
  -24.8676  -27.6948   19.5043 C   0  0  0  0  0  0
  -23.6102  -29.8259   20.1659 C   0  0  0  0  0  0
  -25.4101  -36.3109   24.0339 C   0  0  1  0  0  0
  -20.5867  -28.3656   23.1320 C   0  0  2  0  0  0
  -20.6761  -26.9389   22.5416 C   0  0  0  0  0  0
  -19.5742  -26.6381   21.5215 C   0  0  0  0  0  0
  -18.1914  -26.7918   22.1620 C   0  0  0  0  0  0
  -19.1522  -28.8828   23.2912 C   0  0  0  0  0  0
  -18.9450  -30.1434   23.8920 C   0  0  0  0  0  0
  -17.6450  -30.6580   24.0562 C   0  0  0  0  0  0
  -25.9021  -34.9474   23.5126 C   0  0  0  0  0  0
  -16.5340  -29.9079   23.6325 C   0  0  0  0  0  0
  -16.7263  -28.6497   23.0346 C   0  0  0  0  0  0
  -26.4455  -31.6591   25.0723 C   0  0  0  0  0  0
  -25.3722  -31.3686   26.1477 C   0  0  0  0  0  0
  -27.0278  -30.3035   24.6078 C   0  0  0  0  0  0
  -27.6041  -32.4304   25.7471 C   0  0  0  0  0  0
  -27.5581  -37.1811   24.8455 C   0  0  0  0  0  0
  -21.4134  -29.3035   22.3729 N   0  0  0  0  0  0
  -26.4294  -37.3785   23.9397 N   0  0  0  0  0  0
  -24.6678  -31.0793   22.1006 N   0  0  0  0  0  0
  -23.4183  -28.8195   23.3026 O   0  0  0  0  0  0
  -28.3791  -26.6843   20.1018 O   0  0  0  0  0  0
  -26.5603  -34.8921   22.4703 O   0  0  0  0  0  0
  -23.5326  -32.1430   23.7493 O   0  0  0  0  0  0
  -29.8623  -19.4292   18.5583 C   0  0  0  0  0  0
  -32.2850  -18.5086   21.2574 C   0  0  0  0  0  0
  -29.8995  -22.3057   21.9340 C   0  0  0  0  0  0
  -27.8314  -21.0702   22.6173 C   0  0  0  0  0  0
  -28.1419  -24.1848   20.2249 C   0  0  0  0  0  0
  -27.6018  -23.0477   21.1410 C   0  0  0  0  0  0
  -29.7505  -18.6394   20.9711 C   0  0  0  0  0  0
  -28.6100  -20.8972   20.1870 C   0  0  0  0  0  0
  -30.8895  -16.5278   21.9555 C   0  0  0  0  0  0
  -28.3017  -25.5381   20.9644 C   0  0  0  0  0  0
  -29.7891  -19.8830   20.0285 C   0  0  2  0  0  0
  -31.0015  -17.7117   20.9502 C   0  0  2  0  0  0
  -28.5170  -21.8201   21.4508 C   0  0  0  0  0  0
  -30.1986  -15.3370   21.4457 N   0  0  0  0  0  0
  -31.4599  -12.3926   19.1064 H   0  0  0  0  0  0
  -30.3097  -11.2874   19.7982 H   0  0  0  0  0  0
  -29.7248  -11.8000   17.4113 H   0  0  0  0  0  0
  -29.6562  -13.5067   17.7758 H   0  0  0  0  0  0
  -27.8253  -11.3143   18.8108 H   0  0  0  0  0  0
  -27.3578  -12.6467   17.7891 H   0  0  0  0  0  0
  -27.7120  -14.2579   19.5859 H   0  0  0  0  0  0
  -28.6734  -11.9450   21.3370 H   0  0  0  0  0  0
  -28.4572  -13.5805   21.8732 H   0  0  0  0  0  0
  -25.2758   -9.5691   22.4756 H   0  0  0  0  0  0
  -24.0000   -7.4642   22.7476 H   0  0  0  0  0  0
  -21.0838   -8.8776   19.8952 H   0  0  0  0  0  0
  -22.3692  -10.9678   19.6162 H   0  0  0  0  0  0
  -21.2006   -7.6147   23.9718 H   0  0  0  0  0  0
  -21.1479   -6.0522   25.9079 H   0  0  0  0  0  0
  -22.0598   -2.7609   23.2848 H   0  0  0  0  0  0
  -22.4113  -11.9885   22.4767 H   0  0  0  0  0  0
  -21.1123  -13.1275   22.2596 H   0  0  0  0  0  0
  -24.6703  -15.8475   20.5232 H   0  0  0  0  0  0
  -26.2941  -15.6273   20.1098 H   0  0  0  0  0  0
  -26.7106  -32.5552   23.1180 H   0  0  0  0  0  0
  -24.9990  -33.9776   25.0448 H   0  0  0  0  0  0
  -22.6918  -31.3105   21.4124 H   0  0  0  0  0  0
  -23.3737  -35.9685   23.3304 H   0  0  0  0  0  0
  -24.3601  -36.8942   22.2054 H   0  0  0  0  0  0
  -23.7268  -37.6541   23.6662 H   0  0  0  0  0  0
  -26.0391  -31.6049   20.5939 H   0  0  0  0  0  0
  -26.8202  -30.8927   21.9793 H   0  0  0  0  0  0
  -28.1048  -29.1095   21.1586 H   0  0  0  0  0  0
  -26.0602  -25.9752   19.0200 H   0  0  0  0  0  0
  -23.9759  -27.2915   19.0434 H   0  0  0  0  0  0
  -23.7128  -30.6018   19.4055 H   0  0  0  0  0  0
  -22.7334  -29.2443   19.8735 H   0  0  0  0  0  0
  -25.1277  -36.1980   25.0833 H   0  0  0  0  0  0
  -20.9971  -28.3229   24.1435 H   0  0  0  0  0  0
  -20.5670  -26.2252   23.3599 H   0  0  0  0  0  0
  -21.6634  -26.7427   22.1210 H   0  0  0  0  0  0
  -19.6905  -25.6301   21.1221 H   0  0  0  0  0  0
  -19.6693  -27.3213   20.6765 H   0  0  0  0  0  0
  -17.4187  -26.6679   21.4020 H   0  0  0  0  0  0
  -18.0309  -26.0055   22.9008 H   0  0  0  0  0  0
  -19.7926  -30.7239   24.2311 H   0  0  0  0  0  0
  -17.5002  -31.6271   24.5146 H   0  0  0  0  0  0
  -15.5337  -30.2980   23.7651 H   0  0  0  0  0  0
  -15.8657  -28.0824   22.7047 H   0  0  0  0  0  0
  -24.5926  -30.6991   25.7824 H   0  0  0  0  0  0
  -24.8865  -32.2819   26.4919 H   0  0  0  0  0  0
  -25.8089  -30.8879   27.0236 H   0  0  0  0  0  0
  -26.2819  -29.6800   24.1140 H   0  0  0  0  0  0
  -27.4049  -29.7264   25.4525 H   0  0  0  0  0  0
  -27.8646  -30.4344   23.9217 H   0  0  0  0  0  0
  -27.2687  -33.3606   26.2069 H   0  0  0  0  0  0
  -28.3839  -32.6859   25.0282 H   0  0  0  0  0  0
  -28.0723  -31.8406   26.5360 H   0  0  0  0  0  0
  -28.2592  -38.0116   24.7504 H   0  0  0  0  0  0
  -28.1089  -36.2645   24.6286 H   0  0  0  0  0  0
  -27.2304  -37.1463   25.8859 H   0  0  0  0  0  0
  -20.9281  -29.8760   21.6959 H   0  0  0  0  0  0
  -26.0189  -38.2865   24.1396 H   0  0  0  0  0  0
  -30.7537  -18.8359   18.3591 H   0  0  0  0  0  0
  -29.9037  -20.2809   17.8789 H   0  0  0  0  0  0
  -28.9930  -18.8305   18.2848 H   0  0  0  0  0  0
  -32.5131  -19.2293   20.4728 H   0  0  0  0  0  0
  -33.1543  -17.8534   21.3258 H   0  0  0  0  0  0
  -32.2033  -19.0503   22.2004 H   0  0  0  0  0  0
  -29.8033  -23.0230   22.7498 H   0  0  0  0  0  0
  -30.4683  -22.7875   21.1396 H   0  0  0  0  0  0
  -30.5033  -21.4783   22.3088 H   0  0  0  0  0  0
  -27.6053  -21.7428   23.4465 H   0  0  0  0  0  0
  -28.4484  -20.2892   23.0494 H   0  0  0  0  0  0
  -26.8896  -20.6160   22.3081 H   0  0  0  0  0  0
  -27.4383  -24.3080   19.4034 H   0  0  0  0  0  0
  -29.0785  -23.9104   19.7419 H   0  0  0  0  0  0
  -26.6719  -22.6778   20.7060 H   0  0  0  0  0  0
  -27.2850  -23.4950   22.0841 H   0  0  0  0  0  0
  -28.8570  -18.0498   20.7584 H   0  0  0  0  0  0
  -29.6458  -18.9766   21.9956 H   0  0  0  0  0  0
  -27.6654  -20.3698   20.0465 H   0  0  0  0  0  0
  -28.6676  -21.5665   19.3283 H   0  0  0  0  0  0
  -30.3972  -16.8563   22.8721 H   0  0  0  0  0  0
  -31.8853  -16.2074   22.2705 H   0  0  0  0  0  0
  -29.2090  -25.5060   21.5681 H   0  0  0  0  0  0
  -27.4882  -25.6697   21.6815 H   0  0  0  0  0  0
  -30.7026  -20.4428   20.2173 H   0  0  0  0  0  0
  -31.1199  -17.2938   19.9507 H   0  0  0  0  0  0
  -29.3008  -15.1106   21.8474 H   0  0  0  0  0  0
  1 25  1  0  0  0
  1 30  2  0  0  0
  1 84  1  0  0  0
  2  3  1  0  0  0
  2 25  1  0  0  0
  2 85  1  0  0  0
  2 86  1  0  0  0
  3  4  1  0  0  0
  3 87  1  0  0  0
  3 88  1  0  0  0
  4  5  1  0  0  0
  4 89  1  0  0  0
  4 90  1  0  0  0
  5  6  1  0  0  0
  5 26  1  0  0  0
  5 91  1  0  0  0
  6 25  1  0  0  0
  6 92  1  0  0  0
  6 93  1  0  0  0
  7  8  2  0  0  0
  7 26  1  0  0  0
  7 29  1  0  0  0
  8  9  1  0  0  0
  8 22  1  0  0  0
  9 10  1  0  0  0
  9 27  2  0  0  0
 10 11  2  0  0  0
 10 15  1  0  0  0
 11 12  1  0  0  0
 11 94  1  0  0  0
 12 13  2  0  0  0
 12 95  1  0  0  0
 13 14  1  0  0  0
 13 31  1  0  0  0
 14 15  2  0  0  0
 14 96  1  0  0  0
 15 97  1  0  0  0
 16 17  2  0  0  0
 16 21  1  0  0  0
 16 31  1  0  0  0
 17 18  1  0  0  0
 17 98  1  0  0  0
 18 19  2  0  0  0
 18 99  1  0  0  0
 19 20  1  0  0  0
 19 24  1  0  0  0
 20 21  2  0  0  0
 20100  1  0  0  0
 21 23  1  0  0  0
 22 28  1  0  0  0
 22 32  2  0  0  0
 26 27  1  0  0  0
 28101  1  0  0  0
 28102  1  0  0  0
 29103  1  0  0  0
 29104  1  0  0  0
 33 34  1  0  0  0
 33 66  1  0  0  0
 33 70  2  0  0  0
 34 36  1  0  0  0
 34 59  1  0  0  0
 34105  1  0  0  0
 35 44  2  0  0  0
 35 45  1  0  0  0
 35 68  1  0  0  0
 36 56  1  0  0  0
 36106  1  0  0  0
 37 39  1  0  0  0
 37 47  1  0  0  0
 37 66  1  0  0  0
 37107  1  0  0  0
 38 43  2  0  0  0
 38 46  1  0  0  0
 38 47  1  0  0  0
 39 64  1  0  0  0
 39 67  2  0  0  0
 40 52  1  0  0  0
 40 53  2  0  0  0
 40 58  1  0  0  0
 41108  1  0  0  0
 41109  1  0  0  0
 41110  1  0  0  0
 41 48  1  0  0  0
 42 43  1  0  0  0
 42 66  1  0  0  0
 42111  1  0  0  0
 42112  1  0  0  0
 43 44  1  0  0  0
 44113  1  0  0  0
 45 46  2  0  0  0
 45114  1  0  0  0
 46115  1  0  0  0
 47116  1  0  0  0
 47117  1  0  0  0
 48 56  1  0  0  0
 48 65  1  0  0  0
 48118  1  0  0  0
 49 50  1  0  0  0
 49 53  1  0  0  0
 49 64  1  0  0  0
 49119  1  0  0  0
 50 51  1  0  0  0
 50120  1  0  0  0
 50121  1  0  0  0
 51 52  1  0  0  0
 51122  1  0  0  0
 51123  1  0  0  0
 52124  1  0  0  0
 52125  1  0  0  0
 53 54  1  0  0  0
 54 55  2  0  0  0
 54126  1  0  0  0
 55 57  1  0  0  0
 55127  1  0  0  0
 56 69  2  0  0  0
 57 58  2  0  0  0
 57128  1  0  0  0
 58129  1  0  0  0
 59 60  1  0  0  0
 59 61  1  0  0  0
 59 62  1  0  0  0
 60130  1  0  0  0
 60131  1  0  0  0
 60132  1  0  0  0
 61133  1  0  0  0
 61134  1  0  0  0
 61135  1  0  0  0
 62136  1  0  0  0
 62137  1  0  0  0
 62138  1  0  0  0
 63 65  1  0  0  0
 63139  1  0  0  0
 63140  1  0  0  0
 63141  1  0  0  0
 64142  1  0  0  0
 65143  1  0  0  0
 68 80  1  0  0  0
 71144  1  0  0  0
 71145  1  0  0  0
 71146  1  0  0  0
 71 81  1  0  0  0
 72147  1  0  0  0
 72148  1  0  0  0
 72149  1  0  0  0
 72 82  1  0  0  0
 73150  1  0  0  0
 73151  1  0  0  0
 73152  1  0  0  0
 73 83  1  0  0  0
 74 83  1  0  0  0
 74153  1  0  0  0
 74154  1  0  0  0
 74155  1  0  0  0
 75 76  1  0  0  0
 75 80  1  0  0  0
 75156  1  0  0  0
 75157  1  0  0  0
 76 83  1  0  0  0
 76158  1  0  0  0
 76159  1  0  0  0
 77 81  1  0  0  0
 77 82  1  0  0  0
 77160  1  0  0  0
 77161  1  0  0  0
 78 81  1  0  0  0
 78 83  1  0  0  0
 78162  1  0  0  0
 78163  1  0  0  0
 79 82  1  0  0  0
 79 84  1  0  0  0
 79164  1  0  0  0
 79165  1  0  0  0
 80166  1  0  0  0
 80167  1  0  0  0
 81168  1  0  0  0
 82169  1  0  0  0
 84170  1  0  0  0
M  ISO  4   1 100  68 101  80 101  84 100
M  END
> <chiral flag>
0

> <version>
0

> <s_m_source_file>
/data/baiqing/PycharmProjects/Reinvent-master-3.2/result/LINK_invent/BTK/process_docking_weight1_custom_sum_contain_oxygen_bond_distance_aromatic_linkinvent_7_9_3/rearranged_h_0088.sdf

> <i_m_source_file_index>
60

> <r_mmod_Potential_Energy-OPLS-2005>
-15.3947725296021

> <r_mmod_Stretch_Energy-OPLS-2005>
40.1972808837891

> <r_mmod_Bend_Energy-OPLS-2005>
114.556739807129

> <r_mmod_Torsional_Energy-OPLS-2005>
264.72802734375

> <r_mmod_Improper_Torsional_Energy-OPLS-2005>
1.90254902839661

> <r_mmod_Van_der_Waal_Energy-OPLS-2005>
140.932846069336

> <r_mmod_Electrostatic_Energy-OPLS-2005>
-403.133575439453

> <r_mmod_Solvation_Energy-OPLS-2005>
-184.236083984375

> <b_mmod_Minimization_Converged-OPLS-2005>
0

> <r_mmod_RMS_Derivative-OPLS-2005>
1.44991278648376

$$$$
61
                    3D
 Structure written by MMmdl.
161169  0  0  1  0            999 V2000
  -30.7111  -14.5307   20.6201 C   0  0  0  0  0  0
  -30.4153  -12.3538   19.4535 C   0  0  0  0  0  0
  -29.4994  -12.5264   18.2232 C   0  0  0  0  0  0
  -28.0166  -12.3830   18.6160 C   0  0  0  0  0  0
  -27.6538  -13.2197   19.8697 C   0  0  2  0  0  0
  -28.6859  -13.0255   20.9980 C   0  0  0  0  0  0
  -25.2532  -13.8202   20.5666 C   0  0  0  0  0  0
  -24.1800  -13.0447   20.9154 C   0  0  0  0  0  0
  -24.6393  -11.6930   20.8714 C   0  0  0  0  0  0
  -23.9082  -10.4302   21.0394 C   0  0  0  0  0  0
  -24.3643   -9.4219   21.9169 C   0  0  0  0  0  0
  -23.6316   -8.2258   22.0760 C   0  0  0  0  0  0
  -22.4291   -8.0298   21.3559 C   0  0  0  0  0  0
  -21.9937   -9.0260   20.4653 C   0  0  0  0  0  0
  -22.7259  -10.2137   20.3052 C   0  0  0  0  0  0
  -21.6854   -6.0764   22.5277 C   0  0  0  0  0  0
  -21.4015   -6.5666   23.8213 C   0  0  0  0  0  0
  -21.3665   -5.6810   24.9171 C   0  0  0  0  0  0
  -21.6052   -4.3075   24.7225 C   0  0  0  0  0  0
  -21.8820   -3.8179   23.4340 C   0  0  0  0  0  0
  -21.9191   -4.6996   22.3399 C   0  0  0  0  0  0
  -22.7825  -13.5220   21.1837 C   0  0  0  0  0  0
  -22.1652   -4.2183   21.0977 F   0  0  0  0  0  0
  -21.5636   -3.4560   25.7733 F   0  0  0  0  0  0
  -30.0195  -13.3548   20.4661 N   0  0  0  0  0  0
  -26.2964  -12.9385   20.3306 N   0  0  0  0  0  0
  -25.9307  -11.6538   20.5715 N   0  0  0  0  0  0
  -22.0497  -12.8182   22.0404 N   0  0  0  0  0  0
  -25.4260  -15.1924   20.4131 N   0  0  0  0  0  0
  -31.7886  -14.7093   20.0420 O   0  0  0  0  0  0
  -21.6650   -6.8903   21.4240 O   0  0  0  0  0  0
  -22.3483  -14.5516   20.6695 O   0  0  0  0  0  0
  -24.6190  -31.8629   23.2052 C   0  0  0  0  0  0
  -25.9055  -32.4795   23.8356 C   0  0  1  0  0  0
  -27.2232  -27.3650   20.1095 C   0  0  0  0  0  0
  -25.5901  -33.8597   24.2285 N   0  0  0  0  0  0
  -23.4097  -30.4863   21.5471 C   0  0  2  0  0  0
  -24.8535  -28.9442   20.1096 C   0  0  0  0  0  0
  -22.7436  -29.4634   22.4962 C   0  0  0  0  0  0
  -18.0271  -28.1390   22.8488 C   0  0  0  0  0  0
  -24.1492  -36.7310   23.2645 C   0  0  0  0  0  0
  -25.9436  -30.8077   21.3677 C   0  0  0  0  0  0
  -26.0163  -29.4372   20.7144 C   0  0  0  0  0  0
  -27.1988  -28.6535   20.7126 C   0  0  0  0  0  0
  -26.0420  -26.9088   19.4817 C   0  0  0  0  0  0
  -24.8645  -27.6829   19.4903 C   0  0  0  0  0  0
  -23.6192  -29.8194   20.1614 C   0  0  0  0  0  0
  -25.4117  -36.3100   24.0330 C   0  0  1  0  0  0
  -20.5865  -28.3664   23.1323 C   0  0  2  0  0  0
  -20.6771  -26.9394   22.5428 C   0  0  0  0  0  0
  -19.5754  -26.6380   21.5225 C   0  0  0  0  0  0
  -18.1926  -26.7934   22.1621 C   0  0  0  0  0  0
  -19.1526  -28.8846   23.2903 C   0  0  0  0  0  0
  -18.9450  -30.1452   23.8903 C   0  0  0  0  0  0
  -17.6454  -30.6589   24.0564 C   0  0  0  0  0  0
  -25.9043  -34.9466   23.5108 C   0  0  0  0  0  0
  -16.5341  -29.9083   23.6339 C   0  0  0  0  0  0
  -16.7263  -28.6513   23.0342 C   0  0  0  0  0  0
  -26.4470  -31.6599   25.0711 C   0  0  0  0  0  0
  -25.3740  -31.3703   26.1462 C   0  0  0  0  0  0
  -27.0319  -30.3045   24.6113 C   0  0  0  0  0  0
  -27.6035  -32.4339   25.7472 C   0  0  0  0  0  0
  -27.5584  -37.1806   24.8455 C   0  0  0  0  0  0
  -21.4158  -29.3017   22.3706 N   0  0  0  0  0  0
  -26.4292  -37.3790   23.9410 N   0  0  0  0  0  0
  -24.6766  -31.0686   22.0981 N   0  0  0  0  0  0
  -23.4186  -28.8183   23.3028 O   0  0  0  0  0  0
  -28.3776  -26.5907   20.1897 O   0  0  0  0  0  0
  -26.5620  -34.8928   22.4676 O   0  0  0  0  0  0
  -23.5371  -32.1411   23.7420 O   0  0  0  0  0  0
  -29.0230  -20.6751   21.2198 C   0  0  0  0  0  0
  -30.7151  -22.3410   20.7825 C   0  0  0  0  0  0
  -29.3661  -22.0502   21.0318 C   0  0  0  0  0  0
  -30.0335  -19.6620   21.2256 C   0  0  0  0  0  0
  -31.3654  -20.1154   21.0380 C   0  0  0  0  0  0
  -32.5820  -19.2254   21.2155 C   0  0  0  0  0  0
  -30.0090  -15.4802   22.7354 C   0  0  0  0  0  0
  -28.3787  -23.2226   21.2783 C   0  0  0  0  0  0
  -29.7031  -18.1865   21.6292 C   0  0  0  0  0  0
  -27.7915  -24.0152   20.0625 C   0  0  0  0  0  0
  -30.2144  -16.9798   20.7316 C   0  0  0  0  0  0
  -28.5081  -25.3061   19.5132 C   0  0  0  0  0  0
  -31.6807  -21.4036   20.7810 N   0  0  0  0  0  0
  -30.0983  -15.5740   21.2707 N   0  0  0  0  0  0
  -31.4635  -12.4445   19.1618 H   0  0  0  0  0  0
  -30.3168  -11.3474   19.8632 H   0  0  0  0  0  0
  -29.7522  -11.7951   17.4557 H   0  0  0  0  0  0
  -29.6646  -13.5100   17.7797 H   0  0  0  0  0  0
  -27.8099  -11.3269   18.7959 H   0  0  0  0  0  0
  -27.3829  -12.6773   17.7782 H   0  0  0  0  0  0
  -27.6911  -14.2664   19.5667 H   0  0  0  0  0  0
  -28.6734  -11.9917   21.3512 H   0  0  0  0  0  0
  -28.3923  -13.6300   21.8511 H   0  0  0  0  0  0
  -25.2791   -9.5700   22.4749 H   0  0  0  0  0  0
  -24.0054   -7.4644   22.7466 H   0  0  0  0  0  0
  -21.0894   -8.8764   19.8925 H   0  0  0  0  0  0
  -22.3721  -10.9683   19.6179 H   0  0  0  0  0  0
  -21.1995   -7.6168   23.9720 H   0  0  0  0  0  0
  -21.1490   -6.0542   25.9069 H   0  0  0  0  0  0
  -22.0597   -2.7646   23.2821 H   0  0  0  0  0  0
  -22.4150  -11.9852   22.4777 H   0  0  0  0  0  0
  -21.1099  -13.1159   22.2616 H   0  0  0  0  0  0
  -24.6697  -15.8572   20.5350 H   0  0  0  0  0  0
  -26.2896  -15.6283   20.1136 H   0  0  0  0  0  0
  -26.7115  -32.5481   23.1100 H   0  0  0  0  0  0
  -25.0025  -33.9745   25.0413 H   0  0  0  0  0  0
  -22.7001  -31.3047   21.4076 H   0  0  0  0  0  0
  -23.3756  -35.9638   23.3296 H   0  0  0  0  0  0
  -24.3586  -36.8944   22.2058 H   0  0  0  0  0  0
  -23.7234  -37.6505   23.6673 H   0  0  0  0  0  0
  -26.0658  -31.5707   20.5967 H   0  0  0  0  0  0
  -26.8291  -30.8594   21.9903 H   0  0  0  0  0  0
  -28.0936  -29.0245   21.1928 H   0  0  0  0  0  0
  -25.9981  -25.9441   18.9987 H   0  0  0  0  0  0
  -23.9674  -27.2980   19.0253 H   0  0  0  0  0  0
  -23.7342  -30.5956   19.4038 H   0  0  0  0  0  0
  -22.7398  -29.2457   19.8626 H   0  0  0  0  0  0
  -25.1296  -36.1956   25.0818 H   0  0  0  0  0  0
  -20.9957  -28.3237   24.1449 H   0  0  0  0  0  0
  -20.5697  -26.2265   23.3614 H   0  0  0  0  0  0
  -21.6647  -26.7449   22.1221 H   0  0  0  0  0  0
  -19.6921  -25.6293   21.1255 H   0  0  0  0  0  0
  -19.6714  -27.3197   20.6763 H   0  0  0  0  0  0
  -17.4205  -26.6691   21.4002 H   0  0  0  0  0  0
  -18.0303  -26.0070   22.9006 H   0  0  0  0  0  0
  -19.7922  -30.7271   24.2276 H   0  0  0  0  0  0
  -17.5003  -31.6273   24.5156 H   0  0  0  0  0  0
  -15.5347  -30.2984   23.7671 H   0  0  0  0  0  0
  -15.8664  -28.0845   22.7042 H   0  0  0  0  0  0
  -24.5864  -30.7114   25.7780 H   0  0  0  0  0  0
  -24.8999  -32.2865   26.4992 H   0  0  0  0  0  0
  -25.8095  -30.8786   27.0169 H   0  0  0  0  0  0
  -26.2869  -29.6784   24.1188 H   0  0  0  0  0  0
  -27.4103  -29.7301   25.4576 H   0  0  0  0  0  0
  -27.8693  -30.4362   23.9262 H   0  0  0  0  0  0
  -27.2624  -33.3598   26.2110 H   0  0  0  0  0  0
  -28.3802  -32.6971   25.0283 H   0  0  0  0  0  0
  -28.0752  -31.8443   26.5336 H   0  0  0  0  0  0
  -28.2594  -38.0114   24.7533 H   0  0  0  0  0  0
  -28.1093  -36.2647   24.6248 H   0  0  0  0  0  0
  -27.2310  -37.1417   25.8860 H   0  0  0  0  0  0
  -20.9320  -29.8720   21.6910 H   0  0  0  0  0  0
  -26.0181  -38.2863   24.1426 H   0  0  0  0  0  0
  -28.0005  -20.4079   21.4492 H   0  0  0  0  0  0
  -31.0494  -23.3616   20.6691 H   0  0  0  0  0  0
  -32.4060  -18.4422   21.9508 H   0  0  0  0  0  0
  -33.4321  -19.8033   21.5804 H   0  0  0  0  0  0
  -32.8734  -18.7705   20.2686 H   0  0  0  0  0  0
  -30.8683  -15.9726   23.1943 H   0  0  0  0  0  0
  -30.0186  -14.4522   23.1032 H   0  0  0  0  0  0
  -29.0982  -15.9485   23.1097 H   0  0  0  0  0  0
  -28.8326  -23.9278   21.9767 H   0  0  0  0  0  0
  -27.5388  -22.7971   21.8299 H   0  0  0  0  0  0
  -28.6205  -18.0982   21.7277 H   0  0  0  0  0  0
  -30.0928  -18.0841   22.6422 H   0  0  0  0  0  0
  -26.7787  -24.3052   20.3390 H   0  0  0  0  0  0
  -27.6572  -23.3095   19.2412 H   0  0  0  0  0  0
  -31.2606  -17.1343   20.4847 H   0  0  0  0  0  0
  -29.6917  -17.0105   19.7753 H   0  0  0  0  0  0
  -28.2054  -25.4544   18.4752 H   0  0  0  0  0  0
  -29.5740  -25.0900   19.4552 H   0  0  0  0  0  0
  1 25  1  0  0  0
  1 30  2  0  0  0
  1 84  1  0  0  0
  2  3  1  0  0  0
  2 25  1  0  0  0
  2 85  1  0  0  0
  2 86  1  0  0  0
  3  4  1  0  0  0
  3 87  1  0  0  0
  3 88  1  0  0  0
  4  5  1  0  0  0
  4 89  1  0  0  0
  4 90  1  0  0  0
  5  6  1  0  0  0
  5 26  1  0  0  0
  5 91  1  0  0  0
  6 25  1  0  0  0
  6 92  1  0  0  0
  6 93  1  0  0  0
  7  8  2  0  0  0
  7 26  1  0  0  0
  7 29  1  0  0  0
  8  9  1  0  0  0
  8 22  1  0  0  0
  9 10  1  0  0  0
  9 27  2  0  0  0
 10 11  2  0  0  0
 10 15  1  0  0  0
 11 12  1  0  0  0
 11 94  1  0  0  0
 12 13  2  0  0  0
 12 95  1  0  0  0
 13 14  1  0  0  0
 13 31  1  0  0  0
 14 15  2  0  0  0
 14 96  1  0  0  0
 15 97  1  0  0  0
 16 17  2  0  0  0
 16 21  1  0  0  0
 16 31  1  0  0  0
 17 18  1  0  0  0
 17 98  1  0  0  0
 18 19  2  0  0  0
 18 99  1  0  0  0
 19 20  1  0  0  0
 19 24  1  0  0  0
 20 21  2  0  0  0
 20100  1  0  0  0
 21 23  1  0  0  0
 22 28  1  0  0  0
 22 32  2  0  0  0
 26 27  1  0  0  0
 28101  1  0  0  0
 28102  1  0  0  0
 29103  1  0  0  0
 29104  1  0  0  0
 33 34  1  0  0  0
 33 66  1  0  0  0
 33 70  2  0  0  0
 34 36  1  0  0  0
 34 59  1  0  0  0
 34105  1  0  0  0
 35 44  2  0  0  0
 35 45  1  0  0  0
 35 68  1  0  0  0
 36 56  1  0  0  0
 36106  1  0  0  0
 37 39  1  0  0  0
 37 47  1  0  0  0
 37 66  1  0  0  0
 37107  1  0  0  0
 38 43  2  0  0  0
 38 46  1  0  0  0
 38 47  1  0  0  0
 39 64  1  0  0  0
 39 67  2  0  0  0
 40 52  1  0  0  0
 40 53  2  0  0  0
 40 58  1  0  0  0
 41108  1  0  0  0
 41109  1  0  0  0
 41110  1  0  0  0
 41 48  1  0  0  0
 42 43  1  0  0  0
 42 66  1  0  0  0
 42111  1  0  0  0
 42112  1  0  0  0
 43 44  1  0  0  0
 44113  1  0  0  0
 45 46  2  0  0  0
 45114  1  0  0  0
 46115  1  0  0  0
 47116  1  0  0  0
 47117  1  0  0  0
 48 56  1  0  0  0
 48 65  1  0  0  0
 48118  1  0  0  0
 49 50  1  0  0  0
 49 53  1  0  0  0
 49 64  1  0  0  0
 49119  1  0  0  0
 50 51  1  0  0  0
 50120  1  0  0  0
 50121  1  0  0  0
 51 52  1  0  0  0
 51122  1  0  0  0
 51123  1  0  0  0
 52124  1  0  0  0
 52125  1  0  0  0
 53 54  1  0  0  0
 54 55  2  0  0  0
 54126  1  0  0  0
 55 57  1  0  0  0
 55127  1  0  0  0
 56 69  2  0  0  0
 57 58  2  0  0  0
 57128  1  0  0  0
 58129  1  0  0  0
 59 60  1  0  0  0
 59 61  1  0  0  0
 59 62  1  0  0  0
 60130  1  0  0  0
 60131  1  0  0  0
 60132  1  0  0  0
 61133  1  0  0  0
 61134  1  0  0  0
 61135  1  0  0  0
 62136  1  0  0  0
 62137  1  0  0  0
 62138  1  0  0  0
 63 65  1  0  0  0
 63139  1  0  0  0
 63140  1  0  0  0
 63141  1  0  0  0
 64142  1  0  0  0
 65143  1  0  0  0
 68 82  1  0  0  0
 71 73  2  0  0  0
 71 74  1  0  0  0
 71144  1  0  0  0
 72 73  1  0  0  0
 72 83  2  0  0  0
 72145  1  0  0  0
 73 78  1  0  0  0
 74 75  2  0  0  0
 74 79  1  0  0  0
 75 76  1  0  0  0
 75 83  1  0  0  0
 76146  1  0  0  0
 76147  1  0  0  0
 76148  1  0  0  0
 77 84  1  0  0  0
 77149  1  0  0  0
 77150  1  0  0  0
 77151  1  0  0  0
 78 80  1  0  0  0
 78152  1  0  0  0
 78153  1  0  0  0
 79 81  1  0  0  0
 79154  1  0  0  0
 79155  1  0  0  0
 80 82  1  0  0  0
 80156  1  0  0  0
 80157  1  0  0  0
 81 84  1  0  0  0
 81158  1  0  0  0
 81159  1  0  0  0
 82160  1  0  0  0
 82161  1  0  0  0
M  ISO  4   1 100  68 101  82 101  84 100
M  END
> <chiral flag>
0

> <version>
0

> <s_m_source_file>
/data/baiqing/PycharmProjects/Reinvent-master-3.2/result/LINK_invent/BTK/process_docking_weight1_custom_sum_contain_oxygen_bond_distance_aromatic_linkinvent_7_9_3/rearranged_h_0088.sdf

> <i_m_source_file_index>
61

> <r_mmod_Potential_Energy-OPLS-2005>
20.1696033477783

> <r_mmod_Stretch_Energy-OPLS-2005>
65.1017608642578

> <r_mmod_Bend_Energy-OPLS-2005>
147.254425048828

> <r_mmod_Torsional_Energy-OPLS-2005>
280.079284667969

> <r_mmod_Improper_Torsional_Energy-OPLS-2005>
8.41472244262695

> <r_mmod_Van_der_Waal_Energy-OPLS-2005>
155.594848632812

> <r_mmod_Electrostatic_Energy-OPLS-2005>
-452.038055419922

> <r_mmod_Solvation_Energy-OPLS-2005>
-208.732284545898

> <b_mmod_Minimization_Converged-OPLS-2005>
0

> <r_mmod_RMS_Derivative-OPLS-2005>
2.56629085540771

$$$$
62
                    3D
 Structure written by MMmdl.
171178  0  0  1  0            999 V2000
  -30.6482  -14.6107   20.4987 C   0  0  0  0  0  0
  -30.4338  -12.3658   19.4449 C   0  0  0  0  0  0
  -29.5008  -12.4773   18.2186 C   0  0  0  0  0  0
  -28.0242  -12.3240   18.6333 C   0  0  0  0  0  0
  -27.6514  -13.2085   19.8525 C   0  0  2  0  0  0
  -28.6991  -13.0867   20.9837 C   0  0  0  0  0  0
  -25.2588  -13.8181   20.5683 C   0  0  0  0  0  0
  -24.1843  -13.0460   20.9182 C   0  0  0  0  0  0
  -24.6404  -11.6917   20.8758 C   0  0  0  0  0  0
  -23.9070  -10.4321   21.0452 C   0  0  0  0  0  0
  -24.3633   -9.4236   21.9224 C   0  0  0  0  0  0
  -23.6314   -8.2241   22.0759 C   0  0  0  0  0  0
  -22.4276   -8.0311   21.3545 C   0  0  0  0  0  0
  -21.9947   -9.0256   20.4639 C   0  0  0  0  0  0
  -22.7259  -10.2162   20.3060 C   0  0  0  0  0  0
  -21.6851   -6.0770   22.5266 C   0  0  0  0  0  0
  -21.3997   -6.5650   23.8217 C   0  0  0  0  0  0
  -21.3653   -5.6788   24.9196 C   0  0  0  0  0  0
  -21.6049   -4.3060   24.7213 C   0  0  0  0  0  0
  -21.8811   -3.8170   23.4332 C   0  0  0  0  0  0
  -21.9193   -4.7004   22.3390 C   0  0  0  0  0  0
  -22.7876  -13.5266   21.1855 C   0  0  0  0  0  0
  -22.1661   -4.2184   21.0979 F   0  0  0  0  0  0
  -21.5649   -3.4560   25.7745 F   0  0  0  0  0  0
  -30.0230  -13.3960   20.4206 N   0  0  0  0  0  0
  -26.3005  -12.9329   20.3302 N   0  0  0  0  0  0
  -25.9330  -11.6510   20.5789 N   0  0  0  0  0  0
  -22.0500  -12.8212   22.0389 N   0  0  0  0  0  0
  -25.4336  -15.1904   20.4068 N   0  0  0  0  0  0
  -31.7957  -14.7464   20.0612 O   0  0  0  0  0  0
  -21.6639   -6.8906   21.4238 O   0  0  0  0  0  0
  -22.3548  -14.5599   20.6755 O   0  0  0  0  0  0
  -24.6295  -31.8617   23.1991 C   0  0  0  0  0  0
  -25.9150  -32.4814   23.8356 C   0  0  1  0  0  0
  -27.2094  -27.3115   20.1230 C   0  0  0  0  0  0
  -25.5956  -33.8595   24.2245 N   0  0  0  0  0  0
  -23.4215  -30.4895   21.5396 C   0  0  2  0  0  0
  -24.8683  -28.9547   20.1036 C   0  0  0  0  0  0
  -22.7515  -29.4618   22.4864 C   0  0  0  0  0  0
  -18.0277  -28.1348   22.8496 C   0  0  0  0  0  0
  -24.1489  -36.7268   23.2651 C   0  0  0  0  0  0
  -25.9670  -30.7924   21.3742 C   0  0  0  0  0  0
  -26.0376  -29.4205   20.7159 C   0  0  0  0  0  0
  -27.2121  -28.6103   20.7198 C   0  0  0  0  0  0
  -26.0202  -26.9150   19.4603 C   0  0  0  0  0  0
  -24.8652  -27.7094   19.4626 C   0  0  0  0  0  0
  -23.6361  -29.8338   20.1515 C   0  0  0  0  0  0
  -25.4110  -36.3079   24.0348 C   0  0  1  0  0  0
  -20.5894  -28.3667   23.1277 C   0  0  2  0  0  0
  -20.6806  -26.9395   22.5395 C   0  0  0  0  0  0
  -19.5760  -26.6349   21.5221 C   0  0  0  0  0  0
  -18.1916  -26.7890   22.1590 C   0  0  0  0  0  0
  -19.1551  -28.8821   23.2877 C   0  0  0  0  0  0
  -18.9495  -30.1419   23.8936 C   0  0  0  0  0  0
  -17.6506  -30.6588   24.0534 C   0  0  0  0  0  0
  -25.9093  -34.9468   23.5080 C   0  0  0  0  0  0
  -16.5393  -29.9087   23.6357 C   0  0  0  0  0  0
  -16.7274  -28.6469   23.0396 C   0  0  0  0  0  0
  -26.4497  -31.6643   25.0764 C   0  0  0  0  0  0
  -25.3705  -31.3732   26.1498 C   0  0  0  0  0  0
  -27.0407  -30.3119   24.6186 C   0  0  0  0  0  0
  -27.6063  -32.4428   25.7488 C   0  0  0  0  0  0
  -27.5581  -37.1766   24.8468 C   0  0  0  0  0  0
  -21.4214  -29.3083   22.3737 N   0  0  0  0  0  0
  -26.4252  -37.3814   23.9485 N   0  0  0  0  0  0
  -24.6914  -31.0656   22.0922 N   0  0  0  0  0  0
  -23.4269  -28.8141   23.2878 O   0  0  0  0  0  0
  -28.3033  -26.4393   20.2113 O   0  0  0  0  0  0
  -26.5633  -34.8951   22.4652 O   0  0  0  0  0  0
  -23.5461  -32.1385   23.7323 O   0  0  0  0  0  0
  -33.9679  -19.0128   21.1459 C   0  0  0  0  0  0
  -27.7045  -22.2326   18.9913 C   0  0  0  0  0  0
  -29.8102  -24.0097   21.8320 C   0  0  0  0  0  0
  -27.8586  -18.1570   20.5419 C   0  0  0  0  0  0
  -29.8725  -15.9008   20.9883 C   0  0  0  0  0  0
  -32.6006  -18.7476   20.4928 C   0  0  0  0  0  0
  -31.7347  -17.7068   21.2358 C   0  0  0  0  0  0
  -29.1981  -21.1819   20.8022 C   0  0  0  0  0  0
  -28.0011  -24.9876   20.2646 C   0  0  0  0  0  0
  -29.0065  -22.4394   19.8276 C   0  0  2  0  0  0
  -29.2028  -23.9510   20.3993 C   0  0  2  0  0  0
  -30.3610  -17.3732   20.5667 C   0  0  2  0  0  0
  -29.3158  -18.5687   20.8443 C   0  0  1  0  0  0
  -29.6060  -19.8784   20.1392 N   0  3  0  0  0  0
  -31.4735  -12.4705   19.1322 H   0  0  0  0  0  0
  -30.3575  -11.3711   19.8902 H   0  0  0  0  0  0
  -29.7553  -11.7153   17.4806 H   0  0  0  0  0  0
  -29.6457  -13.4404   17.7248 H   0  0  0  0  0  0
  -27.8551  -11.2710   18.8734 H   0  0  0  0  0  0
  -27.3669  -12.5475   17.7903 H   0  0  0  0  0  0
  -27.6622  -14.2353   19.4868 H   0  0  0  0  0  0
  -28.6976  -12.0787   21.4003 H   0  0  0  0  0  0
  -28.4510  -13.7493   21.8131 H   0  0  0  0  0  0
  -25.2775   -9.5722   22.4799 H   0  0  0  0  0  0
  -24.0033   -7.4659   22.7476 H   0  0  0  0  0  0
  -21.0886   -8.8795   19.8936 H   0  0  0  0  0  0
  -22.3752  -10.9708   19.6169 H   0  0  0  0  0  0
  -21.1945   -7.6135   23.9729 H   0  0  0  0  0  0
  -21.1487   -6.0535   25.9096 H   0  0  0  0  0  0
  -22.0591   -2.7637   23.2837 H   0  0  0  0  0  0
  -22.4063  -11.9831   22.4738 H   0  0  0  0  0  0
  -21.1132  -13.1253   22.2640 H   0  0  0  0  0  0
  -24.6687  -15.8493   20.5009 H   0  0  0  0  0  0
  -26.2859  -15.6226   20.0735 H   0  0  0  0  0  0
  -26.7247  -32.5461   23.1103 H   0  0  0  0  0  0
  -25.0290  -33.9783   25.0516 H   0  0  0  0  0  0
  -22.7123  -31.3047   21.3984 H   0  0  0  0  0  0
  -23.3812  -35.9529   23.3202 H   0  0  0  0  0  0
  -24.3591  -36.8988   22.2093 H   0  0  0  0  0  0
  -23.7172  -37.6395   23.6764 H   0  0  0  0  0  0
  -26.1100  -31.5542   20.6047 H   0  0  0  0  0  0
  -26.8422  -30.8295   22.0114 H   0  0  0  0  0  0
  -28.1017  -28.9509   21.2309 H   0  0  0  0  0  0
  -25.9380  -25.9815   18.9314 H   0  0  0  0  0  0
  -23.9728  -27.3608   18.9604 H   0  0  0  0  0  0
  -23.7551  -30.6152   19.4005 H   0  0  0  0  0  0
  -22.7564  -29.2726   19.8378 H   0  0  0  0  0  0
  -25.1241  -36.1891   25.0826 H   0  0  0  0  0  0
  -20.9971  -28.3212   24.1376 H   0  0  0  0  0  0
  -20.5748  -26.2249   23.3542 H   0  0  0  0  0  0
  -21.6658  -26.7412   22.1153 H   0  0  0  0  0  0
  -19.6940  -25.6252   21.1246 H   0  0  0  0  0  0
  -19.6715  -27.3153   20.6723 H   0  0  0  0  0  0
  -17.4196  -26.6691   21.3965 H   0  0  0  0  0  0
  -18.0274  -25.9948   22.8891 H   0  0  0  0  0  0
  -19.8007  -30.7203   24.2299 H   0  0  0  0  0  0
  -17.5077  -31.6278   24.5082 H   0  0  0  0  0  0
  -15.5416  -30.3004   23.7657 H   0  0  0  0  0  0
  -15.8629  -28.0777   22.7180 H   0  0  0  0  0  0
  -24.5930  -30.7037   25.7804 H   0  0  0  0  0  0
  -24.8865  -32.2882   26.4966 H   0  0  0  0  0  0
  -25.8039  -30.8908   27.0268 H   0  0  0  0  0  0
  -26.2989  -29.6810   24.1319 H   0  0  0  0  0  0
  -27.4323  -29.7458   25.4631 H   0  0  0  0  0  0
  -27.8683  -30.4489   23.9219 H   0  0  0  0  0  0
  -27.2761  -33.3887   26.1778 H   0  0  0  0  0  0
  -28.3975  -32.6739   25.0339 H   0  0  0  0  0  0
  -28.0562  -31.8721   26.5610 H   0  0  0  0  0  0
  -28.2489  -38.0167   24.7730 H   0  0  0  0  0  0
  -28.1187  -36.2751   24.6016 H   0  0  0  0  0  0
  -27.2334  -37.1040   25.8852 H   0  0  0  0  0  0
  -20.9410  -29.8917   21.7039 H   0  0  0  0  0  0
  -26.0100  -38.2845   24.1610 H   0  0  0  0  0  0
  -34.3831  -19.9548   20.7838 H   0  0  0  0  0  0
  -34.6883  -18.2285   20.9127 H   0  0  0  0  0  0
  -33.8951  -19.0944   22.2305 H   0  0  0  0  0  0
  -27.6739  -21.2621   18.4933 H   0  0  0  0  0  0
  -27.5969  -22.9613   18.1865 H   0  0  0  0  0  0
  -26.8057  -22.2914   19.6072 H   0  0  0  0  0  0
  -29.9813  -25.0350   22.1703 H   0  0  0  0  0  0
  -30.7921  -23.5312   21.8851 H   0  0  0  0  0  0
  -29.1657  -23.5343   22.5777 H   0  0  0  0  0  0
  -27.5084  -17.3999   21.2437 H   0  0  0  0  0  0
  -27.7557  -17.7559   19.5319 H   0  0  0  0  0  0
  -27.1663  -18.9934   20.6327 H   0  0  0  0  0  0
  -28.8710  -15.7746   20.5889 H   0  0  0  0  0  0
  -29.7607  -15.8415   22.0712 H   0  0  0  0  0  0
  -32.7518  -18.4322   19.4583 H   0  0  0  0  0  0
  -32.0984  -19.7102   20.4540 H   0  0  0  0  0  0
  -31.5662  -18.0393   22.2603 H   0  0  0  0  0  0
  -32.3371  -16.8061   21.3402 H   0  0  0  0  0  0
  -28.2833  -21.0241   21.3751 H   0  0  0  0  0  0
  -29.9669  -21.3933   21.5485 H   0  0  0  0  0  0
  -27.2913  -24.7990   21.0755 H   0  0  0  0  0  0
  -27.4818  -24.7445   19.3474 H   0  0  0  0  0  0
  -29.8178  -22.3420   19.1000 H   0  0  0  0  0  0
  -29.9686  -24.3930   19.7562 H   0  0  0  0  0  0
  -30.5182  -17.3208   19.4874 H   0  0  0  0  0  0
  -29.3586  -18.7714   21.9161 H   0  0  0  0  0  0
  -30.6045  -19.9238   20.0112 H   0  0  0  0  0  0
  -29.2017  -19.8403   19.2174 H   0  0  0  0  0  0
  1 25  1  0  0  0
  1 30  2  0  0  0
  1 75  1  0  0  0
  2  3  1  0  0  0
  2 25  1  0  0  0
  2 85  1  0  0  0
  2 86  1  0  0  0
  3  4  1  0  0  0
  3 87  1  0  0  0
  3 88  1  0  0  0
  4  5  1  0  0  0
  4 89  1  0  0  0
  4 90  1  0  0  0
  5  6  1  0  0  0
  5 26  1  0  0  0
  5 91  1  0  0  0
  6 25  1  0  0  0
  6 92  1  0  0  0
  6 93  1  0  0  0
  7  8  2  0  0  0
  7 26  1  0  0  0
  7 29  1  0  0  0
  8  9  1  0  0  0
  8 22  1  0  0  0
  9 10  1  0  0  0
  9 27  2  0  0  0
 10 11  2  0  0  0
 10 15  1  0  0  0
 11 12  1  0  0  0
 11 94  1  0  0  0
 12 13  2  0  0  0
 12 95  1  0  0  0
 13 14  1  0  0  0
 13 31  1  0  0  0
 14 15  2  0  0  0
 14 96  1  0  0  0
 15 97  1  0  0  0
 16 17  2  0  0  0
 16 21  1  0  0  0
 16 31  1  0  0  0
 17 18  1  0  0  0
 17 98  1  0  0  0
 18 19  2  0  0  0
 18 99  1  0  0  0
 19 20  1  0  0  0
 19 24  1  0  0  0
 20 21  2  0  0  0
 20100  1  0  0  0
 21 23  1  0  0  0
 22 28  1  0  0  0
 22 32  2  0  0  0
 26 27  1  0  0  0
 28101  1  0  0  0
 28102  1  0  0  0
 29103  1  0  0  0
 29104  1  0  0  0
 33 34  1  0  0  0
 33 66  1  0  0  0
 33 70  2  0  0  0
 34 36  1  0  0  0
 34 59  1  0  0  0
 34105  1  0  0  0
 35 44  2  0  0  0
 35 45  1  0  0  0
 35 68  1  0  0  0
 36 56  1  0  0  0
 36106  1  0  0  0
 37 39  1  0  0  0
 37 47  1  0  0  0
 37 66  1  0  0  0
 37107  1  0  0  0
 38 43  2  0  0  0
 38 46  1  0  0  0
 38 47  1  0  0  0
 39 64  1  0  0  0
 39 67  2  0  0  0
 40 52  1  0  0  0
 40 53  2  0  0  0
 40 58  1  0  0  0
 41108  1  0  0  0
 41109  1  0  0  0
 41110  1  0  0  0
 41 48  1  0  0  0
 42 43  1  0  0  0
 42 66  1  0  0  0
 42111  1  0  0  0
 42112  1  0  0  0
 43 44  1  0  0  0
 44113  1  0  0  0
 45 46  2  0  0  0
 45114  1  0  0  0
 46115  1  0  0  0
 47116  1  0  0  0
 47117  1  0  0  0
 48 56  1  0  0  0
 48 65  1  0  0  0
 48118  1  0  0  0
 49 50  1  0  0  0
 49 53  1  0  0  0
 49 64  1  0  0  0
 49119  1  0  0  0
 50 51  1  0  0  0
 50120  1  0  0  0
 50121  1  0  0  0
 51 52  1  0  0  0
 51122  1  0  0  0
 51123  1  0  0  0
 52124  1  0  0  0
 52125  1  0  0  0
 53 54  1  0  0  0
 54 55  2  0  0  0
 54126  1  0  0  0
 55 57  1  0  0  0
 55127  1  0  0  0
 56 69  2  0  0  0
 57 58  2  0  0  0
 57128  1  0  0  0
 58129  1  0  0  0
 59 60  1  0  0  0
 59 61  1  0  0  0
 59 62  1  0  0  0
 60130  1  0  0  0
 60131  1  0  0  0
 60132  1  0  0  0
 61133  1  0  0  0
 61134  1  0  0  0
 61135  1  0  0  0
 62136  1  0  0  0
 62137  1  0  0  0
 62138  1  0  0  0
 63 65  1  0  0  0
 63139  1  0  0  0
 63140  1  0  0  0
 63141  1  0  0  0
 64142  1  0  0  0
 65143  1  0  0  0
 68 79  1  0  0  0
 71 76  1  0  0  0
 71144  1  0  0  0
 71145  1  0  0  0
 71146  1  0  0  0
 72147  1  0  0  0
 72148  1  0  0  0
 72149  1  0  0  0
 72 80  1  0  0  0
 73150  1  0  0  0
 73151  1  0  0  0
 73152  1  0  0  0
 73 81  1  0  0  0
 74153  1  0  0  0
 74154  1  0  0  0
 74155  1  0  0  0
 74 83  1  0  0  0
 75156  1  0  0  0
 75157  1  0  0  0
 75 82  1  0  0  0
 76 77  1  0  0  0
 76158  1  0  0  0
 76159  1  0  0  0
 77 82  1  0  0  0
 77160  1  0  0  0
 77161  1  0  0  0
 78 80  1  0  0  0
 78 84  1  0  0  0
 78162  1  0  0  0
 78163  1  0  0  0
 79 81  1  0  0  0
 79164  1  0  0  0
 79165  1  0  0  0
 80 81  1  0  0  0
 80166  1  0  0  0
 81167  1  0  0  0
 82 83  1  0  0  0
 82168  1  0  0  0
 83 84  1  0  0  0
 83169  1  0  0  0
 84170  1  0  0  0
 84171  1  0  0  0
M  CHG  1  84   1
M  ISO  4   1 100  68 101  75 100  79 101
M  END
> <chiral flag>
0

> <version>
0

> <s_m_source_file>
/data/baiqing/PycharmProjects/Reinvent-master-3.2/result/LINK_invent/BTK/process_docking_weight1_custom_sum_contain_oxygen_bond_distance_aromatic_linkinvent_7_9_3/rearranged_h_0088.sdf

> <i_m_source_file_index>
62

> <r_mmod_Potential_Energy-OPLS-2005>
14.1160583496094

> <r_mmod_Stretch_Energy-OPLS-2005>
97.2400588989258

> <r_mmod_Bend_Energy-OPLS-2005>
146.946716308594

> <r_mmod_Torsional_Energy-OPLS-2005>
236.081298828125

> <r_mmod_Improper_Torsional_Energy-OPLS-2005>
3.31667160987854

> <r_mmod_Van_der_Waal_Energy-OPLS-2005>
131.30403137207

> <r_mmod_Electrostatic_Energy-OPLS-2005>
-220.85090637207

> <r_mmod_Solvation_Energy-OPLS-2005>
-429.635375976562

> <b_mmod_Minimization_Converged-OPLS-2005>
0

> <r_mmod_RMS_Derivative-OPLS-2005>
7.76449823379517

$$$$
63
                    3D
 Structure written by MMmdl.
168176  0  0  1  0            999 V2000
  -30.6130  -14.6402   20.4696 C   0  0  0  0  0  0
  -30.4402  -12.3861   19.4612 C   0  0  0  0  0  0
  -29.5111  -12.4967   18.2293 C   0  0  0  0  0  0
  -28.0323  -12.3437   18.6364 C   0  0  0  0  0  0
  -27.6560  -13.2178   19.8633 C   0  0  2  0  0  0
  -28.6970  -13.0765   20.9979 C   0  0  0  0  0  0
  -25.2584  -13.8181   20.5693 C   0  0  0  0  0  0
  -24.1844  -13.0436   20.9207 C   0  0  0  0  0  0
  -24.6420  -11.6920   20.8742 C   0  0  0  0  0  0
  -23.9086  -10.4297   21.0408 C   0  0  0  0  0  0
  -24.3630   -9.4209   21.9181 C   0  0  0  0  0  0
  -23.6307   -8.2246   22.0752 C   0  0  0  0  0  0
  -22.4289   -8.0276   21.3542 C   0  0  0  0  0  0
  -21.9925   -9.0256   20.4643 C   0  0  0  0  0  0
  -22.7259  -10.2136   20.3054 C   0  0  0  0  0  0
  -21.6837   -6.0755   22.5289 C   0  0  0  0  0  0
  -21.4013   -6.5659   23.8219 C   0  0  0  0  0  0
  -21.3664   -5.6805   24.9183 C   0  0  0  0  0  0
  -21.6029   -4.3065   24.7214 C   0  0  0  0  0  0
  -21.8828   -3.8167   23.4341 C   0  0  0  0  0  0
  -21.9208   -4.6994   22.3400 C   0  0  0  0  0  0
  -22.7864  -13.5233   21.1860 C   0  0  0  0  0  0
  -22.1662   -4.2191   21.0978 F   0  0  0  0  0  0
  -21.5634   -3.4535   25.7723 F   0  0  0  0  0  0
  -30.0172  -13.4067   20.4432 N   0  0  0  0  0  0
  -26.3016  -12.9368   20.3322 N   0  0  0  0  0  0
  -25.9344  -11.6522   20.5734 N   0  0  0  0  0  0
  -22.0506  -12.8192   22.0408 N   0  0  0  0  0  0
  -25.4288  -15.1892   20.4097 N   0  0  0  0  0  0
  -31.7573  -14.8104   20.0453 O   0  0  0  0  0  0
  -21.6638   -6.8887   21.4240 O   0  0  0  0  0  0
  -22.3542  -14.5545   20.6736 O   0  0  0  0  0  0
  -24.6210  -31.8572   23.1966 C   0  0  0  0  0  0
  -25.9079  -32.4754   23.8269 C   0  0  1  0  0  0
  -27.2359  -27.3256   20.1183 C   0  0  0  0  0  0
  -25.5858  -33.8540   24.2194 N   0  0  0  0  0  0
  -23.4155  -30.4746   21.5417 C   0  0  2  0  0  0
  -24.8609  -28.9168   20.1168 C   0  0  0  0  0  0
  -22.7476  -29.4591   22.4972 C   0  0  0  0  0  0
  -18.0273  -28.1338   22.8443 C   0  0  0  0  0  0
  -24.1515  -36.7293   23.2641 C   0  0  0  0  0  0
  -25.9490  -30.7915   21.3615 C   0  0  0  0  0  0
  -26.0255  -29.4124   20.7147 C   0  0  0  0  0  0
  -27.2102  -28.6267   20.7046 C   0  0  0  0  0  0
  -26.0480  -26.8648   19.5106 C   0  0  0  0  0  0
  -24.8713  -27.6469   19.5104 C   0  0  0  0  0  0
  -23.6273  -29.7967   20.1612 C   0  0  0  0  0  0
  -25.4138  -36.3050   24.0305 C   0  0  1  0  0  0
  -20.5876  -28.3652   23.1275 C   0  0  2  0  0  0
  -20.6786  -26.9385   22.5368 C   0  0  0  0  0  0
  -19.5761  -26.6352   21.5170 C   0  0  0  0  0  0
  -18.1944  -26.7893   22.1588 C   0  0  0  0  0  0
  -19.1529  -28.8822   23.2848 C   0  0  0  0  0  0
  -18.9478  -30.1439   23.8842 C   0  0  0  0  0  0
  -17.6475  -30.6556   24.0546 C   0  0  0  0  0  0
  -25.9053  -34.9423   23.5061 C   0  0  0  0  0  0
  -16.5368  -29.9046   23.6304 C   0  0  0  0  0  0
  -16.7280  -28.6473   23.0293 C   0  0  0  0  0  0
  -26.4470  -31.6579   25.0653 C   0  0  0  0  0  0
  -25.3677  -31.3732   26.1379 C   0  0  0  0  0  0
  -27.0299  -30.2991   24.6078 C   0  0  0  0  0  0
  -27.6014  -32.4339   25.7424 C   0  0  0  0  0  0
  -27.5603  -37.1806   24.8476 C   0  0  0  0  0  0
  -21.4193  -29.3020   22.3733 N   0  0  0  0  0  0
  -26.4316  -37.3739   23.9409 N   0  0  0  0  0  0
  -24.6818  -31.0592   22.0924 N   0  0  0  0  0  0
  -23.4230  -28.8155   23.3061 O   0  0  0  0  0  0
  -28.4107  -26.5672   20.1700 O   0  0  0  0  0  0
  -26.5652  -34.8895   22.4651 O   0  0  0  0  0  0
  -23.5375  -32.1365   23.7291 O   0  0  0  0  0  0
  -29.1996  -19.1104   21.3570 C   0  0  0  0  0  0
  -29.8170  -19.3091   18.9422 C   0  0  0  0  0  0
  -28.3806  -20.4246   21.0181 C   0  0  0  0  0  0
  -30.0338  -20.8325   19.2164 C   0  0  0  0  0  0
  -29.9454  -18.3848   20.1900 C   0  0  2  0  0  0
  -30.4271  -22.3959   22.0238 C   0  0  0  0  0  0
  -28.9775  -24.8264   22.2709 C   0  0  0  0  0  0
  -27.1001  -23.5553   21.2714 C   0  0  0  0  0  0
  -29.5490  -16.8805   19.8300 C   0  0  0  0  0  0
  -28.5210  -25.1294   19.8309 C   0  0  0  0  0  0
  -29.5526  -22.7596   20.7904 C   0  0  2  0  0  0
  -28.5435  -24.0332   21.0076 C   0  0  0  0  0  0
  -29.7966  -15.7077   20.7414 N   0  0  0  0  0  0
  -29.0412  -21.4654   20.1467 N   0  3  2  0  0  0
  -31.4797  -12.5183   19.1537 H   0  0  0  0  0  0
  -30.3828  -11.3890   19.9015 H   0  0  0  0  0  0
  -29.7732  -11.7352   17.4921 H   0  0  0  0  0  0
  -29.6619  -13.4593   17.7356 H   0  0  0  0  0  0
  -27.8612  -11.2907   18.8626 H   0  0  0  0  0  0
  -27.3846  -12.5815   17.7941 H   0  0  0  0  0  0
  -27.6706  -14.2521   19.5190 H   0  0  0  0  0  0
  -28.7014  -12.0612   21.3937 H   0  0  0  0  0  0
  -28.4451  -13.7240   21.8385 H   0  0  0  0  0  0
  -25.2774   -9.5686   22.4748 H   0  0  0  0  0  0
  -24.0038   -7.4626   22.7445 H   0  0  0  0  0  0
  -21.0874   -8.8774   19.8913 H   0  0  0  0  0  0
  -22.3732  -10.9679   19.6157 H   0  0  0  0  0  0
  -21.1985   -7.6163   23.9737 H   0  0  0  0  0  0
  -21.1469   -6.0524   25.9086 H   0  0  0  0  0  0
  -22.0603   -2.7633   23.2818 H   0  0  0  0  0  0
  -22.4139  -11.9851   22.4784 H   0  0  0  0  0  0
  -21.1101  -13.1178   22.2584 H   0  0  0  0  0  0
  -24.6604  -15.8425   20.5155 H   0  0  0  0  0  0
  -26.2765  -15.6252   20.0714 H   0  0  0  0  0  0
  -26.7161  -32.5434   23.1028 H   0  0  0  0  0  0
  -24.9928  -33.9649   25.0297 H   0  0  0  0  0  0
  -22.7052  -31.2918   21.3968 H   0  0  0  0  0  0
  -23.3724  -35.9683   23.3290 H   0  0  0  0  0  0
  -24.3604  -36.8932   22.2068 H   0  0  0  0  0  0
  -23.7326  -37.6510   23.6681 H   0  0  0  0  0  0
  -26.0619  -31.5489   20.5849 H   0  0  0  0  0  0
  -26.8383  -30.8529   21.9761 H   0  0  0  0  0  0
  -28.1108  -29.0014   21.1701 H   0  0  0  0  0  0
  -26.0001  -25.8922   19.0431 H   0  0  0  0  0  0
  -23.9720  -27.2607   19.0461 H   0  0  0  0  0  0
  -23.7436  -30.5704   19.4010 H   0  0  0  0  0  0
  -22.7486  -29.2224   19.8610 H   0  0  0  0  0  0
  -25.1317  -36.1874   25.0787 H   0  0  0  0  0  0
  -20.9926  -28.3220   24.1409 H   0  0  0  0  0  0
  -20.5730  -26.2243   23.3574 H   0  0  0  0  0  0
  -21.6649  -26.7432   22.1154 H   0  0  0  0  0  0
  -19.6948  -25.6260   21.1191 H   0  0  0  0  0  0
  -19.6703  -27.3168   20.6711 H   0  0  0  0  0  0
  -17.4215  -26.6571   21.4013 H   0  0  0  0  0  0
  -18.0411  -26.0045   22.9012 H   0  0  0  0  0  0
  -19.7975  -30.7237   24.2197 H   0  0  0  0  0  0
  -17.5036  -31.6230   24.5167 H   0  0  0  0  0  0
  -15.5363  -30.2928   23.7668 H   0  0  0  0  0  0
  -15.8679  -28.0817   22.6966 H   0  0  0  0  0  0
  -24.5886  -30.7014   25.7745 H   0  0  0  0  0  0
  -24.8809  -32.2910   26.4687 H   0  0  0  0  0  0
  -25.7978  -30.9033   27.0223 H   0  0  0  0  0  0
  -26.2841  -29.6767   24.1123 H   0  0  0  0  0  0
  -27.4033  -29.7226   25.4550 H   0  0  0  0  0  0
  -27.8682  -30.4256   23.9220 H   0  0  0  0  0  0
  -27.2594  -33.3665   26.1920 H   0  0  0  0  0  0
  -28.3852  -32.6869   25.0270 H   0  0  0  0  0  0
  -28.0634  -31.8518   26.5407 H   0  0  0  0  0  0
  -28.2587  -38.0143   24.7501 H   0  0  0  0  0  0
  -28.1109  -36.2635   24.6292 H   0  0  0  0  0  0
  -27.2300  -37.1466   25.8880 H   0  0  0  0  0  0
  -20.9412  -29.8694   21.6879 H   0  0  0  0  0  0
  -26.0159  -38.2791   24.1404 H   0  0  0  0  0  0
  -28.5261  -18.4028   21.8431 H   0  0  0  0  0  0
  -29.9387  -19.3627   22.1170 H   0  0  0  0  0  0
  -30.5492  -18.9927   18.1979 H   0  0  0  0  0  0
  -28.8431  -19.1706   18.4691 H   0  0  0  0  0  0
  -28.0034  -20.8703   21.9368 H   0  0  0  0  0  0
  -27.4847  -20.1230   20.4740 H   0  0  0  0  0  0
  -29.9932  -21.3785   18.2716 H   0  0  0  0  0  0
  -31.0466  -20.9744   19.5938 H   0  0  0  0  0  0
  -31.0052  -18.3629   20.4536 H   0  0  0  0  0  0
  -31.0447  -23.2304   22.3557 H   0  0  0  0  0  0
  -31.1356  -21.5993   21.8041 H   0  0  0  0  0  0
  -29.8321  -22.0676   22.8744 H   0  0  0  0  0  0
  -28.3421  -25.6962   22.4506 H   0  0  0  0  0  0
  -30.0019  -25.1975   22.1818 H   0  0  0  0  0  0
  -28.9100  -24.2335   23.1838 H   0  0  0  0  0  0
  -26.4308  -24.4021   21.4425 H   0  0  0  0  0  0
  -27.0456  -22.9324   22.1645 H   0  0  0  0  0  0
  -26.6906  -22.9844   20.4375 H   0  0  0  0  0  0
  -29.9976  -16.6319   18.8647 H   0  0  0  0  0  0
  -28.4746  -16.8677   19.6374 H   0  0  0  0  0  0
  -27.8355  -24.8307   19.0399 H   0  0  0  0  0  0
  -29.4940  -25.0882   19.3426 H   0  0  0  0  0  0
  -30.2832  -23.1427   20.0776 H   0  0  0  0  0  0
  -28.9845  -15.4434   21.2782 H   0  0  0  0  0  0
  -28.2977  -21.7749   19.5372 H   0  0  0  0  0  0
  1 25  1  0  0  0
  1 30  2  0  0  0
  1 83  1  0  0  0
  2  3  1  0  0  0
  2 25  1  0  0  0
  2 85  1  0  0  0
  2 86  1  0  0  0
  3  4  1  0  0  0
  3 87  1  0  0  0
  3 88  1  0  0  0
  4  5  1  0  0  0
  4 89  1  0  0  0
  4 90  1  0  0  0
  5  6  1  0  0  0
  5 26  1  0  0  0
  5 91  1  0  0  0
  6 25  1  0  0  0
  6 92  1  0  0  0
  6 93  1  0  0  0
  7  8  2  0  0  0
  7 26  1  0  0  0
  7 29  1  0  0  0
  8  9  1  0  0  0
  8 22  1  0  0  0
  9 10  1  0  0  0
  9 27  2  0  0  0
 10 11  2  0  0  0
 10 15  1  0  0  0
 11 12  1  0  0  0
 11 94  1  0  0  0
 12 13  2  0  0  0
 12 95  1  0  0  0
 13 14  1  0  0  0
 13 31  1  0  0  0
 14 15  2  0  0  0
 14 96  1  0  0  0
 15 97  1  0  0  0
 16 17  2  0  0  0
 16 21  1  0  0  0
 16 31  1  0  0  0
 17 18  1  0  0  0
 17 98  1  0  0  0
 18 19  2  0  0  0
 18 99  1  0  0  0
 19 20  1  0  0  0
 19 24  1  0  0  0
 20 21  2  0  0  0
 20100  1  0  0  0
 21 23  1  0  0  0
 22 28  1  0  0  0
 22 32  2  0  0  0
 26 27  1  0  0  0
 28101  1  0  0  0
 28102  1  0  0  0
 29103  1  0  0  0
 29104  1  0  0  0
 33 34  1  0  0  0
 33 66  1  0  0  0
 33 70  2  0  0  0
 34 36  1  0  0  0
 34 59  1  0  0  0
 34105  1  0  0  0
 35 44  2  0  0  0
 35 45  1  0  0  0
 35 68  1  0  0  0
 36 56  1  0  0  0
 36106  1  0  0  0
 37 39  1  0  0  0
 37 47  1  0  0  0
 37 66  1  0  0  0
 37107  1  0  0  0
 38 43  2  0  0  0
 38 46  1  0  0  0
 38 47  1  0  0  0
 39 64  1  0  0  0
 39 67  2  0  0  0
 40 52  1  0  0  0
 40 53  2  0  0  0
 40 58  1  0  0  0
 41108  1  0  0  0
 41109  1  0  0  0
 41110  1  0  0  0
 41 48  1  0  0  0
 42 43  1  0  0  0
 42 66  1  0  0  0
 42111  1  0  0  0
 42112  1  0  0  0
 43 44  1  0  0  0
 44113  1  0  0  0
 45 46  2  0  0  0
 45114  1  0  0  0
 46115  1  0  0  0
 47116  1  0  0  0
 47117  1  0  0  0
 48 56  1  0  0  0
 48 65  1  0  0  0
 48118  1  0  0  0
 49 50  1  0  0  0
 49 53  1  0  0  0
 49 64  1  0  0  0
 49119  1  0  0  0
 50 51  1  0  0  0
 50120  1  0  0  0
 50121  1  0  0  0
 51 52  1  0  0  0
 51122  1  0  0  0
 51123  1  0  0  0
 52124  1  0  0  0
 52125  1  0  0  0
 53 54  1  0  0  0
 54 55  2  0  0  0
 54126  1  0  0  0
 55 57  1  0  0  0
 55127  1  0  0  0
 56 69  2  0  0  0
 57 58  2  0  0  0
 57128  1  0  0  0
 58129  1  0  0  0
 59 60  1  0  0  0
 59 61  1  0  0  0
 59 62  1  0  0  0
 60130  1  0  0  0
 60131  1  0  0  0
 60132  1  0  0  0
 61133  1  0  0  0
 61134  1  0  0  0
 61135  1  0  0  0
 62136  1  0  0  0
 62137  1  0  0  0
 62138  1  0  0  0
 63 65  1  0  0  0
 63139  1  0  0  0
 63140  1  0  0  0
 63141  1  0  0  0
 64142  1  0  0  0
 65143  1  0  0  0
 68 80  1  0  0  0
 71 73  1  0  0  0
 71 75  1  0  0  0
 71144  1  0  0  0
 71145  1  0  0  0
 72 74  1  0  0  0
 72 75  1  0  0  0
 72146  1  0  0  0
 72147  1  0  0  0
 73148  1  0  0  0
 73149  1  0  0  0
 73 84  1  0  0  0
 74 84  1  0  0  0
 74150  1  0  0  0
 74151  1  0  0  0
 75 79  1  0  0  0
 75152  1  0  0  0
 76153  1  0  0  0
 76154  1  0  0  0
 76155  1  0  0  0
 76 81  1  0  0  0
 77156  1  0  0  0
 77157  1  0  0  0
 77158  1  0  0  0
 77 82  1  0  0  0
 78 82  1  0  0  0
 78159  1  0  0  0
 78160  1  0  0  0
 78161  1  0  0  0
 79 83  1  0  0  0
 79162  1  0  0  0
 79163  1  0  0  0
 80 82  1  0  0  0
 80164  1  0  0  0
 80165  1  0  0  0
 81 82  1  0  0  0
 81 84  1  0  0  0
 81166  1  0  0  0
 83167  1  0  0  0
 84168  1  0  0  0
M  CHG  1  84   1
M  ISO  4   1 100  68 101  80 101  83 100
M  END
> <chiral flag>
0

> <version>
0

> <s_m_source_file>
/data/baiqing/PycharmProjects/Reinvent-master-3.2/result/LINK_invent/BTK/process_docking_weight1_custom_sum_contain_oxygen_bond_distance_aromatic_linkinvent_7_9_3/rearranged_h_0088.sdf

> <i_m_source_file_index>
63

> <r_mmod_Potential_Energy-OPLS-2005>
119.566299438477

> <r_mmod_Stretch_Energy-OPLS-2005>
94.4382019042969

> <r_mmod_Bend_Energy-OPLS-2005>
194.222732543945

> <r_mmod_Torsional_Energy-OPLS-2005>
340.28857421875

> <r_mmod_Improper_Torsional_Energy-OPLS-2005>
8.99046039581299

> <r_mmod_Van_der_Waal_Energy-OPLS-2005>
135.937408447266

> <r_mmod_Electrostatic_Energy-OPLS-2005>
-259.205352783203

> <r_mmod_Solvation_Energy-OPLS-2005>
-440.250335693359

> <b_mmod_Minimization_Converged-OPLS-2005>
0

> <r_mmod_RMS_Derivative-OPLS-2005>
4.19786977767944

$$$$
64
                    3D
 Structure written by MMmdl.
157165  0  0  1  0            999 V2000
  -30.6191  -14.7397   20.4624 C   0  0  0  0  0  0
  -30.4291  -12.4445   19.4883 C   0  0  0  0  0  0
  -29.5139  -12.5121   18.2452 C   0  0  0  0  0  0
  -28.0380  -12.3379   18.6509 C   0  0  0  0  0  0
  -27.6440  -13.2346   19.8546 C   0  0  2  0  0  0
  -28.6853  -13.1657   20.9920 C   0  0  0  0  0  0
  -25.2521  -13.8206   20.5708 C   0  0  0  0  0  0
  -24.1806  -13.0445   20.9194 C   0  0  0  0  0  0
  -24.6400  -11.6924   20.8738 C   0  0  0  0  0  0
  -23.9077  -10.4298   21.0402 C   0  0  0  0  0  0
  -24.3626   -9.4212   21.9181 C   0  0  0  0  0  0
  -23.6299   -8.2248   22.0754 C   0  0  0  0  0  0
  -22.4280   -8.0286   21.3544 C   0  0  0  0  0  0
  -21.9918   -9.0259   20.4645 C   0  0  0  0  0  0
  -22.7248  -10.2137   20.3053 C   0  0  0  0  0  0
  -21.6856   -6.0739   22.5279 C   0  0  0  0  0  0
  -21.4016   -6.5642   23.8212 C   0  0  0  0  0  0
  -21.3659   -5.6794   24.9174 C   0  0  0  0  0  0
  -21.6044   -4.3057   24.7224 C   0  0  0  0  0  0
  -21.8818   -3.8149   23.4345 C   0  0  0  0  0  0
  -21.9193   -4.6967   22.3402 C   0  0  0  0  0  0
  -22.7826  -13.5223   21.1861 C   0  0  0  0  0  0
  -22.1661   -4.2153   21.0979 F   0  0  0  0  0  0
  -21.5628   -3.4540   25.7737 F   0  0  0  0  0  0
  -29.9944  -13.5096   20.4255 N   0  0  0  0  0  0
  -26.2952  -12.9419   20.3300 N   0  0  0  0  0  0
  -25.9334  -11.6556   20.5750 N   0  0  0  0  0  0
  -22.0480  -12.8207   22.0418 N   0  0  0  0  0  0
  -25.4226  -15.1932   20.4164 N   0  0  0  0  0  0
  -31.7916  -14.8041   20.0803 O   0  0  0  0  0  0
  -21.6643   -6.8883   21.4242 O   0  0  0  0  0  0
  -22.3505  -14.5529   20.6713 O   0  0  0  0  0  0
  -24.6317  -31.8551   23.1992 C   0  0  0  0  0  0
  -25.9143  -32.4751   23.8334 C   0  0  1  0  0  0
  -27.2141  -27.2535   20.1270 C   0  0  0  0  0  0
  -25.5938  -33.8555   24.2254 N   0  0  0  0  0  0
  -23.4280  -30.4792   21.5426 C   0  0  2  0  0  0
  -24.8748  -28.9297   20.1065 C   0  0  0  0  0  0
  -22.7503  -29.4600   22.4906 C   0  0  0  0  0  0
  -18.0291  -28.1387   22.8484 C   0  0  0  0  0  0
  -24.1489  -36.7280   23.2639 C   0  0  0  0  0  0
  -25.9754  -30.7641   21.3830 C   0  0  0  0  0  0
  -26.0457  -29.3872   20.7234 C   0  0  0  0  0  0
  -27.2156  -28.5597   20.7272 C   0  0  0  0  0  0
  -26.0260  -26.8813   19.4558 C   0  0  0  0  0  0
  -24.8711  -27.6855   19.4613 C   0  0  0  0  0  0
  -23.6461  -29.8166   20.1572 C   0  0  0  0  0  0
  -25.4117  -36.3066   24.0325 C   0  0  1  0  0  0
  -20.5896  -28.3697   23.1267 C   0  0  2  0  0  0
  -20.6779  -26.9414   22.5407 C   0  0  0  0  0  0
  -19.5754  -26.6383   21.5210 C   0  0  0  0  0  0
  -18.1934  -26.7929   22.1623 C   0  0  0  0  0  0
  -19.1546  -28.8860   23.2870 C   0  0  0  0  0  0
  -18.9468  -30.1460   23.8890 C   0  0  0  0  0  0
  -17.6467  -30.6588   24.0561 C   0  0  0  0  0  0
  -25.9060  -34.9437   23.5092 C   0  0  0  0  0  0
  -16.5358  -29.9085   23.6334 C   0  0  0  0  0  0
  -16.7277  -28.6503   23.0355 C   0  0  0  0  0  0
  -26.4507  -31.6581   25.0728 C   0  0  0  0  0  0
  -25.3724  -31.3736   26.1443 C   0  0  0  0  0  0
  -27.0360  -30.2994   24.6230 C   0  0  0  0  0  0
  -27.6056  -32.4329   25.7504 C   0  0  0  0  0  0
  -27.5579  -37.1795   24.8465 C   0  0  0  0  0  0
  -21.4210  -29.3044   22.3654 N   0  0  0  0  0  0
  -26.4289  -37.3767   23.9411 N   0  0  0  0  0  0
  -24.6973  -31.0510   22.0974 N   0  0  0  0  0  0
  -23.4203  -28.8139   23.3005 O   0  0  0  0  0  0
  -28.2998  -26.3454   20.2187 O   0  0  0  0  0  0
  -26.5631  -34.8914   22.4660 O   0  0  0  0  0  0
  -23.5466  -32.1379   23.7283 O   0  0  0  0  0  0
  -30.8775  -17.1703   21.5293 C   0  0  0  0  0  0
  -29.3410  -16.9821   19.6311 C   0  0  0  0  0  0
  -30.3064  -18.6116   21.8315 C   0  0  0  0  0  0
  -28.7596  -18.4340   19.9486 C   0  0  0  0  0  0
  -29.9076  -16.1449   20.8422 C   0  0  1  0  0  0
  -29.7593  -19.4393   20.6164 C   0  0  1  0  0  0
  -29.2599  -20.9291   21.0656 C   0  0  0  0  0  0
  -28.8875  -22.1609   20.0818 C   0  0  0  0  0  0
  -28.9347  -23.6953   20.6335 C   0  0  0  0  0  0
  -28.1104  -24.8815   19.8998 C   0  0  0  0  0  0
  -31.4735  -12.5470   19.1905 H   0  0  0  0  0  0
  -30.3558  -11.4666   19.9667 H   0  0  0  0  0  0
  -29.7970  -11.7436   17.5248 H   0  0  0  0  0  0
  -29.6472  -13.4706   17.7411 H   0  0  0  0  0  0
  -27.8909  -11.2884   18.9088 H   0  0  0  0  0  0
  -27.3844  -12.5359   17.8006 H   0  0  0  0  0  0
  -27.6400  -14.2571   19.4796 H   0  0  0  0  0  0
  -28.7130  -12.1667   21.4292 H   0  0  0  0  0  0
  -28.4158  -13.8401   21.8045 H   0  0  0  0  0  0
  -25.2771   -9.5688   22.4756 H   0  0  0  0  0  0
  -24.0007   -7.4641   22.7474 H   0  0  0  0  0  0
  -21.0849   -8.8778   19.8951 H   0  0  0  0  0  0
  -22.3707  -10.9675   19.6162 H   0  0  0  0  0  0
  -21.2008   -7.6150   23.9717 H   0  0  0  0  0  0
  -21.1482   -6.0524   25.9077 H   0  0  0  0  0  0
  -22.0598   -2.7612   23.2844 H   0  0  0  0  0  0
  -22.4105  -11.9867   22.4797 H   0  0  0  0  0  0
  -21.1098  -13.1225   22.2633 H   0  0  0  0  0  0
  -24.6601  -15.8505   20.5383 H   0  0  0  0  0  0
  -26.2849  -15.6366   20.1264 H   0  0  0  0  0  0
  -26.7206  -32.5398   23.1071 H   0  0  0  0  0  0
  -25.0083  -33.9694   25.0397 H   0  0  0  0  0  0
  -22.7247  -31.3019   21.3978 H   0  0  0  0  0  0
  -23.3755  -35.9606   23.3294 H   0  0  0  0  0  0
  -24.3578  -36.8912   22.2054 H   0  0  0  0  0  0
  -23.7238  -37.6476   23.6671 H   0  0  0  0  0  0
  -26.1183  -31.5250   20.6144 H   0  0  0  0  0  0
  -26.8517  -30.8105   22.0179 H   0  0  0  0  0  0
  -28.1071  -28.8995   21.2354 H   0  0  0  0  0  0
  -25.9508  -25.9451   18.9247 H   0  0  0  0  0  0
  -23.9790  -27.3359   18.9600 H   0  0  0  0  0  0
  -23.7700  -30.5947   19.4032 H   0  0  0  0  0  0
  -22.7641  -29.2508   19.8514 H   0  0  0  0  0  0
  -25.1296  -36.1909   25.0816 H   0  0  0  0  0  0
  -20.9989  -28.3276   24.1387 H   0  0  0  0  0  0
  -20.5680  -26.2306   23.3612 H   0  0  0  0  0  0
  -21.6646  -26.7437   22.1199 H   0  0  0  0  0  0
  -19.6917  -25.6292   21.1245 H   0  0  0  0  0  0
  -19.6694  -27.3188   20.6736 H   0  0  0  0  0  0
  -17.4203  -26.6677   21.4026 H   0  0  0  0  0  0
  -18.0334  -26.0071   22.9020 H   0  0  0  0  0  0
  -19.7944  -30.7276   24.2258 H   0  0  0  0  0  0
  -17.5021  -31.6270   24.5159 H   0  0  0  0  0  0
  -15.5358  -30.2984   23.7665 H   0  0  0  0  0  0
  -15.8677  -28.0820   22.7077 H   0  0  0  0  0  0
  -24.5910  -30.7072   25.7772 H   0  0  0  0  0  0
  -24.8902  -32.2905   26.4841 H   0  0  0  0  0  0
  -25.8033  -30.8936   27.0238 H   0  0  0  0  0  0
  -26.2951  -29.6735   24.1243 H   0  0  0  0  0  0
  -27.4022  -29.7265   25.4760 H   0  0  0  0  0  0
  -27.8837  -30.4263   23.9493 H   0  0  0  0  0  0
  -27.2662  -33.3642   26.2050 H   0  0  0  0  0  0
  -28.3883  -32.6867   25.0342 H   0  0  0  0  0  0
  -28.0704  -31.8474   26.5447 H   0  0  0  0  0  0
  -28.2587  -38.0100   24.7518 H   0  0  0  0  0  0
  -28.1084  -36.2631   24.6283 H   0  0  0  0  0  0
  -27.2298  -37.1429   25.8868 H   0  0  0  0  0  0
  -20.9394  -29.8771   21.6864 H   0  0  0  0  0  0
  -26.0166  -38.2839   24.1417 H   0  0  0  0  0  0
  -31.2371  -16.7347   22.4625 H   0  0  0  0  0  0
  -31.7658  -17.2913   20.9074 H   0  0  0  0  0  0
  -30.1307  -17.0868   18.8856 H   0  0  0  0  0  0
  -28.5631  -16.3996   19.1382 H   0  0  0  0  0  0
  -31.0907  -19.1898   22.3220 H   0  0  0  0  0  0
  -29.5133  -18.5155   22.5747 H   0  0  0  0  0  0
  -27.8847  -18.3253   20.5911 H   0  0  0  0  0  0
  -28.3879  -18.8750   19.0227 H   0  0  0  0  0  0
  -29.0901  -15.9412   21.5322 H   0  0  0  0  0  0
  -30.5880  -19.5841   19.9216 H   0  0  0  0  0  0
  -30.0637  -21.3167   21.6926 H   0  0  0  0  0  0
  -28.4248  -20.8024   21.7556 H   0  0  0  0  0  0
  -27.8862  -21.9714   19.6934 H   0  0  0  0  0  0
  -29.5400  -22.1081   19.2097 H   0  0  0  0  0  0
  -29.9826  -23.9930   20.6754 H   0  0  0  0  0  0
  -28.6063  -23.6830   21.6732 H   0  0  0  0  0  0
  -27.0722  -24.6078   20.0812 H   0  0  0  0  0  0
  -28.2617  -24.7811   18.8245 H   0  0  0  0  0  0
  1 25  1  0  0  0
  1 30  2  0  0  0
  1 75  1  0  0  0
  2  3  1  0  0  0
  2 25  1  0  0  0
  2 81  1  0  0  0
  2 82  1  0  0  0
  3  4  1  0  0  0
  3 83  1  0  0  0
  3 84  1  0  0  0
  4  5  1  0  0  0
  4 85  1  0  0  0
  4 86  1  0  0  0
  5  6  1  0  0  0
  5 26  1  0  0  0
  5 87  1  0  0  0
  6 25  1  0  0  0
  6 88  1  0  0  0
  6 89  1  0  0  0
  7  8  2  0  0  0
  7 26  1  0  0  0
  7 29  1  0  0  0
  8  9  1  0  0  0
  8 22  1  0  0  0
  9 10  1  0  0  0
  9 27  2  0  0  0
 10 11  2  0  0  0
 10 15  1  0  0  0
 11 12  1  0  0  0
 11 90  1  0  0  0
 12 13  2  0  0  0
 12 91  1  0  0  0
 13 14  1  0  0  0
 13 31  1  0  0  0
 14 15  2  0  0  0
 14 92  1  0  0  0
 15 93  1  0  0  0
 16 17  2  0  0  0
 16 21  1  0  0  0
 16 31  1  0  0  0
 17 18  1  0  0  0
 17 94  1  0  0  0
 18 19  2  0  0  0
 18 95  1  0  0  0
 19 20  1  0  0  0
 19 24  1  0  0  0
 20 21  2  0  0  0
 20 96  1  0  0  0
 21 23  1  0  0  0
 22 28  1  0  0  0
 22 32  2  0  0  0
 26 27  1  0  0  0
 28 97  1  0  0  0
 28 98  1  0  0  0
 29 99  1  0  0  0
 29100  1  0  0  0
 33 34  1  0  0  0
 33 66  1  0  0  0
 33 70  2  0  0  0
 34 36  1  0  0  0
 34 59  1  0  0  0
 34101  1  0  0  0
 35 44  2  0  0  0
 35 45  1  0  0  0
 35 68  1  0  0  0
 36 56  1  0  0  0
 36102  1  0  0  0
 37 39  1  0  0  0
 37 47  1  0  0  0
 37 66  1  0  0  0
 37103  1  0  0  0
 38 43  2  0  0  0
 38 46  1  0  0  0
 38 47  1  0  0  0
 39 64  1  0  0  0
 39 67  2  0  0  0
 40 52  1  0  0  0
 40 53  2  0  0  0
 40 58  1  0  0  0
 41104  1  0  0  0
 41105  1  0  0  0
 41106  1  0  0  0
 41 48  1  0  0  0
 42 43  1  0  0  0
 42 66  1  0  0  0
 42107  1  0  0  0
 42108  1  0  0  0
 43 44  1  0  0  0
 44109  1  0  0  0
 45 46  2  0  0  0
 45110  1  0  0  0
 46111  1  0  0  0
 47112  1  0  0  0
 47113  1  0  0  0
 48 56  1  0  0  0
 48 65  1  0  0  0
 48114  1  0  0  0
 49 50  1  0  0  0
 49 53  1  0  0  0
 49 64  1  0  0  0
 49115  1  0  0  0
 50 51  1  0  0  0
 50116  1  0  0  0
 50117  1  0  0  0
 51 52  1  0  0  0
 51118  1  0  0  0
 51119  1  0  0  0
 52120  1  0  0  0
 52121  1  0  0  0
 53 54  1  0  0  0
 54 55  2  0  0  0
 54122  1  0  0  0
 55 57  1  0  0  0
 55123  1  0  0  0
 56 69  2  0  0  0
 57 58  2  0  0  0
 57124  1  0  0  0
 58125  1  0  0  0
 59 60  1  0  0  0
 59 61  1  0  0  0
 59 62  1  0  0  0
 60126  1  0  0  0
 60127  1  0  0  0
 60128  1  0  0  0
 61129  1  0  0  0
 61130  1  0  0  0
 61131  1  0  0  0
 62132  1  0  0  0
 62133  1  0  0  0
 62134  1  0  0  0
 63 65  1  0  0  0
 63135  1  0  0  0
 63136  1  0  0  0
 63137  1  0  0  0
 64138  1  0  0  0
 65139  1  0  0  0
 68 80  1  0  0  0
 71 73  1  0  0  0
 71 75  1  0  0  0
 71140  1  0  0  0
 71141  1  0  0  0
 72 74  1  0  0  0
 72 75  1  0  0  0
 72142  1  0  0  0
 72143  1  0  0  0
 73 76  1  0  0  0
 73144  1  0  0  0
 73145  1  0  0  0
 74 76  1  0  0  0
 74146  1  0  0  0
 74147  1  0  0  0
 75148  1  0  0  0
 76 77  1  0  0  0
 76149  1  0  0  0
 77 78  1  0  0  0
 77150  1  0  0  0
 77151  1  0  0  0
 78 79  1  0  0  0
 78152  1  0  0  0
 78153  1  0  0  0
 79 80  1  0  0  0
 79154  1  0  0  0
 79155  1  0  0  0
 80156  1  0  0  0
 80157  1  0  0  0
M  ISO  4   1 100  68 101  75 100  80 101
M  END
> <chiral flag>
0

> <version>
0

> <s_m_source_file>
/data/baiqing/PycharmProjects/Reinvent-master-3.2/result/LINK_invent/BTK/process_docking_weight1_custom_sum_contain_oxygen_bond_distance_aromatic_linkinvent_7_9_3/rearranged_h_0088.sdf

> <i_m_source_file_index>
64

> <r_mmod_Potential_Energy-OPLS-2005>
268.515014648438

> <r_mmod_Stretch_Energy-OPLS-2005>
129.087219238281

> <r_mmod_Bend_Energy-OPLS-2005>
187.132827758789

> <r_mmod_Torsional_Energy-OPLS-2005>
209.428726196289

> <r_mmod_Improper_Torsional_Energy-OPLS-2005>
2.67698907852173

> <r_mmod_Van_der_Waal_Energy-OPLS-2005>
122.20386505127

> <r_mmod_Electrostatic_Energy-OPLS-2005>
-286.673278808594

> <r_mmod_Solvation_Energy-OPLS-2005>
-181.651718139648

> <b_mmod_Minimization_Converged-OPLS-2005>
0

> <r_mmod_RMS_Derivative-OPLS-2005>
0.222591564059258

$$$$
66
                    3D
 Structure written by MMmdl.
180189  0  0  1  0            999 V2000
  -30.7241  -14.4550   20.5632 C   0  0  0  0  0  0
  -30.4112  -12.2945   19.4280 C   0  0  0  0  0  0
  -29.4917  -12.4974   18.2068 C   0  0  0  0  0  0
  -28.0119  -12.3659   18.6168 C   0  0  0  0  0  0
  -27.6573  -13.2109   19.8693 C   0  0  2  0  0  0
  -28.6957  -13.0040   20.9918 C   0  0  0  0  0  0
  -25.2571  -13.8177   20.5684 C   0  0  0  0  0  0
  -24.1822  -13.0446   20.9171 C   0  0  0  0  0  0
  -24.6383  -11.6915   20.8738 C   0  0  0  0  0  0
  -23.9056  -10.4292   21.0405 C   0  0  0  0  0  0
  -24.3607   -9.4207   21.9188 C   0  0  0  0  0  0
  -23.6281   -8.2245   22.0755 C   0  0  0  0  0  0
  -22.4266   -8.0279   21.3540 C   0  0  0  0  0  0
  -21.9901   -9.0255   20.4646 C   0  0  0  0  0  0
  -22.7227  -10.2138   20.3055 C   0  0  0  0  0  0
  -21.6852   -6.0739   22.5275 C   0  0  0  0  0  0
  -21.4016   -6.5644   23.8210 C   0  0  0  0  0  0
  -21.3653   -5.6797   24.9170 C   0  0  0  0  0  0
  -21.6045   -4.3057   24.7226 C   0  0  0  0  0  0
  -21.8816   -3.8151   23.4342 C   0  0  0  0  0  0
  -21.9191   -4.6965   22.3399 C   0  0  0  0  0  0
  -22.7847  -13.5238   21.1846 C   0  0  0  0  0  0
  -22.1658   -4.2146   21.0977 F   0  0  0  0  0  0
  -21.5627   -3.4542   25.7738 F   0  0  0  0  0  0
  -30.0262  -13.2945   20.4361 N   0  0  0  0  0  0
  -26.3001  -12.9357   20.3348 N   0  0  0  0  0  0
  -25.9308  -11.6509   20.5756 N   0  0  0  0  0  0
  -22.0494  -12.8227   22.0403 N   0  0  0  0  0  0
  -25.4323  -15.1893   20.4124 N   0  0  0  0  0  0
  -31.8711  -14.5809   20.1185 O   0  0  0  0  0  0
  -21.6636   -6.8880   21.4234 O   0  0  0  0  0  0
  -22.3526  -14.5542   20.6696 O   0  0  0  0  0  0
  -24.6134  -31.8675   23.2143 C   0  0  0  0  0  0
  -25.9037  -32.4817   23.8415 C   0  0  1  0  0  0
  -27.2307  -27.4488   20.0951 C   0  0  0  0  0  0
  -25.5886  -33.8620   24.2314 N   0  0  0  0  0  0
  -23.4008  -30.4944   21.5530 C   0  0  2  0  0  0
  -24.8454  -28.9565   20.1209 C   0  0  0  0  0  0
  -22.7389  -29.4693   22.5001 C   0  0  0  0  0  0
  -18.0267  -28.1391   22.8515 C   0  0  0  0  0  0
  -24.1499  -36.7318   23.2643 C   0  0  0  0  0  0
  -25.9279  -30.8391   21.3631 C   0  0  0  0  0  0
  -26.0060  -29.4746   20.7091 C   0  0  0  0  0  0
  -27.2066  -28.7296   20.6885 C   0  0  0  0  0  0
  -26.0546  -26.9345   19.5113 C   0  0  0  0  0  0
  -24.8615  -27.6828   19.5243 C   0  0  0  0  0  0
  -23.6076  -29.8233   20.1688 C   0  0  0  0  0  0
  -25.4116  -36.3104   24.0327 C   0  0  1  0  0  0
  -20.5859  -28.3685   23.1324 C   0  0  2  0  0  0
  -20.6765  -26.9422   22.5435 C   0  0  0  0  0  0
  -19.5755  -26.6410   21.5225 C   0  0  0  0  0  0
  -18.1922  -26.7944   22.1625 C   0  0  0  0  0  0
  -19.1520  -28.8854   23.2918 C   0  0  0  0  0  0
  -18.9456  -30.1458   23.8933 C   0  0  0  0  0  0
  -17.6467  -30.6612   24.0588 C   0  0  0  0  0  0
  -25.9048  -34.9470   23.5116 C   0  0  0  0  0  0
  -16.5354  -29.9126   23.6342 C   0  0  0  0  0  0
  -16.7254  -28.6531   23.0375 C   0  0  0  0  0  0
  -26.4477  -31.6589   25.0738 C   0  0  0  0  0  0
  -25.3750  -31.3648   26.1486 C   0  0  0  0  0  0
  -27.0327  -30.3041   24.6118 C   0  0  0  0  0  0
  -27.6068  -32.4297   25.7486 C   0  0  0  0  0  0
  -27.5570  -37.1798   24.8464 C   0  0  0  0  0  0
  -21.4123  -29.3042   22.3711 N   0  0  0  0  0  0
  -26.4297  -37.3796   23.9405 N   0  0  0  0  0  0
  -24.6658  -31.0802   22.1026 N   0  0  0  0  0  0
  -23.4149  -28.8226   23.3038 O   0  0  0  0  0  0
  -28.3961  -26.7221   20.0629 O   0  0  0  0  0  0
  -26.5640  -34.8915   22.4697 O   0  0  0  0  0  0
  -23.5334  -32.1424   23.7560 O   0  0  0  0  0  0
  -28.6815  -21.9608   20.8414 C   0  0  0  0  0  0
  -29.4462  -23.1405   20.6909 C   0  0  0  0  0  0
  -30.7168  -23.1975   21.3258 C   0  0  0  0  0  0
  -29.1763  -20.9076   21.6387 C   0  0  0  0  0  0
  -31.1325  -22.0879   22.1046 C   0  0  0  0  0  0
  -29.1829  -17.8612   20.2076 C   0  0  0  0  0  0
  -28.8922  -17.0891   22.5377 C   0  0  0  0  0  0
  -30.1958  -16.7257   19.9758 C   0  0  0  0  0  0
  -29.9105  -15.9523   22.2891 C   0  0  0  0  0  0
  -29.2170  -18.3257   21.6690 C   0  0  0  0  0  0
  -31.6269  -24.4163   21.1889 C   0  0  0  0  0  0
  -26.7899  -20.9174   23.5269 C   0  0  0  0  0  0
  -33.3003  -20.7917   22.3392 C   0  0  0  0  0  0
  -32.3287  -22.0334   24.3448 C   0  0  0  0  0  0
  -28.8995  -24.3077   19.8636 C   0  0  0  0  0  0
  -27.6983  -19.6953   23.3076 C   0  0  0  0  0  0
  -28.3565  -25.4586   20.7393 C   0  0  0  0  0  0
  -28.3654  -19.6263   21.9116 C   0  0  1  0  0  0
  -32.4883  -22.0084   22.8157 C   0  0  0  0  0  0
  -30.3566  -21.0032   22.2797 N   0  0  0  0  0  0
  -30.0007  -15.5632   20.8712 N   0  0  0  0  0  0
  -31.4584  -12.3725   19.1302 H   0  0  0  0  0  0
  -30.2941  -11.2893   19.8353 H   0  0  0  0  0  0
  -29.7301  -11.7679   17.4313 H   0  0  0  0  0  0
  -29.6671  -13.4810   17.7673 H   0  0  0  0  0  0
  -27.8194  -11.3114   18.8177 H   0  0  0  0  0  0
  -27.3632  -12.6390   17.7835 H   0  0  0  0  0  0
  -27.6987  -14.2581   19.5676 H   0  0  0  0  0  0
  -28.6676  -11.9761   21.3572 H   0  0  0  0  0  0
  -28.4493  -13.6289   21.8482 H   0  0  0  0  0  0
  -25.2752   -9.5690   22.4763 H   0  0  0  0  0  0
  -23.9990   -7.4641   22.7478 H   0  0  0  0  0  0
  -21.0834   -8.8771   19.8955 H   0  0  0  0  0  0
  -22.3676  -10.9678   19.6167 H   0  0  0  0  0  0
  -21.2015   -7.6150   23.9707 H   0  0  0  0  0  0
  -21.1479   -6.0531   25.9073 H   0  0  0  0  0  0
  -22.0603   -2.7605   23.2845 H   0  0  0  0  0  0
  -22.4110  -11.9881   22.4776 H   0  0  0  0  0  0
  -21.1120  -13.1251   22.2628 H   0  0  0  0  0  0
  -24.6755  -15.8534   20.5356 H   0  0  0  0  0  0
  -26.3020  -15.6243   20.1312 H   0  0  0  0  0  0
  -26.7107  -32.5555   23.1179 H   0  0  0  0  0  0
  -24.9936  -33.9780   25.0387 H   0  0  0  0  0  0
  -22.6942  -31.3147   21.4127 H   0  0  0  0  0  0
  -23.3757  -35.9654   23.3332 H   0  0  0  0  0  0
  -24.3569  -36.8945   22.2052 H   0  0  0  0  0  0
  -23.7276  -37.6526   23.6684 H   0  0  0  0  0  0
  -26.0377  -31.6070   20.5968 H   0  0  0  0  0  0
  -26.8153  -30.8904   21.9828 H   0  0  0  0  0  0
  -28.1089  -29.1257   21.1335 H   0  0  0  0  0  0
  -26.0621  -25.9563   19.0523 H   0  0  0  0  0  0
  -23.9639  -27.2718   19.0830 H   0  0  0  0  0  0
  -23.7154  -30.5950   19.4051 H   0  0  0  0  0  0
  -22.7316  -29.2416   19.8779 H   0  0  0  0  0  0
  -25.1290  -36.1960   25.0820 H   0  0  0  0  0  0
  -20.9951  -28.3276   24.1446 H   0  0  0  0  0  0
  -20.5704  -26.2291   23.3619 H   0  0  0  0  0  0
  -21.6632  -26.7504   22.1215 H   0  0  0  0  0  0
  -19.6947  -25.6338   21.1230 H   0  0  0  0  0  0
  -19.6710  -27.3245   20.6777 H   0  0  0  0  0  0
  -17.4198  -26.6716   21.4020 H   0  0  0  0  0  0
  -18.0322  -26.0056   22.8993 H   0  0  0  0  0  0
  -19.7938  -30.7259   24.2316 H   0  0  0  0  0  0
  -17.5042  -31.6302   24.5179 H   0  0  0  0  0  0
  -15.5368  -30.3061   23.7663 H   0  0  0  0  0  0
  -15.8630  -28.0876   22.7093 H   0  0  0  0  0  0
  -24.5984  -30.6923   25.7816 H   0  0  0  0  0  0
  -24.8849  -32.2766   26.4912 H   0  0  0  0  0  0
  -25.8100  -30.8853   27.0267 H   0  0  0  0  0  0
  -26.2863  -29.6770   24.1224 H   0  0  0  0  0  0
  -27.4168  -29.7305   25.4568 H   0  0  0  0  0  0
  -27.8669  -30.4378   23.9221 H   0  0  0  0  0  0
  -27.2720  -33.3618   26.2053 H   0  0  0  0  0  0
  -28.3866  -32.6809   25.0279 H   0  0  0  0  0  0
  -28.0754  -31.8425   26.5403 H   0  0  0  0  0  0
  -28.2579  -38.0102   24.7490 H   0  0  0  0  0  0
  -28.1068  -36.2617   24.6315 H   0  0  0  0  0  0
  -27.2269  -37.1467   25.8865 H   0  0  0  0  0  0
  -20.9302  -29.8671   21.6846 H   0  0  0  0  0  0
  -26.0181  -38.2866   24.1448 H   0  0  0  0  0  0
  -27.7093  -21.8750   20.3756 H   0  0  0  0  0  0
  -28.1787  -17.5285   19.9413 H   0  0  0  0  0  0
  -29.4187  -18.6947   19.5446 H   0  0  0  0  0  0
  -28.9344  -17.3434   23.5966 H   0  0  0  0  0  0
  -27.8770  -16.7423   22.3392 H   0  0  0  0  0  0
  -31.2063  -17.1179   20.1106 H   0  0  0  0  0  0
  -30.1307  -16.4061   18.9332 H   0  0  0  0  0  0
  -29.6633  -15.0969   22.9186 H   0  0  0  0  0  0
  -30.8985  -16.2780   22.6201 H   0  0  0  0  0  0
  -30.2535  -18.5596   21.9109 H   0  0  0  0  0  0
  -31.1822  -25.2548   20.6580 H   0  0  0  0  0  0
  -32.5372  -24.1457   20.6544 H   0  0  0  0  0  0
  -31.9073  -24.7915   22.1737 H   0  0  0  0  0  0
  -26.2664  -20.8414   24.4798 H   0  0  0  0  0  0
  -26.0372  -20.9960   22.7417 H   0  0  0  0  0  0
  -27.3585  -21.8480   23.5419 H   0  0  0  0  0  0
  -33.4292  -20.8165   21.2566 H   0  0  0  0  0  0
  -32.8032  -19.8547   22.5936 H   0  0  0  0  0  0
  -34.2912  -20.7738   22.7916 H   0  0  0  0  0  0
  -31.7907  -22.9277   24.6615 H   0  0  0  0  0  0
  -33.2979  -22.0303   24.8454 H   0  0  0  0  0  0
  -31.7680  -21.1666   24.6965 H   0  0  0  0  0  0
  -28.1100  -23.9573   19.1979 H   0  0  0  0  0  0
  -29.6853  -24.6653   19.1984 H   0  0  0  0  0  0
  -27.0905  -18.8046   23.4631 H   0  0  0  0  0  0
  -28.4717  -19.6853   24.0763 H   0  0  0  0  0  0
  -28.9858  -25.5741   21.6218 H   0  0  0  0  0  0
  -27.3684  -25.1970   21.1227 H   0  0  0  0  0  0
  -27.5471  -19.6074   21.1905 H   0  0  0  0  0  0
  -33.0918  -22.8751   22.5560 H   0  0  0  0  0  0
  1 25  1  0  0  0
  1 30  2  0  0  0
  1 91  1  0  0  0
  2  3  1  0  0  0
  2 25  1  0  0  0
  2 92  1  0  0  0
  2 93  1  0  0  0
  3  4  1  0  0  0
  3 94  1  0  0  0
  3 95  1  0  0  0
  4  5  1  0  0  0
  4 96  1  0  0  0
  4 97  1  0  0  0
  5  6  1  0  0  0
  5 26  1  0  0  0
  5 98  1  0  0  0
  6 25  1  0  0  0
  6 99  1  0  0  0
  6100  1  0  0  0
  7  8  2  0  0  0
  7 26  1  0  0  0
  7 29  1  0  0  0
  8  9  1  0  0  0
  8 22  1  0  0  0
  9 10  1  0  0  0
  9 27  2  0  0  0
 10 11  2  0  0  0
 10 15  1  0  0  0
 11 12  1  0  0  0
 11101  1  0  0  0
 12 13  2  0  0  0
 12102  1  0  0  0
 13 14  1  0  0  0
 13 31  1  0  0  0
 14 15  2  0  0  0
 14103  1  0  0  0
 15104  1  0  0  0
 16 17  2  0  0  0
 16 21  1  0  0  0
 16 31  1  0  0  0
 17 18  1  0  0  0
 17105  1  0  0  0
 18 19  2  0  0  0
 18106  1  0  0  0
 19 20  1  0  0  0
 19 24  1  0  0  0
 20 21  2  0  0  0
 20107  1  0  0  0
 21 23  1  0  0  0
 22 28  1  0  0  0
 22 32  2  0  0  0
 26 27  1  0  0  0
 28108  1  0  0  0
 28109  1  0  0  0
 29110  1  0  0  0
 29111  1  0  0  0
 33 34  1  0  0  0
 33 66  1  0  0  0
 33 70  2  0  0  0
 34 36  1  0  0  0
 34 59  1  0  0  0
 34112  1  0  0  0
 35 44  2  0  0  0
 35 45  1  0  0  0
 35 68  1  0  0  0
 36 56  1  0  0  0
 36113  1  0  0  0
 37 39  1  0  0  0
 37 47  1  0  0  0
 37 66  1  0  0  0
 37114  1  0  0  0
 38 43  2  0  0  0
 38 46  1  0  0  0
 38 47  1  0  0  0
 39 64  1  0  0  0
 39 67  2  0  0  0
 40 52  1  0  0  0
 40 53  2  0  0  0
 40 58  1  0  0  0
 41115  1  0  0  0
 41116  1  0  0  0
 41117  1  0  0  0
 41 48  1  0  0  0
 42 43  1  0  0  0
 42 66  1  0  0  0
 42118  1  0  0  0
 42119  1  0  0  0
 43 44  1  0  0  0
 44120  1  0  0  0
 45 46  2  0  0  0
 45121  1  0  0  0
 46122  1  0  0  0
 47123  1  0  0  0
 47124  1  0  0  0
 48 56  1  0  0  0
 48 65  1  0  0  0
 48125  1  0  0  0
 49 50  1  0  0  0
 49 53  1  0  0  0
 49 64  1  0  0  0
 49126  1  0  0  0
 50 51  1  0  0  0
 50127  1  0  0  0
 50128  1  0  0  0
 51 52  1  0  0  0
 51129  1  0  0  0
 51130  1  0  0  0
 52131  1  0  0  0
 52132  1  0  0  0
 53 54  1  0  0  0
 54 55  2  0  0  0
 54133  1  0  0  0
 55 57  1  0  0  0
 55134  1  0  0  0
 56 69  2  0  0  0
 57 58  2  0  0  0
 57135  1  0  0  0
 58136  1  0  0  0
 59 60  1  0  0  0
 59 61  1  0  0  0
 59 62  1  0  0  0
 60137  1  0  0  0
 60138  1  0  0  0
 60139  1  0  0  0
 61140  1  0  0  0
 61141  1  0  0  0
 61142  1  0  0  0
 62143  1  0  0  0
 62144  1  0  0  0
 62145  1  0  0  0
 63 65  1  0  0  0
 63146  1  0  0  0
 63147  1  0  0  0
 63148  1  0  0  0
 64149  1  0  0  0
 65150  1  0  0  0
 68 87  1  0  0  0
 71 72  2  0  0  0
 71 74  1  0  0  0
 71151  1  0  0  0
 72 73  1  0  0  0
 72 85  1  0  0  0
 73 75  2  0  0  0
 73 81  1  0  0  0
 74 88  1  0  0  0
 74 90  2  0  0  0
 75 89  1  0  0  0
 75 90  1  0  0  0
 76 78  1  0  0  0
 76152  1  0  0  0
 76153  1  0  0  0
 76 80  1  0  0  0
 77 79  1  0  0  0
 77 80  1  0  0  0
 77154  1  0  0  0
 77155  1  0  0  0
 78 91  1  0  0  0
 78156  1  0  0  0
 78157  1  0  0  0
 79 91  1  0  0  0
 79158  1  0  0  0
 79159  1  0  0  0
 80 88  1  0  0  0
 80160  1  0  0  0
 81161  1  0  0  0
 81162  1  0  0  0
 81163  1  0  0  0
 82 86  1  0  0  0
 82164  1  0  0  0
 82165  1  0  0  0
 82166  1  0  0  0
 83167  1  0  0  0
 83168  1  0  0  0
 83169  1  0  0  0
 83 89  1  0  0  0
 84 89  1  0  0  0
 84170  1  0  0  0
 84171  1  0  0  0
 84172  1  0  0  0
 85 87  1  0  0  0
 85173  1  0  0  0
 85174  1  0  0  0
 86175  1  0  0  0
 86176  1  0  0  0
 86 88  1  0  0  0
 87177  1  0  0  0
 87178  1  0  0  0
 88179  1  0  0  0
 89180  1  0  0  0
M  ISO  4   1 100  68 101  87 101  91 100
M  END
> <chiral flag>
0

> <version>
0

> <s_m_source_file>
/data/baiqing/PycharmProjects/Reinvent-master-3.2/result/LINK_invent/BTK/process_docking_weight1_custom_sum_contain_oxygen_bond_distance_aromatic_linkinvent_7_9_3/rearranged_h_0088.sdf

> <i_m_source_file_index>
65

> <r_mmod_Potential_Energy-OPLS-2005>
63.0124969482422

> <r_mmod_Stretch_Energy-OPLS-2005>
42.1314697265625

> <r_mmod_Bend_Energy-OPLS-2005>
111.953094482422

> <r_mmod_Torsional_Energy-OPLS-2005>
326.039947509766

> <r_mmod_Improper_Torsional_Energy-OPLS-2005>
12.8815898895264

> <r_mmod_Van_der_Waal_Energy-OPLS-2005>
164.533996582031

> <r_mmod_Electrostatic_Energy-OPLS-2005>
-418.980224609375

> <r_mmod_Solvation_Energy-OPLS-2005>
-188.173782348633

> <b_mmod_Minimization_Converged-OPLS-2005>
0

> <r_mmod_RMS_Derivative-OPLS-2005>
1.88201785087585

$$$$
67
                    3D
 Structure written by MMmdl.
180188  0  0  1  0            999 V2000
  -30.6717  -14.5225   20.4935 C   0  0  0  0  0  0
  -30.4152  -12.3025   19.4608 C   0  0  0  0  0  0
  -29.5064  -12.4774   18.2258 C   0  0  0  0  0  0
  -28.0210  -12.3554   18.6247 C   0  0  0  0  0  0
  -27.6526  -13.2136   19.8668 C   0  0  2  0  0  0
  -28.6936  -13.0515   20.9989 C   0  0  0  0  0  0
  -25.2540  -13.8198   20.5721 C   0  0  0  0  0  0
  -24.1802  -13.0451   20.9219 C   0  0  0  0  0  0
  -24.6381  -11.6931   20.8771 C   0  0  0  0  0  0
  -23.9048  -10.4306   21.0405 C   0  0  0  0  0  0
  -24.3613   -9.4225   21.9173 C   0  0  0  0  0  0
  -23.6304   -8.2255   22.0736 C   0  0  0  0  0  0
  -22.4280   -8.0293   21.3541 C   0  0  0  0  0  0
  -21.9904   -9.0250   20.4639 C   0  0  0  0  0  0
  -22.7211  -10.2139   20.3050 C   0  0  0  0  0  0
  -21.6849   -6.0766   22.5288 C   0  0  0  0  0  0
  -21.4010   -6.5665   23.8225 C   0  0  0  0  0  0
  -21.3660   -5.6806   24.9185 C   0  0  0  0  0  0
  -21.6043   -4.3076   24.7231 C   0  0  0  0  0  0
  -21.8816   -3.8176   23.4345 C   0  0  0  0  0  0
  -21.9188   -4.6993   22.3403 C   0  0  0  0  0  0
  -22.7831  -13.5236   21.1910 C   0  0  0  0  0  0
  -22.1648   -4.2190   21.0975 F   0  0  0  0  0  0
  -21.5638   -3.4533   25.7732 F   0  0  0  0  0  0
  -30.0183  -13.3305   20.4323 N   0  0  0  0  0  0
  -26.2973  -12.9366   20.3353 N   0  0  0  0  0  0
  -25.9308  -11.6536   20.5800 N   0  0  0  0  0  0
  -22.0498  -12.8180   22.0466 N   0  0  0  0  0  0
  -25.4239  -15.1920   20.4184 N   0  0  0  0  0  0
  -31.8606  -14.6426   20.1792 O   0  0  0  0  0  0
  -21.6649   -6.8896   21.4248 O   0  0  0  0  0  0
  -22.3479  -14.5522   20.6765 O   0  0  0  0  0  0
  -24.6167  -31.8663   23.2088 C   0  0  0  0  0  0
  -25.9053  -32.4813   23.8385 C   0  0  1  0  0  0
  -27.2250  -27.4176   20.0996 C   0  0  0  0  0  0
  -25.5905  -33.8614   24.2314 N   0  0  0  0  0  0
  -23.4056  -30.4892   21.5513 C   0  0  2  0  0  0
  -24.8509  -28.9557   20.1126 C   0  0  0  0  0  0
  -22.7423  -29.4638   22.4991 C   0  0  0  0  0  0
  -18.0274  -28.1374   22.8494 C   0  0  0  0  0  0
  -24.1494  -36.7318   23.2635 C   0  0  0  0  0  0
  -25.9362  -30.8272   21.3636 C   0  0  0  0  0  0
  -26.0137  -29.4610   20.7095 C   0  0  0  0  0  0
  -27.2084  -28.7009   20.6966 C   0  0  0  0  0  0
  -26.0487  -26.9327   19.4914 C   0  0  0  0  0  0
  -24.8639  -27.6913   19.4991 C   0  0  0  0  0  0
  -23.6138  -29.8248   20.1647 C   0  0  0  0  0  0
  -25.4111  -36.3107   24.0334 C   0  0  1  0  0  0
  -20.5864  -28.3652   23.1326 C   0  0  2  0  0  0
  -20.6768  -26.9394   22.5416 C   0  0  0  0  0  0
  -19.5745  -26.6389   21.5212 C   0  0  0  0  0  0
  -18.1922  -26.7923   22.1623 C   0  0  0  0  0  0
  -19.1523  -28.8832   23.2907 C   0  0  0  0  0  0
  -18.9443  -30.1440   23.8915 C   0  0  0  0  0  0
  -17.6444  -30.6578   24.0564 C   0  0  0  0  0  0
  -25.9038  -34.9472   23.5119 C   0  0  0  0  0  0
  -16.5337  -29.9078   23.6326 C   0  0  0  0  0  0
  -16.7263  -28.6497   23.0344 C   0  0  0  0  0  0
  -26.4479  -31.6595   25.0717 C   0  0  0  0  0  0
  -25.3743  -31.3696   26.1460 C   0  0  0  0  0  0
  -27.0302  -30.3036   24.6092 C   0  0  0  0  0  0
  -27.6058  -32.4310   25.7475 C   0  0  0  0  0  0
  -27.5583  -37.1809   24.8460 C   0  0  0  0  0  0
  -21.4147  -29.3018   22.3738 N   0  0  0  0  0  0
  -26.4296  -37.3787   23.9405 N   0  0  0  0  0  0
  -24.6715  -31.0747   22.1000 N   0  0  0  0  0  0
  -23.4194  -28.8179   23.3033 O   0  0  0  0  0  0
  -28.3598  -26.6332   20.0991 O   0  0  0  0  0  0
  -26.5600  -34.8920   22.4683 O   0  0  0  0  0  0
  -23.5356  -32.1424   23.7473 O   0  0  0  0  0  0
  -28.7265  -19.9517   20.1827 C   0  0  0  0  0  0
  -29.6693  -20.9192   19.9253 C   0  0  0  0  0  0
  -30.8068  -20.4520   20.6530 C   0  0  0  0  0  0
  -29.2358  -21.6798   17.5828 C   0  0  0  0  0  0
  -35.3045  -20.6780   20.9931 C   0  0  0  0  0  0
  -35.2112  -19.1155   19.0539 C   0  0  0  0  0  0
  -34.0427  -18.4985   21.1764 C   0  0  0  0  0  0
  -29.7782  -16.3124   19.1509 C   0  0  0  0  0  0
  -32.1969  -21.0269   20.7135 C   0  0  0  0  0  0
  -33.1372  -20.3574   19.6825 C   0  0  0  0  0  0
  -29.1989  -24.2802   20.4749 C   0  0  0  0  0  0
  -28.6037  -23.2509   19.4834 C   0  0  0  0  0  0
  -28.7249  -17.7138   21.4698 C   0  0  0  0  0  0
  -29.6929  -16.4873   21.6268 C   0  0  0  0  0  0
  -28.2343  -25.4267   20.8799 C   0  0  0  0  0  0
  -29.5855  -22.1393   19.0087 C   0  0  1  0  0  0
  -34.4095  -19.6716   20.2431 C   0  0  0  0  0  0
  -30.5729  -19.3086   21.2839 N   0  0  0  0  0  0
  -29.3138  -18.9584   20.9513 N   0  0  0  0  0  0
  -29.8574  -15.6115   20.4421 N   0  0  0  0  0  0
  -31.4688  -12.3737   19.1859 H   0  0  0  0  0  0
  -30.2850  -11.3081   19.8941 H   0  0  0  0  0  0
  -29.7589  -11.7351   17.4672 H   0  0  0  0  0  0
  -29.6852  -13.4528   17.7703 H   0  0  0  0  0  0
  -27.8204  -11.3020   18.8287 H   0  0  0  0  0  0
  -27.3894  -12.6312   17.7798 H   0  0  0  0  0  0
  -27.6734  -14.2537   19.5407 H   0  0  0  0  0  0
  -28.6695  -12.0436   21.4141 H   0  0  0  0  0  0
  -28.4713  -13.7254   21.8281 H   0  0  0  0  0  0
  -25.2762   -9.5732   22.4742 H   0  0  0  0  0  0
  -24.0051   -7.4642   22.7426 H   0  0  0  0  0  0
  -21.0856   -8.8731   19.8917 H   0  0  0  0  0  0
  -22.3649  -10.9677   19.6168 H   0  0  0  0  0  0
  -21.1978   -7.6167   23.9725 H   0  0  0  0  0  0
  -21.1492   -6.0550   25.9085 H   0  0  0  0  0  0
  -22.0592   -2.7645   23.2823 H   0  0  0  0  0  0
  -22.4139  -11.9823   22.4808 H   0  0  0  0  0  0
  -21.1120  -13.1170   22.2739 H   0  0  0  0  0  0
  -24.6585  -15.8481   20.5332 H   0  0  0  0  0  0
  -26.2794  -15.6299   20.1040 H   0  0  0  0  0  0
  -26.7124  -32.5513   23.1147 H   0  0  0  0  0  0
  -25.0064  -33.9777   25.0463 H   0  0  0  0  0  0
  -22.6949  -31.3063   21.4137 H   0  0  0  0  0  0
  -23.3749  -35.9658   23.3301 H   0  0  0  0  0  0
  -24.3589  -36.8931   22.2048 H   0  0  0  0  0  0
  -23.7253  -37.6528   23.6647 H   0  0  0  0  0  0
  -26.0476  -31.5936   20.5953 H   0  0  0  0  0  0
  -26.8253  -30.8813   21.9808 H   0  0  0  0  0  0
  -28.1063  -29.0826   21.1618 H   0  0  0  0  0  0
  -26.0463  -25.9608   19.0191 H   0  0  0  0  0  0
  -23.9708  -27.2986   19.0332 H   0  0  0  0  0  0
  -23.7228  -30.6021   19.4076 H   0  0  0  0  0  0
  -22.7374  -29.2465   19.8661 H   0  0  0  0  0  0
  -25.1290  -36.1975   25.0826 H   0  0  0  0  0  0
  -20.9954  -28.3207   24.1447 H   0  0  0  0  0  0
  -20.5686  -26.2249   23.3591 H   0  0  0  0  0  0
  -21.6633  -26.7449   22.1192 H   0  0  0  0  0  0
  -19.6904  -25.6307   21.1222 H   0  0  0  0  0  0
  -19.6688  -27.3219   20.6758 H   0  0  0  0  0  0
  -17.4197  -26.6680   21.4021 H   0  0  0  0  0  0
  -18.0319  -26.0059   22.9010 H   0  0  0  0  0  0
  -19.7913  -30.7257   24.2296 H   0  0  0  0  0  0
  -17.4988  -31.6260   24.5159 H   0  0  0  0  0  0
  -15.5334  -30.2978   23.7635 H   0  0  0  0  0  0
  -15.8665  -28.0821   22.7042 H   0  0  0  0  0  0
  -24.5919  -30.7047   25.7783 H   0  0  0  0  0  0
  -24.8934  -32.2849   26.4918 H   0  0  0  0  0  0
  -25.8093  -30.8849   27.0209 H   0  0  0  0  0  0
  -26.2836  -29.6797   24.1164 H   0  0  0  0  0  0
  -27.4089  -29.7270   25.4541 H   0  0  0  0  0  0
  -27.8665  -30.4347   23.9222 H   0  0  0  0  0  0
  -27.2686  -33.3601   26.2078 H   0  0  0  0  0  0
  -28.3852  -32.6884   25.0293 H   0  0  0  0  0  0
  -28.0744  -31.8420   26.5367 H   0  0  0  0  0  0
  -28.2602  -38.0106   24.7513 H   0  0  0  0  0  0
  -28.1084  -36.2641   24.6286 H   0  0  0  0  0  0
  -27.2303  -37.1454   25.8863 H   0  0  0  0  0  0
  -20.9313  -29.8739   21.6958 H   0  0  0  0  0  0
  -26.0193  -38.2871   24.1396 H   0  0  0  0  0  0
  -27.7017  -19.8668   19.8480 H   0  0  0  0  0  0
  -29.9412  -20.9270   17.2265 H   0  0  0  0  0  0
  -29.2709  -22.5114   16.8782 H   0  0  0  0  0  0
  -28.2350  -21.2505   17.5341 H   0  0  0  0  0  0
  -36.2325  -20.2070   21.3234 H   0  0  0  0  0  0
  -34.8223  -21.0807   21.8823 H   0  0  0  0  0  0
  -35.5804  -21.5224   20.3583 H   0  0  0  0  0  0
  -36.1148  -18.6017   19.3839 H   0  0  0  0  0  0
  -35.5219  -19.9122   18.3772 H   0  0  0  0  0  0
  -34.6273  -18.4048   18.4665 H   0  0  0  0  0  0
  -34.9302  -17.9813   21.5415 H   0  0  0  0  0  0
  -33.4255  -17.7607   20.6608 H   0  0  0  0  0  0
  -33.4846  -18.8259   22.0540 H   0  0  0  0  0  0
  -28.7441  -16.5643   18.9140 H   0  0  0  0  0  0
  -30.1498  -15.7062   18.3228 H   0  0  0  0  0  0
  -30.3678  -17.2293   19.1624 H   0  0  0  0  0  0
  -32.5832  -20.9300   21.7265 H   0  0  0  0  0  0
  -32.1688  -22.1009   20.5281 H   0  0  0  0  0  0
  -33.4294  -21.1119   18.9510 H   0  0  0  0  0  0
  -32.5693  -19.6237   19.1044 H   0  0  0  0  0  0
  -30.1271  -24.7001   20.0875 H   0  0  0  0  0  0
  -29.4751  -23.7351   21.3779 H   0  0  0  0  0  0
  -28.2758  -23.8221   18.6131 H   0  0  0  0  0  0
  -27.6988  -22.7983   19.8920 H   0  0  0  0  0  0
  -28.3139  -17.9582   22.4503 H   0  0  0  0  0  0
  -27.8623  -17.4467   20.8582 H   0  0  0  0  0  0
  -30.6709  -16.8056   21.9892 H   0  0  0  0  0  0
  -29.2876  -15.8621   22.4227 H   0  0  0  0  0  0
  -28.4480  -25.7089   21.9113 H   0  0  0  0  0  0
  -27.2145  -25.0402   20.8974 H   0  0  0  0  0  0
  -30.5719  -22.5988   18.9233 H   0  0  0  0  0  0
  1 25  1  0  0  0
  1 30  2  0  0  0
  1 90  1  0  0  0
  2  3  1  0  0  0
  2 25  1  0  0  0
  2 91  1  0  0  0
  2 92  1  0  0  0
  3  4  1  0  0  0
  3 93  1  0  0  0
  3 94  1  0  0  0
  4  5  1  0  0  0
  4 95  1  0  0  0
  4 96  1  0  0  0
  5  6  1  0  0  0
  5 26  1  0  0  0
  5 97  1  0  0  0
  6 25  1  0  0  0
  6 98  1  0  0  0
  6 99  1  0  0  0
  7  8  2  0  0  0
  7 26  1  0  0  0
  7 29  1  0  0  0
  8  9  1  0  0  0
  8 22  1  0  0  0
  9 10  1  0  0  0
  9 27  2  0  0  0
 10 11  2  0  0  0
 10 15  1  0  0  0
 11 12  1  0  0  0
 11100  1  0  0  0
 12 13  2  0  0  0
 12101  1  0  0  0
 13 14  1  0  0  0
 13 31  1  0  0  0
 14 15  2  0  0  0
 14102  1  0  0  0
 15103  1  0  0  0
 16 17  2  0  0  0
 16 21  1  0  0  0
 16 31  1  0  0  0
 17 18  1  0  0  0
 17104  1  0  0  0
 18 19  2  0  0  0
 18105  1  0  0  0
 19 20  1  0  0  0
 19 24  1  0  0  0
 20 21  2  0  0  0
 20106  1  0  0  0
 21 23  1  0  0  0
 22 28  1  0  0  0
 22 32  2  0  0  0
 26 27  1  0  0  0
 28107  1  0  0  0
 28108  1  0  0  0
 29109  1  0  0  0
 29110  1  0  0  0
 33 34  1  0  0  0
 33 66  1  0  0  0
 33 70  2  0  0  0
 34 36  1  0  0  0
 34 59  1  0  0  0
 34111  1  0  0  0
 35 44  2  0  0  0
 35 45  1  0  0  0
 35 68  1  0  0  0
 36 56  1  0  0  0
 36112  1  0  0  0
 37 39  1  0  0  0
 37 47  1  0  0  0
 37 66  1  0  0  0
 37113  1  0  0  0
 38 43  2  0  0  0
 38 46  1  0  0  0
 38 47  1  0  0  0
 39 64  1  0  0  0
 39 67  2  0  0  0
 40 52  1  0  0  0
 40 53  2  0  0  0
 40 58  1  0  0  0
 41114  1  0  0  0
 41115  1  0  0  0
 41116  1  0  0  0
 41 48  1  0  0  0
 42 43  1  0  0  0
 42 66  1  0  0  0
 42117  1  0  0  0
 42118  1  0  0  0
 43 44  1  0  0  0
 44119  1  0  0  0
 45 46  2  0  0  0
 45120  1  0  0  0
 46121  1  0  0  0
 47122  1  0  0  0
 47123  1  0  0  0
 48 56  1  0  0  0
 48 65  1  0  0  0
 48124  1  0  0  0
 49 50  1  0  0  0
 49 53  1  0  0  0
 49 64  1  0  0  0
 49125  1  0  0  0
 50 51  1  0  0  0
 50126  1  0  0  0
 50127  1  0  0  0
 51 52  1  0  0  0
 51128  1  0  0  0
 51129  1  0  0  0
 52130  1  0  0  0
 52131  1  0  0  0
 53 54  1  0  0  0
 54 55  2  0  0  0
 54132  1  0  0  0
 55 57  1  0  0  0
 55133  1  0  0  0
 56 69  2  0  0  0
 57 58  2  0  0  0
 57134  1  0  0  0
 58135  1  0  0  0
 59 60  1  0  0  0
 59 61  1  0  0  0
 59 62  1  0  0  0
 60136  1  0  0  0
 60137  1  0  0  0
 60138  1  0  0  0
 61139  1  0  0  0
 61140  1  0  0  0
 61141  1  0  0  0
 62142  1  0  0  0
 62143  1  0  0  0
 62144  1  0  0  0
 63 65  1  0  0  0
 63145  1  0  0  0
 63146  1  0  0  0
 63147  1  0  0  0
 64148  1  0  0  0
 65149  1  0  0  0
 68 85  1  0  0  0
 71 72  2  0  0  0
 71 89  1  0  0  0
 71150  1  0  0  0
 72 73  1  0  0  0
 72 86  1  0  0  0
 73 79  1  0  0  0
 73 88  2  0  0  0
 74151  1  0  0  0
 74152  1  0  0  0
 74153  1  0  0  0
 74 86  1  0  0  0
 75154  1  0  0  0
 75155  1  0  0  0
 75156  1  0  0  0
 75 87  1  0  0  0
 76 87  1  0  0  0
 76157  1  0  0  0
 76158  1  0  0  0
 76159  1  0  0  0
 77 87  1  0  0  0
 77160  1  0  0  0
 77161  1  0  0  0
 77162  1  0  0  0
 78 90  1  0  0  0
 78163  1  0  0  0
 78164  1  0  0  0
 78165  1  0  0  0
 79 80  1  0  0  0
 79166  1  0  0  0
 79167  1  0  0  0
 80 87  1  0  0  0
 80168  1  0  0  0
 80169  1  0  0  0
 81 82  1  0  0  0
 81 85  1  0  0  0
 81170  1  0  0  0
 81171  1  0  0  0
 82 86  1  0  0  0
 82172  1  0  0  0
 82173  1  0  0  0
 83 84  1  0  0  0
 83 89  1  0  0  0
 83174  1  0  0  0
 83175  1  0  0  0
 84 90  1  0  0  0
 84176  1  0  0  0
 84177  1  0  0  0
 85178  1  0  0  0
 85179  1  0  0  0
 86180  1  0  0  0
 88 89  1  0  0  0
M  ISO  4   1 100  68 101  85 101  90 100
M  END
> <chiral flag>
0

> <version>
0

> <s_m_source_file>
/data/baiqing/PycharmProjects/Reinvent-master-3.2/result/LINK_invent/BTK/process_docking_weight1_custom_sum_contain_oxygen_bond_distance_aromatic_linkinvent_7_9_3/rearranged_h_0088.sdf

> <i_m_source_file_index>
66

> <r_mmod_Potential_Energy-OPLS-2005>
134.424453735352

> <r_mmod_Stretch_Energy-OPLS-2005>
42.3305015563965

> <r_mmod_Bend_Energy-OPLS-2005>
111.804176330566

> <r_mmod_Torsional_Energy-OPLS-2005>
358.628479003906

> <r_mmod_Improper_Torsional_Energy-OPLS-2005>
17.4230270385742

> <r_mmod_Van_der_Waal_Energy-OPLS-2005>
114.281326293945

> <r_mmod_Electrostatic_Energy-OPLS-2005>
-339.799621582031

> <r_mmod_Solvation_Energy-OPLS-2005>
-192.943008422852

> <b_mmod_Minimization_Converged-OPLS-2005>
0

> <r_mmod_RMS_Derivative-OPLS-2005>
2.72632193565369

$$$$
68
                    3D
 Structure written by MMmdl.
166174  0  0  1  0            999 V2000
  -30.7708  -14.4981   20.4814 C   0  0  0  0  0  0
  -30.4004  -12.3035   19.4402 C   0  0  0  0  0  0
  -29.4869  -12.4828   18.2151 C   0  0  0  0  0  0
  -28.0150  -12.3243   18.6428 C   0  0  0  0  0  0
  -27.6573  -13.2012   19.8691 C   0  0  2  0  0  0
  -28.7123  -13.0695   20.9998 C   0  0  0  0  0  0
  -25.2599  -13.8151   20.5745 C   0  0  0  0  0  0
  -24.1975  -13.0421   20.9240 C   0  0  0  0  0  0
  -24.6503  -11.6844   20.8810 C   0  0  0  0  0  0
  -23.9141  -10.4259   21.0419 C   0  0  0  0  0  0
  -24.3653   -9.4169   21.9204 C   0  0  0  0  0  0
  -23.6322   -8.2230   22.0767 C   0  0  0  0  0  0
  -22.4300   -8.0289   21.3567 C   0  0  0  0  0  0
  -21.9942   -9.0267   20.4673 C   0  0  0  0  0  0
  -22.7288  -10.2134   20.3085 C   0  0  0  0  0  0
  -21.6841   -6.0764   22.5282 C   0  0  0  0  0  0
  -21.4018   -6.5674   23.8217 C   0  0  0  0  0  0
  -21.3672   -5.6829   24.9168 C   0  0  0  0  0  0
  -21.6025   -4.3086   24.7201 C   0  0  0  0  0  0
  -21.8811   -3.8193   23.4320 C   0  0  0  0  0  0
  -21.9198   -4.7006   22.3384 C   0  0  0  0  0  0
  -22.8002  -13.5155   21.1931 C   0  0  0  0  0  0
  -22.1694   -4.2209   21.0957 F   0  0  0  0  0  0
  -21.5625   -3.4545   25.7703 F   0  0  0  0  0  0
  -30.0312  -13.3550   20.4091 N   0  0  0  0  0  0
  -26.3073  -12.9341   20.3458 N   0  0  0  0  0  0
  -25.9413  -11.6502   20.5930 N   0  0  0  0  0  0
  -22.0693  -12.8171   22.0481 N   0  0  0  0  0  0
  -25.4145  -15.1923   20.4103 N   0  0  0  0  0  0
  -31.9062  -14.5766   20.0177 O   0  0  0  0  0  0
  -21.6662   -6.8890   21.4245 O   0  0  0  0  0  0
  -22.3629  -14.5399   20.6671 O   0  0  0  0  0  0
  -24.6152  -31.8730   23.2169 C   0  0  0  0  0  0
  -25.9088  -32.4819   23.8408 C   0  0  1  0  0  0
  -27.1809  -27.3992   20.0754 C   0  0  0  0  0  0
  -25.5888  -33.8596   24.2301 N   0  0  0  0  0  0
  -23.3972  -30.4986   21.5668 C   0  0  2  0  0  0
  -24.8276  -28.9756   20.1230 C   0  0  0  0  0  0
  -22.7369  -29.4568   22.5052 C   0  0  0  0  0  0
  -18.0125  -28.1157   22.8730 C   0  0  0  0  0  0
  -24.1481  -36.7293   23.2626 C   0  0  0  0  0  0
  -25.9340  -30.8186   21.3821 C   0  0  0  0  0  0
  -25.9974  -29.4544   20.7249 C   0  0  0  0  0  0
  -27.1768  -28.6696   20.7090 C   0  0  0  0  0  0
  -25.9907  -26.9693   19.4449 C   0  0  0  0  0  0
  -24.8189  -27.7318   19.4828 C   0  0  0  0  0  0
  -23.5978  -29.8484   20.1794 C   0  0  0  0  0  0
  -25.4127  -36.3073   24.0315 C   0  0  1  0  0  0
  -20.5792  -28.3338   23.1010 C   0  0  2  0  0  0
  -20.6827  -26.9108   22.5154 C   0  0  0  0  0  0
  -19.5388  -26.5509   21.5519 C   0  0  0  0  0  0
  -18.1590  -26.7481   22.2107 C   0  0  0  0  0  0
  -19.1534  -28.8575   23.2702 C   0  0  0  0  0  0
  -18.9829  -30.1325   23.8483 C   0  0  0  0  0  0
  -17.6959  -30.6718   24.0210 C   0  0  0  0  0  0
  -25.9113  -34.9444   23.5132 C   0  0  0  0  0  0
  -16.5646  -29.9304   23.6441 C   0  0  0  0  0  0
  -16.7144  -28.6494   23.0819 C   0  0  0  0  0  0
  -26.4484  -31.6550   25.0718 C   0  0  0  0  0  0
  -25.3712  -31.3624   26.1412 C   0  0  0  0  0  0
  -27.0307  -30.2959   24.6096 C   0  0  0  0  0  0
  -27.6052  -32.4274   25.7458 C   0  0  0  0  0  0
  -27.5581  -37.1765   24.8457 C   0  0  0  0  0  0
  -21.4096  -29.2707   22.3544 N   0  0  0  0  0  0
  -26.4312  -37.3739   23.9405 N   0  0  0  0  0  0
  -24.6663  -31.0787   22.1132 N   0  0  0  0  0  0
  -23.4090  -28.8323   23.3313 O   0  0  0  0  0  0
  -28.3231  -26.6147   20.1046 O   0  0  0  0  0  0
  -26.5628  -34.8891   22.4678 O   0  0  0  0  0  0
  -23.5376  -32.1520   23.7568 O   0  0  0  0  0  0
  -26.9149  -18.7368   18.7449 C   0  0  0  0  0  0
  -27.7055  -18.2269   19.7492 C   0  0  0  0  0  0
  -25.9711  -19.3204   20.6672 C   0  0  0  0  0  0
  -25.0262  -19.7767   21.7482 C   0  0  0  0  0  0
  -28.9769  -17.3807   19.7383 C   0  0  0  0  0  0
  -25.6056  -22.5978   19.1571 C   0  0  0  0  0  0
  -27.0861  -23.0360   19.1324 C   0  0  0  0  0  0
  -25.2196  -21.5298   18.1010 C   0  0  0  0  0  0
  -27.4167  -24.2147   20.1055 C   0  0  0  0  0  0
  -24.7943  -20.1497   18.6412 C   0  0  0  0  0  0
  -29.0283  -16.3552   20.9126 C   0  0  0  0  0  0
  -28.2949  -25.3298   19.4567 C   0  0  0  0  0  0
  -25.8798  -19.4322   19.3319 N   0  0  0  0  0  0
  -27.1131  -18.6676   20.9039 N   0  3  0  0  0  0
  -30.3020  -15.6167   21.0716 N   0  0  0  0  0  0
  -31.4500  -12.3258   19.1346 H   0  0  0  0  0  0
  -30.2609  -11.3133   19.8766 H   0  0  0  0  0  0
  -29.7293  -11.7347   17.4598 H   0  0  0  0  0  0
  -29.6498  -13.4582   17.7474 H   0  0  0  0  0  0
  -27.8706  -11.2716   18.8797 H   0  0  0  0  0  0
  -27.3408  -12.5406   17.8162 H   0  0  0  0  0  0
  -27.6623  -14.2163   19.4823 H   0  0  0  0  0  0
  -28.7091  -12.0595   21.4213 H   0  0  0  0  0  0
  -28.5003  -13.7303   21.8389 H   0  0  0  0  0  0
  -25.2740   -9.5648   22.4851 H   0  0  0  0  0  0
  -24.0020   -7.4598   22.7477 H   0  0  0  0  0  0
  -21.0862   -8.8810   19.8951 H   0  0  0  0  0  0
  -22.3746  -10.9737   19.6285 H   0  0  0  0  0  0
  -21.2041   -7.6181   23.9725 H   0  0  0  0  0  0
  -21.1498   -6.0562   25.9076 H   0  0  0  0  0  0
  -22.0564   -2.7653   23.2774 H   0  0  0  0  0  0
  -22.4136  -11.9702   22.4884 H   0  0  0  0  0  0
  -21.1353  -13.1349   22.2490 H   0  0  0  0  0  0
  -24.6090  -15.8135   20.4280 H   0  0  0  0  0  0
  -26.2255  -15.5983   19.9687 H   0  0  0  0  0  0
  -26.7185  -32.5453   23.1176 H   0  0  0  0  0  0
  -24.9897  -33.9738   25.0324 H   0  0  0  0  0  0
  -22.6800  -31.3099   21.4343 H   0  0  0  0  0  0
  -23.3752  -35.9618   23.3330 H   0  0  0  0  0  0
  -24.3581  -36.8891   22.2038 H   0  0  0  0  0  0
  -23.7253  -37.6495   23.6680 H   0  0  0  0  0  0
  -26.0578  -31.5801   20.6119 H   0  0  0  0  0  0
  -26.8184  -30.8564   22.0087 H   0  0  0  0  0  0
  -28.0796  -29.0225   21.1954 H   0  0  0  0  0  0
  -25.9225  -26.0347   18.9126 H   0  0  0  0  0  0
  -23.9100  -27.3664   19.0238 H   0  0  0  0  0  0
  -23.7185  -30.6324   19.4308 H   0  0  0  0  0  0
  -22.7223  -29.2771   19.8625 H   0  0  0  0  0  0
  -25.1317  -36.1910   25.0806 H   0  0  0  0  0  0
  -20.9646  -28.2845   24.1149 H   0  0  0  0  0  0
  -20.6499  -26.2031   23.3453 H   0  0  0  0  0  0
  -21.6478  -26.7329   22.0391 H   0  0  0  0  0  0
  -19.6380  -25.5234   21.2277 H   0  0  0  0  0  0
  -19.6093  -27.1295   20.6305 H   0  0  0  0  0  0
  -17.3918  -26.6410   21.4430 H   0  0  0  0  0  0
  -17.9759  -25.9780   22.9607 H   0  0  0  0  0  0
  -19.8475  -30.7049   24.1492 H   0  0  0  0  0  0
  -17.5931  -31.6675   24.4189 H   0  0  0  0  0  0
  -15.5821  -30.3646   23.7910 H   0  0  0  0  0  0
  -15.8266  -28.0966   22.8054 H   0  0  0  0  0  0
  -24.5923  -30.6942   25.7680 H   0  0  0  0  0  0
  -24.8856  -32.2765   26.4836 H   0  0  0  0  0  0
  -25.8038  -30.8755   27.0149 H   0  0  0  0  0  0
  -26.2855  -29.6724   24.1117 H   0  0  0  0  0  0
  -27.3991  -29.7176   25.4573 H   0  0  0  0  0  0
  -27.8740  -30.4231   23.9308 H   0  0  0  0  0  0
  -27.2669  -33.3582   26.2015 H   0  0  0  0  0  0
  -28.3847  -32.6805   25.0261 H   0  0  0  0  0  0
  -28.0739  -31.8390   26.5346 H   0  0  0  0  0  0
  -28.2580  -38.0051   24.7519 H   0  0  0  0  0  0
  -28.1079  -36.2595   24.6313 H   0  0  0  0  0  0
  -27.2288  -37.1436   25.8832 H   0  0  0  0  0  0
  -20.9252  -29.8103   21.6547 H   0  0  0  0  0  0
  -26.0219  -38.2826   24.1315 H   0  0  0  0  0  0
  -27.0114  -18.6452   17.6749 H   0  0  0  0  0  0
  -24.5465  -18.8932   22.1545 H   0  0  0  0  0  0
  -24.2573  -20.4543   21.3857 H   0  0  0  0  0  0
  -25.5893  -20.2818   22.5324 H   0  0  0  0  0  0
  -29.8345  -18.0516   19.7491 H   0  0  0  0  0  0
  -29.0436  -16.8680   18.7791 H   0  0  0  0  0  0
  -25.3269  -22.2682   20.1595 H   0  0  0  0  0  0
  -24.9680  -23.4663   18.9709 H   0  0  0  0  0  0
  -27.3418  -23.3082   18.1093 H   0  0  0  0  0  0
  -27.7344  -22.1876   19.3598 H   0  0  0  0  0  0
  -26.0308  -21.3619   17.3927 H   0  0  0  0  0  0
  -24.3910  -21.9232   17.5154 H   0  0  0  0  0  0
  -27.9063  -23.8198   20.9993 H   0  0  0  0  0  0
  -26.4876  -24.6235   20.4922 H   0  0  0  0  0  0
  -24.4541  -19.5150   17.8270 H   0  0  0  0  0  0
  -23.9420  -20.2426   19.3091 H   0  0  0  0  0  0
  -28.1813  -15.7021   20.8419 H   0  0  0  0  0  0
  -28.8802  -16.8910   21.8547 H   0  0  0  0  0  0
  -27.9930  -25.4798   18.4226 H   0  0  0  0  0  0
  -29.3209  -24.9632   19.4025 H   0  0  0  0  0  0
  -27.4756  -18.4875   21.8348 H   0  0  0  0  0  0
  -31.0677  -16.2601   21.2267 H   0  0  0  0  0  0
  1 25  1  0  0  0
  1 30  2  0  0  0
  1 85  1  0  0  0
  2  3  1  0  0  0
  2 25  1  0  0  0
  2 86  1  0  0  0
  2 87  1  0  0  0
  3  4  1  0  0  0
  3 88  1  0  0  0
  3 89  1  0  0  0
  4  5  1  0  0  0
  4 90  1  0  0  0
  4 91  1  0  0  0
  5  6  1  0  0  0
  5 26  1  0  0  0
  5 92  1  0  0  0
  6 25  1  0  0  0
  6 93  1  0  0  0
  6 94  1  0  0  0
  7  8  2  0  0  0
  7 26  1  0  0  0
  7 29  1  0  0  0
  8  9  1  0  0  0
  8 22  1  0  0  0
  9 10  1  0  0  0
  9 27  2  0  0  0
 10 11  2  0  0  0
 10 15  1  0  0  0
 11 12  1  0  0  0
 11 95  1  0  0  0
 12 13  2  0  0  0
 12 96  1  0  0  0
 13 14  1  0  0  0
 13 31  1  0  0  0
 14 15  2  0  0  0
 14 97  1  0  0  0
 15 98  1  0  0  0
 16 17  2  0  0  0
 16 21  1  0  0  0
 16 31  1  0  0  0
 17 18  1  0  0  0
 17 99  1  0  0  0
 18 19  2  0  0  0
 18100  1  0  0  0
 19 20  1  0  0  0
 19 24  1  0  0  0
 20 21  2  0  0  0
 20101  1  0  0  0
 21 23  1  0  0  0
 22 28  1  0  0  0
 22 32  2  0  0  0
 26 27  1  0  0  0
 28102  1  0  0  0
 28103  1  0  0  0
 29104  1  0  0  0
 29105  1  0  0  0
 33 34  1  0  0  0
 33 66  1  0  0  0
 33 70  2  0  0  0
 34 36  1  0  0  0
 34 59  1  0  0  0
 34106  1  0  0  0
 35 44  2  0  0  0
 35 45  1  0  0  0
 35 68  1  0  0  0
 36 56  1  0  0  0
 36107  1  0  0  0
 37 39  1  0  0  0
 37 47  1  0  0  0
 37 66  1  0  0  0
 37108  1  0  0  0
 38 43  2  0  0  0
 38 46  1  0  0  0
 38 47  1  0  0  0
 39 64  1  0  0  0
 39 67  2  0  0  0
 40 52  1  0  0  0
 40 53  2  0  0  0
 40 58  1  0  0  0
 41109  1  0  0  0
 41110  1  0  0  0
 41111  1  0  0  0
 41 48  1  0  0  0
 42 43  1  0  0  0
 42 66  1  0  0  0
 42112  1  0  0  0
 42113  1  0  0  0
 43 44  1  0  0  0
 44114  1  0  0  0
 45 46  2  0  0  0
 45115  1  0  0  0
 46116  1  0  0  0
 47117  1  0  0  0
 47118  1  0  0  0
 48 56  1  0  0  0
 48 65  1  0  0  0
 48119  1  0  0  0
 49 50  1  0  0  0
 49 53  1  0  0  0
 49 64  1  0  0  0
 49120  1  0  0  0
 50 51  1  0  0  0
 50121  1  0  0  0
 50122  1  0  0  0
 51 52  1  0  0  0
 51123  1  0  0  0
 51124  1  0  0  0
 52125  1  0  0  0
 52126  1  0  0  0
 53 54  1  0  0  0
 54 55  2  0  0  0
 54127  1  0  0  0
 55 57  1  0  0  0
 55128  1  0  0  0
 56 69  2  0  0  0
 57 58  2  0  0  0
 57129  1  0  0  0
 58130  1  0  0  0
 59 60  1  0  0  0
 59 61  1  0  0  0
 59 62  1  0  0  0
 60131  1  0  0  0
 60132  1  0  0  0
 60133  1  0  0  0
 61134  1  0  0  0
 61135  1  0  0  0
 61136  1  0  0  0
 62137  1  0  0  0
 62138  1  0  0  0
 62139  1  0  0  0
 63 65  1  0  0  0
 63140  1  0  0  0
 63141  1  0  0  0
 63142  1  0  0  0
 64143  1  0  0  0
 65144  1  0  0  0
 68 82  1  0  0  0
 71 72  2  0  0  0
 71 83  1  0  0  0
 71145  1  0  0  0
 72 75  1  0  0  0
 72 84  1  0  0  0
 73 74  1  0  0  0
 73 83  1  0  0  0
 73 84  2  0  0  0
 74146  1  0  0  0
 74147  1  0  0  0
 74148  1  0  0  0
 75 81  1  0  0  0
 75149  1  0  0  0
 75150  1  0  0  0
 76 77  1  0  0  0
 76 78  1  0  0  0
 76151  1  0  0  0
 76152  1  0  0  0
 77 79  1  0  0  0
 77153  1  0  0  0
 77154  1  0  0  0
 78 80  1  0  0  0
 78155  1  0  0  0
 78156  1  0  0  0
 79 82  1  0  0  0
 79157  1  0  0  0
 79158  1  0  0  0
 80 83  1  0  0  0
 80159  1  0  0  0
 80160  1  0  0  0
 81 85  1  0  0  0
 81161  1  0  0  0
 81162  1  0  0  0
 82163  1  0  0  0
 82164  1  0  0  0
 84165  1  0  0  0
 85166  1  0  0  0
M  CHG  1  84   1
M  ISO  4   1 100  68 101  82 101  85 100
M  END
> <chiral flag>
0

> <version>
0

> <s_m_source_file>
/data/baiqing/PycharmProjects/Reinvent-master-3.2/result/LINK_invent/BTK/process_docking_weight1_custom_sum_contain_oxygen_bond_distance_aromatic_linkinvent_7_9_3/rearranged_h_0088.sdf

> <i_m_source_file_index>
67

> <r_mmod_Potential_Energy-OPLS-2005>
3.86020088195801

> <r_mmod_Stretch_Energy-OPLS-2005>
42.6625061035156

> <r_mmod_Bend_Energy-OPLS-2005>
144.694137573242

> <r_mmod_Torsional_Energy-OPLS-2005>
275.682708740234

> <r_mmod_Improper_Torsional_Energy-OPLS-2005>
5.49639701843262

> <r_mmod_Van_der_Waal_Energy-OPLS-2005>
125.493537902832

> <r_mmod_Electrostatic_Energy-OPLS-2005>
-191.365097045898

> <r_mmod_Solvation_Energy-OPLS-2005>
-429.625030517578

> <b_mmod_Minimization_Converged-OPLS-2005>
0

> <r_mmod_RMS_Derivative-OPLS-2005>
14.0448770523071

$$$$
69
                    3D
 Structure written by MMmdl.
173181  0  0  1  0            999 V2000
  -30.6806  -14.5019   20.5540 C   0  0  0  0  0  0
  -30.4312  -12.3303   19.4070 C   0  0  0  0  0  0
  -29.4954  -12.4984   18.1927 C   0  0  0  0  0  0
  -28.0146  -12.3617   18.6062 C   0  0  0  0  0  0
  -27.6559  -13.2057   19.8605 C   0  0  2  0  0  0
  -28.7028  -12.9989   20.9783 C   0  0  0  0  0  0
  -25.2572  -13.8161   20.5692 C   0  0  0  0  0  0
  -24.1830  -13.0442   20.9210 C   0  0  0  0  0  0
  -24.6379  -11.6911   20.8717 C   0  0  0  0  0  0
  -23.9033  -10.4295   21.0374 C   0  0  0  0  0  0
  -24.3590   -9.4222   21.9151 C   0  0  0  0  0  0
  -23.6295   -8.2244   22.0724 C   0  0  0  0  0  0
  -22.4273   -8.0257   21.3527 C   0  0  0  0  0  0
  -21.9895   -9.0224   20.4632 C   0  0  0  0  0  0
  -22.7203  -10.2120   20.3038 C   0  0  0  0  0  0
  -21.6863   -6.0727   22.5274 C   0  0  0  0  0  0
  -21.4016   -6.5631   23.8205 C   0  0  0  0  0  0
  -21.3649   -5.6781   24.9164 C   0  0  0  0  0  0
  -21.6041   -4.3045   24.7211 C   0  0  0  0  0  0
  -21.8829   -3.8139   23.4335 C   0  0  0  0  0  0
  -21.9202   -4.6958   22.3392 C   0  0  0  0  0  0
  -22.7857  -13.5239   21.1867 C   0  0  0  0  0  0
  -22.1662   -4.2143   21.0964 F   0  0  0  0  0  0
  -21.5636   -3.4523   25.7730 F   0  0  0  0  0  0
  -30.0252  -13.3189   20.4141 N   0  0  0  0  0  0
  -26.2985  -12.9325   20.3292 N   0  0  0  0  0  0
  -25.9298  -11.6490   20.5729 N   0  0  0  0  0  0
  -22.0482  -12.8221   22.0431 N   0  0  0  0  0  0
  -25.4329  -15.1886   20.4143 N   0  0  0  0  0  0
  -31.8427  -14.6757   20.1775 O   0  0  0  0  0  0
  -21.6640   -6.8857   21.4231 O   0  0  0  0  0  0
  -22.3534  -14.5524   20.6696 O   0  0  0  0  0  0
  -24.6155  -31.8666   23.2080 C   0  0  0  0  0  0
  -25.9036  -32.4816   23.8379 C   0  0  1  0  0  0
  -27.2423  -27.4323   20.0932 C   0  0  0  0  0  0
  -25.5889  -33.8616   24.2308 N   0  0  0  0  0  0
  -23.4050  -30.4865   21.5512 C   0  0  2  0  0  0
  -24.8533  -28.9505   20.1174 C   0  0  0  0  0  0
  -22.7417  -29.4641   22.5017 C   0  0  0  0  0  0
  -18.0268  -28.1370   22.8497 C   0  0  0  0  0  0
  -24.1478  -36.7295   23.2645 C   0  0  0  0  0  0
  -25.9346  -30.8309   21.3625 C   0  0  0  0  0  0
  -26.0148  -29.4663   20.7073 C   0  0  0  0  0  0
  -27.2166  -28.7169   20.6874 C   0  0  0  0  0  0
  -26.0643  -26.9335   19.4967 C   0  0  0  0  0  0
  -24.8732  -27.6825   19.5097 C   0  0  0  0  0  0
  -23.6126  -29.8139   20.1679 C   0  0  0  0  0  0
  -25.4103  -36.3106   24.0342 C   0  0  1  0  0  0
  -20.5857  -28.3650   23.1335 C   0  0  2  0  0  0
  -20.6752  -26.9384   22.5437 C   0  0  0  0  0  0
  -19.5738  -26.6377   21.5220 C   0  0  0  0  0  0
  -18.1914  -26.7921   22.1624 C   0  0  0  0  0  0
  -19.1517  -28.8826   23.2909 C   0  0  0  0  0  0
  -18.9446  -30.1439   23.8903 C   0  0  0  0  0  0
  -17.6451  -30.6584   24.0562 C   0  0  0  0  0  0
  -25.9039  -34.9473   23.5129 C   0  0  0  0  0  0
  -16.5339  -29.9085   23.6332 C   0  0  0  0  0  0
  -16.7258  -28.6501   23.0349 C   0  0  0  0  0  0
  -26.4469  -31.6609   25.0717 C   0  0  0  0  0  0
  -25.3744  -31.3719   26.1478 C   0  0  0  0  0  0
  -27.0298  -30.3051   24.6097 C   0  0  0  0  0  0
  -27.6046  -32.4341   25.7468 C   0  0  0  0  0  0
  -27.5585  -37.1789   24.8460 C   0  0  0  0  0  0
  -21.4143  -29.3017   22.3745 N   0  0  0  0  0  0
  -26.4282  -37.3796   23.9433 N   0  0  0  0  0  0
  -24.6694  -31.0751   22.0987 N   0  0  0  0  0  0
  -23.4189  -28.8203   23.3072 O   0  0  0  0  0  0
  -28.3867  -26.6620   20.0819 O   0  0  0  0  0  0
  -26.5607  -34.8936   22.4696 O   0  0  0  0  0  0
  -23.5344  -32.1420   23.7466 O   0  0  0  0  0  0
  -29.5040  -20.9478   19.4681 C   0  0  0  0  0  0
  -28.5758  -22.0161   19.6246 C   0  0  0  0  0  0
  -27.2576  -21.6611   20.0323 C   0  0  0  0  0  0
  -29.0936  -19.6078   19.6760 C   0  0  0  0  0  0
  -26.9644  -20.2962   20.2996 C   0  0  0  0  0  0
  -26.1485  -22.7038   20.1728 C   0  0  0  0  0  0
  -30.0751  -23.6292   18.2604 C   0  0  0  0  0  0
  -25.6786  -18.9151   22.0109 C   0  0  0  0  0  0
  -24.8053  -19.1464   19.6180 C   0  0  0  0  0  0
  -29.9739  -18.3967   19.3318 C   0  0  0  0  0  0
  -30.9054  -17.8600   20.4494 C   0  0  0  0  0  0
  -29.2911  -24.3429   20.5846 C   0  0  0  0  0  0
  -30.3351  -16.8500   21.4860 C   0  0  0  0  0  0
  -28.3121  -25.5024   20.9305 C   0  0  0  0  0  0
  -28.9658  -23.4929   19.3199 C   0  0  2  0  0  0
  -25.5867  -19.8094   20.7650 C   0  0  0  0  0  0
  -27.8573  -19.3050   20.0999 N   0  0  0  0  0  0
  -29.9200  -15.5196   21.0018 N   0  0  0  0  0  0
  -31.4708  -12.4513   19.0992 H   0  0  0  0  0  0
  -30.3532  -11.3229   19.8197 H   0  0  0  0  0  0
  -29.7448  -11.7582   17.4311 H   0  0  0  0  0  0
  -29.6607  -13.4755   17.7349 H   0  0  0  0  0  0
  -27.8279  -11.3061   18.8023 H   0  0  0  0  0  0
  -27.3643  -12.6309   17.7717 H   0  0  0  0  0  0
  -27.6922  -14.2518   19.5550 H   0  0  0  0  0  0
  -28.7007  -11.9652   21.3263 H   0  0  0  0  0  0
  -28.4620  -13.5996   21.8565 H   0  0  0  0  0  0
  -25.2736   -9.5730   22.4703 H   0  0  0  0  0  0
  -24.0028   -7.4645   22.7442 H   0  0  0  0  0  0
  -21.0824   -8.8708   19.8946 H   0  0  0  0  0  0
  -22.3622  -10.9631   19.6134 H   0  0  0  0  0  0
  -21.1998   -7.6143   23.9716 H   0  0  0  0  0  0
  -21.1461   -6.0500   25.9071 H   0  0  0  0  0  0
  -22.0625   -2.7607   23.2830 H   0  0  0  0  0  0
  -22.4078  -11.9903   22.4848 H   0  0  0  0  0  0
  -21.1067  -13.1220   22.2537 H   0  0  0  0  0  0
  -24.6824  -15.8513   20.5694 H   0  0  0  0  0  0
  -26.2848  -15.6301   20.0919 H   0  0  0  0  0  0
  -26.7106  -32.5524   23.1145 H   0  0  0  0  0  0
  -25.0025  -33.9764   25.0440 H   0  0  0  0  0  0
  -22.6944  -31.3029   21.4089 H   0  0  0  0  0  0
  -23.3754  -35.9615   23.3312 H   0  0  0  0  0  0
  -24.3567  -36.8903   22.2059 H   0  0  0  0  0  0
  -23.7209  -37.6492   23.6656 H   0  0  0  0  0  0
  -26.0489  -31.5996   20.5961 H   0  0  0  0  0  0
  -26.8203  -30.8809   21.9833 H   0  0  0  0  0  0
  -28.1162  -29.1131   21.1369 H   0  0  0  0  0  0
  -26.0702  -25.9612   19.0247 H   0  0  0  0  0  0
  -23.9798  -27.2773   19.0536 H   0  0  0  0  0  0
  -23.7150  -30.5841   19.4031 H   0  0  0  0  0  0
  -22.7389  -29.2268   19.8786 H   0  0  0  0  0  0
  -25.1281  -36.1964   25.0831 H   0  0  0  0  0  0
  -20.9938  -28.3207   24.1460 H   0  0  0  0  0  0
  -20.5631  -26.2259   23.3625 H   0  0  0  0  0  0
  -21.6629  -26.7418   22.1245 H   0  0  0  0  0  0
  -19.6900  -25.6290   21.1239 H   0  0  0  0  0  0
  -19.6690  -27.3196   20.6761 H   0  0  0  0  0  0
  -17.4196  -26.6687   21.4010 H   0  0  0  0  0  0
  -18.0299  -26.0047   22.9002 H   0  0  0  0  0  0
  -19.7921  -30.7247   24.2278 H   0  0  0  0  0  0
  -17.5009  -31.6259   24.5164 H   0  0  0  0  0  0
  -15.5343  -30.2990   23.7641 H   0  0  0  0  0  0
  -15.8663  -28.0824   22.7062 H   0  0  0  0  0  0
  -24.5897  -30.7081   25.7828 H   0  0  0  0  0  0
  -24.8955  -32.2876   26.4958 H   0  0  0  0  0  0
  -25.8104  -30.8869   27.0222 H   0  0  0  0  0  0
  -26.2834  -29.6806   24.1170 H   0  0  0  0  0  0
  -27.4092  -29.7290   25.4548 H   0  0  0  0  0  0
  -27.8663  -30.4368   23.9228 H   0  0  0  0  0  0
  -27.2660  -33.3639   26.2056 H   0  0  0  0  0  0
  -28.3838  -32.6912   25.0277 H   0  0  0  0  0  0
  -28.0740  -31.8468   26.5371 H   0  0  0  0  0  0
  -28.2592  -38.0099   24.7549 H   0  0  0  0  0  0
  -28.1086  -36.2637   24.6227 H   0  0  0  0  0  0
  -27.2314  -37.1368   25.8862 H   0  0  0  0  0  0
  -20.9314  -29.8735   21.6954 H   0  0  0  0  0  0
  -26.0172  -38.2868   24.1469 H   0  0  0  0  0  0
  -30.5169  -21.1330   19.1409 H   0  0  0  0  0  0
  -26.2946  -23.6118   19.5977 H   0  0  0  0  0  0
  -26.0249  -22.9822   21.2186 H   0  0  0  0  0  0
  -25.2021  -22.3190   19.7964 H   0  0  0  0  0  0
  -29.7946  -23.1220   17.3369 H   0  0  0  0  0  0
  -31.0292  -23.2256   18.5965 H   0  0  0  0  0  0
  -30.2390  -24.6773   18.0120 H   0  0  0  0  0  0
  -26.2058  -19.4289   22.8160 H   0  0  0  0  0  0
  -26.2119  -17.9886   21.8025 H   0  0  0  0  0  0
  -24.6862  -18.6563   22.3786 H   0  0  0  0  0  0
  -24.6812  -19.8404   18.7837 H   0  0  0  0  0  0
  -23.8108  -18.8412   19.9414 H   0  0  0  0  0  0
  -25.3224  -18.2645   19.2397 H   0  0  0  0  0  0
  -30.5925  -18.6829   18.4822 H   0  0  0  0  0  0
  -29.3466  -17.5840   18.9596 H   0  0  0  0  0  0
  -31.3195  -18.7171   20.9817 H   0  0  0  0  0  0
  -31.7614  -17.3864   19.9689 H   0  0  0  0  0  0
  -29.3270  -23.6732   21.4447 H   0  0  0  0  0  0
  -30.2989  -24.7536   20.5157 H   0  0  0  0  0  0
  -29.4841  -17.3022   21.9976 H   0  0  0  0  0  0
  -31.0895  -16.6868   22.2576 H   0  0  0  0  0  0
  -28.5488  -25.8496   21.9371 H   0  0  0  0  0  0
  -27.2979  -25.1121   21.0005 H   0  0  0  0  0  0
  -28.1282  -23.9688   18.8183 H   0  0  0  0  0  0
  -24.9963  -20.6570   21.1025 H   0  0  0  0  0  0
  -28.9542  -15.2769   21.1700 H   0  0  0  0  0  0
  1 25  1  0  0  0
  1 30  2  0  0  0
  1 88  1  0  0  0
  2  3  1  0  0  0
  2 25  1  0  0  0
  2 89  1  0  0  0
  2 90  1  0  0  0
  3  4  1  0  0  0
  3 91  1  0  0  0
  3 92  1  0  0  0
  4  5  1  0  0  0
  4 93  1  0  0  0
  4 94  1  0  0  0
  5  6  1  0  0  0
  5 26  1  0  0  0
  5 95  1  0  0  0
  6 25  1  0  0  0
  6 96  1  0  0  0
  6 97  1  0  0  0
  7  8  2  0  0  0
  7 26  1  0  0  0
  7 29  1  0  0  0
  8  9  1  0  0  0
  8 22  1  0  0  0
  9 10  1  0  0  0
  9 27  2  0  0  0
 10 11  2  0  0  0
 10 15  1  0  0  0
 11 12  1  0  0  0
 11 98  1  0  0  0
 12 13  2  0  0  0
 12 99  1  0  0  0
 13 14  1  0  0  0
 13 31  1  0  0  0
 14 15  2  0  0  0
 14100  1  0  0  0
 15101  1  0  0  0
 16 17  2  0  0  0
 16 21  1  0  0  0
 16 31  1  0  0  0
 17 18  1  0  0  0
 17102  1  0  0  0
 18 19  2  0  0  0
 18103  1  0  0  0
 19 20  1  0  0  0
 19 24  1  0  0  0
 20 21  2  0  0  0
 20104  1  0  0  0
 21 23  1  0  0  0
 22 28  1  0  0  0
 22 32  2  0  0  0
 26 27  1  0  0  0
 28105  1  0  0  0
 28106  1  0  0  0
 29107  1  0  0  0
 29108  1  0  0  0
 33 34  1  0  0  0
 33 66  1  0  0  0
 33 70  2  0  0  0
 34 36  1  0  0  0
 34 59  1  0  0  0
 34109  1  0  0  0
 35 44  2  0  0  0
 35 45  1  0  0  0
 35 68  1  0  0  0
 36 56  1  0  0  0
 36110  1  0  0  0
 37 39  1  0  0  0
 37 47  1  0  0  0
 37 66  1  0  0  0
 37111  1  0  0  0
 38 43  2  0  0  0
 38 46  1  0  0  0
 38 47  1  0  0  0
 39 64  1  0  0  0
 39 67  2  0  0  0
 40 52  1  0  0  0
 40 53  2  0  0  0
 40 58  1  0  0  0
 41112  1  0  0  0
 41113  1  0  0  0
 41114  1  0  0  0
 41 48  1  0  0  0
 42 43  1  0  0  0
 42 66  1  0  0  0
 42115  1  0  0  0
 42116  1  0  0  0
 43 44  1  0  0  0
 44117  1  0  0  0
 45 46  2  0  0  0
 45118  1  0  0  0
 46119  1  0  0  0
 47120  1  0  0  0
 47121  1  0  0  0
 48 56  1  0  0  0
 48 65  1  0  0  0
 48122  1  0  0  0
 49 50  1  0  0  0
 49 53  1  0  0  0
 49 64  1  0  0  0
 49123  1  0  0  0
 50 51  1  0  0  0
 50124  1  0  0  0
 50125  1  0  0  0
 51 52  1  0  0  0
 51126  1  0  0  0
 51127  1  0  0  0
 52128  1  0  0  0
 52129  1  0  0  0
 53 54  1  0  0  0
 54 55  2  0  0  0
 54130  1  0  0  0
 55 57  1  0  0  0
 55131  1  0  0  0
 56 69  2  0  0  0
 57 58  2  0  0  0
 57132  1  0  0  0
 58133  1  0  0  0
 59 60  1  0  0  0
 59 61  1  0  0  0
 59 62  1  0  0  0
 60134  1  0  0  0
 60135  1  0  0  0
 60136  1  0  0  0
 61137  1  0  0  0
 61138  1  0  0  0
 61139  1  0  0  0
 62140  1  0  0  0
 62141  1  0  0  0
 62142  1  0  0  0
 63 65  1  0  0  0
 63143  1  0  0  0
 63144  1  0  0  0
 63145  1  0  0  0
 64146  1  0  0  0
 65147  1  0  0  0
 68 84  1  0  0  0
 71 72  2  0  0  0
 71 74  1  0  0  0
 71148  1  0  0  0
 72 73  1  0  0  0
 72 85  1  0  0  0
 73 75  2  0  0  0
 73 76  1  0  0  0
 74 80  1  0  0  0
 74 87  2  0  0  0
 75 86  1  0  0  0
 75 87  1  0  0  0
 76149  1  0  0  0
 76150  1  0  0  0
 76151  1  0  0  0
 77152  1  0  0  0
 77153  1  0  0  0
 77154  1  0  0  0
 77 85  1  0  0  0
 78155  1  0  0  0
 78156  1  0  0  0
 78157  1  0  0  0
 78 86  1  0  0  0
 79 86  1  0  0  0
 79158  1  0  0  0
 79159  1  0  0  0
 79160  1  0  0  0
 80 81  1  0  0  0
 80161  1  0  0  0
 80162  1  0  0  0
 81 83  1  0  0  0
 81163  1  0  0  0
 81164  1  0  0  0
 82 84  1  0  0  0
 82 85  1  0  0  0
 82165  1  0  0  0
 82166  1  0  0  0
 83 88  1  0  0  0
 83167  1  0  0  0
 83168  1  0  0  0
 84169  1  0  0  0
 84170  1  0  0  0
 85171  1  0  0  0
 86172  1  0  0  0
 88173  1  0  0  0
M  ISO  4   1 100  68 101  84 101  88 100
M  END
> <chiral flag>
0

> <version>
0

> <s_m_source_file>
/data/baiqing/PycharmProjects/Reinvent-master-3.2/result/LINK_invent/BTK/process_docking_weight1_custom_sum_contain_oxygen_bond_distance_aromatic_linkinvent_7_9_3/rearranged_h_0088.sdf

> <i_m_source_file_index>
68

> <r_mmod_Potential_Energy-OPLS-2005>
-245.276962280273

> <r_mmod_Stretch_Energy-OPLS-2005>
44.5392837524414

> <r_mmod_Bend_Energy-OPLS-2005>
119.115653991699

> <r_mmod_Torsional_Energy-OPLS-2005>
233.435852050781

> <r_mmod_Improper_Torsional_Energy-OPLS-2005>
3.67412614822388

> <r_mmod_Van_der_Waal_Energy-OPLS-2005>
147.125427246094

> <r_mmod_Electrostatic_Energy-OPLS-2005>
-609.951171875

> <r_mmod_Solvation_Energy-OPLS-2005>
-200.061065673828

> <b_mmod_Minimization_Converged-OPLS-2005>
0

> <r_mmod_RMS_Derivative-OPLS-2005>
3.19117712974548

$$$$
70
                    3D
 Structure written by MMmdl.
167175  0  0  1  0            999 V2000
  -30.6870  -14.4777   20.5692 C   0  0  0  0  0  0
  -30.4279  -12.3121   19.4135 C   0  0  0  0  0  0
  -29.4925  -12.5196   18.2030 C   0  0  0  0  0  0
  -28.0132  -12.3797   18.6150 C   0  0  0  0  0  0
  -27.6638  -13.2063   19.8815 C   0  0  2  0  0  0
  -28.7099  -12.9713   20.9968 C   0  0  0  0  0  0
  -25.2597  -13.8157   20.5687 C   0  0  0  0  0  0
  -24.1849  -13.0425   20.9155 C   0  0  0  0  0  0
  -24.6405  -11.6894   20.8724 C   0  0  0  0  0  0
  -23.9065  -10.4284   21.0404 C   0  0  0  0  0  0
  -24.3617   -9.4201   21.9183 C   0  0  0  0  0  0
  -23.6285   -8.2243   22.0767 C   0  0  0  0  0  0
  -22.4272   -8.0279   21.3547 C   0  0  0  0  0  0
  -21.9899   -9.0249   20.4654 C   0  0  0  0  0  0
  -22.7230  -10.2127   20.3060 C   0  0  0  0  0  0
  -21.6847   -6.0730   22.5269 C   0  0  0  0  0  0
  -21.4014   -6.5637   23.8202 C   0  0  0  0  0  0
  -21.3664   -5.6797   24.9166 C   0  0  0  0  0  0
  -21.6047   -4.3059   24.7223 C   0  0  0  0  0  0
  -21.8820   -3.8146   23.4346 C   0  0  0  0  0  0
  -21.9188   -4.6956   22.3397 C   0  0  0  0  0  0
  -22.7868  -13.5217   21.1806 C   0  0  0  0  0  0
  -22.1655   -4.2142   21.0974 F   0  0  0  0  0  0
  -21.5631   -3.4545   25.7740 F   0  0  0  0  0  0
  -30.0386  -13.2887   20.4426 N   0  0  0  0  0  0
  -26.3045  -12.9326   20.3416 N   0  0  0  0  0  0
  -25.9338  -11.6479   20.5777 N   0  0  0  0  0  0
  -22.0529  -12.8219   22.0390 N   0  0  0  0  0  0
  -25.4322  -15.1881   20.4095 N   0  0  0  0  0  0
  -31.8079  -14.6910   20.0984 O   0  0  0  0  0  0
  -21.6640   -6.8875   21.4236 O   0  0  0  0  0  0
  -22.3550  -14.5510   20.6641 O   0  0  0  0  0  0
  -24.6153  -31.8680   23.2091 C   0  0  0  0  0  0
  -25.9039  -32.4827   23.8401 C   0  0  1  0  0  0
  -27.2385  -27.4335   20.0964 C   0  0  0  0  0  0
  -25.5892  -33.8624   24.2334 N   0  0  0  0  0  0
  -23.4054  -30.4905   21.5489 C   0  0  2  0  0  0
  -24.8553  -28.9567   20.1121 C   0  0  0  0  0  0
  -22.7421  -29.4659   22.4982 C   0  0  0  0  0  0
  -18.0274  -28.1378   22.8490 C   0  0  0  0  0  0
  -24.1483  -36.7316   23.2638 C   0  0  0  0  0  0
  -25.9351  -30.8332   21.3633 C   0  0  0  0  0  0
  -26.0159  -29.4676   20.7086 C   0  0  0  0  0  0
  -27.2146  -28.7146   20.6952 C   0  0  0  0  0  0
  -26.0651  -26.9404   19.4895 C   0  0  0  0  0  0
  -24.8754  -27.6927   19.4970 C   0  0  0  0  0  0
  -23.6153  -29.8220   20.1637 C   0  0  0  0  0  0
  -25.4104  -36.3119   24.0343 C   0  0  1  0  0  0
  -20.5866  -28.3666   23.1307 C   0  0  2  0  0  0
  -20.6766  -26.9403   22.5413 C   0  0  0  0  0  0
  -19.5746  -26.6385   21.5208 C   0  0  0  0  0  0
  -18.1923  -26.7924   22.1619 C   0  0  0  0  0  0
  -19.1525  -28.8839   23.2896 C   0  0  0  0  0  0
  -18.9452  -30.1445   23.8912 C   0  0  0  0  0  0
  -17.6455  -30.6583   24.0563 C   0  0  0  0  0  0
  -25.9029  -34.9478   23.5139 C   0  0  0  0  0  0
  -16.5346  -29.9089   23.6320 C   0  0  0  0  0  0
  -16.7265  -28.6502   23.0347 C   0  0  0  0  0  0
  -26.4463  -31.6602   25.0727 C   0  0  0  0  0  0
  -25.3727  -31.3700   26.1474 C   0  0  0  0  0  0
  -27.0297  -30.3050   24.6099 C   0  0  0  0  0  0
  -27.6048  -32.4314   25.7485 C   0  0  0  0  0  0
  -27.5582  -37.1814   24.8464 C   0  0  0  0  0  0
  -21.4148  -29.3033   22.3717 N   0  0  0  0  0  0
  -26.4296  -37.3799   23.9409 N   0  0  0  0  0  0
  -24.6701  -31.0780   22.0987 N   0  0  0  0  0  0
  -23.4185  -28.8202   23.3027 O   0  0  0  0  0  0
  -28.3721  -26.6481   20.1076 O   0  0  0  0  0  0
  -26.5598  -34.8930   22.4703 O   0  0  0  0  0  0
  -23.5340  -32.1426   23.7475 O   0  0  0  0  0  0
  -30.7842  -20.0015   19.5167 C   0  0  0  0  0  0
  -30.5780  -21.4101   19.4094 C   0  0  0  0  0  0
  -29.7007  -19.1855   19.9479 C   0  0  0  0  0  0
  -29.3192  -21.9495   19.7684 C   0  0  0  0  0  0
  -28.5150  -19.8418   20.3602 C   0  0  0  0  0  0
  -31.6549  -22.3544   18.8753 C   0  0  0  0  0  0
  -27.3141  -19.0872   20.9020 C   0  0  0  0  0  0
  -32.3173  -19.2081   17.6351 C   0  0  0  0  0  0
  -32.1287  -19.3708   19.1486 C   0  0  0  0  0  0
  -29.7475  -17.6428   19.8756 C   0  0  0  0  0  0
  -28.9393  -23.4290   19.5665 C   0  0  0  0  0  0
  -29.2546  -24.3586   20.7637 C   0  0  0  0  0  0
  -30.2593  -16.9073   21.1415 C   0  0  0  0  0  0
  -28.2538  -25.5206   20.9939 C   0  0  0  0  0  0
  -28.3396  -21.1771   20.2768 N   0  0  0  0  0  0
  -29.9524  -15.4676   21.1072 N   0  0  0  0  0  0
  -31.4710  -12.4225   19.1085 H   0  0  0  0  0  0
  -30.3368  -11.2966   19.8042 H   0  0  0  0  0  0
  -29.7314  -11.8067   17.4113 H   0  0  0  0  0  0
  -29.6564  -13.5123   17.7801 H   0  0  0  0  0  0
  -27.8151  -11.3221   18.7922 H   0  0  0  0  0  0
  -27.3652  -12.6756   17.7888 H   0  0  0  0  0  0
  -27.7085  -14.2585   19.5978 H   0  0  0  0  0  0
  -28.6917  -11.9294   21.3196 H   0  0  0  0  0  0
  -28.4754  -13.5518   21.8905 H   0  0  0  0  0  0
  -25.2776   -9.5670   22.4741 H   0  0  0  0  0  0
  -23.9989   -7.4643   22.7500 H   0  0  0  0  0  0
  -21.0816   -8.8754   19.8968 H   0  0  0  0  0  0
  -22.3683  -10.9653   19.6164 H   0  0  0  0  0  0
  -21.2017   -7.6152   23.9688 H   0  0  0  0  0  0
  -21.1484   -6.0543   25.9061 H   0  0  0  0  0  0
  -22.0602   -2.7607   23.2845 H   0  0  0  0  0  0
  -22.4154  -11.9864   22.4739 H   0  0  0  0  0  0
  -21.1164  -13.1272   22.2627 H   0  0  0  0  0  0
  -24.6655  -15.8444   20.5152 H   0  0  0  0  0  0
  -26.2821  -15.6219   20.0730 H   0  0  0  0  0  0
  -26.7119  -32.5543   23.1176 H   0  0  0  0  0  0
  -25.0043  -33.9793   25.0484 H   0  0  0  0  0  0
  -22.6933  -31.3067   21.4083 H   0  0  0  0  0  0
  -23.3749  -35.9646   23.3310 H   0  0  0  0  0  0
  -24.3579  -36.8919   22.2050 H   0  0  0  0  0  0
  -23.7228  -37.6522   23.6643 H   0  0  0  0  0  0
  -26.0486  -31.6006   20.5959 H   0  0  0  0  0  0
  -26.8218  -30.8867   21.9834 H   0  0  0  0  0  0
  -28.1100  -29.1035   21.1595 H   0  0  0  0  0  0
  -26.0707  -25.9665   19.0203 H   0  0  0  0  0  0
  -23.9856  -27.2941   19.0295 H   0  0  0  0  0  0
  -23.7210  -30.5970   19.4036 H   0  0  0  0  0  0
  -22.7405  -29.2404   19.8676 H   0  0  0  0  0  0
  -25.1279  -36.1994   25.0839 H   0  0  0  0  0  0
  -20.9959  -28.3235   24.1428 H   0  0  0  0  0  0
  -20.5663  -26.2280   23.3602 H   0  0  0  0  0  0
  -21.6638  -26.7443   22.1208 H   0  0  0  0  0  0
  -19.6907  -25.6298   21.1235 H   0  0  0  0  0  0
  -19.6685  -27.3197   20.6742 H   0  0  0  0  0  0
  -17.4192  -26.6670   21.4021 H   0  0  0  0  0  0
  -18.0326  -26.0066   22.9013 H   0  0  0  0  0  0
  -19.7930  -30.7255   24.2288 H   0  0  0  0  0  0
  -17.5011  -31.6264   24.5163 H   0  0  0  0  0  0
  -15.5348  -30.2996   23.7637 H   0  0  0  0  0  0
  -15.8663  -28.0827   22.7055 H   0  0  0  0  0  0
  -24.5898  -30.7060   25.7797 H   0  0  0  0  0  0
  -24.8921  -32.2849   26.4946 H   0  0  0  0  0  0
  -25.8074  -30.8843   27.0218 H   0  0  0  0  0  0
  -26.2843  -29.6817   24.1147 H   0  0  0  0  0  0
  -27.4066  -29.7282   25.4554 H   0  0  0  0  0  0
  -27.8675  -30.4381   23.9253 H   0  0  0  0  0  0
  -27.2687  -33.3608   26.2093 H   0  0  0  0  0  0
  -28.3840  -32.6882   25.0295 H   0  0  0  0  0  0
  -28.0737  -31.8416   26.5372 H   0  0  0  0  0  0
  -28.2608  -38.0106   24.7521 H   0  0  0  0  0  0
  -28.1079  -36.2642   24.6285 H   0  0  0  0  0  0
  -27.2307  -37.1453   25.8870 H   0  0  0  0  0  0
  -20.9313  -29.8763   21.6948 H   0  0  0  0  0  0
  -26.0193  -38.2885   24.1403 H   0  0  0  0  0  0
  -32.6516  -21.9255   18.8291 H   0  0  0  0  0  0
  -31.7327  -23.2386   19.5070 H   0  0  0  0  0  0
  -31.3935  -22.6814   17.8683 H   0  0  0  0  0  0
  -27.6179  -18.2902   21.5789 H   0  0  0  0  0  0
  -26.7385  -18.6485   20.0864 H   0  0  0  0  0  0
  -26.6542  -19.7483   21.4652 H   0  0  0  0  0  0
  -33.2938  -18.7774   17.4145 H   0  0  0  0  0  0
  -32.2520  -20.1651   17.1184 H   0  0  0  0  0  0
  -31.5586  -18.5474   17.2149 H   0  0  0  0  0  0
  -32.2447  -18.4006   19.6264 H   0  0  0  0  0  0
  -32.9431  -19.9540   19.5754 H   0  0  0  0  0  0
  -30.3419  -17.3376   19.0137 H   0  0  0  0  0  0
  -28.7475  -17.2822   19.6316 H   0  0  0  0  0  0
  -27.8682  -23.4634   19.3626 H   0  0  0  0  0  0
  -29.4030  -23.8200   18.6612 H   0  0  0  0  0  0
  -30.2795  -24.7249   20.7066 H   0  0  0  0  0  0
  -29.2158  -23.7460   21.6652 H   0  0  0  0  0  0
  -29.7703  -17.3146   22.0256 H   0  0  0  0  0  0
  -31.3284  -17.0706   21.2865 H   0  0  0  0  0  0
  -28.4087  -25.9037   22.0034 H   0  0  0  0  0  0
  -27.2435  -25.1074   20.9930 H   0  0  0  0  0  0
  -29.0448  -15.1949   21.4553 H   0  0  0  0  0  0
  1 25  1  0  0  0
  1 30  2  0  0  0
  1 86  1  0  0  0
  2  3  1  0  0  0
  2 25  1  0  0  0
  2 87  1  0  0  0
  2 88  1  0  0  0
  3  4  1  0  0  0
  3 89  1  0  0  0
  3 90  1  0  0  0
  4  5  1  0  0  0
  4 91  1  0  0  0
  4 92  1  0  0  0
  5  6  1  0  0  0
  5 26  1  0  0  0
  5 93  1  0  0  0
  6 25  1  0  0  0
  6 94  1  0  0  0
  6 95  1  0  0  0
  7  8  2  0  0  0
  7 26  1  0  0  0
  7 29  1  0  0  0
  8  9  1  0  0  0
  8 22  1  0  0  0
  9 10  1  0  0  0
  9 27  2  0  0  0
 10 11  2  0  0  0
 10 15  1  0  0  0
 11 12  1  0  0  0
 11 96  1  0  0  0
 12 13  2  0  0  0
 12 97  1  0  0  0
 13 14  1  0  0  0
 13 31  1  0  0  0
 14 15  2  0  0  0
 14 98  1  0  0  0
 15 99  1  0  0  0
 16 17  2  0  0  0
 16 21  1  0  0  0
 16 31  1  0  0  0
 17 18  1  0  0  0
 17100  1  0  0  0
 18 19  2  0  0  0
 18101  1  0  0  0
 19 20  1  0  0  0
 19 24  1  0  0  0
 20 21  2  0  0  0
 20102  1  0  0  0
 21 23  1  0  0  0
 22 28  1  0  0  0
 22 32  2  0  0  0
 26 27  1  0  0  0
 28103  1  0  0  0
 28104  1  0  0  0
 29105  1  0  0  0
 29106  1  0  0  0
 33 34  1  0  0  0
 33 66  1  0  0  0
 33 70  2  0  0  0
 34 36  1  0  0  0
 34 59  1  0  0  0
 34107  1  0  0  0
 35 44  2  0  0  0
 35 45  1  0  0  0
 35 68  1  0  0  0
 36 56  1  0  0  0
 36108  1  0  0  0
 37 39  1  0  0  0
 37 47  1  0  0  0
 37 66  1  0  0  0
 37109  1  0  0  0
 38 43  2  0  0  0
 38 46  1  0  0  0
 38 47  1  0  0  0
 39 64  1  0  0  0
 39 67  2  0  0  0
 40 52  1  0  0  0
 40 53  2  0  0  0
 40 58  1  0  0  0
 41110  1  0  0  0
 41111  1  0  0  0
 41112  1  0  0  0
 41 48  1  0  0  0
 42 43  1  0  0  0
 42 66  1  0  0  0
 42113  1  0  0  0
 42114  1  0  0  0
 43 44  1  0  0  0
 44115  1  0  0  0
 45 46  2  0  0  0
 45116  1  0  0  0
 46117  1  0  0  0
 47118  1  0  0  0
 47119  1  0  0  0
 48 56  1  0  0  0
 48 65  1  0  0  0
 48120  1  0  0  0
 49 50  1  0  0  0
 49 53  1  0  0  0
 49 64  1  0  0  0
 49121  1  0  0  0
 50 51  1  0  0  0
 50122  1  0  0  0
 50123  1  0  0  0
 51 52  1  0  0  0
 51124  1  0  0  0
 51125  1  0  0  0
 52126  1  0  0  0
 52127  1  0  0  0
 53 54  1  0  0  0
 54 55  2  0  0  0
 54128  1  0  0  0
 55 57  1  0  0  0
 55129  1  0  0  0
 56 69  2  0  0  0
 57 58  2  0  0  0
 57130  1  0  0  0
 58131  1  0  0  0
 59 60  1  0  0  0
 59 61  1  0  0  0
 59 62  1  0  0  0
 60132  1  0  0  0
 60133  1  0  0  0
 60134  1  0  0  0
 61135  1  0  0  0
 61136  1  0  0  0
 61137  1  0  0  0
 62138  1  0  0  0
 62139  1  0  0  0
 62140  1  0  0  0
 63 65  1  0  0  0
 63141  1  0  0  0
 63142  1  0  0  0
 63143  1  0  0  0
 64144  1  0  0  0
 65145  1  0  0  0
 68 84  1  0  0  0
 71 72  2  0  0  0
 71 73  1  0  0  0
 71 79  1  0  0  0
 72 74  1  0  0  0
 72 76  1  0  0  0
 73 75  2  0  0  0
 73 80  1  0  0  0
 74 81  1  0  0  0
 74 85  2  0  0  0
 75 77  1  0  0  0
 75 85  1  0  0  0
 76146  1  0  0  0
 76147  1  0  0  0
 76148  1  0  0  0
 77149  1  0  0  0
 77150  1  0  0  0
 77151  1  0  0  0
 78 79  1  0  0  0
 78152  1  0  0  0
 78153  1  0  0  0
 78154  1  0  0  0
 79155  1  0  0  0
 79156  1  0  0  0
 80 83  1  0  0  0
 80157  1  0  0  0
 80158  1  0  0  0
 81 82  1  0  0  0
 81159  1  0  0  0
 81160  1  0  0  0
 82 84  1  0  0  0
 82161  1  0  0  0
 82162  1  0  0  0
 83 86  1  0  0  0
 83163  1  0  0  0
 83164  1  0  0  0
 84165  1  0  0  0
 84166  1  0  0  0
 86167  1  0  0  0
M  ISO  4   1 100  68 101  84 101  86 100
M  END
> <chiral flag>
0

> <version>
0

> <s_m_source_file>
/data/baiqing/PycharmProjects/Reinvent-master-3.2/result/LINK_invent/BTK/process_docking_weight1_custom_sum_contain_oxygen_bond_distance_aromatic_linkinvent_7_9_3/rearranged_h_0088.sdf

> <i_m_source_file_index>
69

> <r_mmod_Potential_Energy-OPLS-2005>
-308.608215332031

> <r_mmod_Stretch_Energy-OPLS-2005>
41.5248222351074

> <r_mmod_Bend_Energy-OPLS-2005>
99.6398468017578

> <r_mmod_Torsional_Energy-OPLS-2005>
223.737716674805

> <r_mmod_Improper_Torsional_Energy-OPLS-2005>
4.01238822937012

> <r_mmod_Van_der_Waal_Energy-OPLS-2005>
153.257171630859

> <r_mmod_Electrostatic_Energy-OPLS-2005>
-621.906372070312

> <r_mmod_Solvation_Energy-OPLS-2005>
-222.13037109375

> <b_mmod_Minimization_Converged-OPLS-2005>
0

> <r_mmod_RMS_Derivative-OPLS-2005>
1.60460209846497

$$$$
71
                    3D
 Structure written by MMmdl.
170178  0  0  1  0            999 V2000
  -30.5990  -14.6980   20.4846 C   0  0  0  0  0  0
  -30.4447  -12.4292   19.4442 C   0  0  0  0  0  0
  -29.5046  -12.4986   18.2194 C   0  0  0  0  0  0
  -28.0306  -12.3280   18.6414 C   0  0  0  0  0  0
  -27.6479  -13.2172   19.8536 C   0  0  2  0  0  0
  -28.6992  -13.1020   20.9790 C   0  0  0  0  0  0
  -25.2556  -13.8165   20.5724 C   0  0  0  0  0  0
  -24.1829  -13.0438   20.9219 C   0  0  0  0  0  0
  -24.6393  -11.6902   20.8754 C   0  0  0  0  0  0
  -23.9062  -10.4296   21.0414 C   0  0  0  0  0  0
  -24.3610   -9.4214   21.9195 C   0  0  0  0  0  0
  -23.6289   -8.2249   22.0753 C   0  0  0  0  0  0
  -22.4275   -8.0287   21.3540 C   0  0  0  0  0  0
  -21.9909   -9.0263   20.4648 C   0  0  0  0  0  0
  -22.7232  -10.2147   20.3062 C   0  0  0  0  0  0
  -21.6854   -6.0741   22.5287 C   0  0  0  0  0  0
  -21.4015   -6.5645   23.8225 C   0  0  0  0  0  0
  -21.3651   -5.6798   24.9184 C   0  0  0  0  0  0
  -21.6040   -4.3060   24.7233 C   0  0  0  0  0  0
  -21.8816   -3.8153   23.4353 C   0  0  0  0  0  0
  -21.9196   -4.6972   22.3406 C   0  0  0  0  0  0
  -22.7853  -13.5229   21.1891 C   0  0  0  0  0  0
  -22.1664   -4.2158   21.0983 F   0  0  0  0  0  0
  -21.5626   -3.4535   25.7744 F   0  0  0  0  0  0
  -30.0013  -13.4641   20.3992 N   0  0  0  0  0  0
  -26.2972  -12.9347   20.3302 N   0  0  0  0  0  0
  -25.9315  -11.6510   20.5752 N   0  0  0  0  0  0
  -22.0485  -12.8217   22.0434 N   0  0  0  0  0  0
  -25.4244  -15.1895   20.4151 N   0  0  0  0  0  0
  -31.7880  -14.8542   20.2001 O   0  0  0  0  0  0
  -21.6633   -6.8884   21.4246 O   0  0  0  0  0  0
  -22.3551  -14.5550   20.6753 O   0  0  0  0  0  0
  -24.6314  -31.8586   23.1999 C   0  0  0  0  0  0
  -25.9133  -32.4774   23.8368 C   0  0  1  0  0  0
  -27.2269  -27.2737   20.1216 C   0  0  0  0  0  0
  -25.5902  -33.8580   24.2280 N   0  0  0  0  0  0
  -23.4296  -30.4802   21.5450 C   0  0  2  0  0  0
  -24.8781  -28.9325   20.1108 C   0  0  0  0  0  0
  -22.7515  -29.4617   22.4939 C   0  0  0  0  0  0
  -18.0301  -28.1349   22.8501 C   0  0  0  0  0  0
  -24.1496  -36.7295   23.2642 C   0  0  0  0  0  0
  -25.9757  -30.7716   21.3815 C   0  0  0  0  0  0
  -26.0496  -29.3969   20.7214 C   0  0  0  0  0  0
  -27.2263  -28.5792   20.7172 C   0  0  0  0  0  0
  -26.0290  -26.8789   19.4799 C   0  0  0  0  0  0
  -24.8727  -27.6812   19.4789 C   0  0  0  0  0  0
  -23.6479  -29.8165   20.1607 C   0  0  0  0  0  0
  -25.4121  -36.3094   24.0331 C   0  0  1  0  0  0
  -20.5903  -28.3691   23.1255 C   0  0  2  0  0  0
  -20.6802  -26.9409   22.5399 C   0  0  0  0  0  0
  -19.5774  -26.6365   21.5212 C   0  0  0  0  0  0
  -18.1948  -26.7899   22.1627 C   0  0  0  0  0  0
  -19.1548  -28.8842   23.2875 C   0  0  0  0  0  0
  -18.9473  -30.1429   23.8907 C   0  0  0  0  0  0
  -17.6479  -30.6570   24.0552 C   0  0  0  0  0  0
  -25.9059  -34.9463   23.5120 C   0  0  0  0  0  0
  -16.5368  -29.9069   23.6307 C   0  0  0  0  0  0
  -16.7282  -28.6461   23.0371 C   0  0  0  0  0  0
  -26.4499  -31.6589   25.0749 C   0  0  0  0  0  0
  -25.3699  -31.3694   26.1445 C   0  0  0  0  0  0
  -27.0344  -30.3010   24.6215 C   0  0  0  0  0  0
  -27.6068  -32.4340   25.7495 C   0  0  0  0  0  0
  -27.5602  -37.1796   24.8456 C   0  0  0  0  0  0
  -21.4224  -29.3051   22.3654 N   0  0  0  0  0  0
  -26.4309  -37.3780   23.9403 N   0  0  0  0  0  0
  -24.6982  -31.0537   22.0983 N   0  0  0  0  0  0
  -23.4206  -28.8152   23.3037 O   0  0  0  0  0  0
  -28.3270  -26.3822   20.1850 O   0  0  0  0  0  0
  -26.5667  -34.8928   22.4710 O   0  0  0  0  0  0
  -23.5447  -32.1413   23.7268 O   0  0  0  0  0  0
  -27.5224  -21.9161   19.4198 C   0  0  0  0  0  0
  -29.6007  -21.0559   20.2847 C   0  0  0  0  0  0
  -28.7547  -22.2142   20.0368 C   0  0  0  0  0  0
  -27.1908  -20.5887   19.0902 C   0  0  0  0  0  0
  -29.1863  -19.7075   19.9345 C   0  0  0  0  0  0
  -31.5370  -18.6635   19.6405 C   0  0  0  0  0  0
  -25.1208  -20.5005   14.4806 C   0  0  0  0  0  0
  -24.9116  -18.3820   15.8352 C   0  0  0  0  0  0
  -29.1227  -23.7368   20.3489 C   0  0  0  0  0  0
  -25.9403  -20.2848   18.2862 C   0  0  0  0  0  0
  -26.2078  -20.3774   16.7710 C   0  0  0  0  0  0
  -29.9016  -17.2410   21.0407 C   0  0  0  0  0  0
  -28.0801  -24.9161   19.9645 C   0  0  0  0  0  0
  -30.0553  -18.3627   19.9011 C   0  0  1  0  0  0
  -25.0223  -19.9163   15.8972 C   0  0  0  0  0  0
  -27.9815  -19.5292   19.3570 N   0  0  0  0  0  0
  -29.7510  -15.7597   20.7077 N   0  0  0  0  0  0
  -31.4804  -12.5760   19.1331 H   0  0  0  0  0  0
  -30.4070  -11.4410   19.9062 H   0  0  0  0  0  0
  -29.7724  -11.7301   17.4927 H   0  0  0  0  0  0
  -29.6339  -13.4562   17.7131 H   0  0  0  0  0  0
  -27.8816  -11.2781   18.8968 H   0  0  0  0  0  0
  -27.3684  -12.5308   17.7987 H   0  0  0  0  0  0
  -27.6538  -14.2442   19.4903 H   0  0  0  0  0  0
  -28.7291  -12.0859   21.3760 H   0  0  0  0  0  0
  -28.4438  -13.7452   21.8232 H   0  0  0  0  0  0
  -25.2746   -9.5702   22.4784 H   0  0  0  0  0  0
  -24.0001   -7.4638   22.7473 H   0  0  0  0  0  0
  -21.0837   -8.8789   19.8948 H   0  0  0  0  0  0
  -22.3683  -10.9700   19.6183 H   0  0  0  0  0  0
  -21.2002   -7.6156   23.9734 H   0  0  0  0  0  0
  -21.1470   -6.0521   25.9090 H   0  0  0  0  0  0
  -22.0597   -2.7615   23.2853 H   0  0  0  0  0  0
  -22.4074  -11.9851   22.4802 H   0  0  0  0  0  0
  -21.1114  -13.1267   22.2655 H   0  0  0  0  0  0
  -24.6532  -15.8361   20.5362 H   0  0  0  0  0  0
  -26.2626  -15.6375   20.0698 H   0  0  0  0  0  0
  -26.7217  -32.5446   23.1132 H   0  0  0  0  0  0
  -24.9963  -33.9703   25.0370 H   0  0  0  0  0  0
  -22.7258  -31.3028   21.4004 H   0  0  0  0  0  0
  -23.3768  -35.9625   23.3285 H   0  0  0  0  0  0
  -24.3565  -36.8941   22.2056 H   0  0  0  0  0  0
  -23.7243  -37.6479   23.6686 H   0  0  0  0  0  0
  -26.1187  -31.5361   20.6168 H   0  0  0  0  0  0
  -26.8508  -30.8170   22.0178 H   0  0  0  0  0  0
  -28.1235  -28.9264   21.2116 H   0  0  0  0  0  0
  -25.9488  -25.9258   18.9793 H   0  0  0  0  0  0
  -23.9746  -27.3199   18.9950 H   0  0  0  0  0  0
  -23.7668  -30.5940   19.4058 H   0  0  0  0  0  0
  -22.7667  -29.2462   19.8600 H   0  0  0  0  0  0
  -25.1299  -36.1967   25.0823 H   0  0  0  0  0  0
  -21.0004  -28.3301   24.1368 H   0  0  0  0  0  0
  -20.5697  -26.2329   23.3624 H   0  0  0  0  0  0
  -21.6679  -26.7442   22.1208 H   0  0  0  0  0  0
  -19.6943  -25.6275   21.1247 H   0  0  0  0  0  0
  -19.6682  -27.3192   20.6750 H   0  0  0  0  0  0
  -17.4226  -26.6659   21.4004 H   0  0  0  0  0  0
  -18.0317  -26.0002   22.8977 H   0  0  0  0  0  0
  -19.7950  -30.7215   24.2298 H   0  0  0  0  0  0
  -17.5041  -31.6250   24.5165 H   0  0  0  0  0  0
  -15.5368  -30.2993   23.7598 H   0  0  0  0  0  0
  -15.8678  -28.0772   22.7118 H   0  0  0  0  0  0
  -24.5942  -30.6980   25.7737 H   0  0  0  0  0  0
  -24.8797  -32.2828   26.4829 H   0  0  0  0  0  0
  -25.8011  -30.8902   27.0249 H   0  0  0  0  0  0
  -26.2925  -29.6736   24.1273 H   0  0  0  0  0  0
  -27.4050  -29.7292   25.4731 H   0  0  0  0  0  0
  -27.8797  -30.4255   23.9453 H   0  0  0  0  0  0
  -27.2701  -33.3677   26.2022 H   0  0  0  0  0  0
  -28.3878  -32.6844   25.0299 H   0  0  0  0  0  0
  -28.0749  -31.8498   26.5426 H   0  0  0  0  0  0
  -28.2603  -38.0113   24.7543 H   0  0  0  0  0  0
  -28.1124  -36.2642   24.6257 H   0  0  0  0  0  0
  -27.2304  -37.1402   25.8854 H   0  0  0  0  0  0
  -20.9424  -29.8741   21.6819 H   0  0  0  0  0  0
  -26.0202  -38.2858   24.1407 H   0  0  0  0  0  0
  -26.8332  -22.7015   19.1474 H   0  0  0  0  0  0
  -30.5848  -21.2110   20.7040 H   0  0  0  0  0  0
  -31.6611  -19.2456   18.7264 H   0  0  0  0  0  0
  -32.1091  -17.7419   19.5237 H   0  0  0  0  0  0
  -31.9782  -19.2271   20.4612 H   0  0  0  0  0  0
  -24.2817  -20.1778   13.8619 H   0  0  0  0  0  0
  -26.0385  -20.1935   13.9790 H   0  0  0  0  0  0
  -25.1034  -21.5918   14.5037 H   0  0  0  0  0  0
  -24.0814  -18.0697   15.2002 H   0  0  0  0  0  0
  -24.7367  -17.9504   16.8218 H   0  0  0  0  0  0
  -25.8184  -17.9292   15.4314 H   0  0  0  0  0  0
  -30.0719  -23.9451   19.8536 H   0  0  0  0  0  0
  -29.3275  -23.8033   21.4171 H   0  0  0  0  0  0
  -25.1510  -20.9827   18.5678 H   0  0  0  0  0  0
  -25.5807  -19.2913   18.5526 H   0  0  0  0  0  0
  -27.0949  -19.7947   16.5129 H   0  0  0  0  0  0
  -26.4616  -21.4137   16.5417 H   0  0  0  0  0  0
  -28.9897  -17.4872   21.5856 H   0  0  0  0  0  0
  -30.6960  -17.3551   21.7797 H   0  0  0  0  0  0
  -27.1602  -24.6670   20.4966 H   0  0  0  0  0  0
  -27.8658  -24.8017   18.9005 H   0  0  0  0  0  0
  -29.7167  -17.8586   18.9940 H   0  0  0  0  0  0
  -24.1036  -20.3055   16.3401 H   0  0  0  0  0  0
  -28.7968  -15.4452   20.7941 H   0  0  0  0  0  0
  1 25  1  0  0  0
  1 30  2  0  0  0
  1 87  1  0  0  0
  2  3  1  0  0  0
  2 25  1  0  0  0
  2 88  1  0  0  0
  2 89  1  0  0  0
  3  4  1  0  0  0
  3 90  1  0  0  0
  3 91  1  0  0  0
  4  5  1  0  0  0
  4 92  1  0  0  0
  4 93  1  0  0  0
  5  6  1  0  0  0
  5 26  1  0  0  0
  5 94  1  0  0  0
  6 25  1  0  0  0
  6 95  1  0  0  0
  6 96  1  0  0  0
  7  8  2  0  0  0
  7 26  1  0  0  0
  7 29  1  0  0  0
  8  9  1  0  0  0
  8 22  1  0  0  0
  9 10  1  0  0  0
  9 27  2  0  0  0
 10 11  2  0  0  0
 10 15  1  0  0  0
 11 12  1  0  0  0
 11 97  1  0  0  0
 12 13  2  0  0  0
 12 98  1  0  0  0
 13 14  1  0  0  0
 13 31  1  0  0  0
 14 15  2  0  0  0
 14 99  1  0  0  0
 15100  1  0  0  0
 16 17  2  0  0  0
 16 21  1  0  0  0
 16 31  1  0  0  0
 17 18  1  0  0  0
 17101  1  0  0  0
 18 19  2  0  0  0
 18102  1  0  0  0
 19 20  1  0  0  0
 19 24  1  0  0  0
 20 21  2  0  0  0
 20103  1  0  0  0
 21 23  1  0  0  0
 22 28  1  0  0  0
 22 32  2  0  0  0
 26 27  1  0  0  0
 28104  1  0  0  0
 28105  1  0  0  0
 29106  1  0  0  0
 29107  1  0  0  0
 33 34  1  0  0  0
 33 66  1  0  0  0
 33 70  2  0  0  0
 34 36  1  0  0  0
 34 59  1  0  0  0
 34108  1  0  0  0
 35 44  2  0  0  0
 35 45  1  0  0  0
 35 68  1  0  0  0
 36 56  1  0  0  0
 36109  1  0  0  0
 37 39  1  0  0  0
 37 47  1  0  0  0
 37 66  1  0  0  0
 37110  1  0  0  0
 38 43  2  0  0  0
 38 46  1  0  0  0
 38 47  1  0  0  0
 39 64  1  0  0  0
 39 67  2  0  0  0
 40 52  1  0  0  0
 40 53  2  0  0  0
 40 58  1  0  0  0
 41111  1  0  0  0
 41112  1  0  0  0
 41113  1  0  0  0
 41 48  1  0  0  0
 42 43  1  0  0  0
 42 66  1  0  0  0
 42114  1  0  0  0
 42115  1  0  0  0
 43 44  1  0  0  0
 44116  1  0  0  0
 45 46  2  0  0  0
 45117  1  0  0  0
 46118  1  0  0  0
 47119  1  0  0  0
 47120  1  0  0  0
 48 56  1  0  0  0
 48 65  1  0  0  0
 48121  1  0  0  0
 49 50  1  0  0  0
 49 53  1  0  0  0
 49 64  1  0  0  0
 49122  1  0  0  0
 50 51  1  0  0  0
 50123  1  0  0  0
 50124  1  0  0  0
 51 52  1  0  0  0
 51125  1  0  0  0
 51126  1  0  0  0
 52127  1  0  0  0
 52128  1  0  0  0
 53 54  1  0  0  0
 54 55  2  0  0  0
 54129  1  0  0  0
 55 57  1  0  0  0
 55130  1  0  0  0
 56 69  2  0  0  0
 57 58  2  0  0  0
 57131  1  0  0  0
 58132  1  0  0  0
 59 60  1  0  0  0
 59 61  1  0  0  0
 59 62  1  0  0  0
 60133  1  0  0  0
 60134  1  0  0  0
 60135  1  0  0  0
 61136  1  0  0  0
 61137  1  0  0  0
 61138  1  0  0  0
 62139  1  0  0  0
 62140  1  0  0  0
 62141  1  0  0  0
 63 65  1  0  0  0
 63142  1  0  0  0
 63143  1  0  0  0
 63144  1  0  0  0
 64145  1  0  0  0
 65146  1  0  0  0
 68 83  1  0  0  0
 71 73  2  0  0  0
 71 74  1  0  0  0
 71147  1  0  0  0
 72 73  1  0  0  0
 72 75  2  0  0  0
 72148  1  0  0  0
 73 79  1  0  0  0
 74 80  1  0  0  0
 74 86  2  0  0  0
 75 84  1  0  0  0
 75 86  1  0  0  0
 76149  1  0  0  0
 76150  1  0  0  0
 76151  1  0  0  0
 76 84  1  0  0  0
 77152  1  0  0  0
 77153  1  0  0  0
 77154  1  0  0  0
 77 85  1  0  0  0
 78 85  1  0  0  0
 78155  1  0  0  0
 78156  1  0  0  0
 78157  1  0  0  0
 79 83  1  0  0  0
 79158  1  0  0  0
 79159  1  0  0  0
 80 81  1  0  0  0
 80160  1  0  0  0
 80161  1  0  0  0
 81 85  1  0  0  0
 81162  1  0  0  0
 81163  1  0  0  0
 82 84  1  0  0  0
 82 87  1  0  0  0
 82164  1  0  0  0
 82165  1  0  0  0
 83166  1  0  0  0
 83167  1  0  0  0
 84168  1  0  0  0
 85169  1  0  0  0
 87170  1  0  0  0
M  ISO  4   1 100  68 101  83 101  87 100
M  END
> <chiral flag>
0

> <version>
0

> <s_m_source_file>
/data/baiqing/PycharmProjects/Reinvent-master-3.2/result/LINK_invent/BTK/process_docking_weight1_custom_sum_contain_oxygen_bond_distance_aromatic_linkinvent_7_9_3/rearranged_h_0088.sdf

> <i_m_source_file_index>
70

> <r_mmod_Potential_Energy-OPLS-2005>
11.3674793243408

> <r_mmod_Stretch_Energy-OPLS-2005>
116.026176452637

> <r_mmod_Bend_Energy-OPLS-2005>
180.955764770508

> <r_mmod_Torsional_Energy-OPLS-2005>
216.772262573242

> <r_mmod_Improper_Torsional_Energy-OPLS-2005>
5.78987073898315

> <r_mmod_Van_der_Waal_Energy-OPLS-2005>
138.089172363281

> <r_mmod_Electrostatic_Energy-OPLS-2005>
-511.21728515625

> <r_mmod_Solvation_Energy-OPLS-2005>
-208.476608276367

> <b_mmod_Minimization_Converged-OPLS-2005>
0

> <r_mmod_RMS_Derivative-OPLS-2005>
2.73157978057861

$$$$
72
                    3D
 Structure written by MMmdl.
160168  0  0  1  0            999 V2000
  -30.6229  -14.7084   20.4839 C   0  0  0  0  0  0
  -30.4287  -12.4304   19.4916 C   0  0  0  0  0  0
  -29.5160  -12.5004   18.2478 C   0  0  0  0  0  0
  -28.0390  -12.3319   18.6540 C   0  0  0  0  0  0
  -27.6432  -13.2299   19.8576 C   0  0  2  0  0  0
  -28.6810  -13.1538   20.9990 C   0  0  0  0  0  0
  -25.2496  -13.8174   20.5691 C   0  0  0  0  0  0
  -24.1793  -13.0420   20.9203 C   0  0  0  0  0  0
  -24.6389  -11.6901   20.8744 C   0  0  0  0  0  0
  -23.9073  -10.4277   21.0398 C   0  0  0  0  0  0
  -24.3633   -9.4194   21.9183 C   0  0  0  0  0  0
  -23.6298   -8.2231   22.0755 C   0  0  0  0  0  0
  -22.4280   -8.0273   21.3548 C   0  0  0  0  0  0
  -21.9919   -9.0239   20.4643 C   0  0  0  0  0  0
  -22.7250  -10.2115   20.3048 C   0  0  0  0  0  0
  -21.6857   -6.0732   22.5274 C   0  0  0  0  0  0
  -21.4015   -6.5634   23.8205 C   0  0  0  0  0  0
  -21.3659   -5.6786   24.9164 C   0  0  0  0  0  0
  -21.6047   -4.3053   24.7221 C   0  0  0  0  0  0
  -21.8818   -3.8149   23.4342 C   0  0  0  0  0  0
  -21.9197   -4.6961   22.3395 C   0  0  0  0  0  0
  -22.7821  -13.5207   21.1864 C   0  0  0  0  0  0
  -22.1665   -4.2156   21.0974 F   0  0  0  0  0  0
  -21.5633   -3.4533   25.7730 F   0  0  0  0  0  0
  -29.9896  -13.4906   20.4252 N   0  0  0  0  0  0
  -26.2937  -12.9393   20.3301 N   0  0  0  0  0  0
  -25.9324  -11.6538   20.5761 N   0  0  0  0  0  0
  -22.0483  -12.8187   22.0427 N   0  0  0  0  0  0
  -25.4165  -15.1892   20.4067 N   0  0  0  0  0  0
  -31.8013  -14.8135   20.1349 O   0  0  0  0  0  0
  -21.6647   -6.8870   21.4236 O   0  0  0  0  0  0
  -22.3507  -14.5517   20.6715 O   0  0  0  0  0  0
  -24.6279  -31.8548   23.2005 C   0  0  0  0  0  0
  -25.9111  -32.4757   23.8345 C   0  0  1  0  0  0
  -27.2229  -27.2997   20.1380 C   0  0  0  0  0  0
  -25.5920  -33.8555   24.2272 N   0  0  0  0  0  0
  -23.4231  -30.4770   21.5421 C   0  0  2  0  0  0
  -24.8719  -28.9245   20.1155 C   0  0  0  0  0  0
  -22.7468  -29.4598   22.4929 C   0  0  0  0  0  0
  -18.0268  -28.1388   22.8469 C   0  0  0  0  0  0
  -24.1479  -36.7280   23.2642 C   0  0  0  0  0  0
  -25.9632  -30.7853   21.3693 C   0  0  0  0  0  0
  -26.0407  -29.4083   20.7174 C   0  0  0  0  0  0
  -27.2246  -28.6101   20.7104 C   0  0  0  0  0  0
  -26.0342  -26.8643   19.5178 C   0  0  0  0  0  0
  -24.8717  -27.6608   19.5017 C   0  0  0  0  0  0
  -23.6400  -29.8057   20.1597 C   0  0  0  0  0  0
  -25.4106  -36.3065   24.0333 C   0  0  1  0  0  0
  -20.5868  -28.3693   23.1262 C   0  0  2  0  0  0
  -20.6756  -26.9415   22.5395 C   0  0  0  0  0  0
  -19.5748  -26.6382   21.5184 C   0  0  0  0  0  0
  -18.1924  -26.7932   22.1596 C   0  0  0  0  0  0
  -19.1523  -28.8857   23.2864 C   0  0  0  0  0  0
  -18.9452  -30.1453   23.8897 C   0  0  0  0  0  0
  -17.6459  -30.6596   24.0559 C   0  0  0  0  0  0
  -25.9041  -34.9439   23.5102 C   0  0  0  0  0  0
  -16.5347  -29.9093   23.6342 C   0  0  0  0  0  0
  -16.7255  -28.6503   23.0367 C   0  0  0  0  0  0
  -26.4513  -31.6581   25.0718 C   0  0  0  0  0  0
  -25.3754  -31.3707   26.1448 C   0  0  0  0  0  0
  -27.0377  -30.3010   24.6169 C   0  0  0  0  0  0
  -27.6057  -32.4337   25.7492 C   0  0  0  0  0  0
  -27.5575  -37.1792   24.8463 C   0  0  0  0  0  0
  -21.4180  -29.3045   22.3668 N   0  0  0  0  0  0
  -26.4276  -37.3767   23.9425 N   0  0  0  0  0  0
  -24.6906  -31.0564   22.0950 N   0  0  0  0  0  0
  -23.4172  -28.8134   23.3024 O   0  0  0  0  0  0
  -28.3291  -26.4378   20.1431 O   0  0  0  0  0  0
  -26.5607  -34.8906   22.4662 O   0  0  0  0  0  0
  -23.5438  -32.1327   23.7341 O   0  0  0  0  0  0
  -28.3012  -23.7454   18.6435 C   0  0  0  0  0  0
  -28.5543  -22.5720   17.9110 C   0  0  0  0  0  0
  -28.9286  -22.5371   20.6567 C   0  0  0  0  0  0
  -28.5015  -23.7767   20.0316 C   0  0  0  0  0  0
  -29.0241  -21.3838   18.5198 C   0  0  0  0  0  0
  -29.2058  -21.3038   19.9340 C   0  0  0  0  0  0
  -29.3575  -20.2469   17.5666 C   0  0  0  0  0  0
  -28.0902  -18.2589   19.7041 C   0  0  0  0  0  0
  -28.1804  -25.1136   20.8099 C   0  0  0  0  0  0
  -30.3155  -17.2888   20.5936 C   0  0  0  0  0  0
  -29.8822  -20.0156   20.6112 C   0  0  2  0  0  0
  -29.2563  -18.5089   20.6700 C   0  0  1  0  0  0
  -29.8683  -15.8390   20.7346 N   0  0  0  0  0  0
  -30.3296  -20.3057   21.9229 O   0  0  0  0  0  0
  -31.4757  -12.5392   19.2052 H   0  0  0  0  0  0
  -30.3544  -11.4543   19.9735 H   0  0  0  0  0  0
  -29.7993  -11.7264   17.5337 H   0  0  0  0  0  0
  -29.6542  -13.4564   17.7397 H   0  0  0  0  0  0
  -27.8930  -11.2833   18.9164 H   0  0  0  0  0  0
  -27.3853  -12.5239   17.8022 H   0  0  0  0  0  0
  -27.6410  -14.2537   19.4829 H   0  0  0  0  0  0
  -28.7041  -12.1560   21.4383 H   0  0  0  0  0  0
  -28.4166  -13.8359   21.8095 H   0  0  0  0  0  0
  -25.2764   -9.5684   22.4772 H   0  0  0  0  0  0
  -24.0015   -7.4624   22.7469 H   0  0  0  0  0  0
  -21.0864   -8.8731   19.8942 H   0  0  0  0  0  0
  -22.3691  -10.9653   19.6157 H   0  0  0  0  0  0
  -21.1997   -7.6137   23.9718 H   0  0  0  0  0  0
  -21.1493   -6.0510   25.9069 H   0  0  0  0  0  0
  -22.0610   -2.7618   23.2830 H   0  0  0  0  0  0
  -22.4113  -11.9831   22.4784 H   0  0  0  0  0  0
  -21.1103  -13.1197   22.2642 H   0  0  0  0  0  0
  -24.6374  -15.8330   20.4905 H   0  0  0  0  0  0
  -26.2511  -15.6265   20.0418 H   0  0  0  0  0  0
  -26.7181  -32.5426   23.1097 H   0  0  0  0  0  0
  -25.0124  -33.9700   25.0456 H   0  0  0  0  0  0
  -22.7192  -31.2981   21.3940 H   0  0  0  0  0  0
  -23.3746  -35.9601   23.3264 H   0  0  0  0  0  0
  -24.3595  -36.8938   22.2069 H   0  0  0  0  0  0
  -23.7211  -37.6461   23.6687 H   0  0  0  0  0  0
  -26.0874  -31.5452   20.5969 H   0  0  0  0  0  0
  -26.8453  -30.8419   21.9958 H   0  0  0  0  0  0
  -28.1266  -28.9784   21.1795 H   0  0  0  0  0  0
  -25.9973  -25.8887   19.0544 H   0  0  0  0  0  0
  -23.9768  -27.2876   19.0240 H   0  0  0  0  0  0
  -23.7601  -30.5762   19.3972 H   0  0  0  0  0  0
  -22.7605  -29.2328   19.8596 H   0  0  0  0  0  0
  -25.1285  -36.1917   25.0824 H   0  0  0  0  0  0
  -20.9949  -28.3270   24.1385 H   0  0  0  0  0  0
  -20.5634  -26.2307   23.3598 H   0  0  0  0  0  0
  -21.6631  -26.7439   22.1208 H   0  0  0  0  0  0
  -19.6919  -25.6280   21.1246 H   0  0  0  0  0  0
  -19.6706  -27.3161   20.6691 H   0  0  0  0  0  0
  -17.4191  -26.6658   21.4007 H   0  0  0  0  0  0
  -18.0348  -26.0074   22.8994 H   0  0  0  0  0  0
  -19.7933  -30.7256   24.2280 H   0  0  0  0  0  0
  -17.5022  -31.6289   24.5142 H   0  0  0  0  0  0
  -15.5354  -30.3007   23.7676 H   0  0  0  0  0  0
  -15.8639  -28.0822   22.7120 H   0  0  0  0  0  0
  -24.5926  -30.7056   25.7782 H   0  0  0  0  0  0
  -24.8950  -32.2867   26.4895 H   0  0  0  0  0  0
  -25.8090  -30.8879   27.0211 H   0  0  0  0  0  0
  -26.2957  -29.6738   24.1210 H   0  0  0  0  0  0
  -27.4106  -29.7295   25.4682 H   0  0  0  0  0  0
  -27.8801  -30.4310   23.9367 H   0  0  0  0  0  0
  -27.2642  -33.3636   26.2051 H   0  0  0  0  0  0
  -28.3871  -32.6902   25.0326 H   0  0  0  0  0  0
  -28.0709  -31.8478   26.5429 H   0  0  0  0  0  0
  -28.2560  -38.0123   24.7553 H   0  0  0  0  0  0
  -28.1108  -36.2659   24.6225 H   0  0  0  0  0  0
  -27.2313  -37.1358   25.8869 H   0  0  0  0  0  0
  -20.9366  -29.8786   21.6880 H   0  0  0  0  0  0
  -26.0148  -38.2828   24.1462 H   0  0  0  0  0  0
  -27.9582  -24.6319   18.1273 H   0  0  0  0  0  0
  -28.4110  -22.6016   16.8393 H   0  0  0  0  0  0
  -29.0870  -22.5533   21.7259 H   0  0  0  0  0  0
  -29.8315  -20.6397   16.6664 H   0  0  0  0  0  0
  -28.4431  -19.7422   17.2523 H   0  0  0  0  0  0
  -30.0408  -19.5103   17.9834 H   0  0  0  0  0  0
  -27.4674  -17.4374   20.0549 H   0  0  0  0  0  0
  -28.4422  -17.9812   18.7125 H   0  0  0  0  0  0
  -27.4470  -19.1340   19.6184 H   0  0  0  0  0  0
  -28.8366  -25.1398   21.6804 H   0  0  0  0  0  0
  -27.1765  -25.0164   21.2229 H   0  0  0  0  0  0
  -31.0839  -17.4647   21.3485 H   0  0  0  0  0  0
  -30.8347  -17.3683   19.6367 H   0  0  0  0  0  0
  -30.8100  -19.9121   20.0475 H   0  0  0  0  0  0
  -28.7794  -18.4323   21.6493 H   0  0  0  0  0  0
  -28.9062  -15.6823   20.9954 H   0  0  0  0  0  0
  -29.5596  -20.4121   22.4708 H   0  0  0  0  0  0
  1 25  1  0  0  0
  1 30  2  0  0  0
  1 83  1  0  0  0
  2  3  1  0  0  0
  2 25  1  0  0  0
  2 85  1  0  0  0
  2 86  1  0  0  0
  3  4  1  0  0  0
  3 87  1  0  0  0
  3 88  1  0  0  0
  4  5  1  0  0  0
  4 89  1  0  0  0
  4 90  1  0  0  0
  5  6  1  0  0  0
  5 26  1  0  0  0
  5 91  1  0  0  0
  6 25  1  0  0  0
  6 92  1  0  0  0
  6 93  1  0  0  0
  7  8  2  0  0  0
  7 26  1  0  0  0
  7 29  1  0  0  0
  8  9  1  0  0  0
  8 22  1  0  0  0
  9 10  1  0  0  0
  9 27  2  0  0  0
 10 11  2  0  0  0
 10 15  1  0  0  0
 11 12  1  0  0  0
 11 94  1  0  0  0
 12 13  2  0  0  0
 12 95  1  0  0  0
 13 14  1  0  0  0
 13 31  1  0  0  0
 14 15  2  0  0  0
 14 96  1  0  0  0
 15 97  1  0  0  0
 16 17  2  0  0  0
 16 21  1  0  0  0
 16 31  1  0  0  0
 17 18  1  0  0  0
 17 98  1  0  0  0
 18 19  2  0  0  0
 18 99  1  0  0  0
 19 20  1  0  0  0
 19 24  1  0  0  0
 20 21  2  0  0  0
 20100  1  0  0  0
 21 23  1  0  0  0
 22 28  1  0  0  0
 22 32  2  0  0  0
 26 27  1  0  0  0
 28101  1  0  0  0
 28102  1  0  0  0
 29103  1  0  0  0
 29104  1  0  0  0
 33 34  1  0  0  0
 33 66  1  0  0  0
 33 70  2  0  0  0
 34 36  1  0  0  0
 34 59  1  0  0  0
 34105  1  0  0  0
 35 44  2  0  0  0
 35 45  1  0  0  0
 35 68  1  0  0  0
 36 56  1  0  0  0
 36106  1  0  0  0
 37 39  1  0  0  0
 37 47  1  0  0  0
 37 66  1  0  0  0
 37107  1  0  0  0
 38 43  2  0  0  0
 38 46  1  0  0  0
 38 47  1  0  0  0
 39 64  1  0  0  0
 39 67  2  0  0  0
 40 52  1  0  0  0
 40 53  2  0  0  0
 40 58  1  0  0  0
 41108  1  0  0  0
 41109  1  0  0  0
 41110  1  0  0  0
 41 48  1  0  0  0
 42 43  1  0  0  0
 42 66  1  0  0  0
 42111  1  0  0  0
 42112  1  0  0  0
 43 44  1  0  0  0
 44113  1  0  0  0
 45 46  2  0  0  0
 45114  1  0  0  0
 46115  1  0  0  0
 47116  1  0  0  0
 47117  1  0  0  0
 48 56  1  0  0  0
 48 65  1  0  0  0
 48118  1  0  0  0
 49 50  1  0  0  0
 49 53  1  0  0  0
 49 64  1  0  0  0
 49119  1  0  0  0
 50 51  1  0  0  0
 50120  1  0  0  0
 50121  1  0  0  0
 51 52  1  0  0  0
 51122  1  0  0  0
 51123  1  0  0  0
 52124  1  0  0  0
 52125  1  0  0  0
 53 54  1  0  0  0
 54 55  2  0  0  0
 54126  1  0  0  0
 55 57  1  0  0  0
 55127  1  0  0  0
 56 69  2  0  0  0
 57 58  2  0  0  0
 57128  1  0  0  0
 58129  1  0  0  0
 59 60  1  0  0  0
 59 61  1  0  0  0
 59 62  1  0  0  0
 60130  1  0  0  0
 60131  1  0  0  0
 60132  1  0  0  0
 61133  1  0  0  0
 61134  1  0  0  0
 61135  1  0  0  0
 62136  1  0  0  0
 62137  1  0  0  0
 62138  1  0  0  0
 63 65  1  0  0  0
 63139  1  0  0  0
 63140  1  0  0  0
 63141  1  0  0  0
 64142  1  0  0  0
 65143  1  0  0  0
 68 79  1  0  0  0
 71 72  2  0  0  0
 71 74  1  0  0  0
 71144  1  0  0  0
 72 75  1  0  0  0
 72145  1  0  0  0
 73 74  2  0  0  0
 73 76  1  0  0  0
 73146  1  0  0  0
 74 79  1  0  0  0
 75 76  2  0  0  0
 75 77  1  0  0  0
 76 81  1  0  0  0
 77147  1  0  0  0
 77148  1  0  0  0
 77149  1  0  0  0
 78150  1  0  0  0
 78151  1  0  0  0
 78152  1  0  0  0
 78 82  1  0  0  0
 79153  1  0  0  0
 79154  1  0  0  0
 80 82  1  0  0  0
 80 83  1  0  0  0
 80155  1  0  0  0
 80156  1  0  0  0
 81 82  1  0  0  0
 81 84  1  0  0  0
 81157  1  0  0  0
 82158  1  0  0  0
 83159  1  0  0  0
 84160  1  0  0  0
M  ISO  4   1 100  68 101  79 101  83 100
M  END
> <chiral flag>
0

> <version>
0

> <s_m_source_file>
/data/baiqing/PycharmProjects/Reinvent-master-3.2/result/LINK_invent/BTK/process_docking_weight1_custom_sum_contain_oxygen_bond_distance_aromatic_linkinvent_7_9_3/rearranged_h_0088.sdf

> <i_m_source_file_index>
71

> <r_mmod_Potential_Energy-OPLS-2005>
122.576187133789

> <r_mmod_Stretch_Energy-OPLS-2005>
112.183586120605

> <r_mmod_Bend_Energy-OPLS-2005>
159.362060546875

> <r_mmod_Torsional_Energy-OPLS-2005>
243.696212768555

> <r_mmod_Improper_Torsional_Energy-OPLS-2005>
5.83266639709473

> <r_mmod_Van_der_Waal_Energy-OPLS-2005>
136.269638061523

> <r_mmod_Electrostatic_Energy-OPLS-2005>
-380.233276367188

> <r_mmod_Solvation_Energy-OPLS-2005>
-221.2685546875

> <b_mmod_Minimization_Converged-OPLS-2005>
0

> <r_mmod_RMS_Derivative-OPLS-2005>
1.95226120948792

$$$$
73
                    3D
 Structure written by MMmdl.
167175  0  0  1  0            999 V2000
  -30.7189  -14.4698   20.5450 C   0  0  0  0  0  0
  -30.4179  -12.3007   19.4246 C   0  0  0  0  0  0
  -29.4888  -12.4927   18.2101 C   0  0  0  0  0  0
  -28.0126  -12.3517   18.6265 C   0  0  0  0  0  0
  -27.6608  -13.2079   19.8733 C   0  0  2  0  0  0
  -28.7080  -13.0064   20.9965 C   0  0  0  0  0  0
  -25.2561  -13.8169   20.5655 C   0  0  0  0  0  0
  -24.1821  -13.0443   20.9169 C   0  0  0  0  0  0
  -24.6378  -11.6913   20.8712 C   0  0  0  0  0  0
  -23.9041  -10.4298   21.0369 C   0  0  0  0  0  0
  -24.3596   -9.4217   21.9149 C   0  0  0  0  0  0
  -23.6270   -8.2255   22.0729 C   0  0  0  0  0  0
  -22.4256   -8.0270   21.3526 C   0  0  0  0  0  0
  -21.9883   -9.0245   20.4640 C   0  0  0  0  0  0
  -22.7211  -10.2121   20.3037 C   0  0  0  0  0  0
  -21.6872   -6.0698   22.5274 C   0  0  0  0  0  0
  -21.4045   -6.5615   23.8203 C   0  0  0  0  0  0
  -21.3651   -5.6771   24.9165 C   0  0  0  0  0  0
  -21.6032   -4.3029   24.7233 C   0  0  0  0  0  0
  -21.8830   -3.8116   23.4359 C   0  0  0  0  0  0
  -21.9207   -4.6920   22.3404 C   0  0  0  0  0  0
  -22.7848  -13.5225   21.1805 C   0  0  0  0  0  0
  -22.1643   -4.2093   21.0987 F   0  0  0  0  0  0
  -21.5626   -3.4520   25.7743 F   0  0  0  0  0  0
  -30.0345  -13.2992   20.4354 N   0  0  0  0  0  0
  -26.3018  -12.9346   20.3394 N   0  0  0  0  0  0
  -25.9317  -11.6501   20.5797 N   0  0  0  0  0  0
  -22.0481  -12.8245   22.0387 N   0  0  0  0  0  0
  -25.4259  -15.1888   20.3992 N   0  0  0  0  0  0
  -31.8641  -14.6109   20.1108 O   0  0  0  0  0  0
  -21.6636   -6.8851   21.4246 O   0  0  0  0  0  0
  -22.3515  -14.5509   20.6610 O   0  0  0  0  0  0
  -24.6136  -31.8674   23.2096 C   0  0  0  0  0  0
  -25.9028  -32.4827   23.8387 C   0  0  1  0  0  0
  -27.2215  -27.4161   20.1005 C   0  0  0  0  0  0
  -25.5880  -33.8624   24.2320 N   0  0  0  0  0  0
  -23.4030  -30.4941   21.5497 C   0  0  2  0  0  0
  -24.8468  -28.9633   20.1113 C   0  0  0  0  0  0
  -22.7404  -29.4664   22.4961 C   0  0  0  0  0  0
  -18.0265  -28.1390   22.8503 C   0  0  0  0  0  0
  -24.1466  -36.7321   23.2640 C   0  0  0  0  0  0
  -25.9338  -30.8323   21.3631 C   0  0  0  0  0  0
  -26.0094  -29.4654   20.7088 C   0  0  0  0  0  0
  -27.2014  -28.6998   20.6987 C   0  0  0  0  0  0
  -26.0433  -26.9469   19.4767 C   0  0  0  0  0  0
  -24.8589  -27.7050   19.4903 C   0  0  0  0  0  0
  -23.6115  -29.8324   20.1626 C   0  0  0  0  0  0
  -25.4089  -36.3109   24.0334 C   0  0  1  0  0  0
  -20.5858  -28.3673   23.1314 C   0  0  2  0  0  0
  -20.6753  -26.9409   22.5421 C   0  0  0  0  0  0
  -19.5726  -26.6393   21.5221 C   0  0  0  0  0  0
  -18.1905  -26.7935   22.1637 C   0  0  0  0  0  0
  -19.1521  -28.8845   23.2906 C   0  0  0  0  0  0
  -18.9447  -30.1448   23.8921 C   0  0  0  0  0  0
  -17.6449  -30.6592   24.0578 C   0  0  0  0  0  0
  -25.9030  -34.9481   23.5131 C   0  0  0  0  0  0
  -16.5339  -29.9108   23.6320 C   0  0  0  0  0  0
  -16.7253  -28.6522   23.0349 C   0  0  0  0  0  0
  -26.4469  -31.6608   25.0715 C   0  0  0  0  0  0
  -25.3739  -31.3739   26.1477 C   0  0  0  0  0  0
  -27.0283  -30.3034   24.6091 C   0  0  0  0  0  0
  -27.6032  -32.4347   25.7488 C   0  0  0  0  0  0
  -27.5571  -37.1802   24.8462 C   0  0  0  0  0  0
  -21.4129  -29.3048   22.3727 N   0  0  0  0  0  0
  -26.4276  -37.3794   23.9422 N   0  0  0  0  0  0
  -24.6693  -31.0760   22.1012 N   0  0  0  0  0  0
  -23.4185  -28.8196   23.2989 O   0  0  0  0  0  0
  -28.3832  -26.6635   20.1187 O   0  0  0  0  0  0
  -26.5603  -34.8939   22.4701 O   0  0  0  0  0  0
  -23.5319  -32.1434   23.7480 O   0  0  0  0  0  0
  -27.3260  -22.4651   18.9284 C   0  0  0  0  0  0
  -29.4818  -21.8562   19.8006 C   0  0  0  0  0  0
  -28.6137  -22.8832   19.3323 C   0  0  0  0  0  0
  -26.9841  -21.1007   18.9571 C   0  0  0  0  0  0
  -29.0639  -20.5007   19.7831 C   0  0  0  0  0  0
  -25.6045  -20.6461   18.5289 C   0  0  0  0  0  0
  -31.4568  -24.0954   18.2816 C   0  0  0  0  0  0
  -28.5833  -24.9201   17.8139 C   0  0  0  0  0  0
  -30.0367  -19.3638   20.1336 C   0  0  0  0  0  0
  -30.5323  -24.6390   19.3894 C   0  0  0  0  0  0
  -29.4271  -17.9611   20.4560 C   0  0  0  0  0  0
  -30.4950  -16.9331   20.9202 C   0  0  0  0  0  0
  -28.2623  -25.2282   20.2971 C   0  0  0  0  0  0
  -29.0048  -24.3904   19.2082 C   0  0  2  0  0  0
  -27.8382  -20.1368   19.3517 N   0  0  0  0  0  0
  -30.0151  -15.5338   20.9833 N   0  0  0  0  0  0
  -31.4608  -12.3884   19.1164 H   0  0  0  0  0  0
  -30.3171  -11.2940   19.8325 H   0  0  0  0  0  0
  -29.7336  -11.7678   17.4325 H   0  0  0  0  0  0
  -29.6500  -13.4803   17.7762 H   0  0  0  0  0  0
  -27.8240  -11.2956   18.8328 H   0  0  0  0  0  0
  -27.3589  -12.6134   17.7927 H   0  0  0  0  0  0
  -27.6989  -14.2527   19.5600 H   0  0  0  0  0  0
  -28.6936  -11.9770   21.3577 H   0  0  0  0  0  0
  -28.4772  -13.6284   21.8623 H   0  0  0  0  0  0
  -25.2729   -9.5686   22.4728 H   0  0  0  0  0  0
  -23.9956   -7.4662   22.7465 H   0  0  0  0  0  0
  -21.0799   -8.8806   19.8949 H   0  0  0  0  0  0
  -22.3675  -10.9666   19.6159 H   0  0  0  0  0  0
  -21.2060   -7.6124   23.9704 H   0  0  0  0  0  0
  -21.1446   -6.0479   25.9063 H   0  0  0  0  0  0
  -22.0620   -2.7565   23.2888 H   0  0  0  0  0  0
  -22.4067  -11.9934   22.4855 H   0  0  0  0  0  0
  -21.1110  -13.1307   22.2589 H   0  0  0  0  0  0
  -24.6653  -15.8514   20.5096 H   0  0  0  0  0  0
  -26.2782  -15.6243   20.0702 H   0  0  0  0  0  0
  -26.7120  -32.5533   23.1175 H   0  0  0  0  0  0
  -24.9996  -33.9801   25.0438 H   0  0  0  0  0  0
  -22.6905  -31.3099   21.4082 H   0  0  0  0  0  0
  -23.3731  -35.9652   23.3295 H   0  0  0  0  0  0
  -24.3564  -36.8947   22.2057 H   0  0  0  0  0  0
  -23.7213  -37.6521   23.6661 H   0  0  0  0  0  0
  -26.0379  -31.6009   20.5963 H   0  0  0  0  0  0
  -26.8283  -30.8927   21.9731 H   0  0  0  0  0  0
  -28.0982  -29.0785   21.1691 H   0  0  0  0  0  0
  -26.0182  -25.9954   18.9677 H   0  0  0  0  0  0
  -23.9687  -27.3170   19.0159 H   0  0  0  0  0  0
  -23.7254  -30.6114   19.4076 H   0  0  0  0  0  0
  -22.7342  -29.2560   19.8612 H   0  0  0  0  0  0
  -25.1261  -36.1985   25.0824 H   0  0  0  0  0  0
  -20.9938  -28.3244   24.1436 H   0  0  0  0  0  0
  -20.5640  -26.2283   23.3610 H   0  0  0  0  0  0
  -21.6622  -26.7440   22.1210 H   0  0  0  0  0  0
  -19.6887  -25.6307   21.1239 H   0  0  0  0  0  0
  -19.6664  -27.3217   20.6760 H   0  0  0  0  0  0
  -17.4163  -26.6676   21.4053 H   0  0  0  0  0  0
  -18.0311  -26.0087   22.9041 H   0  0  0  0  0  0
  -19.7925  -30.7263   24.2286 H   0  0  0  0  0  0
  -17.5010  -31.6268   24.5196 H   0  0  0  0  0  0
  -15.5347  -30.3032   23.7610 H   0  0  0  0  0  0
  -15.8648  -28.0851   22.7046 H   0  0  0  0  0  0
  -24.5888  -30.7112   25.7842 H   0  0  0  0  0  0
  -24.8969  -32.2906   26.4939 H   0  0  0  0  0  0
  -25.8101  -30.8902   27.0225 H   0  0  0  0  0  0
  -26.2820  -29.6822   24.1128 H   0  0  0  0  0  0
  -27.4027  -29.7252   25.4553 H   0  0  0  0  0  0
  -27.8674  -30.4344   23.9255 H   0  0  0  0  0  0
  -27.2621  -33.3634   26.2086 H   0  0  0  0  0  0
  -28.3834  -32.6945   25.0320 H   0  0  0  0  0  0
  -28.0716  -31.8468   26.5393 H   0  0  0  0  0  0
  -28.2584  -38.0102   24.7507 H   0  0  0  0  0  0
  -28.1064  -36.2632   24.6276 H   0  0  0  0  0  0
  -27.2293  -37.1452   25.8865 H   0  0  0  0  0  0
  -20.9263  -29.8825   21.7020 H   0  0  0  0  0  0
  -26.0164  -38.2867   24.1458 H   0  0  0  0  0  0
  -26.5936  -23.1773   18.5817 H   0  0  0  0  0  0
  -30.4827  -22.0835   20.1373 H   0  0  0  0  0  0
  -25.3435  -21.0840   17.5645 H   0  0  0  0  0  0
  -24.8587  -20.9549   19.2619 H   0  0  0  0  0  0
  -25.5567  -19.5616   18.4276 H   0  0  0  0  0  0
  -31.3254  -23.0268   18.1090 H   0  0  0  0  0  0
  -32.5052  -24.2541   18.5376 H   0  0  0  0  0  0
  -31.2811  -24.6111   17.3375 H   0  0  0  0  0  0
  -28.9914  -24.3103   17.0083 H   0  0  0  0  0  0
  -28.9240  -25.9423   17.6599 H   0  0  0  0  0  0
  -27.5044  -24.9308   17.6755 H   0  0  0  0  0  0
  -30.6348  -19.6923   20.9850 H   0  0  0  0  0  0
  -30.7268  -19.2673   19.2950 H   0  0  0  0  0  0
  -30.7082  -25.7130   19.4492 H   0  0  0  0  0  0
  -30.8553  -24.2515   20.3547 H   0  0  0  0  0  0
  -28.9214  -17.5843   19.5652 H   0  0  0  0  0  0
  -28.6592  -18.0643   21.2245 H   0  0  0  0  0  0
  -30.8860  -17.2126   21.8986 H   0  0  0  0  0  0
  -31.3395  -17.0087   20.2316 H   0  0  0  0  0  0
  -28.6872  -24.9845   21.2719 H   0  0  0  0  0  0
  -27.2265  -24.9012   20.3800 H   0  0  0  0  0  0
  -29.0811  -15.3637   21.3281 H   0  0  0  0  0  0
  1 25  1  0  0  0
  1 30  2  0  0  0
  1 86  1  0  0  0
  2  3  1  0  0  0
  2 25  1  0  0  0
  2 87  1  0  0  0
  2 88  1  0  0  0
  3  4  1  0  0  0
  3 89  1  0  0  0
  3 90  1  0  0  0
  4  5  1  0  0  0
  4 91  1  0  0  0
  4 92  1  0  0  0
  5  6  1  0  0  0
  5 26  1  0  0  0
  5 93  1  0  0  0
  6 25  1  0  0  0
  6 94  1  0  0  0
  6 95  1  0  0  0
  7  8  2  0  0  0
  7 26  1  0  0  0
  7 29  1  0  0  0
  8  9  1  0  0  0
  8 22  1  0  0  0
  9 10  1  0  0  0
  9 27  2  0  0  0
 10 11  2  0  0  0
 10 15  1  0  0  0
 11 12  1  0  0  0
 11 96  1  0  0  0
 12 13  2  0  0  0
 12 97  1  0  0  0
 13 14  1  0  0  0
 13 31  1  0  0  0
 14 15  2  0  0  0
 14 98  1  0  0  0
 15 99  1  0  0  0
 16 17  2  0  0  0
 16 21  1  0  0  0
 16 31  1  0  0  0
 17 18  1  0  0  0
 17100  1  0  0  0
 18 19  2  0  0  0
 18101  1  0  0  0
 19 20  1  0  0  0
 19 24  1  0  0  0
 20 21  2  0  0  0
 20102  1  0  0  0
 21 23  1  0  0  0
 22 28  1  0  0  0
 22 32  2  0  0  0
 26 27  1  0  0  0
 28103  1  0  0  0
 28104  1  0  0  0
 29105  1  0  0  0
 29106  1  0  0  0
 33 34  1  0  0  0
 33 66  1  0  0  0
 33 70  2  0  0  0
 34 36  1  0  0  0
 34 59  1  0  0  0
 34107  1  0  0  0
 35 44  2  0  0  0
 35 45  1  0  0  0
 35 68  1  0  0  0
 36 56  1  0  0  0
 36108  1  0  0  0
 37 39  1  0  0  0
 37 47  1  0  0  0
 37 66  1  0  0  0
 37109  1  0  0  0
 38 43  2  0  0  0
 38 46  1  0  0  0
 38 47  1  0  0  0
 39 64  1  0  0  0
 39 67  2  0  0  0
 40 52  1  0  0  0
 40 53  2  0  0  0
 40 58  1  0  0  0
 41110  1  0  0  0
 41111  1  0  0  0
 41112  1  0  0  0
 41 48  1  0  0  0
 42 43  1  0  0  0
 42 66  1  0  0  0
 42113  1  0  0  0
 42114  1  0  0  0
 43 44  1  0  0  0
 44115  1  0  0  0
 45 46  2  0  0  0
 45116  1  0  0  0
 46117  1  0  0  0
 47118  1  0  0  0
 47119  1  0  0  0
 48 56  1  0  0  0
 48 65  1  0  0  0
 48120  1  0  0  0
 49 50  1  0  0  0
 49 53  1  0  0  0
 49 64  1  0  0  0
 49121  1  0  0  0
 50 51  1  0  0  0
 50122  1  0  0  0
 50123  1  0  0  0
 51 52  1  0  0  0
 51124  1  0  0  0
 51125  1  0  0  0
 52126  1  0  0  0
 52127  1  0  0  0
 53 54  1  0  0  0
 54 55  2  0  0  0
 54128  1  0  0  0
 55 57  1  0  0  0
 55129  1  0  0  0
 56 69  2  0  0  0
 57 58  2  0  0  0
 57130  1  0  0  0
 58131  1  0  0  0
 59 60  1  0  0  0
 59 61  1  0  0  0
 59 62  1  0  0  0
 60132  1  0  0  0
 60133  1  0  0  0
 60134  1  0  0  0
 61135  1  0  0  0
 61136  1  0  0  0
 61137  1  0  0  0
 62138  1  0  0  0
 62139  1  0  0  0
 62140  1  0  0  0
 63 65  1  0  0  0
 63141  1  0  0  0
 63142  1  0  0  0
 63143  1  0  0  0
 64144  1  0  0  0
 65145  1  0  0  0
 68 83  1  0  0  0
 71 73  2  0  0  0
 71 74  1  0  0  0
 71146  1  0  0  0
 72 73  1  0  0  0
 72 75  2  0  0  0
 72147  1  0  0  0
 73 84  1  0  0  0
 74 76  1  0  0  0
 74 85  2  0  0  0
 75 79  1  0  0  0
 75 85  1  0  0  0
 76148  1  0  0  0
 76149  1  0  0  0
 76150  1  0  0  0
 77 80  1  0  0  0
 77151  1  0  0  0
 77152  1  0  0  0
 77153  1  0  0  0
 78154  1  0  0  0
 78155  1  0  0  0
 78156  1  0  0  0
 78 84  1  0  0  0
 79 81  1  0  0  0
 79157  1  0  0  0
 79158  1  0  0  0
 80 84  1  0  0  0
 80159  1  0  0  0
 80160  1  0  0  0
 81 82  1  0  0  0
 81161  1  0  0  0
 81162  1  0  0  0
 82 86  1  0  0  0
 82163  1  0  0  0
 82164  1  0  0  0
 83 84  1  0  0  0
 83165  1  0  0  0
 83166  1  0  0  0
 86167  1  0  0  0
M  ISO  4   1 100  68 101  83 101  86 100
M  END
> <chiral flag>
0

> <version>
0

> <s_m_source_file>
/data/baiqing/PycharmProjects/Reinvent-master-3.2/result/LINK_invent/BTK/process_docking_weight1_custom_sum_contain_oxygen_bond_distance_aromatic_linkinvent_7_9_3/rearranged_h_0088.sdf

> <i_m_source_file_index>
72

> <r_mmod_Potential_Energy-OPLS-2005>
-194.015350341797

> <r_mmod_Stretch_Energy-OPLS-2005>
46.2484703063965

> <r_mmod_Bend_Energy-OPLS-2005>
106.479652404785

> <r_mmod_Torsional_Energy-OPLS-2005>
222.546875

> <r_mmod_Improper_Torsional_Energy-OPLS-2005>
4.43581008911133

> <r_mmod_Van_der_Waal_Energy-OPLS-2005>
164.447280883789

> <r_mmod_Electrostatic_Energy-OPLS-2005>
-547.704711914062

> <r_mmod_Solvation_Energy-OPLS-2005>
-206.370300292969

> <b_mmod_Minimization_Converged-OPLS-2005>
0

> <r_mmod_RMS_Derivative-OPLS-2005>
3.63445901870728

$$$$
74
                    3D
 Structure written by MMmdl.
173181  0  0  1  0            999 V2000
  -30.5338  -14.9708   20.4128 C   0  0  0  0  0  0
  -30.4424  -12.6054   19.4923 C   0  0  0  0  0  0
  -29.5248  -12.5317   18.2510 C   0  0  0  0  0  0
  -28.0571  -12.3135   18.6695 C   0  0  0  0  0  0
  -27.6261  -13.2510   19.8292 C   0  0  2  0  0  0
  -28.6696  -13.2927   20.9636 C   0  0  0  0  0  0
  -25.2434  -13.8217   20.5692 C   0  0  0  0  0  0
  -24.1763  -13.0428   20.9217 C   0  0  0  0  0  0
  -24.6396  -11.6926   20.8748 C   0  0  0  0  0  0
  -23.9087  -10.4288   21.0394 C   0  0  0  0  0  0
  -24.3628   -9.4203   21.9167 C   0  0  0  0  0  0
  -23.6298   -8.2241   22.0744 C   0  0  0  0  0  0
  -22.4278   -8.0282   21.3547 C   0  0  0  0  0  0
  -21.9916   -9.0257   20.4638 C   0  0  0  0  0  0
  -22.7257  -10.2134   20.3042 C   0  0  0  0  0  0
  -21.6855   -6.0727   22.5280 C   0  0  0  0  0  0
  -21.4025   -6.5630   23.8211 C   0  0  0  0  0  0
  -21.3665   -5.6780   24.9168 C   0  0  0  0  0  0
  -21.6043   -4.3041   24.7226 C   0  0  0  0  0  0
  -21.8817   -3.8140   23.4342 C   0  0  0  0  0  0
  -21.9187   -4.6956   22.3401 C   0  0  0  0  0  0
  -22.7776  -13.5193   21.1865 C   0  0  0  0  0  0
  -22.1653   -4.2136   21.0979 F   0  0  0  0  0  0
  -21.5623   -3.4529   25.7740 F   0  0  0  0  0  0
  -29.9387  -13.7108   20.3558 N   0  0  0  0  0  0
  -26.2869  -12.9463   20.3204 N   0  0  0  0  0  0
  -25.9326  -11.6585   20.5698 N   0  0  0  0  0  0
  -22.0431  -12.8203   22.0438 N   0  0  0  0  0  0
  -25.4075  -15.1947   20.4110 N   0  0  0  0  0  0
  -31.7492  -15.0246   20.2018 O   0  0  0  0  0  0
  -21.6642   -6.8882   21.4242 O   0  0  0  0  0  0
  -22.3454  -14.5494   20.6693 O   0  0  0  0  0  0
  -24.6476  -31.8420   23.1879 C   0  0  0  0  0  0
  -25.9236  -32.4689   23.8272 C   0  0  1  0  0  0
  -27.2078  -27.1006   20.1438 C   0  0  0  0  0  0
  -25.5971  -33.8491   24.2178 N   0  0  0  0  0  0
  -23.4528  -30.4643   21.5344 C   0  0  2  0  0  0
  -24.9008  -28.8919   20.1115 C   0  0  0  0  0  0
  -22.7595  -29.4545   22.4842 C   0  0  0  0  0  0
  -18.0309  -28.1400   22.8474 C   0  0  0  0  0  0
  -24.1493  -36.7251   23.2641 C   0  0  0  0  0  0
  -26.0147  -30.7046   21.3947 C   0  0  0  0  0  0
  -26.0831  -29.3144   20.7322 C   0  0  0  0  0  0
  -27.2386  -28.4364   20.7296 C   0  0  0  0  0  0
  -25.9927  -26.7970   19.4854 C   0  0  0  0  0  0
  -24.8714  -27.6482   19.4717 C   0  0  0  0  0  0
  -23.6819  -29.7990   20.1533 C   0  0  0  0  0  0
  -25.4125  -36.3022   24.0310 C   0  0  1  0  0  0
  -20.5927  -28.3735   23.1219 C   0  0  2  0  0  0
  -20.6794  -26.9432   22.5399 C   0  0  0  0  0  0
  -19.5763  -26.6383   21.5211 C   0  0  0  0  0  0
  -18.1946  -26.7939   22.1623 C   0  0  0  0  0  0
  -19.1567  -28.8884   23.2839 C   0  0  0  0  0  0
  -18.9484  -30.1480   23.8867 C   0  0  0  0  0  0
  -17.6480  -30.6595   24.0561 C   0  0  0  0  0  0
  -25.9078  -34.9404   23.5053 C   0  0  0  0  0  0
  -16.5369  -29.9087   23.6339 C   0  0  0  0  0  0
  -16.7295  -28.6508   23.0358 C   0  0  0  0  0  0
  -26.4534  -31.6570   25.0730 C   0  0  0  0  0  0
  -25.3702  -31.3783   26.1417 C   0  0  0  0  0  0
  -27.0402  -30.2954   24.6356 C   0  0  0  0  0  0
  -27.6051  -32.4350   25.7520 C   0  0  0  0  0  0
  -27.5576  -37.1779   24.8457 C   0  0  0  0  0  0
  -21.4279  -29.3057   22.3592 N   0  0  0  0  0  0
  -26.4282  -37.3742   23.9411 N   0  0  0  0  0  0
  -24.7255  -31.0243   22.0937 N   0  0  0  0  0  0
  -23.4220  -28.8081   23.2998 O   0  0  0  0  0  0
  -28.2383  -26.0749   20.1999 O   0  0  0  0  0  0
  -26.5662  -34.8899   22.4630 O   0  0  0  0  0  0
  -23.5584  -32.1312   23.7068 O   0  0  0  0  0  0
  -29.3080  -22.7669   22.2551 C   0  0  0  0  0  0
  -29.1551  -22.0158   21.0714 C   0  0  0  0  0  0
  -29.7611  -22.2261   23.4697 C   0  0  0  0  0  0
  -29.4765  -20.5315   21.2015 C   0  0  0  0  0  0
  -30.2295  -20.8929   23.4523 C   0  0  0  0  0  0
  -28.6590  -24.2232   24.7362 C   0  0  0  0  0  0
  -29.3038  -19.3621   18.8565 C   0  0  0  0  0  0
  -29.8582  -19.3963   25.4561 C   0  0  0  0  0  0
  -31.7829  -21.0270   25.5618 C   0  0  0  0  0  0
  -31.9401  -19.1000   24.0807 C   0  0  0  0  0  0
  -29.6968  -23.0860   24.7349 C   0  0  0  0  0  0
  -28.6948  -23.0548   19.8975 C   0  0  0  0  0  0
  -30.1224  -17.6901   20.7576 C   0  0  0  0  0  0
  -27.8693  -24.5495   20.0844 C   0  0  0  0  0  0
  -29.2449  -19.1160   20.3661 C   0  0  1  0  0  0
  -30.9235  -20.1375   24.6275 C   0  0  0  0  0  0
  -29.9992  -20.1166   22.3750 N   0  0  0  0  0  0
  -29.7529  -16.1627   20.5068 N   0  0  0  0  0  0
  -31.4755  -12.7697   19.1820 H   0  0  0  0  0  0
  -30.4426  -11.6598   20.0368 H   0  0  0  0  0  0
  -29.8527  -11.7339   17.5835 H   0  0  0  0  0  0
  -29.6071  -13.4592   17.6820 H   0  0  0  0  0  0
  -27.9555  -11.2742   18.9837 H   0  0  0  0  0  0
  -27.3973  -12.4367   17.8107 H   0  0  0  0  0  0
  -27.5825  -14.2504   19.3942 H   0  0  0  0  0  0
  -28.7620  -12.3221   21.4534 H   0  0  0  0  0  0
  -28.3671  -13.9991   21.7384 H   0  0  0  0  0  0
  -25.2769   -9.5670   22.4744 H   0  0  0  0  0  0
  -23.9995   -7.4630   22.7475 H   0  0  0  0  0  0
  -21.0837   -8.8793   19.8956 H   0  0  0  0  0  0
  -22.3716  -10.9671   19.6154 H   0  0  0  0  0  0
  -21.2043   -7.6140   23.9706 H   0  0  0  0  0  0
  -21.1484   -6.0514   25.9067 H   0  0  0  0  0  0
  -22.0595   -2.7600   23.2841 H   0  0  0  0  0  0
  -22.4056  -11.9914   22.4916 H   0  0  0  0  0  0
  -21.1033  -13.1228   22.2586 H   0  0  0  0  0  0
  -24.6333  -15.8420   20.5193 H   0  0  0  0  0  0
  -26.2423  -15.6388   20.0531 H   0  0  0  0  0  0
  -26.7309  -32.5279   23.1000 H   0  0  0  0  0  0
  -25.0095  -33.9604   25.0314 H   0  0  0  0  0  0
  -22.7567  -31.2915   21.3794 H   0  0  0  0  0  0
  -23.3761  -35.9576   23.3275 H   0  0  0  0  0  0
  -24.3581  -36.8918   22.2062 H   0  0  0  0  0  0
  -23.7245  -37.6436   23.6701 H   0  0  0  0  0  0
  -26.1774  -31.4592   20.6237 H   0  0  0  0  0  0
  -26.8825  -30.7523   22.0417 H   0  0  0  0  0  0
  -28.1385  -28.7551   21.2365 H   0  0  0  0  0  0
  -25.8477  -25.8575   18.9801 H   0  0  0  0  0  0
  -23.9707  -27.3200   18.9707 H   0  0  0  0  0  0
  -23.8247  -30.5743   19.3993 H   0  0  0  0  0  0
  -22.7958  -29.2444   19.8397 H   0  0  0  0  0  0
  -25.1313  -36.1842   25.0801 H   0  0  0  0  0  0
  -21.0017  -28.3331   24.1341 H   0  0  0  0  0  0
  -20.5686  -26.2350   23.3626 H   0  0  0  0  0  0
  -21.6662  -26.7436   22.1197 H   0  0  0  0  0  0
  -19.6923  -25.6285   21.1265 H   0  0  0  0  0  0
  -19.6697  -27.3173   20.6724 H   0  0  0  0  0  0
  -17.4215  -26.6685   21.4028 H   0  0  0  0  0  0
  -18.0345  -26.0090   22.9028 H   0  0  0  0  0  0
  -19.7960  -30.7306   24.2225 H   0  0  0  0  0  0
  -17.5032  -31.6269   24.5175 H   0  0  0  0  0  0
  -15.5367  -30.2979   23.7679 H   0  0  0  0  0  0
  -15.8697  -28.0816   22.7086 H   0  0  0  0  0  0
  -24.5868  -30.7149   25.7735 H   0  0  0  0  0  0
  -24.8902  -32.2974   26.4784 H   0  0  0  0  0  0
  -25.7961  -30.8983   27.0237 H   0  0  0  0  0  0
  -26.3037  -29.6671   24.1337 H   0  0  0  0  0  0
  -27.3961  -29.7267   25.4958 H   0  0  0  0  0  0
  -27.8967  -30.4166   23.9722 H   0  0  0  0  0  0
  -27.2629  -33.3664   26.2044 H   0  0  0  0  0  0
  -28.3888  -32.6902   25.0375 H   0  0  0  0  0  0
  -28.0696  -31.8522   26.5485 H   0  0  0  0  0  0
  -28.2567  -38.0101   24.7527 H   0  0  0  0  0  0
  -28.1097  -36.2630   24.6247 H   0  0  0  0  0  0
  -27.2296  -37.1390   25.8859 H   0  0  0  0  0  0
  -20.9498  -29.8777   21.6771 H   0  0  0  0  0  0
  -26.0138  -38.2802   24.1435 H   0  0  0  0  0  0
  -29.0520  -23.8126   22.2309 H   0  0  0  0  0  0
  -28.6271  -24.7032   25.7149 H   0  0  0  0  0  0
  -27.6562  -23.8467   24.5287 H   0  0  0  0  0  0
  -28.8892  -25.0066   24.0140 H   0  0  0  0  0  0
  -28.6053  -20.1453   18.5639 H   0  0  0  0  0  0
  -29.0393  -18.4606   18.3044 H   0  0  0  0  0  0
  -30.3027  -19.6662   18.5449 H   0  0  0  0  0  0
  -29.1350  -20.0898   25.8852 H   0  0  0  0  0  0
  -30.3051  -18.8324   26.2753 H   0  0  0  0  0  0
  -29.3042  -18.6908   24.8359 H   0  0  0  0  0  0
  -31.2114  -21.6468   26.2453 H   0  0  0  0  0  0
  -32.4561  -21.6665   24.9908 H   0  0  0  0  0  0
  -32.4033  -20.4175   26.2192 H   0  0  0  0  0  0
  -31.4578  -18.3045   23.5178 H   0  0  0  0  0  0
  -32.4895  -18.6066   24.8835 H   0  0  0  0  0  0
  -32.6692  -19.5720   23.4208 H   0  0  0  0  0  0
  -30.6852  -23.4944   24.9487 H   0  0  0  0  0  0
  -29.4068  -22.4391   25.5608 H   0  0  0  0  0  0
  -28.0470  -22.4394   19.2722 H   0  0  0  0  0  0
  -29.5690  -23.2361   19.2719 H   0  0  0  0  0  0
  -30.1833  -17.6814   21.8423 H   0  0  0  0  0  0
  -31.1518  -17.8388   20.4292 H   0  0  0  0  0  0
  -27.0666  -24.3769   20.8021 H   0  0  0  0  0  0
  -27.3796  -24.5472   19.1143 H   0  0  0  0  0  0
  -28.2057  -18.8721   20.5898 H   0  0  0  0  0  0
  -28.7616  -15.9783   20.5513 H   0  0  0  0  0  0
  1 25  1  0  0  0
  1 30  2  0  0  0
  1 88  1  0  0  0
  2  3  1  0  0  0
  2 25  1  0  0  0
  2 89  1  0  0  0
  2 90  1  0  0  0
  3  4  1  0  0  0
  3 91  1  0  0  0
  3 92  1  0  0  0
  4  5  1  0  0  0
  4 93  1  0  0  0
  4 94  1  0  0  0
  5  6  1  0  0  0
  5 26  1  0  0  0
  5 95  1  0  0  0
  6 25  1  0  0  0
  6 96  1  0  0  0
  6 97  1  0  0  0
  7  8  2  0  0  0
  7 26  1  0  0  0
  7 29  1  0  0  0
  8  9  1  0  0  0
  8 22  1  0  0  0
  9 10  1  0  0  0
  9 27  2  0  0  0
 10 11  2  0  0  0
 10 15  1  0  0  0
 11 12  1  0  0  0
 11 98  1  0  0  0
 12 13  2  0  0  0
 12 99  1  0  0  0
 13 14  1  0  0  0
 13 31  1  0  0  0
 14 15  2  0  0  0
 14100  1  0  0  0
 15101  1  0  0  0
 16 17  2  0  0  0
 16 21  1  0  0  0
 16 31  1  0  0  0
 17 18  1  0  0  0
 17102  1  0  0  0
 18 19  2  0  0  0
 18103  1  0  0  0
 19 20  1  0  0  0
 19 24  1  0  0  0
 20 21  2  0  0  0
 20104  1  0  0  0
 21 23  1  0  0  0
 22 28  1  0  0  0
 22 32  2  0  0  0
 26 27  1  0  0  0
 28105  1  0  0  0
 28106  1  0  0  0
 29107  1  0  0  0
 29108  1  0  0  0
 33 34  1  0  0  0
 33 66  1  0  0  0
 33 70  2  0  0  0
 34 36  1  0  0  0
 34 59  1  0  0  0
 34109  1  0  0  0
 35 44  2  0  0  0
 35 45  1  0  0  0
 35 68  1  0  0  0
 36 56  1  0  0  0
 36110  1  0  0  0
 37 39  1  0  0  0
 37 47  1  0  0  0
 37 66  1  0  0  0
 37111  1  0  0  0
 38 43  2  0  0  0
 38 46  1  0  0  0
 38 47  1  0  0  0
 39 64  1  0  0  0
 39 67  2  0  0  0
 40 52  1  0  0  0
 40 53  2  0  0  0
 40 58  1  0  0  0
 41112  1  0  0  0
 41113  1  0  0  0
 41114  1  0  0  0
 41 48  1  0  0  0
 42 43  1  0  0  0
 42 66  1  0  0  0
 42115  1  0  0  0
 42116  1  0  0  0
 43 44  1  0  0  0
 44117  1  0  0  0
 45 46  2  0  0  0
 45118  1  0  0  0
 46119  1  0  0  0
 47120  1  0  0  0
 47121  1  0  0  0
 48 56  1  0  0  0
 48 65  1  0  0  0
 48122  1  0  0  0
 49 50  1  0  0  0
 49 53  1  0  0  0
 49 64  1  0  0  0
 49123  1  0  0  0
 50 51  1  0  0  0
 50124  1  0  0  0
 50125  1  0  0  0
 51 52  1  0  0  0
 51126  1  0  0  0
 51127  1  0  0  0
 52128  1  0  0  0
 52129  1  0  0  0
 53 54  1  0  0  0
 54 55  2  0  0  0
 54130  1  0  0  0
 55 57  1  0  0  0
 55131  1  0  0  0
 56 69  2  0  0  0
 57 58  2  0  0  0
 57132  1  0  0  0
 58133  1  0  0  0
 59 60  1  0  0  0
 59 61  1  0  0  0
 59 62  1  0  0  0
 60134  1  0  0  0
 60135  1  0  0  0
 60136  1  0  0  0
 61137  1  0  0  0
 61138  1  0  0  0
 61139  1  0  0  0
 62140  1  0  0  0
 62141  1  0  0  0
 62142  1  0  0  0
 63 65  1  0  0  0
 63143  1  0  0  0
 63144  1  0  0  0
 63145  1  0  0  0
 64146  1  0  0  0
 65147  1  0  0  0
 68 84  1  0  0  0
 71 72  2  0  0  0
 71 73  1  0  0  0
 71148  1  0  0  0
 72 74  1  0  0  0
 72 82  1  0  0  0
 73 75  2  0  0  0
 73 81  1  0  0  0
 74 85  1  0  0  0
 74 87  2  0  0  0
 75 86  1  0  0  0
 75 87  1  0  0  0
 76 81  1  0  0  0
 76149  1  0  0  0
 76150  1  0  0  0
 76151  1  0  0  0
 77152  1  0  0  0
 77153  1  0  0  0
 77154  1  0  0  0
 77 85  1  0  0  0
 78155  1  0  0  0
 78156  1  0  0  0
 78157  1  0  0  0
 78 86  1  0  0  0
 79 86  1  0  0  0
 79158  1  0  0  0
 79159  1  0  0  0
 79160  1  0  0  0
 80 86  1  0  0  0
 80161  1  0  0  0
 80162  1  0  0  0
 80163  1  0  0  0
 81164  1  0  0  0
 81165  1  0  0  0
 82 84  1  0  0  0
 82166  1  0  0  0
 82167  1  0  0  0
 83 85  1  0  0  0
 83 88  1  0  0  0
 83168  1  0  0  0
 83169  1  0  0  0
 84170  1  0  0  0
 84171  1  0  0  0
 85172  1  0  0  0
 88173  1  0  0  0
M  ISO  4   1 100  68 101  84 101  88 100
M  END
> <chiral flag>
0

> <version>
0

> <s_m_source_file>
/data/baiqing/PycharmProjects/Reinvent-master-3.2/result/LINK_invent/BTK/process_docking_weight1_custom_sum_contain_oxygen_bond_distance_aromatic_linkinvent_7_9_3/rearranged_h_0088.sdf

> <i_m_source_file_index>
73

> <r_mmod_Potential_Energy-OPLS-2005>
540.478881835938

> <r_mmod_Stretch_Energy-OPLS-2005>
317.601501464844

> <r_mmod_Bend_Energy-OPLS-2005>
403.419403076172

> <r_mmod_Torsional_Energy-OPLS-2005>
233.531341552734

> <r_mmod_Improper_Torsional_Energy-OPLS-2005>
4.93081569671631

> <r_mmod_Van_der_Waal_Energy-OPLS-2005>
155.668807983398

> <r_mmod_Electrostatic_Energy-OPLS-2005>
-581.572143554688

> <r_mmod_Solvation_Energy-OPLS-2005>
-213.510375976562

> <b_mmod_Minimization_Converged-OPLS-2005>
0

> <r_mmod_RMS_Derivative-OPLS-2005>
1.96920847892761

$$$$
75
                    3D
 Structure written by MMmdl.
165173  0  0  1  0            999 V2000
  -30.7438  -14.4091   20.6566 C   0  0  0  0  0  0
  -30.4204  -12.2984   19.4125 C   0  0  0  0  0  0
  -29.4936  -12.5157   18.2005 C   0  0  0  0  0  0
  -28.0138  -12.3804   18.6089 C   0  0  0  0  0  0
  -27.6658  -13.2063   19.8762 C   0  0  2  0  0  0
  -28.7021  -12.9610   20.9961 C   0  0  0  0  0  0
  -25.2591  -13.8169   20.5648 C   0  0  0  0  0  0
  -24.1838  -13.0434   20.9128 C   0  0  0  0  0  0
  -24.6391  -11.6901   20.8704 C   0  0  0  0  0  0
  -23.9055  -10.4284   21.0392 C   0  0  0  0  0  0
  -24.3609   -9.4206   21.9180 C   0  0  0  0  0  0
  -23.6284   -8.2239   22.0757 C   0  0  0  0  0  0
  -22.4267   -8.0264   21.3544 C   0  0  0  0  0  0
  -21.9895   -9.0242   20.4650 C   0  0  0  0  0  0
  -22.7222  -10.2118   20.3052 C   0  0  0  0  0  0
  -21.6849   -6.0725   22.5276 C   0  0  0  0  0  0
  -21.4014   -6.5628   23.8210 C   0  0  0  0  0  0
  -21.3656   -5.6783   24.9175 C   0  0  0  0  0  0
  -21.6047   -4.3044   24.7228 C   0  0  0  0  0  0
  -21.8823   -3.8131   23.4347 C   0  0  0  0  0  0
  -21.9190   -4.6951   22.3402 C   0  0  0  0  0  0
  -22.7864  -13.5243   21.1795 C   0  0  0  0  0  0
  -22.1665   -4.2135   21.0976 F   0  0  0  0  0  0
  -21.5625   -3.4528   25.7743 F   0  0  0  0  0  0
  -30.0430  -13.2593   20.4608 N   0  0  0  0  0  0
  -26.3042  -12.9335   20.3350 N   0  0  0  0  0  0
  -25.9317  -11.6493   20.5734 N   0  0  0  0  0  0
  -22.0494  -12.8265   22.0361 N   0  0  0  0  0  0
  -25.4264  -15.1897   20.4094 N   0  0  0  0  0  0
  -31.7923  -14.6687   20.0595 O   0  0  0  0  0  0
  -21.6622   -6.8866   21.4240 O   0  0  0  0  0  0
  -22.3545  -14.5532   20.6616 O   0  0  0  0  0  0
  -24.6128  -31.8690   23.2100 C   0  0  0  0  0  0
  -25.9023  -32.4832   23.8399 C   0  0  1  0  0  0
  -27.2362  -27.4487   20.0842 C   0  0  0  0  0  0
  -25.5885  -33.8632   24.2331 N   0  0  0  0  0  0
  -23.3988  -30.4919   21.5528 C   0  0  2  0  0  0
  -24.8402  -28.9569   20.1210 C   0  0  0  0  0  0
  -22.7397  -29.4671   22.5028 C   0  0  0  0  0  0
  -18.0276  -28.1346   22.8516 C   0  0  0  0  0  0
  -24.1484  -36.7314   23.2640 C   0  0  0  0  0  0
  -25.9272  -30.8379   21.3617 C   0  0  0  0  0  0
  -26.0016  -29.4736   20.7070 C   0  0  0  0  0  0
  -27.2005  -28.7286   20.6809 C   0  0  0  0  0  0
  -26.0490  -26.9379   19.5064 C   0  0  0  0  0  0
  -24.8579  -27.6863   19.5213 C   0  0  0  0  0  0
  -23.6005  -29.8188   20.1699 C   0  0  0  0  0  0
  -25.4108  -36.3130   24.0350 C   0  0  1  0  0  0
  -20.5860  -28.3635   23.1317 C   0  0  2  0  0  0
  -20.6759  -26.9375   22.5404 C   0  0  0  0  0  0
  -19.5735  -26.6371   21.5203 C   0  0  0  0  0  0
  -18.1919  -26.7897   22.1630 C   0  0  0  0  0  0
  -19.1518  -28.8809   23.2916 C   0  0  0  0  0  0
  -18.9453  -30.1421   23.8918 C   0  0  0  0  0  0
  -17.6452  -30.6566   24.0553 C   0  0  0  0  0  0
  -25.9043  -34.9489   23.5144 C   0  0  0  0  0  0
  -16.5346  -29.9065   23.6321 C   0  0  0  0  0  0
  -16.7260  -28.6466   23.0378 C   0  0  0  0  0  0
  -26.4444  -31.6614   25.0730 C   0  0  0  0  0  0
  -25.3710  -31.3733   26.1484 C   0  0  0  0  0  0
  -27.0263  -30.3056   24.6108 C   0  0  0  0  0  0
  -27.6030  -32.4329   25.7479 C   0  0  0  0  0  0
  -27.5584  -37.1813   24.8472 C   0  0  0  0  0  0
  -21.4128  -29.3022   22.3745 N   0  0  0  0  0  0
  -26.4299  -37.3812   23.9415 N   0  0  0  0  0  0
  -24.6643  -31.0813   22.0989 N   0  0  0  0  0  0
  -23.4169  -28.8230   23.3086 O   0  0  0  0  0  0
  -28.4400  -26.7715   20.0612 O   0  0  0  0  0  0
  -26.5607  -34.8938   22.4713 O   0  0  0  0  0  0
  -23.5321  -32.1427   23.7513 O   0  0  0  0  0  0
  -29.1501  -19.8255   22.0725 C   0  0  0  0  0  0
  -27.9092  -20.1141   22.5822 C   0  0  0  0  0  0
  -27.2003  -18.8859   22.4133 C   0  0  0  0  0  0
  -25.7979  -18.5480   22.8321 C   0  0  0  0  0  0
  -27.3768  -21.1920   24.7684 C   0  0  0  0  0  0
  -27.9565  -23.2306   21.4535 C   0  0  0  0  0  0
  -28.2035  -24.7558   21.4079 C   0  0  0  0  0  0
  -28.1325  -22.6828   22.8860 C   0  0  0  0  0  0
  -30.2067  -17.7428   21.0032 C   0  0  0  0  0  0
  -30.7621  -16.5951   21.8867 C   0  0  0  0  0  0
  -28.4488  -25.3402   20.0052 C   0  0  0  0  0  0
  -27.3786  -21.3784   23.2411 C   0  0  1  0  0  0
  -27.9324  -17.9432   21.8368 N   0  0  0  0  0  0
  -29.1382  -18.5122   21.6354 N   0  0  0  0  0  0
  -30.2165  -15.2732   21.5400 N   0  0  0  0  0  0
  -31.4646  -12.3981   19.1098 H   0  0  0  0  0  0
  -30.3201  -11.2795   19.7895 H   0  0  0  0  0  0
  -29.7272  -11.7922   17.4179 H   0  0  0  0  0  0
  -29.6737  -13.5022   17.7715 H   0  0  0  0  0  0
  -27.8134  -11.3232   18.7879 H   0  0  0  0  0  0
  -27.3689  -12.6696   17.7776 H   0  0  0  0  0  0
  -27.7194  -14.2578   19.5930 H   0  0  0  0  0  0
  -28.6677  -11.9206   21.3242 H   0  0  0  0  0  0
  -28.4450  -13.5452   21.8784 H   0  0  0  0  0  0
  -25.2761   -9.5681   22.4743 H   0  0  0  0  0  0
  -23.9983   -7.4637   22.7493 H   0  0  0  0  0  0
  -21.0817   -8.8757   19.8981 H   0  0  0  0  0  0
  -22.3679  -10.9645   19.6146 H   0  0  0  0  0  0
  -21.2011   -7.6135   23.9718 H   0  0  0  0  0  0
  -21.1480   -6.0508   25.9081 H   0  0  0  0  0  0
  -22.0606   -2.7593   23.2848 H   0  0  0  0  0  0
  -22.4082  -11.9938   22.4792 H   0  0  0  0  0  0
  -21.1120  -13.1333   22.2535 H   0  0  0  0  0  0
  -24.6649  -15.8430   20.5538 H   0  0  0  0  0  0
  -26.3003  -15.6474   20.1765 H   0  0  0  0  0  0
  -26.7111  -32.5539   23.1178 H   0  0  0  0  0  0
  -25.0060  -33.9800   25.0487 H   0  0  0  0  0  0
  -22.6883  -31.3095   21.4138 H   0  0  0  0  0  0
  -23.3748  -35.9643   23.3328 H   0  0  0  0  0  0
  -24.3580  -36.8892   22.2048 H   0  0  0  0  0  0
  -23.7216  -37.6523   23.6626 H   0  0  0  0  0  0
  -26.0473  -31.6055   20.5955 H   0  0  0  0  0  0
  -26.8110  -30.8827   21.9865 H   0  0  0  0  0  0
  -28.0989  -29.1347   21.1247 H   0  0  0  0  0  0
  -26.0119  -25.9757   19.0219 H   0  0  0  0  0  0
  -23.9655  -27.2770   19.0679 H   0  0  0  0  0  0
  -23.6976  -30.5838   19.3999 H   0  0  0  0  0  0
  -22.7249  -29.2305   19.8883 H   0  0  0  0  0  0
  -25.1279  -36.2023   25.0842 H   0  0  0  0  0  0
  -20.9972  -28.3182   24.1426 H   0  0  0  0  0  0
  -20.5642  -26.2252   23.3594 H   0  0  0  0  0  0
  -21.6633  -26.7410   22.1205 H   0  0  0  0  0  0
  -19.6891  -25.6286   21.1217 H   0  0  0  0  0  0
  -19.6646  -27.3191   20.6738 H   0  0  0  0  0  0
  -17.4186  -26.6657   21.4033 H   0  0  0  0  0  0
  -18.0318  -26.0011   22.9000 H   0  0  0  0  0  0
  -19.7933  -30.7230   24.2284 H   0  0  0  0  0  0
  -17.5016  -31.6252   24.5143 H   0  0  0  0  0  0
  -15.5346  -30.2981   23.7618 H   0  0  0  0  0  0
  -15.8667  -28.0776   22.7110 H   0  0  0  0  0  0
  -24.5869  -30.7092   25.7832 H   0  0  0  0  0  0
  -24.8901  -32.2888   26.4934 H   0  0  0  0  0  0
  -25.8041  -30.8899   27.0248 H   0  0  0  0  0  0
  -26.2801  -29.6854   24.1122 H   0  0  0  0  0  0
  -27.3988  -29.7271   25.4572 H   0  0  0  0  0  0
  -27.8666  -30.4381   23.9290 H   0  0  0  0  0  0
  -27.2649  -33.3633   26.2062 H   0  0  0  0  0  0
  -28.3806  -32.6883   25.0267 H   0  0  0  0  0  0
  -28.0730  -31.8452   26.5377 H   0  0  0  0  0  0
  -28.2633  -38.0087   24.7523 H   0  0  0  0  0  0
  -28.1050  -36.2622   24.6297 H   0  0  0  0  0  0
  -27.2308  -37.1468   25.8879 H   0  0  0  0  0  0
  -20.9284  -29.8733   21.6961 H   0  0  0  0  0  0
  -26.0205  -38.2906   24.1371 H   0  0  0  0  0  0
  -30.0379  -20.4379   21.9980 H   0  0  0  0  0  0
  -25.2015  -19.4417   23.0097 H   0  0  0  0  0  0
  -25.7996  -17.9695   23.7557 H   0  0  0  0  0  0
  -25.2865  -17.9559   22.0731 H   0  0  0  0  0  0
  -26.7610  -20.3433   25.0689 H   0  0  0  0  0  0
  -26.9798  -22.0694   25.2820 H   0  0  0  0  0  0
  -28.3860  -21.0210   25.1457 H   0  0  0  0  0  0
  -28.6331  -22.7072   20.7759 H   0  0  0  0  0  0
  -26.9463  -23.0349   21.0900 H   0  0  0  0  0  0
  -29.0606  -25.0110   22.0339 H   0  0  0  0  0  0
  -27.3444  -25.2530   21.8617 H   0  0  0  0  0  0
  -27.7586  -23.4517   23.5643 H   0  0  0  0  0  0
  -29.1936  -22.5914   23.1218 H   0  0  0  0  0  0
  -29.8540  -17.3618   20.0443 H   0  0  0  0  0  0
  -31.0145  -18.4366   20.7663 H   0  0  0  0  0  0
  -30.5617  -16.8003   22.9387 H   0  0  0  0  0  0
  -31.8502  -16.5746   21.8032 H   0  0  0  0  0  0
  -27.7696  -24.9276   19.2634 H   0  0  0  0  0  0
  -29.4419  -25.0367   19.6725 H   0  0  0  0  0  0
  -26.3384  -21.5289   22.9469 H   0  0  0  0  0  0
  -29.3626  -14.9954   22.0009 H   0  0  0  0  0  0
  1 25  1  0  0  0
  1 30  2  0  0  0
  1 85  1  0  0  0
  2  3  1  0  0  0
  2 25  1  0  0  0
  2 86  1  0  0  0
  2 87  1  0  0  0
  3  4  1  0  0  0
  3 88  1  0  0  0
  3 89  1  0  0  0
  4  5  1  0  0  0
  4 90  1  0  0  0
  4 91  1  0  0  0
  5  6  1  0  0  0
  5 26  1  0  0  0
  5 92  1  0  0  0
  6 25  1  0  0  0
  6 93  1  0  0  0
  6 94  1  0  0  0
  7  8  2  0  0  0
  7 26  1  0  0  0
  7 29  1  0  0  0
  8  9  1  0  0  0
  8 22  1  0  0  0
  9 10  1  0  0  0
  9 27  2  0  0  0
 10 11  2  0  0  0
 10 15  1  0  0  0
 11 12  1  0  0  0
 11 95  1  0  0  0
 12 13  2  0  0  0
 12 96  1  0  0  0
 13 14  1  0  0  0
 13 31  1  0  0  0
 14 15  2  0  0  0
 14 97  1  0  0  0
 15 98  1  0  0  0
 16 17  2  0  0  0
 16 21  1  0  0  0
 16 31  1  0  0  0
 17 18  1  0  0  0
 17 99  1  0  0  0
 18 19  2  0  0  0
 18100  1  0  0  0
 19 20  1  0  0  0
 19 24  1  0  0  0
 20 21  2  0  0  0
 20101  1  0  0  0
 21 23  1  0  0  0
 22 28  1  0  0  0
 22 32  2  0  0  0
 26 27  1  0  0  0
 28102  1  0  0  0
 28103  1  0  0  0
 29104  1  0  0  0
 29105  1  0  0  0
 33 34  1  0  0  0
 33 66  1  0  0  0
 33 70  2  0  0  0
 34 36  1  0  0  0
 34 59  1  0  0  0
 34106  1  0  0  0
 35 44  2  0  0  0
 35 45  1  0  0  0
 35 68  1  0  0  0
 36 56  1  0  0  0
 36107  1  0  0  0
 37 39  1  0  0  0
 37 47  1  0  0  0
 37 66  1  0  0  0
 37108  1  0  0  0
 38 43  2  0  0  0
 38 46  1  0  0  0
 38 47  1  0  0  0
 39 64  1  0  0  0
 39 67  2  0  0  0
 40 52  1  0  0  0
 40 53  2  0  0  0
 40 58  1  0  0  0
 41109  1  0  0  0
 41110  1  0  0  0
 41111  1  0  0  0
 41 48  1  0  0  0
 42 43  1  0  0  0
 42 66  1  0  0  0
 42112  1  0  0  0
 42113  1  0  0  0
 43 44  1  0  0  0
 44114  1  0  0  0
 45 46  2  0  0  0
 45115  1  0  0  0
 46116  1  0  0  0
 47117  1  0  0  0
 47118  1  0  0  0
 48 56  1  0  0  0
 48 65  1  0  0  0
 48119  1  0  0  0
 49 50  1  0  0  0
 49 53  1  0  0  0
 49 64  1  0  0  0
 49120  1  0  0  0
 50 51  1  0  0  0
 50121  1  0  0  0
 50122  1  0  0  0
 51 52  1  0  0  0
 51123  1  0  0  0
 51124  1  0  0  0
 52125  1  0  0  0
 52126  1  0  0  0
 53 54  1  0  0  0
 54 55  2  0  0  0
 54127  1  0  0  0
 55 57  1  0  0  0
 55128  1  0  0  0
 56 69  2  0  0  0
 57 58  2  0  0  0
 57129  1  0  0  0
 58130  1  0  0  0
 59 60  1  0  0  0
 59 61  1  0  0  0
 59 62  1  0  0  0
 60131  1  0  0  0
 60132  1  0  0  0
 60133  1  0  0  0
 61134  1  0  0  0
 61135  1  0  0  0
 61136  1  0  0  0
 62137  1  0  0  0
 62138  1  0  0  0
 62139  1  0  0  0
 63 65  1  0  0  0
 63140  1  0  0  0
 63141  1  0  0  0
 63142  1  0  0  0
 64143  1  0  0  0
 65144  1  0  0  0
 68 81  1  0  0  0
 71 72  2  0  0  0
 71 84  1  0  0  0
 71145  1  0  0  0
 72 73  1  0  0  0
 72 82  1  0  0  0
 73 74  1  0  0  0
 73 83  2  0  0  0
 74146  1  0  0  0
 74147  1  0  0  0
 74148  1  0  0  0
 75149  1  0  0  0
 75150  1  0  0  0
 75151  1  0  0  0
 75 82  1  0  0  0
 76 77  1  0  0  0
 76 78  1  0  0  0
 76152  1  0  0  0
 76153  1  0  0  0
 77 81  1  0  0  0
 77154  1  0  0  0
 77155  1  0  0  0
 78 82  1  0  0  0
 78156  1  0  0  0
 78157  1  0  0  0
 79 80  1  0  0  0
 79 84  1  0  0  0
 79158  1  0  0  0
 79159  1  0  0  0
 80 85  1  0  0  0
 80160  1  0  0  0
 80161  1  0  0  0
 81162  1  0  0  0
 81163  1  0  0  0
 82164  1  0  0  0
 83 84  1  0  0  0
 85165  1  0  0  0
M  ISO  4   1 100  68 101  81 101  85 100
M  END
> <chiral flag>
0

> <version>
0

> <s_m_source_file>
/data/baiqing/PycharmProjects/Reinvent-master-3.2/result/LINK_invent/BTK/process_docking_weight1_custom_sum_contain_oxygen_bond_distance_aromatic_linkinvent_7_9_3/rearranged_h_0088.sdf

> <i_m_source_file_index>
74

> <r_mmod_Potential_Energy-OPLS-2005>
-127.000434875488

> <r_mmod_Stretch_Energy-OPLS-2005>
34.2787704467773

> <r_mmod_Bend_Energy-OPLS-2005>
102.912673950195

> <r_mmod_Torsional_Energy-OPLS-2005>
213.529800415039

> <r_mmod_Improper_Torsional_Energy-OPLS-2005>
1.81339454650879

> <r_mmod_Van_der_Waal_Energy-OPLS-2005>
121.881866455078

> <r_mmod_Electrostatic_Energy-OPLS-2005>
-406.837005615234

> <r_mmod_Solvation_Energy-OPLS-2005>
-202.874145507812

> <b_mmod_Minimization_Converged-OPLS-2005>
0

> <r_mmod_RMS_Derivative-OPLS-2005>
2.65746021270752

$$$$
76
                    3D
 Structure written by MMmdl.
163171  0  0  1  0            999 V2000
  -30.6406  -14.7326   20.4858 C   0  0  0  0  0  0
  -30.4281  -12.4459   19.4913 C   0  0  0  0  0  0
  -29.5153  -12.5105   18.2483 C   0  0  0  0  0  0
  -28.0406  -12.3393   18.6560 C   0  0  0  0  0  0
  -27.6453  -13.2362   19.8597 C   0  0  2  0  0  0
  -28.6868  -13.1728   21.0013 C   0  0  0  0  0  0
  -25.2514  -13.8192   20.5697 C   0  0  0  0  0  0
  -24.1821  -13.0459   20.9205 C   0  0  0  0  0  0
  -24.6409  -11.6915   20.8750 C   0  0  0  0  0  0
  -23.9081  -10.4297   21.0402 C   0  0  0  0  0  0
  -24.3631   -9.4209   21.9182 C   0  0  0  0  0  0
  -23.6300   -8.2253   22.0754 C   0  0  0  0  0  0
  -22.4288   -8.0288   21.3544 C   0  0  0  0  0  0
  -21.9919   -9.0265   20.4646 C   0  0  0  0  0  0
  -22.7253  -10.2136   20.3052 C   0  0  0  0  0  0
  -21.6850   -6.0740   22.5280 C   0  0  0  0  0  0
  -21.4019   -6.5641   23.8212 C   0  0  0  0  0  0
  -21.3657   -5.6794   24.9176 C   0  0  0  0  0  0
  -21.6046   -4.3055   24.7220 C   0  0  0  0  0  0
  -21.8816   -3.8149   23.4348 C   0  0  0  0  0  0
  -21.9197   -4.6963   22.3399 C   0  0  0  0  0  0
  -22.7825  -13.5214   21.1865 C   0  0  0  0  0  0
  -22.1662   -4.2153   21.0979 F   0  0  0  0  0  0
  -21.5628   -3.4541   25.7736 F   0  0  0  0  0  0
  -29.9988  -13.5116   20.4326 N   0  0  0  0  0  0
  -26.2960  -12.9429   20.3315 N   0  0  0  0  0  0
  -25.9346  -11.6560   20.5761 N   0  0  0  0  0  0
  -22.0479  -12.8214   22.0409 N   0  0  0  0  0  0
  -25.4206  -15.1938   20.4116 N   0  0  0  0  0  0
  -31.8080  -14.8191   20.0940 O   0  0  0  0  0  0
  -21.6643   -6.8884   21.4240 O   0  0  0  0  0  0
  -22.3504  -14.5535   20.6701 O   0  0  0  0  0  0
  -24.6311  -31.8532   23.1951 C   0  0  0  0  0  0
  -25.9145  -32.4740   23.8305 C   0  0  1  0  0  0
  -27.2225  -27.2447   20.1930 C   0  0  0  0  0  0
  -25.5934  -33.8540   24.2238 N   0  0  0  0  0  0
  -23.4321  -30.4721   21.5348 C   0  0  2  0  0  0
  -24.8816  -28.9097   20.1166 C   0  0  0  0  0  0
  -22.7522  -29.4567   22.4881 C   0  0  0  0  0  0
  -18.0304  -28.1389   22.8475 C   0  0  0  0  0  0
  -24.1498  -36.7270   23.2647 C   0  0  0  0  0  0
  -25.9747  -30.7623   21.3774 C   0  0  0  0  0  0
  -26.0495  -29.3804   20.7327 C   0  0  0  0  0  0
  -27.2240  -28.5623   20.7568 C   0  0  0  0  0  0
  -26.0408  -26.8411   19.5334 C   0  0  0  0  0  0
  -24.8883  -27.6507   19.4954 C   0  0  0  0  0  0
  -23.6537  -29.8022   20.1532 C   0  0  0  0  0  0
  -25.4121  -36.3069   24.0330 C   0  0  1  0  0  0
  -20.5888  -28.3694   23.1266 C   0  0  2  0  0  0
  -20.6785  -26.9411   22.5419 C   0  0  0  0  0  0
  -19.5766  -26.6382   21.5224 C   0  0  0  0  0  0
  -18.1944  -26.7927   22.1633 C   0  0  0  0  0  0
  -19.1546  -28.8864   23.2861 C   0  0  0  0  0  0
  -18.9472  -30.1457   23.8887 C   0  0  0  0  0  0
  -17.6482  -30.6590   24.0546 C   0  0  0  0  0  0
  -25.9059  -34.9438   23.5082 C   0  0  0  0  0  0
  -16.5366  -29.9073   23.6337 C   0  0  0  0  0  0
  -16.7284  -28.6485   23.0359 C   0  0  0  0  0  0
  -26.4506  -31.6578   25.0708 C   0  0  0  0  0  0
  -25.3717  -31.3727   26.1423 C   0  0  0  0  0  0
  -27.0347  -30.2993   24.6191 C   0  0  0  0  0  0
  -27.6048  -32.4313   25.7488 C   0  0  0  0  0  0
  -27.5572  -37.1797   24.8470 C   0  0  0  0  0  0
  -21.4215  -29.3030   22.3634 N   0  0  0  0  0  0
  -26.4293  -37.3767   23.9400 N   0  0  0  0  0  0
  -24.6975  -31.0488   22.0916 N   0  0  0  0  0  0
  -23.4212  -28.8125   23.3015 O   0  0  0  0  0  0
  -28.3085  -26.3416   20.2883 O   0  0  0  0  0  0
  -26.5644  -34.8919   22.4661 O   0  0  0  0  0  0
  -23.5443  -32.1370   23.7230 O   0  0  0  0  0  0
  -29.0051  -19.7125   20.6324 C   0  0  0  0  0  0
  -29.9615  -18.6824   20.7178 C   0  0  0  0  0  0
  -30.7377  -20.6153   21.6453 C   0  0  0  0  0  0
  -33.8719  -21.6195   23.7936 C   0  0  0  0  0  0
  -27.9430  -25.2407   22.4338 C   0  0  0  0  0  0
  -30.1462  -17.2418   20.0852 C   0  0  0  0  0  0
  -31.6714  -21.4894   22.4385 C   0  0  0  0  0  0
  -32.9947  -20.7930   22.8394 C   0  0  0  0  0  0
  -29.0725  -23.7018   20.6291 C   0  0  0  0  0  0
  -28.7779  -22.2881   21.3921 C   0  0  0  0  0  0
  -28.0831  -24.9846   20.9120 C   0  0  2  0  0  0
  -29.5129  -20.9247   21.1546 N   0  0  0  0  0  0
  -30.9932  -19.3157   21.3646 N   0  3  0  0  0  0
  -29.9129  -15.8844   20.7467 N   0  0  0  0  0  0
  -31.4720  -12.5482   19.1952 H   0  0  0  0  0  0
  -30.3569  -11.4690   19.9706 H   0  0  0  0  0  0
  -29.7975  -11.7410   17.5301 H   0  0  0  0  0  0
  -29.6498  -13.4649   17.7397 H   0  0  0  0  0  0
  -27.8919  -11.2896   18.9134 H   0  0  0  0  0  0
  -27.3872  -12.5373   17.8044 H   0  0  0  0  0  0
  -27.6423  -14.2583   19.4807 H   0  0  0  0  0  0
  -28.7134  -12.1781   21.4514 H   0  0  0  0  0  0
  -28.4206  -13.8643   21.8030 H   0  0  0  0  0  0
  -25.2774   -9.5685   22.4755 H   0  0  0  0  0  0
  -24.0010   -7.4640   22.7469 H   0  0  0  0  0  0
  -21.0856   -8.8782   19.8947 H   0  0  0  0  0  0
  -22.3717  -10.9679   19.6162 H   0  0  0  0  0  0
  -21.2008   -7.6152   23.9716 H   0  0  0  0  0  0
  -21.1482   -6.0524   25.9076 H   0  0  0  0  0  0
  -22.0597   -2.7611   23.2842 H   0  0  0  0  0  0
  -22.4102  -11.9878   22.4813 H   0  0  0  0  0  0
  -21.1086  -13.1214   22.2601 H   0  0  0  0  0  0
  -24.6499  -15.8443   20.5161 H   0  0  0  0  0  0
  -26.2637  -15.6328   20.0672 H   0  0  0  0  0  0
  -26.7202  -32.5406   23.1038 H   0  0  0  0  0  0
  -25.0071  -33.9666   25.0377 H   0  0  0  0  0  0
  -22.7317  -31.2924   21.3835 H   0  0  0  0  0  0
  -23.3759  -35.9597   23.3318 H   0  0  0  0  0  0
  -24.3577  -36.8895   22.2059 H   0  0  0  0  0  0
  -23.7253  -37.6484   23.6654 H   0  0  0  0  0  0
  -26.1171  -31.5145   20.5983 H   0  0  0  0  0  0
  -26.8502  -30.8137   22.0128 H   0  0  0  0  0  0
  -28.1091  -28.9057   21.2775 H   0  0  0  0  0  0
  -25.9862  -25.8659   19.0722 H   0  0  0  0  0  0
  -24.0000  -27.2857   19.0021 H   0  0  0  0  0  0
  -23.7842  -30.5750   19.3932 H   0  0  0  0  0  0
  -22.7743  -29.2315   19.8469 H   0  0  0  0  0  0
  -25.1304  -36.1910   25.0813 H   0  0  0  0  0  0
  -20.9987  -28.3280   24.1376 H   0  0  0  0  0  0
  -20.5702  -26.2303   23.3610 H   0  0  0  0  0  0
  -21.6653  -26.7430   22.1205 H   0  0  0  0  0  0
  -19.6933  -25.6287   21.1252 H   0  0  0  0  0  0
  -19.6712  -27.3183   20.6737 H   0  0  0  0  0  0
  -17.4210  -26.6674   21.4023 H   0  0  0  0  0  0
  -18.0339  -26.0053   22.9019 H   0  0  0  0  0  0
  -19.7947  -30.7270   24.2251 H   0  0  0  0  0  0
  -17.5031  -31.6268   24.5152 H   0  0  0  0  0  0
  -15.5361  -30.2983   23.7666 H   0  0  0  0  0  0
  -15.8680  -28.0805   22.7087 H   0  0  0  0  0  0
  -24.5885  -30.7085   25.7739 H   0  0  0  0  0  0
  -24.8912  -32.2896   26.4846 H   0  0  0  0  0  0
  -25.8027  -30.8905   27.0203 H   0  0  0  0  0  0
  -26.2939  -29.6749   24.1193 H   0  0  0  0  0  0
  -27.4029  -29.7244   25.4712 H   0  0  0  0  0  0
  -27.8803  -30.4278   23.9425 H   0  0  0  0  0  0
  -27.2642  -33.3607   26.2051 H   0  0  0  0  0  0
  -28.3847  -32.6899   25.0306 H   0  0  0  0  0  0
  -28.0712  -31.8461   26.5423 H   0  0  0  0  0  0
  -28.2603  -38.0096   24.7497 H   0  0  0  0  0  0
  -28.1070  -36.2622   24.6305 H   0  0  0  0  0  0
  -27.2291  -37.1452   25.8886 H   0  0  0  0  0  0
  -20.9417  -29.8746   21.6813 H   0  0  0  0  0  0
  -26.0189  -38.2838   24.1406 H   0  0  0  0  0  0
  -28.0098  -19.6741   20.2101 H   0  0  0  0  0  0
  -34.7840  -21.0721   24.0503 H   0  0  0  0  0  0
  -33.3516  -21.8332   24.7297 H   0  0  0  0  0  0
  -34.1711  -22.5668   23.3418 H   0  0  0  0  0  0
  -27.6651  -24.3333   22.9716 H   0  0  0  0  0  0
  -27.1826  -25.9819   22.6746 H   0  0  0  0  0  0
  -28.8850  -25.6024   22.8463 H   0  0  0  0  0  0
  -31.1657  -17.2270   19.6932 H   0  0  0  0  0  0
  -29.5253  -17.2355   19.1927 H   0  0  0  0  0  0
  -31.1176  -21.7911   23.3276 H   0  0  0  0  0  0
  -31.8706  -22.3809   21.8445 H   0  0  0  0  0  0
  -32.7866  -19.8442   23.3352 H   0  0  0  0  0  0
  -33.5726  -20.5585   21.9441 H   0  0  0  0  0  0
  -30.0913  -23.9983   20.8747 H   0  0  0  0  0  0
  -29.0924  -23.5087   19.5555 H   0  0  0  0  0  0
  -27.7188  -22.0735   21.2574 H   0  0  0  0  0  0
  -28.8776  -22.4791   22.4645 H   0  0  0  0  0  0
  -27.0933  -24.6588   20.5939 H   0  0  0  0  0  0
  -31.8726  -18.8624   21.5928 H   0  0  0  0  0  0
  -28.9834  -15.7347   21.1040 H   0  0  0  0  0  0
  1 25  1  0  0  0
  1 30  2  0  0  0
  1 84  1  0  0  0
  2  3  1  0  0  0
  2 25  1  0  0  0
  2 85  1  0  0  0
  2 86  1  0  0  0
  3  4  1  0  0  0
  3 87  1  0  0  0
  3 88  1  0  0  0
  4  5  1  0  0  0
  4 89  1  0  0  0
  4 90  1  0  0  0
  5  6  1  0  0  0
  5 26  1  0  0  0
  5 91  1  0  0  0
  6 25  1  0  0  0
  6 92  1  0  0  0
  6 93  1  0  0  0
  7  8  2  0  0  0
  7 26  1  0  0  0
  7 29  1  0  0  0
  8  9  1  0  0  0
  8 22  1  0  0  0
  9 10  1  0  0  0
  9 27  2  0  0  0
 10 11  2  0  0  0
 10 15  1  0  0  0
 11 12  1  0  0  0
 11 94  1  0  0  0
 12 13  2  0  0  0
 12 95  1  0  0  0
 13 14  1  0  0  0
 13 31  1  0  0  0
 14 15  2  0  0  0
 14 96  1  0  0  0
 15 97  1  0  0  0
 16 17  2  0  0  0
 16 21  1  0  0  0
 16 31  1  0  0  0
 17 18  1  0  0  0
 17 98  1  0  0  0
 18 19  2  0  0  0
 18 99  1  0  0  0
 19 20  1  0  0  0
 19 24  1  0  0  0
 20 21  2  0  0  0
 20100  1  0  0  0
 21 23  1  0  0  0
 22 28  1  0  0  0
 22 32  2  0  0  0
 26 27  1  0  0  0
 28101  1  0  0  0
 28102  1  0  0  0
 29103  1  0  0  0
 29104  1  0  0  0
 33 34  1  0  0  0
 33 66  1  0  0  0
 33 70  2  0  0  0
 34 36  1  0  0  0
 34 59  1  0  0  0
 34105  1  0  0  0
 35 44  2  0  0  0
 35 45  1  0  0  0
 35 68  1  0  0  0
 36 56  1  0  0  0
 36106  1  0  0  0
 37 39  1  0  0  0
 37 47  1  0  0  0
 37 66  1  0  0  0
 37107  1  0  0  0
 38 43  2  0  0  0
 38 46  1  0  0  0
 38 47  1  0  0  0
 39 64  1  0  0  0
 39 67  2  0  0  0
 40 52  1  0  0  0
 40 53  2  0  0  0
 40 58  1  0  0  0
 41108  1  0  0  0
 41109  1  0  0  0
 41110  1  0  0  0
 41 48  1  0  0  0
 42 43  1  0  0  0
 42 66  1  0  0  0
 42111  1  0  0  0
 42112  1  0  0  0
 43 44  1  0  0  0
 44113  1  0  0  0
 45 46  2  0  0  0
 45114  1  0  0  0
 46115  1  0  0  0
 47116  1  0  0  0
 47117  1  0  0  0
 48 56  1  0  0  0
 48 65  1  0  0  0
 48118  1  0  0  0
 49 50  1  0  0  0
 49 53  1  0  0  0
 49 64  1  0  0  0
 49119  1  0  0  0
 50 51  1  0  0  0
 50120  1  0  0  0
 50121  1  0  0  0
 51 52  1  0  0  0
 51122  1  0  0  0
 51123  1  0  0  0
 52124  1  0  0  0
 52125  1  0  0  0
 53 54  1  0  0  0
 54 55  2  0  0  0
 54126  1  0  0  0
 55 57  1  0  0  0
 55127  1  0  0  0
 56 69  2  0  0  0
 57 58  2  0  0  0
 57128  1  0  0  0
 58129  1  0  0  0
 59 60  1  0  0  0
 59 61  1  0  0  0
 59 62  1  0  0  0
 60130  1  0  0  0
 60131  1  0  0  0
 60132  1  0  0  0
 61133  1  0  0  0
 61134  1  0  0  0
 61135  1  0  0  0
 62136  1  0  0  0
 62137  1  0  0  0
 62138  1  0  0  0
 63 65  1  0  0  0
 63139  1  0  0  0
 63140  1  0  0  0
 63141  1  0  0  0
 64142  1  0  0  0
 65143  1  0  0  0
 68 81  1  0  0  0
 71 72  2  0  0  0
 71 82  1  0  0  0
 71144  1  0  0  0
 72 76  1  0  0  0
 72 83  1  0  0  0
 73 77  1  0  0  0
 73 82  1  0  0  0
 73 83  2  0  0  0
 74 78  1  0  0  0
 74145  1  0  0  0
 74146  1  0  0  0
 74147  1  0  0  0
 75148  1  0  0  0
 75149  1  0  0  0
 75150  1  0  0  0
 75 81  1  0  0  0
 76 84  1  0  0  0
 76151  1  0  0  0
 76152  1  0  0  0
 77 78  1  0  0  0
 77153  1  0  0  0
 77154  1  0  0  0
 78155  1  0  0  0
 78156  1  0  0  0
 79 80  1  0  0  0
 79 81  1  0  0  0
 79157  1  0  0  0
 79158  1  0  0  0
 80 82  1  0  0  0
 80159  1  0  0  0
 80160  1  0  0  0
 81161  1  0  0  0
 83162  1  0  0  0
 84163  1  0  0  0
M  CHG  1  83   1
M  ISO  4   1 100  68 101  81 101  84 100
M  END
> <chiral flag>
0

> <version>
0

> <s_m_source_file>
/data/baiqing/PycharmProjects/Reinvent-master-3.2/result/LINK_invent/BTK/process_docking_weight1_custom_sum_contain_oxygen_bond_distance_aromatic_linkinvent_7_9_3/rearranged_h_0088.sdf

> <i_m_source_file_index>
75

> <r_mmod_Potential_Energy-OPLS-2005>
77.137451171875

> <r_mmod_Stretch_Energy-OPLS-2005>
135.499877929688

> <r_mmod_Bend_Energy-OPLS-2005>
187.308776855469

> <r_mmod_Torsional_Energy-OPLS-2005>
254.327621459961

> <r_mmod_Improper_Torsional_Energy-OPLS-2005>
9.47285842895508

> <r_mmod_Van_der_Waal_Energy-OPLS-2005>
113.193252563477

> <r_mmod_Electrostatic_Energy-OPLS-2005>
-295.576385498047

> <r_mmod_Solvation_Energy-OPLS-2005>
-417.702117919922

> <b_mmod_Minimization_Converged-OPLS-2005>
0

> <r_mmod_RMS_Derivative-OPLS-2005>
6.68763160705566

$$$$
77
                    3D
 Structure written by MMmdl.
183191  0  0  1  0            999 V2000
  -30.6117  -14.6988   20.5125 C   0  0  0  0  0  0
  -30.4303  -12.4266   19.5006 C   0  0  0  0  0  0
  -29.5211  -12.5124   18.2547 C   0  0  0  0  0  0
  -28.0427  -12.3317   18.6540 C   0  0  0  0  0  0
  -27.6430  -13.2263   19.8592 C   0  0  2  0  0  0
  -28.6742  -13.1312   21.0042 C   0  0  0  0  0  0
  -25.2493  -13.8213   20.5656 C   0  0  0  0  0  0
  -24.1780  -13.0423   20.9187 C   0  0  0  0  0  0
  -24.6398  -11.6923   20.8769 C   0  0  0  0  0  0
  -23.9099  -10.4280   21.0442 C   0  0  0  0  0  0
  -24.3646   -9.4196   21.9212 C   0  0  0  0  0  0
  -23.6310   -8.2245   22.0763 C   0  0  0  0  0  0
  -22.4294   -8.0306   21.3560 C   0  0  0  0  0  0
  -21.9941   -9.0283   20.4665 C   0  0  0  0  0  0
  -22.7286  -10.2153   20.3077 C   0  0  0  0  0  0
  -21.6840   -6.0776   22.5314 C   0  0  0  0  0  0
  -21.4002   -6.5664   23.8258 C   0  0  0  0  0  0
  -21.3636   -5.6805   24.9214 C   0  0  0  0  0  0
  -21.6032   -4.3070   24.7255 C   0  0  0  0  0  0
  -21.8815   -3.8175   23.4367 C   0  0  0  0  0  0
  -21.9188   -4.6999   22.3427 C   0  0  0  0  0  0
  -22.7826  -13.5242   21.1876 C   0  0  0  0  0  0
  -22.1655   -4.2188   21.0999 F   0  0  0  0  0  0
  -21.5624   -3.4541   25.7754 F   0  0  0  0  0  0
  -29.9860  -13.4777   20.4461 N   0  0  0  0  0  0
  -26.2905  -12.9395   20.3264 N   0  0  0  0  0  0
  -25.9310  -11.6546   20.5760 N   0  0  0  0  0  0
  -22.0463  -12.8217   22.0444 N   0  0  0  0  0  0
  -25.4187  -15.1920   20.4075 N   0  0  0  0  0  0
  -31.7830  -14.8030   20.1347 O   0  0  0  0  0  0
  -21.6629   -6.8927   21.4284 O   0  0  0  0  0  0
  -22.3518  -14.5554   20.6764 O   0  0  0  0  0  0
  -24.6179  -31.8610   23.1955 C   0  0  0  0  0  0
  -25.9016  -32.4828   23.8278 C   0  0  1  0  0  0
  -27.2259  -27.2951   20.1517 C   0  0  0  0  0  0
  -25.5783  -33.8633   24.2170 N   0  0  0  0  0  0
  -23.4180  -30.4763   21.5459 C   0  0  2  0  0  0
  -24.8684  -28.9203   20.1176 C   0  0  0  0  0  0
  -22.7441  -29.4625   22.5002 C   0  0  0  0  0  0
  -18.0261  -28.1370   22.8482 C   0  0  0  0  0  0
  -24.1495  -36.7418   23.2625 C   0  0  0  0  0  0
  -25.9559  -30.7885   21.3669 C   0  0  0  0  0  0
  -26.0375  -29.4063   20.7231 C   0  0  0  0  0  0
  -27.2203  -28.6053   20.7285 C   0  0  0  0  0  0
  -26.0432  -26.8717   19.5096 C   0  0  0  0  0  0
  -24.8746  -27.6588   19.4987 C   0  0  0  0  0  0
  -23.6293  -29.7929   20.1704 C   0  0  0  0  0  0
  -25.4131  -36.3135   24.0225 C   0  0  1  0  0  0
  -20.5865  -28.3675   23.1311 C   0  0  2  0  0  0
  -20.6807  -26.9415   22.5430 C   0  0  0  0  0  0
  -19.5791  -26.6372   21.5227 C   0  0  0  0  0  0
  -18.1953  -26.7915   22.1613 C   0  0  0  0  0  0
  -19.1506  -28.8832   23.2880 C   0  0  0  0  0  0
  -18.9412  -30.1444   23.8883 C   0  0  0  0  0  0
  -17.6420  -30.6588   24.0571 C   0  0  0  0  0  0
  -25.9000  -34.9500   23.5007 C   0  0  0  0  0  0
  -16.5311  -29.9096   23.6344 C   0  0  0  0  0  0
  -16.7246  -28.6520   23.0337 C   0  0  0  0  0  0
  -26.4351  -31.6668   25.0677 C   0  0  0  0  0  0
  -25.3490  -31.3863   26.1327 C   0  0  0  0  0  0
  -27.0202  -30.3101   24.6148 C   0  0  0  0  0  0
  -27.5900  -32.4445   25.7478 C   0  0  0  0  0  0
  -27.5616  -37.1850   24.8386 C   0  0  0  0  0  0
  -21.4157  -29.3020   22.3714 N   0  0  0  0  0  0
  -26.4346  -37.3797   23.9287 N   0  0  0  0  0  0
  -24.6865  -31.0534   22.0968 N   0  0  0  0  0  0
  -23.4149  -28.8181   23.3094 O   0  0  0  0  0  0
  -28.3351  -26.4347   20.1638 O   0  0  0  0  0  0
  -26.5673  -34.8983   22.4637 O   0  0  0  0  0  0
  -23.5335  -32.1480   23.7211 O   0  0  0  0  0  0
  -29.1446  -21.1576   18.2629 C   0  0  0  0  0  0
  -30.0029  -20.4328   17.4058 C   0  0  0  0  0  0
  -29.2794  -21.0714   19.6686 C   0  0  0  0  0  0
  -31.2857  -19.7596   19.3606 C   0  0  0  0  0  0
  -31.1722  -19.8411   17.9526 C   0  0  0  0  0  0
  -30.1268  -19.9811   20.1440 C   0  0  0  0  0  0
  -32.5842  -19.3375   20.0381 C   0  0  0  0  0  0
  -32.1391  -17.7542   16.8034 C   0  0  0  0  0  0
  -31.1934  -23.1265   12.7336 C   0  0  0  0  0  0
  -31.6074  -21.1172   11.3748 C   0  0  0  0  0  0
  -29.6517  -20.3149   15.9269 C   0  0  0  0  0  0
  -28.6718  -22.2710   20.5144 C   0  0  0  0  0  0
  -32.2666  -19.2673   17.0494 C   0  0  0  0  0  0
  -29.6397  -18.6552   20.9003 C   0  0  0  0  0  0
  -30.2278  -21.4026   14.9929 C   0  0  0  0  0  0
  -28.7894  -23.7808   19.9081 C   0  0  0  0  0  0
  -30.2798  -17.2444   20.3775 C   0  0  0  0  0  0
  -30.9086  -20.8266   13.7207 C   0  0  0  0  0  0
  -28.1535  -25.0426   20.6793 C   0  0  0  0  0  0
  -29.8634  -15.8359   20.7842 N   0  0  0  0  0  0
  -30.8497  -21.6986   12.5107 N   0  3  0  0  0  0
  -31.4789  -12.5361   19.2191 H   0  0  0  0  0  0
  -30.3546  -11.4449   19.9719 H   0  0  0  0  0  0
  -29.8122  -11.7593   17.5202 H   0  0  0  0  0  0
  -29.6550  -13.4831   17.7733 H   0  0  0  0  0  0
  -27.8982  -11.2824   18.9136 H   0  0  0  0  0  0
  -27.3927  -12.5231   17.7987 H   0  0  0  0  0  0
  -27.6542  -14.2512   19.4892 H   0  0  0  0  0  0
  -28.6911  -12.1215   21.4170 H   0  0  0  0  0  0
  -28.4065  -13.7899   21.8319 H   0  0  0  0  0  0
  -25.2797   -9.5661   22.4781 H   0  0  0  0  0  0
  -24.0017   -7.4636   22.7465 H   0  0  0  0  0  0
  -21.0872   -8.8841   19.8969 H   0  0  0  0  0  0
  -22.3782  -10.9711   19.6182 H   0  0  0  0  0  0
  -21.1990   -7.6173   23.9787 H   0  0  0  0  0  0
  -21.1445   -6.0521   25.9120 H   0  0  0  0  0  0
  -22.0605   -2.7638   23.2864 H   0  0  0  0  0  0
  -22.4032  -11.9822   22.4746 H   0  0  0  0  0  0
  -21.1128  -13.1322   22.2743 H   0  0  0  0  0  0
  -24.6477  -15.8443   20.5032 H   0  0  0  0  0  0
  -26.2684  -15.6331   20.0761 H   0  0  0  0  0  0
  -26.7124  -32.5545   23.1085 H   0  0  0  0  0  0
  -24.9691  -33.9722   25.0148 H   0  0  0  0  0  0
  -22.7083  -31.2920   21.3983 H   0  0  0  0  0  0
  -23.3696  -35.9809   23.3274 H   0  0  0  0  0  0
  -24.3585  -36.9182   22.2069 H   0  0  0  0  0  0
  -23.7386  -37.6628   23.6749 H   0  0  0  0  0  0
  -26.0413  -31.5359   20.5783 H   0  0  0  0  0  0
  -26.8546  -30.8772   21.9687 H   0  0  0  0  0  0
  -28.1179  -28.9721   21.2080 H   0  0  0  0  0  0
  -26.0274  -25.9105   19.0167 H   0  0  0  0  0  0
  -23.9808  -27.2795   19.0210 H   0  0  0  0  0  0
  -23.7057  -30.5534   19.3947 H   0  0  0  0  0  0
  -22.7590  -29.1900   19.9015 H   0  0  0  0  0  0
  -25.1386  -36.1991   25.0724 H   0  0  0  0  0  0
  -20.9891  -28.3262   24.1456 H   0  0  0  0  0  0
  -20.5783  -26.2257   23.3605 H   0  0  0  0  0  0
  -21.6692  -26.7542   22.1212 H   0  0  0  0  0  0
  -19.6966  -25.6253   21.1314 H   0  0  0  0  0  0
  -19.6768  -27.3127   20.6716 H   0  0  0  0  0  0
  -17.4260  -26.6591   21.3993 H   0  0  0  0  0  0
  -18.0374  -26.0043   22.8983 H   0  0  0  0  0  0
  -19.7860  -30.7257   24.2287 H   0  0  0  0  0  0
  -17.4969  -31.6279   24.5131 H   0  0  0  0  0  0
  -15.5311  -30.2994   23.7688 H   0  0  0  0  0  0
  -15.8645  -28.0873   22.7032 H   0  0  0  0  0  0
  -24.5585  -30.7339   25.7595 H   0  0  0  0  0  0
  -24.8676  -32.3053   26.4652 H   0  0  0  0  0  0
  -25.7627  -30.9033   27.0172 H   0  0  0  0  0  0
  -26.2799  -29.6879   24.1068 H   0  0  0  0  0  0
  -27.3832  -29.7330   25.4652 H   0  0  0  0  0  0
  -27.8672  -30.4459   23.9431 H   0  0  0  0  0  0
  -27.2492  -33.3763   26.1982 H   0  0  0  0  0  0
  -28.3725  -32.7007   25.0334 H   0  0  0  0  0  0
  -28.0506  -31.8623   26.5443 H   0  0  0  0  0  0
  -28.2577  -38.0213   24.7548 H   0  0  0  0  0  0
  -28.1225  -36.2738   24.6174 H   0  0  0  0  0  0
  -27.2278  -37.1486   25.8777 H   0  0  0  0  0  0
  -20.9261  -29.8811   21.7014 H   0  0  0  0  0  0
  -26.0217  -38.2869   24.1283 H   0  0  0  0  0  0
  -28.3976  -21.8068   17.8262 H   0  0  0  0  0  0
  -33.3507  -20.0941   19.8692 H   0  0  0  0  0  0
  -32.9579  -18.3814   19.6717 H   0  0  0  0  0  0
  -32.4588  -19.2633   21.1191 H   0  0  0  0  0  0
  -32.8791  -17.4201   16.0746 H   0  0  0  0  0  0
  -31.1597  -17.4731   16.4209 H   0  0  0  0  0  0
  -32.2998  -17.1919   17.7220 H   0  0  0  0  0  0
  -31.3274  -23.6468   11.7824 H   0  0  0  0  0  0
  -32.1145  -23.2409   13.3074 H   0  0  0  0  0  0
  -30.3884  -23.6455   13.2579 H   0  0  0  0  0  0
  -31.4393  -21.6853   10.4578 H   0  0  0  0  0  0
  -31.3000  -20.0885   11.1716 H   0  0  0  0  0  0
  -32.6793  -21.1117   11.5780 H   0  0  0  0  0  0
  -28.5635  -20.3225   15.8433 H   0  0  0  0  0  0
  -29.9423  -19.3171   15.5969 H   0  0  0  0  0  0
  -29.1457  -22.2598   21.4963 H   0  0  0  0  0  0
  -27.6242  -22.0438   20.7013 H   0  0  0  0  0  0
  -33.2432  -19.4732   17.4849 H   0  0  0  0  0  0
  -32.2790  -19.7943   16.0978 H   0  0  0  0  0  0
  -28.5534  -18.6013   20.8348 H   0  0  0  0  0  0
  -29.8750  -18.7656   21.9617 H   0  0  0  0  0  0
  -30.9490  -22.0174   15.5323 H   0  0  0  0  0  0
  -29.4049  -22.0645   14.7211 H   0  0  0  0  0  0
  -28.3559  -23.7893   18.9072 H   0  0  0  0  0  0
  -29.8489  -23.9925   19.7633 H   0  0  0  0  0  0
  -31.3355  -17.2683   20.6178 H   0  0  0  0  0  0
  -30.2048  -17.2421   19.2893 H   0  0  0  0  0  0
  -30.4407  -19.8792   13.4463 H   0  0  0  0  0  0
  -31.9485  -20.5868   13.9490 H   0  0  0  0  0  0
  -28.5873  -25.0658   21.6765 H   0  0  0  0  0  0
  -27.0983  -24.8313   20.8567 H   0  0  0  0  0  0
  -28.9049  -15.6958   21.0670 H   0  0  0  0  0  0
  -29.8880  -21.6941   12.2051 H   0  0  0  0  0  0
  1 25  1  0  0  0
  1 30  2  0  0  0
  1 90  1  0  0  0
  2  3  1  0  0  0
  2 25  1  0  0  0
  2 92  1  0  0  0
  2 93  1  0  0  0
  3  4  1  0  0  0
  3 94  1  0  0  0
  3 95  1  0  0  0
  4  5  1  0  0  0
  4 96  1  0  0  0
  4 97  1  0  0  0
  5  6  1  0  0  0
  5 26  1  0  0  0
  5 98  1  0  0  0
  6 25  1  0  0  0
  6 99  1  0  0  0
  6100  1  0  0  0
  7  8  2  0  0  0
  7 26  1  0  0  0
  7 29  1  0  0  0
  8  9  1  0  0  0
  8 22  1  0  0  0
  9 10  1  0  0  0
  9 27  2  0  0  0
 10 11  2  0  0  0
 10 15  1  0  0  0
 11 12  1  0  0  0
 11101  1  0  0  0
 12 13  2  0  0  0
 12102  1  0  0  0
 13 14  1  0  0  0
 13 31  1  0  0  0
 14 15  2  0  0  0
 14103  1  0  0  0
 15104  1  0  0  0
 16 17  2  0  0  0
 16 21  1  0  0  0
 16 31  1  0  0  0
 17 18  1  0  0  0
 17105  1  0  0  0
 18 19  2  0  0  0
 18106  1  0  0  0
 19 20  1  0  0  0
 19 24  1  0  0  0
 20 21  2  0  0  0
 20107  1  0  0  0
 21 23  1  0  0  0
 22 28  1  0  0  0
 22 32  2  0  0  0
 26 27  1  0  0  0
 28108  1  0  0  0
 28109  1  0  0  0
 29110  1  0  0  0
 29111  1  0  0  0
 33 34  1  0  0  0
 33 66  1  0  0  0
 33 70  2  0  0  0
 34 36  1  0  0  0
 34 59  1  0  0  0
 34112  1  0  0  0
 35 44  2  0  0  0
 35 45  1  0  0  0
 35 68  1  0  0  0
 36 56  1  0  0  0
 36113  1  0  0  0
 37 39  1  0  0  0
 37 47  1  0  0  0
 37 66  1  0  0  0
 37114  1  0  0  0
 38 43  2  0  0  0
 38 46  1  0  0  0
 38 47  1  0  0  0
 39 64  1  0  0  0
 39 67  2  0  0  0
 40 52  1  0  0  0
 40 53  2  0  0  0
 40 58  1  0  0  0
 41115  1  0  0  0
 41116  1  0  0  0
 41117  1  0  0  0
 41 48  1  0  0  0
 42 43  1  0  0  0
 42 66  1  0  0  0
 42118  1  0  0  0
 42119  1  0  0  0
 43 44  1  0  0  0
 44120  1  0  0  0
 45 46  2  0  0  0
 45121  1  0  0  0
 46122  1  0  0  0
 47123  1  0  0  0
 47124  1  0  0  0
 48 56  1  0  0  0
 48 65  1  0  0  0
 48125  1  0  0  0
 49 50  1  0  0  0
 49 53  1  0  0  0
 49 64  1  0  0  0
 49126  1  0  0  0
 50 51  1  0  0  0
 50127  1  0  0  0
 50128  1  0  0  0
 51 52  1  0  0  0
 51129  1  0  0  0
 51130  1  0  0  0
 52131  1  0  0  0
 52132  1  0  0  0
 53 54  1  0  0  0
 54 55  2  0  0  0
 54133  1  0  0  0
 55 57  1  0  0  0
 55134  1  0  0  0
 56 69  2  0  0  0
 57 58  2  0  0  0
 57135  1  0  0  0
 58136  1  0  0  0
 59 60  1  0  0  0
 59 61  1  0  0  0
 59 62  1  0  0  0
 60137  1  0  0  0
 60138  1  0  0  0
 60139  1  0  0  0
 61140  1  0  0  0
 61141  1  0  0  0
 61142  1  0  0  0
 62143  1  0  0  0
 62144  1  0  0  0
 62145  1  0  0  0
 63 65  1  0  0  0
 63146  1  0  0  0
 63147  1  0  0  0
 63148  1  0  0  0
 64149  1  0  0  0
 65150  1  0  0  0
 68 89  1  0  0  0
 71 72  2  0  0  0
 71 73  1  0  0  0
 71151  1  0  0  0
 72 75  1  0  0  0
 72 81  1  0  0  0
 73 76  2  0  0  0
 73 82  1  0  0  0
 74 75  2  0  0  0
 74 76  1  0  0  0
 74 77  1  0  0  0
 75 83  1  0  0  0
 76 84  1  0  0  0
 77152  1  0  0  0
 77153  1  0  0  0
 77154  1  0  0  0
 78 83  1  0  0  0
 78155  1  0  0  0
 78156  1  0  0  0
 78157  1  0  0  0
 79158  1  0  0  0
 79159  1  0  0  0
 79160  1  0  0  0
 79 91  1  0  0  0
 80 91  1  0  0  0
 80161  1  0  0  0
 80162  1  0  0  0
 80163  1  0  0  0
 81 85  1  0  0  0
 81164  1  0  0  0
 81165  1  0  0  0
 82 86  1  0  0  0
 82166  1  0  0  0
 82167  1  0  0  0
 83168  1  0  0  0
 83169  1  0  0  0
 84 87  1  0  0  0
 84170  1  0  0  0
 84171  1  0  0  0
 85 88  1  0  0  0
 85172  1  0  0  0
 85173  1  0  0  0
 86 89  1  0  0  0
 86174  1  0  0  0
 86175  1  0  0  0
 87 90  1  0  0  0
 87176  1  0  0  0
 87177  1  0  0  0
 88 91  1  0  0  0
 88178  1  0  0  0
 88179  1  0  0  0
 89180  1  0  0  0
 89181  1  0  0  0
 90182  1  0  0  0
 91183  1  0  0  0
M  CHG  1  91   1
M  ISO  4   1 100  68 101  89 101  90 100
M  END
> <chiral flag>
0

> <version>
0

> <s_m_source_file>
/data/baiqing/PycharmProjects/Reinvent-master-3.2/result/LINK_invent/BTK/process_docking_weight1_custom_sum_contain_oxygen_bond_distance_aromatic_linkinvent_7_9_3/rearranged_h_0088.sdf

> <i_m_source_file_index>
76

> <r_mmod_Potential_Energy-OPLS-2005>
200.402572631836

> <r_mmod_Stretch_Energy-OPLS-2005>
125.968246459961

> <r_mmod_Bend_Energy-OPLS-2005>
182.430511474609

> <r_mmod_Torsional_Energy-OPLS-2005>
431.688751220703

> <r_mmod_Improper_Torsional_Energy-OPLS-2005>
15.680775642395

> <r_mmod_Van_der_Waal_Energy-OPLS-2005>
149.933792114258

> <r_mmod_Electrostatic_Energy-OPLS-2005>
-325.847290039062

> <r_mmod_Solvation_Energy-OPLS-2005>
-444.028472900391

> <b_mmod_Minimization_Converged-OPLS-2005>
0

> <r_mmod_RMS_Derivative-OPLS-2005>
5.60736322402954

$$$$
78
                    3D
 Structure written by MMmdl.
179187  0  0  1  0            999 V2000
  -30.7080  -14.5030   20.5364 C   0  0  0  0  0  0
  -30.4127  -12.3177   19.4499 C   0  0  0  0  0  0
  -29.4770  -12.4089   18.2276 C   0  0  0  0  0  0
  -28.0209  -12.2014   18.6753 C   0  0  0  0  0  0
  -27.6224  -13.1465   19.8312 C   0  0  2  0  0  0
  -28.6618  -13.0930   20.9758 C   0  0  0  0  0  0
  -25.2517  -13.7993   20.5692 C   0  0  0  0  0  0
  -24.1744  -13.0373   20.9213 C   0  0  0  0  0  0
  -24.6235  -11.6791   20.8820 C   0  0  0  0  0  0
  -23.8924  -10.4238   21.0520 C   0  0  0  0  0  0
  -24.3536   -9.4135   21.9261 C   0  0  0  0  0  0
  -23.6227   -8.2163   22.0810 C   0  0  0  0  0  0
  -22.4219   -8.0234   21.3558 C   0  0  0  0  0  0
  -21.9835   -9.0221   20.4677 C   0  0  0  0  0  0
  -22.7150  -10.2100   20.3122 C   0  0  0  0  0  0
  -21.6796   -6.0737   22.5292 C   0  0  0  0  0  0
  -21.3988   -6.5655   23.8238 C   0  0  0  0  0  0
  -21.3648   -5.6806   24.9198 C   0  0  0  0  0  0
  -21.6020   -4.3070   24.7239 C   0  0  0  0  0  0
  -21.8811   -3.8174   23.4377 C   0  0  0  0  0  0
  -21.9186   -4.6979   22.3433 C   0  0  0  0  0  0
  -22.7780  -13.5225   21.1877 C   0  0  0  0  0  0
  -22.1651   -4.2156   21.1004 F   0  0  0  0  0  0
  -21.5607   -3.4562   25.7765 F   0  0  0  0  0  0
  -30.0043  -13.3469   20.4158 N   0  0  0  0  0  0
  -26.2806  -12.8995   20.3245 N   0  0  0  0  0  0
  -25.9114  -11.6227   20.5813 N   0  0  0  0  0  0
  -22.0391  -12.8253   22.0405 N   0  0  0  0  0  0
  -25.4420  -15.1711   20.4193 N   0  0  0  0  0  0
  -31.8669  -14.6365   20.1413 O   0  0  0  0  0  0
  -21.6583   -6.8856   21.4243 O   0  0  0  0  0  0
  -22.3533  -14.5585   20.6751 O   0  0  0  0  0  0
  -24.6280  -31.8647   23.2056 C   0  0  0  0  0  0
  -25.9070  -32.4882   23.8377 C   0  0  1  0  0  0
  -27.2357  -27.4704   20.0293 C   0  0  0  0  0  0
  -25.5881  -33.8659   24.2293 N   0  0  0  0  0  0
  -23.5763  -30.2339   21.6721 C   0  0  2  0  0  0
  -24.8877  -29.0181   19.9788 C   0  0  0  0  0  0
  -22.6846  -29.4590   22.6613 C   0  0  0  0  0  0
  -18.0005  -28.1433   22.8413 C   0  0  0  0  0  0
  -24.1472  -36.7352   23.2621 C   0  0  0  0  0  0
  -25.9654  -30.8953   21.3054 C   0  0  0  0  0  0
  -26.0559  -29.5429   20.5734 C   0  0  0  0  0  0
  -27.2294  -28.7637   20.6007 C   0  0  0  0  0  0
  -26.0593  -26.9766   19.4207 C   0  0  0  0  0  0
  -24.8807  -27.7347   19.4134 C   0  0  0  0  0  0
  -23.6005  -29.7901   20.1953 C   0  0  0  0  0  0
  -25.4120  -36.3164   24.0326 C   0  0  1  0  0  0
  -20.5420  -28.3729   23.1356 C   0  0  2  0  0  0
  -20.6501  -26.9462   22.5530 C   0  0  0  0  0  0
  -19.5579  -26.6330   21.5285 C   0  0  0  0  0  0
  -18.1699  -26.8001   22.1548 C   0  0  0  0  0  0
  -19.1194  -28.8913   23.2851 C   0  0  0  0  0  0
  -18.9213  -30.1481   23.8949 C   0  0  0  0  0  0
  -17.6238  -30.6659   24.0599 C   0  0  0  0  0  0
  -25.9034  -34.9507   23.5107 C   0  0  0  0  0  0
  -16.5122  -29.9169   23.6311 C   0  0  0  0  0  0
  -16.7013  -28.6576   23.0334 C   0  0  0  0  0  0
  -26.4495  -31.6634   25.0690 C   0  0  0  0  0  0
  -25.3774  -31.3759   26.1457 C   0  0  0  0  0  0
  -27.0240  -30.3058   24.5983 C   0  0  0  0  0  0
  -27.6065  -32.4318   25.7487 C   0  0  0  0  0  0
  -27.5592  -37.1825   24.8472 C   0  0  0  0  0  0
  -21.3860  -29.3106   22.3902 N   0  0  0  0  0  0
  -26.4310  -37.3854   23.9406 N   0  0  0  0  0  0
  -24.6953  -31.1222   22.0652 N   0  0  0  0  0  0
  -23.1961  -28.8779   23.6343 O   0  0  0  0  0  0
  -28.3869  -26.7161   20.1009 O   0  0  0  0  0  0
  -26.5588  -34.8947   22.4646 O   0  0  0  0  0  0
  -23.5419  -32.1041   23.7542 O   0  0  0  0  0  0
  -25.8902  -19.1940   18.5921 C   0  0  0  0  0  0
  -27.5540  -19.2885   20.8314 C   0  0  0  0  0  0
  -27.0973  -18.4586   18.5859 C   0  0  0  0  0  0
  -25.4819  -19.9345   19.7278 C   0  0  0  0  0  0
  -27.9406  -18.5021   19.7294 C   0  0  0  0  0  0
  -26.3398  -19.9966   20.8569 C   0  0  0  0  0  0
  -24.0989  -20.5751   19.7160 C   0  0  0  0  0  0
  -28.3263  -18.2586   16.3421 C   0  0  0  0  0  0
  -26.9035  -22.2956   24.2113 C   0  0  0  0  0  0
  -25.3863  -24.1050   23.4537 C   0  0  0  0  0  0
  -27.4167  -17.5875   17.3741 C   0  0  0  0  0  0
  -29.2380  -17.7048   19.8797 C   0  0  0  0  0  0
  -27.3697  -24.9844   21.5314 C   0  0  0  0  0  0
  -27.5427  -23.5648   22.1085 C   0  0  0  0  0  0
  -28.9779  -16.2300   20.2648 C   0  0  0  0  0  0
  -25.5177  -22.0271   22.0660 C   0  0  0  0  0  0
  -28.2388  -25.3056   20.2945 C   0  0  0  0  0  0
  -26.3492  -22.9995   22.9503 C   0  0  0  0  0  0
  -26.0445  -20.6678   22.0517 N   0  0  0  0  0  0
  -30.0510  -15.5678   21.0268 N   0  0  0  0  0  0
  -31.4513  -12.4274   19.1419 H   0  0  0  0  0  0
  -30.3410  -11.3384   19.9226 H   0  0  0  0  0  0
  -29.7493  -11.6282   17.5143 H   0  0  0  0  0  0
  -29.5886  -13.3665   17.7122 H   0  0  0  0  0  0
  -27.9474  -11.1706   19.0287 H   0  0  0  0  0  0
  -27.3345  -12.2806   17.8320 H   0  0  0  0  0  0
  -27.5807  -14.1246   19.3724 H   0  0  0  0  0  0
  -28.6437  -12.1283   21.4832 H   0  0  0  0  0  0
  -28.3788  -13.8267   21.7327 H   0  0  0  0  0  0
  -25.2692   -9.5567   22.4825 H   0  0  0  0  0  0
  -23.9931   -7.4529   22.7493 H   0  0  0  0  0  0
  -21.0794   -8.8760   19.8962 H   0  0  0  0  0  0
  -22.3664  -10.9680   19.6237 H   0  0  0  0  0  0
  -21.1956   -7.6148   23.9740 H   0  0  0  0  0  0
  -21.1475   -6.0538   25.9093 H   0  0  0  0  0  0
  -22.0601   -2.7636   23.2886 H   0  0  0  0  0  0
  -22.3972  -11.9885   22.4803 H   0  0  0  0  0  0
  -21.1055  -13.1387   22.2663 H   0  0  0  0  0  0
  -24.7043  -15.8440   20.5866 H   0  0  0  0  0  0
  -26.3242  -15.6128   20.2049 H   0  0  0  0  0  0
  -26.7155  -32.5587   23.1161 H   0  0  0  0  0  0
  -25.0083  -33.9801   25.0481 H   0  0  0  0  0  0
  -24.2367  -29.4486   22.0018 H   0  0  0  0  0  0
  -23.3720  -35.9694   23.3316 H   0  0  0  0  0  0
  -24.3570  -36.8919   22.2028 H   0  0  0  0  0  0
  -23.7236  -37.6573   23.6607 H   0  0  0  0  0  0
  -26.0691  -31.7032   20.5809 H   0  0  0  0  0  0
  -26.8551  -30.9291   21.9270 H   0  0  0  0  0  0
  -28.1298  -29.1350   21.0687 H   0  0  0  0  0  0
  -26.0216  -25.9973   18.9677 H   0  0  0  0  0  0
  -23.9692  -27.3269   18.9952 H   0  0  0  0  0  0
  -23.5670  -30.6569   19.5312 H   0  0  0  0  0  0
  -22.7311  -29.1738   19.9543 H   0  0  0  0  0  0
  -25.1283  -36.2064   25.0834 H   0  0  0  0  0  0
  -20.9036  -28.3107   24.1639 H   0  0  0  0  0  0
  -20.5407  -26.2363   23.3722 H   0  0  0  0  0  0
  -21.6413  -26.7577   22.1443 H   0  0  0  0  0  0
  -19.6736  -25.6211   21.1429 H   0  0  0  0  0  0
  -19.6600  -27.3040   20.6743 H   0  0  0  0  0  0
  -17.4060  -26.6868   21.3828 H   0  0  0  0  0  0
  -17.9959  -26.0101   22.8866 H   0  0  0  0  0  0
  -19.7733  -30.7214   24.2363 H   0  0  0  0  0  0
  -17.4869  -31.6334   24.5253 H   0  0  0  0  0  0
  -15.5146  -30.3136   23.7634 H   0  0  0  0  0  0
  -15.8419  -28.0904   22.7043 H   0  0  0  0  0  0
  -24.5926  -30.7138   25.7808 H   0  0  0  0  0  0
  -24.8999  -32.2911   26.4916 H   0  0  0  0  0  0
  -25.8094  -30.8917   27.0205 H   0  0  0  0  0  0
  -26.2749  -29.6911   24.0965 H   0  0  0  0  0  0
  -27.3946  -29.7223   25.4406 H   0  0  0  0  0  0
  -27.8612  -30.4374   23.9134 H   0  0  0  0  0  0
  -27.2692  -33.3584   26.2148 H   0  0  0  0  0  0
  -28.3846  -32.6926   25.0307 H   0  0  0  0  0  0
  -28.0766  -31.8402   26.5346 H   0  0  0  0  0  0
  -28.2639  -38.0096   24.7503 H   0  0  0  0  0  0
  -28.1046  -36.2610   24.6318 H   0  0  0  0  0  0
  -27.2293  -37.1525   25.8877 H   0  0  0  0  0  0
  -20.9821  -29.7924   21.6010 H   0  0  0  0  0  0
  -26.0187  -38.2910   24.1469 H   0  0  0  0  0  0
  -25.2401  -19.1589   17.7297 H   0  0  0  0  0  0
  -28.1950  -19.3199   21.6991 H   0  0  0  0  0  0
  -24.1564  -21.5934   19.3363 H   0  0  0  0  0  0
  -23.6594  -20.5997   20.7114 H   0  0  0  0  0  0
  -23.4078  -20.0111   19.0874 H   0  0  0  0  0  0
  -28.6737  -17.5034   15.6336 H   0  0  0  0  0  0
  -29.2054  -18.7154   16.7924 H   0  0  0  0  0  0
  -27.7929  -19.0283   15.7868 H   0  0  0  0  0  0
  -27.2910  -23.0241   24.9257 H   0  0  0  0  0  0
  -27.7275  -21.6193   23.9748 H   0  0  0  0  0  0
  -26.1366  -21.7152   24.7289 H   0  0  0  0  0  0
  -25.9178  -24.9349   23.9228 H   0  0  0  0  0  0
  -24.6899  -23.7134   24.2000 H   0  0  0  0  0  0
  -24.7633  -24.5174   22.6573 H   0  0  0  0  0  0
  -26.4939  -17.2729   16.8780 H   0  0  0  0  0  0
  -27.8872  -16.6656   17.6961 H   0  0  0  0  0  0
  -29.8447  -17.7745   18.9729 H   0  0  0  0  0  0
  -29.8297  -18.1951   20.6523 H   0  0  0  0  0  0
  -27.5900  -25.7054   22.3213 H   0  0  0  0  0  0
  -26.3269  -25.1319   21.2554 H   0  0  0  0  0  0
  -28.4545  -23.5723   22.7105 H   0  0  0  0  0  0
  -27.7684  -22.8735   21.2957 H   0  0  0  0  0  0
  -28.0575  -16.1462   20.8438 H   0  0  0  0  0  0
  -28.8249  -15.7088   19.3304 H   0  0  0  0  0  0
  -25.4516  -22.4458   21.0631 H   0  0  0  0  0  0
  -24.4931  -21.9639   22.4372 H   0  0  0  0  0  0
  -27.8350  -24.8238   19.4012 H   0  0  0  0  0  0
  -29.2409  -24.8984   20.4351 H   0  0  0  0  0  0
  -26.6481  -20.4695   22.8425 H   0  0  0  0  0  0
  -30.6325  -16.2225   21.5329 H   0  0  0  0  0  0
  1 25  1  0  0  0
  1 30  2  0  0  0
  1 90  1  0  0  0
  2  3  1  0  0  0
  2 25  1  0  0  0
  2 91  1  0  0  0
  2 92  1  0  0  0
  3  4  1  0  0  0
  3 93  1  0  0  0
  3 94  1  0  0  0
  4  5  1  0  0  0
  4 95  1  0  0  0
  4 96  1  0  0  0
  5  6  1  0  0  0
  5 26  1  0  0  0
  5 97  1  0  0  0
  6 25  1  0  0  0
  6 98  1  0  0  0
  6 99  1  0  0  0
  7  8  2  0  0  0
  7 26  1  0  0  0
  7 29  1  0  0  0
  8  9  1  0  0  0
  8 22  1  0  0  0
  9 10  1  0  0  0
  9 27  2  0  0  0
 10 11  2  0  0  0
 10 15  1  0  0  0
 11 12  1  0  0  0
 11100  1  0  0  0
 12 13  2  0  0  0
 12101  1  0  0  0
 13 14  1  0  0  0
 13 31  1  0  0  0
 14 15  2  0  0  0
 14102  1  0  0  0
 15103  1  0  0  0
 16 17  2  0  0  0
 16 21  1  0  0  0
 16 31  1  0  0  0
 17 18  1  0  0  0
 17104  1  0  0  0
 18 19  2  0  0  0
 18105  1  0  0  0
 19 20  1  0  0  0
 19 24  1  0  0  0
 20 21  2  0  0  0
 20106  1  0  0  0
 21 23  1  0  0  0
 22 28  1  0  0  0
 22 32  2  0  0  0
 26 27  1  0  0  0
 28107  1  0  0  0
 28108  1  0  0  0
 29109  1  0  0  0
 29110  1  0  0  0
 33 34  1  0  0  0
 33 66  1  0  0  0
 33 70  2  0  0  0
 34 36  1  0  0  0
 34 59  1  0  0  0
 34111  1  0  0  0
 35 44  2  0  0  0
 35 45  1  0  0  0
 35 68  1  0  0  0
 36 56  1  0  0  0
 36112  1  0  0  0
 37 39  1  0  0  0
 37 47  1  0  0  0
 37 66  1  0  0  0
 37113  1  0  0  0
 38 43  2  0  0  0
 38 46  1  0  0  0
 38 47  1  0  0  0
 39 64  1  0  0  0
 39 67  2  0  0  0
 40 52  1  0  0  0
 40 53  2  0  0  0
 40 58  1  0  0  0
 41114  1  0  0  0
 41115  1  0  0  0
 41116  1  0  0  0
 41 48  1  0  0  0
 42 43  1  0  0  0
 42 66  1  0  0  0
 42117  1  0  0  0
 42118  1  0  0  0
 43 44  1  0  0  0
 44119  1  0  0  0
 45 46  2  0  0  0
 45120  1  0  0  0
 46121  1  0  0  0
 47122  1  0  0  0
 47123  1  0  0  0
 48 56  1  0  0  0
 48 65  1  0  0  0
 48124  1  0  0  0
 49 50  1  0  0  0
 49 53  1  0  0  0
 49 64  1  0  0  0
 49125  1  0  0  0
 50 51  1  0  0  0
 50126  1  0  0  0
 50127  1  0  0  0
 51 52  1  0  0  0
 51128  1  0  0  0
 51129  1  0  0  0
 52130  1  0  0  0
 52131  1  0  0  0
 53 54  1  0  0  0
 54 55  2  0  0  0
 54132  1  0  0  0
 55 57  1  0  0  0
 55133  1  0  0  0
 56 69  2  0  0  0
 57 58  2  0  0  0
 57134  1  0  0  0
 58135  1  0  0  0
 59 60  1  0  0  0
 59 61  1  0  0  0
 59 62  1  0  0  0
 60136  1  0  0  0
 60137  1  0  0  0
 60138  1  0  0  0
 61139  1  0  0  0
 61140  1  0  0  0
 61141  1  0  0  0
 62142  1  0  0  0
 62143  1  0  0  0
 62144  1  0  0  0
 63 65  1  0  0  0
 63145  1  0  0  0
 63146  1  0  0  0
 63147  1  0  0  0
 64148  1  0  0  0
 65149  1  0  0  0
 68 87  1  0  0  0
 71 73  2  0  0  0
 71 74  1  0  0  0
 71150  1  0  0  0
 72 75  2  0  0  0
 72 76  1  0  0  0
 72151  1  0  0  0
 73 75  1  0  0  0
 73 81  1  0  0  0
 74 76  2  0  0  0
 74 77  1  0  0  0
 75 82  1  0  0  0
 76 89  1  0  0  0
 77152  1  0  0  0
 77153  1  0  0  0
 77154  1  0  0  0
 78 81  1  0  0  0
 78155  1  0  0  0
 78156  1  0  0  0
 78157  1  0  0  0
 79158  1  0  0  0
 79159  1  0  0  0
 79160  1  0  0  0
 79 88  1  0  0  0
 80 88  1  0  0  0
 80161  1  0  0  0
 80162  1  0  0  0
 80163  1  0  0  0
 81164  1  0  0  0
 81165  1  0  0  0
 82 85  1  0  0  0
 82166  1  0  0  0
 82167  1  0  0  0
 83 84  1  0  0  0
 83 87  1  0  0  0
 83168  1  0  0  0
 83169  1  0  0  0
 84 88  1  0  0  0
 84170  1  0  0  0
 84171  1  0  0  0
 85 90  1  0  0  0
 85172  1  0  0  0
 85173  1  0  0  0
 86 88  1  0  0  0
 86 89  1  0  0  0
 86174  1  0  0  0
 86175  1  0  0  0
 87176  1  0  0  0
 87177  1  0  0  0
 89178  1  0  0  0
 90179  1  0  0  0
M  ISO  4   1 100  68 101  87 101  90 100
M  END
> <chiral flag>
0

> <version>
0

> <s_m_source_file>
/data/baiqing/PycharmProjects/Reinvent-master-3.2/result/LINK_invent/BTK/process_docking_weight1_custom_sum_contain_oxygen_bond_distance_aromatic_linkinvent_7_9_3/rearranged_h_0088.sdf

> <i_m_source_file_index>
77

> <r_mmod_Potential_Energy-OPLS-2005>
211.966934204102

> <r_mmod_Stretch_Energy-OPLS-2005>
38.4538688659668

> <r_mmod_Bend_Energy-OPLS-2005>
237.921493530273

> <r_mmod_Torsional_Energy-OPLS-2005>
329.379119873047

> <r_mmod_Improper_Torsional_Energy-OPLS-2005>
11.8567342758179

> <r_mmod_Van_der_Waal_Energy-OPLS-2005>
217.651733398438

> <r_mmod_Electrostatic_Energy-OPLS-2005>
-495.846130371094

> <r_mmod_Solvation_Energy-OPLS-2005>
-194.741775512695

> <b_mmod_Minimization_Converged-OPLS-2005>
0

> <r_mmod_RMS_Derivative-OPLS-2005>
8.13099479675293

$$$$
79
                    3D
 Structure written by MMmdl.
173181  0  0  1  0            999 V2000
  -30.6365  -14.7215   20.4480 C   0  0  0  0  0  0
  -30.4275  -12.4354   19.4668 C   0  0  0  0  0  0
  -29.5023  -12.4864   18.2306 C   0  0  0  0  0  0
  -28.0289  -12.3190   18.6475 C   0  0  0  0  0  0
  -27.6390  -13.2293   19.8437 C   0  0  2  0  0  0
  -28.6867  -13.1717   20.9780 C   0  0  0  0  0  0
  -25.2507  -13.8202   20.5661 C   0  0  0  0  0  0
  -24.1793  -13.0449   20.9185 C   0  0  0  0  0  0
  -24.6380  -11.6921   20.8728 C   0  0  0  0  0  0
  -23.9065  -10.4302   21.0407 C   0  0  0  0  0  0
  -24.3615   -9.4216   21.9189 C   0  0  0  0  0  0
  -23.6297   -8.2246   22.0751 C   0  0  0  0  0  0
  -22.4284   -8.0276   21.3534 C   0  0  0  0  0  0
  -21.9912   -9.0248   20.4630 C   0  0  0  0  0  0
  -22.7237  -10.2135   20.3047 C   0  0  0  0  0  0
  -21.6861   -6.0731   22.5278 C   0  0  0  0  0  0
  -21.4020   -6.5639   23.8207 C   0  0  0  0  0  0
  -21.3657   -5.6784   24.9163 C   0  0  0  0  0  0
  -21.6049   -4.3049   24.7220 C   0  0  0  0  0  0
  -21.8821   -3.8139   23.4335 C   0  0  0  0  0  0
  -21.9197   -4.6963   22.3393 C   0  0  0  0  0  0
  -22.7815  -13.5221   21.1869 C   0  0  0  0  0  0
  -22.1664   -4.2147   21.0975 F   0  0  0  0  0  0
  -21.5633   -3.4537   25.7730 F   0  0  0  0  0  0
  -29.9898  -13.5088   20.3868 N   0  0  0  0  0  0
  -26.2923  -12.9402   20.3257 N   0  0  0  0  0  0
  -25.9317  -11.6551   20.5747 N   0  0  0  0  0  0
  -22.0490  -12.8180   22.0412 N   0  0  0  0  0  0
  -25.4196  -15.1920   20.4058 N   0  0  0  0  0  0
  -31.8326  -14.7989   20.1534 O   0  0  0  0  0  0
  -21.6643   -6.8879   21.4237 O   0  0  0  0  0  0
  -22.3490  -14.5528   20.6732 O   0  0  0  0  0  0
  -24.6321  -31.8525   23.2010 C   0  0  0  0  0  0
  -25.9153  -32.4751   23.8336 C   0  0  1  0  0  0
  -27.2183  -27.2728   20.0941 C   0  0  0  0  0  0
  -25.5960  -33.8548   24.2267 N   0  0  0  0  0  0
  -23.4261  -30.4820   21.5455 C   0  0  2  0  0  0
  -24.8707  -28.9377   20.1038 C   0  0  0  0  0  0
  -22.7523  -29.4574   22.4916 C   0  0  0  0  0  0
  -18.0307  -28.1362   22.8455 C   0  0  0  0  0  0
  -24.1496  -36.7266   23.2653 C   0  0  0  0  0  0
  -25.9756  -30.7687   21.3805 C   0  0  0  0  0  0
  -26.0443  -29.3959   20.7139 C   0  0  0  0  0  0
  -27.2176  -28.5737   20.7044 C   0  0  0  0  0  0
  -26.0209  -26.8929   19.4410 C   0  0  0  0  0  0
  -24.8637  -27.6937   19.4596 C   0  0  0  0  0  0
  -23.6411  -29.8249   20.1586 C   0  0  0  0  0  0
  -25.4110  -36.3056   24.0346 C   0  0  1  0  0  0
  -20.5913  -28.3650   23.1275 C   0  0  2  0  0  0
  -20.6780  -26.9353   22.5423 C   0  0  0  0  0  0
  -19.5755  -26.6336   21.5230 C   0  0  0  0  0  0
  -18.1928  -26.7911   22.1596 C   0  0  0  0  0  0
  -19.1562  -28.8823   23.2857 C   0  0  0  0  0  0
  -18.9490  -30.1441   23.8850 C   0  0  0  0  0  0
  -17.6468  -30.6546   24.0545 C   0  0  0  0  0  0
  -25.9054  -34.9430   23.5110 C   0  0  0  0  0  0
  -16.5369  -29.9035   23.6329 C   0  0  0  0  0  0
  -16.7302  -28.6485   23.0318 C   0  0  0  0  0  0
  -26.4494  -31.6582   25.0742 C   0  0  0  0  0  0
  -25.3715  -31.3728   26.1477 C   0  0  0  0  0  0
  -27.0336  -30.2998   24.6222 C   0  0  0  0  0  0
  -27.6040  -32.4333   25.7495 C   0  0  0  0  0  0
  -27.5560  -37.1787   24.8466 C   0  0  0  0  0  0
  -21.4235  -29.3011   22.3663 N   0  0  0  0  0  0
  -26.4280  -37.3766   23.9421 N   0  0  0  0  0  0
  -24.6981  -31.0507   22.0992 N   0  0  0  0  0  0
  -23.4229  -28.8101   23.2993 O   0  0  0  0  0  0
  -28.3174  -26.3807   20.1550 O   0  0  0  0  0  0
  -26.5615  -34.8899   22.4676 O   0  0  0  0  0  0
  -23.5469  -32.1353   23.7310 O   0  0  0  0  0  0
  -27.8950  -20.8070   23.6230 C   0  0  0  0  0  0
  -27.8219  -21.5158   22.4160 C   0  0  0  0  0  0
  -28.6178  -21.1182   21.2914 C   0  0  0  0  0  0
  -28.6744  -19.6588   23.6860 C   0  0  0  0  0  0
  -29.2016  -19.7590   21.3968 C   0  0  0  0  0  0
  -28.0026  -17.5211   24.8596 C   0  0  0  0  0  0
  -24.3377  -23.0706   21.5477 C   0  0  0  0  0  0
  -29.8235  -19.1219   18.9396 C   0  0  0  0  0  0
  -26.7295  -22.5829   22.3581 C   0  0  0  0  0  0
  -28.6833  -22.1758   20.1022 C   0  0  0  0  0  0
  -28.7848  -18.8378   24.9548 C   0  0  0  0  0  0
  -25.4398  -22.0196   21.7353 C   0  0  0  0  0  0
  -29.0374  -23.7428   20.4148 C   0  0  0  0  0  0
  -30.3835  -17.3196   20.7304 C   0  0  0  0  0  0
  -28.1307  -24.9321   19.7959 C   0  0  0  0  0  0
  -29.4279  -18.5921   20.3266 C   0  0  1  0  0  0
  -29.2657  -19.1518   22.6006 N   0  0  0  0  0  0
  -29.8927  -15.8714   20.6371 N   0  0  0  0  0  0
  -31.4682  -12.5528   19.1580 H   0  0  0  0  0  0
  -30.3670  -11.4625   19.9586 H   0  0  0  0  0  0
  -29.7794  -11.7110   17.5145 H   0  0  0  0  0  0
  -29.6291  -13.4385   17.7151 H   0  0  0  0  0  0
  -27.8746  -11.2718   18.9137 H   0  0  0  0  0  0
  -27.3740  -12.5127   17.7973 H   0  0  0  0  0  0
  -27.6306  -14.2473   19.4565 H   0  0  0  0  0  0
  -28.7162  -12.1779   21.4263 H   0  0  0  0  0  0
  -28.4260  -13.8670   21.7791 H   0  0  0  0  0  0
  -25.2776   -9.5699   22.4740 H   0  0  0  0  0  0
  -24.0018   -7.4637   22.7467 H   0  0  0  0  0  0
  -21.0852   -8.8750   19.8921 H   0  0  0  0  0  0
  -22.3706  -10.9657   19.6130 H   0  0  0  0  0  0
  -21.2011   -7.6144   23.9710 H   0  0  0  0  0  0
  -21.1482   -6.0513   25.9066 H   0  0  0  0  0  0
  -22.0607   -2.7607   23.2834 H   0  0  0  0  0  0
  -22.4129  -11.9821   22.4745 H   0  0  0  0  0  0
  -21.1108  -13.1168   22.2654 H   0  0  0  0  0  0
  -24.6546  -15.8482   20.5168 H   0  0  0  0  0  0
  -26.2666  -15.6279   20.0649 H   0  0  0  0  0  0
  -26.7189  -32.5360   23.1033 H   0  0  0  0  0  0
  -25.0175  -33.9674   25.0462 H   0  0  0  0  0  0
  -22.7240  -31.3097   21.4038 H   0  0  0  0  0  0
  -23.3772  -35.9590   23.3315 H   0  0  0  0  0  0
  -24.3595  -36.8887   22.2071 H   0  0  0  0  0  0
  -23.7229  -37.6472   23.6659 H   0  0  0  0  0  0
  -26.1248  -31.5360   20.6179 H   0  0  0  0  0  0
  -26.8513  -30.8046   22.0173 H   0  0  0  0  0  0
  -28.1153  -28.9195   21.1955 H   0  0  0  0  0  0
  -25.9423  -25.9605   18.9054 H   0  0  0  0  0  0
  -23.9679  -27.3440   18.9651 H   0  0  0  0  0  0
  -23.7646  -30.6100   19.4099 H   0  0  0  0  0  0
  -22.7557  -29.2669   19.8491 H   0  0  0  0  0  0
  -25.1282  -36.1919   25.0843 H   0  0  0  0  0  0
  -21.0006  -28.3213   24.1397 H   0  0  0  0  0  0
  -20.5672  -26.2235   23.3608 H   0  0  0  0  0  0
  -21.6632  -26.7344   22.1203 H   0  0  0  0  0  0
  -19.6907  -25.6273   21.1216 H   0  0  0  0  0  0
  -19.6719  -27.3172   20.6791 H   0  0  0  0  0  0
  -17.4206  -26.6723   21.3975 H   0  0  0  0  0  0
  -18.0246  -26.0060   22.8978 H   0  0  0  0  0  0
  -19.7976  -30.7275   24.2152 H   0  0  0  0  0  0
  -17.5038  -31.6216   24.5168 H   0  0  0  0  0  0
  -15.5363  -30.2896   23.7699 H   0  0  0  0  0  0
  -15.8713  -28.0798   22.6988 H   0  0  0  0  0  0
  -24.5972  -30.6950   25.7845 H   0  0  0  0  0  0
  -24.8799  -32.2890   26.4768 H   0  0  0  0  0  0
  -25.8064  -30.9052   27.0322 H   0  0  0  0  0  0
  -26.2924  -29.6750   24.1227 H   0  0  0  0  0  0
  -27.4032  -29.7237   25.4714 H   0  0  0  0  0  0
  -27.8772  -30.4286   23.9439 H   0  0  0  0  0  0
  -27.2668  -33.3695   26.1941 H   0  0  0  0  0  0
  -28.3886  -32.6815   25.0336 H   0  0  0  0  0  0
  -28.0645  -31.8558   26.5515 H   0  0  0  0  0  0
  -28.2576  -38.0085   24.7503 H   0  0  0  0  0  0
  -28.1065  -36.2616   24.6294 H   0  0  0  0  0  0
  -27.2287  -37.1434   25.8878 H   0  0  0  0  0  0
  -20.9403  -29.8824   21.6950 H   0  0  0  0  0  0
  -26.0162  -38.2842   24.1441 H   0  0  0  0  0  0
  -27.3204  -21.1128   24.4874 H   0  0  0  0  0  0
  -28.0692  -16.9605   25.7930 H   0  0  0  0  0  0
  -28.4020  -16.8891   24.0654 H   0  0  0  0  0  0
  -26.9503  -17.7073   24.6460 H   0  0  0  0  0  0
  -23.4419  -22.6149   21.1252 H   0  0  0  0  0  0
  -24.6513  -23.8631   20.8680 H   0  0  0  0  0  0
  -24.0625  -23.5311   22.4967 H   0  0  0  0  0  0
  -29.0468  -19.7577   18.5177 H   0  0  0  0  0  0
  -29.9731  -18.3027   18.2351 H   0  0  0  0  0  0
  -30.7511  -19.6934   18.9855 H   0  0  0  0  0  0
  -27.0279  -23.4799   21.8433 H   0  0  0  0  0  0
  -26.5134  -22.9302   23.3686 H   0  0  0  0  0  0
  -27.7153  -22.1404   19.6014 H   0  0  0  0  0  0
  -29.3988  -21.8261   19.3596 H   0  0  0  0  0  0
  -28.4160  -19.4212   25.7987 H   0  0  0  0  0  0
  -29.8374  -18.6394   25.1606 H   0  0  0  0  0  0
  -25.6624  -21.5725   20.7658 H   0  0  0  0  0  0
  -25.0695  -21.2078   22.3644 H   0  0  0  0  0  0
  -30.0706  -23.9101   20.1074 H   0  0  0  0  0  0
  -29.0886  -23.8924   21.4921 H   0  0  0  0  0  0
  -30.7496  -17.4233   21.7517 H   0  0  0  0  0  0
  -31.3020  -17.3987   20.1469 H   0  0  0  0  0  0
  -27.1085  -24.6444   20.0330 H   0  0  0  0  0  0
  -28.2117  -24.8740   18.7094 H   0  0  0  0  0  0
  -28.4288  -18.1702   20.2090 H   0  0  0  0  0  0
  -28.9098  -15.7267   20.8185 H   0  0  0  0  0  0
  1 25  1  0  0  0
  1 30  2  0  0  0
  1 88  1  0  0  0
  2  3  1  0  0  0
  2 25  1  0  0  0
  2 89  1  0  0  0
  2 90  1  0  0  0
  3  4  1  0  0  0
  3 91  1  0  0  0
  3 92  1  0  0  0
  4  5  1  0  0  0
  4 93  1  0  0  0
  4 94  1  0  0  0
  5  6  1  0  0  0
  5 26  1  0  0  0
  5 95  1  0  0  0
  6 25  1  0  0  0
  6 96  1  0  0  0
  6 97  1  0  0  0
  7  8  2  0  0  0
  7 26  1  0  0  0
  7 29  1  0  0  0
  8  9  1  0  0  0
  8 22  1  0  0  0
  9 10  1  0  0  0
  9 27  2  0  0  0
 10 11  2  0  0  0
 10 15  1  0  0  0
 11 12  1  0  0  0
 11 98  1  0  0  0
 12 13  2  0  0  0
 12 99  1  0  0  0
 13 14  1  0  0  0
 13 31  1  0  0  0
 14 15  2  0  0  0
 14100  1  0  0  0
 15101  1  0  0  0
 16 17  2  0  0  0
 16 21  1  0  0  0
 16 31  1  0  0  0
 17 18  1  0  0  0
 17102  1  0  0  0
 18 19  2  0  0  0
 18103  1  0  0  0
 19 20  1  0  0  0
 19 24  1  0  0  0
 20 21  2  0  0  0
 20104  1  0  0  0
 21 23  1  0  0  0
 22 28  1  0  0  0
 22 32  2  0  0  0
 26 27  1  0  0  0
 28105  1  0  0  0
 28106  1  0  0  0
 29107  1  0  0  0
 29108  1  0  0  0
 33 34  1  0  0  0
 33 66  1  0  0  0
 33 70  2  0  0  0
 34 36  1  0  0  0
 34 59  1  0  0  0
 34109  1  0  0  0
 35 44  2  0  0  0
 35 45  1  0  0  0
 35 68  1  0  0  0
 36 56  1  0  0  0
 36110  1  0  0  0
 37 39  1  0  0  0
 37 47  1  0  0  0
 37 66  1  0  0  0
 37111  1  0  0  0
 38 43  2  0  0  0
 38 46  1  0  0  0
 38 47  1  0  0  0
 39 64  1  0  0  0
 39 67  2  0  0  0
 40 52  1  0  0  0
 40 53  2  0  0  0
 40 58  1  0  0  0
 41112  1  0  0  0
 41113  1  0  0  0
 41114  1  0  0  0
 41 48  1  0  0  0
 42 43  1  0  0  0
 42 66  1  0  0  0
 42115  1  0  0  0
 42116  1  0  0  0
 43 44  1  0  0  0
 44117  1  0  0  0
 45 46  2  0  0  0
 45118  1  0  0  0
 46119  1  0  0  0
 47120  1  0  0  0
 47121  1  0  0  0
 48 56  1  0  0  0
 48 65  1  0  0  0
 48122  1  0  0  0
 49 50  1  0  0  0
 49 53  1  0  0  0
 49 64  1  0  0  0
 49123  1  0  0  0
 50 51  1  0  0  0
 50124  1  0  0  0
 50125  1  0  0  0
 51 52  1  0  0  0
 51126  1  0  0  0
 51127  1  0  0  0
 52128  1  0  0  0
 52129  1  0  0  0
 53 54  1  0  0  0
 54 55  2  0  0  0
 54130  1  0  0  0
 55 57  1  0  0  0
 55131  1  0  0  0
 56 69  2  0  0  0
 57 58  2  0  0  0
 57132  1  0  0  0
 58133  1  0  0  0
 59 60  1  0  0  0
 59 61  1  0  0  0
 59 62  1  0  0  0
 60134  1  0  0  0
 60135  1  0  0  0
 60136  1  0  0  0
 61137  1  0  0  0
 61138  1  0  0  0
 61139  1  0  0  0
 62140  1  0  0  0
 62141  1  0  0  0
 62142  1  0  0  0
 63 65  1  0  0  0
 63143  1  0  0  0
 63144  1  0  0  0
 63145  1  0  0  0
 64146  1  0  0  0
 65147  1  0  0  0
 68 85  1  0  0  0
 71 72  2  0  0  0
 71 74  1  0  0  0
 71148  1  0  0  0
 72 73  1  0  0  0
 72 79  1  0  0  0
 73 75  2  0  0  0
 73 80  1  0  0  0
 74 81  1  0  0  0
 74 87  2  0  0  0
 75 86  1  0  0  0
 75 87  1  0  0  0
 76 81  1  0  0  0
 76149  1  0  0  0
 76150  1  0  0  0
 76151  1  0  0  0
 77 82  1  0  0  0
 77152  1  0  0  0
 77153  1  0  0  0
 77154  1  0  0  0
 78155  1  0  0  0
 78156  1  0  0  0
 78157  1  0  0  0
 78 86  1  0  0  0
 79 82  1  0  0  0
 79158  1  0  0  0
 79159  1  0  0  0
 80 83  1  0  0  0
 80160  1  0  0  0
 80161  1  0  0  0
 81162  1  0  0  0
 81163  1  0  0  0
 82164  1  0  0  0
 82165  1  0  0  0
 83 85  1  0  0  0
 83166  1  0  0  0
 83167  1  0  0  0
 84 86  1  0  0  0
 84 88  1  0  0  0
 84168  1  0  0  0
 84169  1  0  0  0
 85170  1  0  0  0
 85171  1  0  0  0
 86172  1  0  0  0
 88173  1  0  0  0
M  ISO  4   1 100  68 101  85 101  88 100
M  END
> <chiral flag>
0

> <version>
0

> <s_m_source_file>
/data/baiqing/PycharmProjects/Reinvent-master-3.2/result/LINK_invent/BTK/process_docking_weight1_custom_sum_contain_oxygen_bond_distance_aromatic_linkinvent_7_9_3/rearranged_h_0088.sdf

> <i_m_source_file_index>
78

> <r_mmod_Potential_Energy-OPLS-2005>
117.71216583252

> <r_mmod_Stretch_Energy-OPLS-2005>
142.615432739258

> <r_mmod_Bend_Energy-OPLS-2005>
202.657363891602

> <r_mmod_Torsional_Energy-OPLS-2005>
278.914215087891

> <r_mmod_Improper_Torsional_Energy-OPLS-2005>
8.01585674285889

> <r_mmod_Van_der_Waal_Energy-OPLS-2005>
149.765289306641

> <r_mmod_Electrostatic_Energy-OPLS-2005>
-533.202270507812

> <r_mmod_Solvation_Energy-OPLS-2005>
-210.594680786133

> <b_mmod_Minimization_Converged-OPLS-2005>
0

> <r_mmod_RMS_Derivative-OPLS-2005>
3.96152830123901

$$$$
80
                    3D
 Structure written by MMmdl.
167175  0  0  1  0            999 V2000
  -30.4007  -15.3444   20.3616 C   0  0  0  0  0  0
  -30.4373  -12.8662   19.5240 C   0  0  0  0  0  0
  -29.5418  -12.5947   18.2889 C   0  0  0  0  0  0
  -28.0898  -12.3093   18.7103 C   0  0  0  0  0  0
  -27.6055  -13.2843   19.8123 C   0  0  2  0  0  0
  -28.6357  -13.4900   20.9426 C   0  0  0  0  0  0
  -25.2371  -13.8257   20.5729 C   0  0  0  0  0  0
  -24.1745  -13.0423   20.9264 C   0  0  0  0  0  0
  -24.6421  -11.6932   20.8762 C   0  0  0  0  0  0
  -23.9131  -10.4281   21.0392 C   0  0  0  0  0  0
  -24.3665   -9.4193   21.9173 C   0  0  0  0  0  0
  -23.6317   -8.2236   22.0752 C   0  0  0  0  0  0
  -22.4296   -8.0281   21.3547 C   0  0  0  0  0  0
  -21.9944   -9.0256   20.4641 C   0  0  0  0  0  0
  -22.7296  -10.2124   20.3044 C   0  0  0  0  0  0
  -21.6862   -6.0734   22.5283 C   0  0  0  0  0  0
  -21.4010   -6.5638   23.8217 C   0  0  0  0  0  0
  -21.3663   -5.6791   24.9179 C   0  0  0  0  0  0
  -21.6051   -4.3057   24.7227 C   0  0  0  0  0  0
  -21.8820   -3.8149   23.4349 C   0  0  0  0  0  0
  -21.9191   -4.6961   22.3402 C   0  0  0  0  0  0
  -22.7760  -13.5167   21.1908 C   0  0  0  0  0  0
  -22.1662   -4.2146   21.0973 F   0  0  0  0  0  0
  -21.5630   -3.4543   25.7735 F   0  0  0  0  0  0
  -29.8527  -14.0225   20.3063 N   0  0  0  0  0  0
  -26.2795  -12.9544   20.3155 N   0  0  0  0  0  0
  -25.9354  -11.6645   20.5681 N   0  0  0  0  0  0
  -22.0420  -12.8148   22.0460 N   0  0  0  0  0  0
  -25.3951  -15.1993   20.4155 N   0  0  0  0  0  0
  -31.6332  -15.3181   20.1954 O   0  0  0  0  0  0
  -21.6652   -6.8883   21.4242 O   0  0  0  0  0  0
  -22.3429  -14.5454   20.6728 O   0  0  0  0  0  0
  -24.6670  -31.8206   23.1659 C   0  0  0  0  0  0
  -25.9334  -32.4575   23.8154 C   0  0  1  0  0  0
  -27.2165  -26.8796   20.2093 C   0  0  0  0  0  0
  -25.5998  -33.8397   24.2057 N   0  0  0  0  0  0
  -23.4837  -30.4299   21.5157 C   0  0  2  0  0  0
  -24.9359  -28.7992   20.1254 C   0  0  0  0  0  0
  -22.7686  -29.4432   22.4764 C   0  0  0  0  0  0
  -18.0326  -28.1419   22.8470 C   0  0  0  0  0  0
  -24.1468  -36.7168   23.2653 C   0  0  0  0  0  0
  -26.0558  -30.6111   21.4053 C   0  0  0  0  0  0
  -26.1208  -29.1931   20.7579 C   0  0  0  0  0  0
  -27.2583  -28.2591   20.7644 C   0  0  0  0  0  0
  -25.9979  -26.6402   19.5377 C   0  0  0  0  0  0
  -24.9012  -27.5438   19.4943 C   0  0  0  0  0  0
  -23.7281  -29.7383   20.1460 C   0  0  0  0  0  0
  -25.4125  -36.2955   24.0292 C   0  0  1  0  0  0
  -20.5957  -28.3765   23.1180 C   0  0  2  0  0  0
  -20.6811  -26.9451   22.5400 C   0  0  0  0  0  0
  -19.5772  -26.6377   21.5227 C   0  0  0  0  0  0
  -18.1949  -26.7951   22.1625 C   0  0  0  0  0  0
  -19.1596  -28.8918   23.2804 C   0  0  0  0  0  0
  -18.9509  -30.1505   23.8843 C   0  0  0  0  0  0
  -17.6506  -30.6612   24.0559 C   0  0  0  0  0  0
  -25.9103  -34.9344   23.4984 C   0  0  0  0  0  0
  -16.5387  -29.9100   23.6361 C   0  0  0  0  0  0
  -16.7311  -28.6514   23.0387 C   0  0  0  0  0  0
  -26.4590  -31.6549   25.0702 C   0  0  0  0  0  0
  -25.3703  -31.3806   26.1340 C   0  0  0  0  0  0
  -27.0538  -30.2915   24.6500 C   0  0  0  0  0  0
  -27.6048  -32.4406   25.7513 C   0  0  0  0  0  0
  -27.5547  -37.1737   24.8476 C   0  0  0  0  0  0
  -21.4360  -29.3047   22.3522 N   0  0  0  0  0  0
  -26.4253  -37.3706   23.9425 N   0  0  0  0  0  0
  -24.7569  -30.9838   22.0816 N   0  0  0  0  0  0
  -23.4217  -28.8017   23.3038 O   0  0  0  0  0  0
  -28.2598  -25.8015   20.1566 O   0  0  0  0  0  0
  -26.5701  -34.8891   22.4573 O   0  0  0  0  0  0
  -23.5732  -32.1206   23.6708 O   0  0  0  0  0  0
  -30.5550  -21.1101   20.7173 C   0  0  0  0  0  0
  -28.8995  -19.4712   20.2041 C   0  0  0  0  0  0
  -29.2051  -20.9917   20.3300 C   0  0  0  0  0  0
  -31.4129  -19.9879   20.9179 C   0  0  0  0  0  0
  -29.8270  -18.2464   20.4409 C   0  0  0  0  0  0
  -33.3288  -22.8088   19.5071 C   0  0  0  0  0  0
  -34.8954  -23.5415   21.3328 C   0  0  0  0  0  0
  -26.8902  -22.1127   19.7961 C   0  0  0  0  0  0
  -28.8837  -22.7750   18.4683 C   0  0  0  0  0  0
  -32.8953  -20.1553   21.2552 C   0  0  0  0  0  0
  -33.3894  -21.5376   21.7440 C   0  0  0  0  0  0
  -28.3228  -24.1873   20.6144 C   0  0  0  0  0  0
  -34.1872  -22.3411   20.6900 C   0  0  0  0  0  0
  -28.3751  -22.5032   19.8911 C   0  0  0  0  0  0
  -31.0619  -18.6724   20.7928 N   0  0  0  0  0  0
  -29.6105  -16.6253   20.3694 N   0  0  0  0  0  0
  -31.4517  -13.0856   19.1882 H   0  0  0  0  0  0
  -30.5235  -11.9728   20.1452 H   0  0  0  0  0  0
  -29.9356  -11.7624   17.7038 H   0  0  0  0  0  0
  -29.5674  -13.4675   17.6349 H   0  0  0  0  0  0
  -28.0472  -11.2858   19.0823 H   0  0  0  0  0  0
  -27.4298  -12.3471   17.8424 H   0  0  0  0  0  0
  -27.5076  -14.2453   19.3052 H   0  0  0  0  0  0
  -28.8259  -12.5669   21.4910 H   0  0  0  0  0  0
  -28.2609  -14.2128   21.6690 H   0  0  0  0  0  0
  -25.2799   -9.5657   22.4763 H   0  0  0  0  0  0
  -24.0014   -7.4629   22.7482 H   0  0  0  0  0  0
  -21.0867   -8.8791   19.8954 H   0  0  0  0  0  0
  -22.3755  -10.9668   19.6160 H   0  0  0  0  0  0
  -21.2003   -7.6148   23.9715 H   0  0  0  0  0  0
  -21.1487   -6.0522   25.9078 H   0  0  0  0  0  0
  -22.0593   -2.7609   23.2851 H   0  0  0  0  0  0
  -22.4047  -11.9834   22.4897 H   0  0  0  0  0  0
  -21.1012  -13.1140   22.2624 H   0  0  0  0  0  0
  -24.6189  -15.8430   20.5251 H   0  0  0  0  0  0
  -26.2202  -15.6427   20.0368 H   0  0  0  0  0  0
  -26.7404  -32.5104   23.0874 H   0  0  0  0  0  0
  -25.0198  -33.9508   25.0247 H   0  0  0  0  0  0
  -22.7986  -31.2623   21.3397 H   0  0  0  0  0  0
  -23.3762  -35.9465   23.3289 H   0  0  0  0  0  0
  -24.3531  -36.8844   22.2074 H   0  0  0  0  0  0
  -23.7190  -37.6324   23.6737 H   0  0  0  0  0  0
  -26.2473  -31.3464   20.6224 H   0  0  0  0  0  0
  -26.9115  -30.6697   22.0666 H   0  0  0  0  0  0
  -28.1672  -28.5761   21.2560 H   0  0  0  0  0  0
  -25.8792  -25.6876   19.0397 H   0  0  0  0  0  0
  -24.0021  -27.2376   18.9787 H   0  0  0  0  0  0
  -23.8966  -30.5058   19.3892 H   0  0  0  0  0  0
  -22.8373  -29.2000   19.8186 H   0  0  0  0  0  0
  -25.1328  -36.1727   25.0780 H   0  0  0  0  0  0
  -21.0045  -28.3369   24.1303 H   0  0  0  0  0  0
  -20.5722  -26.2402   23.3651 H   0  0  0  0  0  0
  -21.6670  -26.7438   22.1193 H   0  0  0  0  0  0
  -19.6936  -25.6270   21.1302 H   0  0  0  0  0  0
  -19.6701  -27.3165   20.6733 H   0  0  0  0  0  0
  -17.4234  -26.6726   21.4005 H   0  0  0  0  0  0
  -18.0303  -26.0104   22.9028 H   0  0  0  0  0  0
  -19.7990  -30.7338   24.2174 H   0  0  0  0  0  0
  -17.5061  -31.6288   24.5168 H   0  0  0  0  0  0
  -15.5388  -30.2995   23.7709 H   0  0  0  0  0  0
  -15.8703  -28.0806   22.7153 H   0  0  0  0  0  0
  -24.5885  -30.7177   25.7611 H   0  0  0  0  0  0
  -24.8911  -32.3019   26.4655 H   0  0  0  0  0  0
  -25.7911  -30.9013   27.0189 H   0  0  0  0  0  0
  -26.3245  -29.6545   24.1488 H   0  0  0  0  0  0
  -27.4035  -29.7327   25.5194 H   0  0  0  0  0  0
  -27.9186  -30.4092   23.9970 H   0  0  0  0  0  0
  -27.2584  -33.3760   26.1927 H   0  0  0  0  0  0
  -28.3939  -32.6903   25.0404 H   0  0  0  0  0  0
  -28.0647  -31.8665   26.5574 H   0  0  0  0  0  0
  -28.2552  -38.0046   24.7537 H   0  0  0  0  0  0
  -28.1044  -36.2569   24.6280 H   0  0  0  0  0  0
  -27.2260  -37.1352   25.8878 H   0  0  0  0  0  0
  -20.9628  -29.8711   21.6618 H   0  0  0  0  0  0
  -26.0074  -38.2734   24.1495 H   0  0  0  0  0  0
  -30.9503  -22.1115   20.7982 H   0  0  0  0  0  0
  -27.8966  -19.2329   19.8760 H   0  0  0  0  0  0
  -33.9411  -23.3246   18.7666 H   0  0  0  0  0  0
  -32.5499  -23.5010   19.8285 H   0  0  0  0  0  0
  -32.8541  -21.9683   19.0009 H   0  0  0  0  0  0
  -35.4942  -24.0757   20.5951 H   0  0  0  0  0  0
  -35.5740  -23.2275   22.1264 H   0  0  0  0  0  0
  -34.1840  -24.2498   21.7607 H   0  0  0  0  0  0
  -26.7299  -21.2816   19.1082 H   0  0  0  0  0  0
  -26.2752  -22.9463   19.4527 H   0  0  0  0  0  0
  -26.5117  -21.8093   20.7720 H   0  0  0  0  0  0
  -28.7304  -21.9133   17.8187 H   0  0  0  0  0  0
  -29.9514  -22.9884   18.4784 H   0  0  0  0  0  0
  -28.3795  -23.6281   18.0142 H   0  0  0  0  0  0
  -33.4763  -19.8422   20.3868 H   0  0  0  0  0  0
  -33.1282  -19.4255   22.0319 H   0  0  0  0  0  0
  -34.0802  -21.3363   22.5661 H   0  0  0  0  0  0
  -32.5995  -22.1285   22.2052 H   0  0  0  0  0  0
  -29.2846  -24.2095   21.1253 H   0  0  0  0  0  0
  -27.6157  -24.1251   21.4424 H   0  0  0  0  0  0
  -34.9657  -21.6888   20.2903 H   0  0  0  0  0  0
  -28.6288  -16.4004   20.3375 H   0  0  0  0  0  0
  1 25  1  0  0  0
  1 30  2  0  0  0
  1 86  1  0  0  0
  2  3  1  0  0  0
  2 25  1  0  0  0
  2 87  1  0  0  0
  2 88  1  0  0  0
  3  4  1  0  0  0
  3 89  1  0  0  0
  3 90  1  0  0  0
  4  5  1  0  0  0
  4 91  1  0  0  0
  4 92  1  0  0  0
  5  6  1  0  0  0
  5 26  1  0  0  0
  5 93  1  0  0  0
  6 25  1  0  0  0
  6 94  1  0  0  0
  6 95  1  0  0  0
  7  8  2  0  0  0
  7 26  1  0  0  0
  7 29  1  0  0  0
  8  9  1  0  0  0
  8 22  1  0  0  0
  9 10  1  0  0  0
  9 27  2  0  0  0
 10 11  2  0  0  0
 10 15  1  0  0  0
 11 12  1  0  0  0
 11 96  1  0  0  0
 12 13  2  0  0  0
 12 97  1  0  0  0
 13 14  1  0  0  0
 13 31  1  0  0  0
 14 15  2  0  0  0
 14 98  1  0  0  0
 15 99  1  0  0  0
 16 17  2  0  0  0
 16 21  1  0  0  0
 16 31  1  0  0  0
 17 18  1  0  0  0
 17100  1  0  0  0
 18 19  2  0  0  0
 18101  1  0  0  0
 19 20  1  0  0  0
 19 24  1  0  0  0
 20 21  2  0  0  0
 20102  1  0  0  0
 21 23  1  0  0  0
 22 28  1  0  0  0
 22 32  2  0  0  0
 26 27  1  0  0  0
 28103  1  0  0  0
 28104  1  0  0  0
 29105  1  0  0  0
 29106  1  0  0  0
 33 34  1  0  0  0
 33 66  1  0  0  0
 33 70  2  0  0  0
 34 36  1  0  0  0
 34 59  1  0  0  0
 34107  1  0  0  0
 35 44  2  0  0  0
 35 45  1  0  0  0
 35 68  1  0  0  0
 36 56  1  0  0  0
 36108  1  0  0  0
 37 39  1  0  0  0
 37 47  1  0  0  0
 37 66  1  0  0  0
 37109  1  0  0  0
 38 43  2  0  0  0
 38 46  1  0  0  0
 38 47  1  0  0  0
 39 64  1  0  0  0
 39 67  2  0  0  0
 40 52  1  0  0  0
 40 53  2  0  0  0
 40 58  1  0  0  0
 41110  1  0  0  0
 41111  1  0  0  0
 41112  1  0  0  0
 41 48  1  0  0  0
 42 43  1  0  0  0
 42 66  1  0  0  0
 42113  1  0  0  0
 42114  1  0  0  0
 43 44  1  0  0  0
 44115  1  0  0  0
 45 46  2  0  0  0
 45116  1  0  0  0
 46117  1  0  0  0
 47118  1  0  0  0
 47119  1  0  0  0
 48 56  1  0  0  0
 48 65  1  0  0  0
 48120  1  0  0  0
 49 50  1  0  0  0
 49 53  1  0  0  0
 49 64  1  0  0  0
 49121  1  0  0  0
 50 51  1  0  0  0
 50122  1  0  0  0
 50123  1  0  0  0
 51 52  1  0  0  0
 51124  1  0  0  0
 51125  1  0  0  0
 52126  1  0  0  0
 52127  1  0  0  0
 53 54  1  0  0  0
 54 55  2  0  0  0
 54128  1  0  0  0
 55 57  1  0  0  0
 55129  1  0  0  0
 56 69  2  0  0  0
 57 58  2  0  0  0
 57130  1  0  0  0
 58131  1  0  0  0
 59 60  1  0  0  0
 59 61  1  0  0  0
 59 62  1  0  0  0
 60132  1  0  0  0
 60133  1  0  0  0
 60134  1  0  0  0
 61135  1  0  0  0
 61136  1  0  0  0
 61137  1  0  0  0
 62138  1  0  0  0
 62139  1  0  0  0
 62140  1  0  0  0
 63 65  1  0  0  0
 63141  1  0  0  0
 63142  1  0  0  0
 63143  1  0  0  0
 64144  1  0  0  0
 65145  1  0  0  0
 68 82  1  0  0  0
 71 73  2  0  0  0
 71 74  1  0  0  0
 71146  1  0  0  0
 72 73  1  0  0  0
 72 75  2  0  0  0
 72147  1  0  0  0
 73 84  1  0  0  0
 74 80  1  0  0  0
 74 85  2  0  0  0
 75 85  1  0  0  0
 75 86  1  0  0  0
 76148  1  0  0  0
 76149  1  0  0  0
 76150  1  0  0  0
 76 83  1  0  0  0
 77 83  1  0  0  0
 77151  1  0  0  0
 77152  1  0  0  0
 77153  1  0  0  0
 78154  1  0  0  0
 78155  1  0  0  0
 78156  1  0  0  0
 78 84  1  0  0  0
 79 84  1  0  0  0
 79157  1  0  0  0
 79158  1  0  0  0
 79159  1  0  0  0
 80 81  1  0  0  0
 80160  1  0  0  0
 80161  1  0  0  0
 81 83  1  0  0  0
 81162  1  0  0  0
 81163  1  0  0  0
 82 84  1  0  0  0
 82164  1  0  0  0
 82165  1  0  0  0
 83166  1  0  0  0
 86167  1  0  0  0
M  ISO  4   1 100  68 101  82 101  86 100
M  END
> <chiral flag>
0

> <version>
0

> <s_m_source_file>
/data/baiqing/PycharmProjects/Reinvent-master-3.2/result/LINK_invent/BTK/process_docking_weight1_custom_sum_contain_oxygen_bond_distance_aromatic_linkinvent_7_9_3/rearranged_h_0088.sdf

> <i_m_source_file_index>
79

> <r_mmod_Potential_Energy-OPLS-2005>
1333.73083496094

> <r_mmod_Stretch_Energy-OPLS-2005>
661.830261230469

> <r_mmod_Bend_Energy-OPLS-2005>
506.041625976562

> <r_mmod_Torsional_Energy-OPLS-2005>
253.432830810547

> <r_mmod_Improper_Torsional_Energy-OPLS-2005>
6.72344827651978

> <r_mmod_Van_der_Waal_Energy-OPLS-2005>
122.192565917969

> <r_mmod_Electrostatic_Energy-OPLS-2005>
-515.177062988281

> <r_mmod_Solvation_Energy-OPLS-2005>
-226.214126586914

> <b_mmod_Minimization_Converged-OPLS-2005>
0

> <r_mmod_RMS_Derivative-OPLS-2005>
2.2624659538269

$$$$
81
                    3D
 Structure written by MMmdl.
162170  0  0  1  0            999 V2000
  -30.6134  -14.7526   20.4882 C   0  0  0  0  0  0
  -30.4168  -12.4708   19.4821 C   0  0  0  0  0  0
  -29.4999  -12.5311   18.2416 C   0  0  0  0  0  0
  -28.0325  -12.3146   18.6589 C   0  0  0  0  0  0
  -27.6273  -13.2279   19.8454 C   0  0  2  0  0  0
  -28.6656  -13.1805   20.9839 C   0  0  0  0  0  0
  -25.2352  -13.8046   20.5600 C   0  0  0  0  0  0
  -24.1700  -13.0342   20.9184 C   0  0  0  0  0  0
  -24.6324  -11.6834   20.8719 C   0  0  0  0  0  0
  -23.9010  -10.4249   21.0379 C   0  0  0  0  0  0
  -24.3587   -9.4182   21.9148 C   0  0  0  0  0  0
  -23.6279   -8.2207   22.0723 C   0  0  0  0  0  0
  -22.4259   -8.0244   21.3516 C   0  0  0  0  0  0
  -21.9868   -9.0197   20.4604 C   0  0  0  0  0  0
  -22.7179  -10.2081   20.3022 C   0  0  0  0  0  0
  -21.6850   -6.0710   22.5297 C   0  0  0  0  0  0
  -21.4001   -6.5618   23.8227 C   0  0  0  0  0  0
  -21.3671   -5.6770   24.9186 C   0  0  0  0  0  0
  -21.6056   -4.3030   24.7227 C   0  0  0  0  0  0
  -21.8835   -3.8131   23.4349 C   0  0  0  0  0  0
  -21.9203   -4.6945   22.3408 C   0  0  0  0  0  0
  -22.7747  -13.5146   21.1886 C   0  0  0  0  0  0
  -22.1681   -4.2138   21.0973 F   0  0  0  0  0  0
  -21.5639   -3.4515   25.7735 F   0  0  0  0  0  0
  -29.9680  -13.5362   20.4043 N   0  0  0  0  0  0
  -26.2833  -12.9327   20.3235 N   0  0  0  0  0  0
  -25.9262  -11.6481   20.5748 N   0  0  0  0  0  0
  -22.0429  -12.8114   22.0445 N   0  0  0  0  0  0
  -25.3853  -15.1695   20.3876 N   0  0  0  0  0  0
  -31.8096  -14.8334   20.2026 O   0  0  0  0  0  0
  -21.6637   -6.8836   21.4245 O   0  0  0  0  0  0
  -22.3409  -14.5480   20.6779 O   0  0  0  0  0  0
  -24.6306  -31.8587   23.1942 C   0  0  0  0  0  0
  -25.9133  -32.4768   23.8316 C   0  0  1  0  0  0
  -27.2393  -27.2892   20.1383 C   0  0  0  0  0  0
  -25.5958  -33.8573   24.2257 N   0  0  0  0  0  0
  -23.4261  -30.4808   21.5348 C   0  0  2  0  0  0
  -24.8770  -28.9188   20.1126 C   0  0  0  0  0  0
  -22.7482  -29.4654   22.4858 C   0  0  0  0  0  0
  -18.0318  -28.1402   22.8476 C   0  0  0  0  0  0
  -24.1497  -36.7308   23.2625 C   0  0  0  0  0  0
  -25.9650  -30.7825   21.3625 C   0  0  0  0  0  0
  -26.0442  -29.4002   20.7200 C   0  0  0  0  0  0
  -27.2268  -28.6000   20.7175 C   0  0  0  0  0  0
  -26.0562  -26.8621   19.5014 C   0  0  0  0  0  0
  -24.8882  -27.6568   19.4921 C   0  0  0  0  0  0
  -23.6459  -29.8057   20.1544 C   0  0  0  0  0  0
  -25.4119  -36.3085   24.0308 C   0  0  1  0  0  0
  -20.5918  -28.3745   23.1227 C   0  0  2  0  0  0
  -20.6811  -26.9459   22.5381 C   0  0  0  0  0  0
  -19.5780  -26.6401   21.5195 C   0  0  0  0  0  0
  -18.1960  -26.7940   22.1618 C   0  0  0  0  0  0
  -19.1566  -28.8883   23.2853 C   0  0  0  0  0  0
  -18.9485  -30.1481   23.8866 C   0  0  0  0  0  0
  -17.6479  -30.6585   24.0584 C   0  0  0  0  0  0
  -25.9047  -34.9454   23.5075 C   0  0  0  0  0  0
  -16.5380  -29.9094   23.6324 C   0  0  0  0  0  0
  -16.7299  -28.6532   23.0308 C   0  0  0  0  0  0
  -26.4506  -31.6573   25.0685 C   0  0  0  0  0  0
  -25.3715  -31.3747   26.1398 C   0  0  0  0  0  0
  -27.0310  -30.2993   24.6103 C   0  0  0  0  0  0
  -27.6076  -32.4300   25.7457 C   0  0  0  0  0  0
  -27.5572  -37.1810   24.8447 C   0  0  0  0  0  0
  -21.4185  -29.3101   22.3597 N   0  0  0  0  0  0
  -26.4287  -37.3788   23.9381 N   0  0  0  0  0  0
  -24.6931  -31.0593   22.0891 N   0  0  0  0  0  0
  -23.4175  -28.8185   23.2948 O   0  0  0  0  0  0
  -28.3714  -26.4537   20.1203 O   0  0  0  0  0  0
  -26.5598  -34.8944   22.4633 O   0  0  0  0  0  0
  -23.5466  -32.1393   23.7252 O   0  0  0  0  0  0
  -26.6607  -20.1385   18.2640 C   0  0  0  0  0  0
  -27.6450  -21.0939   18.5528 C   0  0  0  0  0  0
  -26.4741  -19.0486   19.1282 C   0  0  0  0  0  0
  -28.5191  -20.9306   19.6531 C   0  0  0  0  0  0
  -27.4462  -18.7743   20.1186 C   0  0  0  0  0  0
  -28.6247  -19.5612   20.1949 C   0  0  0  0  0  0
  -25.2460  -18.1750   18.9272 C   0  0  0  0  0  0
  -27.2373  -17.6333   21.0925 C   0  0  0  0  0  0
  -28.9406  -22.2935   20.3729 C   0  0  0  0  0  0
  -29.9891  -18.7349   20.3080 C   0  0  0  0  0  0
  -28.6065  -23.7641   19.7298 C   0  0  0  0  0  0
  -30.2973  -17.3216   21.1005 C   0  0  0  0  0  0
  -28.3132  -25.0575   20.6544 C   0  0  0  0  0  0
  -29.8604  -15.8969   20.7163 N   0  0  0  0  0  0
  -31.4621  -12.5886   19.1968 H   0  0  0  0  0  0
  -30.3436  -11.4982   19.9717 H   0  0  0  0  0  0
  -29.8069  -11.7884   17.5027 H   0  0  0  0  0  0
  -29.5961  -13.5059   17.7593 H   0  0  0  0  0  0
  -27.9236  -11.2670   18.9435 H   0  0  0  0  0  0
  -27.3659  -12.4725   17.8100 H   0  0  0  0  0  0
  -27.6117  -14.2451   19.4530 H   0  0  0  0  0  0
  -28.6971  -12.1871   21.4320 H   0  0  0  0  0  0
  -28.3786  -13.8581   21.7901 H   0  0  0  0  0  0
  -25.2762   -9.5692   22.4656 H   0  0  0  0  0  0
  -24.0044   -7.4583   22.7409 H   0  0  0  0  0  0
  -21.0818   -8.8662   19.8863 H   0  0  0  0  0  0
  -22.3639  -10.9587   19.6086 H   0  0  0  0  0  0
  -21.1964   -7.6123   23.9725 H   0  0  0  0  0  0
  -21.1487   -6.0488   25.9083 H   0  0  0  0  0  0
  -22.0599   -2.7599   23.2850 H   0  0  0  0  0  0
  -22.4103  -11.9813   22.4888 H   0  0  0  0  0  0
  -21.1024  -13.1054   22.2656 H   0  0  0  0  0  0
  -24.6005  -15.8031   20.4643 H   0  0  0  0  0  0
  -26.2264  -15.6125   20.0512 H   0  0  0  0  0  0
  -26.7196  -32.5469   23.1058 H   0  0  0  0  0  0
  -25.0217  -33.9727   25.0481 H   0  0  0  0  0  0
  -22.7255  -31.3024   21.3816 H   0  0  0  0  0  0
  -23.3753  -35.9645   23.3274 H   0  0  0  0  0  0
  -24.3592  -36.8954   22.2042 H   0  0  0  0  0  0
  -23.7253  -37.6512   23.6652 H   0  0  0  0  0  0
  -26.0804  -31.5333   20.5804 H   0  0  0  0  0  0
  -26.8494  -30.8561   21.9803 H   0  0  0  0  0  0
  -28.1267  -28.9724   21.1853 H   0  0  0  0  0  0
  -26.0415  -25.9047   18.9972 H   0  0  0  0  0  0
  -23.9970  -27.2878   19.0026 H   0  0  0  0  0  0
  -23.7711  -30.5766   19.3942 H   0  0  0  0  0  0
  -22.7650  -29.2390   19.8512 H   0  0  0  0  0  0
  -25.1297  -36.1938   25.0797 H   0  0  0  0  0  0
  -21.0058  -28.3359   24.1319 H   0  0  0  0  0  0
  -20.5737  -26.2359   23.3595 H   0  0  0  0  0  0
  -21.6673  -26.7469   22.1156 H   0  0  0  0  0  0
  -19.6955  -25.6302   21.1235 H   0  0  0  0  0  0
  -19.6713  -27.3192   20.6707 H   0  0  0  0  0  0
  -17.4225  -26.6665   21.4021 H   0  0  0  0  0  0
  -18.0385  -26.0077   22.9018 H   0  0  0  0  0  0
  -19.7962  -30.7328   24.2176 H   0  0  0  0  0  0
  -17.5036  -31.6245   24.5227 H   0  0  0  0  0  0
  -15.5384  -30.3000   23.7643 H   0  0  0  0  0  0
  -15.8699  -28.0875   22.6966 H   0  0  0  0  0  0
  -24.5916  -30.7052   25.7739 H   0  0  0  0  0  0
  -24.8862  -32.2930   26.4728 H   0  0  0  0  0  0
  -25.8042  -30.9004   27.0211 H   0  0  0  0  0  0
  -26.2845  -29.6782   24.1132 H   0  0  0  0  0  0
  -27.4013  -29.7231   25.4591 H   0  0  0  0  0  0
  -27.8727  -30.4275   23.9291 H   0  0  0  0  0  0
  -27.2695  -33.3628   26.1986 H   0  0  0  0  0  0
  -28.3922  -32.6808   25.0300 H   0  0  0  0  0  0
  -28.0681  -31.8422   26.5408 H   0  0  0  0  0  0
  -28.2581  -38.0123   24.7514 H   0  0  0  0  0  0
  -28.1090  -36.2649   24.6254 H   0  0  0  0  0  0
  -27.2282  -37.1439   25.8854 H   0  0  0  0  0  0
  -20.9356  -29.8887   21.6859 H   0  0  0  0  0  0
  -26.0175  -38.2856   24.1419 H   0  0  0  0  0  0
  -25.9674  -20.3164   17.4529 H   0  0  0  0  0  0
  -27.6151  -22.0040   17.9719 H   0  0  0  0  0  0
  -24.5076  -18.6968   18.3179 H   0  0  0  0  0  0
  -24.7588  -17.9319   19.8718 H   0  0  0  0  0  0
  -25.5130  -17.2502   18.4111 H   0  0  0  0  0  0
  -27.4751  -16.6888   20.6156 H   0  0  0  0  0  0
  -26.2140  -17.6014   21.4575 H   0  0  0  0  0  0
  -27.8471  -17.7641   21.9848 H   0  0  0  0  0  0
  -29.9972  -22.2462   20.6383 H   0  0  0  0  0  0
  -28.4069  -22.2624   21.3235 H   0  0  0  0  0  0
  -30.7014  -19.4625   20.6998 H   0  0  0  0  0  0
  -30.3079  -18.5798   19.2751 H   0  0  0  0  0  0
  -27.7215  -23.7103   19.1013 H   0  0  0  0  0  0
  -29.4244  -24.0038   19.0497 H   0  0  0  0  0  0
  -30.0458  -17.4529   22.1518 H   0  0  0  0  0  0
  -31.3864  -17.2644   21.1189 H   0  0  0  0  0  0
  -29.0531  -25.0415   21.4548 H   0  0  0  0  0  0
  -27.3593  -24.9146   21.1665 H   0  0  0  0  0  0
  -28.8820  -15.7010   20.8565 H   0  0  0  0  0  0
  1 25  1  0  0  0
  1 30  2  0  0  0
  1 84  1  0  0  0
  2  3  1  0  0  0
  2 25  1  0  0  0
  2 85  1  0  0  0
  2 86  1  0  0  0
  3  4  1  0  0  0
  3 87  1  0  0  0
  3 88  1  0  0  0
  4  5  1  0  0  0
  4 89  1  0  0  0
  4 90  1  0  0  0
  5  6  1  0  0  0
  5 26  1  0  0  0
  5 91  1  0  0  0
  6 25  1  0  0  0
  6 92  1  0  0  0
  6 93  1  0  0  0
  7  8  2  0  0  0
  7 26  1  0  0  0
  7 29  1  0  0  0
  8  9  1  0  0  0
  8 22  1  0  0  0
  9 10  1  0  0  0
  9 27  2  0  0  0
 10 11  2  0  0  0
 10 15  1  0  0  0
 11 12  1  0  0  0
 11 94  1  0  0  0
 12 13  2  0  0  0
 12 95  1  0  0  0
 13 14  1  0  0  0
 13 31  1  0  0  0
 14 15  2  0  0  0
 14 96  1  0  0  0
 15 97  1  0  0  0
 16 17  2  0  0  0
 16 21  1  0  0  0
 16 31  1  0  0  0
 17 18  1  0  0  0
 17 98  1  0  0  0
 18 19  2  0  0  0
 18 99  1  0  0  0
 19 20  1  0  0  0
 19 24  1  0  0  0
 20 21  2  0  0  0
 20100  1  0  0  0
 21 23  1  0  0  0
 22 28  1  0  0  0
 22 32  2  0  0  0
 26 27  1  0  0  0
 28101  1  0  0  0
 28102  1  0  0  0
 29103  1  0  0  0
 29104  1  0  0  0
 33 34  1  0  0  0
 33 66  1  0  0  0
 33 70  2  0  0  0
 34 36  1  0  0  0
 34 59  1  0  0  0
 34105  1  0  0  0
 35 44  2  0  0  0
 35 45  1  0  0  0
 35 68  1  0  0  0
 36 56  1  0  0  0
 36106  1  0  0  0
 37 39  1  0  0  0
 37 47  1  0  0  0
 37 66  1  0  0  0
 37107  1  0  0  0
 38 43  2  0  0  0
 38 46  1  0  0  0
 38 47  1  0  0  0
 39 64  1  0  0  0
 39 67  2  0  0  0
 40 52  1  0  0  0
 40 53  2  0  0  0
 40 58  1  0  0  0
 41108  1  0  0  0
 41109  1  0  0  0
 41110  1  0  0  0
 41 48  1  0  0  0
 42 43  1  0  0  0
 42 66  1  0  0  0
 42111  1  0  0  0
 42112  1  0  0  0
 43 44  1  0  0  0
 44113  1  0  0  0
 45 46  2  0  0  0
 45114  1  0  0  0
 46115  1  0  0  0
 47116  1  0  0  0
 47117  1  0  0  0
 48 56  1  0  0  0
 48 65  1  0  0  0
 48118  1  0  0  0
 49 50  1  0  0  0
 49 53  1  0  0  0
 49 64  1  0  0  0
 49119  1  0  0  0
 50 51  1  0  0  0
 50120  1  0  0  0
 50121  1  0  0  0
 51 52  1  0  0  0
 51122  1  0  0  0
 51123  1  0  0  0
 52124  1  0  0  0
 52125  1  0  0  0
 53 54  1  0  0  0
 54 55  2  0  0  0
 54126  1  0  0  0
 55 57  1  0  0  0
 55127  1  0  0  0
 56 69  2  0  0  0
 57 58  2  0  0  0
 57128  1  0  0  0
 58129  1  0  0  0
 59 60  1  0  0  0
 59 61  1  0  0  0
 59 62  1  0  0  0
 60130  1  0  0  0
 60131  1  0  0  0
 60132  1  0  0  0
 61133  1  0  0  0
 61134  1  0  0  0
 61135  1  0  0  0
 62136  1  0  0  0
 62137  1  0  0  0
 62138  1  0  0  0
 63 65  1  0  0  0
 63139  1  0  0  0
 63140  1  0  0  0
 63141  1  0  0  0
 64142  1  0  0  0
 65143  1  0  0  0
 68 83  1  0  0  0
 71 72  2  0  0  0
 71 73  1  0  0  0
 71144  1  0  0  0
 72 74  1  0  0  0
 72145  1  0  0  0
 73 75  2  0  0  0
 73 77  1  0  0  0
 74 76  2  0  0  0
 74 79  1  0  0  0
 75 76  1  0  0  0
 75 78  1  0  0  0
 76 80  1  0  0  0
 77146  1  0  0  0
 77147  1  0  0  0
 77148  1  0  0  0
 78149  1  0  0  0
 78150  1  0  0  0
 78151  1  0  0  0
 79 81  1  0  0  0
 79152  1  0  0  0
 79153  1  0  0  0
 80 82  1  0  0  0
 80154  1  0  0  0
 80155  1  0  0  0
 81 83  1  0  0  0
 81156  1  0  0  0
 81157  1  0  0  0
 82 84  1  0  0  0
 82158  1  0  0  0
 82159  1  0  0  0
 83160  1  0  0  0
 83161  1  0  0  0
 84162  1  0  0  0
M  ISO  4   1 100  68 101  83 101  84 100
M  END
> <chiral flag>
0

> <version>
0

> <s_m_source_file>
/data/baiqing/PycharmProjects/Reinvent-master-3.2/result/LINK_invent/BTK/process_docking_weight1_custom_sum_contain_oxygen_bond_distance_aromatic_linkinvent_7_9_3/rearranged_h_0088.sdf

> <i_m_source_file_index>
80

> <r_mmod_Potential_Energy-OPLS-2005>
367.883422851562

> <r_mmod_Stretch_Energy-OPLS-2005>
139.742477416992

> <r_mmod_Bend_Energy-OPLS-2005>
222.534271240234

> <r_mmod_Torsional_Energy-OPLS-2005>
379.284362792969

> <r_mmod_Improper_Torsional_Energy-OPLS-2005>
13.912034034729

> <r_mmod_Van_der_Waal_Energy-OPLS-2005>
144.774810791016

> <r_mmod_Electrostatic_Energy-OPLS-2005>
-409.210052490234

> <r_mmod_Solvation_Energy-OPLS-2005>
-201.584564208984

> <b_mmod_Minimization_Converged-OPLS-2005>
0

> <r_mmod_RMS_Derivative-OPLS-2005>
4.80192470550537

$$$$
82
                    3D
 Structure written by MMmdl.
165173  0  0  1  0            999 V2000
  -30.5300  -14.9801   20.3965 C   0  0  0  0  0  0
  -30.4369  -12.6068   19.4893 C   0  0  0  0  0  0
  -29.5182  -12.5206   18.2474 C   0  0  0  0  0  0
  -28.0541  -12.2968   18.6752 C   0  0  0  0  0  0
  -27.6253  -13.2433   19.8269 C   0  0  2  0  0  0
  -28.6688  -13.2954   20.9612 C   0  0  0  0  0  0
  -25.2464  -13.8206   20.5696 C   0  0  0  0  0  0
  -24.1780  -13.0441   20.9214 C   0  0  0  0  0  0
  -24.6380  -11.6921   20.8722 C   0  0  0  0  0  0
  -23.9055  -10.4301   21.0378 C   0  0  0  0  0  0
  -24.3609   -9.4221   21.9162 C   0  0  0  0  0  0
  -23.6299   -8.2251   22.0749 C   0  0  0  0  0  0
  -22.4282   -8.0269   21.3542 C   0  0  0  0  0  0
  -21.9897   -9.0237   20.4644 C   0  0  0  0  0  0
  -22.7216  -10.2122   20.3040 C   0  0  0  0  0  0
  -21.6864   -6.0713   22.5274 C   0  0  0  0  0  0
  -21.4026   -6.5627   23.8205 C   0  0  0  0  0  0
  -21.3663   -5.6777   24.9164 C   0  0  0  0  0  0
  -21.6035   -4.3037   24.7210 C   0  0  0  0  0  0
  -21.8827   -3.8130   23.4339 C   0  0  0  0  0  0
  -21.9206   -4.6947   22.3392 C   0  0  0  0  0  0
  -22.7798  -13.5207   21.1865 C   0  0  0  0  0  0
  -22.1675   -4.2131   21.0969 F   0  0  0  0  0  0
  -21.5626   -3.4531   25.7728 F   0  0  0  0  0  0
  -29.9333  -13.7181   20.3487 N   0  0  0  0  0  0
  -26.2872  -12.9423   20.3191 N   0  0  0  0  0  0
  -25.9307  -11.6562   20.5702 N   0  0  0  0  0  0
  -22.0442  -12.8221   22.0426 N   0  0  0  0  0  0
  -25.4115  -15.1950   20.4121 N   0  0  0  0  0  0
  -31.7459  -15.0123   20.1827 O   0  0  0  0  0  0
  -21.6657   -6.8859   21.4233 O   0  0  0  0  0  0
  -22.3484  -14.5502   20.6686 O   0  0  0  0  0  0
  -24.6452  -31.8432   23.1857 C   0  0  0  0  0  0
  -25.9214  -32.4695   23.8276 C   0  0  1  0  0  0
  -27.2085  -27.1166   20.1491 C   0  0  0  0  0  0
  -25.5950  -33.8506   24.2197 N   0  0  0  0  0  0
  -23.4504  -30.4618   21.5330 C   0  0  2  0  0  0
  -24.8985  -28.8867   20.1109 C   0  0  0  0  0  0
  -22.7587  -29.4536   22.4852 C   0  0  0  0  0  0
  -18.0310  -28.1401   22.8482 C   0  0  0  0  0  0
  -24.1492  -36.7257   23.2646 C   0  0  0  0  0  0
  -26.0077  -30.7105   21.3882 C   0  0  0  0  0  0
  -26.0784  -29.3190   20.7308 C   0  0  0  0  0  0
  -27.2383  -28.4522   20.7281 C   0  0  0  0  0  0
  -26.0044  -26.7912   19.4902 C   0  0  0  0  0  0
  -24.8760  -27.6381   19.4727 C   0  0  0  0  0  0
  -23.6769  -29.7927   20.1525 C   0  0  0  0  0  0
  -25.4120  -36.3039   24.0328 C   0  0  1  0  0  0
  -20.5922  -28.3726   23.1233 C   0  0  2  0  0  0
  -20.6798  -26.9427   22.5405 C   0  0  0  0  0  0
  -19.5767  -26.6383   21.5219 C   0  0  0  0  0  0
  -18.1950  -26.7945   22.1630 C   0  0  0  0  0  0
  -19.1570  -28.8881   23.2853 C   0  0  0  0  0  0
  -18.9488  -30.1476   23.8874 C   0  0  0  0  0  0
  -17.6484  -30.6596   24.0559 C   0  0  0  0  0  0
  -25.9062  -34.9406   23.5070 C   0  0  0  0  0  0
  -16.5369  -29.9088   23.6335 C   0  0  0  0  0  0
  -16.7295  -28.6505   23.0356 C   0  0  0  0  0  0
  -26.4523  -31.6568   25.0727 C   0  0  0  0  0  0
  -25.3692  -31.3778   26.1412 C   0  0  0  0  0  0
  -27.0395  -30.2962   24.6332 C   0  0  0  0  0  0
  -27.6063  -32.4331   25.7506 C   0  0  0  0  0  0
  -27.5577  -37.1786   24.8469 C   0  0  0  0  0  0
  -21.4272  -29.3044   22.3607 N   0  0  0  0  0  0
  -26.4288  -37.3748   23.9411 N   0  0  0  0  0  0
  -24.7215  -31.0263   22.0907 N   0  0  0  0  0  0
  -23.4222  -28.8084   23.3016 O   0  0  0  0  0  0
  -28.2518  -26.1159   20.1563 O   0  0  0  0  0  0
  -26.5654  -34.8896   22.4651 O   0  0  0  0  0  0
  -23.5559  -32.1320   23.7046 O   0  0  0  0  0  0
  -29.4047  -23.4057   18.7358 C   0  0  0  0  0  0
  -28.6514  -21.8588   20.4346 C   0  0  0  0  0  0
  -28.7089  -23.2686   19.9406 C   0  0  0  0  0  0
  -29.9497  -22.3000   18.0440 C   0  0  0  0  0  0
  -29.2515  -20.6457   19.7944 C   0  0  0  0  0  0
  -29.9021  -20.9545   18.5487 C   0  0  0  0  0  0
  -30.5439  -22.6278   16.6786 C   0  0  0  0  0  0
  -32.9374  -20.5083   18.1842 C   0  0  0  0  0  0
  -31.5108  -18.0736   20.3273 C   0  0  0  0  0  0
  -28.9801  -19.0406   20.2250 C   0  0  0  0  0  0
  -30.4371  -19.8256   17.6483 C   0  0  0  0  0  0
  -27.9544  -24.6211   20.5248 C   0  0  0  0  0  0
  -31.9231  -19.8968   17.1998 C   0  0  0  0  0  0
  -30.0471  -17.7523   20.6197 C   0  0  1  0  0  0
  -29.7481  -16.1817   20.4819 N   0  0  0  0  0  0
  -31.4706  -12.7630   19.1766 H   0  0  0  0  0  0
  -30.4323  -11.6643   20.0388 H   0  0  0  0  0  0
  -29.8423  -11.7148   17.5870 H   0  0  0  0  0  0
  -29.5996  -13.4400   17.6654 H   0  0  0  0  0  0
  -27.9702  -11.2616   19.0056 H   0  0  0  0  0  0
  -27.3836  -12.3983   17.8194 H   0  0  0  0  0  0
  -27.5814  -14.2376   19.3825 H   0  0  0  0  0  0
  -28.7725  -12.3234   21.4476 H   0  0  0  0  0  0
  -28.3618  -14.0043   21.7324 H   0  0  0  0  0  0
  -25.2753   -9.5714   22.4735 H   0  0  0  0  0  0
  -24.0009   -7.4649   22.7478 H   0  0  0  0  0  0
  -21.0822   -8.8735   19.8963 H   0  0  0  0  0  0
  -22.3653  -10.9645   19.6145 H   0  0  0  0  0  0
  -21.2033   -7.6139   23.9703 H   0  0  0  0  0  0
  -21.1471   -6.0504   25.9063 H   0  0  0  0  0  0
  -22.0609   -2.7591   23.2840 H   0  0  0  0  0  0
  -22.4083  -11.9915   22.4860 H   0  0  0  0  0  0
  -21.1042  -13.1228   22.2593 H   0  0  0  0  0  0
  -24.6352  -15.8381   20.5209 H   0  0  0  0  0  0
  -26.2382  -15.6377   20.0346 H   0  0  0  0  0  0
  -26.7284  -32.5308   23.1009 H   0  0  0  0  0  0
  -25.0090  -33.9636   25.0338 H   0  0  0  0  0  0
  -22.7525  -31.2869   21.3789 H   0  0  0  0  0  0
  -23.3759  -35.9584   23.3306 H   0  0  0  0  0  0
  -24.3568  -36.8888   22.2059 H   0  0  0  0  0  0
  -23.7231  -37.6453   23.6668 H   0  0  0  0  0  0
  -26.1626  -31.4659   20.6169 H   0  0  0  0  0  0
  -26.8775  -30.7628   22.0311 H   0  0  0  0  0  0
  -28.1409  -28.7816   21.2228 H   0  0  0  0  0  0
  -25.9158  -25.8406   18.9829 H   0  0  0  0  0  0
  -23.9805  -27.3092   18.9632 H   0  0  0  0  0  0
  -23.8102  -30.5682   19.3970 H   0  0  0  0  0  0
  -22.7916  -29.2341   19.8440 H   0  0  0  0  0  0
  -25.1296  -36.1894   25.0822 H   0  0  0  0  0  0
  -21.0013  -28.3320   24.1353 H   0  0  0  0  0  0
  -20.5705  -26.2335   23.3624 H   0  0  0  0  0  0
  -21.6663  -26.7439   22.1188 H   0  0  0  0  0  0
  -19.6925  -25.6286   21.1269 H   0  0  0  0  0  0
  -19.6707  -27.3176   20.6738 H   0  0  0  0  0  0
  -17.4217  -26.6691   21.4036 H   0  0  0  0  0  0
  -18.0340  -26.0094   22.9031 H   0  0  0  0  0  0
  -19.7958  -30.7310   24.2232 H   0  0  0  0  0  0
  -17.5024  -31.6273   24.5172 H   0  0  0  0  0  0
  -15.5362  -30.2977   23.7669 H   0  0  0  0  0  0
  -15.8697  -28.0808   22.7083 H   0  0  0  0  0  0
  -24.5874  -30.7129   25.7720 H   0  0  0  0  0  0
  -24.8872  -32.2971   26.4759 H   0  0  0  0  0  0
  -25.7950  -30.8994   27.0245 H   0  0  0  0  0  0
  -26.3029  -29.6678   24.1315 H   0  0  0  0  0  0
  -27.3977  -29.7273   25.4925 H   0  0  0  0  0  0
  -27.8942  -30.4196   23.9677 H   0  0  0  0  0  0
  -27.2679  -33.3666   26.2018 H   0  0  0  0  0  0
  -28.3901  -32.6847   25.0346 H   0  0  0  0  0  0
  -28.0698  -31.8501   26.5478 H   0  0  0  0  0  0
  -28.2593  -38.0085   24.7498 H   0  0  0  0  0  0
  -28.1079  -36.2611   24.6314 H   0  0  0  0  0  0
  -27.2293  -37.1448   25.8874 H   0  0  0  0  0  0
  -20.9483  -29.8749   21.6778 H   0  0  0  0  0  0
  -26.0172  -38.2832   24.1394 H   0  0  0  0  0  0
  -29.4630  -24.3928   18.2978 H   0  0  0  0  0  0
  -28.0579  -21.6894   21.3219 H   0  0  0  0  0  0
  -30.1792  -23.5833   16.3029 H   0  0  0  0  0  0
  -30.2740  -21.8921   15.9213 H   0  0  0  0  0  0
  -31.6292  -22.7018   16.7382 H   0  0  0  0  0  0
  -33.9252  -20.5588   17.7257 H   0  0  0  0  0  0
  -33.0468  -19.9194   19.0888 H   0  0  0  0  0  0
  -32.6696  -21.5218   18.4810 H   0  0  0  0  0  0
  -31.7045  -19.1221   20.5486 H   0  0  0  0  0  0
  -31.7860  -17.8572   19.2961 H   0  0  0  0  0  0
  -32.1736  -17.4872   20.9620 H   0  0  0  0  0  0
  -28.3522  -18.6635   19.4175 H   0  0  0  0  0  0
  -28.2839  -19.1063   21.0622 H   0  0  0  0  0  0
  -29.8087  -19.7934   16.7561 H   0  0  0  0  0  0
  -30.2638  -18.8521   18.0883 H   0  0  0  0  0  0
  -28.0785  -24.5682   21.6052 H   0  0  0  0  0  0
  -26.8936  -24.4317   20.3686 H   0  0  0  0  0  0
  -32.2487  -18.8989   16.9087 H   0  0  0  0  0  0
  -31.9912  -20.4663   16.2740 H   0  0  0  0  0  0
  -30.0393  -17.8315   21.7078 H   0  0  0  0  0  0
  -28.7620  -15.9733   20.5418 H   0  0  0  0  0  0
  1 25  1  0  0  0
  1 30  2  0  0  0
  1 85  1  0  0  0
  2  3  1  0  0  0
  2 25  1  0  0  0
  2 86  1  0  0  0
  2 87  1  0  0  0
  3  4  1  0  0  0
  3 88  1  0  0  0
  3 89  1  0  0  0
  4  5  1  0  0  0
  4 90  1  0  0  0
  4 91  1  0  0  0
  5  6  1  0  0  0
  5 26  1  0  0  0
  5 92  1  0  0  0
  6 25  1  0  0  0
  6 93  1  0  0  0
  6 94  1  0  0  0
  7  8  2  0  0  0
  7 26  1  0  0  0
  7 29  1  0  0  0
  8  9  1  0  0  0
  8 22  1  0  0  0
  9 10  1  0  0  0
  9 27  2  0  0  0
 10 11  2  0  0  0
 10 15  1  0  0  0
 11 12  1  0  0  0
 11 95  1  0  0  0
 12 13  2  0  0  0
 12 96  1  0  0  0
 13 14  1  0  0  0
 13 31  1  0  0  0
 14 15  2  0  0  0
 14 97  1  0  0  0
 15 98  1  0  0  0
 16 17  2  0  0  0
 16 21  1  0  0  0
 16 31  1  0  0  0
 17 18  1  0  0  0
 17 99  1  0  0  0
 18 19  2  0  0  0
 18100  1  0  0  0
 19 20  1  0  0  0
 19 24  1  0  0  0
 20 21  2  0  0  0
 20101  1  0  0  0
 21 23  1  0  0  0
 22 28  1  0  0  0
 22 32  2  0  0  0
 26 27  1  0  0  0
 28102  1  0  0  0
 28103  1  0  0  0
 29104  1  0  0  0
 29105  1  0  0  0
 33 34  1  0  0  0
 33 66  1  0  0  0
 33 70  2  0  0  0
 34 36  1  0  0  0
 34 59  1  0  0  0
 34106  1  0  0  0
 35 44  2  0  0  0
 35 45  1  0  0  0
 35 68  1  0  0  0
 36 56  1  0  0  0
 36107  1  0  0  0
 37 39  1  0  0  0
 37 47  1  0  0  0
 37 66  1  0  0  0
 37108  1  0  0  0
 38 43  2  0  0  0
 38 46  1  0  0  0
 38 47  1  0  0  0
 39 64  1  0  0  0
 39 67  2  0  0  0
 40 52  1  0  0  0
 40 53  2  0  0  0
 40 58  1  0  0  0
 41109  1  0  0  0
 41110  1  0  0  0
 41111  1  0  0  0
 41 48  1  0  0  0
 42 43  1  0  0  0
 42 66  1  0  0  0
 42112  1  0  0  0
 42113  1  0  0  0
 43 44  1  0  0  0
 44114  1  0  0  0
 45 46  2  0  0  0
 45115  1  0  0  0
 46116  1  0  0  0
 47117  1  0  0  0
 47118  1  0  0  0
 48 56  1  0  0  0
 48 65  1  0  0  0
 48119  1  0  0  0
 49 50  1  0  0  0
 49 53  1  0  0  0
 49 64  1  0  0  0
 49120  1  0  0  0
 50 51  1  0  0  0
 50121  1  0  0  0
 50122  1  0  0  0
 51 52  1  0  0  0
 51123  1  0  0  0
 51124  1  0  0  0
 52125  1  0  0  0
 52126  1  0  0  0
 53 54  1  0  0  0
 54 55  2  0  0  0
 54127  1  0  0  0
 55 57  1  0  0  0
 55128  1  0  0  0
 56 69  2  0  0  0
 57 58  2  0  0  0
 57129  1  0  0  0
 58130  1  0  0  0
 59 60  1  0  0  0
 59 61  1  0  0  0
 59 62  1  0  0  0
 60131  1  0  0  0
 60132  1  0  0  0
 60133  1  0  0  0
 61134  1  0  0  0
 61135  1  0  0  0
 61136  1  0  0  0
 62137  1  0  0  0
 62138  1  0  0  0
 62139  1  0  0  0
 63 65  1  0  0  0
 63140  1  0  0  0
 63141  1  0  0  0
 63142  1  0  0  0
 64143  1  0  0  0
 65144  1  0  0  0
 68 82  1  0  0  0
 71 73  2  0  0  0
 71 74  1  0  0  0
 71145  1  0  0  0
 72 73  1  0  0  0
 72 75  2  0  0  0
 72146  1  0  0  0
 73 82  1  0  0  0
 74 76  2  0  0  0
 74 77  1  0  0  0
 75 76  1  0  0  0
 75 80  1  0  0  0
 76 81  1  0  0  0
 77147  1  0  0  0
 77148  1  0  0  0
 77149  1  0  0  0
 78 83  1  0  0  0
 78150  1  0  0  0
 78151  1  0  0  0
 78152  1  0  0  0
 79153  1  0  0  0
 79154  1  0  0  0
 79155  1  0  0  0
 79 84  1  0  0  0
 80 84  1  0  0  0
 80156  1  0  0  0
 80157  1  0  0  0
 81 83  1  0  0  0
 81158  1  0  0  0
 81159  1  0  0  0
 82160  1  0  0  0
 82161  1  0  0  0
 83162  1  0  0  0
 83163  1  0  0  0
 84 85  1  0  0  0
 84164  1  0  0  0
 85165  1  0  0  0
M  ISO  4   1 100  68 101  82 101  85 100
M  END
> <chiral flag>
0

> <version>
0

> <s_m_source_file>
/data/baiqing/PycharmProjects/Reinvent-master-3.2/result/LINK_invent/BTK/process_docking_weight1_custom_sum_contain_oxygen_bond_distance_aromatic_linkinvent_7_9_3/rearranged_h_0088.sdf

> <i_m_source_file_index>
81

> <r_mmod_Potential_Energy-OPLS-2005>
636.208190917969

> <r_mmod_Stretch_Energy-OPLS-2005>
306.183929443359

> <r_mmod_Bend_Energy-OPLS-2005>
292.131591796875

> <r_mmod_Torsional_Energy-OPLS-2005>
238.515884399414

> <r_mmod_Improper_Torsional_Energy-OPLS-2005>
7.03763437271118

> <r_mmod_Van_der_Waal_Energy-OPLS-2005>
141.089080810547

> <r_mmod_Electrostatic_Energy-OPLS-2005>
-356.263031005859

> <r_mmod_Solvation_Energy-OPLS-2005>
-204.978439331055

> <b_mmod_Minimization_Converged-OPLS-2005>
0

> <r_mmod_RMS_Derivative-OPLS-2005>
2.88069558143616

$$$$
83
                    3D
 Structure written by MMmdl.
166174  0  0  1  0            999 V2000
  -30.6315  -14.7225   20.4630 C   0  0  0  0  0  0
  -30.4267  -12.4483   19.4658 C   0  0  0  0  0  0
  -29.5027  -12.5079   18.2299 C   0  0  0  0  0  0
  -28.0324  -12.3329   18.6474 C   0  0  0  0  0  0
  -27.6448  -13.2319   19.8522 C   0  0  2  0  0  0
  -28.6902  -13.1671   20.9881 C   0  0  0  0  0  0
  -25.2528  -13.8203   20.5707 C   0  0  0  0  0  0
  -24.1813  -13.0440   20.9183 C   0  0  0  0  0  0
  -24.6408  -11.6903   20.8739 C   0  0  0  0  0  0
  -23.9070  -10.4294   21.0424 C   0  0  0  0  0  0
  -24.3633   -9.4197   21.9201 C   0  0  0  0  0  0
  -23.6302   -8.2232   22.0753 C   0  0  0  0  0  0
  -22.4289   -8.0277   21.3533 C   0  0  0  0  0  0
  -21.9923   -9.0256   20.4639 C   0  0  0  0  0  0
  -22.7243  -10.2136   20.3055 C   0  0  0  0  0  0
  -21.6862   -6.0735   22.5266 C   0  0  0  0  0  0
  -21.4014   -6.5636   23.8204 C   0  0  0  0  0  0
  -21.3651   -5.6796   24.9175 C   0  0  0  0  0  0
  -21.6050   -4.3054   24.7224 C   0  0  0  0  0  0
  -21.8822   -3.8135   23.4347 C   0  0  0  0  0  0
  -21.9190   -4.6957   22.3397 C   0  0  0  0  0  0
  -22.7824  -13.5200   21.1835 C   0  0  0  0  0  0
  -22.1661   -4.2138   21.0983 F   0  0  0  0  0  0
  -21.5628   -3.4541   25.7741 F   0  0  0  0  0  0
  -29.9884  -13.5112   20.3996 N   0  0  0  0  0  0
  -26.2978  -12.9414   20.3322 N   0  0  0  0  0  0
  -25.9345  -11.6557   20.5761 N   0  0  0  0  0  0
  -22.0492  -12.8198   22.0423 N   0  0  0  0  0  0
  -25.4196  -15.1922   20.4060 N   0  0  0  0  0  0
  -31.8212  -14.7980   20.1451 O   0  0  0  0  0  0
  -21.6631   -6.8875   21.4237 O   0  0  0  0  0  0
  -22.3482  -14.5530   20.6717 O   0  0  0  0  0  0
  -24.6328  -31.8521   23.1929 C   0  0  0  0  0  0
  -25.9150  -32.4730   23.8281 C   0  0  1  0  0  0
  -27.2085  -27.2533   20.1024 C   0  0  0  0  0  0
  -25.5971  -33.8549   24.2176 N   0  0  0  0  0  0
  -23.4231  -30.4764   21.5383 C   0  0  2  0  0  0
  -24.8679  -28.9192   20.1117 C   0  0  0  0  0  0
  -22.7484  -29.4591   22.4906 C   0  0  0  0  0  0
  -18.0279  -28.1371   22.8472 C   0  0  0  0  0  0
  -24.1523  -36.7247   23.2607 C   0  0  0  0  0  0
  -25.9719  -30.7591   21.3774 C   0  0  0  0  0  0
  -26.0419  -29.3824   20.7178 C   0  0  0  0  0  0
  -27.2132  -28.5621   20.7023 C   0  0  0  0  0  0
  -26.0030  -26.8541   19.4859 C   0  0  0  0  0  0
  -24.8522  -27.6663   19.4854 C   0  0  0  0  0  0
  -23.6420  -29.8074   20.1579 C   0  0  0  0  0  0
  -25.4142  -36.2998   24.0275 C   0  0  1  0  0  0
  -20.5875  -28.3684   23.1240 C   0  0  2  0  0  0
  -20.6799  -26.9416   22.5382 C   0  0  0  0  0  0
  -19.5776  -26.6379   21.5205 C   0  0  0  0  0  0
  -18.1938  -26.7893   22.1601 C   0  0  0  0  0  0
  -19.1533  -28.8841   23.2866 C   0  0  0  0  0  0
  -18.9468  -30.1443   23.8897 C   0  0  0  0  0  0
  -17.6472  -30.6575   24.0547 C   0  0  0  0  0  0
  -25.9130  -34.9414   23.4992 C   0  0  0  0  0  0
  -16.5359  -29.9073   23.6354 C   0  0  0  0  0  0
  -16.7285  -28.6483   23.0366 C   0  0  0  0  0  0
  -26.4523  -31.6558   25.0680 C   0  0  0  0  0  0
  -25.3720  -31.3737   26.1402 C   0  0  0  0  0  0
  -27.0351  -30.2937   24.6204 C   0  0  0  0  0  0
  -27.6106  -32.4288   25.7443 C   0  0  0  0  0  0
  -27.5647  -37.1693   24.8405 C   0  0  0  0  0  0
  -21.4193  -29.3042   22.3674 N   0  0  0  0  0  0
  -26.4246  -37.3756   23.9502 N   0  0  0  0  0  0
  -24.6947  -31.0467   22.0915 N   0  0  0  0  0  0
  -23.4191  -28.8116   23.2997 O   0  0  0  0  0  0
  -28.3265  -26.3886   20.1455 O   0  0  0  0  0  0
  -26.5692  -34.8883   22.4561 O   0  0  0  0  0  0
  -23.5481  -32.1358   23.7220 O   0  0  0  0  0  0
  -30.9381  -22.3997   20.0201 C   0  0  0  0  0  0
  -29.9048  -21.4556   20.1833 C   0  0  0  0  0  0
  -32.2742  -22.0241   20.1717 C   0  0  0  0  0  0
  -30.3480  -20.0541   20.3602 C   0  0  0  0  0  0
  -33.1259  -23.3523   17.5274 C   0  0  0  0  0  0
  -34.3529  -23.0124   21.2592 C   0  0  0  0  0  0
  -28.4893  -22.1395   20.1773 C   0  0  0  0  0  0
  -29.5520  -18.6771   20.4961 C   0  0  0  0  0  0
  -34.0659  -23.1012   18.7216 C   0  0  0  0  0  0
  -28.3708  -23.7099   20.6336 C   0  0  0  0  0  0
  -30.4583  -17.3099   20.5657 C   0  0  0  0  0  0
  -28.3387  -24.9748   19.6247 C   0  0  0  0  0  0
  -33.3596  -23.0848   20.0871 C   0  0  1  0  0  0
  -32.6310  -20.7379   20.3611 N   0  0  0  0  0  0
  -31.6867  -19.7995   20.4381 N   0  0  0  0  0  0
  -29.9027  -15.8857   20.6642 N   0  0  0  0  0  0
  -31.4697  -12.5636   19.1622 H   0  0  0  0  0  0
  -30.3629  -11.4700   19.9459 H   0  0  0  0  0  0
  -29.7842  -11.7351   17.5142 H   0  0  0  0  0  0
  -29.6338  -13.4615   17.7148 H   0  0  0  0  0  0
  -27.8953  -11.2830   18.9141 H   0  0  0  0  0  0
  -27.3710  -12.5235   17.8032 H   0  0  0  0  0  0
  -27.6380  -14.2558   19.4751 H   0  0  0  0  0  0
  -28.7232  -12.1708   21.4316 H   0  0  0  0  0  0
  -28.4291  -13.8544   21.7944 H   0  0  0  0  0  0
  -25.2798   -9.5665   22.4749 H   0  0  0  0  0  0
  -24.0005   -7.4626   22.7495 H   0  0  0  0  0  0
  -21.0833   -8.8781   19.8953 H   0  0  0  0  0  0
  -22.3726  -10.9674   19.6138 H   0  0  0  0  0  0
  -21.2012   -7.6144   23.9703 H   0  0  0  0  0  0
  -21.1471   -6.0528   25.9077 H   0  0  0  0  0  0
  -22.0608   -2.7595   23.2856 H   0  0  0  0  0  0
  -22.4133  -11.9845   22.4775 H   0  0  0  0  0  0
  -21.1103  -13.1188   22.2657 H   0  0  0  0  0  0
  -24.6495  -15.8452   20.5009 H   0  0  0  0  0  0
  -26.2664  -15.6298   20.0688 H   0  0  0  0  0  0
  -26.7204  -32.5338   23.0997 H   0  0  0  0  0  0
  -25.0178  -33.9730   25.0372 H   0  0  0  0  0  0
  -22.7180  -31.2970   21.3890 H   0  0  0  0  0  0
  -23.3821  -35.9540   23.3070 H   0  0  0  0  0  0
  -24.3665  -36.9091   22.2085 H   0  0  0  0  0  0
  -23.7253  -37.6366   23.6771 H   0  0  0  0  0  0
  -26.1183  -31.5187   20.6085 H   0  0  0  0  0  0
  -26.8468  -30.8061   22.0115 H   0  0  0  0  0  0
  -28.1160  -28.9109   21.1818 H   0  0  0  0  0  0
  -25.9003  -25.8961   19.0081 H   0  0  0  0  0  0
  -23.9491  -27.3049   19.0111 H   0  0  0  0  0  0
  -23.7656  -30.5775   19.3988 H   0  0  0  0  0  0
  -22.7661  -29.2345   19.8536 H   0  0  0  0  0  0
  -25.1287  -36.1742   25.0746 H   0  0  0  0  0  0
  -20.9984  -28.3266   24.1349 H   0  0  0  0  0  0
  -20.5714  -26.2299   23.3592 H   0  0  0  0  0  0
  -21.6655  -26.7481   22.1153 H   0  0  0  0  0  0
  -19.6973  -25.6305   21.1247 H   0  0  0  0  0  0
  -19.6687  -27.3157   20.6713 H   0  0  0  0  0  0
  -17.4221  -26.6642   21.4007 H   0  0  0  0  0  0
  -18.0357  -26.0006   22.8969 H   0  0  0  0  0  0
  -19.7952  -30.7265   24.2234 H   0  0  0  0  0  0
  -17.5036  -31.6262   24.5123 H   0  0  0  0  0  0
  -15.5372  -30.2973   23.7690 H   0  0  0  0  0  0
  -15.8664  -28.0823   22.7089 H   0  0  0  0  0  0
  -24.5886  -30.7098   25.7700 H   0  0  0  0  0  0
  -24.8953  -32.2942   26.4784 H   0  0  0  0  0  0
  -25.8010  -30.8923   27.0200 H   0  0  0  0  0  0
  -26.2908  -29.6688   24.1241 H   0  0  0  0  0  0
  -27.4020  -29.7199   25.4732 H   0  0  0  0  0  0
  -27.8783  -30.4150   23.9393 H   0  0  0  0  0  0
  -27.2742  -33.3614   26.1954 H   0  0  0  0  0  0
  -28.3931  -32.6803   25.0275 H   0  0  0  0  0  0
  -28.0715  -31.8448   26.5416 H   0  0  0  0  0  0
  -28.2325  -38.0311   24.7860 H   0  0  0  0  0  0
  -28.1433  -36.2862   24.5611 H   0  0  0  0  0  0
  -27.2421  -37.0592   25.8781 H   0  0  0  0  0  0
  -20.9389  -29.8771   21.6891 H   0  0  0  0  0  0
  -26.0037  -38.2728   24.1774 H   0  0  0  0  0  0
  -30.7292  -23.4340   19.7976 H   0  0  0  0  0  0
  -33.6993  -23.3953   16.6023 H   0  0  0  0  0  0
  -32.5838  -24.2963   17.6249 H   0  0  0  0  0  0
  -32.3853  -22.5576   17.4166 H   0  0  0  0  0  0
  -33.8244  -23.0056   22.2137 H   0  0  0  0  0  0
  -35.0243  -23.8722   21.2523 H   0  0  0  0  0  0
  -34.9656  -22.1083   21.2071 H   0  0  0  0  0  0
  -27.9012  -21.5510   20.8788 H   0  0  0  0  0  0
  -28.0111  -21.9916   19.2082 H   0  0  0  0  0  0
  -28.8658  -18.6048   19.6520 H   0  0  0  0  0  0
  -28.9355  -18.7453   21.3898 H   0  0  0  0  0  0
  -34.8355  -23.8746   18.7313 H   0  0  0  0  0  0
  -34.5777  -22.1494   18.5788 H   0  0  0  0  0  0
  -29.1095  -23.9058   21.4126 H   0  0  0  0  0  0
  -27.4203  -23.7720   21.1619 H   0  0  0  0  0  0
  -31.1324  -17.4080   21.4216 H   0  0  0  0  0  0
  -31.1083  -17.3094   19.6886 H   0  0  0  0  0  0
  -27.5783  -24.7900   18.8705 H   0  0  0  0  0  0
  -29.2530  -24.9301   19.0356 H   0  0  0  0  0  0
  -32.8528  -24.0451   20.2010 H   0  0  0  0  0  0
  -28.9238  -15.7815   20.8857 H   0  0  0  0  0  0
  1 25  1  0  0  0
  1 30  2  0  0  0
  1 86  1  0  0  0
  2  3  1  0  0  0
  2 25  1  0  0  0
  2 87  1  0  0  0
  2 88  1  0  0  0
  3  4  1  0  0  0
  3 89  1  0  0  0
  3 90  1  0  0  0
  4  5  1  0  0  0
  4 91  1  0  0  0
  4 92  1  0  0  0
  5  6  1  0  0  0
  5 26  1  0  0  0
  5 93  1  0  0  0
  6 25  1  0  0  0
  6 94  1  0  0  0
  6 95  1  0  0  0
  7  8  2  0  0  0
  7 26  1  0  0  0
  7 29  1  0  0  0
  8  9  1  0  0  0
  8 22  1  0  0  0
  9 10  1  0  0  0
  9 27  2  0  0  0
 10 11  2  0  0  0
 10 15  1  0  0  0
 11 12  1  0  0  0
 11 96  1  0  0  0
 12 13  2  0  0  0
 12 97  1  0  0  0
 13 14  1  0  0  0
 13 31  1  0  0  0
 14 15  2  0  0  0
 14 98  1  0  0  0
 15 99  1  0  0  0
 16 17  2  0  0  0
 16 21  1  0  0  0
 16 31  1  0  0  0
 17 18  1  0  0  0
 17100  1  0  0  0
 18 19  2  0  0  0
 18101  1  0  0  0
 19 20  1  0  0  0
 19 24  1  0  0  0
 20 21  2  0  0  0
 20102  1  0  0  0
 21 23  1  0  0  0
 22 28  1  0  0  0
 22 32  2  0  0  0
 26 27  1  0  0  0
 28103  1  0  0  0
 28104  1  0  0  0
 29105  1  0  0  0
 29106  1  0  0  0
 33 34  1  0  0  0
 33 66  1  0  0  0
 33 70  2  0  0  0
 34 36  1  0  0  0
 34 59  1  0  0  0
 34107  1  0  0  0
 35 44  2  0  0  0
 35 45  1  0  0  0
 35 68  1  0  0  0
 36 56  1  0  0  0
 36108  1  0  0  0
 37 39  1  0  0  0
 37 47  1  0  0  0
 37 66  1  0  0  0
 37109  1  0  0  0
 38 43  2  0  0  0
 38 46  1  0  0  0
 38 47  1  0  0  0
 39 64  1  0  0  0
 39 67  2  0  0  0
 40 52  1  0  0  0
 40 53  2  0  0  0
 40 58  1  0  0  0
 41110  1  0  0  0
 41111  1  0  0  0
 41112  1  0  0  0
 41 48  1  0  0  0
 42 43  1  0  0  0
 42 66  1  0  0  0
 42113  1  0  0  0
 42114  1  0  0  0
 43 44  1  0  0  0
 44115  1  0  0  0
 45 46  2  0  0  0
 45116  1  0  0  0
 46117  1  0  0  0
 47118  1  0  0  0
 47119  1  0  0  0
 48 56  1  0  0  0
 48 65  1  0  0  0
 48120  1  0  0  0
 49 50  1  0  0  0
 49 53  1  0  0  0
 49 64  1  0  0  0
 49121  1  0  0  0
 50 51  1  0  0  0
 50122  1  0  0  0
 50123  1  0  0  0
 51 52  1  0  0  0
 51124  1  0  0  0
 51125  1  0  0  0
 52126  1  0  0  0
 52127  1  0  0  0
 53 54  1  0  0  0
 54 55  2  0  0  0
 54128  1  0  0  0
 55 57  1  0  0  0
 55129  1  0  0  0
 56 69  2  0  0  0
 57 58  2  0  0  0
 57130  1  0  0  0
 58131  1  0  0  0
 59 60  1  0  0  0
 59 61  1  0  0  0
 59 62  1  0  0  0
 60132  1  0  0  0
 60133  1  0  0  0
 60134  1  0  0  0
 61135  1  0  0  0
 61136  1  0  0  0
 61137  1  0  0  0
 62138  1  0  0  0
 62139  1  0  0  0
 62140  1  0  0  0
 63 65  1  0  0  0
 63141  1  0  0  0
 63142  1  0  0  0
 63143  1  0  0  0
 64144  1  0  0  0
 65145  1  0  0  0
 68 82  1  0  0  0
 71 72  2  0  0  0
 71 73  1  0  0  0
 71146  1  0  0  0
 72 74  1  0  0  0
 72 77  1  0  0  0
 73 83  1  0  0  0
 73 84  2  0  0  0
 74 78  1  0  0  0
 74 85  2  0  0  0
 75 79  1  0  0  0
 75147  1  0  0  0
 75148  1  0  0  0
 75149  1  0  0  0
 76150  1  0  0  0
 76151  1  0  0  0
 76152  1  0  0  0
 76 83  1  0  0  0
 77 80  1  0  0  0
 77153  1  0  0  0
 77154  1  0  0  0
 78 81  1  0  0  0
 78155  1  0  0  0
 78156  1  0  0  0
 79 83  1  0  0  0
 79157  1  0  0  0
 79158  1  0  0  0
 80 82  1  0  0  0
 80159  1  0  0  0
 80160  1  0  0  0
 81 86  1  0  0  0
 81161  1  0  0  0
 81162  1  0  0  0
 82163  1  0  0  0
 82164  1  0  0  0
 83165  1  0  0  0
 84 85  1  0  0  0
 86166  1  0  0  0
M  ISO  4   1 100  68 101  82 101  86 100
M  END
> <chiral flag>
0

> <version>
0

> <s_m_source_file>
/data/baiqing/PycharmProjects/Reinvent-master-3.2/result/LINK_invent/BTK/process_docking_weight1_custom_sum_contain_oxygen_bond_distance_aromatic_linkinvent_7_9_3/rearranged_h_0088.sdf

> <i_m_source_file_index>
82

> <r_mmod_Potential_Energy-OPLS-2005>
234.082992553711

> <r_mmod_Stretch_Energy-OPLS-2005>
137.248413085938

> <r_mmod_Bend_Energy-OPLS-2005>
224.544143676758

> <r_mmod_Torsional_Energy-OPLS-2005>
202.788925170898

> <r_mmod_Improper_Torsional_Energy-OPLS-2005>
4.87752914428711

> <r_mmod_Van_der_Waal_Energy-OPLS-2005>
152.818267822266

> <r_mmod_Electrostatic_Energy-OPLS-2005>
-330.561676025391

> <r_mmod_Solvation_Energy-OPLS-2005>
-238.058227539062

> <b_mmod_Minimization_Converged-OPLS-2005>
0

> <r_mmod_RMS_Derivative-OPLS-2005>
6.2752833366394

$$$$
84
                    3D
 Structure written by MMmdl.
164172  0  0  1  0            999 V2000
  -30.6802  -14.5222   20.5303 C   0  0  0  0  0  0
  -30.4180  -12.3275   19.4360 C   0  0  0  0  0  0
  -29.4955  -12.5058   18.2124 C   0  0  0  0  0  0
  -28.0162  -12.3639   18.6210 C   0  0  0  0  0  0
  -27.6540  -13.2139   19.8686 C   0  0  2  0  0  0
  -28.6969  -13.0330   20.9962 C   0  0  0  0  0  0
  -25.2523  -13.8175   20.5665 C   0  0  0  0  0  0
  -24.1806  -13.0432   20.9195 C   0  0  0  0  0  0
  -24.6381  -11.6908   20.8733 C   0  0  0  0  0  0
  -23.9051  -10.4291   21.0397 C   0  0  0  0  0  0
  -24.3604   -9.4210   21.9176 C   0  0  0  0  0  0
  -23.6288   -8.2244   22.0741 C   0  0  0  0  0  0
  -22.4268   -8.0272   21.3536 C   0  0  0  0  0  0
  -21.9900   -9.0245   20.4639 C   0  0  0  0  0  0
  -22.7217  -10.2130   20.3055 C   0  0  0  0  0  0
  -21.6855   -6.0730   22.5284 C   0  0  0  0  0  0
  -21.4015   -6.5635   23.8213 C   0  0  0  0  0  0
  -21.3664   -5.6785   24.9170 C   0  0  0  0  0  0
  -21.6048   -4.3051   24.7224 C   0  0  0  0  0  0
  -21.8822   -3.8138   23.4346 C   0  0  0  0  0  0
  -21.9198   -4.6959   22.3405 C   0  0  0  0  0  0
  -22.7821  -13.5209   21.1855 C   0  0  0  0  0  0
  -22.1665   -4.2142   21.0982 F   0  0  0  0  0  0
  -21.5625   -3.4538   25.7738 F   0  0  0  0  0  0
  -30.0243  -13.3319   20.4377 N   0  0  0  0  0  0
  -26.2967  -12.9364   20.3331 N   0  0  0  0  0  0
  -25.9302  -11.6516   20.5743 N   0  0  0  0  0  0
  -22.0476  -12.8210   22.0432 N   0  0  0  0  0  0
  -25.4191  -15.1892   20.4030 N   0  0  0  0  0  0
  -31.8278  -14.6809   20.1084 O   0  0  0  0  0  0
  -21.6638   -6.8868   21.4239 O   0  0  0  0  0  0
  -22.3497  -14.5500   20.6678 O   0  0  0  0  0  0
  -24.6153  -31.8661   23.2067 C   0  0  0  0  0  0
  -25.9044  -32.4813   23.8368 C   0  0  1  0  0  0
  -27.2389  -27.4106   20.1216 C   0  0  0  0  0  0
  -25.5893  -33.8609   24.2309 N   0  0  0  0  0  0
  -23.4052  -30.4858   21.5482 C   0  0  2  0  0  0
  -24.8538  -28.9397   20.1226 C   0  0  0  0  0  0
  -22.7409  -29.4645   22.4992 C   0  0  0  0  0  0
  -18.0269  -28.1376   22.8494 C   0  0  0  0  0  0
  -24.1483  -36.7316   23.2637 C   0  0  0  0  0  0
  -25.9328  -30.8268   21.3603 C   0  0  0  0  0  0
  -26.0127  -29.4553   20.7167 C   0  0  0  0  0  0
  -27.2094  -28.6997   20.7077 C   0  0  0  0  0  0
  -26.0661  -26.9093   19.5221 C   0  0  0  0  0  0
  -24.8757  -27.6663   19.5219 C   0  0  0  0  0  0
  -23.6159  -29.8094   20.1660 C   0  0  0  0  0  0
  -25.4105  -36.3106   24.0333 C   0  0  1  0  0  0
  -20.5857  -28.3662   23.1323 C   0  0  2  0  0  0
  -20.6759  -26.9398   22.5422 C   0  0  0  0  0  0
  -19.5739  -26.6384   21.5215 C   0  0  0  0  0  0
  -18.1915  -26.7923   22.1623 C   0  0  0  0  0  0
  -19.1518  -28.8835   23.2907 C   0  0  0  0  0  0
  -18.9445  -30.1441   23.8920 C   0  0  0  0  0  0
  -17.6448  -30.6587   24.0559 C   0  0  0  0  0  0
  -25.9031  -34.9472   23.5121 C   0  0  0  0  0  0
  -16.5341  -29.9086   23.6322 C   0  0  0  0  0  0
  -16.7259  -28.6498   23.0351 C   0  0  0  0  0  0
  -26.4471  -31.6594   25.0704 C   0  0  0  0  0  0
  -25.3733  -31.3705   26.1450 C   0  0  0  0  0  0
  -27.0294  -30.3029   24.6088 C   0  0  0  0  0  0
  -27.6047  -32.4309   25.7474 C   0  0  0  0  0  0
  -27.5576  -37.1811   24.8465 C   0  0  0  0  0  0
  -21.4134  -29.3029   22.3729 N   0  0  0  0  0  0
  -26.4294  -37.3789   23.9403 N   0  0  0  0  0  0
  -24.6697  -31.0741   22.0977 N   0  0  0  0  0  0
  -23.4169  -28.8199   23.3056 O   0  0  0  0  0  0
  -28.4187  -26.6937   20.0648 O   0  0  0  0  0  0
  -26.5597  -34.8931   22.4685 O   0  0  0  0  0  0
  -23.5343  -32.1419   23.7457 O   0  0  0  0  0  0
  -30.0310  -19.5254   18.8105 C   0  0  0  0  0  0
  -28.9566  -20.5705   20.7188 C   0  0  0  0  0  0
  -29.3776  -19.3881   20.0497 C   0  0  0  0  0  0
  -30.3374  -20.7977   18.2866 C   0  0  0  0  0  0
  -29.9829  -21.9756   18.9976 C   0  0  0  0  0  0
  -29.2209  -21.8708   20.1984 C   0  0  0  0  0  0
  -31.0605  -20.8692   16.9501 C   0  0  0  0  0  0
  -30.4923  -23.3189   18.4810 C   0  0  0  0  0  0
  -28.1434  -25.7600   22.3479 C   0  0  0  0  0  0
  -29.0730  -17.9738   20.5909 C   0  0  0  0  0  0
  -30.2976  -17.0088   20.7167 C   0  0  0  0  0  0
  -28.1051  -24.1667   20.3102 C   0  0  0  0  0  0
  -28.6082  -25.5244   20.8984 C   0  0  1  0  0  0
  -28.7593  -22.9927   20.9332 N   0  0  0  0  0  0
  -29.9335  -15.5837   20.9126 N   0  0  0  0  0  0
  -31.4631  -12.4220   19.1363 H   0  0  0  0  0  0
  -30.3156  -11.3235   19.8511 H   0  0  0  0  0  0
  -29.7405  -11.7729   17.4429 H   0  0  0  0  0  0
  -29.6605  -13.4869   17.7640 H   0  0  0  0  0  0
  -27.8288  -11.3085   18.8221 H   0  0  0  0  0  0
  -27.3679  -12.6309   17.7857 H   0  0  0  0  0  0
  -27.6825  -14.2570   19.5503 H   0  0  0  0  0  0
  -28.6817  -12.0107   21.3761 H   0  0  0  0  0  0
  -28.4589  -13.6688   21.8502 H   0  0  0  0  0  0
  -25.2746   -9.5693   22.4751 H   0  0  0  0  0  0
  -24.0001   -7.4634   22.7458 H   0  0  0  0  0  0
  -21.0832   -8.8766   19.8940 H   0  0  0  0  0  0
  -22.3666  -10.9674   19.6173 H   0  0  0  0  0  0
  -21.2003   -7.6138   23.9720 H   0  0  0  0  0  0
  -21.1478   -6.0508   25.9077 H   0  0  0  0  0  0
  -22.0591   -2.7599   23.2847 H   0  0  0  0  0  0
  -22.4097  -11.9893   22.4858 H   0  0  0  0  0  0
  -21.1080  -13.1210   22.2619 H   0  0  0  0  0  0
  -24.6405  -15.8330   20.4947 H   0  0  0  0  0  0
  -26.2432  -15.6236   20.0089 H   0  0  0  0  0  0
  -26.7118  -32.5531   23.1130 H   0  0  0  0  0  0
  -25.0044  -33.9765   25.0454 H   0  0  0  0  0  0
  -22.6950  -31.3024   21.4046 H   0  0  0  0  0  0
  -23.3738  -35.9659   23.3322 H   0  0  0  0  0  0
  -24.3569  -36.8910   22.2046 H   0  0  0  0  0  0
  -23.7248  -37.6531   23.6642 H   0  0  0  0  0  0
  -26.0383  -31.5884   20.5864 H   0  0  0  0  0  0
  -26.8226  -30.8890   21.9754 H   0  0  0  0  0  0
  -28.1096  -29.0985   21.1535 H   0  0  0  0  0  0
  -26.0762  -25.9390   19.0471 H   0  0  0  0  0  0
  -23.9847  -27.2662   19.0589 H   0  0  0  0  0  0
  -23.7246  -30.5801   19.4020 H   0  0  0  0  0  0
  -22.7408  -29.2270   19.8733 H   0  0  0  0  0  0
  -25.1279  -36.1968   25.0826 H   0  0  0  0  0  0
  -20.9948  -28.3230   24.1442 H   0  0  0  0  0  0
  -20.5658  -26.2265   23.3606 H   0  0  0  0  0  0
  -21.6627  -26.7437   22.1212 H   0  0  0  0  0  0
  -19.6904  -25.6299   21.1231 H   0  0  0  0  0  0
  -19.6686  -27.3209   20.6758 H   0  0  0  0  0  0
  -17.4184  -26.6673   21.4029 H   0  0  0  0  0  0
  -18.0320  -26.0064   22.9020 H   0  0  0  0  0  0
  -19.7924  -30.7244   24.2308 H   0  0  0  0  0  0
  -17.5005  -31.6273   24.5147 H   0  0  0  0  0  0
  -15.5342  -30.2990   23.7642 H   0  0  0  0  0  0
  -15.8656  -28.0821   22.7064 H   0  0  0  0  0  0
  -24.5906  -30.7057   25.7779 H   0  0  0  0  0  0
  -24.8929  -32.2867   26.4897 H   0  0  0  0  0  0
  -25.8077  -30.8866   27.0206 H   0  0  0  0  0  0
  -26.2846  -29.6802   24.1119 H   0  0  0  0  0  0
  -27.4029  -29.7247   25.4548 H   0  0  0  0  0  0
  -27.8692  -30.4328   23.9255 H   0  0  0  0  0  0
  -27.2666  -33.3592   26.2088 H   0  0  0  0  0  0
  -28.3846  -32.6894   25.0301 H   0  0  0  0  0  0
  -28.0734  -31.8414   26.5361 H   0  0  0  0  0  0
  -28.2604  -38.0095   24.7486 H   0  0  0  0  0  0
  -28.1056  -36.2621   24.6320 H   0  0  0  0  0  0
  -27.2290  -37.1501   25.8869 H   0  0  0  0  0  0
  -20.9302  -29.8733   21.6931 H   0  0  0  0  0  0
  -26.0183  -38.2870   24.1401 H   0  0  0  0  0  0
  -30.3116  -18.6410   18.2539 H   0  0  0  0  0  0
  -28.4143  -20.4731   21.6487 H   0  0  0  0  0  0
  -31.0761  -19.9008   16.4487 H   0  0  0  0  0  0
  -32.0944  -21.1886   17.0832 H   0  0  0  0  0  0
  -30.5654  -21.5720   16.2784 H   0  0  0  0  0  0
  -31.4899  -23.2288   18.0534 H   0  0  0  0  0  0
  -30.5893  -24.0488   19.2823 H   0  0  0  0  0  0
  -29.8321  -23.7211   17.7127 H   0  0  0  0  0  0
  -28.4487  -24.9367   22.9950 H   0  0  0  0  0  0
  -27.0593  -25.8468   22.4154 H   0  0  0  0  0  0
  -28.5817  -26.6717   22.7547 H   0  0  0  0  0  0
  -28.5810  -18.0619   21.5606 H   0  0  0  0  0  0
  -28.3342  -17.5329   19.9209 H   0  0  0  0  0  0
  -30.9047  -17.0819   19.8137 H   0  0  0  0  0  0
  -30.9396  -17.3336   21.5370 H   0  0  0  0  0  0
  -28.2232  -24.1593   19.2281 H   0  0  0  0  0  0
  -27.0297  -24.0875   20.4757 H   0  0  0  0  0  0
  -29.6950  -25.4464   20.9458 H   0  0  0  0  0  0
  -28.3958  -22.7763   21.8568 H   0  0  0  0  0  0
  -29.0032  -15.3828   21.2469 H   0  0  0  0  0  0
  1 25  1  0  0  0
  1 30  2  0  0  0
  1 85  1  0  0  0
  2  3  1  0  0  0
  2 25  1  0  0  0
  2 86  1  0  0  0
  2 87  1  0  0  0
  3  4  1  0  0  0
  3 88  1  0  0  0
  3 89  1  0  0  0
  4  5  1  0  0  0
  4 90  1  0  0  0
  4 91  1  0  0  0
  5  6  1  0  0  0
  5 26  1  0  0  0
  5 92  1  0  0  0
  6 25  1  0  0  0
  6 93  1  0  0  0
  6 94  1  0  0  0
  7  8  2  0  0  0
  7 26  1  0  0  0
  7 29  1  0  0  0
  8  9  1  0  0  0
  8 22  1  0  0  0
  9 10  1  0  0  0
  9 27  2  0  0  0
 10 11  2  0  0  0
 10 15  1  0  0  0
 11 12  1  0  0  0
 11 95  1  0  0  0
 12 13  2  0  0  0
 12 96  1  0  0  0
 13 14  1  0  0  0
 13 31  1  0  0  0
 14 15  2  0  0  0
 14 97  1  0  0  0
 15 98  1  0  0  0
 16 17  2  0  0  0
 16 21  1  0  0  0
 16 31  1  0  0  0
 17 18  1  0  0  0
 17 99  1  0  0  0
 18 19  2  0  0  0
 18100  1  0  0  0
 19 20  1  0  0  0
 19 24  1  0  0  0
 20 21  2  0  0  0
 20101  1  0  0  0
 21 23  1  0  0  0
 22 28  1  0  0  0
 22 32  2  0  0  0
 26 27  1  0  0  0
 28102  1  0  0  0
 28103  1  0  0  0
 29104  1  0  0  0
 29105  1  0  0  0
 33 34  1  0  0  0
 33 66  1  0  0  0
 33 70  2  0  0  0
 34 36  1  0  0  0
 34 59  1  0  0  0
 34106  1  0  0  0
 35 44  2  0  0  0
 35 45  1  0  0  0
 35 68  1  0  0  0
 36 56  1  0  0  0
 36107  1  0  0  0
 37 39  1  0  0  0
 37 47  1  0  0  0
 37 66  1  0  0  0
 37108  1  0  0  0
 38 43  2  0  0  0
 38 46  1  0  0  0
 38 47  1  0  0  0
 39 64  1  0  0  0
 39 67  2  0  0  0
 40 52  1  0  0  0
 40 53  2  0  0  0
 40 58  1  0  0  0
 41109  1  0  0  0
 41110  1  0  0  0
 41111  1  0  0  0
 41 48  1  0  0  0
 42 43  1  0  0  0
 42 66  1  0  0  0
 42112  1  0  0  0
 42113  1  0  0  0
 43 44  1  0  0  0
 44114  1  0  0  0
 45 46  2  0  0  0
 45115  1  0  0  0
 46116  1  0  0  0
 47117  1  0  0  0
 47118  1  0  0  0
 48 56  1  0  0  0
 48 65  1  0  0  0
 48119  1  0  0  0
 49 50  1  0  0  0
 49 53  1  0  0  0
 49 64  1  0  0  0
 49120  1  0  0  0
 50 51  1  0  0  0
 50121  1  0  0  0
 50122  1  0  0  0
 51 52  1  0  0  0
 51123  1  0  0  0
 51124  1  0  0  0
 52125  1  0  0  0
 52126  1  0  0  0
 53 54  1  0  0  0
 54 55  2  0  0  0
 54127  1  0  0  0
 55 57  1  0  0  0
 55128  1  0  0  0
 56 69  2  0  0  0
 57 58  2  0  0  0
 57129  1  0  0  0
 58130  1  0  0  0
 59 60  1  0  0  0
 59 61  1  0  0  0
 59 62  1  0  0  0
 60131  1  0  0  0
 60132  1  0  0  0
 60133  1  0  0  0
 61134  1  0  0  0
 61135  1  0  0  0
 61136  1  0  0  0
 62137  1  0  0  0
 62138  1  0  0  0
 62139  1  0  0  0
 63 65  1  0  0  0
 63140  1  0  0  0
 63141  1  0  0  0
 63142  1  0  0  0
 64143  1  0  0  0
 65144  1  0  0  0
 68 83  1  0  0  0
 71 73  2  0  0  0
 71 74  1  0  0  0
 71145  1  0  0  0
 72 73  1  0  0  0
 72 76  2  0  0  0
 72146  1  0  0  0
 73 80  1  0  0  0
 74 75  2  0  0  0
 74 77  1  0  0  0
 75 76  1  0  0  0
 75 78  1  0  0  0
 76 84  1  0  0  0
 77147  1  0  0  0
 77148  1  0  0  0
 77149  1  0  0  0
 78150  1  0  0  0
 78151  1  0  0  0
 78152  1  0  0  0
 79153  1  0  0  0
 79154  1  0  0  0
 79155  1  0  0  0
 79 83  1  0  0  0
 80 81  1  0  0  0
 80156  1  0  0  0
 80157  1  0  0  0
 81 85  1  0  0  0
 81158  1  0  0  0
 81159  1  0  0  0
 82 83  1  0  0  0
 82 84  1  0  0  0
 82160  1  0  0  0
 82161  1  0  0  0
 83162  1  0  0  0
 84163  1  0  0  0
 85164  1  0  0  0
M  ISO  4   1 100  68 101  83 101  85 100
M  END
> <chiral flag>
0

> <version>
0

> <s_m_source_file>
/data/baiqing/PycharmProjects/Reinvent-master-3.2/result/LINK_invent/BTK/process_docking_weight1_custom_sum_contain_oxygen_bond_distance_aromatic_linkinvent_7_9_3/rearranged_h_0088.sdf

> <i_m_source_file_index>
83

> <r_mmod_Potential_Energy-OPLS-2005>
-74.8375549316406

> <r_mmod_Stretch_Energy-OPLS-2005>
47.4597663879395

> <r_mmod_Bend_Energy-OPLS-2005>
115.9775390625

> <r_mmod_Torsional_Energy-OPLS-2005>
233.460723876953

> <r_mmod_Improper_Torsional_Energy-OPLS-2005>
8.35710906982422

> <r_mmod_Van_der_Waal_Energy-OPLS-2005>
149.778778076172

> <r_mmod_Electrostatic_Energy-OPLS-2005>
-432.147613525391

> <r_mmod_Solvation_Energy-OPLS-2005>
-215.142532348633

> <b_mmod_Minimization_Converged-OPLS-2005>
0

> <r_mmod_RMS_Derivative-OPLS-2005>
1.43603324890137

$$$$
85
                    3D
 Structure written by MMmdl.
180188  0  0  1  0            999 V2000
  -30.6740  -14.4586   20.6311 C   0  0  0  0  0  0
  -30.4426  -12.3183   19.4134 C   0  0  0  0  0  0
  -29.4999  -12.5295   18.2071 C   0  0  0  0  0  0
  -28.0205  -12.3790   18.6183 C   0  0  0  0  0  0
  -27.6723  -13.1954   19.8895 C   0  0  2  0  0  0
  -28.7117  -12.9216   21.0015 C   0  0  0  0  0  0
  -25.2641  -13.8133   20.5664 C   0  0  0  0  0  0
  -24.1875  -13.0424   20.9156 C   0  0  0  0  0  0
  -24.6404  -11.6882   20.8723 C   0  0  0  0  0  0
  -23.9056  -10.4284   21.0410 C   0  0  0  0  0  0
  -24.3607   -9.4199   21.9178 C   0  0  0  0  0  0
  -23.6287   -8.2228   22.0749 C   0  0  0  0  0  0
  -22.4267   -8.0276   21.3539 C   0  0  0  0  0  0
  -21.9904   -9.0248   20.4636 C   0  0  0  0  0  0
  -22.7231  -10.2131   20.3049 C   0  0  0  0  0  0
  -21.6853   -6.0735   22.5275 C   0  0  0  0  0  0
  -21.4012   -6.5643   23.8205 C   0  0  0  0  0  0
  -21.3656   -5.6797   24.9165 C   0  0  0  0  0  0
  -21.6039   -4.3058   24.7222 C   0  0  0  0  0  0
  -21.8825   -3.8151   23.4344 C   0  0  0  0  0  0
  -21.9192   -4.6965   22.3399 C   0  0  0  0  0  0
  -22.7895  -13.5251   21.1828 C   0  0  0  0  0  0
  -22.1666   -4.2151   21.0979 F   0  0  0  0  0  0
  -21.5626   -3.4542   25.7735 F   0  0  0  0  0  0
  -30.0506  -13.2561   20.4769 N   0  0  0  0  0  0
  -26.3085  -12.9267   20.3416 N   0  0  0  0  0  0
  -25.9332  -11.6439   20.5767 N   0  0  0  0  0  0
  -22.0545  -12.8226   22.0386 N   0  0  0  0  0  0
  -25.4413  -15.1826   20.4084 N   0  0  0  0  0  0
  -31.7247  -14.7590   20.0560 O   0  0  0  0  0  0
  -21.6627   -6.8872   21.4236 O   0  0  0  0  0  0
  -22.3584  -14.5549   20.6686 O   0  0  0  0  0  0
  -24.6108  -31.8676   23.2087 C   0  0  0  0  0  0
  -25.8991  -32.4837   23.8370 C   0  0  1  0  0  0
  -27.2440  -27.4562   20.0962 C   0  0  0  0  0  0
  -25.5827  -33.8631   24.2283 N   0  0  0  0  0  0
  -23.4025  -30.4871   21.5506 C   0  0  2  0  0  0
  -24.8536  -28.9565   20.1125 C   0  0  0  0  0  0
  -22.7391  -29.4653   22.5016 C   0  0  0  0  0  0
  -18.0259  -28.1399   22.8506 C   0  0  0  0  0  0
  -24.1478  -36.7356   23.2644 C   0  0  0  0  0  0
  -25.9263  -30.8410   21.3607 C   0  0  0  0  0  0
  -26.0103  -29.4762   20.7096 C   0  0  0  0  0  0
  -27.2110  -28.7355   20.6953 C   0  0  0  0  0  0
  -26.0820  -26.9495   19.4827 C   0  0  0  0  0  0
  -24.8855  -27.6938   19.4904 C   0  0  0  0  0  0
  -23.6099  -29.8159   20.1665 C   0  0  0  0  0  0
  -25.4092  -36.3109   24.0315 C   0  0  1  0  0  0
  -20.5842  -28.3688   23.1320 C   0  0  2  0  0  0
  -20.6765  -26.9427   22.5426 C   0  0  0  0  0  0
  -19.5745  -26.6405   21.5225 C   0  0  0  0  0  0
  -18.1915  -26.7948   22.1623 C   0  0  0  0  0  0
  -19.1513  -28.8849   23.2905 C   0  0  0  0  0  0
  -18.9440  -30.1446   23.8925 C   0  0  0  0  0  0
  -17.6449  -30.6596   24.0566 C   0  0  0  0  0  0
  -25.8999  -34.9478   23.5092 C   0  0  0  0  0  0
  -16.5327  -29.9088   23.6360 C   0  0  0  0  0  0
  -16.7249  -28.6507   23.0372 C   0  0  0  0  0  0
  -26.4439  -31.6643   25.0713 C   0  0  0  0  0  0
  -25.3694  -31.3746   26.1461 C   0  0  0  0  0  0
  -27.0277  -30.3079   24.6114 C   0  0  0  0  0  0
  -27.6017  -32.4391   25.7459 C   0  0  0  0  0  0
  -27.5586  -37.1799   24.8454 C   0  0  0  0  0  0
  -21.4115  -29.3046   22.3725 N   0  0  0  0  0  0
  -26.4291  -37.3798   23.9398 N   0  0  0  0  0  0
  -24.6643  -31.0772   22.0995 N   0  0  0  0  0  0
  -23.4146  -28.8211   23.3091 O   0  0  0  0  0  0
  -28.3928  -26.6975   20.1079 O   0  0  0  0  0  0
  -26.5614  -34.8943   22.4690 O   0  0  0  0  0  0
  -23.5303  -32.1436   23.7477 O   0  0  0  0  0  0
  -29.8192  -21.4591   20.4991 C   0  0  0  0  0  0
  -29.8163  -19.6740   22.6342 C   0  0  0  0  0  0
  -29.3443  -21.9076   21.7553 C   0  0  0  0  0  0
  -30.3295  -19.2316   21.3969 C   0  0  0  0  0  0
  -29.3429  -20.9887   22.8410 C   0  0  0  0  0  0
  -30.3372  -20.1482   20.3027 C   0  0  0  0  0  0
  -31.2544  -21.9852   25.0084 C   0  0  0  0  0  0
  -31.5875  -20.9102   18.1785 C   0  0  0  0  0  0
  -29.7570  -19.1898   18.0336 C   0  0  0  0  0  0
  -27.6010  -20.5875   24.6521 C   0  0  0  0  0  0
  -27.6701  -26.0638   22.4513 C   0  0  0  0  0  0
  -28.8738  -23.3571   21.9799 C   0  0  0  0  0  0
  -30.8398  -17.7748   21.3471 C   0  0  0  0  0  0
  -29.9714  -21.1967   25.3171 C   0  0  0  0  0  0
  -28.7212  -24.3417   20.7893 C   0  0  0  0  0  0
  -29.7056  -16.7558   21.0873 C   0  0  0  0  0  0
  -30.8734  -19.7602   18.9154 C   0  0  0  0  0  0
  -28.8669  -21.3668   24.2552 C   0  0  1  0  0  0
  -28.6151  -25.8305   21.2434 C   0  0  1  0  0  0
  -29.9795  -15.3368   21.3735 N   0  0  0  0  0  0
  -31.4818  -12.4513   19.1045 H   0  0  0  0  0  0
  -30.3708  -11.2923   19.7779 H   0  0  0  0  0  0
  -29.7374  -11.8185   17.4143 H   0  0  0  0  0  0
  -29.6609  -13.5225   17.7844 H   0  0  0  0  0  0
  -27.8286  -11.3198   18.7963 H   0  0  0  0  0  0
  -27.3683  -12.6689   17.7932 H   0  0  0  0  0  0
  -27.7342  -14.2508   19.6232 H   0  0  0  0  0  0
  -28.6892  -11.8672   21.2824 H   0  0  0  0  0  0
  -28.4553  -13.4581   21.9153 H   0  0  0  0  0  0
  -25.2762   -9.5672   22.4746 H   0  0  0  0  0  0
  -23.9997   -7.4627   22.7472 H   0  0  0  0  0  0
  -21.0827   -8.8769   19.8951 H   0  0  0  0  0  0
  -22.3688  -10.9668   19.6158 H   0  0  0  0  0  0
  -21.2005   -7.6153   23.9709 H   0  0  0  0  0  0
  -21.1472   -6.0525   25.9065 H   0  0  0  0  0  0
  -22.0608   -2.7615   23.2844 H   0  0  0  0  0  0
  -22.4171  -11.9872   22.4744 H   0  0  0  0  0  0
  -21.1175  -13.1248   22.2619 H   0  0  0  0  0  0
  -24.6843  -15.8486   20.5195 H   0  0  0  0  0  0
  -26.3025  -15.6124   20.0971 H   0  0  0  0  0  0
  -26.7076  -32.5571   23.1156 H   0  0  0  0  0  0
  -24.9913  -33.9820   25.0375 H   0  0  0  0  0  0
  -22.6919  -31.3036   21.4131 H   0  0  0  0  0  0
  -23.3723  -35.9717   23.3295 H   0  0  0  0  0  0
  -24.3546  -36.9022   22.2066 H   0  0  0  0  0  0
  -23.7291  -37.6561   23.6714 H   0  0  0  0  0  0
  -26.0206  -31.6033   20.5867 H   0  0  0  0  0  0
  -26.8167  -30.9015   21.9751 H   0  0  0  0  0  0
  -28.1068  -29.1261   21.1598 H   0  0  0  0  0  0
  -26.1060  -25.9794   19.0055 H   0  0  0  0  0  0
  -23.9984  -27.2956   19.0156 H   0  0  0  0  0  0
  -23.7007  -30.5867   19.4003 H   0  0  0  0  0  0
  -22.7403  -29.2210   19.8874 H   0  0  0  0  0  0
  -25.1286  -36.1976   25.0812 H   0  0  0  0  0  0
  -20.9911  -28.3287   24.1451 H   0  0  0  0  0  0
  -20.5730  -26.2283   23.3614 H   0  0  0  0  0  0
  -21.6628  -26.7531   22.1198 H   0  0  0  0  0  0
  -19.6906  -25.6307   21.1267 H   0  0  0  0  0  0
  -19.6693  -27.3207   20.6749 H   0  0  0  0  0  0
  -17.4204  -26.6706   21.4005 H   0  0  0  0  0  0
  -18.0276  -26.0073   22.8991 H   0  0  0  0  0  0
  -19.7908  -30.7241   24.2332 H   0  0  0  0  0  0
  -17.5007  -31.6299   24.5119 H   0  0  0  0  0  0
  -15.5312  -30.2993   23.7722 H   0  0  0  0  0  0
  -15.8640  -28.0838   22.7111 H   0  0  0  0  0  0
  -24.5803  -30.7205   25.7761 H   0  0  0  0  0  0
  -24.8947  -32.2894   26.4991 H   0  0  0  0  0  0
  -25.7993  -30.8811   27.0180 H   0  0  0  0  0  0
  -26.2802  -29.6771   24.1293 H   0  0  0  0  0  0
  -27.4166  -29.7425   25.4580 H   0  0  0  0  0  0
  -27.8576  -30.4367   23.9172 H   0  0  0  0  0  0
  -27.2643  -33.3717   26.1996 H   0  0  0  0  0  0
  -28.3823  -32.6913   25.0268 H   0  0  0  0  0  0
  -28.0678  -31.8543   26.5389 H   0  0  0  0  0  0
  -28.2603  -38.0101   24.7512 H   0  0  0  0  0  0
  -28.1095  -36.2628   24.6278 H   0  0  0  0  0  0
  -27.2298  -37.1470   25.8858 H   0  0  0  0  0  0
  -20.9289  -29.8739   21.6902 H   0  0  0  0  0  0
  -26.0187  -38.2898   24.1344 H   0  0  0  0  0  0
  -29.7978  -22.1444   19.6686 H   0  0  0  0  0  0
  -29.8006  -18.9809   23.4619 H   0  0  0  0  0  0
  -31.9678  -21.9029   25.8293 H   0  0  0  0  0  0
  -31.0449  -23.0429   24.8438 H   0  0  0  0  0  0
  -31.7419  -21.6006   24.1115 H   0  0  0  0  0  0
  -32.3864  -21.3405   18.7838 H   0  0  0  0  0  0
  -30.9029  -21.7097   17.8983 H   0  0  0  0  0  0
  -32.0395  -20.5538   17.2531 H   0  0  0  0  0  0
  -29.2808  -18.3288   18.4956 H   0  0  0  0  0  0
  -30.1449  -18.8678   17.0671 H   0  0  0  0  0  0
  -28.9763  -19.9281   17.8505 H   0  0  0  0  0  0
  -26.8066  -20.7235   23.9178 H   0  0  0  0  0  0
  -27.2185  -20.9295   25.6143 H   0  0  0  0  0  0
  -27.7902  -19.5181   24.7392 H   0  0  0  0  0  0
  -27.9600  -25.4757   23.3215 H   0  0  0  0  0  0
  -26.6330  -25.8187   22.2174 H   0  0  0  0  0  0
  -27.7092  -27.1026   22.7791 H   0  0  0  0  0  0
  -29.5638  -23.7970   22.7002 H   0  0  0  0  0  0
  -27.8965  -23.3056   22.4599 H   0  0  0  0  0  0
  -31.2988  -17.5575   22.3136 H   0  0  0  0  0  0
  -31.6478  -17.6439   20.6317 H   0  0  0  0  0  0
  -29.5856  -21.5178   26.2868 H   0  0  0  0  0  0
  -30.2194  -20.1415   25.4316 H   0  0  0  0  0  0
  -27.8611  -24.0563   20.1846 H   0  0  0  0  0  0
  -29.5907  -24.2763   20.1392 H   0  0  0  0  0  0
  -29.3378  -16.8372   20.0672 H   0  0  0  0  0  0
  -28.8591  -17.0203   21.7224 H   0  0  0  0  0  0
  -31.6370  -18.9945   19.0347 H   0  0  0  0  0  0
  -28.5943  -22.4183   24.3028 H   0  0  0  0  0  0
  -29.6091  -26.1053   21.6003 H   0  0  0  0  0  0
  -29.2462  -14.8895   21.9047 H   0  0  0  0  0  0
  1 25  1  0  0  0
  1 30  2  0  0  0
  1 90  1  0  0  0
  2  3  1  0  0  0
  2 25  1  0  0  0
  2 91  1  0  0  0
  2 92  1  0  0  0
  3  4  1  0  0  0
  3 93  1  0  0  0
  3 94  1  0  0  0
  4  5  1  0  0  0
  4 95  1  0  0  0
  4 96  1  0  0  0
  5  6  1  0  0  0
  5 26  1  0  0  0
  5 97  1  0  0  0
  6 25  1  0  0  0
  6 98  1  0  0  0
  6 99  1  0  0  0
  7  8  2  0  0  0
  7 26  1  0  0  0
  7 29  1  0  0  0
  8  9  1  0  0  0
  8 22  1  0  0  0
  9 10  1  0  0  0
  9 27  2  0  0  0
 10 11  2  0  0  0
 10 15  1  0  0  0
 11 12  1  0  0  0
 11100  1  0  0  0
 12 13  2  0  0  0
 12101  1  0  0  0
 13 14  1  0  0  0
 13 31  1  0  0  0
 14 15  2  0  0  0
 14102  1  0  0  0
 15103  1  0  0  0
 16 17  2  0  0  0
 16 21  1  0  0  0
 16 31  1  0  0  0
 17 18  1  0  0  0
 17104  1  0  0  0
 18 19  2  0  0  0
 18105  1  0  0  0
 19 20  1  0  0  0
 19 24  1  0  0  0
 20 21  2  0  0  0
 20106  1  0  0  0
 21 23  1  0  0  0
 22 28  1  0  0  0
 22 32  2  0  0  0
 26 27  1  0  0  0
 28107  1  0  0  0
 28108  1  0  0  0
 29109  1  0  0  0
 29110  1  0  0  0
 33 34  1  0  0  0
 33 66  1  0  0  0
 33 70  2  0  0  0
 34 36  1  0  0  0
 34 59  1  0  0  0
 34111  1  0  0  0
 35 44  2  0  0  0
 35 45  1  0  0  0
 35 68  1  0  0  0
 36 56  1  0  0  0
 36112  1  0  0  0
 37 39  1  0  0  0
 37 47  1  0  0  0
 37 66  1  0  0  0
 37113  1  0  0  0
 38 43  2  0  0  0
 38 46  1  0  0  0
 38 47  1  0  0  0
 39 64  1  0  0  0
 39 67  2  0  0  0
 40 52  1  0  0  0
 40 53  2  0  0  0
 40 58  1  0  0  0
 41114  1  0  0  0
 41115  1  0  0  0
 41116  1  0  0  0
 41 48  1  0  0  0
 42 43  1  0  0  0
 42 66  1  0  0  0
 42117  1  0  0  0
 42118  1  0  0  0
 43 44  1  0  0  0
 44119  1  0  0  0
 45 46  2  0  0  0
 45120  1  0  0  0
 46121  1  0  0  0
 47122  1  0  0  0
 47123  1  0  0  0
 48 56  1  0  0  0
 48 65  1  0  0  0
 48124  1  0  0  0
 49 50  1  0  0  0
 49 53  1  0  0  0
 49 64  1  0  0  0
 49125  1  0  0  0
 50 51  1  0  0  0
 50126  1  0  0  0
 50127  1  0  0  0
 51 52  1  0  0  0
 51128  1  0  0  0
 51129  1  0  0  0
 52130  1  0  0  0
 52131  1  0  0  0
 53 54  1  0  0  0
 54 55  2  0  0  0
 54132  1  0  0  0
 55 57  1  0  0  0
 55133  1  0  0  0
 56 69  2  0  0  0
 57 58  2  0  0  0
 57134  1  0  0  0
 58135  1  0  0  0
 59 60  1  0  0  0
 59 61  1  0  0  0
 59 62  1  0  0  0
 60136  1  0  0  0
 60137  1  0  0  0
 60138  1  0  0  0
 61139  1  0  0  0
 61140  1  0  0  0
 61141  1  0  0  0
 62142  1  0  0  0
 62143  1  0  0  0
 62144  1  0  0  0
 63 65  1  0  0  0
 63145  1  0  0  0
 63146  1  0  0  0
 63147  1  0  0  0
 64148  1  0  0  0
 65149  1  0  0  0
 68 89  1  0  0  0
 71 73  2  0  0  0
 71 76  1  0  0  0
 71150  1  0  0  0
 72 74  1  0  0  0
 72 75  2  0  0  0
 72151  1  0  0  0
 73 75  1  0  0  0
 73 82  1  0  0  0
 74 76  2  0  0  0
 74 83  1  0  0  0
 75 88  1  0  0  0
 76 87  1  0  0  0
 77 84  1  0  0  0
 77152  1  0  0  0
 77153  1  0  0  0
 77154  1  0  0  0
 78155  1  0  0  0
 78156  1  0  0  0
 78157  1  0  0  0
 78 87  1  0  0  0
 79 87  1  0  0  0
 79158  1  0  0  0
 79159  1  0  0  0
 79160  1  0  0  0
 80161  1  0  0  0
 80162  1  0  0  0
 80163  1  0  0  0
 80 88  1  0  0  0
 81164  1  0  0  0
 81165  1  0  0  0
 81166  1  0  0  0
 81 89  1  0  0  0
 82 85  1  0  0  0
 82167  1  0  0  0
 82168  1  0  0  0
 83 86  1  0  0  0
 83169  1  0  0  0
 83170  1  0  0  0
 84 88  1  0  0  0
 84171  1  0  0  0
 84172  1  0  0  0
 85 89  1  0  0  0
 85173  1  0  0  0
 85174  1  0  0  0
 86 90  1  0  0  0
 86175  1  0  0  0
 86176  1  0  0  0
 87177  1  0  0  0
 88178  1  0  0  0
 89179  1  0  0  0
 90180  1  0  0  0
M  ISO  4   1 100  68 101  89 101  90 100
M  END
> <chiral flag>
0

> <version>
0

> <s_m_source_file>
/data/baiqing/PycharmProjects/Reinvent-master-3.2/result/LINK_invent/BTK/process_docking_weight1_custom_sum_contain_oxygen_bond_distance_aromatic_linkinvent_7_9_3/rearranged_h_0088.sdf

> <i_m_source_file_index>
84

> <r_mmod_Potential_Energy-OPLS-2005>
-36.404426574707

> <r_mmod_Stretch_Energy-OPLS-2005>
44.6847915649414

> <r_mmod_Bend_Energy-OPLS-2005>
123.890510559082

> <r_mmod_Torsional_Energy-OPLS-2005>
248.64892578125

> <r_mmod_Improper_Torsional_Energy-OPLS-2005>
5.22814989089966

> <r_mmod_Van_der_Waal_Energy-OPLS-2005>
157.483627319336

> <r_mmod_Electrostatic_Energy-OPLS-2005>
-435.353057861328

> <r_mmod_Solvation_Energy-OPLS-2005>
-192.564208984375

> <b_mmod_Minimization_Converged-OPLS-2005>
0

> <r_mmod_RMS_Derivative-OPLS-2005>
3.68244290351868

$$$$
86
                    3D
 Structure written by MMmdl.
171179  0  0  1  0            999 V2000
  -30.6759  -14.4562   20.5816 C   0  0  0  0  0  0
  -30.4221  -12.2974   19.4311 C   0  0  0  0  0  0
  -29.4819  -12.4917   18.2209 C   0  0  0  0  0  0
  -28.0125  -12.3198   18.6459 C   0  0  0  0  0  0
  -27.6578  -13.1859   19.8835 C   0  0  2  0  0  0
  -28.6958  -12.9650   21.0087 C   0  0  0  0  0  0
  -25.2549  -13.8111   20.5667 C   0  0  0  0  0  0
  -24.1791  -13.0436   20.9176 C   0  0  0  0  0  0
  -24.6309  -11.6888   20.8787 C   0  0  0  0  0  0
  -23.8986  -10.4293   21.0448 C   0  0  0  0  0  0
  -24.3559   -9.4211   21.9219 C   0  0  0  0  0  0
  -23.6264   -8.2242   22.0770 C   0  0  0  0  0  0
  -22.4254   -8.0265   21.3552 C   0  0  0  0  0  0
  -21.9880   -9.0219   20.4643 C   0  0  0  0  0  0
  -22.7184  -10.2115   20.3078 C   0  0  0  0  0  0
  -21.6848   -6.0722   22.5283 C   0  0  0  0  0  0
  -21.4005   -6.5634   23.8213 C   0  0  0  0  0  0
  -21.3659   -5.6794   24.9177 C   0  0  0  0  0  0
  -21.6048   -4.3055   24.7237 C   0  0  0  0  0  0
  -21.8817   -3.8142   23.4364 C   0  0  0  0  0  0
  -21.9186   -4.6954   22.3414 C   0  0  0  0  0  0
  -22.7813  -13.5245   21.1853 C   0  0  0  0  0  0
  -22.1651   -4.2153   21.0985 F   0  0  0  0  0  0
  -21.5629   -3.4532   25.7744 F   0  0  0  0  0  0
  -30.0290  -13.2690   20.4601 N   0  0  0  0  0  0
  -26.2974  -12.9246   20.3421 N   0  0  0  0  0  0
  -25.9237  -11.6436   20.5864 N   0  0  0  0  0  0
  -22.0460  -12.8265   22.0413 N   0  0  0  0  0  0
  -25.4330  -15.1814   20.3988 N   0  0  0  0  0  0
  -31.7839  -14.6750   20.0835 O   0  0  0  0  0  0
  -21.6636   -6.8857   21.4241 O   0  0  0  0  0  0
  -22.3523  -14.5580   20.6714 O   0  0  0  0  0  0
  -24.6194  -31.8642   23.2100 C   0  0  0  0  0  0
  -25.9082  -32.4812   23.8386 C   0  0  1  0  0  0
  -27.2415  -27.4304   20.0955 C   0  0  0  0  0  0
  -25.5955  -33.8614   24.2306 N   0  0  0  0  0  0
  -23.4048  -30.4892   21.5495 C   0  0  2  0  0  0
  -24.8506  -28.9516   20.1212 C   0  0  0  0  0  0
  -22.7395  -29.4678   22.5003 C   0  0  0  0  0  0
  -18.0256  -28.1405   22.8502 C   0  0  0  0  0  0
  -24.1470  -36.7297   23.2644 C   0  0  0  0  0  0
  -25.9332  -30.8322   21.3574 C   0  0  0  0  0  0
  -26.0126  -29.4638   20.7117 C   0  0  0  0  0  0
  -27.2140  -28.7162   20.6878 C   0  0  0  0  0  0
  -26.0555  -26.9294   19.5140 C   0  0  0  0  0  0
  -24.8700  -27.6832   19.5175 C   0  0  0  0  0  0
  -23.6088  -29.8108   20.1691 C   0  0  0  0  0  0
  -25.4102  -36.3100   24.0334 C   0  0  1  0  0  0
  -20.5838  -28.3698   23.1315 C   0  0  2  0  0  0
  -20.6772  -26.9445   22.5387 C   0  0  0  0  0  0
  -19.5747  -26.6407   21.5187 C   0  0  0  0  0  0
  -18.1918  -26.7968   22.1593 C   0  0  0  0  0  0
  -19.1517  -28.8871   23.2903 C   0  0  0  0  0  0
  -18.9442  -30.1478   23.8906 C   0  0  0  0  0  0
  -17.6450  -30.6611   24.0579 C   0  0  0  0  0  0
  -25.9034  -34.9470   23.5092 C   0  0  0  0  0  0
  -16.5338  -29.9101   23.6374 C   0  0  0  0  0  0
  -16.7253  -28.6519   23.0373 C   0  0  0  0  0  0
  -26.4490  -31.6658   25.0775 C   0  0  0  0  0  0
  -25.3768  -31.3730   26.1543 C   0  0  0  0  0  0
  -27.0343  -30.3107   24.6189 C   0  0  0  0  0  0
  -27.6027  -32.4462   25.7522 C   0  0  0  0  0  0
  -27.5552  -37.1791   24.8484 C   0  0  0  0  0  0
  -21.4119  -29.3059   22.3732 N   0  0  0  0  0  0
  -26.4268  -37.3802   23.9446 N   0  0  0  0  0  0
  -24.6717  -31.0757   22.0971 N   0  0  0  0  0  0
  -23.4176  -28.8204   23.3031 O   0  0  0  0  0  0
  -28.4170  -26.7063   20.0578 O   0  0  0  0  0  0
  -26.5543  -34.8933   22.4618 O   0  0  0  0  0  0
  -23.5394  -32.1354   23.7528 O   0  0  0  0  0  0
  -30.0225  -23.8881   18.3548 C   0  0  0  0  0  0
  -31.0787  -23.1225   17.8374 C   0  0  0  0  0  0
  -29.4262  -22.0320   19.8094 C   0  0  0  0  0  0
  -29.1813  -23.3540   19.3476 C   0  0  0  0  0  0
  -31.3267  -21.8123   18.3031 C   0  0  0  0  0  0
  -30.4950  -21.2414   19.3083 C   0  0  0  0  0  0
  -32.4985  -21.0844   17.6736 C   0  0  0  0  0  0
  -26.8753  -23.4050   20.5001 C   0  0  0  0  0  0
  -31.4564  -17.9152   18.3353 C   0  0  0  0  0  0
  -28.0566  -17.9170   20.1752 C   0  0  0  0  0  0
  -30.7304  -19.8379   19.9204 C   0  0  0  0  0  0
  -30.2245  -16.8722   21.0441 C   0  0  0  0  0  0
  -28.4037  -25.4314   20.7266 C   0  0  0  0  0  0
  -28.0042  -24.2140   19.8381 C   0  0  1  0  0  0
  -30.2839  -18.6084   19.0654 C   0  0  2  0  0  0
  -29.4910  -17.4994   19.8233 C   0  0  2  0  0  0
  -29.9505  -15.4361   21.1468 N   0  0  0  0  0  0
  -31.4657  -12.4078   19.1300 H   0  0  0  0  0  0
  -30.3364  -11.2871   19.8333 H   0  0  0  0  0  0
  -29.7302  -11.7777   17.4352 H   0  0  0  0  0  0
  -29.6198  -13.4869   17.7982 H   0  0  0  0  0  0
  -27.8602  -11.2651   18.8802 H   0  0  0  0  0  0
  -27.3408  -12.5424   17.8172 H   0  0  0  0  0  0
  -27.7065  -14.2289   19.5706 H   0  0  0  0  0  0
  -28.6755  -11.9283   21.3470 H   0  0  0  0  0  0
  -28.4504  -13.5569   21.8938 H   0  0  0  0  0  0
  -25.2697   -9.5709   22.4790 H   0  0  0  0  0  0
  -23.9985   -7.4642   22.7500 H   0  0  0  0  0  0
  -21.0821   -8.8704   19.8938 H   0  0  0  0  0  0
  -22.3636  -10.9636   19.6176 H   0  0  0  0  0  0
  -21.1989   -7.6135   23.9729 H   0  0  0  0  0  0
  -21.1480   -6.0511   25.9082 H   0  0  0  0  0  0
  -22.0600   -2.7609   23.2859 H   0  0  0  0  0  0
  -22.4039  -11.9850   22.4703 H   0  0  0  0  0  0
  -21.1112  -13.1328   22.2710 H   0  0  0  0  0  0
  -24.6696  -15.8435   20.4848 H   0  0  0  0  0  0
  -26.2882  -15.6054   20.0648 H   0  0  0  0  0  0
  -26.7158  -32.5512   23.1156 H   0  0  0  0  0  0
  -25.0326  -33.9792   25.0595 H   0  0  0  0  0  0
  -22.6972  -31.3075   21.4063 H   0  0  0  0  0  0
  -23.3730  -35.9622   23.3311 H   0  0  0  0  0  0
  -24.3552  -36.8915   22.2057 H   0  0  0  0  0  0
  -23.7210  -37.6496   23.6654 H   0  0  0  0  0  0
  -26.0425  -31.5847   20.5755 H   0  0  0  0  0  0
  -26.8262  -30.8912   21.9686 H   0  0  0  0  0  0
  -28.1168  -29.1194   21.1250 H   0  0  0  0  0  0
  -26.0261  -25.9661   19.0346 H   0  0  0  0  0  0
  -23.9793  -27.2816   19.0561 H   0  0  0  0  0  0
  -23.6999  -30.5745   19.3970 H   0  0  0  0  0  0
  -22.7382  -29.2147   19.8908 H   0  0  0  0  0  0
  -25.1257  -36.1924   25.0814 H   0  0  0  0  0  0
  -20.9916  -28.3238   24.1440 H   0  0  0  0  0  0
  -20.5693  -26.2283   23.3554 H   0  0  0  0  0  0
  -21.6637  -26.7510   22.1158 H   0  0  0  0  0  0
  -19.6917  -25.6304   21.1248 H   0  0  0  0  0  0
  -19.6719  -27.3184   20.6697 H   0  0  0  0  0  0
  -17.4183  -26.6719   21.3992 H   0  0  0  0  0  0
  -18.0347  -26.0082   22.8969 H   0  0  0  0  0  0
  -19.7906  -30.7303   24.2270 H   0  0  0  0  0  0
  -17.4997  -31.6302   24.5156 H   0  0  0  0  0  0
  -15.5338  -30.3001   23.7750 H   0  0  0  0  0  0
  -15.8627  -28.0851   22.7127 H   0  0  0  0  0  0
  -24.5938  -30.7097   25.7872 H   0  0  0  0  0  0
  -24.8983  -32.2862   26.5084 H   0  0  0  0  0  0
  -25.8166  -30.8838   27.0244 H   0  0  0  0  0  0
  -26.2874  -29.6862   24.1288 H   0  0  0  0  0  0
  -27.4128  -29.7413   25.4682 H   0  0  0  0  0  0
  -27.8695  -30.4435   23.9319 H   0  0  0  0  0  0
  -27.2599  -33.3784   26.2027 H   0  0  0  0  0  0
  -28.3820  -32.7030   25.0341 H   0  0  0  0  0  0
  -28.0699  -31.8674   26.5490 H   0  0  0  0  0  0
  -28.2579  -38.0082   24.7543 H   0  0  0  0  0  0
  -28.1024  -36.2612   24.6268 H   0  0  0  0  0  0
  -27.2282  -37.1413   25.8892 H   0  0  0  0  0  0
  -20.9302  -29.8741   21.6915 H   0  0  0  0  0  0
  -26.0127  -38.2860   24.1473 H   0  0  0  0  0  0
  -29.8539  -24.8885   17.9767 H   0  0  0  0  0  0
  -31.7046  -23.5547   17.0666 H   0  0  0  0  0  0
  -28.7910  -21.5985   20.5665 H   0  0  0  0  0  0
  -33.2801  -21.7912   17.3927 H   0  0  0  0  0  0
  -32.1707  -20.5845   16.7619 H   0  0  0  0  0  0
  -32.9559  -20.3582   18.3427 H   0  0  0  0  0  0
  -26.4598  -22.6674   19.8142 H   0  0  0  0  0  0
  -26.0587  -24.0605   20.8020 H   0  0  0  0  0  0
  -27.2192  -22.8989   21.4007 H   0  0  0  0  0  0
  -31.9027  -18.5343   17.5673 H   0  0  0  0  0  0
  -31.1160  -17.0198   17.8149 H   0  0  0  0  0  0
  -32.2481  -17.6012   19.0176 H   0  0  0  0  0  0
  -27.5050  -17.0773   20.5932 H   0  0  0  0  0  0
  -27.5162  -18.2448   19.2854 H   0  0  0  0  0  0
  -28.0308  -18.7228   20.9073 H   0  0  0  0  0  0
  -30.1853  -19.8110   20.8654 H   0  0  0  0  0  0
  -31.7726  -19.7302   20.2232 H   0  0  0  0  0  0
  -29.8863  -17.3486   21.9654 H   0  0  0  0  0  0
  -31.3001  -17.0436   21.0034 H   0  0  0  0  0  0
  -29.3888  -25.2590   21.1680 H   0  0  0  0  0  0
  -27.7321  -25.5076   21.5851 H   0  0  0  0  0  0
  -27.5865  -24.6069   18.9141 H   0  0  0  0  0  0
  -29.6061  -18.9867   18.3005 H   0  0  0  0  0  0
  -29.3516  -16.7026   19.0906 H   0  0  0  0  0  0
  -29.0622  -15.1650   21.5422 H   0  0  0  0  0  0
  1 25  1  0  0  0
  1 30  2  0  0  0
  1 87  1  0  0  0
  2  3  1  0  0  0
  2 25  1  0  0  0
  2 88  1  0  0  0
  2 89  1  0  0  0
  3  4  1  0  0  0
  3 90  1  0  0  0
  3 91  1  0  0  0
  4  5  1  0  0  0
  4 92  1  0  0  0
  4 93  1  0  0  0
  5  6  1  0  0  0
  5 26  1  0  0  0
  5 94  1  0  0  0
  6 25  1  0  0  0
  6 95  1  0  0  0
  6 96  1  0  0  0
  7  8  2  0  0  0
  7 26  1  0  0  0
  7 29  1  0  0  0
  8  9  1  0  0  0
  8 22  1  0  0  0
  9 10  1  0  0  0
  9 27  2  0  0  0
 10 11  2  0  0  0
 10 15  1  0  0  0
 11 12  1  0  0  0
 11 97  1  0  0  0
 12 13  2  0  0  0
 12 98  1  0  0  0
 13 14  1  0  0  0
 13 31  1  0  0  0
 14 15  2  0  0  0
 14 99  1  0  0  0
 15100  1  0  0  0
 16 17  2  0  0  0
 16 21  1  0  0  0
 16 31  1  0  0  0
 17 18  1  0  0  0
 17101  1  0  0  0
 18 19  2  0  0  0
 18102  1  0  0  0
 19 20  1  0  0  0
 19 24  1  0  0  0
 20 21  2  0  0  0
 20103  1  0  0  0
 21 23  1  0  0  0
 22 28  1  0  0  0
 22 32  2  0  0  0
 26 27  1  0  0  0
 28104  1  0  0  0
 28105  1  0  0  0
 29106  1  0  0  0
 29107  1  0  0  0
 33 34  1  0  0  0
 33 66  1  0  0  0
 33 70  2  0  0  0
 34 36  1  0  0  0
 34 59  1  0  0  0
 34108  1  0  0  0
 35 44  2  0  0  0
 35 45  1  0  0  0
 35 68  1  0  0  0
 36 56  1  0  0  0
 36109  1  0  0  0
 37 39  1  0  0  0
 37 47  1  0  0  0
 37 66  1  0  0  0
 37110  1  0  0  0
 38 43  2  0  0  0
 38 46  1  0  0  0
 38 47  1  0  0  0
 39 64  1  0  0  0
 39 67  2  0  0  0
 40 52  1  0  0  0
 40 53  2  0  0  0
 40 58  1  0  0  0
 41111  1  0  0  0
 41112  1  0  0  0
 41113  1  0  0  0
 41 48  1  0  0  0
 42 43  1  0  0  0
 42 66  1  0  0  0
 42114  1  0  0  0
 42115  1  0  0  0
 43 44  1  0  0  0
 44116  1  0  0  0
 45 46  2  0  0  0
 45117  1  0  0  0
 46118  1  0  0  0
 47119  1  0  0  0
 47120  1  0  0  0
 48 56  1  0  0  0
 48 65  1  0  0  0
 48121  1  0  0  0
 49 50  1  0  0  0
 49 53  1  0  0  0
 49 64  1  0  0  0
 49122  1  0  0  0
 50 51  1  0  0  0
 50123  1  0  0  0
 50124  1  0  0  0
 51 52  1  0  0  0
 51125  1  0  0  0
 51126  1  0  0  0
 52127  1  0  0  0
 52128  1  0  0  0
 53 54  1  0  0  0
 54 55  2  0  0  0
 54129  1  0  0  0
 55 57  1  0  0  0
 55130  1  0  0  0
 56 69  2  0  0  0
 57 58  2  0  0  0
 57131  1  0  0  0
 58132  1  0  0  0
 59 60  1  0  0  0
 59 61  1  0  0  0
 59 62  1  0  0  0
 60133  1  0  0  0
 60134  1  0  0  0
 60135  1  0  0  0
 61136  1  0  0  0
 61137  1  0  0  0
 61138  1  0  0  0
 62139  1  0  0  0
 62140  1  0  0  0
 62141  1  0  0  0
 63 65  1  0  0  0
 63142  1  0  0  0
 63143  1  0  0  0
 63144  1  0  0  0
 64145  1  0  0  0
 65146  1  0  0  0
 68 83  1  0  0  0
 71 72  2  0  0  0
 71 74  1  0  0  0
 71147  1  0  0  0
 72 75  1  0  0  0
 72148  1  0  0  0
 73 74  2  0  0  0
 73 76  1  0  0  0
 73149  1  0  0  0
 74 84  1  0  0  0
 75 76  2  0  0  0
 75 77  1  0  0  0
 76 81  1  0  0  0
 77150  1  0  0  0
 77151  1  0  0  0
 77152  1  0  0  0
 78153  1  0  0  0
 78154  1  0  0  0
 78155  1  0  0  0
 78 84  1  0  0  0
 79156  1  0  0  0
 79157  1  0  0  0
 79158  1  0  0  0
 79 85  1  0  0  0
 80159  1  0  0  0
 80160  1  0  0  0
 80161  1  0  0  0
 80 86  1  0  0  0
 81 85  1  0  0  0
 81162  1  0  0  0
 81163  1  0  0  0
 82 86  1  0  0  0
 82 87  1  0  0  0
 82164  1  0  0  0
 82165  1  0  0  0
 83 84  1  0  0  0
 83166  1  0  0  0
 83167  1  0  0  0
 84168  1  0  0  0
 85 86  1  0  0  0
 85169  1  0  0  0
 86170  1  0  0  0
 87171  1  0  0  0
M  ISO  4   1 100  68 101  83 101  87 100
M  END
> <chiral flag>
0

> <version>
0

> <s_m_source_file>
/data/baiqing/PycharmProjects/Reinvent-master-3.2/result/LINK_invent/BTK/process_docking_weight1_custom_sum_contain_oxygen_bond_distance_aromatic_linkinvent_7_9_3/rearranged_h_0088.sdf

> <i_m_source_file_index>
85

> <r_mmod_Potential_Energy-OPLS-2005>
-15.577784538269

> <r_mmod_Stretch_Energy-OPLS-2005>
42.3431396484375

> <r_mmod_Bend_Energy-OPLS-2005>
110.71004486084

> <r_mmod_Torsional_Energy-OPLS-2005>
254.099243164062

> <r_mmod_Improper_Torsional_Energy-OPLS-2005>
4.13463401794434

> <r_mmod_Van_der_Waal_Energy-OPLS-2005>
152.505599975586

> <r_mmod_Electrostatic_Energy-OPLS-2005>
-396.271575927734

> <r_mmod_Solvation_Energy-OPLS-2005>
-195.243133544922

> <b_mmod_Minimization_Converged-OPLS-2005>
0

> <r_mmod_RMS_Derivative-OPLS-2005>
4.24944925308228

$$$$
87
                    3D
 Structure written by MMmdl.
169177  0  0  1  0            999 V2000
  -30.5390  -14.9836   20.4021 C   0  0  0  0  0  0
  -30.4362  -12.6088   19.5074 C   0  0  0  0  0  0
  -29.5243  -12.5373   18.2602 C   0  0  0  0  0  0
  -28.0561  -12.3229   18.6736 C   0  0  0  0  0  0
  -27.6276  -13.2580   19.8355 C   0  0  2  0  0  0
  -28.6683  -13.3019   20.9750 C   0  0  0  0  0  0
  -25.2447  -13.8231   20.5720 C   0  0  0  0  0  0
  -24.1785  -13.0440   20.9236 C   0  0  0  0  0  0
  -24.6421  -11.6930   20.8764 C   0  0  0  0  0  0
  -23.9119  -10.4293   21.0415 C   0  0  0  0  0  0
  -24.3660   -9.4196   21.9189 C   0  0  0  0  0  0
  -23.6317   -8.2240   22.0756 C   0  0  0  0  0  0
  -22.4295   -8.0296   21.3548 C   0  0  0  0  0  0
  -21.9946   -9.0274   20.4648 C   0  0  0  0  0  0
  -22.7293  -10.2141   20.3059 C   0  0  0  0  0  0
  -21.6845   -6.0763   22.5292 C   0  0  0  0  0  0
  -21.4010   -6.5656   23.8230 C   0  0  0  0  0  0
  -21.3656   -5.6800   24.9186 C   0  0  0  0  0  0
  -21.6041   -4.3064   24.7224 C   0  0  0  0  0  0
  -21.8817   -3.8168   23.4341 C   0  0  0  0  0  0
  -21.9189   -4.6993   22.3405 C   0  0  0  0  0  0
  -22.7799  -13.5195   21.1900 C   0  0  0  0  0  0
  -22.1660   -4.2183   21.0980 F   0  0  0  0  0  0
  -21.5625   -3.4544   25.7732 F   0  0  0  0  0  0
  -29.9416  -13.7198   20.3758 N   0  0  0  0  0  0
  -26.2884  -12.9489   20.3233 N   0  0  0  0  0  0
  -25.9351  -11.6607   20.5731 N   0  0  0  0  0  0
  -22.0457  -12.8172   22.0448 N   0  0  0  0  0  0
  -25.4076  -15.1971   20.4158 N   0  0  0  0  0  0
  -31.7391  -15.0318   20.1125 O   0  0  0  0  0  0
  -21.6635   -6.8910   21.4256 O   0  0  0  0  0  0
  -22.3471  -14.5498   20.6746 O   0  0  0  0  0  0
  -24.6481  -31.8414   23.1869 C   0  0  0  0  0  0
  -25.9240  -32.4686   23.8259 C   0  0  1  0  0  0
  -27.2195  -27.1034   20.1426 C   0  0  0  0  0  0
  -25.5979  -33.8489   24.2180 N   0  0  0  0  0  0
  -23.4529  -30.4600   21.5336 C   0  0  2  0  0  0
  -24.9039  -28.8826   20.1066 C   0  0  0  0  0  0
  -22.7570  -29.4535   22.4853 C   0  0  0  0  0  0
  -18.0299  -28.1368   22.8473 C   0  0  0  0  0  0
  -24.1488  -36.7258   23.2641 C   0  0  0  0  0  0
  -26.0113  -30.7009   21.3937 C   0  0  0  0  0  0
  -26.0818  -29.3106   20.7311 C   0  0  0  0  0  0
  -27.2390  -28.4368   20.7330 C   0  0  0  0  0  0
  -26.0167  -26.7913   19.4703 C   0  0  0  0  0  0
  -24.8867  -27.6385   19.4592 C   0  0  0  0  0  0
  -23.6805  -29.7876   20.1535 C   0  0  0  0  0  0
  -25.4125  -36.3030   24.0311 C   0  0  1  0  0  0
  -20.5911  -28.3717   23.1212 C   0  0  2  0  0  0
  -20.6794  -26.9412   22.5402 C   0  0  0  0  0  0
  -19.5781  -26.6360   21.5199 C   0  0  0  0  0  0
  -18.1951  -26.7911   22.1601 C   0  0  0  0  0  0
  -19.1556  -28.8860   23.2829 C   0  0  0  0  0  0
  -18.9478  -30.1445   23.8868 C   0  0  0  0  0  0
  -17.6480  -30.6582   24.0538 C   0  0  0  0  0  0
  -25.9075  -34.9404   23.5053 C   0  0  0  0  0  0
  -16.5367  -29.9075   23.6321 C   0  0  0  0  0  0
  -16.7281  -28.6477   23.0369 C   0  0  0  0  0  0
  -26.4539  -31.6568   25.0723 C   0  0  0  0  0  0
  -25.3699  -31.3771   26.1402 C   0  0  0  0  0  0
  -27.0412  -30.2959   24.6343 C   0  0  0  0  0  0
  -27.6058  -32.4356   25.7511 C   0  0  0  0  0  0
  -27.5575  -37.1784   24.8460 C   0  0  0  0  0  0
  -21.4261  -29.3048   22.3587 N   0  0  0  0  0  0
  -26.4290  -37.3744   23.9404 N   0  0  0  0  0  0
  -24.7238  -31.0221   22.0931 N   0  0  0  0  0  0
  -23.4183  -28.8094   23.3027 O   0  0  0  0  0  0
  -28.2585  -26.0917   20.2244 O   0  0  0  0  0  0
  -26.5646  -34.8905   22.4623 O   0  0  0  0  0  0
  -23.5591  -32.1312   23.7073 O   0  0  0  0  0  0
  -29.0537  -20.1238   18.0995 C   0  0  0  0  0  0
  -29.5206  -21.2232   17.3091 C   0  0  0  0  0  0
  -29.2083  -20.4209   19.4354 C   0  0  0  0  0  0
  -29.6687  -22.2708   18.1898 C   0  0  0  0  0  0
  -28.5094  -18.8073   17.5746 C   0  0  0  0  0  0
  -30.2324  -23.6449   17.9174 C   0  0  0  0  0  0
  -28.5047  -21.8789   15.1143 C   0  0  0  0  0  0
  -29.9767  -19.8649   15.1365 C   0  0  0  0  0  0
  -30.9943  -22.0794   15.3658 C   0  0  0  0  0  0
  -29.2425  -19.1438   20.4732 C   0  0  0  0  0  0
  -28.8301  -23.1387   20.4291 C   0  0  0  0  0  0
  -30.1232  -17.7021   20.1500 C   0  0  0  0  0  0
  -28.0000  -24.5643   19.9370 C   0  0  0  0  0  0
  -29.7492  -21.2573   15.7698 C   0  0  0  0  0  0
  -29.1528  -21.9281   19.4494 N   0  0  0  0  0  0
  -29.7806  -16.1911   20.5286 N   0  0  0  0  0  0
  -31.4714  -12.7620   19.1990 H   0  0  0  0  0  0
  -30.4264  -11.6618   20.0492 H   0  0  0  0  0  0
  -29.8481  -11.7345   17.5963 H   0  0  0  0  0  0
  -29.6139  -13.4624   17.6880 H   0  0  0  0  0  0
  -27.9500  -11.2823   18.9830 H   0  0  0  0  0  0
  -27.3962  -12.4536   17.8145 H   0  0  0  0  0  0
  -27.5854  -14.2582   19.4019 H   0  0  0  0  0  0
  -28.7597  -12.3300   21.4605 H   0  0  0  0  0  0
  -28.3637  -14.0089   21.7477 H   0  0  0  0  0  0
  -25.2807   -9.5655   22.4765 H   0  0  0  0  0  0
  -24.0020   -7.4624   22.7469 H   0  0  0  0  0  0
  -21.0879   -8.8812   19.8946 H   0  0  0  0  0  0
  -22.3774  -10.9690   19.6169 H   0  0  0  0  0  0
  -21.2001   -7.6163   23.9748 H   0  0  0  0  0  0
  -21.1476   -6.0524   25.9091 H   0  0  0  0  0  0
  -22.0596   -2.7634   23.2829 H   0  0  0  0  0  0
  -22.4083  -11.9825   22.4819 H   0  0  0  0  0  0
  -21.1080  -13.1193   22.2686 H   0  0  0  0  0  0
  -24.6327  -15.8414   20.5297 H   0  0  0  0  0  0
  -26.2426  -15.6423   20.0598 H   0  0  0  0  0  0
  -26.7303  -32.5283   23.0975 H   0  0  0  0  0  0
  -25.0103  -33.9594   25.0317 H   0  0  0  0  0  0
  -22.7593  -31.2886   21.3766 H   0  0  0  0  0  0
  -23.3764  -35.9570   23.3292 H   0  0  0  0  0  0
  -24.3558  -36.8919   22.2056 H   0  0  0  0  0  0
  -23.7241  -37.6447   23.6694 H   0  0  0  0  0  0
  -26.1683  -31.4541   20.6214 H   0  0  0  0  0  0
  -26.8815  -30.7535   22.0361 H   0  0  0  0  0  0
  -28.1345  -28.7559   21.2480 H   0  0  0  0  0  0
  -25.9086  -25.8433   18.9652 H   0  0  0  0  0  0
  -23.9907  -27.3099   18.9525 H   0  0  0  0  0  0
  -23.8177  -30.5632   19.3991 H   0  0  0  0  0  0
  -22.7947  -29.2309   19.8425 H   0  0  0  0  0  0
  -25.1309  -36.1854   25.0801 H   0  0  0  0  0  0
  -20.9982  -28.3326   24.1340 H   0  0  0  0  0  0
  -20.5689  -26.2315   23.3617 H   0  0  0  0  0  0
  -21.6659  -26.7425   22.1198 H   0  0  0  0  0  0
  -19.6952  -25.6259   21.1262 H   0  0  0  0  0  0
  -19.6744  -27.3134   20.6698 H   0  0  0  0  0  0
  -17.4220  -26.6639   21.4005 H   0  0  0  0  0  0
  -18.0368  -26.0036   22.8984 H   0  0  0  0  0  0
  -19.7957  -30.7237   24.2266 H   0  0  0  0  0  0
  -17.5045  -31.6271   24.5121 H   0  0  0  0  0  0
  -15.5373  -30.2975   23.7664 H   0  0  0  0  0  0
  -15.8667  -28.0777   22.7139 H   0  0  0  0  0  0
  -24.5882  -30.7117   25.7720 H   0  0  0  0  0  0
  -24.8872  -32.2947   26.4760 H   0  0  0  0  0  0
  -25.7951  -30.8982   27.0229 H   0  0  0  0  0  0
  -26.3031  -29.6677   24.1342 H   0  0  0  0  0  0
  -27.3988  -29.7278   25.4941 H   0  0  0  0  0  0
  -27.8953  -30.4189   23.9685 H   0  0  0  0  0  0
  -27.2647  -33.3691   26.1993 H   0  0  0  0  0  0
  -28.3908  -32.6872   25.0371 H   0  0  0  0  0  0
  -28.0667  -31.8548   26.5510 H   0  0  0  0  0  0
  -28.2574  -38.0094   24.7506 H   0  0  0  0  0  0
  -28.1096  -36.2626   24.6296 H   0  0  0  0  0  0
  -27.2279  -37.1429   25.8858 H   0  0  0  0  0  0
  -20.9473  -29.8751   21.6756 H   0  0  0  0  0  0
  -26.0163  -38.2810   24.1426 H   0  0  0  0  0  0
  -27.7557  -18.9949   16.8096 H   0  0  0  0  0  0
  -28.0033  -18.2313   18.3483 H   0  0  0  0  0  0
  -29.2939  -18.1817   17.1511 H   0  0  0  0  0  0
  -31.2514  -23.5680   17.5420 H   0  0  0  0  0  0
  -30.3397  -24.2733   18.7970 H   0  0  0  0  0  0
  -29.6335  -24.1869   17.1851 H   0  0  0  0  0  0
  -27.6098  -21.2972   15.3390 H   0  0  0  0  0  0
  -28.6003  -21.9270   14.0285 H   0  0  0  0  0  0
  -28.3303  -22.8927   15.4751 H   0  0  0  0  0  0
  -29.0754  -19.2582   15.1093 H   0  0  0  0  0  0
  -30.7631  -19.3111   15.6505 H   0  0  0  0  0  0
  -30.2755  -19.9452   14.0904 H   0  0  0  0  0  0
  -30.8422  -23.1516   15.4603 H   0  0  0  0  0  0
  -31.2566  -21.9341   14.3173 H   0  0  0  0  0  0
  -31.8666  -21.7917   15.9545 H   0  0  0  0  0  0
  -28.2059  -18.8528   20.6427 H   0  0  0  0  0  0
  -29.5707  -19.5154   21.4442 H   0  0  0  0  0  0
  -28.2837  -22.7136   21.2711 H   0  0  0  0  0  0
  -29.7833  -23.4471   20.8596 H   0  0  0  0  0  0
  -31.1386  -17.8793   20.5053 H   0  0  0  0  0  0
  -30.2632  -17.6464   19.0750 H   0  0  0  0  0  0
  -26.9894  -24.3911   20.3052 H   0  0  0  0  0  0
  -27.8777  -24.5004   18.8565 H   0  0  0  0  0  0
  -28.8134  -16.0380   20.7706 H   0  0  0  0  0  0
  1 25  1  0  0  0
  1 30  2  0  0  0
  1 86  1  0  0  0
  2  3  1  0  0  0
  2 25  1  0  0  0
  2 87  1  0  0  0
  2 88  1  0  0  0
  3  4  1  0  0  0
  3 89  1  0  0  0
  3 90  1  0  0  0
  4  5  1  0  0  0
  4 91  1  0  0  0
  4 92  1  0  0  0
  5  6  1  0  0  0
  5 26  1  0  0  0
  5 93  1  0  0  0
  6 25  1  0  0  0
  6 94  1  0  0  0
  6 95  1  0  0  0
  7  8  2  0  0  0
  7 26  1  0  0  0
  7 29  1  0  0  0
  8  9  1  0  0  0
  8 22  1  0  0  0
  9 10  1  0  0  0
  9 27  2  0  0  0
 10 11  2  0  0  0
 10 15  1  0  0  0
 11 12  1  0  0  0
 11 96  1  0  0  0
 12 13  2  0  0  0
 12 97  1  0  0  0
 13 14  1  0  0  0
 13 31  1  0  0  0
 14 15  2  0  0  0
 14 98  1  0  0  0
 15 99  1  0  0  0
 16 17  2  0  0  0
 16 21  1  0  0  0
 16 31  1  0  0  0
 17 18  1  0  0  0
 17100  1  0  0  0
 18 19  2  0  0  0
 18101  1  0  0  0
 19 20  1  0  0  0
 19 24  1  0  0  0
 20 21  2  0  0  0
 20102  1  0  0  0
 21 23  1  0  0  0
 22 28  1  0  0  0
 22 32  2  0  0  0
 26 27  1  0  0  0
 28103  1  0  0  0
 28104  1  0  0  0
 29105  1  0  0  0
 29106  1  0  0  0
 33 34  1  0  0  0
 33 66  1  0  0  0
 33 70  2  0  0  0
 34 36  1  0  0  0
 34 59  1  0  0  0
 34107  1  0  0  0
 35 44  2  0  0  0
 35 45  1  0  0  0
 35 68  1  0  0  0
 36 56  1  0  0  0
 36108  1  0  0  0
 37 39  1  0  0  0
 37 47  1  0  0  0
 37 66  1  0  0  0
 37109  1  0  0  0
 38 43  2  0  0  0
 38 46  1  0  0  0
 38 47  1  0  0  0
 39 64  1  0  0  0
 39 67  2  0  0  0
 40 52  1  0  0  0
 40 53  2  0  0  0
 40 58  1  0  0  0
 41110  1  0  0  0
 41111  1  0  0  0
 41112  1  0  0  0
 41 48  1  0  0  0
 42 43  1  0  0  0
 42 66  1  0  0  0
 42113  1  0  0  0
 42114  1  0  0  0
 43 44  1  0  0  0
 44115  1  0  0  0
 45 46  2  0  0  0
 45116  1  0  0  0
 46117  1  0  0  0
 47118  1  0  0  0
 47119  1  0  0  0
 48 56  1  0  0  0
 48 65  1  0  0  0
 48120  1  0  0  0
 49 50  1  0  0  0
 49 53  1  0  0  0
 49 64  1  0  0  0
 49121  1  0  0  0
 50 51  1  0  0  0
 50122  1  0  0  0
 50123  1  0  0  0
 51 52  1  0  0  0
 51124  1  0  0  0
 51125  1  0  0  0
 52126  1  0  0  0
 52127  1  0  0  0
 53 54  1  0  0  0
 54 55  2  0  0  0
 54128  1  0  0  0
 55 57  1  0  0  0
 55129  1  0  0  0
 56 69  2  0  0  0
 57 58  2  0  0  0
 57130  1  0  0  0
 58131  1  0  0  0
 59 60  1  0  0  0
 59 61  1  0  0  0
 59 62  1  0  0  0
 60132  1  0  0  0
 60133  1  0  0  0
 60134  1  0  0  0
 61135  1  0  0  0
 61136  1  0  0  0
 61137  1  0  0  0
 62138  1  0  0  0
 62139  1  0  0  0
 62140  1  0  0  0
 63 65  1  0  0  0
 63141  1  0  0  0
 63142  1  0  0  0
 63143  1  0  0  0
 64144  1  0  0  0
 65145  1  0  0  0
 68 83  1  0  0  0
 71 72  1  0  0  0
 71 73  2  0  0  0
 71 75  1  0  0  0
 72 74  2  0  0  0
 72 84  1  0  0  0
 73 80  1  0  0  0
 73 85  1  0  0  0
 74 76  1  0  0  0
 74 85  1  0  0  0
 75146  1  0  0  0
 75147  1  0  0  0
 75148  1  0  0  0
 76149  1  0  0  0
 76150  1  0  0  0
 76151  1  0  0  0
 77152  1  0  0  0
 77153  1  0  0  0
 77154  1  0  0  0
 77 84  1  0  0  0
 78 84  1  0  0  0
 78155  1  0  0  0
 78156  1  0  0  0
 78157  1  0  0  0
 79 84  1  0  0  0
 79158  1  0  0  0
 79159  1  0  0  0
 79160  1  0  0  0
 80 82  1  0  0  0
 80161  1  0  0  0
 80162  1  0  0  0
 81 83  1  0  0  0
 81 85  1  0  0  0
 81163  1  0  0  0
 81164  1  0  0  0
 82 86  1  0  0  0
 82165  1  0  0  0
 82166  1  0  0  0
 83167  1  0  0  0
 83168  1  0  0  0
 86169  1  0  0  0
M  ISO  4   1 100  68 101  83 101  86 100
M  END
> <chiral flag>
0

> <version>
0

> <s_m_source_file>
/data/baiqing/PycharmProjects/Reinvent-master-3.2/result/LINK_invent/BTK/process_docking_weight1_custom_sum_contain_oxygen_bond_distance_aromatic_linkinvent_7_9_3/rearranged_h_0088.sdf

> <i_m_source_file_index>
86

> <r_mmod_Potential_Energy-OPLS-2005>
669.481018066406

> <r_mmod_Stretch_Energy-OPLS-2005>
332.070037841797

> <r_mmod_Bend_Energy-OPLS-2005>
337.660980224609

> <r_mmod_Torsional_Energy-OPLS-2005>
295.384338378906

> <r_mmod_Improper_Torsional_Energy-OPLS-2005>
6.40041303634644

> <r_mmod_Van_der_Waal_Energy-OPLS-2005>
139.04182434082

> <r_mmod_Electrostatic_Energy-OPLS-2005>
-448.022827148438

> <r_mmod_Solvation_Energy-OPLS-2005>
-213.882934570312

> <b_mmod_Minimization_Converged-OPLS-2005>
0

> <r_mmod_RMS_Derivative-OPLS-2005>
1.82013523578644

$$$$
88
                    3D
 Structure written by MMmdl.
171180  0  0  1  0            999 V2000
  -30.6180  -14.7388   20.4549 C   0  0  0  0  0  0
  -30.4326  -12.4538   19.4639 C   0  0  0  0  0  0
  -29.5010  -12.4962   18.2330 C   0  0  0  0  0  0
  -28.0325  -12.3122   18.6587 C   0  0  0  0  0  0
  -27.6388  -13.2277   19.8472 C   0  0  2  0  0  0
  -28.6864  -13.1739   20.9800 C   0  0  0  0  0  0
  -25.2507  -13.8202   20.5709 C   0  0  0  0  0  0
  -24.1792  -13.0449   20.9213 C   0  0  0  0  0  0
  -24.6382  -11.6929   20.8762 C   0  0  0  0  0  0
  -23.9066  -10.4302   21.0414 C   0  0  0  0  0  0
  -24.3617   -9.4216   21.9187 C   0  0  0  0  0  0
  -23.6296   -8.2246   22.0753 C   0  0  0  0  0  0
  -22.4279   -8.0281   21.3547 C   0  0  0  0  0  0
  -21.9916   -9.0253   20.4646 C   0  0  0  0  0  0
  -22.7240  -10.2136   20.3061 C   0  0  0  0  0  0
  -21.6856   -6.0734   22.5277 C   0  0  0  0  0  0
  -21.4017   -6.5645   23.8208 C   0  0  0  0  0  0
  -21.3657   -5.6798   24.9173 C   0  0  0  0  0  0
  -21.6044   -4.3058   24.7232 C   0  0  0  0  0  0
  -21.8820   -3.8148   23.4354 C   0  0  0  0  0  0
  -21.9197   -4.6960   22.3405 C   0  0  0  0  0  0
  -22.7819  -13.5231   21.1882 C   0  0  0  0  0  0
  -22.1666   -4.2145   21.0980 F   0  0  0  0  0  0
  -21.5624   -3.4541   25.7747 F   0  0  0  0  0  0
  -29.9867  -13.5185   20.3903 N   0  0  0  0  0  0
  -26.2924  -12.9399   20.3298 N   0  0  0  0  0  0
  -25.9312  -11.6549   20.5783 N   0  0  0  0  0  0
  -22.0482  -12.8199   22.0435 N   0  0  0  0  0  0
  -25.4200  -15.1917   20.4092 N   0  0  0  0  0  0
  -31.8146  -14.8295   20.1709 O   0  0  0  0  0  0
  -21.6648   -6.8874   21.4238 O   0  0  0  0  0  0
  -22.3499  -14.5537   20.6738 O   0  0  0  0  0  0
  -24.6328  -31.8526   23.1962 C   0  0  0  0  0  0
  -25.9154  -32.4723   23.8313 C   0  0  1  0  0  0
  -27.2116  -27.2552   20.1183 C   0  0  0  0  0  0
  -25.5930  -33.8518   24.2237 N   0  0  0  0  0  0
  -23.4286  -30.4785   21.5423 C   0  0  2  0  0  0
  -24.8724  -28.9273   20.1061 C   0  0  0  0  0  0
  -22.7510  -29.4593   22.4902 C   0  0  0  0  0  0
  -18.0299  -28.1354   22.8466 C   0  0  0  0  0  0
  -24.1498  -36.7295   23.2634 C   0  0  0  0  0  0
  -25.9760  -30.7637   21.3768 C   0  0  0  0  0  0
  -26.0449  -29.3865   20.7176 C   0  0  0  0  0  0
  -27.2184  -28.5629   20.7135 C   0  0  0  0  0  0
  -26.0177  -26.8738   19.4651 C   0  0  0  0  0  0
  -24.8636  -27.6782   19.4700 C   0  0  0  0  0  0
  -23.6439  -29.8135   20.1579 C   0  0  0  0  0  0
  -25.4114  -36.3037   24.0306 C   0  0  1  0  0  0
  -20.5910  -28.3671   23.1238 C   0  0  2  0  0  0
  -20.6776  -26.9380   22.5393 C   0  0  0  0  0  0
  -19.5754  -26.6353   21.5195 C   0  0  0  0  0  0
  -18.1938  -26.7898   22.1612 C   0  0  0  0  0  0
  -19.1555  -28.8826   23.2843 C   0  0  0  0  0  0
  -18.9473  -30.1435   23.8844 C   0  0  0  0  0  0
  -17.6468  -30.6554   24.0553 C   0  0  0  0  0  0
  -25.9051  -34.9408   23.5071 C   0  0  0  0  0  0
  -16.5359  -29.9055   23.6315 C   0  0  0  0  0  0
  -16.7288  -28.6481   23.0318 C   0  0  0  0  0  0
  -26.4516  -31.6531   25.0700 C   0  0  0  0  0  0
  -25.3728  -31.3661   26.1417 C   0  0  0  0  0  0
  -27.0380  -30.2934   24.6196 C   0  0  0  0  0  0
  -27.6065  -32.4284   25.7466 C   0  0  0  0  0  0
  -27.5583  -37.1771   24.8439 C   0  0  0  0  0  0
  -21.4221  -29.3025   22.3632 N   0  0  0  0  0  0
  -26.4276  -37.3747   23.9405 N   0  0  0  0  0  0
  -24.6984  -31.0501   22.0940 N   0  0  0  0  0  0
  -23.4210  -28.8117   23.2993 O   0  0  0  0  0  0
  -28.2978  -26.3501   20.1938 O   0  0  0  0  0  0
  -26.5642  -34.8893   22.4660 O   0  0  0  0  0  0
  -23.5476  -32.1365   23.7254 O   0  0  0  0  0  0
  -27.3880  -21.5014   21.7151 C   0  0  0  0  0  0
  -26.6086  -20.6258   22.4886 C   0  0  0  0  0  0
  -28.4156  -21.0304   20.8636 C   0  0  0  0  0  0
  -26.8619  -19.2536   22.3875 C   0  0  0  0  0  0
  -28.6313  -19.5628   20.8630 C   0  0  0  0  0  0
  -25.4931  -21.1620   23.3734 C   0  0  0  0  0  0
  -26.0045  -18.2160   23.0942 C   0  0  0  0  0  0
  -24.0943  -20.7565   22.8760 C   0  0  0  0  0  0
  -24.5472  -18.2214   22.6026 C   0  0  0  0  0  0
  -23.6885  -19.3200   23.2480 C   0  0  0  0  0  0
  -30.5796  -19.3423   19.1676 C   0  0  0  0  0  0
  -29.0868  -22.1902   20.0111 C   0  0  0  0  0  0
  -29.0787  -23.7529   20.5037 C   0  0  0  0  0  0
  -30.2837  -17.3394   20.7994 C   0  0  0  0  0  0
  -28.0800  -24.8820   19.9202 C   0  0  0  0  0  0
  -29.5540  -18.5798   20.0180 C   0  0  1  0  0  0
  -27.8279  -18.7642   21.5987 N   0  0  0  0  0  0
  -29.8497  -15.8765   20.6422 N   0  0  0  0  0  0
  -31.4699  -12.5869   19.1512 H   0  0  0  0  0  0
  -30.3903  -11.4806   19.9555 H   0  0  0  0  0  0
  -29.7833  -11.7218   17.5181 H   0  0  0  0  0  0
  -29.6151  -13.4503   17.7174 H   0  0  0  0  0  0
  -27.9036  -11.2668   18.9433 H   0  0  0  0  0  0
  -27.3657  -12.4797   17.8123 H   0  0  0  0  0  0
  -27.6298  -14.2437   19.4522 H   0  0  0  0  0  0
  -28.7223  -12.1838   21.4362 H   0  0  0  0  0  0
  -28.4238  -13.8697   21.7790 H   0  0  0  0  0  0
  -25.2755   -9.5697   22.4767 H   0  0  0  0  0  0
  -24.0008   -7.4641   22.7476 H   0  0  0  0  0  0
  -21.0848   -8.8767   19.8953 H   0  0  0  0  0  0
  -22.3691  -10.9674   19.6172 H   0  0  0  0  0  0
  -21.2011   -7.6155   23.9710 H   0  0  0  0  0  0
  -21.1475   -6.0532   25.9075 H   0  0  0  0  0  0
  -22.0601   -2.7612   23.2859 H   0  0  0  0  0  0
  -22.4111  -11.9835   22.4770 H   0  0  0  0  0  0
  -21.1104  -13.1205   22.2675 H   0  0  0  0  0  0
  -24.6483  -15.8414   20.5060 H   0  0  0  0  0  0
  -26.2686  -15.6343   20.0813 H   0  0  0  0  0  0
  -26.7229  -32.5365   23.1058 H   0  0  0  0  0  0
  -25.0025  -33.9643   25.0345 H   0  0  0  0  0  0
  -22.7251  -31.3014   21.3954 H   0  0  0  0  0  0
  -23.3730  -35.9653   23.3253 H   0  0  0  0  0  0
  -24.3603  -36.8990   22.2064 H   0  0  0  0  0  0
  -23.7300  -37.6495   23.6706 H   0  0  0  0  0  0
  -26.1187  -31.5215   20.6061 H   0  0  0  0  0  0
  -26.8538  -30.8129   22.0091 H   0  0  0  0  0  0
  -28.1172  -28.9050   21.2066 H   0  0  0  0  0  0
  -25.9411  -25.9261   18.9527 H   0  0  0  0  0  0
  -23.9675  -27.3218   18.9814 H   0  0  0  0  0  0
  -23.7653  -30.5891   19.4006 H   0  0  0  0  0  0
  -22.7600  -29.2480   19.8575 H   0  0  0  0  0  0
  -25.1298  -36.1865   25.0793 H   0  0  0  0  0  0
  -21.0014  -28.3264   24.1352 H   0  0  0  0  0  0
  -20.5655  -26.2293   23.3610 H   0  0  0  0  0  0
  -21.6652  -26.7377   22.1198 H   0  0  0  0  0  0
  -19.6921  -25.6269   21.1210 H   0  0  0  0  0  0
  -19.6684  -27.3161   20.6719 H   0  0  0  0  0  0
  -17.4213  -26.6620   21.4009 H   0  0  0  0  0  0
  -18.0337  -26.0030   22.8992 H   0  0  0  0  0  0
  -19.7957  -30.7256   24.2178 H   0  0  0  0  0  0
  -17.5029  -31.6227   24.5178 H   0  0  0  0  0  0
  -15.5354  -30.2934   23.7660 H   0  0  0  0  0  0
  -15.8697  -28.0802   22.7007 H   0  0  0  0  0  0
  -24.5933  -30.6975   25.7750 H   0  0  0  0  0  0
  -24.8872  -32.2813   26.4800 H   0  0  0  0  0  0
  -25.8041  -30.8877   27.0222 H   0  0  0  0  0  0
  -26.2980  -29.6635   24.1246 H   0  0  0  0  0  0
  -27.4099  -29.7227   25.4721 H   0  0  0  0  0  0
  -27.8832  -30.4196   23.9431 H   0  0  0  0  0  0
  -27.2679  -33.3618   26.1987 H   0  0  0  0  0  0
  -28.3898  -32.6796   25.0297 H   0  0  0  0  0  0
  -28.0714  -31.8444   26.5436 H   0  0  0  0  0  0
  -28.2511  -38.0148   24.7575 H   0  0  0  0  0  0
  -28.1171  -36.2675   24.6152 H   0  0  0  0  0  0
  -27.2310  -37.1310   25.8841 H   0  0  0  0  0  0
  -20.9397  -29.8808   21.6894 H   0  0  0  0  0  0
  -26.0130  -38.2796   24.1456 H   0  0  0  0  0  0
  -27.1537  -22.5552   21.7555 H   0  0  0  0  0  0
  -25.5569  -22.2499   23.4111 H   0  0  0  0  0  0
  -25.6469  -20.8235   24.3993 H   0  0  0  0  0  0
  -26.0566  -18.3613   24.1736 H   0  0  0  0  0  0
  -26.4262  -17.2267   22.9101 H   0  0  0  0  0  0
  -24.0089  -20.9161   21.8003 H   0  0  0  0  0  0
  -23.3664  -21.4291   23.3331 H   0  0  0  0  0  0
  -24.1010  -17.2600   22.8592 H   0  0  0  0  0  0
  -24.5114  -18.2869   21.5136 H   0  0  0  0  0  0
  -22.6500  -19.1678   22.9526 H   0  0  0  0  0  0
  -23.7050  -19.2049   24.3325 H   0  0  0  0  0  0
  -30.0844  -20.0311   18.4836 H   0  0  0  0  0  0
  -31.1696  -18.6608   18.5548 H   0  0  0  0  0  0
  -31.2704  -19.9099   19.7913 H   0  0  0  0  0  0
  -28.6911  -22.1413   18.9959 H   0  0  0  0  0  0
  -30.1357  -21.9152   19.9246 H   0  0  0  0  0  0
  -30.0672  -24.1299   20.2394 H   0  0  0  0  0  0
  -29.0829  -23.7930   21.5937 H   0  0  0  0  0  0
  -30.2780  -17.5642   21.8667 H   0  0  0  0  0  0
  -31.3442  -17.3681   20.5435 H   0  0  0  0  0  0
  -27.0870  -24.5981   20.2683 H   0  0  0  0  0  0
  -28.0593  -24.7720   18.8353 H   0  0  0  0  0  0
  -28.8780  -18.1200   19.2960 H   0  0  0  0  0  0
  -28.8682  -15.7045   20.7996 H   0  0  0  0  0  0
  1 25  1  0  0  0
  1 30  2  0  0  0
  1 88  1  0  0  0
  2  3  1  0  0  0
  2 25  1  0  0  0
  2 89  1  0  0  0
  2 90  1  0  0  0
  3  4  1  0  0  0
  3 91  1  0  0  0
  3 92  1  0  0  0
  4  5  1  0  0  0
  4 93  1  0  0  0
  4 94  1  0  0  0
  5  6  1  0  0  0
  5 26  1  0  0  0
  5 95  1  0  0  0
  6 25  1  0  0  0
  6 96  1  0  0  0
  6 97  1  0  0  0
  7  8  2  0  0  0
  7 26  1  0  0  0
  7 29  1  0  0  0
  8  9  1  0  0  0
  8 22  1  0  0  0
  9 10  1  0  0  0
  9 27  2  0  0  0
 10 11  2  0  0  0
 10 15  1  0  0  0
 11 12  1  0  0  0
 11 98  1  0  0  0
 12 13  2  0  0  0
 12 99  1  0  0  0
 13 14  1  0  0  0
 13 31  1  0  0  0
 14 15  2  0  0  0
 14100  1  0  0  0
 15101  1  0  0  0
 16 17  2  0  0  0
 16 21  1  0  0  0
 16 31  1  0  0  0
 17 18  1  0  0  0
 17102  1  0  0  0
 18 19  2  0  0  0
 18103  1  0  0  0
 19 20  1  0  0  0
 19 24  1  0  0  0
 20 21  2  0  0  0
 20104  1  0  0  0
 21 23  1  0  0  0
 22 28  1  0  0  0
 22 32  2  0  0  0
 26 27  1  0  0  0
 28105  1  0  0  0
 28106  1  0  0  0
 29107  1  0  0  0
 29108  1  0  0  0
 33 34  1  0  0  0
 33 66  1  0  0  0
 33 70  2  0  0  0
 34 36  1  0  0  0
 34 59  1  0  0  0
 34109  1  0  0  0
 35 44  2  0  0  0
 35 45  1  0  0  0
 35 68  1  0  0  0
 36 56  1  0  0  0
 36110  1  0  0  0
 37 39  1  0  0  0
 37 47  1  0  0  0
 37 66  1  0  0  0
 37111  1  0  0  0
 38 43  2  0  0  0
 38 46  1  0  0  0
 38 47  1  0  0  0
 39 64  1  0  0  0
 39 67  2  0  0  0
 40 52  1  0  0  0
 40 53  2  0  0  0
 40 58  1  0  0  0
 41112  1  0  0  0
 41113  1  0  0  0
 41114  1  0  0  0
 41 48  1  0  0  0
 42 43  1  0  0  0
 42 66  1  0  0  0
 42115  1  0  0  0
 42116  1  0  0  0
 43 44  1  0  0  0
 44117  1  0  0  0
 45 46  2  0  0  0
 45118  1  0  0  0
 46119  1  0  0  0
 47120  1  0  0  0
 47121  1  0  0  0
 48 56  1  0  0  0
 48 65  1  0  0  0
 48122  1  0  0  0
 49 50  1  0  0  0
 49 53  1  0  0  0
 49 64  1  0  0  0
 49123  1  0  0  0
 50 51  1  0  0  0
 50124  1  0  0  0
 50125  1  0  0  0
 51 52  1  0  0  0
 51126  1  0  0  0
 51127  1  0  0  0
 52128  1  0  0  0
 52129  1  0  0  0
 53 54  1  0  0  0
 54 55  2  0  0  0
 54130  1  0  0  0
 55 57  1  0  0  0
 55131  1  0  0  0
 56 69  2  0  0  0
 57 58  2  0  0  0
 57132  1  0  0  0
 58133  1  0  0  0
 59 60  1  0  0  0
 59 61  1  0  0  0
 59 62  1  0  0  0
 60134  1  0  0  0
 60135  1  0  0  0
 60136  1  0  0  0
 61137  1  0  0  0
 61138  1  0  0  0
 61139  1  0  0  0
 62140  1  0  0  0
 62141  1  0  0  0
 62142  1  0  0  0
 63 65  1  0  0  0
 63143  1  0  0  0
 63144  1  0  0  0
 63145  1  0  0  0
 64146  1  0  0  0
 65147  1  0  0  0
 68 85  1  0  0  0
 71 72  2  0  0  0
 71 73  1  0  0  0
 71148  1  0  0  0
 72 74  1  0  0  0
 72 76  1  0  0  0
 73 75  2  0  0  0
 73 82  1  0  0  0
 74 77  1  0  0  0
 74 87  2  0  0  0
 75 86  1  0  0  0
 75 87  1  0  0  0
 76 78  1  0  0  0
 76149  1  0  0  0
 76150  1  0  0  0
 77 79  1  0  0  0
 77151  1  0  0  0
 77152  1  0  0  0
 78 80  1  0  0  0
 78153  1  0  0  0
 78154  1  0  0  0
 79 80  1  0  0  0
 79155  1  0  0  0
 79156  1  0  0  0
 80157  1  0  0  0
 80158  1  0  0  0
 81159  1  0  0  0
 81160  1  0  0  0
 81161  1  0  0  0
 81 86  1  0  0  0
 82 83  1  0  0  0
 82162  1  0  0  0
 82163  1  0  0  0
 83 85  1  0  0  0
 83164  1  0  0  0
 83165  1  0  0  0
 84 86  1  0  0  0
 84 88  1  0  0  0
 84166  1  0  0  0
 84167  1  0  0  0
 85168  1  0  0  0
 85169  1  0  0  0
 86170  1  0  0  0
 88171  1  0  0  0
M  ISO  4   1 100  68 101  85 101  88 100
M  END
> <chiral flag>
0

> <version>
0

> <s_m_source_file>
/data/baiqing/PycharmProjects/Reinvent-master-3.2/result/LINK_invent/BTK/process_docking_weight1_custom_sum_contain_oxygen_bond_distance_aromatic_linkinvent_7_9_3/rearranged_h_0088.sdf

> <i_m_source_file_index>
87

> <r_mmod_Potential_Energy-OPLS-2005>
103.654441833496

> <r_mmod_Stretch_Energy-OPLS-2005>
138.247329711914

> <r_mmod_Bend_Energy-OPLS-2005>
217.817260742188

> <r_mmod_Torsional_Energy-OPLS-2005>
245.150588989258

> <r_mmod_Improper_Torsional_Energy-OPLS-2005>
5.15221881866455

> <r_mmod_Van_der_Waal_Energy-OPLS-2005>
140.419067382812

> <r_mmod_Electrostatic_Energy-OPLS-2005>
-521.75927734375

> <r_mmod_Solvation_Energy-OPLS-2005>
-210.395690917969

> <b_mmod_Minimization_Converged-OPLS-2005>
0

> <r_mmod_RMS_Derivative-OPLS-2005>
2.38351154327393

$$$$
89
                    3D
 Structure written by MMmdl.
165173  0  0  1  0            999 V2000
  -30.7240  -14.4732   20.5569 C   0  0  0  0  0  0
  -30.4131  -12.3049   19.4350 C   0  0  0  0  0  0
  -29.4970  -12.5039   18.2121 C   0  0  0  0  0  0
  -28.0171  -12.3673   18.6194 C   0  0  0  0  0  0
  -27.6590  -13.2147   19.8713 C   0  0  2  0  0  0
  -28.6999  -13.0256   20.9990 C   0  0  0  0  0  0
  -25.2570  -13.8178   20.5679 C   0  0  0  0  0  0
  -24.1834  -13.0450   20.9183 C   0  0  0  0  0  0
  -24.6392  -11.6920   20.8731 C   0  0  0  0  0  0
  -23.9052  -10.4304   21.0394 C   0  0  0  0  0  0
  -24.3608   -9.4226   21.9172 C   0  0  0  0  0  0
  -23.6298   -8.2253   22.0744 C   0  0  0  0  0  0
  -22.4278   -8.0281   21.3535 C   0  0  0  0  0  0
  -21.9906   -9.0250   20.4639 C   0  0  0  0  0  0
  -22.7221  -10.2138   20.3049 C   0  0  0  0  0  0
  -21.6857   -6.0738   22.5279 C   0  0  0  0  0  0
  -21.4014   -6.5633   23.8213 C   0  0  0  0  0  0
  -21.3662   -5.6787   24.9176 C   0  0  0  0  0  0
  -21.6049   -4.3049   24.7221 C   0  0  0  0  0  0
  -21.8820   -3.8144   23.4340 C   0  0  0  0  0  0
  -21.9195   -4.6966   22.3398 C   0  0  0  0  0  0
  -22.7855  -13.5250   21.1834 C   0  0  0  0  0  0
  -22.1662   -4.2153   21.0974 F   0  0  0  0  0  0
  -21.5631   -3.4524   25.7731 F   0  0  0  0  0  0
  -30.0313  -13.3077   20.4423 N   0  0  0  0  0  0
  -26.3009  -12.9361   20.3347 N   0  0  0  0  0  0
  -25.9320  -11.6514   20.5759 N   0  0  0  0  0  0
  -22.0486  -12.8257   22.0399 N   0  0  0  0  0  0
  -25.4268  -15.1897   20.4067 N   0  0  0  0  0  0
  -31.8578  -14.6174   20.0936 O   0  0  0  0  0  0
  -21.6645   -6.8875   21.4238 O   0  0  0  0  0  0
  -22.3542  -14.5546   20.6667 O   0  0  0  0  0  0
  -24.6169  -31.8685   23.2113 C   0  0  0  0  0  0
  -25.9058  -32.4821   23.8401 C   0  0  1  0  0  0
  -27.2238  -27.4130   20.0875 C   0  0  0  0  0  0
  -25.5916  -33.8623   24.2328 N   0  0  0  0  0  0
  -23.4038  -30.4959   21.5529 C   0  0  2  0  0  0
  -24.8459  -28.9656   20.1126 C   0  0  0  0  0  0
  -22.7414  -29.4672   22.4979 C   0  0  0  0  0  0
  -18.0277  -28.1373   22.8495 C   0  0  0  0  0  0
  -24.1488  -36.7317   23.2635 C   0  0  0  0  0  0
  -25.9370  -30.8250   21.3698 C   0  0  0  0  0  0
  -26.0097  -29.4600   20.7134 C   0  0  0  0  0  0
  -27.1992  -28.6905   20.7016 C   0  0  0  0  0  0
  -26.0377  -26.9523   19.4639 C   0  0  0  0  0  0
  -24.8559  -27.7108   19.4861 C   0  0  0  0  0  0
  -23.6103  -29.8343   20.1659 C   0  0  0  0  0  0
  -25.4107  -36.3111   24.0335 C   0  0  1  0  0  0
  -20.5870  -28.3666   23.1307 C   0  0  2  0  0  0
  -20.6767  -26.9400   22.5412 C   0  0  0  0  0  0
  -19.5743  -26.6381   21.5212 C   0  0  0  0  0  0
  -18.1922  -26.7923   22.1626 C   0  0  0  0  0  0
  -19.1528  -28.8836   23.2900 C   0  0  0  0  0  0
  -18.9453  -30.1442   23.8908 C   0  0  0  0  0  0
  -17.6456  -30.6582   24.0564 C   0  0  0  0  0  0
  -25.9037  -34.9475   23.5125 C   0  0  0  0  0  0
  -16.5348  -29.9084   23.6325 C   0  0  0  0  0  0
  -16.7264  -28.6501   23.0351 C   0  0  0  0  0  0
  -26.4474  -31.6607   25.0737 C   0  0  0  0  0  0
  -25.3737  -31.3730   26.1486 C   0  0  0  0  0  0
  -27.0303  -30.3044   24.6130 C   0  0  0  0  0  0
  -27.6041  -32.4334   25.7505 C   0  0  0  0  0  0
  -27.5582  -37.1813   24.8461 C   0  0  0  0  0  0
  -21.4143  -29.3040   22.3717 N   0  0  0  0  0  0
  -26.4294  -37.3794   23.9406 N   0  0  0  0  0  0
  -24.6709  -31.0774   22.1023 N   0  0  0  0  0  0
  -23.4181  -28.8198   23.3014 O   0  0  0  0  0  0
  -28.3828  -26.6499   20.1217 O   0  0  0  0  0  0
  -26.5591  -34.8929   22.4682 O   0  0  0  0  0  0
  -23.5357  -32.1444   23.7501 O   0  0  0  0  0  0
  -31.6336  -19.6621   21.4599 C   0  0  0  0  0  0
  -32.2752  -20.8754   21.1614 C   0  0  0  0  0  0
  -29.5607  -20.5605   20.5884 C   0  0  0  0  0  0
  -30.2736  -19.4547   21.1369 C   0  0  0  0  0  0
  -31.5788  -21.9355   20.5499 C   0  0  0  0  0  0
  -30.1874  -21.8068   20.3000 C   0  0  0  0  0  0
  -32.3754  -23.1671   20.1560 C   0  0  0  0  0  0
  -28.2730  -17.9077   20.6684 C   0  0  0  0  0  0
  -29.3786  -17.9138   22.9117 C   0  0  0  0  0  0
  -29.3519  -22.9245   19.6424 C   0  0  0  0  0  0
  -29.4244  -24.3617   20.2450 C   0  0  0  0  0  0
  -30.5760  -16.9123   20.9242 C   0  0  0  0  0  0
  -28.2713  -25.2608   19.7452 C   0  0  0  0  0  0
  -29.6266  -18.0623   21.4000 C   0  0  0  0  0  0
  -30.0566  -15.5351   21.0440 N   0  0  0  0  0  0
  -31.4604  -12.3809   19.1377 H   0  0  0  0  0  0
  -30.2947  -11.2995   19.8421 H   0  0  0  0  0  0
  -29.7419  -11.7784   17.4352 H   0  0  0  0  0  0
  -29.6706  -13.4897   17.7774 H   0  0  0  0  0  0
  -27.8272  -11.3118   18.8174 H   0  0  0  0  0  0
  -27.3705  -12.6389   17.7841 H   0  0  0  0  0  0
  -27.6946  -14.2598   19.5623 H   0  0  0  0  0  0
  -28.6721  -12.0031   21.3791 H   0  0  0  0  0  0
  -28.4667  -13.6628   21.8530 H   0  0  0  0  0  0
  -25.2757   -9.5711   22.4742 H   0  0  0  0  0  0
  -24.0010   -7.4652   22.7466 H   0  0  0  0  0  0
  -21.0836   -8.8769   19.8948 H   0  0  0  0  0  0
  -22.3677  -10.9673   19.6156 H   0  0  0  0  0  0
  -21.2001   -7.6145   23.9716 H   0  0  0  0  0  0
  -21.1482   -6.0514   25.9078 H   0  0  0  0  0  0
  -22.0597   -2.7608   23.2838 H   0  0  0  0  0  0
  -22.4078  -11.9933   22.4837 H   0  0  0  0  0  0
  -21.1093  -13.1285   22.2545 H   0  0  0  0  0  0
  -24.6560  -15.8419   20.5046 H   0  0  0  0  0  0
  -26.2738  -15.6261   20.0665 H   0  0  0  0  0  0
  -26.7124  -32.5520   23.1156 H   0  0  0  0  0  0
  -25.0089  -33.9783   25.0489 H   0  0  0  0  0  0
  -22.6932  -31.3141   21.4175 H   0  0  0  0  0  0
  -23.3748  -35.9653   23.3301 H   0  0  0  0  0  0
  -24.3579  -36.8930   22.2049 H   0  0  0  0  0  0
  -23.7242  -37.6525   23.6645 H   0  0  0  0  0  0
  -26.0567  -31.5907   20.6022 H   0  0  0  0  0  0
  -26.8228  -30.8729   21.9911 H   0  0  0  0  0  0
  -28.0943  -29.0659   21.1779 H   0  0  0  0  0  0
  -25.9925  -26.0050   18.9476 H   0  0  0  0  0  0
  -23.9628  -27.3278   19.0111 H   0  0  0  0  0  0
  -23.7175  -30.6113   19.4084 H   0  0  0  0  0  0
  -22.7325  -29.2565   19.8703 H   0  0  0  0  0  0
  -25.1284  -36.1978   25.0830 H   0  0  0  0  0  0
  -20.9969  -28.3233   24.1424 H   0  0  0  0  0  0
  -20.5675  -26.2272   23.3600 H   0  0  0  0  0  0
  -21.6634  -26.7442   22.1199 H   0  0  0  0  0  0
  -19.6903  -25.6295   21.1232 H   0  0  0  0  0  0
  -19.6683  -27.3197   20.6747 H   0  0  0  0  0  0
  -17.4194  -26.6675   21.4025 H   0  0  0  0  0  0
  -18.0322  -26.0057   22.9013 H   0  0  0  0  0  0
  -19.7932  -30.7255   24.2275 H   0  0  0  0  0  0
  -17.5015  -31.6264   24.5164 H   0  0  0  0  0  0
  -15.5349  -30.2992   23.7641 H   0  0  0  0  0  0
  -15.8665  -28.0823   22.7057 H   0  0  0  0  0  0
  -24.5894  -30.7092   25.7830 H   0  0  0  0  0  0
  -24.8948  -32.2898   26.4938 H   0  0  0  0  0  0
  -25.8087  -30.8895   27.0242 H   0  0  0  0  0  0
  -26.2856  -29.6817   24.1158 H   0  0  0  0  0  0
  -27.4036  -29.7269   25.4597 H   0  0  0  0  0  0
  -27.8710  -30.4353   23.9311 H   0  0  0  0  0  0
  -27.2644  -33.3620   26.2106 H   0  0  0  0  0  0
  -28.3841  -32.6925   25.0334 H   0  0  0  0  0  0
  -28.0719  -31.8451   26.5408 H   0  0  0  0  0  0
  -28.2599  -38.0111   24.7513 H   0  0  0  0  0  0
  -28.1081  -36.2644   24.6280 H   0  0  0  0  0  0
  -27.2300  -37.1458   25.8864 H   0  0  0  0  0  0
  -20.9294  -29.8776   21.6959 H   0  0  0  0  0  0
  -26.0187  -38.2876   24.1404 H   0  0  0  0  0  0
  -32.2214  -18.8853   21.9256 H   0  0  0  0  0  0
  -33.3284  -20.9779   21.3852 H   0  0  0  0  0  0
  -28.5123  -20.4590   20.3525 H   0  0  0  0  0  0
  -33.4394  -22.9379   20.0831 H   0  0  0  0  0  0
  -32.2606  -23.9565   20.8990 H   0  0  0  0  0  0
  -32.0663  -23.5409   19.1796 H   0  0  0  0  0  0
  -27.5337  -18.6293   21.0157 H   0  0  0  0  0  0
  -27.8304  -16.9270   20.8355 H   0  0  0  0  0  0
  -28.3880  -18.0315   19.5914 H   0  0  0  0  0  0
  -28.7322  -18.7074   23.2868 H   0  0  0  0  0  0
  -30.3119  -17.9646   23.4724 H   0  0  0  0  0  0
  -28.9044  -16.9631   23.1547 H   0  0  0  0  0  0
  -28.3077  -22.6092   19.6623 H   0  0  0  0  0  0
  -29.6173  -22.9645   18.5851 H   0  0  0  0  0  0
  -30.3642  -24.8455   19.9903 H   0  0  0  0  0  0
  -29.3797  -24.3091   21.3334 H   0  0  0  0  0  0
  -31.5147  -16.9340   21.4769 H   0  0  0  0  0  0
  -30.8371  -17.0896   19.8785 H   0  0  0  0  0  0
  -27.3557  -24.8257   20.1494 H   0  0  0  0  0  0
  -28.2107  -25.2035   18.6568 H   0  0  0  0  0  0
  -29.1240  -15.3981   21.4024 H   0  0  0  0  0  0
  1 25  1  0  0  0
  1 30  2  0  0  0
  1 85  1  0  0  0
  2  3  1  0  0  0
  2 25  1  0  0  0
  2 86  1  0  0  0
  2 87  1  0  0  0
  3  4  1  0  0  0
  3 88  1  0  0  0
  3 89  1  0  0  0
  4  5  1  0  0  0
  4 90  1  0  0  0
  4 91  1  0  0  0
  5  6  1  0  0  0
  5 26  1  0  0  0
  5 92  1  0  0  0
  6 25  1  0  0  0
  6 93  1  0  0  0
  6 94  1  0  0  0
  7  8  2  0  0  0
  7 26  1  0  0  0
  7 29  1  0  0  0
  8  9  1  0  0  0
  8 22  1  0  0  0
  9 10  1  0  0  0
  9 27  2  0  0  0
 10 11  2  0  0  0
 10 15  1  0  0  0
 11 12  1  0  0  0
 11 95  1  0  0  0
 12 13  2  0  0  0
 12 96  1  0  0  0
 13 14  1  0  0  0
 13 31  1  0  0  0
 14 15  2  0  0  0
 14 97  1  0  0  0
 15 98  1  0  0  0
 16 17  2  0  0  0
 16 21  1  0  0  0
 16 31  1  0  0  0
 17 18  1  0  0  0
 17 99  1  0  0  0
 18 19  2  0  0  0
 18100  1  0  0  0
 19 20  1  0  0  0
 19 24  1  0  0  0
 20 21  2  0  0  0
 20101  1  0  0  0
 21 23  1  0  0  0
 22 28  1  0  0  0
 22 32  2  0  0  0
 26 27  1  0  0  0
 28102  1  0  0  0
 28103  1  0  0  0
 29104  1  0  0  0
 29105  1  0  0  0
 33 34  1  0  0  0
 33 66  1  0  0  0
 33 70  2  0  0  0
 34 36  1  0  0  0
 34 59  1  0  0  0
 34106  1  0  0  0
 35 44  2  0  0  0
 35 45  1  0  0  0
 35 68  1  0  0  0
 36 56  1  0  0  0
 36107  1  0  0  0
 37 39  1  0  0  0
 37 47  1  0  0  0
 37 66  1  0  0  0
 37108  1  0  0  0
 38 43  2  0  0  0
 38 46  1  0  0  0
 38 47  1  0  0  0
 39 64  1  0  0  0
 39 67  2  0  0  0
 40 52  1  0  0  0
 40 53  2  0  0  0
 40 58  1  0  0  0
 41109  1  0  0  0
 41110  1  0  0  0
 41111  1  0  0  0
 41 48  1  0  0  0
 42 43  1  0  0  0
 42 66  1  0  0  0
 42112  1  0  0  0
 42113  1  0  0  0
 43 44  1  0  0  0
 44114  1  0  0  0
 45 46  2  0  0  0
 45115  1  0  0  0
 46116  1  0  0  0
 47117  1  0  0  0
 47118  1  0  0  0
 48 56  1  0  0  0
 48 65  1  0  0  0
 48119  1  0  0  0
 49 50  1  0  0  0
 49 53  1  0  0  0
 49 64  1  0  0  0
 49120  1  0  0  0
 50 51  1  0  0  0
 50121  1  0  0  0
 50122  1  0  0  0
 51 52  1  0  0  0
 51123  1  0  0  0
 51124  1  0  0  0
 52125  1  0  0  0
 52126  1  0  0  0
 53 54  1  0  0  0
 54 55  2  0  0  0
 54127  1  0  0  0
 55 57  1  0  0  0
 55128  1  0  0  0
 56 69  2  0  0  0
 57 58  2  0  0  0
 57129  1  0  0  0
 58130  1  0  0  0
 59 60  1  0  0  0
 59 61  1  0  0  0
 59 62  1  0  0  0
 60131  1  0  0  0
 60132  1  0  0  0
 60133  1  0  0  0
 61134  1  0  0  0
 61135  1  0  0  0
 61136  1  0  0  0
 62137  1  0  0  0
 62138  1  0  0  0
 62139  1  0  0  0
 63 65  1  0  0  0
 63140  1  0  0  0
 63141  1  0  0  0
 63142  1  0  0  0
 64143  1  0  0  0
 65144  1  0  0  0
 68 83  1  0  0  0
 71 72  2  0  0  0
 71 74  1  0  0  0
 71145  1  0  0  0
 72 75  1  0  0  0
 72146  1  0  0  0
 73 74  2  0  0  0
 73 76  1  0  0  0
 73147  1  0  0  0
 74 84  1  0  0  0
 75 76  2  0  0  0
 75 77  1  0  0  0
 76 80  1  0  0  0
 77148  1  0  0  0
 77149  1  0  0  0
 77150  1  0  0  0
 78151  1  0  0  0
 78152  1  0  0  0
 78153  1  0  0  0
 78 84  1  0  0  0
 79 84  1  0  0  0
 79154  1  0  0  0
 79155  1  0  0  0
 79156  1  0  0  0
 80 81  1  0  0  0
 80157  1  0  0  0
 80158  1  0  0  0
 81 83  1  0  0  0
 81159  1  0  0  0
 81160  1  0  0  0
 82 84  1  0  0  0
 82 85  1  0  0  0
 82161  1  0  0  0
 82162  1  0  0  0
 83163  1  0  0  0
 83164  1  0  0  0
 85165  1  0  0  0
M  ISO  4   1 100  68 101  83 101  85 100
M  END
> <chiral flag>
0

> <version>
0

> <s_m_source_file>
/data/baiqing/PycharmProjects/Reinvent-master-3.2/result/LINK_invent/BTK/process_docking_weight1_custom_sum_contain_oxygen_bond_distance_aromatic_linkinvent_7_9_3/rearranged_h_0088.sdf

> <i_m_source_file_index>
88

> <r_mmod_Potential_Energy-OPLS-2005>
-107.024131774902

> <r_mmod_Stretch_Energy-OPLS-2005>
45.0032272338867

> <r_mmod_Bend_Energy-OPLS-2005>
106.985771179199

> <r_mmod_Torsional_Energy-OPLS-2005>
206.746170043945

> <r_mmod_Improper_Torsional_Energy-OPLS-2005>
4.17757654190063

> <r_mmod_Van_der_Waal_Energy-OPLS-2005>
168.630950927734

> <r_mmod_Electrostatic_Energy-OPLS-2005>
-455.99560546875

> <r_mmod_Solvation_Energy-OPLS-2005>
-199.093215942383

> <b_mmod_Minimization_Converged-OPLS-2005>
0

> <r_mmod_RMS_Derivative-OPLS-2005>
1.13587117195129

$$$$
90
                    3D
 Structure written by MMmdl.
163171  0  0  1  0            999 V2000
  -30.7120  -14.7203   20.4577 C   0  0  0  0  0  0
  -30.3931  -12.4500   19.4778 C   0  0  0  0  0  0
  -29.4851  -12.5000   18.2327 C   0  0  0  0  0  0
  -28.0203  -12.3178   18.6583 C   0  0  0  0  0  0
  -27.6325  -13.2415   19.8455 C   0  0  2  0  0  0
  -28.6770  -13.2343   20.9835 C   0  0  0  0  0  0
  -25.2479  -13.8202   20.5724 C   0  0  0  0  0  0
  -24.1807  -13.0443   20.9213 C   0  0  0  0  0  0
  -24.6389  -11.6901   20.8739 C   0  0  0  0  0  0
  -23.9076  -10.4283   21.0399 C   0  0  0  0  0  0
  -24.3633   -9.4203   21.9186 C   0  0  0  0  0  0
  -23.6309   -8.2242   22.0745 C   0  0  0  0  0  0
  -22.4277   -8.0291   21.3543 C   0  0  0  0  0  0
  -21.9928   -9.0262   20.4638 C   0  0  0  0  0  0
  -22.7249  -10.2139   20.3056 C   0  0  0  0  0  0
  -21.6877   -6.0752   22.5280 C   0  0  0  0  0  0
  -21.4027   -6.5653   23.8213 C   0  0  0  0  0  0
  -21.3653   -5.6797   24.9170 C   0  0  0  0  0  0
  -21.6043   -4.3053   24.7210 C   0  0  0  0  0  0
  -21.8823   -3.8167   23.4333 C   0  0  0  0  0  0
  -21.9189   -4.6986   22.3400 C   0  0  0  0  0  0
  -22.7825  -13.5217   21.1899 C   0  0  0  0  0  0
  -22.1667   -4.2168   21.0981 F   0  0  0  0  0  0
  -21.5616   -3.4532   25.7726 F   0  0  0  0  0  0
  -29.9815  -13.5505   20.3883 N   0  0  0  0  0  0
  -26.2916  -12.9442   20.3317 N   0  0  0  0  0  0
  -25.9319  -11.6565   20.5775 N   0  0  0  0  0  0
  -22.0480  -12.8183   22.0418 N   0  0  0  0  0  0
  -25.4182  -15.1928   20.4106 N   0  0  0  0  0  0
  -31.8778  -14.7242   20.0667 O   0  0  0  0  0  0
  -21.6640   -6.8889   21.4250 O   0  0  0  0  0  0
  -22.3537  -14.5540   20.6748 O   0  0  0  0  0  0
  -24.6350  -31.8553   23.1959 C   0  0  0  0  0  0
  -25.9176  -32.4724   23.8309 C   0  0  1  0  0  0
  -27.1793  -27.2110   20.1421 C   0  0  0  0  0  0
  -25.5971  -33.8534   24.2231 N   0  0  0  0  0  0
  -23.4288  -30.4812   21.5431 C   0  0  2  0  0  0
  -24.8692  -28.9398   20.0931 C   0  0  0  0  0  0
  -22.7539  -29.4566   22.4887 C   0  0  0  0  0  0
  -18.0298  -28.1394   22.8477 C   0  0  0  0  0  0
  -24.1485  -36.7295   23.2641 C   0  0  0  0  0  0
  -25.9778  -30.7513   21.3803 C   0  0  0  0  0  0
  -26.0390  -29.3710   20.7271 C   0  0  0  0  0  0
  -27.1921  -28.5178   20.7506 C   0  0  0  0  0  0
  -26.0032  -26.8896   19.4235 C   0  0  0  0  0  0
  -24.8634  -27.7118   19.4224 C   0  0  0  0  0  0
  -23.6442  -29.8319   20.1515 C   0  0  0  0  0  0
  -25.4116  -36.3056   24.0307 C   0  0  1  0  0  0
  -20.5921  -28.3696   23.1269 C   0  0  2  0  0  0
  -20.6803  -26.9417   22.5408 C   0  0  0  0  0  0
  -19.5778  -26.6379   21.5220 C   0  0  0  0  0  0
  -18.1944  -26.7937   22.1615 C   0  0  0  0  0  0
  -19.1564  -28.8864   23.2854 C   0  0  0  0  0  0
  -18.9479  -30.1463   23.8877 C   0  0  0  0  0  0
  -17.6483  -30.6599   24.0548 C   0  0  0  0  0  0
  -25.9073  -34.9430   23.5076 C   0  0  0  0  0  0
  -16.5369  -29.9094   23.6329 C   0  0  0  0  0  0
  -16.7280  -28.6506   23.0352 C   0  0  0  0  0  0
  -26.4530  -31.6564   25.0720 C   0  0  0  0  0  0
  -25.3715  -31.3718   26.1413 C   0  0  0  0  0  0
  -27.0357  -30.2969   24.6209 C   0  0  0  0  0  0
  -27.6072  -32.4320   25.7501 C   0  0  0  0  0  0
  -27.5571  -37.1793   24.8468 C   0  0  0  0  0  0
  -21.4242  -29.3023   22.3644 N   0  0  0  0  0  0
  -26.4286  -37.3769   23.9416 N   0  0  0  0  0  0
  -24.7001  -31.0511   22.0937 N   0  0  0  0  0  0
  -23.4243  -28.8083   23.2971 O   0  0  0  0  0  0
  -28.2283  -26.2622   20.3128 O   0  0  0  0  0  0
  -26.5656  -34.8916   22.4651 O   0  0  0  0  0  0
  -23.5501  -32.1391   23.7246 O   0  0  0  0  0  0
  -29.1201  -22.3291   20.3217 C   0  0  0  0  0  0
  -28.2073  -23.4683   20.4792 C   0  0  0  0  0  0
  -28.8318  -21.0212   20.8959 C   0  0  0  0  0  0
  -27.0595  -23.1161   21.2485 C   0  0  0  0  0  0
  -25.1525  -24.1958   23.9167 C   0  0  0  0  0  0
  -29.5786  -24.9780   18.8616 C   0  0  0  0  0  0
  -29.7488  -19.7105   20.9064 C   0  0  0  0  0  0
  -25.8869  -24.0527   21.4591 C   0  0  0  0  0  0
  -25.9464  -24.8468   22.7732 C   0  0  0  0  0  0
  -29.3854  -18.3924   20.0393 C   0  0  0  0  0  0
  -29.1241  -16.8693   20.5688 C   0  0  0  0  0  0
  -28.2959  -24.8801   19.6797 C   0  0  2  0  0  0
  -27.7089  -20.8714   21.6292 N   0  0  0  0  0  0
  -26.8625  -21.8890   21.8036 N   0  0  0  0  0  0
  -30.2449  -15.9245   20.9511 N   0  0  0  0  0  0
  -31.4381  -12.5164   19.1728 H   0  0  0  0  0  0
  -30.2957  -11.4868   19.9825 H   0  0  0  0  0  0
  -29.7654  -11.7130   17.5297 H   0  0  0  0  0  0
  -29.6087  -13.4500   17.7080 H   0  0  0  0  0  0
  -27.8930  -11.2717   18.9407 H   0  0  0  0  0  0
  -27.3519  -12.4845   17.8114 H   0  0  0  0  0  0
  -27.6105  -14.2508   19.4364 H   0  0  0  0  0  0
  -28.7066  -12.2606   21.4740 H   0  0  0  0  0  0
  -28.4063  -13.9648   21.7492 H   0  0  0  0  0  0
  -25.2774   -9.5666   22.4775 H   0  0  0  0  0  0
  -24.0020   -7.4633   22.7457 H   0  0  0  0  0  0
  -21.0876   -8.8794   19.8937 H   0  0  0  0  0  0
  -22.3730  -10.9684   19.6178 H   0  0  0  0  0  0
  -21.2036   -7.6152   23.9732 H   0  0  0  0  0  0
  -21.1477   -6.0521   25.9081 H   0  0  0  0  0  0
  -22.0602   -2.7626   23.2831 H   0  0  0  0  0  0
  -22.4102  -11.9811   22.4752 H   0  0  0  0  0  0
  -21.1106  -13.1237   22.2645 H   0  0  0  0  0  0
  -24.6489  -15.8441   20.5192 H   0  0  0  0  0  0
  -26.2751  -15.6333   20.1047 H   0  0  0  0  0  0
  -26.7232  -32.5346   23.1028 H   0  0  0  0  0  0
  -25.0117  -33.9682   25.0364 H   0  0  0  0  0  0
  -22.7210  -31.3019   21.4075 H   0  0  0  0  0  0
  -23.3742  -35.9637   23.3317 H   0  0  0  0  0  0
  -24.3569  -36.8925   22.2055 H   0  0  0  0  0  0
  -23.7252  -37.6501   23.6683 H   0  0  0  0  0  0
  -26.1319  -31.4990   20.6017 H   0  0  0  0  0  0
  -26.8533  -30.7967   22.0138 H   0  0  0  0  0  0
  -28.0761  -28.8421   21.2839 H   0  0  0  0  0  0
  -25.8888  -25.9645   18.8835 H   0  0  0  0  0  0
  -23.9766  -27.3950   18.8902 H   0  0  0  0  0  0
  -23.7682  -30.6195   19.4074 H   0  0  0  0  0  0
  -22.7567  -29.2778   19.8444 H   0  0  0  0  0  0
  -25.1291  -36.1908   25.0797 H   0  0  0  0  0  0
  -20.9985  -28.3282   24.1399 H   0  0  0  0  0  0
  -20.5738  -26.2288   23.3606 H   0  0  0  0  0  0
  -21.6657  -26.7450   22.1170 H   0  0  0  0  0  0
  -19.6945  -25.6287   21.1253 H   0  0  0  0  0  0
  -19.6739  -27.3185   20.6752 H   0  0  0  0  0  0
  -17.4217  -26.6681   21.4007 H   0  0  0  0  0  0
  -18.0320  -26.0095   22.9025 H   0  0  0  0  0  0
  -19.7952  -30.7269   24.2244 H   0  0  0  0  0  0
  -17.5039  -31.6273   24.5168 H   0  0  0  0  0  0
  -15.5373  -30.2984   23.7674 H   0  0  0  0  0  0
  -15.8668  -28.0805   22.7096 H   0  0  0  0  0  0
  -24.5880  -30.7106   25.7703 H   0  0  0  0  0  0
  -24.8918  -32.2885   26.4861 H   0  0  0  0  0  0
  -25.7973  -30.8835   27.0182 H   0  0  0  0  0  0
  -26.2899  -29.6713   24.1284 H   0  0  0  0  0  0
  -27.4092  -29.7262   25.4730 H   0  0  0  0  0  0
  -27.8780  -30.4265   23.9405 H   0  0  0  0  0  0
  -27.2677  -33.3635   26.2063 H   0  0  0  0  0  0
  -28.3886  -32.6865   25.0322 H   0  0  0  0  0  0
  -28.0744  -31.8446   26.5440 H   0  0  0  0  0  0
  -28.2575  -38.0101   24.7503 H   0  0  0  0  0  0
  -28.1048  -36.2616   24.6271 H   0  0  0  0  0  0
  -27.2276  -37.1431   25.8867 H   0  0  0  0  0  0
  -20.9439  -29.8753   21.6854 H   0  0  0  0  0  0
  -26.0151  -38.2834   24.1426 H   0  0  0  0  0  0
  -30.0282  -22.4271   19.7481 H   0  0  0  0  0  0
  -25.0340  -24.8967   24.7441 H   0  0  0  0  0  0
  -25.6501  -23.3016   24.2916 H   0  0  0  0  0  0
  -24.1529  -23.8994   23.5951 H   0  0  0  0  0  0
  -29.6796  -24.1296   18.1840 H   0  0  0  0  0  0
  -30.4534  -25.0224   19.5088 H   0  0  0  0  0  0
  -29.5595  -25.8855   18.2565 H   0  0  0  0  0  0
  -29.8993  -19.4158   21.9483 H   0  0  0  0  0  0
  -30.7359  -20.0380   20.5796 H   0  0  0  0  0  0
  -24.9518  -23.4928   21.4006 H   0  0  0  0  0  0
  -25.8287  -24.7175   20.6149 H   0  0  0  0  0  0
  -26.9814  -25.0281   23.0635 H   0  0  0  0  0  0
  -25.5230  -25.8326   22.5914 H   0  0  0  0  0  0
  -30.1265  -18.3191   19.2438 H   0  0  0  0  0  0
  -28.4768  -18.6689   19.5060 H   0  0  0  0  0  0
  -28.4179  -16.8863   21.4002 H   0  0  0  0  0  0
  -28.5958  -16.3674   19.7567 H   0  0  0  0  0  0
  -27.5190  -24.7793   18.9288 H   0  0  0  0  0  0
  -31.0585  -16.4679   21.2078 H   0  0  0  0  0  0
  1 25  1  0  0  0
  1 30  2  0  0  0
  1 85  1  0  0  0
  2  3  1  0  0  0
  2 25  1  0  0  0
  2 86  1  0  0  0
  2 87  1  0  0  0
  3  4  1  0  0  0
  3 88  1  0  0  0
  3 89  1  0  0  0
  4  5  1  0  0  0
  4 90  1  0  0  0
  4 91  1  0  0  0
  5  6  1  0  0  0
  5 26  1  0  0  0
  5 92  1  0  0  0
  6 25  1  0  0  0
  6 93  1  0  0  0
  6 94  1  0  0  0
  7  8  2  0  0  0
  7 26  1  0  0  0
  7 29  1  0  0  0
  8  9  1  0  0  0
  8 22  1  0  0  0
  9 10  1  0  0  0
  9 27  2  0  0  0
 10 11  2  0  0  0
 10 15  1  0  0  0
 11 12  1  0  0  0
 11 95  1  0  0  0
 12 13  2  0  0  0
 12 96  1  0  0  0
 13 14  1  0  0  0
 13 31  1  0  0  0
 14 15  2  0  0  0
 14 97  1  0  0  0
 15 98  1  0  0  0
 16 17  2  0  0  0
 16 21  1  0  0  0
 16 31  1  0  0  0
 17 18  1  0  0  0
 17 99  1  0  0  0
 18 19  2  0  0  0
 18100  1  0  0  0
 19 20  1  0  0  0
 19 24  1  0  0  0
 20 21  2  0  0  0
 20101  1  0  0  0
 21 23  1  0  0  0
 22 28  1  0  0  0
 22 32  2  0  0  0
 26 27  1  0  0  0
 28102  1  0  0  0
 28103  1  0  0  0
 29104  1  0  0  0
 29105  1  0  0  0
 33 34  1  0  0  0
 33 66  1  0  0  0
 33 70  2  0  0  0
 34 36  1  0  0  0
 34 59  1  0  0  0
 34106  1  0  0  0
 35 44  2  0  0  0
 35 45  1  0  0  0
 35 68  1  0  0  0
 36 56  1  0  0  0
 36107  1  0  0  0
 37 39  1  0  0  0
 37 47  1  0  0  0
 37 66  1  0  0  0
 37108  1  0  0  0
 38 43  2  0  0  0
 38 46  1  0  0  0
 38 47  1  0  0  0
 39 64  1  0  0  0
 39 67  2  0  0  0
 40 52  1  0  0  0
 40 53  2  0  0  0
 40 58  1  0  0  0
 41109  1  0  0  0
 41110  1  0  0  0
 41111  1  0  0  0
 41 48  1  0  0  0
 42 43  1  0  0  0
 42 66  1  0  0  0
 42112  1  0  0  0
 42113  1  0  0  0
 43 44  1  0  0  0
 44114  1  0  0  0
 45 46  2  0  0  0
 45115  1  0  0  0
 46116  1  0  0  0
 47117  1  0  0  0
 47118  1  0  0  0
 48 56  1  0  0  0
 48 65  1  0  0  0
 48119  1  0  0  0
 49 50  1  0  0  0
 49 53  1  0  0  0
 49 64  1  0  0  0
 49120  1  0  0  0
 50 51  1  0  0  0
 50121  1  0  0  0
 50122  1  0  0  0
 51 52  1  0  0  0
 51123  1  0  0  0
 51124  1  0  0  0
 52125  1  0  0  0
 52126  1  0  0  0
 53 54  1  0  0  0
 54 55  2  0  0  0
 54127  1  0  0  0
 55 57  1  0  0  0
 55128  1  0  0  0
 56 69  2  0  0  0
 57 58  2  0  0  0
 57129  1  0  0  0
 58130  1  0  0  0
 59 60  1  0  0  0
 59 61  1  0  0  0
 59 62  1  0  0  0
 60131  1  0  0  0
 60132  1  0  0  0
 60133  1  0  0  0
 61134  1  0  0  0
 61135  1  0  0  0
 61136  1  0  0  0
 62137  1  0  0  0
 62138  1  0  0  0
 62139  1  0  0  0
 63 65  1  0  0  0
 63140  1  0  0  0
 63141  1  0  0  0
 63142  1  0  0  0
 64143  1  0  0  0
 65144  1  0  0  0
 68 82  1  0  0  0
 71 72  2  0  0  0
 71 73  1  0  0  0
 71145  1  0  0  0
 72 74  1  0  0  0
 72 82  1  0  0  0
 73 77  1  0  0  0
 73 83  2  0  0  0
 74 78  1  0  0  0
 74 84  2  0  0  0
 75 79  1  0  0  0
 75146  1  0  0  0
 75147  1  0  0  0
 75148  1  0  0  0
 76149  1  0  0  0
 76150  1  0  0  0
 76151  1  0  0  0
 76 82  1  0  0  0
 77 80  1  0  0  0
 77152  1  0  0  0
 77153  1  0  0  0
 78 79  1  0  0  0
 78154  1  0  0  0
 78155  1  0  0  0
 79156  1  0  0  0
 79157  1  0  0  0
 80 81  1  0  0  0
 80158  1  0  0  0
 80159  1  0  0  0
 81 85  1  0  0  0
 81160  1  0  0  0
 81161  1  0  0  0
 82162  1  0  0  0
 83 84  1  0  0  0
 85163  1  0  0  0
M  ISO  4   1 100  68 101  82 101  85 100
M  END
> <chiral flag>
0

> <version>
0

> <s_m_source_file>
/data/baiqing/PycharmProjects/Reinvent-master-3.2/result/LINK_invent/BTK/process_docking_weight1_custom_sum_contain_oxygen_bond_distance_aromatic_linkinvent_7_9_3/rearranged_h_0088.sdf

> <i_m_source_file_index>
89

> <r_mmod_Potential_Energy-OPLS-2005>
342.399322509766

> <r_mmod_Stretch_Energy-OPLS-2005>
143.335021972656

> <r_mmod_Bend_Energy-OPLS-2005>
265.854339599609

> <r_mmod_Torsional_Energy-OPLS-2005>
277.977844238281

> <r_mmod_Improper_Torsional_Energy-OPLS-2005>
6.84042644500732

> <r_mmod_Van_der_Waal_Energy-OPLS-2005>
132.024444580078

> <r_mmod_Electrostatic_Energy-OPLS-2005>
-373.592102050781

> <r_mmod_Solvation_Energy-OPLS-2005>
-220.402496337891

> <b_mmod_Minimization_Converged-OPLS-2005>
0

> <r_mmod_RMS_Derivative-OPLS-2005>
5.21637296676636

$$$$
91
                    3D
 Structure written by MMmdl.
171179  0  0  1  0            999 V2000
  -30.6175  -14.7281   20.4776 C   0  0  0  0  0  0
  -30.4259  -12.4470   19.4731 C   0  0  0  0  0  0
  -29.5050  -12.4992   18.2347 C   0  0  0  0  0  0
  -28.0313  -12.3236   18.6483 C   0  0  0  0  0  0
  -27.6371  -13.2291   19.8466 C   0  0  2  0  0  0
  -28.6788  -13.1652   20.9840 C   0  0  0  0  0  0
  -25.2493  -13.8201   20.5685 C   0  0  0  0  0  0
  -24.1785  -13.0447   20.9204 C   0  0  0  0  0  0
  -24.6366  -11.6922   20.8746 C   0  0  0  0  0  0
  -23.9050  -10.4296   21.0405 C   0  0  0  0  0  0
  -24.3606   -9.4213   21.9179 C   0  0  0  0  0  0
  -23.6287   -8.2246   22.0749 C   0  0  0  0  0  0
  -22.4273   -8.0272   21.3541 C   0  0  0  0  0  0
  -21.9905   -9.0242   20.4641 C   0  0  0  0  0  0
  -22.7228  -10.2126   20.3049 C   0  0  0  0  0  0
  -21.6853   -6.0729   22.5279 C   0  0  0  0  0  0
  -21.4013   -6.5633   23.8211 C   0  0  0  0  0  0
  -21.3660   -5.6788   24.9172 C   0  0  0  0  0  0
  -21.6043   -4.3051   24.7227 C   0  0  0  0  0  0
  -21.8823   -3.8141   23.4349 C   0  0  0  0  0  0
  -21.9195   -4.6956   22.3403 C   0  0  0  0  0  0
  -22.7811  -13.5226   21.1868 C   0  0  0  0  0  0
  -22.1664   -4.2138   21.0983 F   0  0  0  0  0  0
  -21.5630   -3.4538   25.7742 F   0  0  0  0  0  0
  -29.9786  -13.5117   20.4005 N   0  0  0  0  0  0
  -26.2900  -12.9394   20.3257 N   0  0  0  0  0  0
  -25.9292  -11.6539   20.5739 N   0  0  0  0  0  0
  -22.0466  -12.8198   22.0418 N   0  0  0  0  0  0
  -25.4221  -15.1920   20.4101 N   0  0  0  0  0  0
  -31.8080  -14.8096   20.1649 O   0  0  0  0  0  0
  -21.6642   -6.8867   21.4239 O   0  0  0  0  0  0
  -22.3503  -14.5544   20.6735 O   0  0  0  0  0  0
  -24.6328  -31.8531   23.1987 C   0  0  0  0  0  0
  -25.9143  -32.4747   23.8336 C   0  0  1  0  0  0
  -27.2107  -27.2541   20.1277 C   0  0  0  0  0  0
  -25.5942  -33.8562   24.2248 N   0  0  0  0  0  0
  -23.4294  -30.4791   21.5396 C   0  0  2  0  0  0
  -24.8771  -28.9316   20.1008 C   0  0  0  0  0  0
  -22.7510  -29.4587   22.4868 C   0  0  0  0  0  0
  -18.0283  -28.1391   22.8446 C   0  0  0  0  0  0
  -24.1490  -36.7287   23.2636 C   0  0  0  0  0  0
  -25.9759  -30.7671   21.3778 C   0  0  0  0  0  0
  -26.0479  -29.3906   20.7173 C   0  0  0  0  0  0
  -27.2177  -28.5631   20.7214 C   0  0  0  0  0  0
  -26.0206  -26.8747   19.4662 C   0  0  0  0  0  0
  -24.8707  -27.6857   19.4590 C   0  0  0  0  0  0
  -23.6487  -29.8195   20.1530 C   0  0  0  0  0  0
  -25.4110  -36.3064   24.0324 C   0  0  1  0  0  0
  -20.5889  -28.3694   23.1248 C   0  0  2  0  0  0
  -20.6780  -26.9411   22.5401 C   0  0  0  0  0  0
  -19.5766  -26.6370   21.5205 C   0  0  0  0  0  0
  -18.1930  -26.7923   22.1597 C   0  0  0  0  0  0
  -19.1543  -28.8858   23.2844 C   0  0  0  0  0  0
  -18.9468  -30.1441   23.8883 C   0  0  0  0  0  0
  -17.6475  -30.6583   24.0552 C   0  0  0  0  0  0
  -25.9050  -34.9438   23.5086 C   0  0  0  0  0  0
  -16.5360  -29.9080   23.6334 C   0  0  0  0  0  0
  -16.7277  -28.6513   23.0331 C   0  0  0  0  0  0
  -26.4511  -31.6581   25.0730 C   0  0  0  0  0  0
  -25.3734  -31.3720   26.1446 C   0  0  0  0  0  0
  -27.0351  -30.2991   24.6203 C   0  0  0  0  0  0
  -27.6082  -32.4320   25.7481 C   0  0  0  0  0  0
  -27.5571  -37.1791   24.8456 C   0  0  0  0  0  0
  -21.4209  -29.3043   22.3640 N   0  0  0  0  0  0
  -26.4272  -37.3768   23.9412 N   0  0  0  0  0  0
  -24.6985  -31.0501   22.0951 N   0  0  0  0  0  0
  -23.4211  -28.8102   23.2955 O   0  0  0  0  0  0
  -28.2895  -26.3397   20.2107 O   0  0  0  0  0  0
  -26.5623  -34.8914   22.4644 O   0  0  0  0  0  0
  -23.5475  -32.1349   23.7274 O   0  0  0  0  0  0
  -26.9433  -19.3124   22.7301 C   0  0  0  0  0  0
  -27.9392  -18.7709   21.9032 C   0  0  0  0  0  0
  -27.4331  -21.5019   21.8539 C   0  0  0  0  0  0
  -26.6903  -20.6958   22.7385 C   0  0  0  0  0  0
  -28.7312  -19.5526   21.0276 C   0  0  0  0  0  0
  -28.4283  -21.0101   20.9743 C   0  0  0  0  0  0
  -26.4439  -22.1780   24.7389 C   0  0  0  0  0  0
  -24.8084  -20.3154   24.4492 C   0  0  0  0  0  0
  -24.7057  -22.2759   22.9281 C   0  0  0  0  0  0
  -28.9764  -22.1669   20.0297 C   0  0  0  0  0  0
  -29.0518  -23.7279   20.5180 C   0  0  0  0  0  0
  -30.4232  -17.3009   20.8895 C   0  0  0  0  0  0
  -28.0303  -24.8683   19.9998 C   0  0  0  0  0  0
  -29.8091  -18.6815   20.2373 C   0  0  2  0  0  0
  -25.6725  -21.3487   23.6958 C   0  0  0  0  0  0
  -29.8778  -15.8784   20.7223 N   0  0  0  0  0  0
  -30.9564  -19.5690   20.0187 N   0  3  0  0  0  0
  -31.4673  -12.5686   19.1692 H   0  0  0  0  0  0
  -30.3695  -11.4705   19.9574 H   0  0  0  0  0  0
  -29.7886  -11.7263   17.5184 H   0  0  0  0  0  0
  -29.6316  -13.4543   17.7226 H   0  0  0  0  0  0
  -27.8885  -11.2756   18.9150 H   0  0  0  0  0  0
  -27.3747  -12.5115   17.7978 H   0  0  0  0  0  0
  -27.6323  -14.2487   19.4604 H   0  0  0  0  0  0
  -28.7093  -12.1693   21.4287 H   0  0  0  0  0  0
  -28.4117  -13.8517   21.7893 H   0  0  0  0  0  0
  -25.2749   -9.5692   22.4747 H   0  0  0  0  0  0
  -24.0001   -7.4639   22.7465 H   0  0  0  0  0  0
  -21.0842   -8.8747   19.8945 H   0  0  0  0  0  0
  -22.3681  -10.9652   19.6148 H   0  0  0  0  0  0
  -21.2004   -7.6139   23.9707 H   0  0  0  0  0  0
  -21.1479   -6.0521   25.9073 H   0  0  0  0  0  0
  -22.0603   -2.7602   23.2858 H   0  0  0  0  0  0
  -22.4091  -11.9840   22.4765 H   0  0  0  0  0  0
  -21.1078  -13.1196   22.2627 H   0  0  0  0  0  0
  -24.6563  -15.8480   20.5172 H   0  0  0  0  0  0
  -26.2641  -15.6262   20.0563 H   0  0  0  0  0  0
  -26.7209  -32.5413   23.1073 H   0  0  0  0  0  0
  -25.0148  -33.9713   25.0436 H   0  0  0  0  0  0
  -22.7251  -31.3022   21.3929 H   0  0  0  0  0  0
  -23.3757  -35.9613   23.3290 H   0  0  0  0  0  0
  -24.3591  -36.8918   22.2053 H   0  0  0  0  0  0
  -23.7241  -37.6487   23.6671 H   0  0  0  0  0  0
  -26.1084  -31.5286   20.6082 H   0  0  0  0  0  0
  -26.8578  -30.8189   22.0069 H   0  0  0  0  0  0
  -28.1107  -28.9020   21.2287 H   0  0  0  0  0  0
  -25.9472  -25.9263   18.9576 H   0  0  0  0  0  0
  -23.9798  -27.3368   18.9556 H   0  0  0  0  0  0
  -23.7745  -30.6014   19.4021 H   0  0  0  0  0  0
  -22.7672  -29.2553   19.8444 H   0  0  0  0  0  0
  -25.1281  -36.1900   25.0818 H   0  0  0  0  0  0
  -20.9976  -28.3281   24.1371 H   0  0  0  0  0  0
  -20.5663  -26.2309   23.3604 H   0  0  0  0  0  0
  -21.6646  -26.7421   22.1200 H   0  0  0  0  0  0
  -19.6948  -25.6281   21.1249 H   0  0  0  0  0  0
  -19.6733  -27.3164   20.6726 H   0  0  0  0  0  0
  -17.4202  -26.6652   21.3998 H   0  0  0  0  0  0
  -18.0339  -26.0064   22.9000 H   0  0  0  0  0  0
  -19.7953  -30.7242   24.2269 H   0  0  0  0  0  0
  -17.5036  -31.6270   24.5139 H   0  0  0  0  0  0
  -15.5366  -30.2982   23.7673 H   0  0  0  0  0  0
  -15.8666  -28.0845   22.7044 H   0  0  0  0  0  0
  -24.5959  -30.6997   25.7785 H   0  0  0  0  0  0
  -24.8872  -32.2887   26.4811 H   0  0  0  0  0  0
  -25.8065  -30.8970   27.0253 H   0  0  0  0  0  0
  -26.2927  -29.6738   24.1228 H   0  0  0  0  0  0
  -27.4029  -29.7256   25.4717 H   0  0  0  0  0  0
  -27.8795  -30.4263   23.9426 H   0  0  0  0  0  0
  -27.2720  -33.3652   26.1998 H   0  0  0  0  0  0
  -28.3906  -32.6809   25.0310 H   0  0  0  0  0  0
  -28.0708  -31.8474   26.5437 H   0  0  0  0  0  0
  -28.2550  -38.0121   24.7525 H   0  0  0  0  0  0
  -28.1103  -36.2655   24.6237 H   0  0  0  0  0  0
  -27.2308  -37.1370   25.8863 H   0  0  0  0  0  0
  -20.9380  -29.8830   21.6905 H   0  0  0  0  0  0
  -26.0151  -38.2828   24.1467 H   0  0  0  0  0  0
  -26.3928  -18.6362   23.3672 H   0  0  0  0  0  0
  -28.0853  -17.7026   21.9631 H   0  0  0  0  0  0
  -27.2168  -22.5576   21.8526 H   0  0  0  0  0  0
  -27.1335  -21.5524   25.3071 H   0  0  0  0  0  0
  -25.7677  -22.6514   25.4522 H   0  0  0  0  0  0
  -27.0308  -22.9707   24.2744 H   0  0  0  0  0  0
  -25.4081  -19.6688   25.0898 H   0  0  0  0  0  0
  -24.2464  -19.6849   23.7591 H   0  0  0  0  0  0
  -24.0825  -20.8081   25.0986 H   0  0  0  0  0  0
  -25.2109  -23.1071   22.4380 H   0  0  0  0  0  0
  -23.9713  -22.7211   23.6015 H   0  0  0  0  0  0
  -24.1542  -21.7266   22.1651 H   0  0  0  0  0  0
  -28.3869  -22.1326   19.1107 H   0  0  0  0  0  0
  -29.9791  -21.8971   19.7148 H   0  0  0  0  0  0
  -30.0248  -24.0813   20.1772 H   0  0  0  0  0  0
  -29.1376  -23.7728   21.6040 H   0  0  0  0  0  0
  -30.5575  -17.4644   21.9597 H   0  0  0  0  0  0
  -31.4458  -17.2341   20.5174 H   0  0  0  0  0  0
  -27.0641  -24.6204   20.4420 H   0  0  0  0  0  0
  -27.9163  -24.7256   18.9242 H   0  0  0  0  0  0
  -29.3906  -18.4434   19.2583 H   0  0  0  0  0  0
  -28.8953  -15.7436   20.9064 H   0  0  0  0  0  0
  -31.3522  -19.8495   20.8981 H   0  0  0  0  0  0
  -30.6595  -20.3848   19.5183 H   0  0  0  0  0  0
  -31.6616  -19.1025   19.4762 H   0  0  0  0  0  0
  1 25  1  0  0  0
  1 30  2  0  0  0
  1 86  1  0  0  0
  2  3  1  0  0  0
  2 25  1  0  0  0
  2 88  1  0  0  0
  2 89  1  0  0  0
  3  4  1  0  0  0
  3 90  1  0  0  0
  3 91  1  0  0  0
  4  5  1  0  0  0
  4 92  1  0  0  0
  4 93  1  0  0  0
  5  6  1  0  0  0
  5 26  1  0  0  0
  5 94  1  0  0  0
  6 25  1  0  0  0
  6 95  1  0  0  0
  6 96  1  0  0  0
  7  8  2  0  0  0
  7 26  1  0  0  0
  7 29  1  0  0  0
  8  9  1  0  0  0
  8 22  1  0  0  0
  9 10  1  0  0  0
  9 27  2  0  0  0
 10 11  2  0  0  0
 10 15  1  0  0  0
 11 12  1  0  0  0
 11 97  1  0  0  0
 12 13  2  0  0  0
 12 98  1  0  0  0
 13 14  1  0  0  0
 13 31  1  0  0  0
 14 15  2  0  0  0
 14 99  1  0  0  0
 15100  1  0  0  0
 16 17  2  0  0  0
 16 21  1  0  0  0
 16 31  1  0  0  0
 17 18  1  0  0  0
 17101  1  0  0  0
 18 19  2  0  0  0
 18102  1  0  0  0
 19 20  1  0  0  0
 19 24  1  0  0  0
 20 21  2  0  0  0
 20103  1  0  0  0
 21 23  1  0  0  0
 22 28  1  0  0  0
 22 32  2  0  0  0
 26 27  1  0  0  0
 28104  1  0  0  0
 28105  1  0  0  0
 29106  1  0  0  0
 29107  1  0  0  0
 33 34  1  0  0  0
 33 66  1  0  0  0
 33 70  2  0  0  0
 34 36  1  0  0  0
 34 59  1  0  0  0
 34108  1  0  0  0
 35 44  2  0  0  0
 35 45  1  0  0  0
 35 68  1  0  0  0
 36 56  1  0  0  0
 36109  1  0  0  0
 37 39  1  0  0  0
 37 47  1  0  0  0
 37 66  1  0  0  0
 37110  1  0  0  0
 38 43  2  0  0  0
 38 46  1  0  0  0
 38 47  1  0  0  0
 39 64  1  0  0  0
 39 67  2  0  0  0
 40 52  1  0  0  0
 40 53  2  0  0  0
 40 58  1  0  0  0
 41111  1  0  0  0
 41112  1  0  0  0
 41113  1  0  0  0
 41 48  1  0  0  0
 42 43  1  0  0  0
 42 66  1  0  0  0
 42114  1  0  0  0
 42115  1  0  0  0
 43 44  1  0  0  0
 44116  1  0  0  0
 45 46  2  0  0  0
 45117  1  0  0  0
 46118  1  0  0  0
 47119  1  0  0  0
 47120  1  0  0  0
 48 56  1  0  0  0
 48 65  1  0  0  0
 48121  1  0  0  0
 49 50  1  0  0  0
 49 53  1  0  0  0
 49 64  1  0  0  0
 49122  1  0  0  0
 50 51  1  0  0  0
 50123  1  0  0  0
 50124  1  0  0  0
 51 52  1  0  0  0
 51125  1  0  0  0
 51126  1  0  0  0
 52127  1  0  0  0
 52128  1  0  0  0
 53 54  1  0  0  0
 54 55  2  0  0  0
 54129  1  0  0  0
 55 57  1  0  0  0
 55130  1  0  0  0
 56 69  2  0  0  0
 57 58  2  0  0  0
 57131  1  0  0  0
 58132  1  0  0  0
 59 60  1  0  0  0
 59 61  1  0  0  0
 59 62  1  0  0  0
 60133  1  0  0  0
 60134  1  0  0  0
 60135  1  0  0  0
 61136  1  0  0  0
 61137  1  0  0  0
 61138  1  0  0  0
 62139  1  0  0  0
 62140  1  0  0  0
 62141  1  0  0  0
 63 65  1  0  0  0
 63142  1  0  0  0
 63143  1  0  0  0
 63144  1  0  0  0
 64145  1  0  0  0
 65146  1  0  0  0
 68 83  1  0  0  0
 71 72  2  0  0  0
 71 74  1  0  0  0
 71147  1  0  0  0
 72 75  1  0  0  0
 72148  1  0  0  0
 73 74  2  0  0  0
 73 76  1  0  0  0
 73149  1  0  0  0
 74 85  1  0  0  0
 75 76  2  0  0  0
 75 84  1  0  0  0
 76 80  1  0  0  0
 77150  1  0  0  0
 77151  1  0  0  0
 77152  1  0  0  0
 77 85  1  0  0  0
 78 85  1  0  0  0
 78153  1  0  0  0
 78154  1  0  0  0
 78155  1  0  0  0
 79 85  1  0  0  0
 79156  1  0  0  0
 79157  1  0  0  0
 79158  1  0  0  0
 80 81  1  0  0  0
 80159  1  0  0  0
 80160  1  0  0  0
 81 83  1  0  0  0
 81161  1  0  0  0
 81162  1  0  0  0
 82 84  1  0  0  0
 82 86  1  0  0  0
 82163  1  0  0  0
 82164  1  0  0  0
 83165  1  0  0  0
 83166  1  0  0  0
 84 87  1  0  0  0
 84167  1  0  0  0
 86168  1  0  0  0
 87169  1  0  0  0
 87170  1  0  0  0
 87171  1  0  0  0
M  CHG  1  87   1
M  ISO  4   1 100  68 101  83 101  86 100
M  END
> <chiral flag>
0

> <version>
0

> <s_m_source_file>
/data/baiqing/PycharmProjects/Reinvent-master-3.2/result/LINK_invent/BTK/process_docking_weight1_custom_sum_contain_oxygen_bond_distance_aromatic_linkinvent_7_9_3/rearranged_h_0088.sdf

> <i_m_source_file_index>
90

> <r_mmod_Potential_Energy-OPLS-2005>
-98.6906967163086

> <r_mmod_Stretch_Energy-OPLS-2005>
146.513229370117

> <r_mmod_Bend_Energy-OPLS-2005>
223.91145324707

> <r_mmod_Torsional_Energy-OPLS-2005>
233.232330322266

> <r_mmod_Improper_Torsional_Energy-OPLS-2005>
4.22897005081177

> <r_mmod_Van_der_Waal_Energy-OPLS-2005>
154.549087524414

> <r_mmod_Electrostatic_Energy-OPLS-2005>
-454.261352539062

> <r_mmod_Solvation_Energy-OPLS-2005>
-493.882446289062

> <b_mmod_Minimization_Converged-OPLS-2005>
0

> <r_mmod_RMS_Derivative-OPLS-2005>
2.32486367225647

$$$$
92
                    3D
 Structure written by MMmdl.
167175  0  0  1  0            999 V2000
  -30.6033  -14.7318   20.4693 C   0  0  0  0  0  0
  -30.4458  -12.4495   19.4371 C   0  0  0  0  0  0
  -29.5105  -12.4870   18.2089 C   0  0  0  0  0  0
  -28.0398  -12.3005   18.6404 C   0  0  0  0  0  0
  -27.6435  -13.2122   19.8361 C   0  0  2  0  0  0
  -28.6967  -13.1482   20.9634 C   0  0  0  0  0  0
  -25.2563  -13.8158   20.5677 C   0  0  0  0  0  0
  -24.1830  -13.0409   20.9225 C   0  0  0  0  0  0
  -24.6397  -11.6896   20.8730 C   0  0  0  0  0  0
  -23.9054  -10.4286   21.0382 C   0  0  0  0  0  0
  -24.3612   -9.4216   21.9160 C   0  0  0  0  0  0
  -23.6304   -8.2240   22.0721 C   0  0  0  0  0  0
  -22.4284   -8.0269   21.3521 C   0  0  0  0  0  0
  -21.9923   -9.0228   20.4614 C   0  0  0  0  0  0
  -22.7228  -10.2122   20.3034 C   0  0  0  0  0  0
  -21.6856   -6.0753   22.5283 C   0  0  0  0  0  0
  -21.4007   -6.5654   23.8218 C   0  0  0  0  0  0
  -21.3659   -5.6792   24.9180 C   0  0  0  0  0  0
  -21.6059   -4.3059   24.7210 C   0  0  0  0  0  0
  -21.8825   -3.8160   23.4325 C   0  0  0  0  0  0
  -21.9187   -4.6990   22.3391 C   0  0  0  0  0  0
  -22.7872  -13.5228   21.1900 C   0  0  0  0  0  0
  -22.1653   -4.2194   21.0960 F   0  0  0  0  0  0
  -21.5641   -3.4526   25.7712 F   0  0  0  0  0  0
  -29.9911  -13.5055   20.3647 N   0  0  0  0  0  0
  -26.2960  -12.9322   20.3225 N   0  0  0  0  0  0
  -25.9323  -11.6491   20.5717 N   0  0  0  0  0  0
  -22.0484  -12.8188   22.0433 N   0  0  0  0  0  0
  -25.4195  -15.1871   20.4105 N   0  0  0  0  0  0
  -31.8179  -14.8487   20.2991 O   0  0  0  0  0  0
  -21.6636   -6.8878   21.4237 O   0  0  0  0  0  0
  -22.3578  -14.5548   20.6786 O   0  0  0  0  0  0
  -24.6301  -31.8580   23.2017 C   0  0  0  0  0  0
  -25.9129  -32.4758   23.8369 C   0  0  1  0  0  0
  -27.2133  -27.2799   20.1264 C   0  0  0  0  0  0
  -25.5918  -33.8561   24.2305 N   0  0  0  0  0  0
  -23.4261  -30.4791   21.5505 C   0  0  2  0  0  0
  -24.8667  -28.9408   20.1006 C   0  0  0  0  0  0
  -22.7562  -29.4549   22.5004 C   0  0  0  0  0  0
  -18.0308  -28.1294   22.8526 C   0  0  0  0  0  0
  -24.1477  -36.7291   23.2669 C   0  0  0  0  0  0
  -25.9682  -30.7746   21.3784 C   0  0  0  0  0  0
  -26.0360  -29.4035   20.7150 C   0  0  0  0  0  0
  -27.2102  -28.5872   20.7148 C   0  0  0  0  0  0
  -26.0239  -26.8918   19.4645 C   0  0  0  0  0  0
  -24.8675  -27.6951   19.4553 C   0  0  0  0  0  0
  -23.6355  -29.8250   20.1593 C   0  0  0  0  0  0
  -25.4087  -36.3087   24.0388 C   0  0  1  0  0  0
  -20.5925  -28.3596   23.1325 C   0  0  2  0  0  0
  -20.6783  -26.9321   22.5432 C   0  0  0  0  0  0
  -19.5716  -26.6311   21.5266 C   0  0  0  0  0  0
  -18.1908  -26.7839   22.1679 C   0  0  0  0  0  0
  -19.1567  -28.8782   23.2896 C   0  0  0  0  0  0
  -18.9471  -30.1411   23.8853 C   0  0  0  0  0  0
  -17.6461  -30.6507   24.0537 C   0  0  0  0  0  0
  -25.9032  -34.9447   23.5153 C   0  0  0  0  0  0
  -16.5360  -29.8991   23.6317 C   0  0  0  0  0  0
  -16.7301  -28.6419   23.0339 C   0  0  0  0  0  0
  -26.4458  -31.6562   25.0753 C   0  0  0  0  0  0
  -25.3716  -31.3709   26.1513 C   0  0  0  0  0  0
  -27.0316  -30.2991   24.6214 C   0  0  0  0  0  0
  -27.5996  -32.4329   25.7496 C   0  0  0  0  0  0
  -27.5571  -37.1793   24.8475 C   0  0  0  0  0  0
  -21.4274  -29.2963   22.3760 N   0  0  0  0  0  0
  -26.4268  -37.3784   23.9451 N   0  0  0  0  0  0
  -24.6939  -31.0566   22.0993 N   0  0  0  0  0  0
  -23.4301  -28.8134   23.3109 O   0  0  0  0  0  0
  -28.3096  -26.3896   20.2194 O   0  0  0  0  0  0
  -26.5607  -34.8919   22.4716 O   0  0  0  0  0  0
  -23.5453  -32.1386   23.7346 O   0  0  0  0  0  0
  -29.3819  -19.6965   20.4575 C   0  0  0  0  0  0
  -29.9144  -21.0383   20.2890 C   0  0  0  0  0  0
  -31.3337  -21.1395   20.4559 C   0  0  0  0  0  0
  -30.2156  -18.5560   20.7725 C   0  0  0  0  0  0
  -32.0446  -19.9997   20.9393 C   0  0  0  0  0  0
  -33.4187  -19.9096   23.0780 C   0  0  0  0  0  0
  -33.1636  -22.2306   18.9983 C   0  0  0  0  0  0
  -32.5291  -23.2663   21.2941 C   0  0  0  0  0  0
  -28.9942  -22.2840   19.8638 C   0  0  0  0  0  0
  -33.4473  -20.0533   21.5441 C   0  0  0  0  0  0
  -29.7503  -17.1275   21.2739 C   0  0  0  0  0  0
  -29.0692  -23.7818   20.5164 C   0  0  0  0  0  0
  -28.1242  -24.9353   19.9042 C   0  0  0  0  0  0
  -32.0821  -22.4283   20.0793 C   0  0  0  0  0  0
  -31.5142  -18.7628   21.0213 N   0  0  0  0  0  0
  -29.7635  -15.8263   20.4912 N   0  0  0  0  0  0
  -30.3977  -11.4710   19.9167 H   0  0  0  0  0  0
  -31.4834  -12.5940   19.1267 H   0  0  0  0  0  0
  -29.7917  -11.7082   17.4977 H   0  0  0  0  0  0
  -29.6282  -13.4322   17.6768 H   0  0  0  0  0  0
  -27.9195  -11.2517   18.9194 H   0  0  0  0  0  0
  -27.3705  -12.4650   17.7971 H   0  0  0  0  0  0
  -27.6324  -14.2298   19.4486 H   0  0  0  0  0  0
  -28.7405  -12.1515   21.4049 H   0  0  0  0  0  0
  -28.4348  -13.8274   21.7766 H   0  0  0  0  0  0
  -25.2734   -9.5752   22.4748 H   0  0  0  0  0  0
  -24.0033   -7.4659   22.7451 H   0  0  0  0  0  0
  -21.0850   -8.8733   19.8920 H   0  0  0  0  0  0
  -22.3631  -10.9664   19.6172 H   0  0  0  0  0  0
  -21.1983   -7.6160   23.9755 H   0  0  0  0  0  0
  -21.1483   -6.0495   25.9089 H   0  0  0  0  0  0
  -22.0598   -2.7622   23.2795 H   0  0  0  0  0  0
  -22.4054  -11.9842   22.4839 H   0  0  0  0  0  0
  -21.1104  -13.1236   22.2603 H   0  0  0  0  0  0
  -24.6437  -15.8279   20.5367 H   0  0  0  0  0  0
  -26.2561  -15.6446   20.0723 H   0  0  0  0  0  0
  -26.7246  -32.5361   23.1146 H   0  0  0  0  0  0
  -25.0063  -33.9673   25.0462 H   0  0  0  0  0  0
  -22.7212  -31.3023   21.4192 H   0  0  0  0  0  0
  -23.3748  -35.9614   23.3297 H   0  0  0  0  0  0
  -24.3609  -36.8898   22.2093 H   0  0  0  0  0  0
  -23.7187  -37.6488   23.6656 H   0  0  0  0  0  0
  -26.1174  -31.5437   20.6195 H   0  0  0  0  0  0
  -26.8436  -30.8089   22.0159 H   0  0  0  0  0  0
  -28.0997  -28.9417   21.2145 H   0  0  0  0  0  0
  -25.9496  -25.9453   18.9518 H   0  0  0  0  0  0
  -23.9804  -27.3435   18.9450 H   0  0  0  0  0  0
  -23.7475  -30.6090   19.4100 H   0  0  0  0  0  0
  -22.7519  -29.2608   19.8575 H   0  0  0  0  0  0
  -25.1234  -36.1966   25.0888 H   0  0  0  0  0  0
  -21.0014  -28.3097   24.1445 H   0  0  0  0  0  0
  -20.5686  -26.2211   23.3634 H   0  0  0  0  0  0
  -21.6632  -26.7284   22.1203 H   0  0  0  0  0  0
  -19.6842  -25.6251   21.1207 H   0  0  0  0  0  0
  -19.6578  -27.3219   20.6874 H   0  0  0  0  0  0
  -17.4202  -26.6700   21.4040 H   0  0  0  0  0  0
  -18.0177  -25.9922   22.8997 H   0  0  0  0  0  0
  -19.7947  -30.7257   24.2159 H   0  0  0  0  0  0
  -17.4992  -31.6177   24.5147 H   0  0  0  0  0  0
  -15.5347  -30.2846   23.7621 H   0  0  0  0  0  0
  -15.8731  -28.0711   22.7009 H   0  0  0  0  0  0
  -24.5900  -30.7003   25.7921 H   0  0  0  0  0  0
  -24.8879  -32.2866   26.4924 H   0  0  0  0  0  0
  -25.8082  -30.8947   27.0304 H   0  0  0  0  0  0
  -26.2910  -29.6764   24.1182 H   0  0  0  0  0  0
  -27.3987  -29.7186   25.4684 H   0  0  0  0  0  0
  -27.8775  -30.4289   23.9467 H   0  0  0  0  0  0
  -27.2569  -33.3661   26.1972 H   0  0  0  0  0  0
  -28.3797  -32.6848   25.0309 H   0  0  0  0  0  0
  -28.0654  -31.8532   26.5470 H   0  0  0  0  0  0
  -28.2571  -38.0107   24.7536 H   0  0  0  0  0  0
  -28.1059  -36.2630   24.6228 H   0  0  0  0  0  0
  -27.2310  -37.1382   25.8885 H   0  0  0  0  0  0
  -20.9510  -29.8785   21.7017 H   0  0  0  0  0  0
  -26.0153  -38.2876   24.1422 H   0  0  0  0  0  0
  -28.3131  -19.5484   20.3756 H   0  0  0  0  0  0
  -34.4141  -20.0449   23.4992 H   0  0  0  0  0  0
  -33.0798  -18.9129   23.3602 H   0  0  0  0  0  0
  -32.7588  -20.6397   23.5493 H   0  0  0  0  0  0
  -32.7382  -21.7865   18.0964 H   0  0  0  0  0  0
  -34.0078  -21.6124   19.2947 H   0  0  0  0  0  0
  -33.5663  -23.1979   18.7007 H   0  0  0  0  0  0
  -32.8550  -24.2552   20.9675 H   0  0  0  0  0  0
  -33.3478  -22.8366   21.8648 H   0  0  0  0  0  0
  -31.7096  -23.4100   21.9970 H   0  0  0  0  0  0
  -27.9621  -21.9505   19.9710 H   0  0  0  0  0  0
  -29.1219  -22.3889   18.7843 H   0  0  0  0  0  0
  -33.9929  -20.9548   21.3011 H   0  0  0  0  0  0
  -34.0378  -19.2462   21.1136 H   0  0  0  0  0  0
  -28.7167  -17.2594   21.5940 H   0  0  0  0  0  0
  -30.2916  -16.9360   22.2032 H   0  0  0  0  0  0
  -30.0683  -24.2026   20.4927 H   0  0  0  0  0  0
  -28.8422  -23.6963   21.5798 H   0  0  0  0  0  0
  -27.1169  -24.6366   20.1946 H   0  0  0  0  0  0
  -28.1683  -24.8654   18.8161 H   0  0  0  0  0  0
  -31.3982  -23.0508   19.5239 H   0  0  0  0  0  0
  -28.8268  -15.5714   20.2318 H   0  0  0  0  0  0
  1 25  1  0  0  0
  1 30  2  0  0  0
  1 86  1  0  0  0
  2  3  1  0  0  0
  2 25  1  0  0  0
  2 87  1  0  0  0
  2 88  1  0  0  0
  3  4  1  0  0  0
  3 89  1  0  0  0
  3 90  1  0  0  0
  4  5  1  0  0  0
  4 91  1  0  0  0
  4 92  1  0  0  0
  5  6  1  0  0  0
  5 26  1  0  0  0
  5 93  1  0  0  0
  6 25  1  0  0  0
  6 94  1  0  0  0
  6 95  1  0  0  0
  7  8  2  0  0  0
  7 26  1  0  0  0
  7 29  1  0  0  0
  8  9  1  0  0  0
  8 22  1  0  0  0
  9 10  1  0  0  0
  9 27  2  0  0  0
 10 11  2  0  0  0
 10 15  1  0  0  0
 11 12  1  0  0  0
 11 96  1  0  0  0
 12 13  2  0  0  0
 12 97  1  0  0  0
 13 14  1  0  0  0
 13 31  1  0  0  0
 14 15  2  0  0  0
 14 98  1  0  0  0
 15 99  1  0  0  0
 16 17  2  0  0  0
 16 21  1  0  0  0
 16 31  1  0  0  0
 17 18  1  0  0  0
 17100  1  0  0  0
 18 19  2  0  0  0
 18101  1  0  0  0
 19 20  1  0  0  0
 19 24  1  0  0  0
 20 21  2  0  0  0
 20102  1  0  0  0
 21 23  1  0  0  0
 22 28  1  0  0  0
 22 32  2  0  0  0
 26 27  1  0  0  0
 28103  1  0  0  0
 28104  1  0  0  0
 29105  1  0  0  0
 29106  1  0  0  0
 33 34  1  0  0  0
 33 66  1  0  0  0
 33 70  2  0  0  0
 34 36  1  0  0  0
 34 59  1  0  0  0
 34107  1  0  0  0
 35 44  2  0  0  0
 35 45  1  0  0  0
 35 68  1  0  0  0
 36 56  1  0  0  0
 36108  1  0  0  0
 37 39  1  0  0  0
 37 47  1  0  0  0
 37 66  1  0  0  0
 37109  1  0  0  0
 38 43  2  0  0  0
 38 46  1  0  0  0
 38 47  1  0  0  0
 39 64  1  0  0  0
 39 67  2  0  0  0
 40 52  1  0  0  0
 40 53  2  0  0  0
 40 58  1  0  0  0
 41110  1  0  0  0
 41111  1  0  0  0
 41112  1  0  0  0
 41 48  1  0  0  0
 42 43  1  0  0  0
 42 66  1  0  0  0
 42113  1  0  0  0
 42114  1  0  0  0
 43 44  1  0  0  0
 44115  1  0  0  0
 45 46  2  0  0  0
 45116  1  0  0  0
 46117  1  0  0  0
 47118  1  0  0  0
 47119  1  0  0  0
 48 56  1  0  0  0
 48 65  1  0  0  0
 48120  1  0  0  0
 49 50  1  0  0  0
 49 53  1  0  0  0
 49 64  1  0  0  0
 49121  1  0  0  0
 50 51  1  0  0  0
 50122  1  0  0  0
 50123  1  0  0  0
 51 52  1  0  0  0
 51124  1  0  0  0
 51125  1  0  0  0
 52126  1  0  0  0
 52127  1  0  0  0
 53 54  1  0  0  0
 54 55  2  0  0  0
 54128  1  0  0  0
 55 57  1  0  0  0
 55129  1  0  0  0
 56 69  2  0  0  0
 57 58  2  0  0  0
 57130  1  0  0  0
 58131  1  0  0  0
 59 60  1  0  0  0
 59 61  1  0  0  0
 59 62  1  0  0  0
 60132  1  0  0  0
 60133  1  0  0  0
 60134  1  0  0  0
 61135  1  0  0  0
 61136  1  0  0  0
 61137  1  0  0  0
 62138  1  0  0  0
 62139  1  0  0  0
 62140  1  0  0  0
 63 65  1  0  0  0
 63141  1  0  0  0
 63142  1  0  0  0
 63143  1  0  0  0
 64144  1  0  0  0
 65145  1  0  0  0
 68 83  1  0  0  0
 71 72  2  0  0  0
 71 74  1  0  0  0
 71146  1  0  0  0
 72 73  1  0  0  0
 72 79  1  0  0  0
 73 75  2  0  0  0
 73 84  1  0  0  0
 74 81  1  0  0  0
 74 85  2  0  0  0
 75 80  1  0  0  0
 75 85  1  0  0  0
 76 80  1  0  0  0
 76147  1  0  0  0
 76148  1  0  0  0
 76149  1  0  0  0
 77150  1  0  0  0
 77151  1  0  0  0
 77152  1  0  0  0
 77 84  1  0  0  0
 78 84  1  0  0  0
 78153  1  0  0  0
 78154  1  0  0  0
 78155  1  0  0  0
 79 82  1  0  0  0
 79156  1  0  0  0
 79157  1  0  0  0
 80158  1  0  0  0
 80159  1  0  0  0
 81 86  1  0  0  0
 81160  1  0  0  0
 81161  1  0  0  0
 82 83  1  0  0  0
 82162  1  0  0  0
 82163  1  0  0  0
 83164  1  0  0  0
 83165  1  0  0  0
 84166  1  0  0  0
 86167  1  0  0  0
M  ISO  4   1 100  68 101  83 101  86 100
M  END
> <chiral flag>
0

> <version>
0

> <s_m_source_file>
/data/baiqing/PycharmProjects/Reinvent-master-3.2/result/LINK_invent/BTK/process_docking_weight1_custom_sum_contain_oxygen_bond_distance_aromatic_linkinvent_7_9_3/rearranged_h_0088.sdf

> <i_m_source_file_index>
91

> <r_mmod_Potential_Energy-OPLS-2005>
-48.3581275939941

> <r_mmod_Stretch_Energy-OPLS-2005>
118.850471496582

> <r_mmod_Bend_Energy-OPLS-2005>
202.31803894043

> <r_mmod_Torsional_Energy-OPLS-2005>
246.208786010742

> <r_mmod_Improper_Torsional_Energy-OPLS-2005>
11.09703540802

> <r_mmod_Van_der_Waal_Energy-OPLS-2005>
151.548492431641

> <r_mmod_Electrostatic_Energy-OPLS-2005>
-628.933227539062

> <r_mmod_Solvation_Energy-OPLS-2005>
-235.899627685547

> <b_mmod_Minimization_Converged-OPLS-2005>
0

> <r_mmod_RMS_Derivative-OPLS-2005>
5.0970630645752

$$$$
93
                    3D
 Structure written by MMmdl.
175183  0  0  1  0            999 V2000
  -30.6775  -14.5478   20.5088 C   0  0  0  0  0  0
  -30.4276  -12.3319   19.4374 C   0  0  0  0  0  0
  -29.4921  -12.4897   18.2162 C   0  0  0  0  0  0
  -28.0110  -12.3467   18.6276 C   0  0  0  0  0  0
  -27.6551  -13.2034   19.8719 C   0  0  2  0  0  0
  -28.7075  -12.9861   20.9822 C   0  0  0  0  0  0
  -25.2528  -13.8130   20.5705 C   0  0  0  0  0  0
  -24.1772  -13.0419   20.9185 C   0  0  0  0  0  0
  -24.6325  -11.6893   20.8756 C   0  0  0  0  0  0
  -23.9007  -10.4291   21.0390 C   0  0  0  0  0  0
  -24.3583   -9.4229   21.9173 C   0  0  0  0  0  0
  -23.6269   -8.2266   22.0760 C   0  0  0  0  0  0
  -22.4270   -8.0288   21.3533 C   0  0  0  0  0  0
  -21.9873   -9.0246   20.4651 C   0  0  0  0  0  0
  -22.7176  -10.2129   20.3037 C   0  0  0  0  0  0
  -21.6867   -6.0736   22.5277 C   0  0  0  0  0  0
  -21.4019   -6.5642   23.8213 C   0  0  0  0  0  0
  -21.3666   -5.6800   24.9168 C   0  0  0  0  0  0
  -21.6063   -4.3064   24.7230 C   0  0  0  0  0  0
  -21.8822   -3.8143   23.4354 C   0  0  0  0  0  0
  -21.9189   -4.6951   22.3405 C   0  0  0  0  0  0
  -22.7797  -13.5247   21.1833 C   0  0  0  0  0  0
  -22.1662   -4.2145   21.0969 F   0  0  0  0  0  0
  -21.5636   -3.4538   25.7739 F   0  0  0  0  0  0
  -30.0234  -13.3437   20.4331 N   0  0  0  0  0  0
  -26.2990  -12.9314   20.3411 N   0  0  0  0  0  0
  -25.9256  -11.6479   20.5819 N   0  0  0  0  0  0
  -22.0439  -12.8290   22.0410 N   0  0  0  0  0  0
  -25.4149  -15.1848   20.4113 N   0  0  0  0  0  0
  -31.8657  -14.6006   20.1843 O   0  0  0  0  0  0
  -21.6653   -6.8868   21.4241 O   0  0  0  0  0  0
  -22.3489  -14.5537   20.6639 O   0  0  0  0  0  0
  -24.6169  -31.8668   23.2089 C   0  0  0  0  0  0
  -25.9049  -32.4822   23.8391 C   0  0  1  0  0  0
  -27.2315  -27.4190   20.1028 C   0  0  0  0  0  0
  -25.5905  -33.8621   24.2317 N   0  0  0  0  0  0
  -23.4055  -30.4887   21.5516 C   0  0  2  0  0  0
  -24.8521  -28.9536   20.1139 C   0  0  0  0  0  0
  -22.7429  -29.4649   22.5014 C   0  0  0  0  0  0
  -18.0271  -28.1377   22.8494 C   0  0  0  0  0  0
  -24.1486  -36.7319   23.2631 C   0  0  0  0  0  0
  -25.9355  -30.8279   21.3642 C   0  0  0  0  0  0
  -26.0133  -29.4626   20.7096 C   0  0  0  0  0  0
  -27.2100  -28.7050   20.6956 C   0  0  0  0  0  0
  -26.0561  -26.9345   19.4909 C   0  0  0  0  0  0
  -24.8701  -27.6915   19.4962 C   0  0  0  0  0  0
  -23.6130  -29.8197   20.1669 C   0  0  0  0  0  0
  -25.4106  -36.3112   24.0331 C   0  0  1  0  0  0
  -20.5865  -28.3665   23.1330 C   0  0  2  0  0  0
  -20.6769  -26.9405   22.5425 C   0  0  0  0  0  0
  -19.5743  -26.6381   21.5225 C   0  0  0  0  0  0
  -18.1915  -26.7924   22.1626 C   0  0  0  0  0  0
  -19.1515  -28.8838   23.2903 C   0  0  0  0  0  0
  -18.9445  -30.1450   23.8907 C   0  0  0  0  0  0
  -17.6446  -30.6590   24.0563 C   0  0  0  0  0  0
  -25.9036  -34.9477   23.5121 C   0  0  0  0  0  0
  -16.5341  -29.9089   23.6333 C   0  0  0  0  0  0
  -16.7257  -28.6506   23.0349 C   0  0  0  0  0  0
  -26.4466  -31.6607   25.0730 C   0  0  0  0  0  0
  -25.3728  -31.3722   26.1479 C   0  0  0  0  0  0
  -27.0291  -30.3046   24.6113 C   0  0  0  0  0  0
  -27.6037  -32.4336   25.7496 C   0  0  0  0  0  0
  -27.5590  -37.1800   24.8449 C   0  0  0  0  0  0
  -21.4153  -29.3025   22.3741 N   0  0  0  0  0  0
  -26.4289  -37.3805   23.9412 N   0  0  0  0  0  0
  -24.6707  -31.0760   22.0995 N   0  0  0  0  0  0
  -23.4189  -28.8191   23.3062 O   0  0  0  0  0  0
  -28.3783  -26.6508   20.1017 O   0  0  0  0  0  0
  -26.5605  -34.8930   22.4683 O   0  0  0  0  0  0
  -23.5363  -32.1423   23.7484 O   0  0  0  0  0  0
  -27.7576  -21.4996   19.4249 C   0  0  0  0  0  0
  -27.5374  -20.3229   18.6882 C   0  0  0  0  0  0
  -29.8370  -20.5643   20.2594 C   0  0  0  0  0  0
  -28.9147  -21.6443   20.2088 C   0  0  0  0  0  0
  -28.4563  -19.2467   18.7209 C   0  0  0  0  0  0
  -29.6243  -19.3562   19.5337 C   0  0  0  0  0  0
  -28.6948  -18.2525   16.3939 C   0  0  0  0  0  0
  -26.7129  -17.5848   17.8305 C   0  0  0  0  0  0
  -28.8197  -16.0215   21.7295 C   0  0  0  0  0  0
  -30.6715  -24.7745   20.2016 C   0  0  0  0  0  0
  -30.9535  -17.9279   22.0775 C   0  0  0  0  0  0
  -29.1105  -22.9340   21.0233 C   0  0  0  0  0  0
  -30.7325  -18.2748   19.5217 C   0  0  0  0  0  0
  -28.2664  -25.3770   20.7747 C   0  0  0  0  0  0
  -28.1845  -18.0292   17.8266 C   0  0  0  0  0  0
  -29.9276  -15.9395   20.6555 C   0  0  1  0  0  0
  -29.2149  -24.2733   20.2151 C   0  0  1  0  0  0
  -30.8552  -17.2401   20.6990 C   0  0  2  0  0  0
  -31.4687  -12.4294   19.1273 H   0  0  0  0  0  0
  -30.3433  -11.3252   19.8533 H   0  0  0  0  0  0
  -29.7360  -11.7525   17.4504 H   0  0  0  0  0  0
  -29.6488  -13.4649   17.7545 H   0  0  0  0  0  0
  -27.8251  -11.2915   18.8355 H   0  0  0  0  0  0
  -27.3569  -12.6058   17.7948 H   0  0  0  0  0  0
  -27.6903  -14.2454   19.5513 H   0  0  0  0  0  0
  -28.7047  -11.9332   21.2671 H   0  0  0  0  0  0
  -28.4833  -13.5005   21.9119 H   0  0  0  0  0  0
  -25.2723   -9.5734   22.4746 H   0  0  0  0  0  0
  -23.9984   -7.4679   22.7486 H   0  0  0  0  0  0
  -21.0796   -8.8705   19.8979 H   0  0  0  0  0  0
  -22.3577  -10.9637   19.6153 H   0  0  0  0  0  0
  -21.1992   -7.6152   23.9700 H   0  0  0  0  0  0
  -21.1503   -6.0543   25.9077 H   0  0  0  0  0  0
  -22.0573   -2.7603   23.2858 H   0  0  0  0  0  0
  -22.4014  -11.9966   22.4857 H   0  0  0  0  0  0
  -21.1052  -13.1333   22.2561 H   0  0  0  0  0  0
  -24.6484  -15.8307   20.5572 H   0  0  0  0  0  0
  -26.2734  -15.6407   20.1342 H   0  0  0  0  0  0
  -26.7122  -32.5526   23.1159 H   0  0  0  0  0  0
  -25.0066  -33.9780   25.0470 H   0  0  0  0  0  0
  -22.6947  -31.3057   21.4137 H   0  0  0  0  0  0
  -23.3759  -35.9641   23.3275 H   0  0  0  0  0  0
  -24.3589  -36.8960   22.2051 H   0  0  0  0  0  0
  -23.7222  -37.6509   23.6665 H   0  0  0  0  0  0
  -26.0511  -31.5946   20.5972 H   0  0  0  0  0  0
  -26.8219  -30.8797   21.9842 H   0  0  0  0  0  0
  -28.1091  -29.0943   21.1505 H   0  0  0  0  0  0
  -26.0574  -25.9692   19.0047 H   0  0  0  0  0  0
  -23.9799  -27.3000   19.0226 H   0  0  0  0  0  0
  -23.7145  -30.5927   19.4053 H   0  0  0  0  0  0
  -22.7373  -29.2363   19.8771 H   0  0  0  0  0  0
  -25.1279  -36.1974   25.0828 H   0  0  0  0  0  0
  -20.9940  -28.3219   24.1458 H   0  0  0  0  0  0
  -20.5696  -26.2263   23.3602 H   0  0  0  0  0  0
  -21.6635  -26.7459   22.1200 H   0  0  0  0  0  0
  -19.6903  -25.6291   21.1248 H   0  0  0  0  0  0
  -19.6687  -27.3199   20.6759 H   0  0  0  0  0  0
  -17.4196  -26.6687   21.4021 H   0  0  0  0  0  0
  -18.0302  -26.0064   22.9014 H   0  0  0  0  0  0
  -19.7921  -30.7267   24.2280 H   0  0  0  0  0  0
  -17.5000  -31.6270   24.5156 H   0  0  0  0  0  0
  -15.5340  -30.2989   23.7650 H   0  0  0  0  0  0
  -15.8657  -28.0826   22.7060 H   0  0  0  0  0  0
  -24.5888  -30.7086   25.7814 H   0  0  0  0  0  0
  -24.8936  -32.2884   26.4942 H   0  0  0  0  0  0
  -25.8077  -30.8875   27.0227 H   0  0  0  0  0  0
  -26.2834  -29.6830   24.1147 H   0  0  0  0  0  0
  -27.4026  -29.7269   25.4576 H   0  0  0  0  0  0
  -27.8686  -30.4358   23.9283 H   0  0  0  0  0  0
  -27.2641  -33.3621   26.2098 H   0  0  0  0  0  0
  -28.3830  -32.6927   25.0317 H   0  0  0  0  0  0
  -28.0722  -31.8451   26.5393 H   0  0  0  0  0  0
  -28.2570  -38.0138   24.7574 H   0  0  0  0  0  0
  -28.1129  -36.2678   24.6179 H   0  0  0  0  0  0
  -27.2321  -37.1333   25.8853 H   0  0  0  0  0  0
  -20.9328  -29.8743   21.6953 H   0  0  0  0  0  0
  -26.0179  -38.2876   24.1456 H   0  0  0  0  0  0
  -27.0321  -22.2999   19.3813 H   0  0  0  0  0  0
  -26.6515  -20.2697   18.0735 H   0  0  0  0  0  0
  -30.7354  -20.6698   20.8513 H   0  0  0  0  0  0
  -29.7675  -18.4537   16.3821 H   0  0  0  0  0  0
  -28.1930  -19.0950   15.9174 H   0  0  0  0  0  0
  -28.5217  -17.3698   15.7757 H   0  0  0  0  0  0
  -26.3459  -17.4697   18.8506 H   0  0  0  0  0  0
  -26.5952  -16.6215   17.3298 H   0  0  0  0  0  0
  -26.0656  -18.2941   17.3153 H   0  0  0  0  0  0
  -27.9221  -15.4907   21.4367 H   0  0  0  0  0  0
  -28.4773  -17.0444   21.8753 H   0  0  0  0  0  0
  -29.1612  -15.6355   22.6902 H   0  0  0  0  0  0
  -31.3558  -23.9964   19.8596 H   0  0  0  0  0  0
  -30.9919  -25.0827   21.1987 H   0  0  0  0  0  0
  -30.7931  -25.6322   19.5394 H   0  0  0  0  0  0
  -31.7962  -18.6200   22.1009 H   0  0  0  0  0  0
  -31.1062  -17.1979   22.8737 H   0  0  0  0  0  0
  -30.0597  -18.5069   22.3131 H   0  0  0  0  0  0
  -29.9767  -22.8207   21.6779 H   0  0  0  0  0  0
  -28.2599  -22.9924   21.7051 H   0  0  0  0  0  0
  -31.6629  -18.8469   19.5144 H   0  0  0  0  0  0
  -30.7731  -17.7600   18.5624 H   0  0  0  0  0  0
  -28.4861  -25.5484   21.8300 H   0  0  0  0  0  0
  -27.2462  -24.9919   20.7523 H   0  0  0  0  0  0
  -28.7219  -17.1763   18.2154 H   0  0  0  0  0  0
  -29.4025  -15.9796   19.7120 H   0  0  0  0  0  0
  -28.9079  -24.0867   19.1837 H   0  0  0  0  0  0
  -31.8763  -16.8940   20.5546 H   0  0  0  0  0  0
  1 25  1  0  0  0
  1 30  2  0  0  0
  1 86  1  0  0  0
  2  3  1  0  0  0
  2 25  1  0  0  0
  2 89  1  0  0  0
  2 90  1  0  0  0
  3  4  1  0  0  0
  3 91  1  0  0  0
  3 92  1  0  0  0
  4  5  1  0  0  0
  4 93  1  0  0  0
  4 94  1  0  0  0
  5  6  1  0  0  0
  5 26  1  0  0  0
  5 95  1  0  0  0
  6 25  1  0  0  0
  6 96  1  0  0  0
  6 97  1  0  0  0
  7  8  2  0  0  0
  7 26  1  0  0  0
  7 29  1  0  0  0
  8  9  1  0  0  0
  8 22  1  0  0  0
  9 10  1  0  0  0
  9 27  2  0  0  0
 10 11  2  0  0  0
 10 15  1  0  0  0
 11 12  1  0  0  0
 11 98  1  0  0  0
 12 13  2  0  0  0
 12 99  1  0  0  0
 13 14  1  0  0  0
 13 31  1  0  0  0
 14 15  2  0  0  0
 14100  1  0  0  0
 15101  1  0  0  0
 16 17  2  0  0  0
 16 21  1  0  0  0
 16 31  1  0  0  0
 17 18  1  0  0  0
 17102  1  0  0  0
 18 19  2  0  0  0
 18103  1  0  0  0
 19 20  1  0  0  0
 19 24  1  0  0  0
 20 21  2  0  0  0
 20104  1  0  0  0
 21 23  1  0  0  0
 22 28  1  0  0  0
 22 32  2  0  0  0
 26 27  1  0  0  0
 28105  1  0  0  0
 28106  1  0  0  0
 29107  1  0  0  0
 29108  1  0  0  0
 33 34  1  0  0  0
 33 66  1  0  0  0
 33 70  2  0  0  0
 34 36  1  0  0  0
 34 59  1  0  0  0
 34109  1  0  0  0
 35 44  2  0  0  0
 35 45  1  0  0  0
 35 68  1  0  0  0
 36 56  1  0  0  0
 36110  1  0  0  0
 37 39  1  0  0  0
 37 47  1  0  0  0
 37 66  1  0  0  0
 37111  1  0  0  0
 38 43  2  0  0  0
 38 46  1  0  0  0
 38 47  1  0  0  0
 39 64  1  0  0  0
 39 67  2  0  0  0
 40 52  1  0  0  0
 40 53  2  0  0  0
 40 58  1  0  0  0
 41112  1  0  0  0
 41113  1  0  0  0
 41114  1  0  0  0
 41 48  1  0  0  0
 42 43  1  0  0  0
 42 66  1  0  0  0
 42115  1  0  0  0
 42116  1  0  0  0
 43 44  1  0  0  0
 44117  1  0  0  0
 45 46  2  0  0  0
 45118  1  0  0  0
 46119  1  0  0  0
 47120  1  0  0  0
 47121  1  0  0  0
 48 56  1  0  0  0
 48 65  1  0  0  0
 48122  1  0  0  0
 49 50  1  0  0  0
 49 53  1  0  0  0
 49 64  1  0  0  0
 49123  1  0  0  0
 50 51  1  0  0  0
 50124  1  0  0  0
 50125  1  0  0  0
 51 52  1  0  0  0
 51126  1  0  0  0
 51127  1  0  0  0
 52128  1  0  0  0
 52129  1  0  0  0
 53 54  1  0  0  0
 54 55  2  0  0  0
 54130  1  0  0  0
 55 57  1  0  0  0
 55131  1  0  0  0
 56 69  2  0  0  0
 57 58  2  0  0  0
 57132  1  0  0  0
 58133  1  0  0  0
 59 60  1  0  0  0
 59 61  1  0  0  0
 59 62  1  0  0  0
 60134  1  0  0  0
 60135  1  0  0  0
 60136  1  0  0  0
 61137  1  0  0  0
 61138  1  0  0  0
 61139  1  0  0  0
 62140  1  0  0  0
 62141  1  0  0  0
 62142  1  0  0  0
 63 65  1  0  0  0
 63143  1  0  0  0
 63144  1  0  0  0
 63145  1  0  0  0
 64146  1  0  0  0
 65147  1  0  0  0
 68 84  1  0  0  0
 71 72  2  0  0  0
 71 74  1  0  0  0
 71148  1  0  0  0
 72 75  1  0  0  0
 72149  1  0  0  0
 73 74  2  0  0  0
 73 76  1  0  0  0
 73150  1  0  0  0
 74 82  1  0  0  0
 75 76  2  0  0  0
 75 85  1  0  0  0
 76 83  1  0  0  0
 77151  1  0  0  0
 77152  1  0  0  0
 77153  1  0  0  0
 77 85  1  0  0  0
 78 85  1  0  0  0
 78154  1  0  0  0
 78155  1  0  0  0
 78156  1  0  0  0
 79157  1  0  0  0
 79158  1  0  0  0
 79159  1  0  0  0
 79 86  1  0  0  0
 80160  1  0  0  0
 80161  1  0  0  0
 80162  1  0  0  0
 80 87  1  0  0  0
 81163  1  0  0  0
 81164  1  0  0  0
 81165  1  0  0  0
 81 88  1  0  0  0
 82 87  1  0  0  0
 82166  1  0  0  0
 82167  1  0  0  0
 83 88  1  0  0  0
 83168  1  0  0  0
 83169  1  0  0  0
 84 87  1  0  0  0
 84170  1  0  0  0
 84171  1  0  0  0
 85172  1  0  0  0
 86 88  1  0  0  0
 86173  1  0  0  0
 87174  1  0  0  0
 88175  1  0  0  0
M  ISO  4   1 100  68 101  84 101  86 100
M  END
> <chiral flag>
0

> <version>
0

> <s_m_source_file>
/data/baiqing/PycharmProjects/Reinvent-master-3.2/result/LINK_invent/BTK/process_docking_weight1_custom_sum_contain_oxygen_bond_distance_aromatic_linkinvent_7_9_3/rearranged_h_0088.sdf

> <i_m_source_file_index>
92

> <r_mmod_Potential_Energy-OPLS-2005>
118.959945678711

> <r_mmod_Stretch_Energy-OPLS-2005>
58.287971496582

> <r_mmod_Bend_Energy-OPLS-2005>
138.278839111328

> <r_mmod_Torsional_Energy-OPLS-2005>
237.876678466797

> <r_mmod_Improper_Torsional_Energy-OPLS-2005>
8.17757511138916

> <r_mmod_Van_der_Waal_Energy-OPLS-2005>
155.364700317383

> <r_mmod_Electrostatic_Energy-OPLS-2005>
-329.884033203125

> <r_mmod_Solvation_Energy-OPLS-2005>
-171.823120117188

> <b_mmod_Minimization_Converged-OPLS-2005>
0

> <r_mmod_RMS_Derivative-OPLS-2005>
3.60218906402588

$$$$
94
                    3D
 Structure written by MMmdl.
174182  0  0  1  0            999 V2000
  -30.6658  -14.5812   20.5244 C   0  0  0  0  0  0
  -30.4283  -12.3583   19.4546 C   0  0  0  0  0  0
  -29.5062  -12.4928   18.2243 C   0  0  0  0  0  0
  -28.0285  -12.3409   18.6377 C   0  0  0  0  0  0
  -27.6540  -13.2154   19.8654 C   0  0  2  0  0  0
  -28.6966  -13.0681   20.9965 C   0  0  0  0  0  0
  -25.2581  -13.8154   20.5718 C   0  0  0  0  0  0
  -24.1841  -13.0432   20.9190 C   0  0  0  0  0  0
  -24.6399  -11.6891   20.8741 C   0  0  0  0  0  0
  -23.9071  -10.4280   21.0397 C   0  0  0  0  0  0
  -24.3616   -9.4199   21.9178 C   0  0  0  0  0  0
  -23.6289   -8.2248   22.0754 C   0  0  0  0  0  0
  -22.4273   -8.0289   21.3545 C   0  0  0  0  0  0
  -21.9910   -9.0263   20.4646 C   0  0  0  0  0  0
  -22.7242  -10.2131   20.3052 C   0  0  0  0  0  0
  -21.6866   -6.0734   22.5278 C   0  0  0  0  0  0
  -21.4015   -6.5635   23.8207 C   0  0  0  0  0  0
  -21.3664   -5.6787   24.9173 C   0  0  0  0  0  0
  -21.6040   -4.3048   24.7222 C   0  0  0  0  0  0
  -21.8828   -3.8144   23.4345 C   0  0  0  0  0  0
  -21.9184   -4.6959   22.3395 C   0  0  0  0  0  0
  -22.7859  -13.5214   21.1867 C   0  0  0  0  0  0
  -22.1659   -4.2138   21.0977 F   0  0  0  0  0  0
  -21.5625   -3.4534   25.7742 F   0  0  0  0  0  0
  -30.0172  -13.3838   20.4312 N   0  0  0  0  0  0
  -26.3003  -12.9344   20.3347 N   0  0  0  0  0  0
  -25.9318  -11.6489   20.5743 N   0  0  0  0  0  0
  -22.0513  -12.8219   22.0442 N   0  0  0  0  0  0
  -25.4310  -15.1880   20.4182 N   0  0  0  0  0  0
  -31.8254  -14.7281   20.1261 O   0  0  0  0  0  0
  -21.6647   -6.8886   21.4243 O   0  0  0  0  0  0
  -22.3526  -14.5515   20.6711 O   0  0  0  0  0  0
  -24.6214  -31.8637   23.2050 C   0  0  0  0  0  0
  -25.9103  -32.4812   23.8334 C   0  0  1  0  0  0
  -27.2211  -27.3618   20.1421 C   0  0  0  0  0  0
  -25.5931  -33.8595   24.2262 N   0  0  0  0  0  0
  -23.4139  -30.4813   21.5485 C   0  0  2  0  0  0
  -24.8598  -28.9404   20.1152 C   0  0  0  0  0  0
  -22.7456  -29.4595   22.4969 C   0  0  0  0  0  0
  -18.0284  -28.1345   22.8453 C   0  0  0  0  0  0
  -24.1515  -36.7294   23.2638 C   0  0  0  0  0  0
  -25.9454  -30.8099   21.3690 C   0  0  0  0  0  0
  -26.0255  -29.4383   20.7179 C   0  0  0  0  0  0
  -27.2118  -28.6589   20.7218 C   0  0  0  0  0  0
  -26.0484  -26.9008   19.5120 C   0  0  0  0  0  0
  -24.8701  -27.6745   19.5054 C   0  0  0  0  0  0
  -23.6264  -29.8148   20.1630 C   0  0  0  0  0  0
  -25.4134  -36.3089   24.0317 C   0  0  1  0  0  0
  -20.5869  -28.3653   23.1265 C   0  0  2  0  0  0
  -20.6778  -26.9379   22.5388 C   0  0  0  0  0  0
  -19.5764  -26.6337   21.5185 C   0  0  0  0  0  0
  -18.1925  -26.7890   22.1578 C   0  0  0  0  0  0
  -19.1527  -28.8816   23.2854 C   0  0  0  0  0  0
  -18.9465  -30.1402   23.8888 C   0  0  0  0  0  0
  -17.6476  -30.6556   24.0530 C   0  0  0  0  0  0
  -25.9072  -34.9474   23.5089 C   0  0  0  0  0  0
  -16.5360  -29.9053   23.6315 C   0  0  0  0  0  0
  -16.7273  -28.6471   23.0330 C   0  0  0  0  0  0
  -26.4485  -31.6606   25.0687 C   0  0  0  0  0  0
  -25.3679  -31.3766   26.1392 C   0  0  0  0  0  0
  -27.0303  -30.3035   24.6101 C   0  0  0  0  0  0
  -27.6084  -32.4289   25.7432 C   0  0  0  0  0  0
  -27.5599  -37.1791   24.8459 C   0  0  0  0  0  0
  -21.4168  -29.3014   22.3699 N   0  0  0  0  0  0
  -26.4318  -37.3762   23.9402 N   0  0  0  0  0  0
  -24.6790  -31.0661   22.1003 N   0  0  0  0  0  0
  -23.4191  -28.8153   23.3044 O   0  0  0  0  0  0
  -28.3331  -26.5327   20.1515 O   0  0  0  0  0  0
  -26.5612  -34.8944   22.4644 O   0  0  0  0  0  0
  -23.5382  -32.1403   23.7407 O   0  0  0  0  0  0
  -29.0828  -20.6335   21.1878 C   0  0  0  0  0  0
  -27.9730  -18.7649   22.2625 C   0  0  0  0  0  0
  -28.8329  -19.2294   21.2665 C   0  0  0  0  0  0
  -28.4876  -21.5533   22.1070 C   0  0  0  0  0  0
  -27.3898  -19.6130   23.2204 C   0  0  0  0  0  0
  -27.6311  -21.0232   23.1354 C   0  0  0  0  0  0
  -26.9820  -21.9444   24.1747 C   0  0  0  0  0  0
  -29.9554  -18.7057   19.0224 C   0  0  0  0  0  0
  -26.2022  -16.8876   25.8082 C   0  0  0  0  0  0
  -25.3428  -16.8854   23.4438 C   0  0  0  0  0  0
  -28.9119  -23.0604   22.0644 C   0  0  0  0  0  0
  -26.5447  -18.9769   24.3484 C   0  0  0  0  0  0
  -28.3943  -24.0163   20.9101 C   0  0  0  0  0  0
  -30.3433  -17.0832   21.0097 C   0  0  0  0  0  0
  -28.4212  -25.5655   21.2442 C   0  0  0  0  0  0
  -29.3811  -18.1303   20.3215 C   0  0  1  0  0  0
  -26.4371  -17.4184   24.3861 C   0  0  0  0  0  0
  -29.9251  -15.6521   20.9131 N   0  0  0  0  0  0
  -31.4750  -12.4578   19.1595 H   0  0  0  0  0  0
  -30.3361  -11.3649   19.8943 H   0  0  0  0  0  0
  -29.7619  -11.7388   17.4784 H   0  0  0  0  0  0
  -29.6608  -13.4639   17.7501 H   0  0  0  0  0  0
  -27.8621  -11.2875   18.8714 H   0  0  0  0  0  0
  -27.3738  -12.5687   17.7968 H   0  0  0  0  0  0
  -27.6774  -14.2500   19.5243 H   0  0  0  0  0  0
  -28.6995  -12.0509   21.3896 H   0  0  0  0  0  0
  -28.4526  -13.7094   21.8447 H   0  0  0  0  0  0
  -25.2754   -9.5675   22.4749 H   0  0  0  0  0  0
  -23.9986   -7.4644   22.7476 H   0  0  0  0  0  0
  -21.0839   -8.8789   19.8958 H   0  0  0  0  0  0
  -22.3704  -10.9674   19.6168 H   0  0  0  0  0  0
  -21.2037   -7.6148   23.9716 H   0  0  0  0  0  0
  -21.1467   -6.0515   25.9073 H   0  0  0  0  0  0
  -22.0603   -2.7605   23.2848 H   0  0  0  0  0  0
  -22.4106  -11.9856   22.4798 H   0  0  0  0  0  0
  -21.1135  -13.1239   22.2656 H   0  0  0  0  0  0
  -24.6821  -15.8448   20.6049 H   0  0  0  0  0  0
  -26.3005  -15.6366   20.1667 H   0  0  0  0  0  0
  -26.7174  -32.5496   23.1095 H   0  0  0  0  0  0
  -25.0056  -33.9685   25.0393 H   0  0  0  0  0  0
  -22.7036  -31.2977   21.4062 H   0  0  0  0  0  0
  -23.3786  -35.9623   23.3303 H   0  0  0  0  0  0
  -24.3604  -36.8910   22.2058 H   0  0  0  0  0  0
  -23.7268  -37.6493   23.6658 H   0  0  0  0  0  0
  -26.0531  -31.5739   20.5978 H   0  0  0  0  0  0
  -26.8349  -30.8636   21.9869 H   0  0  0  0  0  0
  -28.1135  -29.0335   21.1883 H   0  0  0  0  0  0
  -26.0411  -25.9263   19.0460 H   0  0  0  0  0  0
  -23.9757  -27.2831   19.0375 H   0  0  0  0  0  0
  -23.7454  -30.5892   19.4043 H   0  0  0  0  0  0
  -22.7495  -29.2380   19.8673 H   0  0  0  0  0  0
  -25.1313  -36.1946   25.0802 H   0  0  0  0  0  0
  -20.9933  -28.3258   24.1402 H   0  0  0  0  0  0
  -20.5667  -26.2271   23.3591 H   0  0  0  0  0  0
  -21.6644  -26.7397   22.1199 H   0  0  0  0  0  0
  -19.6940  -25.6248   21.1207 H   0  0  0  0  0  0
  -19.6741  -27.3160   20.6735 H   0  0  0  0  0  0
  -17.4201  -26.6630   21.3980 H   0  0  0  0  0  0
  -18.0331  -26.0018   22.8960 H   0  0  0  0  0  0
  -19.7963  -30.7159   24.2299 H   0  0  0  0  0  0
  -17.5056  -31.6259   24.5084 H   0  0  0  0  0  0
  -15.5361  -30.2939   23.7666 H   0  0  0  0  0  0
  -15.8683  -28.0804   22.7044 H   0  0  0  0  0  0
  -24.5890  -30.7065   25.7727 H   0  0  0  0  0  0
  -24.8794  -32.2947   26.4680 H   0  0  0  0  0  0
  -25.7951  -30.9048   27.0249 H   0  0  0  0  0  0
  -26.2841  -29.6777   24.1187 H   0  0  0  0  0  0
  -27.4103  -29.7311   25.4570 H   0  0  0  0  0  0
  -27.8680  -30.4345   23.9232 H   0  0  0  0  0  0
  -27.2799  -33.3683   26.1890 H   0  0  0  0  0  0
  -28.3973  -32.6651   25.0273 H   0  0  0  0  0  0
  -28.0637  -31.8425   26.5420 H   0  0  0  0  0  0
  -28.2590  -38.0114   24.7512 H   0  0  0  0  0  0
  -28.1110  -36.2629   24.6281 H   0  0  0  0  0  0
  -27.2281  -37.1412   25.8848 H   0  0  0  0  0  0
  -20.9351  -29.8772   21.6951 H   0  0  0  0  0  0
  -26.0218  -38.2830   24.1434 H   0  0  0  0  0  0
  -29.7502  -21.0283   20.4331 H   0  0  0  0  0  0
  -27.7854  -17.7054   22.2618 H   0  0  0  0  0  0
  -27.6626  -22.1333   25.0077 H   0  0  0  0  0  0
  -26.0709  -21.5197   24.5959 H   0  0  0  0  0  0
  -26.6720  -22.8951   23.7427 H   0  0  0  0  0  0
  -29.1970  -19.2933   18.5025 H   0  0  0  0  0  0
  -30.2619  -17.9059   18.3496 H   0  0  0  0  0  0
  -30.8213  -19.3429   19.2016 H   0  0  0  0  0  0
  -25.9803  -15.8185   25.8014 H   0  0  0  0  0  0
  -25.3709  -17.3922   26.3022 H   0  0  0  0  0  0
  -27.0936  -17.0186   26.4217 H   0  0  0  0  0  0
  -25.3818  -15.7964   23.3683 H   0  0  0  0  0  0
  -25.4511  -17.2848   22.4364 H   0  0  0  0  0  0
  -24.3479  -17.1557   23.8001 H   0  0  0  0  0  0
  -30.0047  -23.0585   22.0158 H   0  0  0  0  0  0
  -28.7089  -23.5188   23.0312 H   0  0  0  0  0  0
  -25.5363  -19.3935   24.3327 H   0  0  0  0  0  0
  -26.9986  -19.3040   25.2844 H   0  0  0  0  0  0
  -27.3706  -23.7502   20.6433 H   0  0  0  0  0  0
  -28.9978  -23.8350   20.0208 H   0  0  0  0  0  0
  -30.4309  -17.3137   22.0719 H   0  0  0  0  0  0
  -31.3546  -17.2132   20.6162 H   0  0  0  0  0  0
  -29.3614  -25.7907   21.7427 H   0  0  0  0  0  0
  -27.6495  -25.7683   21.9882 H   0  0  0  0  0  0
  -28.4929  -17.5763   20.0121 H   0  0  0  0  0  0
  -27.3883  -16.9678   24.1129 H   0  0  0  0  0  0
  -28.9823  -15.4505   21.2096 H   0  0  0  0  0  0
  1 25  1  0  0  0
  1 30  2  0  0  0
  1 88  1  0  0  0
  2  3  1  0  0  0
  2 25  1  0  0  0
  2 89  1  0  0  0
  2 90  1  0  0  0
  3  4  1  0  0  0
  3 91  1  0  0  0
  3 92  1  0  0  0
  4  5  1  0  0  0
  4 93  1  0  0  0
  4 94  1  0  0  0
  5  6  1  0  0  0
  5 26  1  0  0  0
  5 95  1  0  0  0
  6 25  1  0  0  0
  6 96  1  0  0  0
  6 97  1  0  0  0
  7  8  2  0  0  0
  7 26  1  0  0  0
  7 29  1  0  0  0
  8  9  1  0  0  0
  8 22  1  0  0  0
  9 10  1  0  0  0
  9 27  2  0  0  0
 10 11  2  0  0  0
 10 15  1  0  0  0
 11 12  1  0  0  0
 11 98  1  0  0  0
 12 13  2  0  0  0
 12 99  1  0  0  0
 13 14  1  0  0  0
 13 31  1  0  0  0
 14 15  2  0  0  0
 14100  1  0  0  0
 15101  1  0  0  0
 16 17  2  0  0  0
 16 21  1  0  0  0
 16 31  1  0  0  0
 17 18  1  0  0  0
 17102  1  0  0  0
 18 19  2  0  0  0
 18103  1  0  0  0
 19 20  1  0  0  0
 19 24  1  0  0  0
 20 21  2  0  0  0
 20104  1  0  0  0
 21 23  1  0  0  0
 22 28  1  0  0  0
 22 32  2  0  0  0
 26 27  1  0  0  0
 28105  1  0  0  0
 28106  1  0  0  0
 29107  1  0  0  0
 29108  1  0  0  0
 33 34  1  0  0  0
 33 66  1  0  0  0
 33 70  2  0  0  0
 34 36  1  0  0  0
 34 59  1  0  0  0
 34109  1  0  0  0
 35 44  2  0  0  0
 35 45  1  0  0  0
 35 68  1  0  0  0
 36 56  1  0  0  0
 36110  1  0  0  0
 37 39  1  0  0  0
 37 47  1  0  0  0
 37 66  1  0  0  0
 37111  1  0  0  0
 38 43  2  0  0  0
 38 46  1  0  0  0
 38 47  1  0  0  0
 39 64  1  0  0  0
 39 67  2  0  0  0
 40 52  1  0  0  0
 40 53  2  0  0  0
 40 58  1  0  0  0
 41112  1  0  0  0
 41113  1  0  0  0
 41114  1  0  0  0
 41 48  1  0  0  0
 42 43  1  0  0  0
 42 66  1  0  0  0
 42115  1  0  0  0
 42116  1  0  0  0
 43 44  1  0  0  0
 44117  1  0  0  0
 45 46  2  0  0  0
 45118  1  0  0  0
 46119  1  0  0  0
 47120  1  0  0  0
 47121  1  0  0  0
 48 56  1  0  0  0
 48 65  1  0  0  0
 48122  1  0  0  0
 49 50  1  0  0  0
 49 53  1  0  0  0
 49 64  1  0  0  0
 49123  1  0  0  0
 50 51  1  0  0  0
 50124  1  0  0  0
 50125  1  0  0  0
 51 52  1  0  0  0
 51126  1  0  0  0
 51127  1  0  0  0
 52128  1  0  0  0
 52129  1  0  0  0
 53 54  1  0  0  0
 54 55  2  0  0  0
 54130  1  0  0  0
 55 57  1  0  0  0
 55131  1  0  0  0
 56 69  2  0  0  0
 57 58  2  0  0  0
 57132  1  0  0  0
 58133  1  0  0  0
 59 60  1  0  0  0
 59 61  1  0  0  0
 59 62  1  0  0  0
 60134  1  0  0  0
 60135  1  0  0  0
 60136  1  0  0  0
 61137  1  0  0  0
 61138  1  0  0  0
 61139  1  0  0  0
 62140  1  0  0  0
 62141  1  0  0  0
 62142  1  0  0  0
 63 65  1  0  0  0
 63143  1  0  0  0
 63144  1  0  0  0
 63145  1  0  0  0
 64146  1  0  0  0
 65147  1  0  0  0
 68 85  1  0  0  0
 71 73  2  0  0  0
 71 74  1  0  0  0
 71148  1  0  0  0
 72 73  1  0  0  0
 72 75  2  0  0  0
 72149  1  0  0  0
 73 86  1  0  0  0
 74 76  2  0  0  0
 74 81  1  0  0  0
 75 76  1  0  0  0
 75 82  1  0  0  0
 76 77  1  0  0  0
 77150  1  0  0  0
 77151  1  0  0  0
 77152  1  0  0  0
 78153  1  0  0  0
 78154  1  0  0  0
 78155  1  0  0  0
 78 86  1  0  0  0
 79156  1  0  0  0
 79157  1  0  0  0
 79158  1  0  0  0
 79 87  1  0  0  0
 80 87  1  0  0  0
 80159  1  0  0  0
 80160  1  0  0  0
 80161  1  0  0  0
 81 83  1  0  0  0
 81162  1  0  0  0
 81163  1  0  0  0
 82 87  1  0  0  0
 82164  1  0  0  0
 82165  1  0  0  0
 83 85  1  0  0  0
 83166  1  0  0  0
 83167  1  0  0  0
 84 86  1  0  0  0
 84 88  1  0  0  0
 84168  1  0  0  0
 84169  1  0  0  0
 85170  1  0  0  0
 85171  1  0  0  0
 86172  1  0  0  0
 87173  1  0  0  0
 88174  1  0  0  0
M  ISO  4   1 100  68 101  85 101  88 100
M  END
> <chiral flag>
0

> <version>
0

> <s_m_source_file>
/data/baiqing/PycharmProjects/Reinvent-master-3.2/result/LINK_invent/BTK/process_docking_weight1_custom_sum_contain_oxygen_bond_distance_aromatic_linkinvent_7_9_3/rearranged_h_0088.sdf

> <i_m_source_file_index>
93

> <r_mmod_Potential_Energy-OPLS-2005>
25.8027782440186

> <r_mmod_Stretch_Energy-OPLS-2005>
68.1737747192383

> <r_mmod_Bend_Energy-OPLS-2005>
133.207458496094

> <r_mmod_Torsional_Energy-OPLS-2005>
261.036376953125

> <r_mmod_Improper_Torsional_Energy-OPLS-2005>
4.20231819152832

> <r_mmod_Van_der_Waal_Energy-OPLS-2005>
143.211441040039

> <r_mmod_Electrostatic_Energy-OPLS-2005>
-423.150909423828

> <r_mmod_Solvation_Energy-OPLS-2005>
-194.362701416016

> <b_mmod_Minimization_Converged-OPLS-2005>
0

> <r_mmod_RMS_Derivative-OPLS-2005>
4.92913722991943

$$$$
95
                    3D
 Structure written by MMmdl.
177185  0  0  1  0            999 V2000
  -30.6334  -14.6805   20.5010 C   0  0  0  0  0  0
  -30.4338  -12.4150   19.4770 C   0  0  0  0  0  0
  -29.5130  -12.5193   18.2401 C   0  0  0  0  0  0
  -28.0277  -12.3690   18.6313 C   0  0  0  0  0  0
  -27.6425  -13.2456   19.8512 C   0  0  2  0  0  0
  -28.6895  -13.1263   20.9813 C   0  0  0  0  0  0
  -25.2522  -13.8235   20.5694 C   0  0  0  0  0  0
  -24.1800  -13.0452   20.9222 C   0  0  0  0  0  0
  -24.6411  -11.6947   20.8780 C   0  0  0  0  0  0
  -23.9072  -10.4302   21.0435 C   0  0  0  0  0  0
  -24.3611   -9.4208   21.9209 C   0  0  0  0  0  0
  -23.6296   -8.2225   22.0747 C   0  0  0  0  0  0
  -22.4279   -8.0280   21.3523 C   0  0  0  0  0  0
  -21.9921   -9.0254   20.4626 C   0  0  0  0  0  0
  -22.7257  -10.2140   20.3060 C   0  0  0  0  0  0
  -21.6840   -6.0736   22.5245 C   0  0  0  0  0  0
  -21.4041   -6.5649   23.8187 C   0  0  0  0  0  0
  -21.3654   -5.6793   24.9145 C   0  0  0  0  0  0
  -21.6020   -4.3050   24.7198 C   0  0  0  0  0  0
  -21.8840   -3.8145   23.4330 C   0  0  0  0  0  0
  -21.9210   -4.6960   22.3384 C   0  0  0  0  0  0
  -22.7823  -13.5236   21.1854 C   0  0  0  0  0  0
  -22.1684   -4.2151   21.0955 F   0  0  0  0  0  0
  -21.5609   -3.4525   25.7707 F   0  0  0  0  0  0
  -29.9990  -13.4663   20.4158 N   0  0  0  0  0  0
  -26.2953  -12.9456   20.3272 N   0  0  0  0  0  0
  -25.9356  -11.6591   20.5753 N   0  0  0  0  0  0
  -22.0441  -12.8214   22.0418 N   0  0  0  0  0  0
  -25.4258  -15.1924   20.4087 N   0  0  0  0  0  0
  -31.8307  -14.7891   20.2379 O   0  0  0  0  0  0
  -21.6650   -6.8871   21.4205 O   0  0  0  0  0  0
  -22.3469  -14.5470   20.6636 O   0  0  0  0  0  0
  -24.6273  -31.8568   23.1990 C   0  0  0  0  0  0
  -25.9108  -32.4764   23.8329 C   0  0  1  0  0  0
  -27.2136  -27.2900   20.1299 C   0  0  0  0  0  0
  -25.5927  -33.8569   24.2261 N   0  0  0  0  0  0
  -23.4229  -30.4804   21.5418 C   0  0  2  0  0  0
  -24.8699  -28.9263   20.1120 C   0  0  0  0  0  0
  -22.7457  -29.4619   22.4904 C   0  0  0  0  0  0
  -18.0289  -28.1367   22.8500 C   0  0  0  0  0  0
  -24.1504  -36.7297   23.2634 C   0  0  0  0  0  0
  -25.9659  -30.7802   21.3723 C   0  0  0  0  0  0
  -26.0392  -29.4031   20.7184 C   0  0  0  0  0  0
  -27.2180  -28.5973   20.7137 C   0  0  0  0  0  0
  -26.0240  -26.8700   19.5005 C   0  0  0  0  0  0
  -24.8629  -27.6653   19.4940 C   0  0  0  0  0  0
  -23.6407  -29.8111   20.1583 C   0  0  0  0  0  0
  -25.4127  -36.3078   24.0323 C   0  0  1  0  0  0
  -20.5889  -28.3695   23.1275 C   0  0  2  0  0  0
  -20.6793  -26.9418   22.5409 C   0  0  0  0  0  0
  -19.5764  -26.6371   21.5221 C   0  0  0  0  0  0
  -18.1941  -26.7917   22.1622 C   0  0  0  0  0  0
  -19.1538  -28.8843   23.2893 C   0  0  0  0  0  0
  -18.9460  -30.1442   23.8921 C   0  0  0  0  0  0
  -17.6462  -30.6592   24.0553 C   0  0  0  0  0  0
  -25.9050  -34.9441   23.5088 C   0  0  0  0  0  0
  -16.5355  -29.9089   23.6323 C   0  0  0  0  0  0
  -16.7276  -28.6486   23.0377 C   0  0  0  0  0  0
  -26.4476  -31.6581   25.0711 C   0  0  0  0  0  0
  -25.3698  -31.3752   26.1437 C   0  0  0  0  0  0
  -27.0307  -30.3002   24.6170 C   0  0  0  0  0  0
  -27.6038  -32.4292   25.7499 C   0  0  0  0  0  0
  -27.5589  -37.1815   24.8459 C   0  0  0  0  0  0
  -21.4164  -29.3044   22.3644 N   0  0  0  0  0  0
  -26.4306  -37.3773   23.9398 N   0  0  0  0  0  0
  -24.6920  -31.0558   22.0951 N   0  0  0  0  0  0
  -23.4180  -28.8136   23.2969 O   0  0  0  0  0  0
  -28.3132  -26.4165   20.1389 O   0  0  0  0  0  0
  -26.5604  -34.8919   22.4647 O   0  0  0  0  0  0
  -23.5426  -32.1373   23.7307 O   0  0  0  0  0  0
  -30.0134  -20.0530   22.1033 C   0  0  0  0  0  0
  -30.2256  -21.3271   22.6482 C   0  0  0  0  0  0
  -29.0937  -21.1171   20.1313 C   0  0  0  0  0  0
  -29.4937  -19.8891   20.8053 C   0  0  0  0  0  0
  -29.9399  -22.5071   21.9353 C   0  0  0  0  0  0
  -29.2701  -22.4525   20.6848 C   0  0  0  0  0  0
  -32.2706  -25.9099   23.6895 C   0  0  0  0  0  0
  -32.7355  -23.6903   24.8839 C   0  0  0  0  0  0
  -32.6291  -24.0472   21.0344 C   0  0  0  0  0  0
  -29.7058  -18.3996   18.7316 C   0  0  0  0  0  0
  -27.8543  -18.0101   20.3678 C   0  0  0  0  0  0
  -30.5602  -23.7657   22.5173 C   0  0  0  0  0  0
  -28.9249  -23.7959   19.9022 C   0  0  0  0  0  0
  -30.2324  -17.2402   20.9006 C   0  0  0  0  0  0
  -28.0909  -25.0032   20.5759 C   0  0  0  0  0  0
  -32.7979  -24.4692   23.5573 C   0  0  0  0  0  0
  -32.1041  -23.6808   22.4313 C   0  0  2  0  0  0
  -29.3336  -18.4082   20.2263 C   0  0  0  0  0  0
  -29.8439  -15.7878   20.7069 N   0  0  0  0  0  0
  -31.4805  -12.5395   19.1928 H   0  0  0  0  0  0
  -30.3583  -11.4304   19.9463 H   0  0  0  0  0  0
  -29.7847  -11.7759   17.4879 H   0  0  0  0  0  0
  -29.6540  -13.4943   17.7741 H   0  0  0  0  0  0
  -27.8346  -11.3188   18.8502 H   0  0  0  0  0  0
  -27.3905  -12.6275   17.7839 H   0  0  0  0  0  0
  -27.6378  -14.2735   19.4805 H   0  0  0  0  0  0
  -28.7033  -12.1031   21.3588 H   0  0  0  0  0  0
  -28.4434  -13.7591   21.8359 H   0  0  0  0  0  0
  -25.2737   -9.5659   22.4821 H   0  0  0  0  0  0
  -23.9999   -7.4578   22.7432 H   0  0  0  0  0  0
  -21.0881   -8.8771   19.8909 H   0  0  0  0  0  0
  -22.3722  -10.9688   19.6168 H   0  0  0  0  0  0
  -21.2065   -7.6155   23.9686 H   0  0  0  0  0  0
  -21.1455   -6.0523   25.9035 H   0  0  0  0  0  0
  -22.0641   -2.7608   23.2810 H   0  0  0  0  0  0
  -22.4096  -11.9926   22.4867 H   0  0  0  0  0  0
  -21.1008  -13.1182   22.2501 H   0  0  0  0  0  0
  -24.6703  -15.8647   20.4807 H   0  0  0  0  0  0
  -26.2837  -15.5986   20.0621 H   0  0  0  0  0  0
  -26.7167  -32.5440   23.1067 H   0  0  0  0  0  0
  -25.0126  -33.9704   25.0442 H   0  0  0  0  0  0
  -22.7200  -31.3039   21.3928 H   0  0  0  0  0  0
  -23.3762  -35.9631   23.3279 H   0  0  0  0  0  0
  -24.3609  -36.8939   22.2053 H   0  0  0  0  0  0
  -23.7263  -37.6502   23.6662 H   0  0  0  0  0  0
  -26.0928  -31.5416   20.6011 H   0  0  0  0  0  0
  -26.8472  -30.8353   22.0007 H   0  0  0  0  0  0
  -28.1163  -28.9563   21.1960 H   0  0  0  0  0  0
  -25.9821  -25.9049   19.0185 H   0  0  0  0  0  0
  -23.9674  -27.2933   19.0172 H   0  0  0  0  0  0
  -23.7640  -30.5866   19.4016 H   0  0  0  0  0  0
  -22.7628  -29.2416   19.8517 H   0  0  0  0  0  0
  -25.1311  -36.1926   25.0815 H   0  0  0  0  0  0
  -21.0003  -28.3274   24.1381 H   0  0  0  0  0  0
  -20.5718  -26.2292   23.3600 H   0  0  0  0  0  0
  -21.6659  -26.7449   22.1182 H   0  0  0  0  0  0
  -19.6939  -25.6276   21.1257 H   0  0  0  0  0  0
  -19.6718  -27.3169   20.6741 H   0  0  0  0  0  0
  -17.4218  -26.6682   21.4015 H   0  0  0  0  0  0
  -18.0336  -26.0047   22.8997 H   0  0  0  0  0  0
  -19.7940  -30.7247   24.2320 H   0  0  0  0  0  0
  -17.5024  -31.6289   24.5113 H   0  0  0  0  0  0
  -15.5360  -30.3006   23.7631 H   0  0  0  0  0  0
  -15.8669  -28.0804   22.7110 H   0  0  0  0  0  0
  -24.5863  -30.7099   25.7784 H   0  0  0  0  0  0
  -24.8888  -32.2934   26.4821 H   0  0  0  0  0  0
  -25.8005  -30.8965   27.0239 H   0  0  0  0  0  0
  -26.2879  -29.6780   24.1159 H   0  0  0  0  0  0
  -27.3971  -29.7236   25.4675 H   0  0  0  0  0  0
  -27.8760  -30.4298   23.9407 H   0  0  0  0  0  0
  -27.2648  -33.3590   26.2080 H   0  0  0  0  0  0
  -28.3861  -32.6848   25.0336 H   0  0  0  0  0  0
  -28.0676  -31.8398   26.5426 H   0  0  0  0  0  0
  -28.2586  -38.0131   24.7499 H   0  0  0  0  0  0
  -28.1103  -36.2652   24.6278 H   0  0  0  0  0  0
  -27.2299  -37.1457   25.8862 H   0  0  0  0  0  0
  -20.9322  -29.8779   21.6874 H   0  0  0  0  0  0
  -26.0180  -38.2848   24.1397 H   0  0  0  0  0  0
  -30.2978  -19.2140   22.7120 H   0  0  0  0  0  0
  -30.7178  -21.4007   23.6084 H   0  0  0  0  0  0
  -28.6652  -21.0347   19.1433 H   0  0  0  0  0  0
  -32.9296  -26.5027   24.3226 H   0  0  0  0  0  0
  -31.2707  -25.9504   24.1242 H   0  0  0  0  0  0
  -32.2197  -26.4061   22.7194 H   0  0  0  0  0  0
  -33.2681  -24.2131   25.6773 H   0  0  0  0  0  0
  -33.1987  -22.7086   24.7698 H   0  0  0  0  0  0
  -31.7143  -23.5194   25.2249 H   0  0  0  0  0  0
  -32.1794  -23.4224   20.2616 H   0  0  0  0  0  0
  -33.7073  -23.8938   20.9869 H   0  0  0  0  0  0
  -32.4159  -25.0835   20.7825 H   0  0  0  0  0  0
  -29.0392  -19.0230   18.1373 H   0  0  0  0  0  0
  -29.6829  -17.3899   18.3144 H   0  0  0  0  0  0
  -30.7117  -18.7875   18.5771 H   0  0  0  0  0  0
  -27.1905  -18.8073   20.0337 H   0  0  0  0  0  0
  -27.6032  -17.7850   21.4063 H   0  0  0  0  0  0
  -27.6154  -17.1384   19.7574 H   0  0  0  0  0  0
  -30.2329  -23.8201   23.5555 H   0  0  0  0  0  0
  -30.2446  -24.7009   22.0676 H   0  0  0  0  0  0
  -28.3927  -23.5114   18.9957 H   0  0  0  0  0  0
  -29.8721  -24.1911   19.5433 H   0  0  0  0  0  0
  -30.1839  -17.3231   21.9811 H   0  0  0  0  0  0
  -31.2824  -17.4003   20.6341 H   0  0  0  0  0  0
  -28.2710  -25.0328   21.6455 H   0  0  0  0  0  0
  -27.0390  -24.7234   20.5378 H   0  0  0  0  0  0
  -33.8538  -24.5382   23.2964 H   0  0  0  0  0  0
  -32.4207  -22.6456   22.5768 H   0  0  0  0  0  0
  -28.8749  -15.5908   20.8942 H   0  0  0  0  0  0
  1 25  1  0  0  0
  1 30  2  0  0  0
  1 89  1  0  0  0
  2  3  1  0  0  0
  2 25  1  0  0  0
  2 90  1  0  0  0
  2 91  1  0  0  0
  3  4  1  0  0  0
  3 92  1  0  0  0
  3 93  1  0  0  0
  4  5  1  0  0  0
  4 94  1  0  0  0
  4 95  1  0  0  0
  5  6  1  0  0  0
  5 26  1  0  0  0
  5 96  1  0  0  0
  6 25  1  0  0  0
  6 97  1  0  0  0
  6 98  1  0  0  0
  7  8  2  0  0  0
  7 26  1  0  0  0
  7 29  1  0  0  0
  8  9  1  0  0  0
  8 22  1  0  0  0
  9 10  1  0  0  0
  9 27  2  0  0  0
 10 11  2  0  0  0
 10 15  1  0  0  0
 11 12  1  0  0  0
 11 99  1  0  0  0
 12 13  2  0  0  0
 12100  1  0  0  0
 13 14  1  0  0  0
 13 31  1  0  0  0
 14 15  2  0  0  0
 14101  1  0  0  0
 15102  1  0  0  0
 16 17  2  0  0  0
 16 21  1  0  0  0
 16 31  1  0  0  0
 17 18  1  0  0  0
 17103  1  0  0  0
 18 19  2  0  0  0
 18104  1  0  0  0
 19 20  1  0  0  0
 19 24  1  0  0  0
 20 21  2  0  0  0
 20105  1  0  0  0
 21 23  1  0  0  0
 22 28  1  0  0  0
 22 32  2  0  0  0
 26 27  1  0  0  0
 28106  1  0  0  0
 28107  1  0  0  0
 29108  1  0  0  0
 29109  1  0  0  0
 33 34  1  0  0  0
 33 66  1  0  0  0
 33 70  2  0  0  0
 34 36  1  0  0  0
 34 59  1  0  0  0
 34110  1  0  0  0
 35 44  2  0  0  0
 35 45  1  0  0  0
 35 68  1  0  0  0
 36 56  1  0  0  0
 36111  1  0  0  0
 37 39  1  0  0  0
 37 47  1  0  0  0
 37 66  1  0  0  0
 37112  1  0  0  0
 38 43  2  0  0  0
 38 46  1  0  0  0
 38 47  1  0  0  0
 39 64  1  0  0  0
 39 67  2  0  0  0
 40 52  1  0  0  0
 40 53  2  0  0  0
 40 58  1  0  0  0
 41113  1  0  0  0
 41114  1  0  0  0
 41115  1  0  0  0
 41 48  1  0  0  0
 42 43  1  0  0  0
 42 66  1  0  0  0
 42116  1  0  0  0
 42117  1  0  0  0
 43 44  1  0  0  0
 44118  1  0  0  0
 45 46  2  0  0  0
 45119  1  0  0  0
 46120  1  0  0  0
 47121  1  0  0  0
 47122  1  0  0  0
 48 56  1  0  0  0
 48 65  1  0  0  0
 48123  1  0  0  0
 49 50  1  0  0  0
 49 53  1  0  0  0
 49 64  1  0  0  0
 49124  1  0  0  0
 50 51  1  0  0  0
 50125  1  0  0  0
 50126  1  0  0  0
 51 52  1  0  0  0
 51127  1  0  0  0
 51128  1  0  0  0
 52129  1  0  0  0
 52130  1  0  0  0
 53 54  1  0  0  0
 54 55  2  0  0  0
 54131  1  0  0  0
 55 57  1  0  0  0
 55132  1  0  0  0
 56 69  2  0  0  0
 57 58  2  0  0  0
 57133  1  0  0  0
 58134  1  0  0  0
 59 60  1  0  0  0
 59 61  1  0  0  0
 59 62  1  0  0  0
 60135  1  0  0  0
 60136  1  0  0  0
 60137  1  0  0  0
 61138  1  0  0  0
 61139  1  0  0  0
 61140  1  0  0  0
 62141  1  0  0  0
 62142  1  0  0  0
 62143  1  0  0  0
 63 65  1  0  0  0
 63144  1  0  0  0
 63145  1  0  0  0
 63146  1  0  0  0
 64147  1  0  0  0
 65148  1  0  0  0
 68 85  1  0  0  0
 71 72  2  0  0  0
 71 74  1  0  0  0
 71149  1  0  0  0
 72 75  1  0  0  0
 72150  1  0  0  0
 73 74  2  0  0  0
 73 76  1  0  0  0
 73151  1  0  0  0
 74 88  1  0  0  0
 75 76  2  0  0  0
 75 82  1  0  0  0
 76 83  1  0  0  0
 77152  1  0  0  0
 77153  1  0  0  0
 77154  1  0  0  0
 77 86  1  0  0  0
 78 86  1  0  0  0
 78155  1  0  0  0
 78156  1  0  0  0
 78157  1  0  0  0
 79158  1  0  0  0
 79159  1  0  0  0
 79160  1  0  0  0
 79 87  1  0  0  0
 80161  1  0  0  0
 80162  1  0  0  0
 80163  1  0  0  0
 80 88  1  0  0  0
 81 88  1  0  0  0
 81164  1  0  0  0
 81165  1  0  0  0
 81166  1  0  0  0
 82 87  1  0  0  0
 82167  1  0  0  0
 82168  1  0  0  0
 83 85  1  0  0  0
 83169  1  0  0  0
 83170  1  0  0  0
 84 88  1  0  0  0
 84 89  1  0  0  0
 84171  1  0  0  0
 84172  1  0  0  0
 85173  1  0  0  0
 85174  1  0  0  0
 86 87  1  0  0  0
 86175  1  0  0  0
 87176  1  0  0  0
 89177  1  0  0  0
M  ISO  4   1 100  68 101  85 101  89 100
M  END
> <chiral flag>
0

> <version>
0

> <s_m_source_file>
/data/baiqing/PycharmProjects/Reinvent-master-3.2/result/LINK_invent/BTK/process_docking_weight1_custom_sum_contain_oxygen_bond_distance_aromatic_linkinvent_7_9_3/rearranged_h_0088.sdf

> <i_m_source_file_index>
94

> <r_mmod_Potential_Energy-OPLS-2005>
126.030395507812

> <r_mmod_Stretch_Energy-OPLS-2005>
109.784278869629

> <r_mmod_Bend_Energy-OPLS-2005>
165.731460571289

> <r_mmod_Torsional_Energy-OPLS-2005>
263.175506591797

> <r_mmod_Improper_Torsional_Energy-OPLS-2005>
5.65523338317871

> <r_mmod_Van_der_Waal_Energy-OPLS-2005>
149.838836669922

> <r_mmod_Electrostatic_Energy-OPLS-2005>
-442.85009765625

> <r_mmod_Solvation_Energy-OPLS-2005>
-190.63525390625

> <b_mmod_Minimization_Converged-OPLS-2005>
0

> <r_mmod_RMS_Derivative-OPLS-2005>
6.82803535461426

$$$$
96
                    3D
 Structure written by MMmdl.
179187  0  0  1  0            999 V2000
  -30.7346  -14.4522   20.6265 C   0  0  0  0  0  0
  -30.4194  -12.3147   19.4294 C   0  0  0  0  0  0
  -29.4997  -12.5104   18.2096 C   0  0  0  0  0  0
  -28.0192  -12.3721   18.6137 C   0  0  0  0  0  0
  -27.6600  -13.2118   19.8714 C   0  0  2  0  0  0
  -28.6957  -13.0047   20.9999 C   0  0  0  0  0  0
  -25.2622  -13.8162   20.5717 C   0  0  0  0  0  0
  -24.1869  -13.0452   20.9229 C   0  0  0  0  0  0
  -24.6402  -11.6917   20.8733 C   0  0  0  0  0  0
  -23.9023  -10.4320   21.0357 C   0  0  0  0  0  0
  -24.3591   -9.4244   21.9144 C   0  0  0  0  0  0
  -23.6320   -8.2253   22.0729 C   0  0  0  0  0  0
  -22.4287   -8.0269   21.3532 C   0  0  0  0  0  0
  -21.9885   -9.0211   20.4617 C   0  0  0  0  0  0
  -22.7174  -10.2126   20.3011 C   0  0  0  0  0  0
  -21.6870   -6.0738   22.5302 C   0  0  0  0  0  0
  -21.4021   -6.5645   23.8227 C   0  0  0  0  0  0
  -21.3663   -5.6784   24.9187 C   0  0  0  0  0  0
  -21.6050   -4.3056   24.7215 C   0  0  0  0  0  0
  -21.8814   -3.8147   23.4346 C   0  0  0  0  0  0
  -21.9218   -4.6976   22.3408 C   0  0  0  0  0  0
  -22.7898  -13.5253   21.1888 C   0  0  0  0  0  0
  -22.1671   -4.2173   21.0986 F   0  0  0  0  0  0
  -21.5631   -3.4521   25.7722 F   0  0  0  0  0  0
  -30.0339  -13.2976   20.4586 N   0  0  0  0  0  0
  -26.3037  -12.9340   20.3338 N   0  0  0  0  0  0
  -25.9332  -11.6483   20.5712 N   0  0  0  0  0  0
  -22.0511  -12.8248   22.0409 N   0  0  0  0  0  0
  -25.4347  -15.1885   20.4170 N   0  0  0  0  0  0
  -31.8309  -14.6459   20.0970 O   0  0  0  0  0  0
  -21.6671   -6.8863   21.4240 O   0  0  0  0  0  0
  -22.3568  -14.5542   20.6719 O   0  0  0  0  0  0
  -24.6149  -31.8685   23.2092 C   0  0  0  0  0  0
  -25.9048  -32.4812   23.8392 C   0  0  1  0  0  0
  -27.2498  -27.4624   20.0909 C   0  0  0  0  0  0
  -25.5885  -33.8608   24.2317 N   0  0  0  0  0  0
  -23.4012  -30.4887   21.5502 C   0  0  2  0  0  0
  -24.8523  -28.9545   20.1179 C   0  0  0  0  0  0
  -22.7398  -29.4671   22.5011 C   0  0  0  0  0  0
  -18.0269  -28.1420   22.8483 C   0  0  0  0  0  0
  -24.1489  -36.7316   23.2647 C   0  0  0  0  0  0
  -25.9270  -30.8405   21.3589 C   0  0  0  0  0  0
  -26.0085  -29.4758   20.7120 C   0  0  0  0  0  0
  -27.2101  -28.7327   20.7023 C   0  0  0  0  0  0
  -26.0811  -26.9470   19.4942 C   0  0  0  0  0  0
  -24.8801  -27.6858   19.5108 C   0  0  0  0  0  0
  -23.6112  -29.8167   20.1661 C   0  0  0  0  0  0
  -25.4109  -36.3098   24.0347 C   0  0  1  0  0  0
  -20.5854  -28.3693   23.1333 C   0  0  2  0  0  0
  -20.6775  -26.9429   22.5431 C   0  0  0  0  0  0
  -19.5751  -26.6405   21.5233 C   0  0  0  0  0  0
  -18.1927  -26.7964   22.1628 C   0  0  0  0  0  0
  -19.1515  -28.8870   23.2913 C   0  0  0  0  0  0
  -18.9441  -30.1469   23.8921 C   0  0  0  0  0  0
  -17.6446  -30.6606   24.0578 C   0  0  0  0  0  0
  -25.9034  -34.9466   23.5142 C   0  0  0  0  0  0
  -16.5339  -29.9114   23.6331 C   0  0  0  0  0  0
  -16.7265  -28.6553   23.0324 C   0  0  0  0  0  0
  -26.4480  -31.6594   25.0714 C   0  0  0  0  0  0
  -25.3728  -31.3724   26.1442 C   0  0  0  0  0  0
  -27.0322  -30.3023   24.6138 C   0  0  0  0  0  0
  -27.6089  -32.4306   25.7422 C   0  0  0  0  0  0
  -27.5581  -37.1795   24.8461 C   0  0  0  0  0  0
  -21.4127  -29.3036   22.3715 N   0  0  0  0  0  0
  -26.4286  -37.3786   23.9437 N   0  0  0  0  0  0
  -24.6646  -31.0812   22.0993 N   0  0  0  0  0  0
  -23.4183  -28.8229   23.3061 O   0  0  0  0  0  0
  -28.4091  -26.7233   20.0735 O   0  0  0  0  0  0
  -26.5597  -34.8906   22.4686 O   0  0  0  0  0  0
  -23.5342  -32.1421   23.7515 O   0  0  0  0  0  0
  -30.4084  -23.9941   19.6016 C   0  0  0  0  0  0
  -29.6908  -22.3127   21.1972 C   0  0  0  0  0  0
  -29.5027  -23.5751   20.5973 C   0  0  0  0  0  0
  -31.4791  -23.1657   19.1950 C   0  0  0  0  0  0
  -31.6141  -21.8591   19.7565 C   0  0  0  0  0  0
  -30.7305  -21.4399   20.8028 C   0  0  0  0  0  0
  -32.6737  -20.9205   19.1791 C   0  0  0  0  0  0
  -33.9374  -25.6234   17.2944 C   0  0  0  0  0  0
  -28.1243  -18.9855   23.5773 C   0  0  0  0  0  0
  -32.0997  -19.7442   21.9332 C   0  0  0  0  0  0
  -28.3142  -24.4398   21.0228 C   0  0  0  0  0  0
  -32.4520  -23.6860   18.1221 C   0  0  0  0  0  0
  -32.8581  -25.1631   18.2870 C   0  0  0  0  0  0
  -29.2601  -18.0110   23.2165 C   0  0  0  0  0  0
  -30.6415  -16.8172   21.3937 C   0  0  0  0  0  0
  -29.7864  -19.2360   20.9421 C   0  0  0  0  0  0
  -28.6090  -25.9375   21.2559 C   0  0  0  0  0  0
  -29.5552  -17.8859   21.6983 C   0  0  2  0  0  0
  -30.1287  -15.4355   21.3216 N   0  0  0  0  0  0
  -30.7882  -20.1822   21.4549 N   0  0  0  0  0  0
  -31.4665  -12.4029   19.1322 H   0  0  0  0  0  0
  -30.3168  -11.3052   19.8261 H   0  0  0  0  0  0
  -29.7444  -11.7791   17.4390 H   0  0  0  0  0  0
  -29.6774  -13.4923   17.7652 H   0  0  0  0  0  0
  -27.8251  -11.3135   18.7954 H   0  0  0  0  0  0
  -27.3797  -12.6596   17.7792 H   0  0  0  0  0  0
  -27.6931  -14.2595   19.5702 H   0  0  0  0  0  0
  -28.6705  -11.9732   21.3564 H   0  0  0  0  0  0
  -28.4443  -13.6249   21.8628 H   0  0  0  0  0  0
  -25.2712   -9.5794   22.4712 H   0  0  0  0  0  0
  -24.0089   -7.4635   22.7411 H   0  0  0  0  0  0
  -21.0831   -8.8642   19.8893 H   0  0  0  0  0  0
  -22.3561  -10.9635   19.6108 H   0  0  0  0  0  0
  -21.1972   -7.6145   23.9746 H   0  0  0  0  0  0
  -21.1501   -6.0512   25.9110 H   0  0  0  0  0  0
  -22.0597   -2.7607   23.2840 H   0  0  0  0  0  0
  -22.4133  -11.9951   22.4860 H   0  0  0  0  0  0
  -21.1076  -13.1204   22.2469 H   0  0  0  0  0  0
  -24.6689  -15.8453   20.5220 H   0  0  0  0  0  0
  -26.2893  -15.6274   20.0994 H   0  0  0  0  0  0
  -26.7125  -32.5540   23.1168 H   0  0  0  0  0  0
  -25.0019  -33.9762   25.0446 H   0  0  0  0  0  0
  -22.6909  -31.3055   21.4083 H   0  0  0  0  0  0
  -23.3732  -35.9663   23.3308 H   0  0  0  0  0  0
  -24.3574  -36.8931   22.2059 H   0  0  0  0  0  0
  -23.7248  -37.6529   23.6651 H   0  0  0  0  0  0
  -26.0271  -31.6027   20.5853 H   0  0  0  0  0  0
  -26.8178  -30.9040   21.9734 H   0  0  0  0  0  0
  -28.1031  -29.1311   21.1620 H   0  0  0  0  0  0
  -26.0985  -25.9763   19.0199 H   0  0  0  0  0  0
  -23.9892  -27.2766   19.0548 H   0  0  0  0  0  0
  -23.7193  -30.5875   19.4017 H   0  0  0  0  0  0
  -22.7356  -29.2327   19.8748 H   0  0  0  0  0  0
  -25.1283  -36.1966   25.0841 H   0  0  0  0  0  0
  -20.9946  -28.3258   24.1454 H   0  0  0  0  0  0
  -20.5727  -26.2290   23.3614 H   0  0  0  0  0  0
  -21.6648  -26.7508   22.1183 H   0  0  0  0  0  0
  -19.6914  -25.6318   21.1251 H   0  0  0  0  0  0
  -19.6711  -27.3230   20.6778 H   0  0  0  0  0  0
  -17.4213  -26.6722   21.4016 H   0  0  0  0  0  0
  -18.0300  -26.0116   22.9025 H   0  0  0  0  0  0
  -19.7919  -30.7272   24.2313 H   0  0  0  0  0  0
  -17.5010  -31.6277   24.5189 H   0  0  0  0  0  0
  -15.5353  -30.3037   23.7637 H   0  0  0  0  0  0
  -15.8664  -28.0895   22.7012 H   0  0  0  0  0  0
  -24.5881  -30.7115   25.7735 H   0  0  0  0  0  0
  -24.8938  -32.2904   26.4868 H   0  0  0  0  0  0
  -25.8014  -30.8852   27.0210 H   0  0  0  0  0  0
  -26.2876  -29.6724   24.1260 H   0  0  0  0  0  0
  -27.4138  -29.7339   25.4639 H   0  0  0  0  0  0
  -27.8688  -30.4330   23.9270 H   0  0  0  0  0  0
  -27.2775  -33.3642   26.1992 H   0  0  0  0  0  0
  -28.3856  -32.6816   25.0178 H   0  0  0  0  0  0
  -28.0812  -31.8431   26.5310 H   0  0  0  0  0  0
  -28.2584  -38.0099   24.7483 H   0  0  0  0  0  0
  -28.1077  -36.2613   24.6301 H   0  0  0  0  0  0
  -27.2295  -37.1489   25.8861 H   0  0  0  0  0  0
  -20.9309  -29.8709   21.6870 H   0  0  0  0  0  0
  -26.0172  -38.2868   24.1415 H   0  0  0  0  0  0
  -30.2573  -24.9579   19.1375 H   0  0  0  0  0  0
  -29.0057  -21.9898   21.9653 H   0  0  0  0  0  0
  -32.7178  -20.9971   18.0917 H   0  0  0  0  0  0
  -32.4771  -19.8700   19.3678 H   0  0  0  0  0  0
  -33.6582  -21.1715   19.5775 H   0  0  0  0  0  0
  -34.3011  -26.6153   17.5571 H   0  0  0  0  0  0
  -33.5486  -25.6789   16.2770 H   0  0  0  0  0  0
  -34.7948  -24.9486   17.2913 H   0  0  0  0  0  0
  -27.8826  -18.9267   24.6390 H   0  0  0  0  0  0
  -27.2094  -18.7620   23.0269 H   0  0  0  0  0  0
  -28.4003  -20.0194   23.3647 H   0  0  0  0  0  0
  -32.8069  -20.5759   21.9595 H   0  0  0  0  0  0
  -32.5176  -18.9583   21.3036 H   0  0  0  0  0  0
  -32.0365  -19.3464   22.9462 H   0  0  0  0  0  0
  -27.9243  -24.0295   21.9547 H   0  0  0  0  0  0
  -27.5122  -24.3261   20.2939 H   0  0  0  0  0  0
  -32.0169  -23.5159   17.1366 H   0  0  0  0  0  0
  -33.3807  -23.1157   18.1463 H   0  0  0  0  0  0
  -31.9969  -25.8216   18.1739 H   0  0  0  0  0  0
  -33.2356  -25.3070   19.3006 H   0  0  0  0  0  0
  -29.0021  -17.0249   23.6042 H   0  0  0  0  0  0
  -30.1642  -18.3058   23.7486 H   0  0  0  0  0  0
  -31.4384  -16.8575   22.1397 H   0  0  0  0  0  0
  -31.1109  -17.0644   20.4400 H   0  0  0  0  0  0
  -28.8300  -19.7613   20.9461 H   0  0  0  0  0  0
  -29.9961  -19.0379   19.8890 H   0  0  0  0  0  0
  -29.6235  -26.0721   21.6315 H   0  0  0  0  0  0
  -27.9525  -26.2910   22.0551 H   0  0  0  0  0  0
  -28.6364  -17.5049   21.2486 H   0  0  0  0  0  0
  -29.2327  -15.2310   21.7427 H   0  0  0  0  0  0
  1 25  1  0  0  0
  1 30  2  0  0  0
  1 89  1  0  0  0
  2  3  1  0  0  0
  2 25  1  0  0  0
  2 91  1  0  0  0
  2 92  1  0  0  0
  3  4  1  0  0  0
  3 93  1  0  0  0
  3 94  1  0  0  0
  4  5  1  0  0  0
  4 95  1  0  0  0
  4 96  1  0  0  0
  5  6  1  0  0  0
  5 26  1  0  0  0
  5 97  1  0  0  0
  6 25  1  0  0  0
  6 98  1  0  0  0
  6 99  1  0  0  0
  7  8  2  0  0  0
  7 26  1  0  0  0
  7 29  1  0  0  0
  8  9  1  0  0  0
  8 22  1  0  0  0
  9 10  1  0  0  0
  9 27  2  0  0  0
 10 11  2  0  0  0
 10 15  1  0  0  0
 11 12  1  0  0  0
 11100  1  0  0  0
 12 13  2  0  0  0
 12101  1  0  0  0
 13 14  1  0  0  0
 13 31  1  0  0  0
 14 15  2  0  0  0
 14102  1  0  0  0
 15103  1  0  0  0
 16 17  2  0  0  0
 16 21  1  0  0  0
 16 31  1  0  0  0
 17 18  1  0  0  0
 17104  1  0  0  0
 18 19  2  0  0  0
 18105  1  0  0  0
 19 20  1  0  0  0
 19 24  1  0  0  0
 20 21  2  0  0  0
 20106  1  0  0  0
 21 23  1  0  0  0
 22 28  1  0  0  0
 22 32  2  0  0  0
 26 27  1  0  0  0
 28107  1  0  0  0
 28108  1  0  0  0
 29109  1  0  0  0
 29110  1  0  0  0
 33 34  1  0  0  0
 33 66  1  0  0  0
 33 70  2  0  0  0
 34 36  1  0  0  0
 34 59  1  0  0  0
 34111  1  0  0  0
 35 44  2  0  0  0
 35 45  1  0  0  0
 35 68  1  0  0  0
 36 56  1  0  0  0
 36112  1  0  0  0
 37 39  1  0  0  0
 37 47  1  0  0  0
 37 66  1  0  0  0
 37113  1  0  0  0
 38 43  2  0  0  0
 38 46  1  0  0  0
 38 47  1  0  0  0
 39 64  1  0  0  0
 39 67  2  0  0  0
 40 52  1  0  0  0
 40 53  2  0  0  0
 40 58  1  0  0  0
 41114  1  0  0  0
 41115  1  0  0  0
 41116  1  0  0  0
 41 48  1  0  0  0
 42 43  1  0  0  0
 42 66  1  0  0  0
 42117  1  0  0  0
 42118  1  0  0  0
 43 44  1  0  0  0
 44119  1  0  0  0
 45 46  2  0  0  0
 45120  1  0  0  0
 46121  1  0  0  0
 47122  1  0  0  0
 47123  1  0  0  0
 48 56  1  0  0  0
 48 65  1  0  0  0
 48124  1  0  0  0
 49 50  1  0  0  0
 49 53  1  0  0  0
 49 64  1  0  0  0
 49125  1  0  0  0
 50 51  1  0  0  0
 50126  1  0  0  0
 50127  1  0  0  0
 51 52  1  0  0  0
 51128  1  0  0  0
 51129  1  0  0  0
 52130  1  0  0  0
 52131  1  0  0  0
 53 54  1  0  0  0
 54 55  2  0  0  0
 54132  1  0  0  0
 55 57  1  0  0  0
 55133  1  0  0  0
 56 69  2  0  0  0
 57 58  2  0  0  0
 57134  1  0  0  0
 58135  1  0  0  0
 59 60  1  0  0  0
 59 61  1  0  0  0
 59 62  1  0  0  0
 60136  1  0  0  0
 60137  1  0  0  0
 60138  1  0  0  0
 61139  1  0  0  0
 61140  1  0  0  0
 61141  1  0  0  0
 62142  1  0  0  0
 62143  1  0  0  0
 62144  1  0  0  0
 63 65  1  0  0  0
 63145  1  0  0  0
 63146  1  0  0  0
 63147  1  0  0  0
 64148  1  0  0  0
 65149  1  0  0  0
 68 87  1  0  0  0
 71 73  2  0  0  0
 71 74  1  0  0  0
 71150  1  0  0  0
 72 73  1  0  0  0
 72 76  2  0  0  0
 72151  1  0  0  0
 73 81  1  0  0  0
 74 75  2  0  0  0
 74 82  1  0  0  0
 75 76  1  0  0  0
 75 77  1  0  0  0
 76 90  1  0  0  0
 77152  1  0  0  0
 77153  1  0  0  0
 77154  1  0  0  0
 78 83  1  0  0  0
 78155  1  0  0  0
 78156  1  0  0  0
 78157  1  0  0  0
 79 84  1  0  0  0
 79158  1  0  0  0
 79159  1  0  0  0
 79160  1  0  0  0
 80 90  1  0  0  0
 80161  1  0  0  0
 80162  1  0  0  0
 80163  1  0  0  0
 81 87  1  0  0  0
 81164  1  0  0  0
 81165  1  0  0  0
 82 83  1  0  0  0
 82166  1  0  0  0
 82167  1  0  0  0
 83168  1  0  0  0
 83169  1  0  0  0
 84170  1  0  0  0
 84171  1  0  0  0
 84 88  1  0  0  0
 85 88  1  0  0  0
 85 89  1  0  0  0
 85172  1  0  0  0
 85173  1  0  0  0
 86 88  1  0  0  0
 86 90  1  0  0  0
 86174  1  0  0  0
 86175  1  0  0  0
 87176  1  0  0  0
 87177  1  0  0  0
 88178  1  0  0  0
 89179  1  0  0  0
M  ISO  4   1 100  68 101  87 101  89 100
M  END
> <chiral flag>
0

> <version>
0

> <s_m_source_file>
/data/baiqing/PycharmProjects/Reinvent-master-3.2/result/LINK_invent/BTK/process_docking_weight1_custom_sum_contain_oxygen_bond_distance_aromatic_linkinvent_7_9_3/rearranged_h_0088.sdf

> <i_m_source_file_index>
95

> <r_mmod_Potential_Energy-OPLS-2005>
19.3763446807861

> <r_mmod_Stretch_Energy-OPLS-2005>
43.9227180480957

> <r_mmod_Bend_Energy-OPLS-2005>
114.647514343262

> <r_mmod_Torsional_Energy-OPLS-2005>
280.569305419922

> <r_mmod_Improper_Torsional_Energy-OPLS-2005>
4.90403652191162

> <r_mmod_Van_der_Waal_Energy-OPLS-2005>
157.687850952148

> <r_mmod_Electrostatic_Energy-OPLS-2005>
-391.473205566406

> <r_mmod_Solvation_Energy-OPLS-2005>
-200.908874511719

> <b_mmod_Minimization_Converged-OPLS-2005>
0

> <r_mmod_RMS_Derivative-OPLS-2005>
4.53889513015747

$$$$
97
                    3D
 Structure written by MMmdl.
182190  0  0  1  0            999 V2000
  -30.6871  -14.5939   20.5280 C   0  0  0  0  0  0
  -30.4267  -12.3709   19.4570 C   0  0  0  0  0  0
  -29.5032  -12.5115   18.2279 C   0  0  0  0  0  0
  -28.0265  -12.3570   18.6374 C   0  0  0  0  0  0
  -27.6551  -13.2236   19.8710 C   0  0  2  0  0  0
  -28.7016  -13.0795   21.0022 C   0  0  0  0  0  0
  -25.2549  -13.8204   20.5677 C   0  0  0  0  0  0
  -24.1819  -13.0453   20.9178 C   0  0  0  0  0  0
  -24.6397  -11.6920   20.8745 C   0  0  0  0  0  0
  -23.9064  -10.4294   21.0402 C   0  0  0  0  0  0
  -24.3613   -9.4213   21.9189 C   0  0  0  0  0  0
  -23.6287   -8.2248   22.0761 C   0  0  0  0  0  0
  -22.4274   -8.0281   21.3537 C   0  0  0  0  0  0
  -21.9913   -9.0261   20.4638 C   0  0  0  0  0  0
  -22.7240  -10.2133   20.3050 C   0  0  0  0  0  0
  -21.6852   -6.0734   22.5280 C   0  0  0  0  0  0
  -21.4010   -6.5637   23.8207 C   0  0  0  0  0  0
  -21.3661   -5.6786   24.9179 C   0  0  0  0  0  0
  -21.6048   -4.3059   24.7221 C   0  0  0  0  0  0
  -21.8819   -3.8144   23.4351 C   0  0  0  0  0  0
  -21.9184   -4.6960   22.3401 C   0  0  0  0  0  0
  -22.7835  -13.5229   21.1853 C   0  0  0  0  0  0
  -22.1657   -4.2135   21.0981 F   0  0  0  0  0  0
  -21.5634   -3.4535   25.7743 F   0  0  0  0  0  0
  -30.0232  -13.3978   20.4375 N   0  0  0  0  0  0
  -26.2998  -12.9390   20.3355 N   0  0  0  0  0  0
  -25.9333  -11.6525   20.5784 N   0  0  0  0  0  0
  -22.0461  -12.8201   22.0388 N   0  0  0  0  0  0
  -25.4267  -15.1917   20.4068 N   0  0  0  0  0  0
  -31.8363  -14.7265   20.1045 O   0  0  0  0  0  0
  -21.6641   -6.8883   21.4238 O   0  0  0  0  0  0
  -22.3510  -14.5534   20.6710 O   0  0  0  0  0  0
  -24.6198  -31.8670   23.2041 C   0  0  0  0  0  0
  -25.9094  -32.4792   23.8337 C   0  0  1  0  0  0
  -27.2153  -27.3428   20.0868 C   0  0  0  0  0  0
  -25.5922  -33.8610   24.2237 N   0  0  0  0  0  0
  -23.4088  -30.4880   21.5487 C   0  0  2  0  0  0
  -24.8495  -28.9527   20.1016 C   0  0  0  0  0  0
  -22.7459  -29.4602   22.4942 C   0  0  0  0  0  0
  -18.0281  -28.1330   22.8458 C   0  0  0  0  0  0
  -24.1520  -36.7283   23.2622 C   0  0  0  0  0  0
  -25.9505  -30.7948   21.3778 C   0  0  0  0  0  0
  -26.0187  -29.4298   20.7050 C   0  0  0  0  0  0
  -27.2012  -28.6360   20.6876 C   0  0  0  0  0  0
  -26.0148  -26.9098   19.4702 C   0  0  0  0  0  0
  -24.8496  -27.6960   19.4785 C   0  0  0  0  0  0
  -23.6145  -29.8244   20.1609 C   0  0  0  0  0  0
  -25.4148  -36.3083   24.0279 C   0  0  1  0  0  0
  -20.5864  -28.3640   23.1295 C   0  0  2  0  0  0
  -20.6795  -26.9368   22.5401 C   0  0  0  0  0  0
  -19.5796  -26.6365   21.5175 C   0  0  0  0  0  0
  -18.1959  -26.7875   22.1566 C   0  0  0  0  0  0
  -19.1525  -28.8802   23.2860 C   0  0  0  0  0  0
  -18.9476  -30.1417   23.8839 C   0  0  0  0  0  0
  -17.6487  -30.6559   24.0542 C   0  0  0  0  0  0
  -25.9081  -34.9465   23.5059 C   0  0  0  0  0  0
  -16.5369  -29.9051   23.6330 C   0  0  0  0  0  0
  -16.7271  -28.6463   23.0336 C   0  0  0  0  0  0
  -26.4484  -31.6614   25.0731 C   0  0  0  0  0  0
  -25.3685  -31.3769   26.1436 C   0  0  0  0  0  0
  -27.0349  -30.3029   24.6244 C   0  0  0  0  0  0
  -27.6026  -32.4389   25.7509 C   0  0  0  0  0  0
  -27.5596  -37.1798   24.8440 C   0  0  0  0  0  0
  -21.4172  -29.2990   22.3699 N   0  0  0  0  0  0
  -26.4319  -37.3775   23.9365 N   0  0  0  0  0  0
  -24.6778  -31.0668   22.0978 N   0  0  0  0  0  0
  -23.4217  -28.8105   23.2969 O   0  0  0  0  0  0
  -28.3609  -26.5343   20.1418 O   0  0  0  0  0  0
  -26.5703  -34.8916   22.4661 O   0  0  0  0  0  0
  -23.5365  -32.1472   23.7371 O   0  0  0  0  0  0
  -31.4418  -22.1694   21.4330 C   0  0  0  0  0  0
  -32.2079  -21.4090   22.3276 C   0  0  0  0  0  0
  -31.7473  -20.1041   22.7451 C   0  0  0  0  0  0
  -30.2400  -21.6793   20.9284 C   0  0  0  0  0  0
  -30.6611  -19.5524   21.9454 C   0  0  0  0  0  0
  -34.5872  -22.0512   21.6929 C   0  0  0  0  0  0
  -33.0876  -20.4086   26.4493 C   0  0  0  0  0  0
  -30.6605  -20.5406   25.7593 C   0  0  0  0  0  0
  -28.6113  -25.0839   18.2075 C   0  0  0  0  0  0
  -31.8002  -18.1388   24.6146 C   0  0  0  0  0  0
  -33.8583  -19.1017   23.8460 C   0  0  0  0  0  0
  -33.4928  -22.1301   22.7667 C   0  0  0  0  0  0
  -29.3448  -22.6262   20.0717 C   0  0  0  0  0  0
  -30.1755  -18.0501   21.9729 C   0  0  0  0  0  0
  -29.2356  -24.1422   20.5419 C   0  0  0  0  0  0
  -30.2993  -17.1396   20.6979 C   0  0  0  0  0  0
  -32.1175  -20.5115   25.2544 C   0  0  0  0  0  0
  -28.3095  -25.1244   19.7188 C   0  0  1  0  0  0
  -32.3642  -19.4801   24.0720 C   0  0  0  0  0  0
  -29.9076  -20.3664   21.1255 N   0  0  0  0  0  0
  -29.9638  -15.6827   20.9141 N   0  0  0  0  0  0
  -31.4705  -12.4688   19.1553 H   0  0  0  0  0  0
  -30.3368  -11.3753   19.8956 H   0  0  0  0  0  0
  -29.7620  -11.7693   17.4740 H   0  0  0  0  0  0
  -29.6527  -13.4865   17.7614 H   0  0  0  0  0  0
  -27.8546  -11.3028   18.8598 H   0  0  0  0  0  0
  -27.3749  -12.5995   17.7980 H   0  0  0  0  0  0
  -27.6773  -14.2601   19.5345 H   0  0  0  0  0  0
  -28.6987  -12.0609   21.3945 H   0  0  0  0  0  0
  -28.4533  -13.7259   21.8450 H   0  0  0  0  0  0
  -25.2757   -9.5683   22.4764 H   0  0  0  0  0  0
  -23.9984   -7.4645   22.7489 H   0  0  0  0  0  0
  -21.0848   -8.8782   19.8942 H   0  0  0  0  0  0
  -22.3714  -10.9671   19.6152 H   0  0  0  0  0  0
  -21.2010   -7.6135   23.9705 H   0  0  0  0  0  0
  -21.1483   -6.0520   25.9070 H   0  0  0  0  0  0
  -22.0598   -2.7598   23.2855 H   0  0  0  0  0  0
  -22.4069  -11.9846   22.4741 H   0  0  0  0  0  0
  -21.1081  -13.1227   22.2607 H   0  0  0  0  0  0
  -24.6621  -15.8504   20.5096 H   0  0  0  0  0  0
  -26.2811  -15.6246   20.0840 H   0  0  0  0  0  0
  -26.7153  -32.5439   23.1062 H   0  0  0  0  0  0
  -24.9948  -33.9748   25.0305 H   0  0  0  0  0  0
  -22.6917  -31.2992   21.4118 H   0  0  0  0  0  0
  -23.3785  -35.9622   23.3292 H   0  0  0  0  0  0
  -24.3574  -36.8955   22.2033 H   0  0  0  0  0  0
  -23.7282  -37.6462   23.6711 H   0  0  0  0  0  0
  -26.0987  -31.5716   20.6264 H   0  0  0  0  0  0
  -26.8205  -30.8172   22.0234 H   0  0  0  0  0  0
  -28.1057  -28.9989   21.1543 H   0  0  0  0  0  0
  -25.9354  -25.9533   18.9776 H   0  0  0  0  0  0
  -23.9451  -27.3269   19.0096 H   0  0  0  0  0  0
  -23.7020  -30.5997   19.3979 H   0  0  0  0  0  0
  -22.7343  -29.2383   19.8819 H   0  0  0  0  0  0
  -25.1348  -36.1906   25.0761 H   0  0  0  0  0  0
  -20.9944  -28.3226   24.1416 H   0  0  0  0  0  0
  -20.5695  -26.2225   23.3591 H   0  0  0  0  0  0
  -21.6674  -26.7409   22.1193 H   0  0  0  0  0  0
  -19.6973  -25.6278   21.1212 H   0  0  0  0  0  0
  -19.6769  -27.3155   20.6692 H   0  0  0  0  0  0
  -17.4246  -26.6619   21.3958 H   0  0  0  0  0  0
  -18.0329  -26.0002   22.8927 H   0  0  0  0  0  0
  -19.7968  -30.7238   24.2175 H   0  0  0  0  0  0
  -17.5054  -31.6219   24.5163 H   0  0  0  0  0  0
  -15.5356  -30.2942   23.7709 H   0  0  0  0  0  0
  -15.8660  -28.0800   22.7057 H   0  0  0  0  0  0
  -24.5874  -30.7108   25.7715 H   0  0  0  0  0  0
  -24.8859  -32.2956   26.4798 H   0  0  0  0  0  0
  -25.7979  -30.8969   27.0238 H   0  0  0  0  0  0
  -26.2948  -29.6739   24.1280 H   0  0  0  0  0  0
  -27.3962  -29.7338   25.4809 H   0  0  0  0  0  0
  -27.8871  -30.4230   23.9548 H   0  0  0  0  0  0
  -27.2613  -33.3701   26.2036 H   0  0  0  0  0  0
  -28.3880  -32.6938   25.0378 H   0  0  0  0  0  0
  -28.0665  -31.8566   26.5481 H   0  0  0  0  0  0
  -28.2583  -38.0127   24.7533 H   0  0  0  0  0  0
  -28.1154  -36.2652   24.6277 H   0  0  0  0  0  0
  -27.2311  -37.1415   25.8847 H   0  0  0  0  0  0
  -20.9349  -29.8677   21.6892 H   0  0  0  0  0  0
  -26.0205  -38.2845   24.1407 H   0  0  0  0  0  0
  -31.7762  -23.1621   21.1660 H   0  0  0  0  0  0
  -35.5057  -22.5315   22.0371 H   0  0  0  0  0  0
  -34.2774  -22.5501   20.7735 H   0  0  0  0  0  0
  -34.8270  -21.0169   21.4483 H   0  0  0  0  0  0
  -32.8814  -21.1967   27.1748 H   0  0  0  0  0  0
  -34.1257  -20.5303   26.1396 H   0  0  0  0  0  0
  -33.0010  -19.4596   26.9764 H   0  0  0  0  0  0
  -30.4698  -21.4364   26.3489 H   0  0  0  0  0  0
  -30.4283  -19.6839   26.3914 H   0  0  0  0  0  0
  -29.9505  -20.5445   24.9332 H   0  0  0  0  0  0
  -29.6647  -25.2800   18.0024 H   0  0  0  0  0  0
  -28.0243  -25.8210   17.6544 H   0  0  0  0  0  0
  -28.3607  -24.1137   17.7788 H   0  0  0  0  0  0
  -32.1515  -17.2754   24.0500 H   0  0  0  0  0  0
  -30.7129  -18.1224   24.6893 H   0  0  0  0  0  0
  -32.1712  -17.9314   25.6181 H   0  0  0  0  0  0
  -33.9629  -18.4665   22.9677 H   0  0  0  0  0  0
  -34.2605  -18.5308   24.6856 H   0  0  0  0  0  0
  -34.5538  -19.9195   23.7061 H   0  0  0  0  0  0
  -33.9055  -21.8285   23.7198 H   0  0  0  0  0  0
  -33.2530  -23.1814   22.9334 H   0  0  0  0  0  0
  -28.3469  -22.1988   19.9834 H   0  0  0  0  0  0
  -29.7647  -22.6113   19.0655 H   0  0  0  0  0  0
  -29.1599  -18.0224   22.3698 H   0  0  0  0  0  0
  -30.7522  -17.4577   22.6432 H   0  0  0  0  0  0
  -30.2324  -24.5742   20.5703 H   0  0  0  0  0  0
  -28.8788  -24.1410   21.5729 H   0  0  0  0  0  0
  -31.3087  -17.2352   20.2923 H   0  0  0  0  0  0
  -29.6308  -17.5339   19.9317 H   0  0  0  0  0  0
  -32.2543  -21.5270   24.9023 H   0  0  0  0  0  0
  -27.3116  -24.7266   19.8881 H   0  0  0  0  0  0
  -29.0285  -15.4827   21.2368 H   0  0  0  0  0  0
  1 25  1  0  0  0
  1 30  2  0  0  0
  1 91  1  0  0  0
  2  3  1  0  0  0
  2 25  1  0  0  0
  2 92  1  0  0  0
  2 93  1  0  0  0
  3  4  1  0  0  0
  3 94  1  0  0  0
  3 95  1  0  0  0
  4  5  1  0  0  0
  4 96  1  0  0  0
  4 97  1  0  0  0
  5  6  1  0  0  0
  5 26  1  0  0  0
  5 98  1  0  0  0
  6 25  1  0  0  0
  6 99  1  0  0  0
  6100  1  0  0  0
  7  8  2  0  0  0
  7 26  1  0  0  0
  7 29  1  0  0  0
  8  9  1  0  0  0
  8 22  1  0  0  0
  9 10  1  0  0  0
  9 27  2  0  0  0
 10 11  2  0  0  0
 10 15  1  0  0  0
 11 12  1  0  0  0
 11101  1  0  0  0
 12 13  2  0  0  0
 12102  1  0  0  0
 13 14  1  0  0  0
 13 31  1  0  0  0
 14 15  2  0  0  0
 14103  1  0  0  0
 15104  1  0  0  0
 16 17  2  0  0  0
 16 21  1  0  0  0
 16 31  1  0  0  0
 17 18  1  0  0  0
 17105  1  0  0  0
 18 19  2  0  0  0
 18106  1  0  0  0
 19 20  1  0  0  0
 19 24  1  0  0  0
 20 21  2  0  0  0
 20107  1  0  0  0
 21 23  1  0  0  0
 22 28  1  0  0  0
 22 32  2  0  0  0
 26 27  1  0  0  0
 28108  1  0  0  0
 28109  1  0  0  0
 29110  1  0  0  0
 29111  1  0  0  0
 33 34  1  0  0  0
 33 66  1  0  0  0
 33 70  2  0  0  0
 34 36  1  0  0  0
 34 59  1  0  0  0
 34112  1  0  0  0
 35 44  2  0  0  0
 35 45  1  0  0  0
 35 68  1  0  0  0
 36 56  1  0  0  0
 36113  1  0  0  0
 37 39  1  0  0  0
 37 47  1  0  0  0
 37 66  1  0  0  0
 37114  1  0  0  0
 38 43  2  0  0  0
 38 46  1  0  0  0
 38 47  1  0  0  0
 39 64  1  0  0  0
 39 67  2  0  0  0
 40 52  1  0  0  0
 40 53  2  0  0  0
 40 58  1  0  0  0
 41115  1  0  0  0
 41116  1  0  0  0
 41117  1  0  0  0
 41 48  1  0  0  0
 42 43  1  0  0  0
 42 66  1  0  0  0
 42118  1  0  0  0
 42119  1  0  0  0
 43 44  1  0  0  0
 44120  1  0  0  0
 45 46  2  0  0  0
 45121  1  0  0  0
 46122  1  0  0  0
 47123  1  0  0  0
 47124  1  0  0  0
 48 56  1  0  0  0
 48 65  1  0  0  0
 48125  1  0  0  0
 49 50  1  0  0  0
 49 53  1  0  0  0
 49 64  1  0  0  0
 49126  1  0  0  0
 50 51  1  0  0  0
 50127  1  0  0  0
 50128  1  0  0  0
 51 52  1  0  0  0
 51129  1  0  0  0
 51130  1  0  0  0
 52131  1  0  0  0
 52132  1  0  0  0
 53 54  1  0  0  0
 54 55  2  0  0  0
 54133  1  0  0  0
 55 57  1  0  0  0
 55134  1  0  0  0
 56 69  2  0  0  0
 57 58  2  0  0  0
 57135  1  0  0  0
 58136  1  0  0  0
 59 60  1  0  0  0
 59 61  1  0  0  0
 59 62  1  0  0  0
 60137  1  0  0  0
 60138  1  0  0  0
 60139  1  0  0  0
 61140  1  0  0  0
 61141  1  0  0  0
 61142  1  0  0  0
 62143  1  0  0  0
 62144  1  0  0  0
 62145  1  0  0  0
 63 65  1  0  0  0
 63146  1  0  0  0
 63147  1  0  0  0
 63148  1  0  0  0
 64149  1  0  0  0
 65150  1  0  0  0
 68 88  1  0  0  0
 71 72  2  0  0  0
 71 74  1  0  0  0
 71151  1  0  0  0
 72 73  1  0  0  0
 72 82  1  0  0  0
 73 75  2  0  0  0
 73 89  1  0  0  0
 74 83  1  0  0  0
 74 90  2  0  0  0
 75 84  1  0  0  0
 75 90  1  0  0  0
 76 82  1  0  0  0
 76152  1  0  0  0
 76153  1  0  0  0
 76154  1  0  0  0
 77155  1  0  0  0
 77156  1  0  0  0
 77157  1  0  0  0
 77 87  1  0  0  0
 78 87  1  0  0  0
 78158  1  0  0  0
 78159  1  0  0  0
 78160  1  0  0  0
 79161  1  0  0  0
 79162  1  0  0  0
 79163  1  0  0  0
 79 88  1  0  0  0
 80164  1  0  0  0
 80165  1  0  0  0
 80166  1  0  0  0
 80 89  1  0  0  0
 81 89  1  0  0  0
 81167  1  0  0  0
 81168  1  0  0  0
 81169  1  0  0  0
 82170  1  0  0  0
 82171  1  0  0  0
 83 85  1  0  0  0
 83172  1  0  0  0
 83173  1  0  0  0
 84 86  1  0  0  0
 84174  1  0  0  0
 84175  1  0  0  0
 85 88  1  0  0  0
 85176  1  0  0  0
 85177  1  0  0  0
 86 91  1  0  0  0
 86178  1  0  0  0
 86179  1  0  0  0
 87 89  1  0  0  0
 87180  1  0  0  0
 88181  1  0  0  0
 91182  1  0  0  0
M  ISO  4   1 100  68 101  88 101  91 100
M  END
> <chiral flag>
0

> <version>
0

> <s_m_source_file>
/data/baiqing/PycharmProjects/Reinvent-master-3.2/result/LINK_invent/BTK/process_docking_weight1_custom_sum_contain_oxygen_bond_distance_aromatic_linkinvent_7_9_3/rearranged_h_0088.sdf

> <i_m_source_file_index>
96

> <r_mmod_Potential_Energy-OPLS-2005>
-46.5376319885254

> <r_mmod_Stretch_Energy-OPLS-2005>
100.984504699707

> <r_mmod_Bend_Energy-OPLS-2005>
189.614791870117

> <r_mmod_Torsional_Energy-OPLS-2005>
234.532409667969

> <r_mmod_Improper_Torsional_Energy-OPLS-2005>
5.28319263458252

> <r_mmod_Van_der_Waal_Energy-OPLS-2005>
188.043029785156

> <r_mmod_Electrostatic_Energy-OPLS-2005>
-591.399719238281

> <r_mmod_Solvation_Energy-OPLS-2005>
-209.974670410156

> <b_mmod_Minimization_Converged-OPLS-2005>
0

> <r_mmod_RMS_Derivative-OPLS-2005>
4.63357162475586

$$$$
98
                    3D
 Structure written by MMmdl.
157165  0  0  1  0            999 V2000
  -30.4246  -14.9239   20.3448 C   0  0  0  0  0  0
  -30.4307  -12.5228   19.4835 C   0  0  0  0  0  0
  -29.5000  -12.4874   18.2576 C   0  0  0  0  0  0
  -28.0490  -12.2867   18.7085 C   0  0  0  0  0  0
  -27.6541  -13.2140   19.8878 C   0  0  2  0  0  0
  -28.7031  -13.1761   21.0136 C   0  0  0  0  0  0
  -25.2671  -13.8148   20.5715 C   0  0  0  0  0  0
  -24.1874  -13.0512   20.9273 C   0  0  0  0  0  0
  -24.6494  -11.6982   20.8875 C   0  0  0  0  0  0
  -23.9114  -10.4351   21.0421 C   0  0  0  0  0  0
  -24.3638   -9.4224   21.9174 C   0  0  0  0  0  0
  -23.6300   -8.2258   22.0745 C   0  0  0  0  0  0
  -22.4286   -8.0306   21.3551 C   0  0  0  0  0  0
  -21.9923   -9.0291   20.4642 C   0  0  0  0  0  0
  -22.7276  -10.2188   20.3049 C   0  0  0  0  0  0
  -21.6878   -6.0764   22.5278 C   0  0  0  0  0  0
  -21.4017   -6.5649   23.8215 C   0  0  0  0  0  0
  -21.3658   -5.6787   24.9153 C   0  0  0  0  0  0
  -21.6042   -4.3061   24.7198 C   0  0  0  0  0  0
  -21.8838   -3.8173   23.4322 C   0  0  0  0  0  0
  -21.9206   -4.6987   22.3382 C   0  0  0  0  0  0
  -22.7956  -13.5325   21.1876 C   0  0  0  0  0  0
  -22.1680   -4.2157   21.0969 F   0  0  0  0  0  0
  -21.5623   -3.4547   25.7725 F   0  0  0  0  0  0
  -29.9477  -13.6147   20.3850 N   0  0  0  0  0  0
  -26.3116  -12.9326   20.3635 N   0  0  0  0  0  0
  -25.9457  -11.6570   20.5985 N   0  0  0  0  0  0
  -22.0598  -12.8271   22.0312 N   0  0  0  0  0  0
  -25.4645  -15.1890   20.4323 N   0  0  0  0  0  0
  -31.5824  -15.1105   19.9400 O   0  0  0  0  0  0
  -21.6689   -6.8904   21.4238 O   0  0  0  0  0  0
  -22.3699  -14.5619   20.6690 O   0  0  0  0  0  0
  -24.6799  -31.8153   23.1784 C   0  0  0  0  0  0
  -25.9368  -32.4575   23.8118 C   0  0  1  0  0  0
  -27.1164  -26.9741   20.0772 C   0  0  0  0  0  0
  -25.6016  -33.8390   24.2031 N   0  0  0  0  0  0
  -23.4850  -30.4051   21.5656 C   0  0  2  0  0  0
  -24.8859  -28.8368   20.1090 C   0  0  0  0  0  0
  -22.8324  -29.3885   22.5159 C   0  0  0  0  0  0
  -18.0905  -28.0808   22.8564 C   0  0  0  0  0  0
  -24.1478  -36.7238   23.2605 C   0  0  0  0  0  0
  -26.0499  -30.6217   21.4061 C   0  0  0  0  0  0
  -26.0918  -29.2221   20.7279 C   0  0  0  0  0  0
  -27.2161  -28.2994   20.6831 C   0  0  0  0  0  0
  -25.8998  -26.7353   19.4132 C   0  0  0  0  0  0
  -24.7971  -27.5981   19.4720 C   0  0  0  0  0  0
  -23.7018  -29.7700   20.1603 C   0  0  0  0  0  0
  -25.4136  -36.3003   24.0253 C   0  0  1  0  0  0
  -20.6658  -28.2796   23.1380 C   0  0  2  0  0  0
  -20.7371  -26.8596   22.4810 C   0  0  0  0  0  0
  -19.6624  -26.6935   21.4195 C   0  0  0  0  0  0
  -18.2590  -26.8192   22.0366 C   0  0  0  0  0  0
  -19.2224  -28.7969   23.3246 C   0  0  0  0  0  0
  -19.0117  -30.0400   23.9962 C   0  0  0  0  0  0
  -17.7096  -30.5849   24.1083 C   0  0  0  0  0  0
  -25.9169  -34.9372   23.5030 C   0  0  0  0  0  0
  -16.6017  -29.8525   23.6511 C   0  0  0  0  0  0
  -16.7775  -28.5814   23.0746 C   0  0  0  0  0  0
  -26.4701  -31.6588   25.0700 C   0  0  0  0  0  0
  -25.3830  -31.3775   26.1353 C   0  0  0  0  0  0
  -27.0528  -30.2920   24.6461 C   0  0  0  0  0  0
  -27.6243  -32.4338   25.7611 C   0  0  0  0  0  0
  -27.5599  -37.1788   24.8459 C   0  0  0  0  0  0
  -21.5009  -29.2456   22.4099 N   0  0  0  0  0  0
  -26.4299  -37.3763   23.9423 N   0  0  0  0  0  0
  -24.7646  -30.9828   22.0937 N   0  0  0  0  0  0
  -23.5011  -28.7241   23.3279 O   0  0  0  0  0  0
  -28.0563  -25.8665   20.0475 O   0  0  0  0  0  0
  -26.5710  -34.8932   22.4595 O   0  0  0  0  0  0
  -23.5770  -32.1077   23.6808 O   0  0  0  0  0  0
  -26.6692  -20.1686   21.3630 C   0  0  0  0  0  0
  -25.7109  -21.1454   20.9607 C   0  0  0  0  0  0
  -27.7432  -20.1023   20.5038 C   0  0  0  0  0  0
  -26.1165  -21.3507   19.6842 C   0  0  0  0  0  0
  -24.4876  -21.7411   21.6988 C   0  0  0  0  0  0
  -25.3483  -21.6750   18.4130 C   0  0  0  0  0  0
  -28.8117  -18.8638   20.8555 C   0  0  0  0  0  0
  -28.1991  -22.8384   19.5535 C   0  0  0  0  0  0
  -29.2949  -17.4876   19.9995 C   0  0  0  0  0  0
  -27.5874  -24.3325   20.1548 C   0  0  0  0  0  0
  -27.5000  -21.4491   19.8610 N   0  0  0  0  0  0
  -29.5087  -15.9948   20.5593 N   0  0  0  0  0  0
  -31.4766  -12.6197   19.2079 H   0  0  0  0  0  0
  -30.3532  -11.5705   20.0085 H   0  0  0  0  0  0
  -29.7862  -11.6812   17.5905 H   0  0  0  0  0  0
  -29.5859  -13.3966   17.6890 H   0  0  0  0  0  0
  -27.9573  -11.2452   19.0303 H   0  0  0  0  0  0
  -27.3497  -12.3965   17.8846 H   0  0  0  0  0  0
  -27.6410  -14.2165   19.4730 H   0  0  0  0  0  0
  -28.8477  -12.1778   21.4456 H   0  0  0  0  0  0
  -28.4622  -13.8333   21.8595 H   0  0  0  0  0  0
  -25.2787   -9.5740   22.4700 H   0  0  0  0  0  0
  -24.0060   -7.4685   22.7464 H   0  0  0  0  0  0
  -21.0839   -8.8838   19.8921 H   0  0  0  0  0  0
  -22.3734  -10.9747   19.6139 H   0  0  0  0  0  0
  -21.2015   -7.6158   23.9699 H   0  0  0  0  0  0
  -21.1446   -6.0524   25.9055 H   0  0  0  0  0  0
  -22.0618   -2.7620   23.2832 H   0  0  0  0  0  0
  -22.4335  -11.9947   22.4610 H   0  0  0  0  0  0
  -21.1281  -13.1260   22.2544 H   0  0  0  0  0  0
  -24.7216  -15.8713   20.5526 H   0  0  0  0  0  0
  -26.3224  -15.6139   20.1082 H   0  0  0  0  0  0
  -26.7478  -32.5139   23.0824 H   0  0  0  0  0  0
  -25.0292  -33.9516   25.0252 H   0  0  0  0  0  0
  -22.7670  -31.2303   21.4067 H   0  0  0  0  0  0
  -23.3785  -35.9560   23.3280 H   0  0  0  0  0  0
  -24.3515  -36.8895   22.2037 H   0  0  0  0  0  0
  -23.7239  -37.6417   23.6675 H   0  0  0  0  0  0
  -26.2728  -31.3647   20.6390 H   0  0  0  0  0  0
  -26.9115  -30.6348   22.0672 H   0  0  0  0  0  0
  -28.1444  -28.5500   21.1699 H   0  0  0  0  0  0
  -25.7578  -25.8214   18.8642 H   0  0  0  0  0  0
  -23.8686  -27.2916   19.0017 H   0  0  0  0  0  0
  -23.9133  -30.5590   19.4217 H   0  0  0  0  0  0
  -22.7961  -29.2733   19.8021 H   0  0  0  0  0  0
  -25.1343  -36.1851   25.0749 H   0  0  0  0  0  0
  -21.0786  -28.1740   24.1579 H   0  0  0  0  0  0
  -20.5569  -26.0722   23.2398 H   0  0  0  0  0  0
  -21.6869  -26.6626   21.9946 H   0  0  0  0  0  0
  -19.7989  -25.7876   20.8529 H   0  0  0  0  0  0
  -19.8011  -27.5126   20.7280 H   0  0  0  0  0  0
  -17.5114  -26.8288   21.2269 H   0  0  0  0  0  0
  -18.0215  -25.9408   22.6635 H   0  0  0  0  0  0
  -19.8811  -30.5912   24.3853 H   0  0  0  0  0  0
  -17.6156  -31.5738   24.5415 H   0  0  0  0  0  0
  -15.6159  -30.2755   23.7475 H   0  0  0  0  0  0
  -15.9276  -27.9815   22.7642 H   0  0  0  0  0  0
  -24.6039  -30.7159   25.7542 H   0  0  0  0  0  0
  -24.9029  -32.2977   26.4739 H   0  0  0  0  0  0
  -25.8058  -30.8906   27.0156 H   0  0  0  0  0  0
  -26.3099  -29.6664   24.1518 H   0  0  0  0  0  0
  -27.4032  -29.7292   25.5126 H   0  0  0  0  0  0
  -27.9135  -30.4017   23.9842 H   0  0  0  0  0  0
  -27.2834  -33.3594   26.2277 H   0  0  0  0  0  0
  -28.4157  -32.6964   25.0561 H   0  0  0  0  0  0
  -28.0880  -31.8406   26.5544 H   0  0  0  0  0  0
  -28.2599  -38.0099   24.7582 H   0  0  0  0  0  0
  -28.1109  -36.2663   24.6227 H   0  0  0  0  0  0
  -27.2287  -37.1355   25.8833 H   0  0  0  0  0  0
  -21.0073  -29.8230   21.7275 H   0  0  0  0  0  0
  -26.0149  -38.2822   24.1484 H   0  0  0  0  0  0
  -26.6004  -19.5628   22.2386 H   0  0  0  0  0  0
  -24.8355  -22.5837   22.3108 H   0  0  0  0  0  0
  -23.9684  -21.0620   22.3798 H   0  0  0  0  0  0
  -23.7316  -22.1003   21.0092 H   0  0  0  0  0  0
  -24.2946  -21.5175   18.5484 H   0  0  0  0  0  0
  -25.6351  -21.0183   17.5915 H   0  0  0  0  0  0
  -25.4643  -22.6847   18.0480 H   0  0  0  0  0  0
  -28.2289  -18.3340   21.6243 H   0  0  0  0  0  0
  -29.6344  -19.2531   21.4348 H   0  0  0  0  0  0
  -29.2437  -22.7432   19.8259 H   0  0  0  0  0  0
  -28.1774  -22.9423   18.4559 H   0  0  0  0  0  0
  -30.1525  -17.7985   19.3972 H   0  0  0  0  0  0
  -28.4597  -17.2867   19.3312 H   0  0  0  0  0  0
  -27.6177  -24.1853   21.2375 H   0  0  0  0  0  0
  -26.5203  -24.2930   19.9917 H   0  0  0  0  0  0
  -28.6629  -15.6195   20.9838 H   0  0  0  0  0  0
  1 25  1  0  0  0
  1 30  2  0  0  0
  1 82  1  0  0  0
  2  3  1  0  0  0
  2 25  1  0  0  0
  2 83  1  0  0  0
  2 84  1  0  0  0
  3  4  1  0  0  0
  3 85  1  0  0  0
  3 86  1  0  0  0
  4  5  1  0  0  0
  4 87  1  0  0  0
  4 88  1  0  0  0
  5  6  1  0  0  0
  5 26  1  0  0  0
  5 89  1  0  0  0
  6 25  1  0  0  0
  6 90  1  0  0  0
  6 91  1  0  0  0
  7  8  2  0  0  0
  7 26  1  0  0  0
  7 29  1  0  0  0
  8  9  1  0  0  0
  8 22  1  0  0  0
  9 10  1  0  0  0
  9 27  2  0  0  0
 10 11  2  0  0  0
 10 15  1  0  0  0
 11 12  1  0  0  0
 11 92  1  0  0  0
 12 13  2  0  0  0
 12 93  1  0  0  0
 13 14  1  0  0  0
 13 31  1  0  0  0
 14 15  2  0  0  0
 14 94  1  0  0  0
 15 95  1  0  0  0
 16 17  2  0  0  0
 16 21  1  0  0  0
 16 31  1  0  0  0
 17 18  1  0  0  0
 17 96  1  0  0  0
 18 19  2  0  0  0
 18 97  1  0  0  0
 19 20  1  0  0  0
 19 24  1  0  0  0
 20 21  2  0  0  0
 20 98  1  0  0  0
 21 23  1  0  0  0
 22 28  1  0  0  0
 22 32  2  0  0  0
 26 27  1  0  0  0
 28 99  1  0  0  0
 28100  1  0  0  0
 29101  1  0  0  0
 29102  1  0  0  0
 33 34  1  0  0  0
 33 66  1  0  0  0
 33 70  2  0  0  0
 34 36  1  0  0  0
 34 59  1  0  0  0
 34103  1  0  0  0
 35 44  2  0  0  0
 35 45  1  0  0  0
 35 68  1  0  0  0
 36 56  1  0  0  0
 36104  1  0  0  0
 37 39  1  0  0  0
 37 47  1  0  0  0
 37 66  1  0  0  0
 37105  1  0  0  0
 38 43  2  0  0  0
 38 46  1  0  0  0
 38 47  1  0  0  0
 39 64  1  0  0  0
 39 67  2  0  0  0
 40 52  1  0  0  0
 40 53  2  0  0  0
 40 58  1  0  0  0
 41106  1  0  0  0
 41107  1  0  0  0
 41108  1  0  0  0
 41 48  1  0  0  0
 42 43  1  0  0  0
 42 66  1  0  0  0
 42109  1  0  0  0
 42110  1  0  0  0
 43 44  1  0  0  0
 44111  1  0  0  0
 45 46  2  0  0  0
 45112  1  0  0  0
 46113  1  0  0  0
 47114  1  0  0  0
 47115  1  0  0  0
 48 56  1  0  0  0
 48 65  1  0  0  0
 48116  1  0  0  0
 49 50  1  0  0  0
 49 53  1  0  0  0
 49 64  1  0  0  0
 49117  1  0  0  0
 50 51  1  0  0  0
 50118  1  0  0  0
 50119  1  0  0  0
 51 52  1  0  0  0
 51120  1  0  0  0
 51121  1  0  0  0
 52122  1  0  0  0
 52123  1  0  0  0
 53 54  1  0  0  0
 54 55  2  0  0  0
 54124  1  0  0  0
 55 57  1  0  0  0
 55125  1  0  0  0
 56 69  2  0  0  0
 57 58  2  0  0  0
 57126  1  0  0  0
 58127  1  0  0  0
 59 60  1  0  0  0
 59 61  1  0  0  0
 59 62  1  0  0  0
 60128  1  0  0  0
 60129  1  0  0  0
 60130  1  0  0  0
 61131  1  0  0  0
 61132  1  0  0  0
 61133  1  0  0  0
 62134  1  0  0  0
 62135  1  0  0  0
 62136  1  0  0  0
 63 65  1  0  0  0
 63137  1  0  0  0
 63138  1  0  0  0
 63139  1  0  0  0
 64140  1  0  0  0
 65141  1  0  0  0
 68 80  1  0  0  0
 71 72  1  0  0  0
 71 73  2  0  0  0
 71142  1  0  0  0
 72 74  2  0  0  0
 72 75  1  0  0  0
 73 77  1  0  0  0
 73 81  1  0  0  0
 74 76  1  0  0  0
 74 81  1  0  0  0
 75143  1  0  0  0
 75144  1  0  0  0
 75145  1  0  0  0
 76146  1  0  0  0
 76147  1  0  0  0
 76148  1  0  0  0
 77 79  1  0  0  0
 77149  1  0  0  0
 77150  1  0  0  0
 78 80  1  0  0  0
 78 81  1  0  0  0
 78151  1  0  0  0
 78152  1  0  0  0
 79 82  1  0  0  0
 79153  1  0  0  0
 79154  1  0  0  0
 80155  1  0  0  0
 80156  1  0  0  0
 82157  1  0  0  0
M  ISO  4   1 100  68 101  80 101  82 100
M  END
> <chiral flag>
0

> <version>
0

> <s_m_source_file>
/data/baiqing/PycharmProjects/Reinvent-master-3.2/result/LINK_invent/BTK/process_docking_weight1_custom_sum_contain_oxygen_bond_distance_aromatic_linkinvent_7_9_3/rearranged_h_0088.sdf

> <i_m_source_file_index>
97

> <r_mmod_Potential_Energy-OPLS-2005>
1079.01196289062

> <r_mmod_Stretch_Energy-OPLS-2005>
362.513916015625

> <r_mmod_Bend_Energy-OPLS-2005>
455.169647216797

> <r_mmod_Torsional_Energy-OPLS-2005>
438.511047363281

> <r_mmod_Improper_Torsional_Energy-OPLS-2005>
13.4953289031982

> <r_mmod_Van_der_Waal_Energy-OPLS-2005>
109.860404968262

> <r_mmod_Electrostatic_Energy-OPLS-2005>
-399.557830810547

> <r_mmod_Solvation_Energy-OPLS-2005>
-219.807113647461

> <b_mmod_Minimization_Converged-OPLS-2005>
0

> <r_mmod_RMS_Derivative-OPLS-2005>
37.5605659484863

$$$$
