0
                    3D
 Structure written by MMmdl.
164173  0  0  1  0            999 V2000
  -30.6199  -14.8231   20.3834 C   0  0  0  0  0  0
  -30.4243  -12.5029   19.4626 C   0  0  0  0  0  0
  -29.4991  -12.5070   18.2284 C   0  0  0  0  0  0
  -28.0286  -12.3362   18.6560 C   0  0  0  0  0  0
  -27.6317  -13.2517   19.8433 C   0  0  2  0  0  0
  -28.6878  -13.2494   20.9670 C   0  0  0  0  0  0
  -25.2463  -13.8253   20.5684 C   0  0  0  0  0  0
  -24.1782  -13.0457   20.9246 C   0  0  0  0  0  0
  -24.6389  -11.6966   20.8766 C   0  0  0  0  0  0
  -23.9054  -10.4327   21.0382 C   0  0  0  0  0  0
  -24.3631   -9.4250   21.9153 C   0  0  0  0  0  0
  -23.6299   -8.2298   22.0798 C   0  0  0  0  0  0
  -22.4254   -8.0330   21.3621 C   0  0  0  0  0  0
  -21.9900   -9.0270   20.4701 C   0  0  0  0  0  0
  -22.7207  -10.2157   20.3065 C   0  0  0  0  0  0
  -21.6850   -6.0749   22.5313 C   0  0  0  0  0  0
  -21.3989   -6.5616   23.8241 C   0  0  0  0  0  0
  -21.3665   -5.6727   24.9171 C   0  0  0  0  0  0
  -21.6054   -4.2998   24.7218 C   0  0  0  0  0  0
  -21.8807   -3.8124   23.4320 C   0  0  0  0  0  0
  -21.9200   -4.6974   22.3403 C   0  0  0  0  0  0
  -22.7804  -13.5171   21.1905 C   0  0  0  0  0  0
  -22.1678   -4.2186   21.0971 F   0  0  0  0  0  0
  -21.5649   -3.4494   25.7728 F   0  0  0  0  0  0
  -29.9679  -13.6044   20.3446 N   0  0  0  0  0  0
  -26.2907  -12.9500   20.3353 N   0  0  0  0  0  0
  -25.9345  -11.6631   20.5834 N   0  0  0  0  0  0
  -22.0523  -12.8105   22.0498 N   0  0  0  0  0  0
  -25.4149  -15.1934   20.3944 N   0  0  0  0  0  0
  -31.8328  -14.8448   20.1663 O   0  0  0  0  0  0
  -21.6596   -6.8937   21.4315 O   0  0  0  0  0  0
  -22.3386  -14.5394   20.6721 O   0  0  0  0  0  0
  -24.6368  -31.8488   23.1971 C   0  0  0  0  0  0
  -25.9162  -32.4715   23.8330 C   0  0  1  0  0  0
  -27.2094  -27.1972   20.1105 C   0  0  0  0  0  0
  -25.5945  -33.8531   24.2234 N   0  0  0  0  0  0
  -23.4367  -30.4744   21.5418 C   0  0  2  0  0  0
  -24.8799  -28.9121   20.1061 C   0  0  0  0  0  0
  -22.7524  -29.4590   22.4891 C   0  0  0  0  0  0
  -18.0303  -28.1383   22.8488 C   0  0  0  0  0  0
  -24.1498  -36.7260   23.2643 C   0  0  0  0  0  0
  -25.9894  -30.7358   21.3907 C   0  0  0  0  0  0
  -26.0571  -29.3571   20.7210 C   0  0  0  0  0  0
  -27.2221  -28.5140   20.7089 C   0  0  0  0  0  0
  -26.0119  -26.8487   19.4477 C   0  0  0  0  0  0
  -24.8656  -27.6699   19.4593 C   0  0  0  0  0  0
  -23.6568  -29.8105   20.1578 C   0  0  0  0  0  0
  -25.4129  -36.3044   24.0320 C   0  0  1  0  0  0
  -20.5910  -28.3708   23.1246 C   0  0  2  0  0  0
  -20.6784  -26.9419   22.5398 C   0  0  0  0  0  0
  -19.5759  -26.6378   21.5207 C   0  0  0  0  0  0
  -18.1948  -26.7926   22.1628 C   0  0  0  0  0  0
  -19.1559  -28.8859   23.2862 C   0  0  0  0  0  0
  -18.9481  -30.1461   23.8877 C   0  0  0  0  0  0
  -17.6475  -30.6582   24.0563 C   0  0  0  0  0  0
  -25.9064  -34.9419   23.5074 C   0  0  0  0  0  0
  -16.5367  -29.9075   23.6338 C   0  0  0  0  0  0
  -16.7291  -28.6494   23.0362 C   0  0  0  0  0  0
  -26.4515  -31.6572   25.0747 C   0  0  0  0  0  0
  -25.3733  -31.3739   26.1462 C   0  0  0  0  0  0
  -27.0370  -30.2971   24.6309 C   0  0  0  0  0  0
  -27.6040  -32.4350   25.7527 C   0  0  0  0  0  0
  -27.5579  -37.1794   24.8465 C   0  0  0  0  0  0
  -21.4226  -29.3048   22.3619 N   0  0  0  0  0  0
  -26.4297  -37.3748   23.9396 N   0  0  0  0  0  0
  -24.7074  -31.0399   22.0976 N   0  0  0  0  0  0
  -23.4187  -28.8123   23.3013 O   0  0  0  0  0  0
  -28.2766  -26.2492   20.1822 O   0  0  0  0  0  0
  -26.5648  -34.8897   22.4648 O   0  0  0  0  0  0
  -23.5503  -32.1360   23.7219 O   0  0  0  0  0  0
  -27.2483  -19.9642   22.4479 C   0  0  0  0  0  0
  -27.6289  -21.0428   21.6533 C   0  0  0  0  0  0
  -27.8257  -18.6772   22.3276 C   0  0  0  0  0  0
  -28.8035  -18.4735   21.2755 C   0  0  0  0  0  0
  -28.6213  -20.8853   20.6919 C   0  0  0  0  0  0
  -26.6573  -15.5901   24.5520 C   0  0  0  0  0  0
  -25.6672  -16.6900   24.9285 C   0  0  0  0  0  0
  -27.4873  -16.1633   23.4054 C   0  0  0  0  0  0
  -25.9629  -17.8705   23.9980 C   0  0  0  0  0  0
  -27.4200  -17.7069   23.5016 C   0  0  0  0  0  0
  -29.5576  -17.0310   21.2641 C   0  0  0  0  0  0
  -28.9829  -23.5426   20.4761 C   0  0  0  0  0  0
  -28.0607  -24.7622   19.8641 C   0  0  0  0  0  0
  -29.1747  -19.5990   20.4938 N   0  0  0  0  0  0
  -28.9546  -22.0911   19.9429 N   0  0  0  0  0  0
  -29.9125  -16.0157   20.1930 N   0  0  0  0  0  0
  -31.4612  -12.6221   19.1463 H   0  0  0  0  0  0
  -30.3733  -11.5454   19.9850 H   0  0  0  0  0  0
  -29.7785  -11.7102   17.5364 H   0  0  0  0  0  0
  -29.6177  -13.4454   17.6823 H   0  0  0  0  0  0
  -27.8857  -11.2917   18.9314 H   0  0  0  0  0  0
  -27.3684  -12.5177   17.8078 H   0  0  0  0  0  0
  -27.6026  -14.2631   19.4348 H   0  0  0  0  0  0
  -28.7499  -12.2774   21.4611 H   0  0  0  0  0  0
  -28.4302  -13.9768   21.7353 H   0  0  0  0  0  0
  -25.2859   -9.5710   22.4589 H   0  0  0  0  0  0
  -23.9980   -7.4754   22.7605 H   0  0  0  0  0  0
  -21.0767   -8.8812   19.9127 H   0  0  0  0  0  0
  -22.3548  -10.9665   19.6193 H   0  0  0  0  0  0
  -21.1952   -7.6124   23.9773 H   0  0  0  0  0  0
  -21.1560   -6.0411   25.9088 H   0  0  0  0  0  0
  -22.0570   -2.7599   23.2763 H   0  0  0  0  0  0
  -22.4489  -12.0123   22.5241 H   0  0  0  0  0  0
  -21.1012  -13.0810   22.2548 H   0  0  0  0  0  0
  -24.6612  -15.8616   20.4980 H   0  0  0  0  0  0
  -26.2618  -15.6137   20.0355 H   0  0  0  0  0  0
  -26.7206  -32.5330   23.1044 H   0  0  0  0  0  0
  -25.0077  -33.9672   25.0372 H   0  0  0  0  0  0
  -22.7374  -31.3001   21.3954 H   0  0  0  0  0  0
  -23.3759  -35.9590   23.3307 H   0  0  0  0  0  0
  -24.3579  -36.8891   22.2052 H   0  0  0  0  0  0
  -23.7253  -37.6462   23.6675 H   0  0  0  0  0  0
  -26.1476  -31.5031   20.6317 H   0  0  0  0  0  0
  -26.8587  -30.7714   22.0363 H   0  0  0  0  0  0
  -28.1232  -28.8497   21.2003 H   0  0  0  0  0  0
  -25.9253  -25.9130   18.9164 H   0  0  0  0  0  0
  -23.9670  -27.3339   18.9604 H   0  0  0  0  0  0
  -23.7883  -30.5908   19.4074 H   0  0  0  0  0  0
  -22.7711  -29.2534   19.8482 H   0  0  0  0  0  0
  -25.1318  -36.1886   25.0815 H   0  0  0  0  0  0
  -21.0017  -28.3294   24.1362 H   0  0  0  0  0  0
  -20.5680  -26.2325   23.3613 H   0  0  0  0  0  0
  -21.6651  -26.7424   22.1197 H   0  0  0  0  0  0
  -19.6913  -25.6283   21.1252 H   0  0  0  0  0  0
  -19.6688  -27.3174   20.6728 H   0  0  0  0  0  0
  -17.4213  -26.6681   21.4041 H   0  0  0  0  0  0
  -18.0345  -26.0070   22.9027 H   0  0  0  0  0  0
  -19.7957  -30.7289   24.2235 H   0  0  0  0  0  0
  -17.5031  -31.6264   24.5158 H   0  0  0  0  0  0
  -15.5370  -30.2961   23.7668 H   0  0  0  0  0  0
  -15.8704  -28.0795   22.7080 H   0  0  0  0  0  0
  -24.5922  -30.7062   25.7801 H   0  0  0  0  0  0
  -24.8911  -32.2908   26.4863 H   0  0  0  0  0  0
  -25.8060  -30.8948   27.0255 H   0  0  0  0  0  0
  -26.2974  -29.6708   24.1305 H   0  0  0  0  0  0
  -27.3956  -29.7249   25.4874 H   0  0  0  0  0  0
  -27.8901  -30.4194   23.9631 H   0  0  0  0  0  0
  -27.2612  -33.3659   26.2058 H   0  0  0  0  0  0
  -28.3874  -32.6910   25.0379 H   0  0  0  0  0  0
  -28.0680  -31.8519   26.5495 H   0  0  0  0  0  0
  -28.2594  -38.0095   24.7505 H   0  0  0  0  0  0
  -28.1090  -36.2623   24.6314 H   0  0  0  0  0  0
  -27.2292  -37.1454   25.8870 H   0  0  0  0  0  0
  -20.9406  -29.8777   21.6826 H   0  0  0  0  0  0
  -26.0172  -38.2820   24.1400 H   0  0  0  0  0  0
  -26.5274  -20.1969   23.2121 H   0  0  0  0  0  0
  -27.1505  -21.9998   21.8141 H   0  0  0  0  0  0
  -26.1513  -14.6695   24.2482 H   0  0  0  0  0  0
  -27.2921  -15.3336   25.4011 H   0  0  0  0  0  0
  -25.8203  -16.9805   25.9694 H   0  0  0  0  0  0
  -24.6330  -16.3539   24.8356 H   0  0  0  0  0  0
  -27.0148  -15.8137   22.4895 H   0  0  0  0  0  0
  -28.5006  -15.7682   23.4572 H   0  0  0  0  0  0
  -25.7831  -18.8030   24.5321 H   0  0  0  0  0  0
  -25.2754  -17.8323   23.1491 H   0  0  0  0  0  0
  -28.0740  -17.9875   24.3296 H   0  0  0  0  0  0
  -28.7112  -16.4200   21.4691 H   0  0  0  0  0  0
  -30.2361  -16.9517   22.1120 H   0  0  0  0  0  0
  -28.8542  -23.5180   21.5569 H   0  0  0  0  0  0
  -30.0176  -23.8582   20.3262 H   0  0  0  0  0  0
  -27.0397  -24.4946   20.1339 H   0  0  0  0  0  0
  -28.1076  -24.6825   18.7772 H   0  0  0  0  0  0
  -29.5786  -21.9467   19.1556 H   0  0  0  0  0  0
  -30.2768  -16.5181   19.3957 H   0  0  0  0  0  0
  1 25  1  0  0  0
  1 30  2  0  0  0
  1 86  1  0  0  0
  2  3  1  0  0  0
  2 25  1  0  0  0
  2 87  1  0  0  0
  2 88  1  0  0  0
  3  4  1  0  0  0
  3 89  1  0  0  0
  3 90  1  0  0  0
  4  5  1  0  0  0
  4 91  1  0  0  0
  4 92  1  0  0  0
  5  6  1  0  0  0
  5 26  1  0  0  0
  5 93  1  0  0  0
  6 25  1  0  0  0
  6 94  1  0  0  0
  6 95  1  0  0  0
  7  8  2  0  0  0
  7 26  1  0  0  0
  7 29  1  0  0  0
  8  9  1  0  0  0
  8 22  1  0  0  0
  9 10  1  0  0  0
  9 27  2  0  0  0
 10 11  2  0  0  0
 10 15  1  0  0  0
 11 12  1  0  0  0
 11 96  1  0  0  0
 12 13  2  0  0  0
 12 97  1  0  0  0
 13 14  1  0  0  0
 13 31  1  0  0  0
 14 15  2  0  0  0
 14 98  1  0  0  0
 15 99  1  0  0  0
 16 17  2  0  0  0
 16 21  1  0  0  0
 16 31  1  0  0  0
 17 18  1  0  0  0
 17100  1  0  0  0
 18 19  2  0  0  0
 18101  1  0  0  0
 19 20  1  0  0  0
 19 24  1  0  0  0
 20 21  2  0  0  0
 20102  1  0  0  0
 21 23  1  0  0  0
 22 28  1  0  0  0
 22 32  2  0  0  0
 26 27  1  0  0  0
 28103  1  0  0  0
 28104  1  0  0  0
 29105  1  0  0  0
 29106  1  0  0  0
 33 34  1  0  0  0
 33 66  1  0  0  0
 33 70  2  0  0  0
 34 36  1  0  0  0
 34 59  1  0  0  0
 34107  1  0  0  0
 35 44  2  0  0  0
 35 45  1  0  0  0
 35 68  1  0  0  0
 36 56  1  0  0  0
 36108  1  0  0  0
 37 39  1  0  0  0
 37 47  1  0  0  0
 37 66  1  0  0  0
 37109  1  0  0  0
 38 43  2  0  0  0
 38 46  1  0  0  0
 38 47  1  0  0  0
 39 64  1  0  0  0
 39 67  2  0  0  0
 40 52  1  0  0  0
 40 53  2  0  0  0
 40 58  1  0  0  0
 41110  1  0  0  0
 41111  1  0  0  0
 41112  1  0  0  0
 41 48  1  0  0  0
 42 43  1  0  0  0
 42 66  1  0  0  0
 42113  1  0  0  0
 42114  1  0  0  0
 43 44  1  0  0  0
 44115  1  0  0  0
 45 46  2  0  0  0
 45116  1  0  0  0
 46117  1  0  0  0
 47118  1  0  0  0
 47119  1  0  0  0
 48 56  1  0  0  0
 48 65  1  0  0  0
 48120  1  0  0  0
 49 50  1  0  0  0
 49 53  1  0  0  0
 49 64  1  0  0  0
 49121  1  0  0  0
 50 51  1  0  0  0
 50122  1  0  0  0
 50123  1  0  0  0
 51 52  1  0  0  0
 51124  1  0  0  0
 51125  1  0  0  0
 52126  1  0  0  0
 52127  1  0  0  0
 53 54  1  0  0  0
 54 55  2  0  0  0
 54128  1  0  0  0
 55 57  1  0  0  0
 55129  1  0  0  0
 56 69  2  0  0  0
 57 58  2  0  0  0
 57130  1  0  0  0
 58131  1  0  0  0
 59 60  1  0  0  0
 59 61  1  0  0  0
 59 62  1  0  0  0
 60132  1  0  0  0
 60133  1  0  0  0
 60134  1  0  0  0
 61135  1  0  0  0
 61136  1  0  0  0
 61137  1  0  0  0
 62138  1  0  0  0
 62139  1  0  0  0
 62140  1  0  0  0
 63 65  1  0  0  0
 63141  1  0  0  0
 63142  1  0  0  0
 63143  1  0  0  0
 64144  1  0  0  0
 65145  1  0  0  0
 68 83  1  0  0  0
 71 72  2  0  0  0
 71 73  1  0  0  0
 71146  1  0  0  0
 72 75  1  0  0  0
 72147  1  0  0  0
 73 74  2  0  0  0
 73 80  1  0  0  0
 74 81  1  0  0  0
 74 84  1  0  0  0
 75 84  2  0  0  0
 75 85  1  0  0  0
 76 77  1  0  0  0
 76 78  1  0  0  0
 76148  1  0  0  0
 76149  1  0  0  0
 77 79  1  0  0  0
 77150  1  0  0  0
 77151  1  0  0  0
 78 80  1  0  0  0
 78152  1  0  0  0
 78153  1  0  0  0
 79 80  1  0  0  0
 79154  1  0  0  0
 79155  1  0  0  0
 80156  1  0  0  0
 81 86  1  0  0  0
 81157  1  0  0  0
 81158  1  0  0  0
 82 83  1  0  0  0
 82 85  1  0  0  0
 82159  1  0  0  0
 82160  1  0  0  0
 83161  1  0  0  0
 83162  1  0  0  0
 85163  1  0  0  0
 86164  1  0  0  0
M  ISO  4   1 100  68 101  83 101  86 100
M  END
> <chiral flag>
0

> <version>
0

> <s_m_source_file>
/data/baiqing/PycharmProjects/Reinvent-master-3.2/result/LINK_invent/BTK/process_docking_weight1_custom_sum_contain_oxygen_bond_distance_aromatic_linkinvent_7_9_3/rearranged_h_0129.sdf

> <i_m_source_file_index>
1

> <r_mmod_Potential_Energy-OPLS-2005>
212.322158813477

> <r_mmod_Stretch_Energy-OPLS-2005>
182.429809570312

> <r_mmod_Bend_Energy-OPLS-2005>
340.482482910156

> <r_mmod_Torsional_Energy-OPLS-2005>
327.161865234375

> <r_mmod_Improper_Torsional_Energy-OPLS-2005>
22.3979015350342

> <r_mmod_Van_der_Waal_Energy-OPLS-2005>
149.864608764648

> <r_mmod_Electrostatic_Energy-OPLS-2005>
-707.710998535156

> <r_mmod_Solvation_Energy-OPLS-2005>
-233.837661743164

> <b_mmod_Minimization_Converged-OPLS-2005>
0

> <r_mmod_RMS_Derivative-OPLS-2005>
5.07573175430298

$$$$
1
                    3D
 Structure written by MMmdl.
153161  0  0  1  0            999 V2000
  -30.5456  -14.9541   20.4293 C   0  0  0  0  0  0
  -30.4346  -12.5889   19.5145 C   0  0  0  0  0  0
  -29.5221  -12.5252   18.2677 C   0  0  0  0  0  0
  -28.0565  -12.3064   18.6852 C   0  0  0  0  0  0
  -27.6285  -13.2456   19.8419 C   0  0  2  0  0  0
  -28.6661  -13.2809   20.9838 C   0  0  0  0  0  0
  -25.2450  -13.8200   20.5703 C   0  0  0  0  0  0
  -24.1755  -13.0430   20.9212 C   0  0  0  0  0  0
  -24.6362  -11.6916   20.8749 C   0  0  0  0  0  0
  -23.9043  -10.4286   21.0406 C   0  0  0  0  0  0
  -24.3604   -9.4204   21.9178 C   0  0  0  0  0  0
  -23.6294   -8.2231   22.0739 C   0  0  0  0  0  0
  -22.4279   -8.0257   21.3526 C   0  0  0  0  0  0
  -21.9906   -9.0225   20.4627 C   0  0  0  0  0  0
  -22.7220  -10.2117   20.3046 C   0  0  0  0  0  0
  -21.6858   -6.0727   22.5271 C   0  0  0  0  0  0
  -21.4005   -6.5626   23.8201 C   0  0  0  0  0  0
  -21.3661   -5.6782   24.9168 C   0  0  0  0  0  0
  -21.6058   -4.3046   24.7225 C   0  0  0  0  0  0
  -21.8821   -3.8139   23.4344 C   0  0  0  0  0  0
  -21.9194   -4.6956   22.3400 C   0  0  0  0  0  0
  -22.7778  -13.5198   21.1882 C   0  0  0  0  0  0
  -22.1667   -4.2132   21.0985 F   0  0  0  0  0  0
  -21.5639   -3.4534   25.7743 F   0  0  0  0  0  0
  -29.9436  -13.6948   20.3899 N   0  0  0  0  0  0
  -26.2868  -12.9431   20.3248 N   0  0  0  0  0  0
  -25.9293  -11.6565   20.5743 N   0  0  0  0  0  0
  -22.0451  -12.8164   22.0443 N   0  0  0  0  0  0
  -25.4151  -15.1925   20.4117 N   0  0  0  0  0  0
  -31.7418  -15.0091   20.1259 O   0  0  0  0  0  0
  -21.6643   -6.8860   21.4227 O   0  0  0  0  0  0
  -22.3460  -14.5515   20.6748 O   0  0  0  0  0  0
  -24.6480  -31.8424   23.1844 C   0  0  0  0  0  0
  -25.9238  -32.4681   23.8267 C   0  0  1  0  0  0
  -27.2084  -27.1044   20.1774 C   0  0  0  0  0  0
  -25.5987  -33.8494   24.2193 N   0  0  0  0  0  0
  -23.4517  -30.4623   21.5290 C   0  0  2  0  0  0
  -24.8988  -28.8808   20.1134 C   0  0  0  0  0  0
  -22.7582  -29.4543   22.4827 C   0  0  0  0  0  0
  -18.0304  -28.1403   22.8481 C   0  0  0  0  0  0
  -24.1459  -36.7194   23.2642 C   0  0  0  0  0  0
  -26.0100  -30.7067   21.3863 C   0  0  0  0  0  0
  -26.0774  -29.3139   20.7342 C   0  0  0  0  0  0
  -27.2345  -28.4422   20.7486 C   0  0  0  0  0  0
  -26.0088  -26.7836   19.5056 C   0  0  0  0  0  0
  -24.8770  -27.6288   19.4847 C   0  0  0  0  0  0
  -23.6788  -29.7885   20.1502 C   0  0  0  0  0  0
  -25.4099  -36.3019   24.0324 C   0  0  1  0  0  0
  -20.5933  -28.3722   23.1211 C   0  0  2  0  0  0
  -20.6777  -26.9425   22.5390 C   0  0  0  0  0  0
  -19.5753  -26.6401   21.5194 C   0  0  0  0  0  0
  -18.1936  -26.7940   22.1624 C   0  0  0  0  0  0
  -19.1575  -28.8881   23.2840 C   0  0  0  0  0  0
  -18.9500  -30.1474   23.8860 C   0  0  0  0  0  0
  -17.6498  -30.6597   24.0555 C   0  0  0  0  0  0
  -25.9074  -34.9404   23.5048 C   0  0  0  0  0  0
  -16.5380  -29.9092   23.6352 C   0  0  0  0  0  0
  -16.7290  -28.6509   23.0376 C   0  0  0  0  0  0
  -26.4566  -31.6561   25.0721 C   0  0  0  0  0  0
  -25.3767  -31.3786   26.1424 C   0  0  0  0  0  0
  -27.0429  -30.2943   24.6344 C   0  0  0  0  0  0
  -27.6079  -32.4339   25.7526 C   0  0  0  0  0  0
  -27.5545  -37.1742   24.8484 C   0  0  0  0  0  0
  -21.4280  -29.3051   22.3566 N   0  0  0  0  0  0
  -26.4236  -37.3757   23.9457 N   0  0  0  0  0  0
  -24.7228  -31.0267   22.0880 N   0  0  0  0  0  0
  -23.4208  -28.8108   23.3002 O   0  0  0  0  0  0
  -28.2482  -26.0969   20.2284 O   0  0  0  0  0  0
  -26.5637  -34.8920   22.4616 O   0  0  0  0  0  0
  -23.5588  -32.1309   23.7046 O   0  0  0  0  0  0
  -30.1374  -23.5085   19.6371 C   0  0  0  0  0  0
  -31.0267  -22.4477   19.3493 C   0  0  0  0  0  0
  -28.6401  -21.8372   20.5453 C   0  0  0  0  0  0
  -28.8960  -23.2795   20.2456 C   0  0  0  0  0  0
  -30.7597  -21.0817   19.6450 C   0  0  0  0  0  0
  -29.5363  -20.6737   20.2619 C   0  0  0  0  0  0
  -31.8448  -20.0958   19.2465 C   0  0  0  0  0  0
  -29.1904  -19.0597   20.5642 C   0  0  0  0  0  0
  -27.9095  -24.5859   20.4895 C   0  0  0  0  0  0
  -30.1767  -17.6805   20.3585 C   0  0  0  0  0  0
  -29.7928  -16.1548   20.5973 N   0  0  0  0  0  0
  -31.4708  -12.7349   19.2073 H   0  0  0  0  0  0
  -30.4175  -11.6391   20.0530 H   0  0  0  0  0  0
  -29.8434  -11.7232   17.6014 H   0  0  0  0  0  0
  -29.6083  -13.4523   17.6989 H   0  0  0  0  0  0
  -27.9602  -11.2675   19.0044 H   0  0  0  0  0  0
  -27.3915  -12.4220   17.8283 H   0  0  0  0  0  0
  -27.5920  -14.2460   19.4099 H   0  0  0  0  0  0
  -28.7519  -12.3049   21.4635 H   0  0  0  0  0  0
  -28.3604  -13.9832   21.7609 H   0  0  0  0  0  0
  -25.2754   -9.5691   22.4743 H   0  0  0  0  0  0
  -24.0016   -7.4620   22.7447 H   0  0  0  0  0  0
  -21.0844   -8.8727   19.8924 H   0  0  0  0  0  0
  -22.3668  -10.9645   19.6148 H   0  0  0  0  0  0
  -21.1979   -7.6132   23.9690 H   0  0  0  0  0  0
  -21.1490   -6.0524   25.9070 H   0  0  0  0  0  0
  -22.0604   -2.7597   23.2855 H   0  0  0  0  0  0
  -22.4106  -11.9845   22.4838 H   0  0  0  0  0  0
  -21.1047  -13.1129   22.2648 H   0  0  0  0  0  0
  -24.6490  -15.8502   20.5082 H   0  0  0  0  0  0
  -26.2672  -15.6254   20.0800 H   0  0  0  0  0  0
  -26.7315  -32.5285   23.1009 H   0  0  0  0  0  0
  -25.0214  -33.9605   25.0404 H   0  0  0  0  0  0
  -22.7578  -31.2916   21.3728 H   0  0  0  0  0  0
  -23.3750  -35.9489   23.3299 H   0  0  0  0  0  0
  -24.3547  -36.8819   22.2055 H   0  0  0  0  0  0
  -23.7190  -37.6378   23.6683 H   0  0  0  0  0  0
  -26.1750  -31.4571   20.6116 H   0  0  0  0  0  0
  -26.8782  -30.7570   22.0326 H   0  0  0  0  0  0
  -28.1307  -28.7685   21.2568 H   0  0  0  0  0  0
  -25.9091  -25.8370   18.9957 H   0  0  0  0  0  0
  -23.9798  -27.2871   18.9867 H   0  0  0  0  0  0
  -23.8183  -30.5611   19.3933 H   0  0  0  0  0  0
  -22.7931  -29.2331   19.8374 H   0  0  0  0  0  0
  -25.1294  -36.1792   25.0809 H   0  0  0  0  0  0
  -21.0047  -28.3282   24.1329 H   0  0  0  0  0  0
  -20.5638  -26.2355   23.3623 H   0  0  0  0  0  0
  -21.6642  -26.7396   22.1220 H   0  0  0  0  0  0
  -19.6916  -25.6318   21.1230 H   0  0  0  0  0  0
  -19.6669  -27.3198   20.6711 H   0  0  0  0  0  0
  -17.4210  -26.6694   21.4019 H   0  0  0  0  0  0
  -18.0305  -26.0092   22.9030 H   0  0  0  0  0  0
  -19.7978  -30.7302   24.2202 H   0  0  0  0  0  0
  -17.5059  -31.6271   24.5178 H   0  0  0  0  0  0
  -15.5388  -30.2995   23.7701 H   0  0  0  0  0  0
  -15.8686  -28.0814   22.7133 H   0  0  0  0  0  0
  -24.5915  -30.7154   25.7779 H   0  0  0  0  0  0
  -24.9001  -32.2986   26.4793 H   0  0  0  0  0  0
  -25.8048  -30.9016   27.0245 H   0  0  0  0  0  0
  -26.3046  -29.6659   24.1329 H   0  0  0  0  0  0
  -27.4007  -29.7255   25.4942 H   0  0  0  0  0  0
  -27.8995  -30.4173   23.9709 H   0  0  0  0  0  0
  -27.2656  -33.3687   26.1973 H   0  0  0  0  0  0
  -28.3965  -32.6791   25.0406 H   0  0  0  0  0  0
  -28.0661  -31.8555   26.5560 H   0  0  0  0  0  0
  -28.2568  -38.0034   24.7526 H   0  0  0  0  0  0
  -28.1038  -36.2563   24.6299 H   0  0  0  0  0  0
  -27.2277  -37.1343   25.8894 H   0  0  0  0  0  0
  -20.9485  -29.8758   21.6746 H   0  0  0  0  0  0
  -26.0075  -38.2811   24.1499 H   0  0  0  0  0  0
  -30.4105  -24.5203   19.3728 H   0  0  0  0  0  0
  -31.9565  -22.7096   18.8637 H   0  0  0  0  0  0
  -27.6900  -21.6131   21.0117 H   0  0  0  0  0  0
  -32.7140  -20.5983   18.8169 H   0  0  0  0  0  0
  -31.4795  -19.4106   18.4829 H   0  0  0  0  0  0
  -32.2064  -19.5387   20.1104 H   0  0  0  0  0  0
  -28.2879  -18.8723   19.9812 H   0  0  0  0  0  0
  -28.8419  -19.0330   21.5968 H   0  0  0  0  0  0
  -27.6283  -24.5345   21.5420 H   0  0  0  0  0  0
  -26.9973  -24.3252   19.9596 H   0  0  0  0  0  0
  -31.0808  -17.8396   20.9474 H   0  0  0  0  0  0
  -30.4961  -17.6800   19.3183 H   0  0  0  0  0  0
  -28.8278  -15.9977   20.8486 H   0  0  0  0  0  0
  1 25  1  0  0  0
  1 30  2  0  0  0
  1 81  1  0  0  0
  2  3  1  0  0  0
  2 25  1  0  0  0
  2 82  1  0  0  0
  2 83  1  0  0  0
  3  4  1  0  0  0
  3 84  1  0  0  0
  3 85  1  0  0  0
  4  5  1  0  0  0
  4 86  1  0  0  0
  4 87  1  0  0  0
  5  6  1  0  0  0
  5 26  1  0  0  0
  5 88  1  0  0  0
  6 25  1  0  0  0
  6 89  1  0  0  0
  6 90  1  0  0  0
  7  8  2  0  0  0
  7 26  1  0  0  0
  7 29  1  0  0  0
  8  9  1  0  0  0
  8 22  1  0  0  0
  9 10  1  0  0  0
  9 27  2  0  0  0
 10 11  2  0  0  0
 10 15  1  0  0  0
 11 12  1  0  0  0
 11 91  1  0  0  0
 12 13  2  0  0  0
 12 92  1  0  0  0
 13 14  1  0  0  0
 13 31  1  0  0  0
 14 15  2  0  0  0
 14 93  1  0  0  0
 15 94  1  0  0  0
 16 17  2  0  0  0
 16 21  1  0  0  0
 16 31  1  0  0  0
 17 18  1  0  0  0
 17 95  1  0  0  0
 18 19  2  0  0  0
 18 96  1  0  0  0
 19 20  1  0  0  0
 19 24  1  0  0  0
 20 21  2  0  0  0
 20 97  1  0  0  0
 21 23  1  0  0  0
 22 28  1  0  0  0
 22 32  2  0  0  0
 26 27  1  0  0  0
 28 98  1  0  0  0
 28 99  1  0  0  0
 29100  1  0  0  0
 29101  1  0  0  0
 33 34  1  0  0  0
 33 66  1  0  0  0
 33 70  2  0  0  0
 34 36  1  0  0  0
 34 59  1  0  0  0
 34102  1  0  0  0
 35 44  2  0  0  0
 35 45  1  0  0  0
 35 68  1  0  0  0
 36 56  1  0  0  0
 36103  1  0  0  0
 37 39  1  0  0  0
 37 47  1  0  0  0
 37 66  1  0  0  0
 37104  1  0  0  0
 38 43  2  0  0  0
 38 46  1  0  0  0
 38 47  1  0  0  0
 39 64  1  0  0  0
 39 67  2  0  0  0
 40 52  1  0  0  0
 40 53  2  0  0  0
 40 58  1  0  0  0
 41105  1  0  0  0
 41106  1  0  0  0
 41107  1  0  0  0
 41 48  1  0  0  0
 42 43  1  0  0  0
 42 66  1  0  0  0
 42108  1  0  0  0
 42109  1  0  0  0
 43 44  1  0  0  0
 44110  1  0  0  0
 45 46  2  0  0  0
 45111  1  0  0  0
 46112  1  0  0  0
 47113  1  0  0  0
 47114  1  0  0  0
 48 56  1  0  0  0
 48 65  1  0  0  0
 48115  1  0  0  0
 49 50  1  0  0  0
 49 53  1  0  0  0
 49 64  1  0  0  0
 49116  1  0  0  0
 50 51  1  0  0  0
 50117  1  0  0  0
 50118  1  0  0  0
 51 52  1  0  0  0
 51119  1  0  0  0
 51120  1  0  0  0
 52121  1  0  0  0
 52122  1  0  0  0
 53 54  1  0  0  0
 54 55  2  0  0  0
 54123  1  0  0  0
 55 57  1  0  0  0
 55124  1  0  0  0
 56 69  2  0  0  0
 57 58  2  0  0  0
 57125  1  0  0  0
 58126  1  0  0  0
 59 60  1  0  0  0
 59 61  1  0  0  0
 59 62  1  0  0  0
 60127  1  0  0  0
 60128  1  0  0  0
 60129  1  0  0  0
 61130  1  0  0  0
 61131  1  0  0  0
 61132  1  0  0  0
 62133  1  0  0  0
 62134  1  0  0  0
 62135  1  0  0  0
 63 65  1  0  0  0
 63136  1  0  0  0
 63137  1  0  0  0
 63138  1  0  0  0
 64139  1  0  0  0
 65140  1  0  0  0
 68 79  1  0  0  0
 71 72  2  0  0  0
 71 74  1  0  0  0
 71141  1  0  0  0
 72 75  1  0  0  0
 72142  1  0  0  0
 73 74  2  0  0  0
 73 76  1  0  0  0
 73143  1  0  0  0
 74 79  1  0  0  0
 75 76  2  0  0  0
 75 77  1  0  0  0
 76 78  1  0  0  0
 77144  1  0  0  0
 77145  1  0  0  0
 77146  1  0  0  0
 78 80  1  0  0  0
 78147  1  0  0  0
 78148  1  0  0  0
 79149  1  0  0  0
 79150  1  0  0  0
 80 81  1  0  0  0
 80151  1  0  0  0
 80152  1  0  0  0
 81153  1  0  0  0
M  ISO  4   1 100  68 101  79 101  81 100
M  END
> <chiral flag>
0

> <version>
0

> <s_m_source_file>
/data/baiqing/PycharmProjects/Reinvent-master-3.2/result/LINK_invent/BTK/process_docking_weight1_custom_sum_contain_oxygen_bond_distance_aromatic_linkinvent_7_9_3/rearranged_h_0129.sdf

> <i_m_source_file_index>
2

> <r_mmod_Potential_Energy-OPLS-2005>
521.360961914062

> <r_mmod_Stretch_Energy-OPLS-2005>
286.385864257812

> <r_mmod_Bend_Energy-OPLS-2005>
252.395217895508

> <r_mmod_Torsional_Energy-OPLS-2005>
215.998046875

> <r_mmod_Improper_Torsional_Energy-OPLS-2005>
4.45600700378418

> <r_mmod_Van_der_Waal_Energy-OPLS-2005>
135.355545043945

> <r_mmod_Electrostatic_Energy-OPLS-2005>
-369.761596679688

> <r_mmod_Solvation_Energy-OPLS-2005>
-212.029800415039

> <b_mmod_Minimization_Converged-OPLS-2005>
0

> <r_mmod_RMS_Derivative-OPLS-2005>
3.12855195999146

$$$$
2
                    3D
 Structure written by MMmdl.
165174  0  0  1  0            999 V2000
  -30.5137  -15.0173   20.3875 C   0  0  0  0  0  0
  -30.4338  -12.6226   19.5280 C   0  0  0  0  0  0
  -29.5275  -12.5470   18.2766 C   0  0  0  0  0  0
  -28.0627  -12.3134   18.6897 C   0  0  0  0  0  0
  -27.6242  -13.2580   19.8393 C   0  0  2  0  0  0
  -28.6586  -13.3198   20.9834 C   0  0  0  0  0  0
  -25.2417  -13.8238   20.5717 C   0  0  0  0  0  0
  -24.1746  -13.0435   20.9210 C   0  0  0  0  0  0
  -24.6387  -11.6933   20.8751 C   0  0  0  0  0  0
  -23.9090  -10.4296   21.0406 C   0  0  0  0  0  0
  -24.3630   -9.4212   21.9199 C   0  0  0  0  0  0
  -23.6299   -8.2252   22.0768 C   0  0  0  0  0  0
  -22.4278   -8.0292   21.3556 C   0  0  0  0  0  0
  -21.9925   -9.0266   20.4661 C   0  0  0  0  0  0
  -22.7255  -10.2139   20.3071 C   0  0  0  0  0  0
  -21.6851   -6.0744   22.5285 C   0  0  0  0  0  0
  -21.4014   -6.5643   23.8224 C   0  0  0  0  0  0
  -21.3658   -5.6791   24.9180 C   0  0  0  0  0  0
  -21.6036   -4.3057   24.7227 C   0  0  0  0  0  0
  -21.8813   -3.8150   23.4350 C   0  0  0  0  0  0
  -21.9186   -4.6971   22.3404 C   0  0  0  0  0  0
  -22.7779  -13.5217   21.1892 C   0  0  0  0  0  0
  -22.1652   -4.2157   21.0982 F   0  0  0  0  0  0
  -21.5625   -3.4540   25.7742 F   0  0  0  0  0  0
  -29.9343  -13.7399   20.3899 N   0  0  0  0  0  0
  -26.2855  -12.9483   20.3252 N   0  0  0  0  0  0
  -25.9323  -11.6607   20.5759 N   0  0  0  0  0  0
  -22.0420  -12.8209   22.0435 N   0  0  0  0  0  0
  -25.4066  -15.1973   20.4127 N   0  0  0  0  0  0
  -31.7184  -15.0465   20.1010 O   0  0  0  0  0  0
  -21.6634   -6.8887   21.4254 O   0  0  0  0  0  0
  -22.3469  -14.5513   20.6721 O   0  0  0  0  0  0
  -24.6468  -31.8397   23.1790 C   0  0  0  0  0  0
  -25.9220  -32.4666   23.8217 C   0  0  1  0  0  0
  -27.2232  -27.1065   20.1466 C   0  0  0  0  0  0
  -25.5929  -33.8480   24.2134 N   0  0  0  0  0  0
  -23.4541  -30.4537   21.5236 C   0  0  2  0  0  0
  -24.9052  -28.8722   20.0940 C   0  0  0  0  0  0
  -22.7588  -29.4515   22.4795 C   0  0  0  0  0  0
  -18.0321  -28.1398   22.8465 C   0  0  0  0  0  0
  -24.1481  -36.7250   23.2644 C   0  0  0  0  0  0
  -26.0080  -30.7002   21.3840 C   0  0  0  0  0  0
  -26.0775  -29.3089   20.7238 C   0  0  0  0  0  0
  -27.2293  -28.4367   20.7389 C   0  0  0  0  0  0
  -26.0328  -26.7722   19.4684 C   0  0  0  0  0  0
  -24.8965  -27.6187   19.4539 C   0  0  0  0  0  0
  -23.6818  -29.7762   20.1427 C   0  0  0  0  0  0
  -25.4124  -36.3018   24.0295 C   0  0  1  0  0  0
  -20.5928  -28.3730   23.1215 C   0  0  2  0  0  0
  -20.6781  -26.9415   22.5439 C   0  0  0  0  0  0
  -19.5771  -26.6374   21.5216 C   0  0  0  0  0  0
  -18.1937  -26.7943   22.1595 C   0  0  0  0  0  0
  -19.1572  -28.8880   23.2833 C   0  0  0  0  0  0
  -18.9502  -30.1461   23.8894 C   0  0  0  0  0  0
  -17.6504  -30.6589   24.0565 C   0  0  0  0  0  0
  -25.9092  -34.9397   23.5037 C   0  0  0  0  0  0
  -16.5390  -29.9090   23.6336 C   0  0  0  0  0  0
  -16.7308  -28.6506   23.0360 C   0  0  0  0  0  0
  -26.4527  -31.6567   25.0708 C   0  0  0  0  0  0
  -25.3672  -31.3774   26.1379 C   0  0  0  0  0  0
  -27.0412  -30.2960   24.6329 C   0  0  0  0  0  0
  -27.6053  -32.4366   25.7490 C   0  0  0  0  0  0
  -27.5568  -37.1767   24.8454 C   0  0  0  0  0  0
  -21.4271  -29.3031   22.3555 N   0  0  0  0  0  0
  -26.4287  -37.3735   23.9398 N   0  0  0  0  0  0
  -24.7230  -31.0212   22.0831 N   0  0  0  0  0  0
  -23.4203  -28.8075   23.2975 O   0  0  0  0  0  0
  -28.2738  -26.1302   20.3118 O   0  0  0  0  0  0
  -26.5722  -34.8900   22.4648 O   0  0  0  0  0  0
  -23.5577  -32.1286   23.6977 O   0  0  0  0  0  0
  -30.2559  -20.3469   19.0349 C   0  0  0  0  0  0
  -29.2076  -18.9225   20.6572 C   0  0  0  0  0  0
  -29.3814  -20.3251   20.1379 C   0  0  0  0  0  0
  -30.8708  -19.1723   18.5476 C   0  0  0  0  0  0
  -29.8926  -17.6943   20.1269 C   0  0  0  0  0  0
  -27.4873  -22.6524   24.1830 C   0  0  0  0  0  0
  -27.7093  -23.0349   22.7232 C   0  0  0  0  0  0
  -28.5997  -21.6362   24.4592 C   0  0  0  0  0  0
  -28.1861  -21.7142   22.0896 C   0  0  1  0  0  0
  -31.8103  -19.2481   17.3596 C   0  0  0  0  0  0
  -28.1685  -23.0847   19.8346 C   0  0  0  0  0  0
  -28.5082  -24.7515   19.6108 C   0  0  0  0  0  0
  -28.9192  -21.8370   20.7204 C   0  0  2  0  0  0
  -30.6992  -17.9321   19.0682 N   0  0  0  0  0  0
  -29.7461  -16.2208   20.5855 N   0  0  0  0  0  0
  -29.0047  -21.0829   23.1490 N   0  3  0  0  0  0
  -31.4726  -12.7641   19.2274 H   0  0  0  0  0  0
  -30.4148  -11.6779   20.0753 H   0  0  0  0  0  0
  -29.8630  -11.7561   17.6050 H   0  0  0  0  0  0
  -29.6038  -13.4814   17.7171 H   0  0  0  0  0  0
  -27.9768  -11.2754   19.0152 H   0  0  0  0  0  0
  -27.3993  -12.4184   17.8307 H   0  0  0  0  0  0
  -27.5772  -14.2517   19.3927 H   0  0  0  0  0  0
  -28.7526  -12.3552   21.4843 H   0  0  0  0  0  0
  -28.3447  -14.0331   21.7461 H   0  0  0  0  0  0
  -25.2774   -9.5672   22.4782 H   0  0  0  0  0  0
  -23.9982   -7.4653   22.7504 H   0  0  0  0  0  0
  -21.0852   -8.8806   19.8991 H   0  0  0  0  0  0
  -22.3731  -10.9680   19.6181 H   0  0  0  0  0  0
  -21.2014   -7.6153   23.9728 H   0  0  0  0  0  0
  -21.1483   -6.0524   25.9080 H   0  0  0  0  0  0
  -22.0589   -2.7618   23.2849 H   0  0  0  0  0  0
  -22.4009  -11.9844   22.4793 H   0  0  0  0  0  0
  -21.1074  -13.1298   22.2697 H   0  0  0  0  0  0
  -24.6271  -15.8405   20.4977 H   0  0  0  0  0  0
  -26.2462  -15.6420   20.0651 H   0  0  0  0  0  0
  -26.7303  -32.5280   23.0956 H   0  0  0  0  0  0
  -24.9972  -33.9586   25.0205 H   0  0  0  0  0  0
  -22.7601  -31.2808   21.3614 H   0  0  0  0  0  0
  -23.3751  -35.9573   23.3299 H   0  0  0  0  0  0
  -24.3557  -36.8934   22.2065 H   0  0  0  0  0  0
  -23.7240  -37.6431   23.6726 H   0  0  0  0  0  0
  -26.1709  -31.4508   20.6097 H   0  0  0  0  0  0
  -26.8741  -30.7505   22.0316 H   0  0  0  0  0  0
  -28.1180  -28.7525   21.2672 H   0  0  0  0  0  0
  -25.9525  -25.8030   18.9943 H   0  0  0  0  0  0
  -23.9993  -27.2802   18.9527 H   0  0  0  0  0  0
  -23.8084  -30.5473   19.3820 H   0  0  0  0  0  0
  -22.7989  -29.2119   19.8412 H   0  0  0  0  0  0
  -25.1305  -36.1841   25.0785 H   0  0  0  0  0  0
  -21.0033  -28.3365   24.1326 H   0  0  0  0  0  0
  -20.5637  -26.2351   23.3680 H   0  0  0  0  0  0
  -21.6647  -26.7397   22.1260 H   0  0  0  0  0  0
  -19.6943  -25.6278   21.1262 H   0  0  0  0  0  0
  -19.6734  -27.3158   20.6727 H   0  0  0  0  0  0
  -17.4227  -26.6743   21.3962 H   0  0  0  0  0  0
  -18.0286  -26.0072   22.8974 H   0  0  0  0  0  0
  -19.7987  -30.7250   24.2265 H   0  0  0  0  0  0
  -17.5069  -31.6260   24.5167 H   0  0  0  0  0  0
  -15.5391  -30.2990   23.7652 H   0  0  0  0  0  0
  -15.8707  -28.0819   22.7083 H   0  0  0  0  0  0
  -24.5959  -30.6994   25.7695 H   0  0  0  0  0  0
  -24.8715  -32.2932   26.4619 H   0  0  0  0  0  0
  -25.7918  -30.9127   27.0286 H   0  0  0  0  0  0
  -26.3041  -29.6662   24.1335 H   0  0  0  0  0  0
  -27.4006  -29.7306   25.4936 H   0  0  0  0  0  0
  -27.8939  -30.4191   23.9651 H   0  0  0  0  0  0
  -27.2660  -33.3714   26.1974 H   0  0  0  0  0  0
  -28.3884  -32.6877   25.0316 H   0  0  0  0  0  0
  -28.0686  -31.8573   26.5490 H   0  0  0  0  0  0
  -28.2572  -38.0073   24.7510 H   0  0  0  0  0  0
  -28.1087  -36.2616   24.6270 H   0  0  0  0  0  0
  -27.2309  -37.1400   25.8863 H   0  0  0  0  0  0
  -20.9494  -29.8795   21.6772 H   0  0  0  0  0  0
  -26.0160  -38.2798   24.1442 H   0  0  0  0  0  0
  -30.5021  -21.2943   18.5744 H   0  0  0  0  0  0
  -28.5462  -18.7737   21.4977 H   0  0  0  0  0  0
  -26.5128  -22.1741   24.2975 H   0  0  0  0  0  0
  -27.5173  -23.5083   24.8584 H   0  0  0  0  0  0
  -28.4875  -23.7978   22.6542 H   0  0  0  0  0  0
  -26.8045  -23.4375   22.2656 H   0  0  0  0  0  0
  -28.2674  -20.8490   25.1369 H   0  0  0  0  0  0
  -29.4573  -22.1278   24.9202 H   0  0  0  0  0  0
  -27.3053  -21.0838   21.9496 H   0  0  0  0  0  0
  -32.3599  -20.1901   17.3526 H   0  0  0  0  0  0
  -31.2460  -19.1763   16.4306 H   0  0  0  0  0  0
  -32.5397  -18.4371   17.3736 H   0  0  0  0  0  0
  -28.3076  -22.7157   18.8183 H   0  0  0  0  0  0
  -27.0899  -22.9847   19.9545 H   0  0  0  0  0  0
  -28.1438  -24.9547   18.6023 H   0  0  0  0  0  0
  -29.5901  -24.7593   19.4791 H   0  0  0  0  0  0
  -29.8905  -22.2792   20.9437 H   0  0  0  0  0  0
  -28.8523  -16.0328   21.0111 H   0  0  0  0  0  0
  -28.8960  -20.0820   23.1387 H   0  0  0  0  0  0
  -29.9794  -21.2962   23.0064 H   0  0  0  0  0  0
  1 25  1  0  0  0
  1 30  2  0  0  0
  1 85  1  0  0  0
  2  3  1  0  0  0
  2 25  1  0  0  0
  2 87  1  0  0  0
  2 88  1  0  0  0
  3  4  1  0  0  0
  3 89  1  0  0  0
  3 90  1  0  0  0
  4  5  1  0  0  0
  4 91  1  0  0  0
  4 92  1  0  0  0
  5  6  1  0  0  0
  5 26  1  0  0  0
  5 93  1  0  0  0
  6 25  1  0  0  0
  6 94  1  0  0  0
  6 95  1  0  0  0
  7  8  2  0  0  0
  7 26  1  0  0  0
  7 29  1  0  0  0
  8  9  1  0  0  0
  8 22  1  0  0  0
  9 10  1  0  0  0
  9 27  2  0  0  0
 10 11  2  0  0  0
 10 15  1  0  0  0
 11 12  1  0  0  0
 11 96  1  0  0  0
 12 13  2  0  0  0
 12 97  1  0  0  0
 13 14  1  0  0  0
 13 31  1  0  0  0
 14 15  2  0  0  0
 14 98  1  0  0  0
 15 99  1  0  0  0
 16 17  2  0  0  0
 16 21  1  0  0  0
 16 31  1  0  0  0
 17 18  1  0  0  0
 17100  1  0  0  0
 18 19  2  0  0  0
 18101  1  0  0  0
 19 20  1  0  0  0
 19 24  1  0  0  0
 20 21  2  0  0  0
 20102  1  0  0  0
 21 23  1  0  0  0
 22 28  1  0  0  0
 22 32  2  0  0  0
 26 27  1  0  0  0
 28103  1  0  0  0
 28104  1  0  0  0
 29105  1  0  0  0
 29106  1  0  0  0
 33 34  1  0  0  0
 33 66  1  0  0  0
 33 70  2  0  0  0
 34 36  1  0  0  0
 34 59  1  0  0  0
 34107  1  0  0  0
 35 44  2  0  0  0
 35 45  1  0  0  0
 35 68  1  0  0  0
 36 56  1  0  0  0
 36108  1  0  0  0
 37 39  1  0  0  0
 37 47  1  0  0  0
 37 66  1  0  0  0
 37109  1  0  0  0
 38 43  2  0  0  0
 38 46  1  0  0  0
 38 47  1  0  0  0
 39 64  1  0  0  0
 39 67  2  0  0  0
 40 52  1  0  0  0
 40 53  2  0  0  0
 40 58  1  0  0  0
 41110  1  0  0  0
 41111  1  0  0  0
 41112  1  0  0  0
 41 48  1  0  0  0
 42 43  1  0  0  0
 42 66  1  0  0  0
 42113  1  0  0  0
 42114  1  0  0  0
 43 44  1  0  0  0
 44115  1  0  0  0
 45 46  2  0  0  0
 45116  1  0  0  0
 46117  1  0  0  0
 47118  1  0  0  0
 47119  1  0  0  0
 48 56  1  0  0  0
 48 65  1  0  0  0
 48120  1  0  0  0
 49 50  1  0  0  0
 49 53  1  0  0  0
 49 64  1  0  0  0
 49121  1  0  0  0
 50 51  1  0  0  0
 50122  1  0  0  0
 50123  1  0  0  0
 51 52  1  0  0  0
 51124  1  0  0  0
 51125  1  0  0  0
 52126  1  0  0  0
 52127  1  0  0  0
 53 54  1  0  0  0
 54 55  2  0  0  0
 54128  1  0  0  0
 55 57  1  0  0  0
 55129  1  0  0  0
 56 69  2  0  0  0
 57 58  2  0  0  0
 57130  1  0  0  0
 58131  1  0  0  0
 59 60  1  0  0  0
 59 61  1  0  0  0
 59 62  1  0  0  0
 60132  1  0  0  0
 60133  1  0  0  0
 60134  1  0  0  0
 61135  1  0  0  0
 61136  1  0  0  0
 61137  1  0  0  0
 62138  1  0  0  0
 62139  1  0  0  0
 62140  1  0  0  0
 63 65  1  0  0  0
 63141  1  0  0  0
 63142  1  0  0  0
 63143  1  0  0  0
 64144  1  0  0  0
 65145  1  0  0  0
 68 82  1  0  0  0
 71 73  2  0  0  0
 71 74  1  0  0  0
 71146  1  0  0  0
 72 73  1  0  0  0
 72 75  2  0  0  0
 72147  1  0  0  0
 73 83  1  0  0  0
 74 80  1  0  0  0
 74 84  2  0  0  0
 75 84  1  0  0  0
 75 85  1  0  0  0
 76 77  1  0  0  0
 76 78  1  0  0  0
 76148  1  0  0  0
 76149  1  0  0  0
 77150  1  0  0  0
 77151  1  0  0  0
 77 79  1  0  0  0
 78 86  1  0  0  0
 78152  1  0  0  0
 78153  1  0  0  0
 79 83  1  0  0  0
 79 86  1  0  0  0
 79154  1  0  0  0
 80155  1  0  0  0
 80156  1  0  0  0
 80157  1  0  0  0
 81 82  1  0  0  0
 81158  1  0  0  0
 81159  1  0  0  0
 81 83  1  0  0  0
 82160  1  0  0  0
 82161  1  0  0  0
 83162  1  0  0  0
 85163  1  0  0  0
 86164  1  0  0  0
 86165  1  0  0  0
M  CHG  1  86   1
M  ISO  4   1 100  68 101  82 101  85 100
M  END
> <chiral flag>
0

> <version>
0

> <s_m_source_file>
/data/baiqing/PycharmProjects/Reinvent-master-3.2/result/LINK_invent/BTK/process_docking_weight1_custom_sum_contain_oxygen_bond_distance_aromatic_linkinvent_7_9_3/rearranged_h_0129.sdf

> <i_m_source_file_index>
3

> <r_mmod_Potential_Energy-OPLS-2005>
457.780731201172

> <r_mmod_Stretch_Energy-OPLS-2005>
313.222351074219

> <r_mmod_Bend_Energy-OPLS-2005>
390.517059326172

> <r_mmod_Torsional_Energy-OPLS-2005>
301.700958251953

> <r_mmod_Improper_Torsional_Energy-OPLS-2005>
4.28978061676025

> <r_mmod_Van_der_Waal_Energy-OPLS-2005>
122.978988647461

> <r_mmod_Electrostatic_Energy-OPLS-2005>
-404.448974609375

> <r_mmod_Solvation_Energy-OPLS-2005>
-505.014038085938

> <b_mmod_Minimization_Converged-OPLS-2005>
0

> <r_mmod_RMS_Derivative-OPLS-2005>
3.18158388137817

$$$$
3
                    3D
 Structure written by MMmdl.
167176  0  0  1  0            999 V2000
  -30.6668  -14.4667   20.6069 C   0  0  0  0  0  0
  -30.4402  -12.3212   19.3975 C   0  0  0  0  0  0
  -29.4962  -12.5232   18.1925 C   0  0  0  0  0  0
  -28.0154  -12.3772   18.6066 C   0  0  0  0  0  0
  -27.6657  -13.1944   19.8779 C   0  0  2  0  0  0
  -28.7102  -12.9270   20.9863 C   0  0  0  0  0  0
  -25.2646  -13.8121   20.5681 C   0  0  0  0  0  0
  -24.1877  -13.0434   20.9171 C   0  0  0  0  0  0
  -24.6390  -11.6885   20.8716 C   0  0  0  0  0  0
  -23.9032  -10.4286   21.0402 C   0  0  0  0  0  0
  -24.3591   -9.4199   21.9170 C   0  0  0  0  0  0
  -23.6279   -8.2234   22.0761 C   0  0  0  0  0  0
  -22.4263   -8.0277   21.3556 C   0  0  0  0  0  0
  -21.9887   -9.0239   20.4651 C   0  0  0  0  0  0
  -22.7206  -10.2120   20.3052 C   0  0  0  0  0  0
  -21.6848   -6.0717   22.5278 C   0  0  0  0  0  0
  -21.4012   -6.5628   23.8202 C   0  0  0  0  0  0
  -21.3661   -5.6795   24.9175 C   0  0  0  0  0  0
  -21.6054   -4.3059   24.7232 C   0  0  0  0  0  0
  -21.8826   -3.8136   23.4356 C   0  0  0  0  0  0
  -21.9192   -4.6947   22.3400 C   0  0  0  0  0  0
  -22.7896  -13.5247   21.1824 C   0  0  0  0  0  0
  -22.1678   -4.2136   21.0984 F   0  0  0  0  0  0
  -21.5629   -3.4547   25.7749 F   0  0  0  0  0  0
  -30.0398  -13.2709   20.4449 N   0  0  0  0  0  0
  -26.3050  -12.9255   20.3357 N   0  0  0  0  0  0
  -25.9310  -11.6427   20.5723 N   0  0  0  0  0  0
  -22.0546  -12.8222   22.0374 N   0  0  0  0  0  0
  -25.4407  -15.1833   20.4080 N   0  0  0  0  0  0
  -31.7789  -14.7244   20.1368 O   0  0  0  0  0  0
  -21.6656   -6.8861   21.4232 O   0  0  0  0  0  0
  -22.3592  -14.5552   20.6673 O   0  0  0  0  0  0
  -24.6192  -31.8678   23.2106 C   0  0  0  0  0  0
  -25.9099  -32.4819   23.8391 C   0  0  1  0  0  0
  -27.2372  -27.4380   20.0558 C   0  0  0  0  0  0
  -25.5967  -33.8616   24.2317 N   0  0  0  0  0  0
  -23.4050  -30.4930   21.5543 C   0  0  2  0  0  0
  -24.8453  -28.9595   20.1172 C   0  0  0  0  0  0
  -22.7414  -29.4659   22.5004 C   0  0  0  0  0  0
  -18.0279  -28.1379   22.8478 C   0  0  0  0  0  0
  -24.1508  -36.7308   23.2633 C   0  0  0  0  0  0
  -25.9371  -30.8295   21.3673 C   0  0  0  0  0  0
  -26.0103  -29.4652   20.7070 C   0  0  0  0  0  0
  -27.2055  -28.7106   20.6769 C   0  0  0  0  0  0
  -26.0395  -26.9330   19.4990 C   0  0  0  0  0  0
  -24.8519  -27.6887   19.5179 C   0  0  0  0  0  0
  -23.6123  -29.8325   20.1677 C   0  0  0  0  0  0
  -25.4125  -36.3108   24.0337 C   0  0  1  0  0  0
  -20.5863  -28.3665   23.1326 C   0  0  2  0  0  0
  -20.6794  -26.9403   22.5425 C   0  0  0  0  0  0
  -19.5779  -26.6381   21.5218 C   0  0  0  0  0  0
  -18.1933  -26.7932   22.1589 C   0  0  0  0  0  0
  -19.1521  -28.8834   23.2892 C   0  0  0  0  0  0
  -18.9442  -30.1453   23.8888 C   0  0  0  0  0  0
  -17.6435  -30.6575   24.0563 C   0  0  0  0  0  0
  -25.9061  -34.9472   23.5106 C   0  0  0  0  0  0
  -16.5331  -29.9067   23.6343 C   0  0  0  0  0  0
  -16.7260  -28.6500   23.0330 C   0  0  0  0  0  0
  -26.4510  -31.6604   25.0731 C   0  0  0  0  0  0
  -25.3767  -31.3724   26.1471 C   0  0  0  0  0  0
  -27.0350  -30.3042   24.6141 C   0  0  0  0  0  0
  -27.6068  -32.4323   25.7514 C   0  0  0  0  0  0
  -27.5580  -37.1815   24.8453 C   0  0  0  0  0  0
  -21.4138  -29.3022   22.3728 N   0  0  0  0  0  0
  -26.4291  -37.3794   23.9401 N   0  0  0  0  0  0
  -24.6723  -31.0766   22.1013 N   0  0  0  0  0  0
  -23.4160  -28.8214   23.3070 O   0  0  0  0  0  0
  -28.4291  -26.7328   20.0230 O   0  0  0  0  0  0
  -26.5568  -34.8920   22.4642 O   0  0  0  0  0  0
  -23.5390  -32.1429   23.7505 O   0  0  0  0  0  0
  -30.3792  -21.4305   19.6768 C   0  0  0  0  0  0
  -28.3943  -19.3744   21.5140 C   0  0  0  0  0  0
  -31.1190  -17.8834   19.2852 C   0  0  0  0  0  0
  -28.9519  -17.1903   22.4826 C   0  0  0  0  0  0
  -30.6147  -20.0273   20.2845 C   0  0  1  0  0  0
  -29.3472  -19.1402   20.3177 C   0  0  1  0  0  0
  -29.8281  -17.6767   20.1120 C   0  0  2  0  0  0
  -30.0331  -16.8424   21.4247 C   0  0  2  0  0  0
  -28.6638  -24.2927   19.4835 C   0  0  0  0  0  0
  -30.0007  -23.8776   20.1399 C   0  0  0  0  0  0
  -28.6425  -25.7590   18.9839 C   0  0  0  0  0  0
  -30.0782  -22.4521   20.5023 N   0  0  0  0  0  0
  -29.8919  -15.3903   21.2046 N   0  0  0  0  0  0
  -28.8163  -18.6383   22.7231 N   0  3  0  0  0  0
  -31.5640  -19.2899   19.4380 N   0  3  0  0  0  0
  -30.5109  -21.5867   18.4598 O   0  0  0  0  0  0
  -31.4781  -12.4612   19.0929 H   0  0  0  0  0  0
  -30.3747  -11.2996   19.7756 H   0  0  0  0  0  0
  -29.7319  -11.8113   17.4000 H   0  0  0  0  0  0
  -29.6575  -13.5129   17.7648 H   0  0  0  0  0  0
  -27.8148  -11.3178   18.7749 H   0  0  0  0  0  0
  -27.3692  -12.6756   17.7819 H   0  0  0  0  0  0
  -27.7207  -14.2486   19.6059 H   0  0  0  0  0  0
  -28.6993  -11.8708   21.2623 H   0  0  0  0  0  0
  -28.4652  -13.4595   21.9054 H   0  0  0  0  0  0
  -25.2748   -9.5691   22.4721 H   0  0  0  0  0  0
  -24.0012   -7.4626   22.7470 H   0  0  0  0  0  0
  -21.0836   -8.8731   19.8946 H   0  0  0  0  0  0
  -22.3656  -10.9652   19.6153 H   0  0  0  0  0  0
  -21.2014   -7.6136   23.9692 H   0  0  0  0  0  0
  -21.1484   -6.0537   25.9068 H   0  0  0  0  0  0
  -22.0604   -2.7604   23.2865 H   0  0  0  0  0  0
  -22.4180  -11.9881   22.4745 H   0  0  0  0  0  0
  -21.1161  -13.1214   22.2577 H   0  0  0  0  0  0
  -24.6649  -15.8312   20.4940 H   0  0  0  0  0  0
  -26.2661  -15.6047   20.0035 H   0  0  0  0  0  0
  -26.7172  -32.5512   23.1148 H   0  0  0  0  0  0
  -25.0247  -33.9795   25.0548 H   0  0  0  0  0  0
  -22.6952  -31.3121   21.4184 H   0  0  0  0  0  0
  -23.3769  -35.9643   23.3309 H   0  0  0  0  0  0
  -24.3599  -36.8903   22.2043 H   0  0  0  0  0  0
  -23.7259  -37.6511   23.6645 H   0  0  0  0  0  0
  -26.0618  -31.6035   20.6094 H   0  0  0  0  0  0
  -26.8185  -30.8682   21.9944 H   0  0  0  0  0  0
  -28.1121  -29.1066   21.1134 H   0  0  0  0  0  0
  -25.9953  -25.9514   19.0514 H   0  0  0  0  0  0
  -23.9515  -27.2853   19.0763 H   0  0  0  0  0  0
  -23.7310  -30.6144   19.4163 H   0  0  0  0  0  0
  -22.7311  -29.2642   19.8633 H   0  0  0  0  0  0
  -25.1309  -36.1972   25.0830 H   0  0  0  0  0  0
  -20.9927  -28.3234   24.1457 H   0  0  0  0  0  0
  -20.5767  -26.2237   23.3591 H   0  0  0  0  0  0
  -21.6664  -26.7505   22.1172 H   0  0  0  0  0  0
  -19.6965  -25.6296   21.1246 H   0  0  0  0  0  0
  -19.6762  -27.3203   20.6763 H   0  0  0  0  0  0
  -17.4231  -26.6693   21.3967 H   0  0  0  0  0  0
  -18.0304  -26.0066   22.8976 H   0  0  0  0  0  0
  -19.7918  -30.7293   24.2218 H   0  0  0  0  0  0
  -17.4991  -31.6263   24.5165 H   0  0  0  0  0  0
  -15.5333  -30.2953   23.7711 H   0  0  0  0  0  0
  -15.8651  -28.0849   22.7001 H   0  0  0  0  0  0
  -24.5919  -30.7106   25.7792 H   0  0  0  0  0  0
  -24.8996  -32.2895   26.4941 H   0  0  0  0  0  0
  -25.8111  -30.8854   27.0210 H   0  0  0  0  0  0
  -26.2913  -29.6783   24.1199 H   0  0  0  0  0  0
  -27.4098  -29.7316   25.4629 H   0  0  0  0  0  0
  -27.8764  -30.4339   23.9328 H   0  0  0  0  0  0
  -27.2668  -33.3586   26.2162 H   0  0  0  0  0  0
  -28.3866  -32.6941   25.0351 H   0  0  0  0  0  0
  -28.0770  -31.8408   26.5379 H   0  0  0  0  0  0
  -28.2595  -38.0114   24.7501 H   0  0  0  0  0  0
  -28.1083  -36.2641   24.6300 H   0  0  0  0  0  0
  -27.2290  -37.1480   25.8850 H   0  0  0  0  0  0
  -20.9297  -29.8684   21.6905 H   0  0  0  0  0  0
  -26.0188  -38.2876   24.1390 H   0  0  0  0  0  0
  -27.3906  -19.0442   21.2404 H   0  0  0  0  0  0
  -28.3008  -20.4371   21.7441 H   0  0  0  0  0  0
  -30.9172  -17.7051   18.2284 H   0  0  0  0  0  0
  -31.9224  -17.2070   19.5740 H   0  0  0  0  0  0
  -29.1815  -16.7016   23.4299 H   0  0  0  0  0  0
  -27.9757  -16.8135   22.1725 H   0  0  0  0  0  0
  -31.0521  -20.1217   21.2791 H   0  0  0  0  0  0
  -28.7744  -19.3942   19.4231 H   0  0  0  0  0  0
  -29.0881  -17.1557   19.5017 H   0  0  0  0  0  0
  -31.0159  -17.0521   21.8534 H   0  0  0  0  0  0
  -27.8312  -24.1112   20.1618 H   0  0  0  0  0  0
  -28.4965  -23.6467   18.6205 H   0  0  0  0  0  0
  -30.1359  -24.4669   21.0487 H   0  0  0  0  0  0
  -30.8395  -24.1365   19.4893 H   0  0  0  0  0  0
  -27.9409  -25.8577   18.1568 H   0  0  0  0  0  0
  -29.6030  -25.9896   18.5244 H   0  0  0  0  0  0
  -30.0247  -22.2491   21.4920 H   0  0  0  0  0  0
  -29.0283  -14.9931   21.5424 H   0  0  0  0  0  0
  -28.1067  -18.7692   23.4279 H   0  0  0  0  0  0
  -29.6691  -19.0100   23.1073 H   0  0  0  0  0  0
  -31.5356  -19.7684   18.5472 H   0  0  0  0  0  0
  -32.4987  -19.3686   19.8041 H   0  0  0  0  0  0
  1 25  1  0  0  0
  1 30  2  0  0  0
  1 83  1  0  0  0
  2  3  1  0  0  0
  2 25  1  0  0  0
  2 87  1  0  0  0
  2 88  1  0  0  0
  3  4  1  0  0  0
  3 89  1  0  0  0
  3 90  1  0  0  0
  4  5  1  0  0  0
  4 91  1  0  0  0
  4 92  1  0  0  0
  5  6  1  0  0  0
  5 26  1  0  0  0
  5 93  1  0  0  0
  6 25  1  0  0  0
  6 94  1  0  0  0
  6 95  1  0  0  0
  7  8  2  0  0  0
  7 26  1  0  0  0
  7 29  1  0  0  0
  8  9  1  0  0  0
  8 22  1  0  0  0
  9 10  1  0  0  0
  9 27  2  0  0  0
 10 11  2  0  0  0
 10 15  1  0  0  0
 11 12  1  0  0  0
 11 96  1  0  0  0
 12 13  2  0  0  0
 12 97  1  0  0  0
 13 14  1  0  0  0
 13 31  1  0  0  0
 14 15  2  0  0  0
 14 98  1  0  0  0
 15 99  1  0  0  0
 16 17  2  0  0  0
 16 21  1  0  0  0
 16 31  1  0  0  0
 17 18  1  0  0  0
 17100  1  0  0  0
 18 19  2  0  0  0
 18101  1  0  0  0
 19 20  1  0  0  0
 19 24  1  0  0  0
 20 21  2  0  0  0
 20102  1  0  0  0
 21 23  1  0  0  0
 22 28  1  0  0  0
 22 32  2  0  0  0
 26 27  1  0  0  0
 28103  1  0  0  0
 28104  1  0  0  0
 29105  1  0  0  0
 29106  1  0  0  0
 33 34  1  0  0  0
 33 66  1  0  0  0
 33 70  2  0  0  0
 34 36  1  0  0  0
 34 59  1  0  0  0
 34107  1  0  0  0
 35 44  2  0  0  0
 35 45  1  0  0  0
 35 68  1  0  0  0
 36 56  1  0  0  0
 36108  1  0  0  0
 37 39  1  0  0  0
 37 47  1  0  0  0
 37 66  1  0  0  0
 37109  1  0  0  0
 38 43  2  0  0  0
 38 46  1  0  0  0
 38 47  1  0  0  0
 39 64  1  0  0  0
 39 67  2  0  0  0
 40 52  1  0  0  0
 40 53  2  0  0  0
 40 58  1  0  0  0
 41110  1  0  0  0
 41111  1  0  0  0
 41112  1  0  0  0
 41 48  1  0  0  0
 42 43  1  0  0  0
 42 66  1  0  0  0
 42113  1  0  0  0
 42114  1  0  0  0
 43 44  1  0  0  0
 44115  1  0  0  0
 45 46  2  0  0  0
 45116  1  0  0  0
 46117  1  0  0  0
 47118  1  0  0  0
 47119  1  0  0  0
 48 56  1  0  0  0
 48 65  1  0  0  0
 48120  1  0  0  0
 49 50  1  0  0  0
 49 53  1  0  0  0
 49 64  1  0  0  0
 49121  1  0  0  0
 50 51  1  0  0  0
 50122  1  0  0  0
 50123  1  0  0  0
 51 52  1  0  0  0
 51124  1  0  0  0
 51125  1  0  0  0
 52126  1  0  0  0
 52127  1  0  0  0
 53 54  1  0  0  0
 54 55  2  0  0  0
 54128  1  0  0  0
 55 57  1  0  0  0
 55129  1  0  0  0
 56 69  2  0  0  0
 57 58  2  0  0  0
 57130  1  0  0  0
 58131  1  0  0  0
 59 60  1  0  0  0
 59 61  1  0  0  0
 59 62  1  0  0  0
 60132  1  0  0  0
 60133  1  0  0  0
 60134  1  0  0  0
 61135  1  0  0  0
 61136  1  0  0  0
 61137  1  0  0  0
 62138  1  0  0  0
 62139  1  0  0  0
 62140  1  0  0  0
 63 65  1  0  0  0
 63141  1  0  0  0
 63142  1  0  0  0
 63143  1  0  0  0
 64144  1  0  0  0
 65145  1  0  0  0
 68 81  1  0  0  0
 71 82  1  0  0  0
 71 86  2  0  0  0
 71 75  1  0  0  0
 72 84  1  0  0  0
 72146  1  0  0  0
 72147  1  0  0  0
 72 76  1  0  0  0
 73 85  1  0  0  0
 73148  1  0  0  0
 73149  1  0  0  0
 73 77  1  0  0  0
 74 78  1  0  0  0
 74 84  1  0  0  0
 74150  1  0  0  0
 74151  1  0  0  0
 75 76  1  0  0  0
 75 85  1  0  0  0
 75152  1  0  0  0
 76 77  1  0  0  0
 76153  1  0  0  0
 77 78  1  0  0  0
 77154  1  0  0  0
 78 83  1  0  0  0
 78155  1  0  0  0
 79 80  1  0  0  0
 79 81  1  0  0  0
 79156  1  0  0  0
 79157  1  0  0  0
 80 82  1  0  0  0
 80158  1  0  0  0
 80159  1  0  0  0
 81160  1  0  0  0
 81161  1  0  0  0
 82162  1  0  0  0
 83163  1  0  0  0
 84164  1  0  0  0
 84165  1  0  0  0
 85166  1  0  0  0
 85167  1  0  0  0
M  CHG  2  84   1  85   1
M  ISO  4   1 100  68 101  81 101  83 100
M  END
> <chiral flag>
0

> <version>
0

> <s_m_source_file>
/data/baiqing/PycharmProjects/Reinvent-master-3.2/result/LINK_invent/BTK/process_docking_weight1_custom_sum_contain_oxygen_bond_distance_aromatic_linkinvent_7_9_3/rearranged_h_0129.sdf

> <i_m_source_file_index>
4

> <r_mmod_Potential_Energy-OPLS-2005>
-565.418762207031

> <r_mmod_Stretch_Energy-OPLS-2005>
39.9945678710938

> <r_mmod_Bend_Energy-OPLS-2005>
134.877593994141

> <r_mmod_Torsional_Energy-OPLS-2005>
250.840301513672

> <r_mmod_Improper_Torsional_Energy-OPLS-2005>
3.9376368522644

> <r_mmod_Van_der_Waal_Energy-OPLS-2005>
130.187744140625

> <r_mmod_Electrostatic_Energy-OPLS-2005>
-69.0092086791992

> <r_mmod_Solvation_Energy-OPLS-2005>
-1069.10791015625

> <b_mmod_Minimization_Converged-OPLS-2005>
0

> <r_mmod_RMS_Derivative-OPLS-2005>
2.94033217430115

$$$$
4
                    3D
 Structure written by MMmdl.
166175  0  0  1  0            999 V2000
  -30.6911  -14.5879   20.5177 C   0  0  0  0  0  0
  -30.4144  -12.3678   19.4490 C   0  0  0  0  0  0
  -29.4955  -12.4982   18.2179 C   0  0  0  0  0  0
  -28.0205  -12.3485   18.6320 C   0  0  0  0  0  0
  -27.6483  -13.2238   19.8588 C   0  0  2  0  0  0
  -28.6913  -13.0987   20.9899 C   0  0  0  0  0  0
  -25.2526  -13.8179   20.5668 C   0  0  0  0  0  0
  -24.1811  -13.0434   20.9193 C   0  0  0  0  0  0
  -24.6399  -11.6913   20.8745 C   0  0  0  0  0  0
  -23.9081  -10.4283   21.0408 C   0  0  0  0  0  0
  -24.3639   -9.4196   21.9181 C   0  0  0  0  0  0
  -23.6318   -8.2231   22.0746 C   0  0  0  0  0  0
  -22.4294   -8.0280   21.3544 C   0  0  0  0  0  0
  -21.9937   -9.0239   20.4629 C   0  0  0  0  0  0
  -22.7263  -10.2118   20.3045 C   0  0  0  0  0  0
  -21.6853   -6.0741   22.5273 C   0  0  0  0  0  0
  -21.4011   -6.5643   23.8213 C   0  0  0  0  0  0
  -21.3661   -5.6792   24.9176 C   0  0  0  0  0  0
  -21.6051   -4.3055   24.7221 C   0  0  0  0  0  0
  -21.8822   -3.8152   23.4337 C   0  0  0  0  0  0
  -21.9194   -4.6967   22.3393 C   0  0  0  0  0  0
  -22.7828  -13.5203   21.1866 C   0  0  0  0  0  0
  -22.1664   -4.2154   21.0968 F   0  0  0  0  0  0
  -21.5637   -3.4542   25.7737 F   0  0  0  0  0  0
  -30.0082  -13.4079   20.4159 N   0  0  0  0  0  0
  -26.2963  -12.9382   20.3309 N   0  0  0  0  0  0
  -25.9327  -11.6531   20.5774 N   0  0  0  0  0  0
  -22.0484  -12.8173   22.0413 N   0  0  0  0  0  0
  -25.4219  -15.1897   20.4047 N   0  0  0  0  0  0
  -31.8585  -14.6827   20.1343 O   0  0  0  0  0  0
  -21.6646   -6.8888   21.4240 O   0  0  0  0  0  0
  -22.3506  -14.5521   20.6745 O   0  0  0  0  0  0
  -24.6262  -31.8624   23.2115 C   0  0  0  0  0  0
  -25.9108  -32.4805   23.8427 C   0  0  1  0  0  0
  -27.2066  -27.3246   20.0960 C   0  0  0  0  0  0
  -25.5924  -33.8610   24.2329 N   0  0  0  0  0  0
  -23.4177  -30.4935   21.5561 C   0  0  2  0  0  0
  -24.8598  -28.9668   20.1081 C   0  0  0  0  0  0
  -22.7460  -29.4649   22.4975 C   0  0  0  0  0  0
  -18.0274  -28.1379   22.8510 C   0  0  0  0  0  0
  -24.1478  -36.7302   23.2650 C   0  0  0  0  0  0
  -25.9632  -30.7908   21.3899 C   0  0  0  0  0  0
  -26.0324  -29.4238   20.7236 C   0  0  0  0  0  0
  -27.2069  -28.6110   20.7200 C   0  0  0  0  0  0
  -26.0142  -26.9529   19.4216 C   0  0  0  0  0  0
  -24.8520  -27.7333   19.4535 C   0  0  0  0  0  0
  -23.6296  -29.8441   20.1662 C   0  0  0  0  0  0
  -25.4105  -36.3105   24.0347 C   0  0  1  0  0  0
  -20.5875  -28.3687   23.1298 C   0  0  2  0  0  0
  -20.6751  -26.9413   22.5430 C   0  0  0  0  0  0
  -19.5726  -26.6385   21.5228 C   0  0  0  0  0  0
  -18.1901  -26.7939   22.1627 C   0  0  0  0  0  0
  -19.1528  -28.8850   23.2898 C   0  0  0  0  0  0
  -18.9457  -30.1459   23.8911 C   0  0  0  0  0  0
  -17.6456  -30.6595   24.0572 C   0  0  0  0  0  0
  -25.9043  -34.9466   23.5131 C   0  0  0  0  0  0
  -16.5342  -29.9097   23.6351 C   0  0  0  0  0  0
  -16.7265  -28.6508   23.0386 C   0  0  0  0  0  0
  -26.4496  -31.6625   25.0807 C   0  0  0  0  0  0
  -25.3741  -31.3742   26.1543 C   0  0  0  0  0  0
  -27.0375  -30.3057   24.6298 C   0  0  0  0  0  0
  -27.6043  -32.4395   25.7561 C   0  0  0  0  0  0
  -27.5587  -37.1800   24.8467 C   0  0  0  0  0  0
  -21.4178  -29.3045   22.3697 N   0  0  0  0  0  0
  -26.4281  -37.3800   23.9439 N   0  0  0  0  0  0
  -24.6879  -31.0644   22.1081 N   0  0  0  0  0  0
  -23.4188  -28.8166   23.3029 O   0  0  0  0  0  0
  -28.2887  -26.4240   20.1781 O   0  0  0  0  0  0
  -26.5602  -34.8919   22.4692 O   0  0  0  0  0  0
  -23.5426  -32.1432   23.7428 O   0  0  0  0  0  0
  -30.4337  -21.9879   19.7733 C   0  0  0  0  0  0
  -28.7437  -21.5842   21.4436 C   0  0  0  0  0  0
  -29.9116  -23.2930   19.5415 C   0  0  0  0  0  0
  -28.2260  -22.8916   21.2166 C   0  0  0  0  0  0
  -29.8560  -21.0925   20.7155 C   0  0  0  0  0  0
  -28.7833  -23.7735   20.2495 C   0  0  0  0  0  0
  -31.9504  -18.4333   22.7628 C   0  0  0  0  0  0
  -31.1262  -17.1593   22.5455 C   0  0  0  0  0  0
  -29.7379  -18.3636   20.7892 C   0  0  0  0  0  0
  -30.5359  -19.7166   21.0463 C   0  0  2  0  0  0
  -31.1380  -19.7214   22.4864 C   0  0  2  0  0  0
  -30.6053  -17.0700   21.1024 C   0  0  2  0  0  0
  -33.2659  -21.1644   22.0450 C   0  0  0  0  0  0
  -27.9845  -25.0306   19.7790 C   0  0  0  0  0  0
  -31.9531  -21.0031   22.8312 C   0  0  2  0  0  0
  -30.0038  -15.7070   20.8991 N   0  0  0  0  0  0
  -32.3266  -21.0492   24.5769 Cl  0  0  0  0  0  0
  -31.4588  -12.4557   19.1463 H   0  0  0  0  0  0
  -30.3161  -11.3784   19.8990 H   0  0  0  0  0  0
  -29.7478  -11.7414   17.4737 H   0  0  0  0  0  0
  -29.6492  -13.4657   17.7382 H   0  0  0  0  0  0
  -27.8553  -11.2957   18.8663 H   0  0  0  0  0  0
  -27.3659  -12.5800   17.7913 H   0  0  0  0  0  0
  -27.6631  -14.2574   19.5128 H   0  0  0  0  0  0
  -28.6901  -12.0910   21.4079 H   0  0  0  0  0  0
  -28.4455  -13.7691   21.8136 H   0  0  0  0  0  0
  -25.2785   -9.5660   22.4757 H   0  0  0  0  0  0
  -24.0026   -7.4611   22.7459 H   0  0  0  0  0  0
  -21.0884   -8.8754   19.8919 H   0  0  0  0  0  0
  -22.3736  -10.9660   19.6151 H   0  0  0  0  0  0
  -21.2003   -7.6147   23.9721 H   0  0  0  0  0  0
  -21.1485   -6.0521   25.9081 H   0  0  0  0  0  0
  -22.0603   -2.7611   23.2842 H   0  0  0  0  0  0
  -22.4166  -11.9855   22.4793 H   0  0  0  0  0  0
  -21.1085  -13.1139   22.2628 H   0  0  0  0  0  0
  -24.6545  -15.8455   20.5065 H   0  0  0  0  0  0
  -26.2719  -15.6257   20.0697 H   0  0  0  0  0  0
  -26.7189  -32.5459   23.1184 H   0  0  0  0  0  0
  -25.0066  -33.9767   25.0471 H   0  0  0  0  0  0
  -22.7125  -31.3161   21.4214 H   0  0  0  0  0  0
  -23.3762  -35.9612   23.3293 H   0  0  0  0  0  0
  -24.3563  -36.8946   22.2074 H   0  0  0  0  0  0
  -23.7206  -37.6484   23.6686 H   0  0  0  0  0  0
  -26.1008  -31.5582   20.6264 H   0  0  0  0  0  0
  -26.8410  -30.8302   22.0241 H   0  0  0  0  0  0
  -28.0977  -28.9462   21.2324 H   0  0  0  0  0  0
  -25.9211  -26.0374   18.8580 H   0  0  0  0  0  0
  -23.9574  -27.3855   18.9542 H   0  0  0  0  0  0
  -23.7460  -30.6289   19.4173 H   0  0  0  0  0  0
  -22.7478  -29.2770   19.8624 H   0  0  0  0  0  0
  -25.1276  -36.1966   25.0837 H   0  0  0  0  0  0
  -20.9962  -28.3262   24.1418 H   0  0  0  0  0  0
  -20.5652  -26.2293   23.3625 H   0  0  0  0  0  0
  -21.6617  -26.7425   22.1226 H   0  0  0  0  0  0
  -19.6865  -25.6297   21.1255 H   0  0  0  0  0  0
  -19.6659  -27.3199   20.6766 H   0  0  0  0  0  0
  -17.4173  -26.6744   21.4015 H   0  0  0  0  0  0
  -18.0250  -26.0069   22.8996 H   0  0  0  0  0  0
  -19.7927  -30.7279   24.2291 H   0  0  0  0  0  0
  -17.5005  -31.6281   24.5168 H   0  0  0  0  0  0
  -15.5348  -30.2995   23.7674 H   0  0  0  0  0  0
  -15.8661  -28.0823   22.7117 H   0  0  0  0  0  0
  -24.5921  -30.7074   25.7888 H   0  0  0  0  0  0
  -24.8920  -32.2894   26.4998 H   0  0  0  0  0  0
  -25.8086  -30.8924   27.0315 H   0  0  0  0  0  0
  -26.2988  -29.6790   24.1299 H   0  0  0  0  0  0
  -27.4043  -29.7339   25.4834 H   0  0  0  0  0  0
  -27.8855  -30.4366   23.9572 H   0  0  0  0  0  0
  -27.2645  -33.3706   26.2120 H   0  0  0  0  0  0
  -28.3840  -32.6963   25.0374 H   0  0  0  0  0  0
  -28.0736  -31.8559   26.5497 H   0  0  0  0  0  0
  -28.2583  -38.0120   24.7557 H   0  0  0  0  0  0
  -28.1107  -36.2655   24.6238 H   0  0  0  0  0  0
  -27.2309  -37.1397   25.8867 H   0  0  0  0  0  0
  -20.9337  -29.8814   21.6959 H   0  0  0  0  0  0
  -26.0171  -38.2868   24.1477 H   0  0  0  0  0  0
  -31.3020  -21.6766   19.2097 H   0  0  0  0  0  0
  -28.2797  -20.9575   22.1926 H   0  0  0  0  0  0
  -30.3558  -23.9094   18.7715 H   0  0  0  0  0  0
  -27.3444  -23.1942   21.7660 H   0  0  0  0  0  0
  -32.8333  -18.3959   22.1236 H   0  0  0  0  0  0
  -32.3174  -18.4339   23.7887 H   0  0  0  0  0  0
  -30.2932  -17.1284   23.2492 H   0  0  0  0  0  0
  -31.7542  -16.2978   22.7763 H   0  0  0  0  0  0
  -29.4124  -18.3355   19.7492 H   0  0  0  0  0  0
  -28.8299  -18.3591   21.3926 H   0  0  0  0  0  0
  -31.3847  -19.6596   20.3632 H   0  0  0  0  0  0
  -30.2885  -19.7160   23.1715 H   0  0  0  0  0  0
  -31.4716  -17.1358   20.4395 H   0  0  0  0  0  0
  -33.0970  -21.1318   20.9692 H   0  0  0  0  0  0
  -33.9876  -20.3872   22.2955 H   0  0  0  0  0  0
  -33.7330  -22.1237   22.2671 H   0  0  0  0  0  0
  -26.9824  -24.7716   20.1192 H   0  0  0  0  0  0
  -27.9609  -24.9972   18.6885 H   0  0  0  0  0  0
  -31.3400  -21.8872   22.6573 H   0  0  0  0  0  0
  -29.0319  -15.5821   21.1402 H   0  0  0  0  0  0
  1 25  1  0  0  0
  1 30  2  0  0  0
  1 86  1  0  0  0
  2  3  1  0  0  0
  2 25  1  0  0  0
  2 88  1  0  0  0
  2 89  1  0  0  0
  3  4  1  0  0  0
  3 90  1  0  0  0
  3 91  1  0  0  0
  4  5  1  0  0  0
  4 92  1  0  0  0
  4 93  1  0  0  0
  5  6  1  0  0  0
  5 26  1  0  0  0
  5 94  1  0  0  0
  6 25  1  0  0  0
  6 95  1  0  0  0
  6 96  1  0  0  0
  7  8  2  0  0  0
  7 26  1  0  0  0
  7 29  1  0  0  0
  8  9  1  0  0  0
  8 22  1  0  0  0
  9 10  1  0  0  0
  9 27  2  0  0  0
 10 11  2  0  0  0
 10 15  1  0  0  0
 11 12  1  0  0  0
 11 97  1  0  0  0
 12 13  2  0  0  0
 12 98  1  0  0  0
 13 14  1  0  0  0
 13 31  1  0  0  0
 14 15  2  0  0  0
 14 99  1  0  0  0
 15100  1  0  0  0
 16 17  2  0  0  0
 16 21  1  0  0  0
 16 31  1  0  0  0
 17 18  1  0  0  0
 17101  1  0  0  0
 18 19  2  0  0  0
 18102  1  0  0  0
 19 20  1  0  0  0
 19 24  1  0  0  0
 20 21  2  0  0  0
 20103  1  0  0  0
 21 23  1  0  0  0
 22 28  1  0  0  0
 22 32  2  0  0  0
 26 27  1  0  0  0
 28104  1  0  0  0
 28105  1  0  0  0
 29106  1  0  0  0
 29107  1  0  0  0
 33 34  1  0  0  0
 33 66  1  0  0  0
 33 70  2  0  0  0
 34 36  1  0  0  0
 34 59  1  0  0  0
 34108  1  0  0  0
 35 44  2  0  0  0
 35 45  1  0  0  0
 35 68  1  0  0  0
 36 56  1  0  0  0
 36109  1  0  0  0
 37 39  1  0  0  0
 37 47  1  0  0  0
 37 66  1  0  0  0
 37110  1  0  0  0
 38 43  2  0  0  0
 38 46  1  0  0  0
 38 47  1  0  0  0
 39 64  1  0  0  0
 39 67  2  0  0  0
 40 52  1  0  0  0
 40 53  2  0  0  0
 40 58  1  0  0  0
 41111  1  0  0  0
 41112  1  0  0  0
 41113  1  0  0  0
 41 48  1  0  0  0
 42 43  1  0  0  0
 42 66  1  0  0  0
 42114  1  0  0  0
 42115  1  0  0  0
 43 44  1  0  0  0
 44116  1  0  0  0
 45 46  2  0  0  0
 45117  1  0  0  0
 46118  1  0  0  0
 47119  1  0  0  0
 47120  1  0  0  0
 48 56  1  0  0  0
 48 65  1  0  0  0
 48121  1  0  0  0
 49 50  1  0  0  0
 49 53  1  0  0  0
 49 64  1  0  0  0
 49122  1  0  0  0
 50 51  1  0  0  0
 50123  1  0  0  0
 50124  1  0  0  0
 51 52  1  0  0  0
 51125  1  0  0  0
 51126  1  0  0  0
 52127  1  0  0  0
 52128  1  0  0  0
 53 54  1  0  0  0
 54 55  2  0  0  0
 54129  1  0  0  0
 55 57  1  0  0  0
 55130  1  0  0  0
 56 69  2  0  0  0
 57 58  2  0  0  0
 57131  1  0  0  0
 58132  1  0  0  0
 59 60  1  0  0  0
 59 61  1  0  0  0
 59 62  1  0  0  0
 60133  1  0  0  0
 60134  1  0  0  0
 60135  1  0  0  0
 61136  1  0  0  0
 61137  1  0  0  0
 61138  1  0  0  0
 62139  1  0  0  0
 62140  1  0  0  0
 62141  1  0  0  0
 63 65  1  0  0  0
 63142  1  0  0  0
 63143  1  0  0  0
 63144  1  0  0  0
 64145  1  0  0  0
 65146  1  0  0  0
 68 84  1  0  0  0
 71 73  2  0  0  0
 71 75  1  0  0  0
 71147  1  0  0  0
 72 74  1  0  0  0
 72 75  2  0  0  0
 72148  1  0  0  0
 73 76  1  0  0  0
 73149  1  0  0  0
 74 76  2  0  0  0
 74150  1  0  0  0
 75 80  1  0  0  0
 76 84  1  0  0  0
 77 78  1  0  0  0
 77151  1  0  0  0
 77152  1  0  0  0
 77 81  1  0  0  0
 78 82  1  0  0  0
 78153  1  0  0  0
 78154  1  0  0  0
 79 80  1  0  0  0
 79 82  1  0  0  0
 79155  1  0  0  0
 79156  1  0  0  0
 80 81  1  0  0  0
 80157  1  0  0  0
 81 85  1  0  0  0
 81158  1  0  0  0
 82 86  1  0  0  0
 82159  1  0  0  0
 83160  1  0  0  0
 83161  1  0  0  0
 83162  1  0  0  0
 83 85  1  0  0  0
 84163  1  0  0  0
 84164  1  0  0  0
 85 87  1  0  0  0
 85165  1  0  0  0
 86166  1  0  0  0
M  ISO  4   1 100  68 101  84 101  86 100
M  END
> <chiral flag>
0

> <version>
0

> <s_m_source_file>
/data/baiqing/PycharmProjects/Reinvent-master-3.2/result/LINK_invent/BTK/process_docking_weight1_custom_sum_contain_oxygen_bond_distance_aromatic_linkinvent_7_9_3/rearranged_h_0129.sdf

> <i_m_source_file_index>
5

> <r_mmod_Potential_Energy-OPLS-2005>
112.64533996582

> <r_mmod_Stretch_Energy-OPLS-2005>
75.42724609375

> <r_mmod_Bend_Energy-OPLS-2005>
142.808441162109

> <r_mmod_Torsional_Energy-OPLS-2005>
239.832717895508

> <r_mmod_Improper_Torsional_Energy-OPLS-2005>
6.45733833312988

> <r_mmod_Van_der_Waal_Energy-OPLS-2005>
161.65673828125

> <r_mmod_Electrostatic_Energy-OPLS-2005>
-361.374237060547

> <r_mmod_Solvation_Energy-OPLS-2005>
-200.282760620117

> <b_mmod_Minimization_Converged-OPLS-2005>
0

> <r_mmod_RMS_Derivative-OPLS-2005>
2.11632442474365

$$$$
5
                    3D
 Structure written by MMmdl.
180189  0  0  1  0            999 V2000
  -30.4977  -14.5076   20.7770 C   0  0  0  0  0  0
  -30.4573  -12.3966   19.4252 C   0  0  0  0  0  0
  -29.5230  -12.5872   18.2030 C   0  0  0  0  0  0
  -28.0317  -12.4152   18.5763 C   0  0  0  0  0  0
  -27.6582  -13.1742   19.8785 C   0  0  2  0  0  0
  -28.6760  -12.8253   20.9774 C   0  0  0  0  0  0
  -25.2621  -13.8089   20.5544 C   0  0  0  0  0  0
  -24.1862  -13.0416   20.9085 C   0  0  0  0  0  0
  -24.6345  -11.6858   20.8671 C   0  0  0  0  0  0
  -23.9028  -10.4279   21.0313 C   0  0  0  0  0  0
  -24.3590   -9.4255   21.9155 C   0  0  0  0  0  0
  -23.6290   -8.2292   22.0779 C   0  0  0  0  0  0
  -22.4290   -8.0291   21.3551 C   0  0  0  0  0  0
  -21.9841   -9.0248   20.4668 C   0  0  0  0  0  0
  -22.7148  -10.2136   20.3033 C   0  0  0  0  0  0
  -21.6876   -6.0736   22.5276 C   0  0  0  0  0  0
  -21.4009   -6.5634   23.8204 C   0  0  0  0  0  0
  -21.3655   -5.6785   24.9163 C   0  0  0  0  0  0
  -21.6066   -4.3055   24.7212 C   0  0  0  0  0  0
  -21.8829   -3.8146   23.4337 C   0  0  0  0  0  0
  -21.9208   -4.6962   22.3395 C   0  0  0  0  0  0
  -22.7928  -13.5295   21.1831 C   0  0  0  0  0  0
  -22.1687   -4.2135   21.0975 F   0  0  0  0  0  0
  -21.5623   -3.4550   25.7734 F   0  0  0  0  0  0
  -29.9874  -13.2763   20.5121 N   0  0  0  0  0  0
  -26.3003  -12.9197   20.3254 N   0  0  0  0  0  0
  -25.9239  -11.6367   20.5586 N   0  0  0  0  0  0
  -22.0562  -12.8282   22.0353 N   0  0  0  0  0  0
  -25.4276  -15.1809   20.4038 N   0  0  0  0  0  0
  -31.5905  -14.8663   20.3094 O   0  0  0  0  0  0
  -21.6687   -6.8882   21.4247 O   0  0  0  0  0  0
  -22.3625  -14.5579   20.6652 O   0  0  0  0  0  0
  -24.6154  -31.8706   23.2126 C   0  0  0  0  0  0
  -25.9039  -32.4850   23.8380 C   0  0  1  0  0  0
  -27.1917  -27.4393   20.1362 C   0  0  0  0  0  0
  -25.5911  -33.8629   24.2330 N   0  0  0  0  0  0
  -23.4069  -30.5118   21.5314 C   0  0  2  0  0  0
  -24.8507  -28.9930   20.0822 C   0  0  0  0  0  0
  -22.7410  -29.4850   22.4744 C   0  0  0  0  0  0
  -18.0198  -28.1359   22.8719 C   0  0  0  0  0  0
  -24.1513  -36.7346   23.2626 C   0  0  0  0  0  0
  -25.9258  -30.8564   21.3481 C   0  0  0  0  0  0
  -26.0077  -29.4921   20.6890 C   0  0  0  0  0  0
  -27.1935  -28.7254   20.7170 C   0  0  0  0  0  0
  -26.0455  -26.9739   19.4570 C   0  0  0  0  0  0
  -24.8678  -27.7431   19.4487 C   0  0  0  0  0  0
  -23.6126  -29.8540   20.1382 C   0  0  0  0  0  0
  -25.4125  -36.3099   24.0319 C   0  0  1  0  0  0
  -20.5872  -28.4120   23.1240 C   0  0  2  0  0  0
  -20.6705  -26.9657   22.5622 C   0  0  0  0  0  0
  -19.5588  -26.6461   21.5618 C   0  0  0  0  0  0
  -18.2125  -26.7530   22.2713 C   0  0  0  0  0  0
  -19.1461  -28.9218   23.2865 C   0  0  0  0  0  0
  -18.9043  -30.1985   23.8633 C   0  0  0  0  0  0
  -17.5816  -30.6819   24.0276 C   0  0  0  0  0  0
  -25.9031  -34.9465   23.5121 C   0  0  0  0  0  0
  -16.4986  -29.9036   23.6309 C   0  0  0  0  0  0
  -16.7143  -28.6286   23.0555 C   0  0  0  0  0  0
  -26.4481  -31.6634   25.0761 C   0  0  0  0  0  0
  -25.3747  -31.3609   26.1509 C   0  0  0  0  0  0
  -27.0307  -30.3096   24.6044 C   0  0  0  0  0  0
  -27.6085  -32.4294   25.7507 C   0  0  0  0  0  0
  -27.5561  -37.1850   24.8461 C   0  0  0  0  0  0
  -21.4104  -29.3432   22.3588 N   0  0  0  0  0  0
  -26.4302  -37.3782   23.9405 N   0  0  0  0  0  0
  -24.6691  -31.0924   22.0875 N   0  0  0  0  0  0
  -23.4080  -28.8228   23.2651 O   0  0  0  0  0  0
  -28.2395  -26.5877   20.3529 O   0  0  0  0  0  0
  -26.5572  -34.8959   22.4672 O   0  0  0  0  0  0
  -23.5284  -32.1316   23.7521 O   0  0  0  0  0  0
  -24.5560  -19.8774   23.4749 C   0  0  0  0  0  0
  -25.5589  -18.9847   23.0006 C   0  0  0  0  0  0
  -27.2078  -20.6113   23.5986 C   0  0  0  0  0  0
  -24.8457  -21.1804   24.0138 C   0  0  0  0  0  0
  -26.2380  -21.5054   24.1134 C   0  0  0  0  0  0
  -26.9193  -19.3550   23.0392 C   0  0  0  0  0  0
  -23.7478  -23.5125   24.8541 C   0  0  0  0  0  0
  -22.3778  -21.9730   23.5367 C   0  0  0  0  0  0
  -22.4883  -24.1326   25.5014 C   0  0  0  0  0  0
  -21.0942  -22.6535   24.0911 C   0  0  0  0  0  0
  -23.5913  -22.0054   24.5242 C   0  0  0  0  0  0
  -26.8772  -22.6387   24.9321 C   0  0  0  0  0  0
  -28.1511  -17.1488   22.4368 C   0  0  0  0  0  0
  -29.5367  -16.7150   21.8162 C   0  0  0  0  0  0
  -27.2139  -23.9858   24.2508 C   0  0  0  0  0  0
  -28.5191  -25.0699   22.3495 C   0  0  0  0  0  0
  -27.7946  -25.3756   21.0189 C   0  0  0  0  0  0
  -28.0227  -18.6147   22.5351 N   0  0  0  0  0  0
  -29.6229  -15.2743   21.4980 N   0  0  0  0  0  0
  -21.3236  -24.0186   24.6054 N   0  3  0  0  0  0
  -28.0092  -23.8316   23.0065 N   0  3  0  0  0  0
  -31.4900  -12.6100   19.1499 H   0  0  0  0  0  0
  -30.4408  -11.3564   19.7468 H   0  0  0  0  0  0
  -29.7926  -11.8870   17.4097 H   0  0  0  0  0  0
  -29.6666  -13.5822   17.7721 H   0  0  0  0  0  0
  -27.8117  -11.3472   18.6824 H   0  0  0  0  0  0
  -27.4046  -12.7602   17.7569 H   0  0  0  0  0  0
  -27.7338  -14.2380   19.6646 H   0  0  0  0  0  0
  -28.7004  -11.7441   21.1325 H   0  0  0  0  0  0
  -28.4001  -13.2137   21.9574 H   0  0  0  0  0  0
  -25.2750   -9.5799   22.4666 H   0  0  0  0  0  0
  -24.0035   -7.4742   22.7476 H   0  0  0  0  0  0
  -21.0797   -8.8751   19.8989 H   0  0  0  0  0  0
  -22.3598  -10.9669   19.6133 H   0  0  0  0  0  0
  -21.1996   -7.6144   23.9682 H   0  0  0  0  0  0
  -21.1458   -6.0528   25.9055 H   0  0  0  0  0  0
  -22.0604   -2.7605   23.2848 H   0  0  0  0  0  0
  -22.4203  -11.9944   22.4701 H   0  0  0  0  0  0
  -21.1224  -13.1305   22.2597 H   0  0  0  0  0  0
  -24.6279  -15.8033   20.4453 H   0  0  0  0  0  0
  -26.2676  -15.6349   20.0492 H   0  0  0  0  0  0
  -26.7149  -32.5579   23.1150 H   0  0  0  0  0  0
  -25.0192  -33.9749   25.0558 H   0  0  0  0  0  0
  -22.7041  -31.3302   21.3895 H   0  0  0  0  0  0
  -23.3740  -35.9712   23.3278 H   0  0  0  0  0  0
  -24.3607  -36.8943   22.2033 H   0  0  0  0  0  0
  -23.7324  -37.6576   23.6630 H   0  0  0  0  0  0
  -26.0319  -31.6162   20.5732 H   0  0  0  0  0  0
  -26.8184  -30.9119   21.9546 H   0  0  0  0  0  0
  -28.0691  -29.0799   21.2378 H   0  0  0  0  0  0
  -26.0361  -26.0050   18.9835 H   0  0  0  0  0  0
  -23.9814  -27.3529   18.9776 H   0  0  0  0  0  0
  -23.7027  -30.6260   19.3688 H   0  0  0  0  0  0
  -22.7377  -29.2644   19.8451 H   0  0  0  0  0  0
  -25.1294  -36.1938   25.0785 H   0  0  0  0  0  0
  -21.0165  -28.4000   24.1406 H   0  0  0  0  0  0
  -20.5424  -26.2915   23.4060 H   0  0  0  0  0  0
  -21.6540  -26.7639   22.1274 H   0  0  0  0  0  0
  -19.5691  -27.3509   20.7308 H   0  0  0  0  0  0
  -19.6739  -25.6418   21.1493 H   0  0  0  0  0  0
  -17.3884  -26.4737   21.6078 H   0  0  0  0  0  0
  -18.2054  -26.0664   23.1289 H   0  0  0  0  0  0
  -19.7291  -30.8258   24.1891 H   0  0  0  0  0  0
  -17.3953  -31.6540   24.4731 H   0  0  0  0  0  0
  -15.4853  -30.2764   23.7586 H   0  0  0  0  0  0
  -15.8464  -28.0431   22.7937 H   0  0  0  0  0  0
  -24.6024  -30.6815   25.7833 H   0  0  0  0  0  0
  -24.8881  -32.2760   26.4907 H   0  0  0  0  0  0
  -25.8200  -30.8904   27.0282 H   0  0  0  0  0  0
  -26.2899  -29.6858   24.1024 H   0  0  0  0  0  0
  -27.4077  -29.7220   25.4438 H   0  0  0  0  0  0
  -27.8695  -30.4419   23.9227 H   0  0  0  0  0  0
  -27.2667  -33.3533   26.2191 H   0  0  0  0  0  0
  -28.3853  -32.6912   25.0295 H   0  0  0  0  0  0
  -28.0804  -31.8350   26.5322 H   0  0  0  0  0  0
  -28.2608  -38.0098   24.7499 H   0  0  0  0  0  0
  -28.1032  -36.2675   24.6330 H   0  0  0  0  0  0
  -27.2317  -37.1544   25.8858 H   0  0  0  0  0  0
  -20.9376  -29.9382   21.6918 H   0  0  0  0  0  0
  -26.0172  -38.2846   24.1377 H   0  0  0  0  0  0
  -23.5507  -19.5064   23.4597 H   0  0  0  0  0  0
  -25.2377  -18.0330   22.6132 H   0  0  0  0  0  0
  -28.2445  -20.8751   23.6774 H   0  0  0  0  0  0
  -24.5536  -23.6872   25.5483 H   0  0  0  0  0  0
  -23.9784  -24.0757   23.9517 H   0  0  0  0  0  0
  -22.6860  -22.4532   22.6062 H   0  0  0  0  0  0
  -22.0902  -20.9627   23.2606 H   0  0  0  0  0  0
  -22.6568  -25.1842   25.7357 H   0  0  0  0  0  0
  -22.2590  -23.6446   26.4538 H   0  0  0  0  0  0
  -20.6879  -22.0511   24.9052 H   0  0  0  0  0  0
  -20.3162  -22.6931   23.3243 H   0  0  0  0  0  0
  -23.2845  -21.5098   25.4465 H   0  0  0  0  0  0
  -27.8277  -22.2463   25.2838 H   0  0  0  0  0  0
  -26.3825  -22.7235   25.8952 H   0  0  0  0  0  0
  -27.9918  -16.6920   23.4173 H   0  0  0  0  0  0
  -27.3567  -16.7778   21.7944 H   0  0  0  0  0  0
  -30.3587  -16.9905   22.4855 H   0  0  0  0  0  0
  -29.6959  -17.2540   20.8869 H   0  0  0  0  0  0
  -27.8109  -24.5577   24.9763 H   0  0  0  0  0  0
  -26.3219  -24.5813   24.0809 H   0  0  0  0  0  0
  -28.4825  -25.9121   23.0432 H   0  0  0  0  0  0
  -29.5699  -24.8822   22.1257 H   0  0  0  0  0  0
  -26.7266  -25.3958   21.2705 H   0  0  0  0  0  0
  -27.9177  -24.5353   20.3294 H   0  0  0  0  0  0
  -28.8955  -19.1240   22.4453 H   0  0  0  0  0  0
  -28.7797  -14.7738   21.7379 H   0  0  0  0  0  0
  -21.4268  -24.6677   23.8368 H   0  0  0  0  0  0
  -20.4997  -24.3075   25.1185 H   0  0  0  0  0  0
  -27.4729  -23.2688   22.3529 H   0  0  0  0  0  0
  -28.8159  -23.2871   23.2596 H   0  0  0  0  0  0
  1 25  1  0  0  0
  1 30  2  0  0  0
  1 89  1  0  0  0
  2  3  1  0  0  0
  2 25  1  0  0  0
  2 92  1  0  0  0
  2 93  1  0  0  0
  3  4  1  0  0  0
  3 94  1  0  0  0
  3 95  1  0  0  0
  4  5  1  0  0  0
  4 96  1  0  0  0
  4 97  1  0  0  0
  5  6  1  0  0  0
  5 26  1  0  0  0
  5 98  1  0  0  0
  6 25  1  0  0  0
  6 99  1  0  0  0
  6100  1  0  0  0
  7  8  2  0  0  0
  7 26  1  0  0  0
  7 29  1  0  0  0
  8  9  1  0  0  0
  8 22  1  0  0  0
  9 10  1  0  0  0
  9 27  2  0  0  0
 10 11  2  0  0  0
 10 15  1  0  0  0
 11 12  1  0  0  0
 11101  1  0  0  0
 12 13  2  0  0  0
 12102  1  0  0  0
 13 14  1  0  0  0
 13 31  1  0  0  0
 14 15  2  0  0  0
 14103  1  0  0  0
 15104  1  0  0  0
 16 17  2  0  0  0
 16 21  1  0  0  0
 16 31  1  0  0  0
 17 18  1  0  0  0
 17105  1  0  0  0
 18 19  2  0  0  0
 18106  1  0  0  0
 19 20  1  0  0  0
 19 24  1  0  0  0
 20 21  2  0  0  0
 20107  1  0  0  0
 21 23  1  0  0  0
 22 28  1  0  0  0
 22 32  2  0  0  0
 26 27  1  0  0  0
 28108  1  0  0  0
 28109  1  0  0  0
 29110  1  0  0  0
 29111  1  0  0  0
 33 34  1  0  0  0
 33 66  1  0  0  0
 33 70  2  0  0  0
 34 36  1  0  0  0
 34 59  1  0  0  0
 34112  1  0  0  0
 35 44  2  0  0  0
 35 45  1  0  0  0
 35 68  1  0  0  0
 36 56  1  0  0  0
 36113  1  0  0  0
 37 39  1  0  0  0
 37 47  1  0  0  0
 37 66  1  0  0  0
 37114  1  0  0  0
 38 43  2  0  0  0
 38 46  1  0  0  0
 38 47  1  0  0  0
 39 64  1  0  0  0
 39 67  2  0  0  0
 40 52  1  0  0  0
 40 53  2  0  0  0
 40 58  1  0  0  0
 41115  1  0  0  0
 41116  1  0  0  0
 41117  1  0  0  0
 41 48  1  0  0  0
 42 43  1  0  0  0
 42 66  1  0  0  0
 42118  1  0  0  0
 42119  1  0  0  0
 43 44  1  0  0  0
 44120  1  0  0  0
 45 46  2  0  0  0
 45121  1  0  0  0
 46122  1  0  0  0
 47123  1  0  0  0
 47124  1  0  0  0
 48 56  1  0  0  0
 48 65  1  0  0  0
 48125  1  0  0  0
 49 50  1  0  0  0
 49 53  1  0  0  0
 49 64  1  0  0  0
 49126  1  0  0  0
 50 51  1  0  0  0
 50127  1  0  0  0
 50128  1  0  0  0
 51 52  1  0  0  0
 51129  1  0  0  0
 51130  1  0  0  0
 52131  1  0  0  0
 52132  1  0  0  0
 53 54  1  0  0  0
 54 55  2  0  0  0
 54133  1  0  0  0
 55 57  1  0  0  0
 55134  1  0  0  0
 56 69  2  0  0  0
 57 58  2  0  0  0
 57135  1  0  0  0
 58136  1  0  0  0
 59 60  1  0  0  0
 59 61  1  0  0  0
 59 62  1  0  0  0
 60137  1  0  0  0
 60138  1  0  0  0
 60139  1  0  0  0
 61140  1  0  0  0
 61141  1  0  0  0
 61142  1  0  0  0
 62143  1  0  0  0
 62144  1  0  0  0
 62145  1  0  0  0
 63 65  1  0  0  0
 63146  1  0  0  0
 63147  1  0  0  0
 63148  1  0  0  0
 64149  1  0  0  0
 65150  1  0  0  0
 68 87  1  0  0  0
 71 72  2  0  0  0
 71 74  1  0  0  0
 71151  1  0  0  0
 72 76  1  0  0  0
 72152  1  0  0  0
 73 75  1  0  0  0
 73 76  2  0  0  0
 73153  1  0  0  0
 74 75  2  0  0  0
 74 81  1  0  0  0
 75 82  1  0  0  0
 76 88  1  0  0  0
 77 79  1  0  0  0
 77 81  1  0  0  0
 77154  1  0  0  0
 77155  1  0  0  0
 78 80  1  0  0  0
 78 81  1  0  0  0
 78156  1  0  0  0
 78157  1  0  0  0
 79 90  1  0  0  0
 79158  1  0  0  0
 79159  1  0  0  0
 80 90  1  0  0  0
 80160  1  0  0  0
 80161  1  0  0  0
 81162  1  0  0  0
 82 85  1  0  0  0
 82163  1  0  0  0
 82164  1  0  0  0
 83 84  1  0  0  0
 83 88  1  0  0  0
 83165  1  0  0  0
 83166  1  0  0  0
 84 89  1  0  0  0
 84167  1  0  0  0
 84168  1  0  0  0
 85 91  1  0  0  0
 85169  1  0  0  0
 85170  1  0  0  0
 86 87  1  0  0  0
 86 91  1  0  0  0
 86171  1  0  0  0
 86172  1  0  0  0
 87173  1  0  0  0
 87174  1  0  0  0
 88175  1  0  0  0
 89176  1  0  0  0
 90177  1  0  0  0
 90178  1  0  0  0
 91179  1  0  0  0
 91180  1  0  0  0
M  CHG  2  90   1  91   1
M  ISO  4   1 100  68 101  87 101  89 100
M  END
> <chiral flag>
0

> <version>
0

> <s_m_source_file>
/data/baiqing/PycharmProjects/Reinvent-master-3.2/result/LINK_invent/BTK/process_docking_weight1_custom_sum_contain_oxygen_bond_distance_aromatic_linkinvent_7_9_3/rearranged_h_0129.sdf

> <i_m_source_file_index>
6

> <r_mmod_Potential_Energy-OPLS-2005>
-226.77409362793

> <r_mmod_Stretch_Energy-OPLS-2005>
65.946403503418

> <r_mmod_Bend_Energy-OPLS-2005>
190.928359985352

> <r_mmod_Torsional_Energy-OPLS-2005>
275.843994140625

> <r_mmod_Improper_Torsional_Energy-OPLS-2005>
6.20060873031616

> <r_mmod_Van_der_Waal_Energy-OPLS-2005>
157.239318847656

> <r_mmod_Electrostatic_Energy-OPLS-2005>
-55.4147109985352

> <r_mmod_Solvation_Energy-OPLS-2005>
-926.307739257812

> <b_mmod_Minimization_Converged-OPLS-2005>
0

> <r_mmod_RMS_Derivative-OPLS-2005>
22.0314559936523

$$$$
6
                    3D
 Structure written by MMmdl.
164172  0  0  1  0            999 V2000
  -30.6499  -14.6247   20.4885 C   0  0  0  0  0  0
  -30.4249  -12.3834   19.4498 C   0  0  0  0  0  0
  -29.4999  -12.4952   18.2194 C   0  0  0  0  0  0
  -28.0238  -12.3392   18.6351 C   0  0  0  0  0  0
  -27.6469  -13.2210   19.8565 C   0  0  2  0  0  0
  -28.6923  -13.0998   20.9870 C   0  0  0  0  0  0
  -25.2533  -13.8183   20.5694 C   0  0  0  0  0  0
  -24.1810  -13.0440   20.9204 C   0  0  0  0  0  0
  -24.6386  -11.6913   20.8750 C   0  0  0  0  0  0
  -23.9061  -10.4293   21.0413 C   0  0  0  0  0  0
  -24.3614   -9.4209   21.9187 C   0  0  0  0  0  0
  -23.6293   -8.2243   22.0753 C   0  0  0  0  0  0
  -22.4275   -8.0282   21.3546 C   0  0  0  0  0  0
  -21.9913   -9.0254   20.4645 C   0  0  0  0  0  0
  -22.7238  -10.2135   20.3058 C   0  0  0  0  0  0
  -21.6852   -6.0736   22.5280 C   0  0  0  0  0  0
  -21.4012   -6.5638   23.8214 C   0  0  0  0  0  0
  -21.3659   -5.6791   24.9176 C   0  0  0  0  0  0
  -21.6045   -4.3054   24.7225 C   0  0  0  0  0  0
  -21.8818   -3.8146   23.4345 C   0  0  0  0  0  0
  -21.9192   -4.6964   22.3404 C   0  0  0  0  0  0
  -22.7835  -13.5230   21.1870 C   0  0  0  0  0  0
  -22.1660   -4.2149   21.0982 F   0  0  0  0  0  0
  -21.5630   -3.4538   25.7738 F   0  0  0  0  0  0
  -30.0031  -13.4219   20.4094 N   0  0  0  0  0  0
  -26.2957  -12.9371   20.3305 N   0  0  0  0  0  0
  -25.9315  -11.6521   20.5761 N   0  0  0  0  0  0
  -22.0476  -12.8215   22.0421 N   0  0  0  0  0  0
  -25.4240  -15.1906   20.4109 N   0  0  0  0  0  0
  -31.8320  -14.7364   20.1552 O   0  0  0  0  0  0
  -21.6640   -6.8879   21.4242 O   0  0  0  0  0  0
  -22.3521  -14.5541   20.6728 O   0  0  0  0  0  0
  -24.6239  -31.8595   23.2018 C   0  0  0  0  0  0
  -25.9097  -32.4773   23.8346 C   0  0  1  0  0  0
  -27.2315  -27.3374   20.1002 C   0  0  0  0  0  0
  -25.5928  -33.8579   24.2274 N   0  0  0  0  0  0
  -23.4155  -30.4823   21.5442 C   0  0  2  0  0  0
  -24.8600  -28.9328   20.1115 C   0  0  0  0  0  0
  -22.7454  -29.4625   22.4945 C   0  0  0  0  0  0
  -18.0283  -28.1377   22.8483 C   0  0  0  0  0  0
  -24.1491  -36.7289   23.2639 C   0  0  0  0  0  0
  -25.9535  -30.7941   21.3684 C   0  0  0  0  0  0
  -26.0264  -29.4217   20.7113 C   0  0  0  0  0  0
  -27.2098  -28.6320   20.7002 C   0  0  0  0  0  0
  -26.0303  -26.8736   19.5224 C   0  0  0  0  0  0
  -24.8613  -27.6610   19.5139 C   0  0  0  0  0  0
  -23.6283  -29.8131   20.1600 C   0  0  0  0  0  0
  -25.4117  -36.3077   24.0322 C   0  0  1  0  0  0
  -20.5875  -28.3678   23.1287 C   0  0  2  0  0  0
  -20.6775  -26.9406   22.5408 C   0  0  0  0  0  0
  -19.5756  -26.6378   21.5209 C   0  0  0  0  0  0
  -18.1930  -26.7922   22.1613 C   0  0  0  0  0  0
  -19.1533  -28.8845   23.2882 C   0  0  0  0  0  0
  -18.9462  -30.1449   23.8896 C   0  0  0  0  0  0
  -17.6463  -30.6583   24.0563 C   0  0  0  0  0  0
  -25.9053  -34.9448   23.5094 C   0  0  0  0  0  0
  -16.5355  -29.9078   23.6335 C   0  0  0  0  0  0
  -16.7269  -28.6495   23.0354 C   0  0  0  0  0  0
  -26.4487  -31.6587   25.0716 C   0  0  0  0  0  0
  -25.3735  -31.3711   26.1457 C   0  0  0  0  0  0
  -27.0335  -30.3019   24.6152 C   0  0  0  0  0  0
  -27.6047  -32.4332   25.7479 C   0  0  0  0  0  0
  -27.5578  -37.1801   24.8463 C   0  0  0  0  0  0
  -21.4171  -29.3037   22.3687 N   0  0  0  0  0  0
  -26.4292  -37.3778   23.9405 N   0  0  0  0  0  0
  -24.6829  -31.0619   22.0952 N   0  0  0  0  0  0
  -23.4183  -28.8173   23.3031 O   0  0  0  0  0  0
  -28.3886  -26.5510   20.1537 O   0  0  0  0  0  0
  -26.5617  -34.8914   22.4659 O   0  0  0  0  0  0
  -23.5410  -32.1388   23.7360 O   0  0  0  0  0  0
  -28.8694  -23.5370   21.0110 C   0  0  0  0  0  0
  -29.1710  -22.1838   21.3578 C   0  0  0  0  0  0
  -28.9198  -22.9174   18.6926 C   0  0  0  0  0  0
  -28.7706  -23.9534   19.6601 C   0  0  0  0  0  0
  -29.4037  -21.1710   20.3837 C   0  0  0  0  0  0
  -29.2303  -21.5617   19.0293 C   0  0  0  0  0  0
  -28.9618  -20.4932   16.7626 C   0  0  0  0  0  0
  -28.2733  -25.7190   17.7544 C   0  0  0  0  0  0
  -29.0409  -19.0266   14.8882 C   0  0  0  0  0  0
  -30.0565  -19.7974   20.7994 C   0  0  0  0  0  0
  -29.4026  -18.3721   20.5300 C   0  0  0  0  0  0
  -30.3959  -17.1568   20.8116 C   0  0  0  0  0  0
  -28.7226  -25.4685   19.2115 C   0  0  1  0  0  0
  -29.5054  -20.5941   18.0287 N   0  0  0  0  0  0
  -29.8958  -15.7388   20.7503 N   0  0  0  0  0  0
  -28.1675  -21.2655   16.2227 O   0  0  0  0  0  0
  -29.4472  -19.3839   16.2001 O   0  0  0  0  0  0
  -31.4684  -12.4924   19.1482 H   0  0  0  0  0  0
  -30.3465  -11.3943   19.9037 H   0  0  0  0  0  0
  -29.7616  -11.7367   17.4804 H   0  0  0  0  0  0
  -29.6457  -13.4608   17.7325 H   0  0  0  0  0  0
  -27.8619  -11.2878   18.8752 H   0  0  0  0  0  0
  -27.3680  -12.5618   17.7926 H   0  0  0  0  0  0
  -27.6591  -14.2525   19.5034 H   0  0  0  0  0  0
  -28.7010  -12.0900   21.4001 H   0  0  0  0  0  0
  -28.4474  -13.7652   21.8168 H   0  0  0  0  0  0
  -25.2757   -9.5686   22.4766 H   0  0  0  0  0  0
  -24.0001   -7.4634   22.7471 H   0  0  0  0  0  0
  -21.0844   -8.8774   19.8951 H   0  0  0  0  0  0
  -22.3698  -10.9675   19.6170 H   0  0  0  0  0  0
  -21.2003   -7.6144   23.9718 H   0  0  0  0  0  0
  -21.1483   -6.0520   25.9079 H   0  0  0  0  0  0
  -22.0597   -2.7609   23.2847 H   0  0  0  0  0  0
  -22.4084  -11.9865   22.4796 H   0  0  0  0  0  0
  -21.1096  -13.1243   22.2635 H   0  0  0  0  0  0
  -24.6566  -15.8443   20.5234 H   0  0  0  0  0  0
  -26.2702  -15.6317   20.0741 H   0  0  0  0  0  0
  -26.7161  -32.5442   23.1092 H   0  0  0  0  0  0
  -25.0116  -33.9731   25.0443 H   0  0  0  0  0  0
  -22.7093  -31.3025   21.4014 H   0  0  0  0  0  0
  -23.3754  -35.9622   23.3300 H   0  0  0  0  0  0
  -24.3583  -36.8913   22.2056 H   0  0  0  0  0  0
  -23.7242  -37.6486   23.6668 H   0  0  0  0  0  0
  -26.0836  -31.5581   20.6008 H   0  0  0  0  0  0
  -26.8346  -30.8416   21.9971 H   0  0  0  0  0  0
  -28.1085  -29.0062   21.1704 H   0  0  0  0  0  0
  -25.9686  -25.8789   19.1100 H   0  0  0  0  0  0
  -23.9580  -27.2687   19.0668 H   0  0  0  0  0  0
  -23.7466  -30.5885   19.4020 H   0  0  0  0  0  0
  -22.7475  -29.2428   19.8594 H   0  0  0  0  0  0
  -25.1299  -36.1925   25.0812 H   0  0  0  0  0  0
  -20.9971  -28.3252   24.1405 H   0  0  0  0  0  0
  -20.5681  -26.2285   23.3601 H   0  0  0  0  0  0
  -21.6646  -26.7442   22.1203 H   0  0  0  0  0  0
  -19.6920  -25.6288   21.1243 H   0  0  0  0  0  0
  -19.6698  -27.3190   20.6741 H   0  0  0  0  0  0
  -17.4202  -26.6675   21.4011 H   0  0  0  0  0  0
  -18.0329  -26.0057   22.9000 H   0  0  0  0  0  0
  -19.7940  -30.7272   24.2257 H   0  0  0  0  0  0
  -17.5017  -31.6265   24.5161 H   0  0  0  0  0  0
  -15.5360  -30.2987   23.7657 H   0  0  0  0  0  0
  -15.8662  -28.0822   22.7067 H   0  0  0  0  0  0
  -24.5923  -30.7031   25.7801 H   0  0  0  0  0  0
  -24.8909  -32.2871   26.4882 H   0  0  0  0  0  0
  -25.8081  -30.8907   27.0232 H   0  0  0  0  0  0
  -26.2899  -29.6765   24.1196 H   0  0  0  0  0  0
  -27.4073  -29.7275   25.4639 H   0  0  0  0  0  0
  -27.8747  -30.4323   23.9338 H   0  0  0  0  0  0
  -27.2657  -33.3646   26.2028 H   0  0  0  0  0  0
  -28.3863  -32.6874   25.0305 H   0  0  0  0  0  0
  -28.0707  -31.8478   26.5416 H   0  0  0  0  0  0
  -28.2592  -38.0103   24.7520 H   0  0  0  0  0  0
  -28.1079  -36.2634   24.6282 H   0  0  0  0  0  0
  -27.2295  -37.1437   25.8867 H   0  0  0  0  0  0
  -20.9344  -29.8751   21.6893 H   0  0  0  0  0  0
  -26.0166  -38.2843   24.1425 H   0  0  0  0  0  0
  -28.7884  -24.2759   21.7964 H   0  0  0  0  0  0
  -29.3085  -21.9456   22.4034 H   0  0  0  0  0  0
  -28.8862  -23.1870   17.6498 H   0  0  0  0  0  0
  -28.9787  -25.2895   17.0435 H   0  0  0  0  0  0
  -28.2307  -26.7848   17.5302 H   0  0  0  0  0  0
  -27.2994  -25.2829   17.5379 H   0  0  0  0  0  0
  -29.5431  -18.1092   14.5807 H   0  0  0  0  0  0
  -29.2962  -19.8088   14.1726 H   0  0  0  0  0  0
  -27.9648  -18.8541   14.8478 H   0  0  0  0  0  0
  -30.2765  -19.8528   21.8662 H   0  0  0  0  0  0
  -31.0385  -19.7963   20.3254 H   0  0  0  0  0  0
  -29.0637  -18.3107   19.4962 H   0  0  0  0  0  0
  -28.5087  -18.2715   21.1459 H   0  0  0  0  0  0
  -30.8216  -17.2878   21.8071 H   0  0  0  0  0  0
  -31.2380  -17.2555   20.1239 H   0  0  0  0  0  0
  -29.7948  -25.6587   19.1450 H   0  0  0  0  0  0
  -30.0741  -19.8024   18.2924 H   0  0  0  0  0  0
  -28.9206  -15.5818   20.9566 H   0  0  0  0  0  0
  1 25  1  0  0  0
  1 30  2  0  0  0
  1 85  1  0  0  0
  2  3  1  0  0  0
  2 25  1  0  0  0
  2 88  1  0  0  0
  2 89  1  0  0  0
  3  4  1  0  0  0
  3 90  1  0  0  0
  3 91  1  0  0  0
  4  5  1  0  0  0
  4 92  1  0  0  0
  4 93  1  0  0  0
  5  6  1  0  0  0
  5 26  1  0  0  0
  5 94  1  0  0  0
  6 25  1  0  0  0
  6 95  1  0  0  0
  6 96  1  0  0  0
  7  8  2  0  0  0
  7 26  1  0  0  0
  7 29  1  0  0  0
  8  9  1  0  0  0
  8 22  1  0  0  0
  9 10  1  0  0  0
  9 27  2  0  0  0
 10 11  2  0  0  0
 10 15  1  0  0  0
 11 12  1  0  0  0
 11 97  1  0  0  0
 12 13  2  0  0  0
 12 98  1  0  0  0
 13 14  1  0  0  0
 13 31  1  0  0  0
 14 15  2  0  0  0
 14 99  1  0  0  0
 15100  1  0  0  0
 16 17  2  0  0  0
 16 21  1  0  0  0
 16 31  1  0  0  0
 17 18  1  0  0  0
 17101  1  0  0  0
 18 19  2  0  0  0
 18102  1  0  0  0
 19 20  1  0  0  0
 19 24  1  0  0  0
 20 21  2  0  0  0
 20103  1  0  0  0
 21 23  1  0  0  0
 22 28  1  0  0  0
 22 32  2  0  0  0
 26 27  1  0  0  0
 28104  1  0  0  0
 28105  1  0  0  0
 29106  1  0  0  0
 29107  1  0  0  0
 33 34  1  0  0  0
 33 66  1  0  0  0
 33 70  2  0  0  0
 34 36  1  0  0  0
 34 59  1  0  0  0
 34108  1  0  0  0
 35 44  2  0  0  0
 35 45  1  0  0  0
 35 68  1  0  0  0
 36 56  1  0  0  0
 36109  1  0  0  0
 37 39  1  0  0  0
 37 47  1  0  0  0
 37 66  1  0  0  0
 37110  1  0  0  0
 38 43  2  0  0  0
 38 46  1  0  0  0
 38 47  1  0  0  0
 39 64  1  0  0  0
 39 67  2  0  0  0
 40 52  1  0  0  0
 40 53  2  0  0  0
 40 58  1  0  0  0
 41111  1  0  0  0
 41112  1  0  0  0
 41113  1  0  0  0
 41 48  1  0  0  0
 42 43  1  0  0  0
 42 66  1  0  0  0
 42114  1  0  0  0
 42115  1  0  0  0
 43 44  1  0  0  0
 44116  1  0  0  0
 45 46  2  0  0  0
 45117  1  0  0  0
 46118  1  0  0  0
 47119  1  0  0  0
 47120  1  0  0  0
 48 56  1  0  0  0
 48 65  1  0  0  0
 48121  1  0  0  0
 49 50  1  0  0  0
 49 53  1  0  0  0
 49 64  1  0  0  0
 49122  1  0  0  0
 50 51  1  0  0  0
 50123  1  0  0  0
 50124  1  0  0  0
 51 52  1  0  0  0
 51125  1  0  0  0
 51126  1  0  0  0
 52127  1  0  0  0
 52128  1  0  0  0
 53 54  1  0  0  0
 54 55  2  0  0  0
 54129  1  0  0  0
 55 57  1  0  0  0
 55130  1  0  0  0
 56 69  2  0  0  0
 57 58  2  0  0  0
 57131  1  0  0  0
 58132  1  0  0  0
 59 60  1  0  0  0
 59 61  1  0  0  0
 59 62  1  0  0  0
 60133  1  0  0  0
 60134  1  0  0  0
 60135  1  0  0  0
 61136  1  0  0  0
 61137  1  0  0  0
 61138  1  0  0  0
 62139  1  0  0  0
 62140  1  0  0  0
 62141  1  0  0  0
 63 65  1  0  0  0
 63142  1  0  0  0
 63143  1  0  0  0
 63144  1  0  0  0
 64145  1  0  0  0
 65146  1  0  0  0
 68 83  1  0  0  0
 71 72  2  0  0  0
 71 74  1  0  0  0
 71147  1  0  0  0
 72 75  1  0  0  0
 72148  1  0  0  0
 73 74  2  0  0  0
 73 76  1  0  0  0
 73149  1  0  0  0
 74 83  1  0  0  0
 75 76  2  0  0  0
 75 80  1  0  0  0
 76 84  1  0  0  0
 77 84  1  0  0  0
 77 86  2  0  0  0
 77 87  1  0  0  0
 78150  1  0  0  0
 78151  1  0  0  0
 78152  1  0  0  0
 78 83  1  0  0  0
 79 87  1  0  0  0
 79153  1  0  0  0
 79154  1  0  0  0
 79155  1  0  0  0
 80 81  1  0  0  0
 80156  1  0  0  0
 80157  1  0  0  0
 81 82  1  0  0  0
 81158  1  0  0  0
 81159  1  0  0  0
 82 85  1  0  0  0
 82160  1  0  0  0
 82161  1  0  0  0
 83162  1  0  0  0
 84163  1  0  0  0
 85164  1  0  0  0
M  ISO  4   1 100  68 101  83 101  85 100
M  END
> <chiral flag>
0

> <version>
0

> <s_m_source_file>
/data/baiqing/PycharmProjects/Reinvent-master-3.2/result/LINK_invent/BTK/process_docking_weight1_custom_sum_contain_oxygen_bond_distance_aromatic_linkinvent_7_9_3/rearranged_h_0129.sdf

> <i_m_source_file_index>
7

> <r_mmod_Potential_Energy-OPLS-2005>
-18.5027809143066

> <r_mmod_Stretch_Energy-OPLS-2005>
77.5100631713867

> <r_mmod_Bend_Energy-OPLS-2005>
173.602493286133

> <r_mmod_Torsional_Energy-OPLS-2005>
235.070907592773

> <r_mmod_Improper_Torsional_Energy-OPLS-2005>
7.39134359359741

> <r_mmod_Van_der_Waal_Energy-OPLS-2005>
149.061004638672

> <r_mmod_Electrostatic_Energy-OPLS-2005>
-483.227844238281

> <r_mmod_Solvation_Energy-OPLS-2005>
-220.676635742188

> <b_mmod_Minimization_Converged-OPLS-2005>
0

> <r_mmod_RMS_Derivative-OPLS-2005>
0.803829610347748

$$$$
7
                    3D
 Structure written by MMmdl.
160168  0  0  1  0            999 V2000
  -30.5264  -15.0107   20.3792 C   0  0  0  0  0  0
  -30.4393  -12.6285   19.4898 C   0  0  0  0  0  0
  -29.5272  -12.5597   18.2440 C   0  0  0  0  0  0
  -28.0599  -12.3282   18.6568 C   0  0  0  0  0  0
  -27.6266  -13.2512   19.8269 C   0  0  2  0  0  0
  -28.6715  -13.3101   20.9586 C   0  0  0  0  0  0
  -25.2485  -13.8216   20.5705 C   0  0  0  0  0  0
  -24.1785  -13.0423   20.9206 C   0  0  0  0  0  0
  -24.6400  -11.6930   20.8703 C   0  0  0  0  0  0
  -23.9068  -10.4291   21.0381 C   0  0  0  0  0  0
  -24.3629   -9.4219   21.9162 C   0  0  0  0  0  0
  -23.6304   -8.2254   22.0765 C   0  0  0  0  0  0
  -22.4293   -8.0278   21.3553 C   0  0  0  0  0  0
  -21.9911   -9.0243   20.4656 C   0  0  0  0  0  0
  -22.7235  -10.2127   20.3047 C   0  0  0  0  0  0
  -21.6848   -6.0724   22.5280 C   0  0  0  0  0  0
  -21.4006   -6.5631   23.8216 C   0  0  0  0  0  0
  -21.3661   -5.6788   24.9185 C   0  0  0  0  0  0
  -21.6050   -4.3058   24.7244 C   0  0  0  0  0  0
  -21.8815   -3.8143   23.4368 C   0  0  0  0  0  0
  -21.9191   -4.6948   22.3418 C   0  0  0  0  0  0
  -22.7809  -13.5221   21.1849 C   0  0  0  0  0  0
  -22.1667   -4.2155   21.0994 F   0  0  0  0  0  0
  -21.5650   -3.4539   25.7750 F   0  0  0  0  0  0
  -29.9314  -13.7427   20.3412 N   0  0  0  0  0  0
  -26.2880  -12.9419   20.3172 N   0  0  0  0  0  0
  -25.9331  -11.6555   20.5668 N   0  0  0  0  0  0
  -22.0428  -12.8218   22.0396 N   0  0  0  0  0  0
  -25.4138  -15.1955   20.4200 N   0  0  0  0  0  0
  -31.7478  -15.0485   20.1968 O   0  0  0  0  0  0
  -21.6657   -6.8880   21.4255 O   0  0  0  0  0  0
  -22.3478  -14.5494   20.6670 O   0  0  0  0  0  0
  -24.6524  -31.8377   23.1833 C   0  0  0  0  0  0
  -25.9252  -32.4672   23.8263 C   0  0  1  0  0  0
  -27.2052  -27.0803   20.1585 C   0  0  0  0  0  0
  -25.5993  -33.8490   24.2162 N   0  0  0  0  0  0
  -23.4554  -30.4548   21.5322 C   0  0  2  0  0  0
  -24.9001  -28.8668   20.1202 C   0  0  0  0  0  0
  -22.7603  -29.4503   22.4857 C   0  0  0  0  0  0
  -18.0318  -28.1361   22.8469 C   0  0  0  0  0  0
  -24.1495  -36.7257   23.2633 C   0  0  0  0  0  0
  -26.0180  -30.6937   21.3888 C   0  0  0  0  0  0
  -26.0834  -29.3001   20.7307 C   0  0  0  0  0  0
  -27.2402  -28.4259   20.7245 C   0  0  0  0  0  0
  -25.9938  -26.7547   19.5201 C   0  0  0  0  0  0
  -24.8691  -27.6071   19.4991 C   0  0  0  0  0  0
  -23.6834  -29.7770   20.1549 C   0  0  0  0  0  0
  -25.4128  -36.3016   24.0301 C   0  0  1  0  0  0
  -20.5929  -28.3699   23.1222 C   0  0  2  0  0  0
  -20.6786  -26.9394   22.5403 C   0  0  0  0  0  0
  -19.5766  -26.6332   21.5207 C   0  0  0  0  0  0
  -18.1949  -26.7901   22.1608 C   0  0  0  0  0  0
  -19.1569  -28.8853   23.2830 C   0  0  0  0  0  0
  -18.9483  -30.1458   23.8846 C   0  0  0  0  0  0
  -17.6473  -30.6564   24.0529 C   0  0  0  0  0  0
  -25.9088  -34.9406   23.5024 C   0  0  0  0  0  0
  -16.5362  -29.9046   23.6329 C   0  0  0  0  0  0
  -16.7301  -28.6460   23.0356 C   0  0  0  0  0  0
  -26.4514  -31.6589   25.0762 C   0  0  0  0  0  0
  -25.3681  -31.3852   26.1453 C   0  0  0  0  0  0
  -27.0372  -30.2956   24.6442 C   0  0  0  0  0  0
  -27.6021  -32.4386   25.7582 C   0  0  0  0  0  0
  -27.5576  -37.1792   24.8444 C   0  0  0  0  0  0
  -21.4290  -29.3026   22.3605 N   0  0  0  0  0  0
  -26.4279  -37.3740   23.9395 N   0  0  0  0  0  0
  -24.7291  -31.0184   22.0887 N   0  0  0  0  0  0
  -23.4224  -28.8053   23.3023 O   0  0  0  0  0  0
  -28.2528  -26.0785   20.1631 O   0  0  0  0  0  0
  -26.5672  -34.8905   22.4600 O   0  0  0  0  0  0
  -23.5628  -32.1267   23.7025 O   0  0  0  0  0  0
  -29.1873  -20.4891   20.5704 C   0  0  0  0  0  0
  -29.1924  -20.8200   18.4446 C   0  0  0  0  0  0
  -28.9972  -21.5980   19.5746 C   0  0  0  0  0  0
  -29.5282  -19.1883   20.0481 C   0  0  0  0  0  0
  -28.3801  -23.6295   17.9916 C   0  0  0  0  0  0
  -31.3139  -18.6255   17.1975 C   0  0  0  0  0  0
  -28.8934  -18.5634   16.4182 C   0  0  0  0  0  0
  -30.1403  -17.7487   20.6502 C   0  0  0  0  0  0
  -28.0348  -24.5168   20.3465 C   0  0  0  0  0  0
  -28.8199  -23.3041   19.4486 C   0  0  1  0  0  0
  -29.8434  -18.4923   17.6270 C   0  0  0  0  0  0
  -29.4996  -19.4594   18.6809 N   0  0  0  0  0  0
  -29.7515  -16.2194   20.4149 N   0  0  0  0  0  0
  -31.4778  -12.7857   19.1933 H   0  0  0  0  0  0
  -30.4277  -11.6814   20.0319 H   0  0  0  0  0  0
  -29.8610  -11.7794   17.5583 H   0  0  0  0  0  0
  -29.6111  -13.5015   17.6988 H   0  0  0  0  0  0
  -27.9508  -11.2798   18.9402 H   0  0  0  0  0  0
  -27.4115  -12.4833   17.7931 H   0  0  0  0  0  0
  -27.5761  -14.2484   19.3884 H   0  0  0  0  0  0
  -28.7812  -12.3373   21.4455 H   0  0  0  0  0  0
  -28.3598  -14.0161   21.7305 H   0  0  0  0  0  0
  -25.2786   -9.5719   22.4727 H   0  0  0  0  0  0
  -24.0021   -7.4646   22.7493 H   0  0  0  0  0  0
  -21.0844   -8.8744   19.8962 H   0  0  0  0  0  0
  -22.3674  -10.9650   19.6164 H   0  0  0  0  0  0
  -21.1978   -7.6146   23.9734 H   0  0  0  0  0  0
  -21.1492   -6.0519   25.9085 H   0  0  0  0  0  0
  -22.0590   -2.7606   23.2883 H   0  0  0  0  0  0
  -22.4036  -11.9905   22.4839 H   0  0  0  0  0  0
  -21.1054  -13.1290   22.2572 H   0  0  0  0  0  0
  -24.6421  -15.8450   20.5342 H   0  0  0  0  0  0
  -26.2524  -15.6419   20.0720 H   0  0  0  0  0  0
  -26.7355  -32.5228   23.1023 H   0  0  0  0  0  0
  -25.0145  -33.9607   25.0317 H   0  0  0  0  0  0
  -22.7631  -31.2832   21.3699 H   0  0  0  0  0  0
  -23.3764  -35.9575   23.3246 H   0  0  0  0  0  0
  -24.3561  -36.8950   22.2053 H   0  0  0  0  0  0
  -23.7260  -37.6442   23.6710 H   0  0  0  0  0  0
  -26.1865  -31.4458   20.6163 H   0  0  0  0  0  0
  -26.8854  -30.7393   22.0364 H   0  0  0  0  0  0
  -28.1477  -28.7590   21.2099 H   0  0  0  0  0  0
  -25.8984  -25.7893   19.0435 H   0  0  0  0  0  0
  -23.9653  -27.2599   19.0158 H   0  0  0  0  0  0
  -23.8344  -30.5459   19.3979 H   0  0  0  0  0  0
  -22.7979  -29.2239   19.8368 H   0  0  0  0  0  0
  -25.1326  -36.1815   25.0800 H   0  0  0  0  0  0
  -21.0024  -28.3275   24.1332 H   0  0  0  0  0  0
  -20.5642  -26.2319   23.3623 H   0  0  0  0  0  0
  -21.6656  -26.7357   22.1221 H   0  0  0  0  0  0
  -19.6918  -25.6222   21.1280 H   0  0  0  0  0  0
  -19.6712  -27.3103   20.6703 H   0  0  0  0  0  0
  -17.4223  -26.6668   21.4002 H   0  0  0  0  0  0
  -18.0329  -26.0035   22.8995 H   0  0  0  0  0  0
  -19.7949  -30.7290   24.2185 H   0  0  0  0  0  0
  -17.5010  -31.6234   24.5124 H   0  0  0  0  0  0
  -15.5355  -30.2918   23.7648 H   0  0  0  0  0  0
  -15.8707  -28.0738   22.7107 H   0  0  0  0  0  0
  -24.5836  -30.7209   25.7790 H   0  0  0  0  0  0
  -24.8902  -32.3079   26.4781 H   0  0  0  0  0  0
  -25.7950  -30.9096   27.0297 H   0  0  0  0  0  0
  -26.3007  -29.6704   24.1383 H   0  0  0  0  0  0
  -27.3815  -29.7256   25.5084 H   0  0  0  0  0  0
  -27.8994  -30.4111   23.9870 H   0  0  0  0  0  0
  -27.2553  -33.3676   26.2121 H   0  0  0  0  0  0
  -28.3882  -32.6986   25.0485 H   0  0  0  0  0  0
  -28.0638  -31.8563   26.5564 H   0  0  0  0  0  0
  -28.2569  -38.0115   24.7509 H   0  0  0  0  0  0
  -28.1110  -36.2649   24.6247 H   0  0  0  0  0  0
  -27.2294  -37.1410   25.8848 H   0  0  0  0  0  0
  -20.9513  -29.8793   21.6830 H   0  0  0  0  0  0
  -26.0131  -38.2797   24.1414 H   0  0  0  0  0  0
  -29.1600  -20.6581   21.6387 H   0  0  0  0  0  0
  -29.1993  -21.1477   17.4148 H   0  0  0  0  0  0
  -29.1731  -23.4391   17.2651 H   0  0  0  0  0  0
  -28.1062  -24.6800   17.8621 H   0  0  0  0  0  0
  -27.5008  -23.0529   17.6897 H   0  0  0  0  0  0
  -31.9862  -18.4335   18.0306 H   0  0  0  0  0  0
  -31.5346  -19.6190   16.8163 H   0  0  0  0  0  0
  -31.5634  -17.9057   16.4172 H   0  0  0  0  0  0
  -29.1382  -17.7929   15.6853 H   0  0  0  0  0  0
  -28.9462  -19.5181   15.8966 H   0  0  0  0  0  0
  -27.8619  -18.4002   16.7283 H   0  0  0  0  0  0
  -30.1067  -17.8513   21.7357 H   0  0  0  0  0  0
  -31.2059  -17.7670   20.4169 H   0  0  0  0  0  0
  -28.2795  -24.3276   21.3921 H   0  0  0  0  0  0
  -26.9680  -24.3015   20.2990 H   0  0  0  0  0  0
  -29.8606  -23.6241   19.5265 H   0  0  0  0  0  0
  -29.7183  -17.4920   18.0394 H   0  0  0  0  0  0
  -28.7581  -16.0581   20.4537 H   0  0  0  0  0  0
  1 25  1  0  0  0
  1 30  2  0  0  0
  1 83  1  0  0  0
  2  3  1  0  0  0
  2 25  1  0  0  0
  2 84  1  0  0  0
  2 85  1  0  0  0
  3  4  1  0  0  0
  3 86  1  0  0  0
  3 87  1  0  0  0
  4  5  1  0  0  0
  4 88  1  0  0  0
  4 89  1  0  0  0
  5  6  1  0  0  0
  5 26  1  0  0  0
  5 90  1  0  0  0
  6 25  1  0  0  0
  6 91  1  0  0  0
  6 92  1  0  0  0
  7  8  2  0  0  0
  7 26  1  0  0  0
  7 29  1  0  0  0
  8  9  1  0  0  0
  8 22  1  0  0  0
  9 10  1  0  0  0
  9 27  2  0  0  0
 10 11  2  0  0  0
 10 15  1  0  0  0
 11 12  1  0  0  0
 11 93  1  0  0  0
 12 13  2  0  0  0
 12 94  1  0  0  0
 13 14  1  0  0  0
 13 31  1  0  0  0
 14 15  2  0  0  0
 14 95  1  0  0  0
 15 96  1  0  0  0
 16 17  2  0  0  0
 16 21  1  0  0  0
 16 31  1  0  0  0
 17 18  1  0  0  0
 17 97  1  0  0  0
 18 19  2  0  0  0
 18 98  1  0  0  0
 19 20  1  0  0  0
 19 24  1  0  0  0
 20 21  2  0  0  0
 20 99  1  0  0  0
 21 23  1  0  0  0
 22 28  1  0  0  0
 22 32  2  0  0  0
 26 27  1  0  0  0
 28100  1  0  0  0
 28101  1  0  0  0
 29102  1  0  0  0
 29103  1  0  0  0
 33 34  1  0  0  0
 33 66  1  0  0  0
 33 70  2  0  0  0
 34 36  1  0  0  0
 34 59  1  0  0  0
 34104  1  0  0  0
 35 44  2  0  0  0
 35 45  1  0  0  0
 35 68  1  0  0  0
 36 56  1  0  0  0
 36105  1  0  0  0
 37 39  1  0  0  0
 37 47  1  0  0  0
 37 66  1  0  0  0
 37106  1  0  0  0
 38 43  2  0  0  0
 38 46  1  0  0  0
 38 47  1  0  0  0
 39 64  1  0  0  0
 39 67  2  0  0  0
 40 52  1  0  0  0
 40 53  2  0  0  0
 40 58  1  0  0  0
 41107  1  0  0  0
 41108  1  0  0  0
 41109  1  0  0  0
 41 48  1  0  0  0
 42 43  1  0  0  0
 42 66  1  0  0  0
 42110  1  0  0  0
 42111  1  0  0  0
 43 44  1  0  0  0
 44112  1  0  0  0
 45 46  2  0  0  0
 45113  1  0  0  0
 46114  1  0  0  0
 47115  1  0  0  0
 47116  1  0  0  0
 48 56  1  0  0  0
 48 65  1  0  0  0
 48117  1  0  0  0
 49 50  1  0  0  0
 49 53  1  0  0  0
 49 64  1  0  0  0
 49118  1  0  0  0
 50 51  1  0  0  0
 50119  1  0  0  0
 50120  1  0  0  0
 51 52  1  0  0  0
 51121  1  0  0  0
 51122  1  0  0  0
 52123  1  0  0  0
 52124  1  0  0  0
 53 54  1  0  0  0
 54 55  2  0  0  0
 54125  1  0  0  0
 55 57  1  0  0  0
 55126  1  0  0  0
 56 69  2  0  0  0
 57 58  2  0  0  0
 57127  1  0  0  0
 58128  1  0  0  0
 59 60  1  0  0  0
 59 61  1  0  0  0
 59 62  1  0  0  0
 60129  1  0  0  0
 60130  1  0  0  0
 60131  1  0  0  0
 61132  1  0  0  0
 61133  1  0  0  0
 61134  1  0  0  0
 62135  1  0  0  0
 62136  1  0  0  0
 62137  1  0  0  0
 63 65  1  0  0  0
 63138  1  0  0  0
 63139  1  0  0  0
 63140  1  0  0  0
 64141  1  0  0  0
 65142  1  0  0  0
 68 79  1  0  0  0
 71 73  1  0  0  0
 71 74  2  0  0  0
 71143  1  0  0  0
 72 73  2  0  0  0
 72 82  1  0  0  0
 72144  1  0  0  0
 73 80  1  0  0  0
 74 78  1  0  0  0
 74 82  1  0  0  0
 75145  1  0  0  0
 75146  1  0  0  0
 75147  1  0  0  0
 75 80  1  0  0  0
 76148  1  0  0  0
 76149  1  0  0  0
 76150  1  0  0  0
 76 81  1  0  0  0
 77 81  1  0  0  0
 77151  1  0  0  0
 77152  1  0  0  0
 77153  1  0  0  0
 78 83  1  0  0  0
 78154  1  0  0  0
 78155  1  0  0  0
 79 80  1  0  0  0
 79156  1  0  0  0
 79157  1  0  0  0
 80158  1  0  0  0
 81 82  1  0  0  0
 81159  1  0  0  0
 83160  1  0  0  0
M  ISO  4   1 100  68 101  79 101  83 100
M  END
> <chiral flag>
0

> <version>
0

> <s_m_source_file>
/data/baiqing/PycharmProjects/Reinvent-master-3.2/result/LINK_invent/BTK/process_docking_weight1_custom_sum_contain_oxygen_bond_distance_aromatic_linkinvent_7_9_3/rearranged_h_0129.sdf

> <i_m_source_file_index>
8

> <r_mmod_Potential_Energy-OPLS-2005>
641.764404296875

> <r_mmod_Stretch_Energy-OPLS-2005>
325.745727539062

> <r_mmod_Bend_Energy-OPLS-2005>
343.281372070312

> <r_mmod_Torsional_Energy-OPLS-2005>
254.475982666016

> <r_mmod_Improper_Torsional_Energy-OPLS-2005>
6.98159646987915

> <r_mmod_Van_der_Waal_Energy-OPLS-2005>
108.641242980957

> <r_mmod_Electrostatic_Energy-OPLS-2005>
-431.981231689453

> <r_mmod_Solvation_Energy-OPLS-2005>
-205.339752197266

> <b_mmod_Minimization_Converged-OPLS-2005>
0

> <r_mmod_RMS_Derivative-OPLS-2005>
4.7935962677002

$$$$
8
                    3D
 Structure written by MMmdl.
166174  0  0  1  0            999 V2000
  -30.6888  -14.5273   20.4855 C   0  0  0  0  0  0
  -30.4227  -12.3223   19.4340 C   0  0  0  0  0  0
  -29.4991  -12.4952   18.2107 C   0  0  0  0  0  0
  -28.0202  -12.3641   18.6242 C   0  0  0  0  0  0
  -27.6578  -13.2203   19.8686 C   0  0  2  0  0  0
  -28.7067  -13.0446   20.9936 C   0  0  0  0  0  0
  -25.2562  -13.8181   20.5741 C   0  0  0  0  0  0
  -24.1840  -13.0445   20.9231 C   0  0  0  0  0  0
  -24.6428  -11.6929   20.8781 C   0  0  0  0  0  0
  -23.9105  -10.4300   21.0440 C   0  0  0  0  0  0
  -24.3645   -9.4198   21.9193 C   0  0  0  0  0  0
  -23.6306   -8.2241   22.0765 C   0  0  0  0  0  0
  -22.4286   -8.0294   21.3564 C   0  0  0  0  0  0
  -21.9938   -9.0287   20.4672 C   0  0  0  0  0  0
  -22.7286  -10.2151   20.3076 C   0  0  0  0  0  0
  -21.6842   -6.0748   22.5291 C   0  0  0  0  0  0
  -21.4025   -6.5660   23.8225 C   0  0  0  0  0  0
  -21.3649   -5.6804   24.9175 C   0  0  0  0  0  0
  -21.6024   -4.3053   24.7221 C   0  0  0  0  0  0
  -21.8818   -3.8158   23.4343 C   0  0  0  0  0  0
  -21.9200   -4.6985   22.3409 C   0  0  0  0  0  0
  -22.7849  -13.5237   21.1838 C   0  0  0  0  0  0
  -22.1665   -4.2182   21.0982 F   0  0  0  0  0  0
  -21.5614   -3.4535   25.7726 F   0  0  0  0  0  0
  -30.0282  -13.3395   20.4231 N   0  0  0  0  0  0
  -26.3013  -12.9395   20.3371 N   0  0  0  0  0  0
  -25.9358  -11.6538   20.5806 N   0  0  0  0  0  0
  -22.0471  -12.8264   22.0404 N   0  0  0  0  0  0
  -25.4172  -15.1905   20.4163 N   0  0  0  0  0  0
  -31.8643  -14.6379   20.1278 O   0  0  0  0  0  0
  -21.6636   -6.8903   21.4259 O   0  0  0  0  0  0
  -22.3545  -14.5541   20.6659 O   0  0  0  0  0  0
  -24.6164  -31.8653   23.2073 C   0  0  0  0  0  0
  -25.9059  -32.4805   23.8378 C   0  0  1  0  0  0
  -27.2228  -27.4083   20.1159 C   0  0  0  0  0  0
  -25.5908  -33.8599   24.2295 N   0  0  0  0  0  0
  -23.4041  -30.4925   21.5449 C   0  0  2  0  0  0
  -24.8498  -28.9542   20.1121 C   0  0  0  0  0  0
  -22.7433  -29.4660   22.4940 C   0  0  0  0  0  0
  -18.0284  -28.1411   22.8491 C   0  0  0  0  0  0
  -24.1470  -36.7317   23.2639 C   0  0  0  0  0  0
  -25.9355  -30.8276   21.3639 C   0  0  0  0  0  0
  -26.0122  -29.4619   20.7099 C   0  0  0  0  0  0
  -27.2039  -28.6986   20.7015 C   0  0  0  0  0  0
  -26.0474  -26.9220   19.5073 C   0  0  0  0  0  0
  -24.8656  -27.6891   19.5033 C   0  0  0  0  0  0
  -23.6150  -29.8263   20.1587 C   0  0  0  0  0  0
  -25.4093  -36.3095   24.0336 C   0  0  1  0  0  0
  -20.5874  -28.3704   23.1307 C   0  0  2  0  0  0
  -20.6763  -26.9439   22.5412 C   0  0  0  0  0  0
  -19.5731  -26.6409   21.5224 C   0  0  0  0  0  0
  -18.1912  -26.7945   22.1625 C   0  0  0  0  0  0
  -19.1532  -28.8870   23.2893 C   0  0  0  0  0  0
  -18.9452  -30.1472   23.8910 C   0  0  0  0  0  0
  -17.6456  -30.6591   24.0596 C   0  0  0  0  0  0
  -25.9028  -34.9462   23.5090 C   0  0  0  0  0  0
  -16.5344  -29.9103   23.6355 C   0  0  0  0  0  0
  -16.7281  -28.6529   23.0349 C   0  0  0  0  0  0
  -26.4484  -31.6626   25.0735 C   0  0  0  0  0  0
  -25.3760  -31.3789   26.1508 C   0  0  0  0  0  0
  -27.0334  -30.3054   24.6188 C   0  0  0  0  0  0
  -27.6021  -32.4390   25.7512 C   0  0  0  0  0  0
  -27.5576  -37.1811   24.8456 C   0  0  0  0  0  0
  -21.4150  -29.3035   22.3682 N   0  0  0  0  0  0
  -26.4266  -37.3798   23.9418 N   0  0  0  0  0  0
  -24.6690  -31.0780   22.0974 N   0  0  0  0  0  0
  -23.4195  -28.8227   23.2993 O   0  0  0  0  0  0
  -28.3665  -26.6346   20.1290 O   0  0  0  0  0  0
  -26.5590  -34.8918   22.4664 O   0  0  0  0  0  0
  -23.5351  -32.1365   23.7507 O   0  0  0  0  0  0
  -29.0914  -19.3009   20.1440 C   0  0  0  0  0  0
  -29.1265  -19.7957   22.3034 C   0  0  0  0  0  0
  -28.7445  -20.3179   21.0950 C   0  0  0  0  0  0
  -29.6724  -18.2202   20.7782 C   0  0  0  0  0  0
  -27.2476  -22.1468   22.0700 C   0  0  0  0  0  0
  -29.0207  -17.0112   23.9430 C   0  0  0  0  0  0
  -31.1080  -18.4720   24.1597 C   0  0  0  0  0  0
  -30.3316  -16.9767   20.1876 C   0  0  0  0  0  0
  -28.4495  -24.1359   19.7607 C   0  0  0  0  0  0
  -29.0380  -22.7983   20.3431 C   0  0  0  0  0  0
  -28.2491  -25.3281   20.7455 C   0  0  0  0  0  0
  -28.0574  -21.6838   20.8388 C   0  0  1  0  0  0
  -30.1898  -17.6885   23.2137 C   0  0  0  0  0  0
  -29.6887  -18.5346   22.1322 N   0  0  0  0  0  0
  -29.9309  -15.6333   20.6849 N   0  0  0  0  0  0
  -31.4696  -12.4078   19.1343 H   0  0  0  0  0  0
  -30.3241  -11.3208   19.8552 H   0  0  0  0  0  0
  -29.7376  -11.7450   17.4561 H   0  0  0  0  0  0
  -29.6737  -13.4664   17.7409 H   0  0  0  0  0  0
  -27.8365  -11.3125   18.8381 H   0  0  0  0  0  0
  -27.3701  -12.6204   17.7871 H   0  0  0  0  0  0
  -27.6828  -14.2622   19.5449 H   0  0  0  0  0  0
  -28.7005  -12.0225   21.3762 H   0  0  0  0  0  0
  -28.4863  -13.6902   21.8455 H   0  0  0  0  0  0
  -25.2802   -9.5645   22.4756 H   0  0  0  0  0  0
  -24.0008   -7.4631   22.7484 H   0  0  0  0  0  0
  -21.0862   -8.8833   19.8985 H   0  0  0  0  0  0
  -22.3774  -10.9703   19.6170 H   0  0  0  0  0  0
  -21.2039   -7.6172   23.9741 H   0  0  0  0  0  0
  -21.1448   -6.0525   25.9081 H   0  0  0  0  0  0
  -22.0603   -2.7628   23.2822 H   0  0  0  0  0  0
  -22.4072  -11.9978   22.4897 H   0  0  0  0  0  0
  -21.1070  -13.1279   22.2538 H   0  0  0  0  0  0
  -24.6419  -15.8307   20.5497 H   0  0  0  0  0  0
  -26.2539  -15.6474   20.0784 H   0  0  0  0  0  0
  -26.7153  -32.5533   23.1166 H   0  0  0  0  0  0
  -25.0081  -33.9746   25.0458 H   0  0  0  0  0  0
  -22.6917  -31.3082   21.4082 H   0  0  0  0  0  0
  -23.3713  -35.9668   23.3283 H   0  0  0  0  0  0
  -24.3542  -36.8948   22.2052 H   0  0  0  0  0  0
  -23.7230  -37.6518   23.6671 H   0  0  0  0  0  0
  -26.0505  -31.5953   20.5968 H   0  0  0  0  0  0
  -26.8177  -30.8748   21.9895 H   0  0  0  0  0  0
  -28.0995  -29.0830   21.1674 H   0  0  0  0  0  0
  -26.0432  -25.9505   19.0358 H   0  0  0  0  0  0
  -23.9771  -27.2975   19.0248 H   0  0  0  0  0  0
  -23.7284  -30.5960   19.3939 H   0  0  0  0  0  0
  -22.7362  -29.2482   19.8672 H   0  0  0  0  0  0
  -25.1271  -36.1936   25.0829 H   0  0  0  0  0  0
  -20.9995  -28.3272   24.1418 H   0  0  0  0  0  0
  -20.5679  -26.2311   23.3594 H   0  0  0  0  0  0
  -21.6639  -26.7462   22.1214 H   0  0  0  0  0  0
  -19.6875  -25.6325   21.1246 H   0  0  0  0  0  0
  -19.6675  -27.3207   20.6751 H   0  0  0  0  0  0
  -17.4195  -26.6719   21.4018 H   0  0  0  0  0  0
  -18.0310  -26.0073   22.9014 H   0  0  0  0  0  0
  -19.7919  -30.7315   24.2244 H   0  0  0  0  0  0
  -17.5004  -31.6275   24.5208 H   0  0  0  0  0  0
  -15.5334  -30.3026   23.7669 H   0  0  0  0  0  0
  -15.8671  -28.0883   22.7039 H   0  0  0  0  0  0
  -24.5858  -30.7213   25.7893 H   0  0  0  0  0  0
  -24.9057  -32.2983   26.5011 H   0  0  0  0  0  0
  -25.8109  -30.8924   27.0244 H   0  0  0  0  0  0
  -26.2917  -29.6802   24.1215 H   0  0  0  0  0  0
  -27.4022  -29.7331   25.4707 H   0  0  0  0  0  0
  -27.8781  -30.4331   23.9411 H   0  0  0  0  0  0
  -27.2582  -33.3657   26.2123 H   0  0  0  0  0  0
  -28.3822  -32.7023   25.0362 H   0  0  0  0  0  0
  -28.0714  -31.8525   26.5415 H   0  0  0  0  0  0
  -28.2591  -38.0117   24.7524 H   0  0  0  0  0  0
  -28.1059  -36.2646   24.6231 H   0  0  0  0  0  0
  -27.2298  -37.1436   25.8858 H   0  0  0  0  0  0
  -20.9306  -29.8776   21.6935 H   0  0  0  0  0  0
  -26.0129  -38.2858   24.1448 H   0  0  0  0  0  0
  -28.9497  -19.3588   19.0721 H   0  0  0  0  0  0
  -29.0477  -20.2209   23.2952 H   0  0  0  0  0  0
  -26.5384  -21.3830   22.3925 H   0  0  0  0  0  0
  -26.6647  -23.0413   21.8524 H   0  0  0  0  0  0
  -27.8973  -22.3752   22.9182 H   0  0  0  0  0  0
  -29.3842  -16.3610   24.7391 H   0  0  0  0  0  0
  -28.4342  -16.4021   23.2541 H   0  0  0  0  0  0
  -28.3474  -17.7450   24.3872 H   0  0  0  0  0  0
  -31.5694  -17.8070   24.8896 H   0  0  0  0  0  0
  -30.5650  -19.2391   24.7108 H   0  0  0  0  0  0
  -31.9109  -18.9582   23.6030 H   0  0  0  0  0  0
  -31.4090  -17.0975   20.3037 H   0  0  0  0  0  0
  -30.1705  -16.9830   19.1101 H   0  0  0  0  0  0
  -27.5299  -23.9475   19.2036 H   0  0  0  0  0  0
  -29.1662  -24.4804   19.0150 H   0  0  0  0  0  0
  -29.7751  -23.0197   21.1163 H   0  0  0  0  0  0
  -29.6207  -22.3576   19.5337 H   0  0  0  0  0  0
  -29.0162  -25.2832   21.5187 H   0  0  0  0  0  0
  -27.2998  -25.2221   21.2760 H   0  0  0  0  0  0
  -27.3353  -21.4898   20.0430 H   0  0  0  0  0  0
  -30.8109  -16.9057   22.7822 H   0  0  0  0  0  0
  -28.9667  -15.4990   20.9377 H   0  0  0  0  0  0
  1 25  1  0  0  0
  1 30  2  0  0  0
  1 85  1  0  0  0
  2  3  1  0  0  0
  2 25  1  0  0  0
  2 86  1  0  0  0
  2 87  1  0  0  0
  3  4  1  0  0  0
  3 88  1  0  0  0
  3 89  1  0  0  0
  4  5  1  0  0  0
  4 90  1  0  0  0
  4 91  1  0  0  0
  5  6  1  0  0  0
  5 26  1  0  0  0
  5 92  1  0  0  0
  6 25  1  0  0  0
  6 93  1  0  0  0
  6 94  1  0  0  0
  7  8  2  0  0  0
  7 26  1  0  0  0
  7 29  1  0  0  0
  8  9  1  0  0  0
  8 22  1  0  0  0
  9 10  1  0  0  0
  9 27  2  0  0  0
 10 11  2  0  0  0
 10 15  1  0  0  0
 11 12  1  0  0  0
 11 95  1  0  0  0
 12 13  2  0  0  0
 12 96  1  0  0  0
 13 14  1  0  0  0
 13 31  1  0  0  0
 14 15  2  0  0  0
 14 97  1  0  0  0
 15 98  1  0  0  0
 16 17  2  0  0  0
 16 21  1  0  0  0
 16 31  1  0  0  0
 17 18  1  0  0  0
 17 99  1  0  0  0
 18 19  2  0  0  0
 18100  1  0  0  0
 19 20  1  0  0  0
 19 24  1  0  0  0
 20 21  2  0  0  0
 20101  1  0  0  0
 21 23  1  0  0  0
 22 28  1  0  0  0
 22 32  2  0  0  0
 26 27  1  0  0  0
 28102  1  0  0  0
 28103  1  0  0  0
 29104  1  0  0  0
 29105  1  0  0  0
 33 34  1  0  0  0
 33 66  1  0  0  0
 33 70  2  0  0  0
 34 36  1  0  0  0
 34 59  1  0  0  0
 34106  1  0  0  0
 35 44  2  0  0  0
 35 45  1  0  0  0
 35 68  1  0  0  0
 36 56  1  0  0  0
 36107  1  0  0  0
 37 39  1  0  0  0
 37 47  1  0  0  0
 37 66  1  0  0  0
 37108  1  0  0  0
 38 43  2  0  0  0
 38 46  1  0  0  0
 38 47  1  0  0  0
 39 64  1  0  0  0
 39 67  2  0  0  0
 40 52  1  0  0  0
 40 53  2  0  0  0
 40 58  1  0  0  0
 41109  1  0  0  0
 41110  1  0  0  0
 41111  1  0  0  0
 41 48  1  0  0  0
 42 43  1  0  0  0
 42 66  1  0  0  0
 42112  1  0  0  0
 42113  1  0  0  0
 43 44  1  0  0  0
 44114  1  0  0  0
 45 46  2  0  0  0
 45115  1  0  0  0
 46116  1  0  0  0
 47117  1  0  0  0
 47118  1  0  0  0
 48 56  1  0  0  0
 48 65  1  0  0  0
 48119  1  0  0  0
 49 50  1  0  0  0
 49 53  1  0  0  0
 49 64  1  0  0  0
 49120  1  0  0  0
 50 51  1  0  0  0
 50121  1  0  0  0
 50122  1  0  0  0
 51 52  1  0  0  0
 51123  1  0  0  0
 51124  1  0  0  0
 52125  1  0  0  0
 52126  1  0  0  0
 53 54  1  0  0  0
 54 55  2  0  0  0
 54127  1  0  0  0
 55 57  1  0  0  0
 55128  1  0  0  0
 56 69  2  0  0  0
 57 58  2  0  0  0
 57129  1  0  0  0
 58130  1  0  0  0
 59 60  1  0  0  0
 59 61  1  0  0  0
 59 62  1  0  0  0
 60131  1  0  0  0
 60132  1  0  0  0
 60133  1  0  0  0
 61134  1  0  0  0
 61135  1  0  0  0
 61136  1  0  0  0
 62137  1  0  0  0
 62138  1  0  0  0
 62139  1  0  0  0
 63 65  1  0  0  0
 63140  1  0  0  0
 63141  1  0  0  0
 63142  1  0  0  0
 64143  1  0  0  0
 65144  1  0  0  0
 68 81  1  0  0  0
 71 73  1  0  0  0
 71 74  2  0  0  0
 71145  1  0  0  0
 72 73  2  0  0  0
 72 84  1  0  0  0
 72146  1  0  0  0
 73 82  1  0  0  0
 74 78  1  0  0  0
 74 84  1  0  0  0
 75147  1  0  0  0
 75148  1  0  0  0
 75149  1  0  0  0
 75 82  1  0  0  0
 76150  1  0  0  0
 76151  1  0  0  0
 76152  1  0  0  0
 76 83  1  0  0  0
 77 83  1  0  0  0
 77153  1  0  0  0
 77154  1  0  0  0
 77155  1  0  0  0
 78 85  1  0  0  0
 78156  1  0  0  0
 78157  1  0  0  0
 79 80  1  0  0  0
 79 81  1  0  0  0
 79158  1  0  0  0
 79159  1  0  0  0
 80 82  1  0  0  0
 80160  1  0  0  0
 80161  1  0  0  0
 81162  1  0  0  0
 81163  1  0  0  0
 82164  1  0  0  0
 83 84  1  0  0  0
 83165  1  0  0  0
 85166  1  0  0  0
M  ISO  4   1 100  68 101  81 101  85 100
M  END
> <chiral flag>
0

> <version>
0

> <s_m_source_file>
/data/baiqing/PycharmProjects/Reinvent-master-3.2/result/LINK_invent/BTK/process_docking_weight1_custom_sum_contain_oxygen_bond_distance_aromatic_linkinvent_7_9_3/rearranged_h_0129.sdf

> <i_m_source_file_index>
9

> <r_mmod_Potential_Energy-OPLS-2005>
-88.2872085571289

> <r_mmod_Stretch_Energy-OPLS-2005>
46.3215026855469

> <r_mmod_Bend_Energy-OPLS-2005>
111.76416015625

> <r_mmod_Torsional_Energy-OPLS-2005>
264.789215087891

> <r_mmod_Improper_Torsional_Energy-OPLS-2005>
7.85705327987671

> <r_mmod_Van_der_Waal_Energy-OPLS-2005>
118.834945678711

> <r_mmod_Electrostatic_Energy-OPLS-2005>
-468.273193359375

> <r_mmod_Solvation_Energy-OPLS-2005>
-192.059982299805

> <b_mmod_Minimization_Converged-OPLS-2005>
0

> <r_mmod_RMS_Derivative-OPLS-2005>
4.52926349639893

$$$$
9
                    3D
 Structure written by MMmdl.
159168  0  0  1  0            999 V2000
  -30.6667  -14.6431   20.5020 C   0  0  0  0  0  0
  -30.4294  -12.4037   19.4490 C   0  0  0  0  0  0
  -29.5037  -12.4877   18.2177 C   0  0  0  0  0  0
  -28.0272  -12.3308   18.6331 C   0  0  0  0  0  0
  -27.6458  -13.2210   19.8483 C   0  0  2  0  0  0
  -28.6915  -13.1168   20.9791 C   0  0  0  0  0  0
  -25.2536  -13.8192   20.5659 C   0  0  0  0  0  0
  -24.1813  -13.0448   20.9187 C   0  0  0  0  0  0
  -24.6381  -11.6917   20.8712 C   0  0  0  0  0  0
  -23.9051  -10.4298   21.0372 C   0  0  0  0  0  0
  -24.3605   -9.4218   21.9162 C   0  0  0  0  0  0
  -23.6287   -8.2246   22.0736 C   0  0  0  0  0  0
  -22.4282   -8.0266   21.3508 C   0  0  0  0  0  0
  -21.9897   -9.0247   20.4619 C   0  0  0  0  0  0
  -22.7215  -10.2136   20.3026 C   0  0  0  0  0  0
  -21.6866   -6.0722   22.5272 C   0  0  0  0  0  0
  -21.4021   -6.5625   23.8204 C   0  0  0  0  0  0
  -21.3664   -5.6777   24.9164 C   0  0  0  0  0  0
  -21.6050   -4.3040   24.7223 C   0  0  0  0  0  0
  -21.8819   -3.8130   23.4345 C   0  0  0  0  0  0
  -21.9198   -4.6943   22.3396 C   0  0  0  0  0  0
  -22.7829  -13.5231   21.1860 C   0  0  0  0  0  0
  -22.1653   -4.2118   21.0975 F   0  0  0  0  0  0
  -21.5634   -3.4533   25.7741 F   0  0  0  0  0  0
  -29.9995  -13.4506   20.3994 N   0  0  0  0  0  0
  -26.2956  -12.9380   20.3259 N   0  0  0  0  0  0
  -25.9310  -11.6529   20.5726 N   0  0  0  0  0  0
  -22.0457  -12.8228   22.0416 N   0  0  0  0  0  0
  -25.4260  -15.1916   20.4072 N   0  0  0  0  0  0
  -31.8468  -14.7323   20.1537 O   0  0  0  0  0  0
  -21.6637   -6.8865   21.4231 O   0  0  0  0  0  0
  -22.3508  -14.5524   20.6684 O   0  0  0  0  0  0
  -24.6269  -31.8590   23.2049 C   0  0  0  0  0  0
  -25.9106  -32.4777   23.8380 C   0  0  1  0  0  0
  -27.2178  -27.3035   20.1026 C   0  0  0  0  0  0
  -25.5923  -33.8580   24.2304 N   0  0  0  0  0  0
  -23.4215  -30.4885   21.5442 C   0  0  2  0  0  0
  -24.8659  -28.9479   20.1096 C   0  0  0  0  0  0
  -22.7480  -29.4635   22.4892 C   0  0  0  0  0  0
  -18.0289  -28.1382   22.8486 C   0  0  0  0  0  0
  -24.1478  -36.7301   23.2647 C   0  0  0  0  0  0
  -25.9659  -30.7857   21.3781 C   0  0  0  0  0  0
  -26.0366  -29.4127   20.7182 C   0  0  0  0  0  0
  -27.2109  -28.6000   20.7115 C   0  0  0  0  0  0
  -26.0093  -26.8947   19.4849 C   0  0  0  0  0  0
  -24.8540  -27.6944   19.4879 C   0  0  0  0  0  0
  -23.6374  -29.8308   20.1572 C   0  0  0  0  0  0
  -25.4099  -36.3095   24.0344 C   0  0  1  0  0  0
  -20.5896  -28.3695   23.1255 C   0  0  2  0  0  0
  -20.6766  -26.9411   22.5399 C   0  0  0  0  0  0
  -19.5744  -26.6378   21.5201 C   0  0  0  0  0  0
  -18.1929  -26.7925   22.1619 C   0  0  0  0  0  0
  -19.1546  -28.8849   23.2877 C   0  0  0  0  0  0
  -18.9473  -30.1442   23.8912 C   0  0  0  0  0  0
  -17.6475  -30.6586   24.0560 C   0  0  0  0  0  0
  -25.9047  -34.9458   23.5130 C   0  0  0  0  0  0
  -16.5361  -29.9094   23.6316 C   0  0  0  0  0  0
  -16.7276  -28.6499   23.0357 C   0  0  0  0  0  0
  -26.4494  -31.6591   25.0752 C   0  0  0  0  0  0
  -25.3735  -31.3730   26.1493 C   0  0  0  0  0  0
  -27.0346  -30.3018   24.6209 C   0  0  0  0  0  0
  -27.6061  -32.4322   25.7509 C   0  0  0  0  0  0
  -27.5577  -37.1799   24.8462 C   0  0  0  0  0  0
  -21.4191  -29.3062   22.3650 N   0  0  0  0  0  0
  -26.4278  -37.3786   23.9422 N   0  0  0  0  0  0
  -24.6910  -31.0608   22.0995 N   0  0  0  0  0  0
  -23.4204  -28.8140   23.2945 O   0  0  0  0  0  0
  -28.3416  -26.4539   20.1738 O   0  0  0  0  0  0
  -26.5611  -34.8918   22.4694 O   0  0  0  0  0  0
  -23.5422  -32.1381   23.7363 O   0  0  0  0  0  0
  -28.3590  -20.0456   19.8285 C   0  0  0  0  0  0
  -28.7667  -18.7089   20.1205 C   0  0  0  0  0  0
  -29.1437  -21.1865   20.1744 C   0  0  0  0  0  0
  -29.9924  -18.4881   20.7752 C   0  0  0  0  0  0
  -30.3641  -20.8536   20.8359 C   0  0  0  0  0  0
  -29.6047  -25.2405   18.4877 C   0  0  0  0  0  0
  -30.3518  -24.4184   19.5340 C   0  0  0  0  0  0
  -28.3988  -25.1766   19.4119 C   0  0  1  0  0  0
  -31.3706  -21.8834   21.3141 C   0  0  0  0  0  0
  -28.5697  -22.6152   19.7298 C   0  0  0  0  0  0
  -30.5687  -17.0923   21.2171 C   0  0  0  0  0  0
  -30.7482  -19.5675   21.1125 N   0  0  0  0  0  0
  -29.9625  -15.7657   20.8488 N   0  0  0  0  0  0
  -29.0695  -24.0101   20.1272 N   0  3  1  0  0  0
  -31.4682  -12.5263   19.1363 H   0  0  0  0  0  0
  -30.3710  -11.4183   19.9119 H   0  0  0  0  0  0
  -29.7740  -11.7110   17.4991 H   0  0  0  0  0  0
  -29.6466  -13.4436   17.7112 H   0  0  0  0  0  0
  -27.8657  -11.2804   18.8802 H   0  0  0  0  0  0
  -27.3733  -12.5425   17.7849 H   0  0  0  0  0  0
  -27.6557  -14.2485   19.4876 H   0  0  0  0  0  0
  -28.7079  -12.1089   21.3947 H   0  0  0  0  0  0
  -28.4372  -13.7813   21.8052 H   0  0  0  0  0  0
  -25.2749   -9.5713   22.4728 H   0  0  0  0  0  0
  -24.0001   -7.4644   22.7462 H   0  0  0  0  0  0
  -21.0814   -8.8757   19.8951 H   0  0  0  0  0  0
  -22.3645  -10.9662   19.6130 H   0  0  0  0  0  0
  -21.2008   -7.6132   23.9695 H   0  0  0  0  0  0
  -21.1488   -6.0504   25.9065 H   0  0  0  0  0  0
  -22.0601   -2.7590   23.2852 H   0  0  0  0  0  0
  -22.4079  -11.9929   22.4881 H   0  0  0  0  0  0
  -21.1049  -13.1235   22.2548 H   0  0  0  0  0  0
  -24.6641  -15.8508   20.5275 H   0  0  0  0  0  0
  -26.2746  -15.6280   20.0709 H   0  0  0  0  0  0
  -26.7172  -32.5444   23.1124 H   0  0  0  0  0  0
  -25.0051  -33.9706   25.0438 H   0  0  0  0  0  0
  -22.7166  -31.3111   21.4035 H   0  0  0  0  0  0
  -23.3744  -35.9633   23.3296 H   0  0  0  0  0  0
  -24.3582  -36.8926   22.2069 H   0  0  0  0  0  0
  -23.7208  -37.6495   23.6663 H   0  0  0  0  0  0
  -26.0997  -31.5488   20.6097 H   0  0  0  0  0  0
  -26.8460  -30.8329   22.0074 H   0  0  0  0  0  0
  -28.1056  -28.9530   21.2044 H   0  0  0  0  0  0
  -25.8735  -25.9387   19.0123 H   0  0  0  0  0  0
  -23.9501  -27.3317   19.0167 H   0  0  0  0  0  0
  -23.7625  -30.6098   19.4039 H   0  0  0  0  0  0
  -22.7550  -29.2658   19.8513 H   0  0  0  0  0  0
  -25.1264  -36.1970   25.0833 H   0  0  0  0  0  0
  -21.0009  -28.3285   24.1367 H   0  0  0  0  0  0
  -20.5641  -26.2320   23.3613 H   0  0  0  0  0  0
  -21.6635  -26.7417   22.1210 H   0  0  0  0  0  0
  -19.6909  -25.6289   21.1232 H   0  0  0  0  0  0
  -19.6681  -27.3180   20.6727 H   0  0  0  0  0  0
  -17.4196  -26.6669   21.4027 H   0  0  0  0  0  0
  -18.0348  -26.0063   22.9016 H   0  0  0  0  0  0
  -19.7952  -30.7241   24.2307 H   0  0  0  0  0  0
  -17.5036  -31.6270   24.5159 H   0  0  0  0  0  0
  -15.5363  -30.3013   23.7615 H   0  0  0  0  0  0
  -15.8673  -28.0816   22.7078 H   0  0  0  0  0  0
  -24.5884  -30.7105   25.7827 H   0  0  0  0  0  0
  -24.8959  -32.2903   26.4952 H   0  0  0  0  0  0
  -25.8069  -30.8881   27.0251 H   0  0  0  0  0  0
  -26.2935  -29.6759   24.1227 H   0  0  0  0  0  0
  -27.4042  -29.7278   25.4714 H   0  0  0  0  0  0
  -27.8802  -30.4309   23.9450 H   0  0  0  0  0  0
  -27.2681  -33.3610   26.2111 H   0  0  0  0  0  0
  -28.3858  -32.6895   25.0330 H   0  0  0  0  0  0
  -28.0755  -31.8441   26.5402 H   0  0  0  0  0  0
  -28.2584  -38.0107   24.7525 H   0  0  0  0  0  0
  -28.1079  -36.2636   24.6258 H   0  0  0  0  0  0
  -27.2308  -37.1422   25.8869 H   0  0  0  0  0  0
  -20.9358  -29.8850   21.6920 H   0  0  0  0  0  0
  -26.0171  -38.2863   24.1438 H   0  0  0  0  0  0
  -27.4162  -20.1875   19.3188 H   0  0  0  0  0  0
  -28.1370  -17.8754   19.8427 H   0  0  0  0  0  0
  -29.4484  -24.7086   17.5475 H   0  0  0  0  0  0
  -30.0060  -26.2417   18.3241 H   0  0  0  0  0  0
  -30.9371  -25.0392   20.2156 H   0  0  0  0  0  0
  -30.9513  -23.6232   19.0926 H   0  0  0  0  0  0
  -27.5137  -24.8495   18.8770 H   0  0  0  0  0  0
  -31.9822  -22.2441   20.4888 H   0  0  0  0  0  0
  -32.0599  -21.4489   22.0402 H   0  0  0  0  0  0
  -30.8824  -22.7243   21.8019 H   0  0  0  0  0  0
  -27.5224  -22.6052   20.0350 H   0  0  0  0  0  0
  -28.5400  -22.5864   18.6398 H   0  0  0  0  0  0
  -30.5734  -17.1126   22.3074 H   0  0  0  0  0  0
  -31.6235  -17.0955   20.9399 H   0  0  0  0  0  0
  -28.9803  -15.6560   21.0445 H   0  0  0  0  0  0
  -29.0330  -24.1443   21.1253 H   0  0  0  0  0  0
  1 25  1  0  0  0
  1 30  2  0  0  0
  1 83  1  0  0  0
  2  3  1  0  0  0
  2 25  1  0  0  0
  2 85  1  0  0  0
  2 86  1  0  0  0
  3  4  1  0  0  0
  3 87  1  0  0  0
  3 88  1  0  0  0
  4  5  1  0  0  0
  4 89  1  0  0  0
  4 90  1  0  0  0
  5  6  1  0  0  0
  5 26  1  0  0  0
  5 91  1  0  0  0
  6 25  1  0  0  0
  6 92  1  0  0  0
  6 93  1  0  0  0
  7  8  2  0  0  0
  7 26  1  0  0  0
  7 29  1  0  0  0
  8  9  1  0  0  0
  8 22  1  0  0  0
  9 10  1  0  0  0
  9 27  2  0  0  0
 10 11  2  0  0  0
 10 15  1  0  0  0
 11 12  1  0  0  0
 11 94  1  0  0  0
 12 13  2  0  0  0
 12 95  1  0  0  0
 13 14  1  0  0  0
 13 31  1  0  0  0
 14 15  2  0  0  0
 14 96  1  0  0  0
 15 97  1  0  0  0
 16 17  2  0  0  0
 16 21  1  0  0  0
 16 31  1  0  0  0
 17 18  1  0  0  0
 17 98  1  0  0  0
 18 19  2  0  0  0
 18 99  1  0  0  0
 19 20  1  0  0  0
 19 24  1  0  0  0
 20 21  2  0  0  0
 20100  1  0  0  0
 21 23  1  0  0  0
 22 28  1  0  0  0
 22 32  2  0  0  0
 26 27  1  0  0  0
 28101  1  0  0  0
 28102  1  0  0  0
 29103  1  0  0  0
 29104  1  0  0  0
 33 34  1  0  0  0
 33 66  1  0  0  0
 33 70  2  0  0  0
 34 36  1  0  0  0
 34 59  1  0  0  0
 34105  1  0  0  0
 35 44  2  0  0  0
 35 45  1  0  0  0
 35 68  1  0  0  0
 36 56  1  0  0  0
 36106  1  0  0  0
 37 39  1  0  0  0
 37 47  1  0  0  0
 37 66  1  0  0  0
 37107  1  0  0  0
 38 43  2  0  0  0
 38 46  1  0  0  0
 38 47  1  0  0  0
 39 64  1  0  0  0
 39 67  2  0  0  0
 40 52  1  0  0  0
 40 53  2  0  0  0
 40 58  1  0  0  0
 41108  1  0  0  0
 41109  1  0  0  0
 41110  1  0  0  0
 41 48  1  0  0  0
 42 43  1  0  0  0
 42 66  1  0  0  0
 42111  1  0  0  0
 42112  1  0  0  0
 43 44  1  0  0  0
 44113  1  0  0  0
 45 46  2  0  0  0
 45114  1  0  0  0
 46115  1  0  0  0
 47116  1  0  0  0
 47117  1  0  0  0
 48 56  1  0  0  0
 48 65  1  0  0  0
 48118  1  0  0  0
 49 50  1  0  0  0
 49 53  1  0  0  0
 49 64  1  0  0  0
 49119  1  0  0  0
 50 51  1  0  0  0
 50120  1  0  0  0
 50121  1  0  0  0
 51 52  1  0  0  0
 51122  1  0  0  0
 51123  1  0  0  0
 52124  1  0  0  0
 52125  1  0  0  0
 53 54  1  0  0  0
 54 55  2  0  0  0
 54126  1  0  0  0
 55 57  1  0  0  0
 55127  1  0  0  0
 56 69  2  0  0  0
 57 58  2  0  0  0
 57128  1  0  0  0
 58129  1  0  0  0
 59 60  1  0  0  0
 59 61  1  0  0  0
 59 62  1  0  0  0
 60130  1  0  0  0
 60131  1  0  0  0
 60132  1  0  0  0
 61133  1  0  0  0
 61134  1  0  0  0
 61135  1  0  0  0
 62136  1  0  0  0
 62137  1  0  0  0
 62138  1  0  0  0
 63 65  1  0  0  0
 63139  1  0  0  0
 63140  1  0  0  0
 63141  1  0  0  0
 64142  1  0  0  0
 65143  1  0  0  0
 68 78  1  0  0  0
 71 72  2  0  0  0
 71 73  1  0  0  0
 71144  1  0  0  0
 72 74  1  0  0  0
 72145  1  0  0  0
 73 75  2  0  0  0
 73 80  1  0  0  0
 74 81  1  0  0  0
 74 82  2  0  0  0
 75 79  1  0  0  0
 75 82  1  0  0  0
 76 77  1  0  0  0
 76 78  1  0  0  0
 76146  1  0  0  0
 76147  1  0  0  0
 77 84  1  0  0  0
 77148  1  0  0  0
 77149  1  0  0  0
 78 84  1  0  0  0
 78150  1  0  0  0
 79151  1  0  0  0
 79152  1  0  0  0
 79153  1  0  0  0
 80154  1  0  0  0
 80155  1  0  0  0
 80 84  1  0  0  0
 81 83  1  0  0  0
 81156  1  0  0  0
 81157  1  0  0  0
 83158  1  0  0  0
 84159  1  0  0  0
M  CHG  1  84   1
M  ISO  4   1 100  68 101  78 101  83 100
M  END
> <chiral flag>
0

> <version>
0

> <s_m_source_file>
/data/baiqing/PycharmProjects/Reinvent-master-3.2/result/LINK_invent/BTK/process_docking_weight1_custom_sum_contain_oxygen_bond_distance_aromatic_linkinvent_7_9_3/rearranged_h_0129.sdf

> <i_m_source_file_index>
10

> <r_mmod_Potential_Energy-OPLS-2005>
-281.616149902344

> <r_mmod_Stretch_Energy-OPLS-2005>
93.2180633544922

> <r_mmod_Bend_Energy-OPLS-2005>
204.44108581543

> <r_mmod_Torsional_Energy-OPLS-2005>
226.91828918457

> <r_mmod_Improper_Torsional_Energy-OPLS-2005>
3.6661581993103

> <r_mmod_Van_der_Waal_Energy-OPLS-2005>
149.873382568359

> <r_mmod_Electrostatic_Energy-OPLS-2005>
-541.31591796875

> <r_mmod_Solvation_Energy-OPLS-2005>
-473.006774902344

> <b_mmod_Minimization_Converged-OPLS-2005>
0

> <r_mmod_RMS_Derivative-OPLS-2005>
2.67311096191406

$$$$
10
                    3D
 Structure written by MMmdl.
170179  0  0  1  0            999 V2000
  -30.7233  -14.3946   20.5984 C   0  0  0  0  0  0
  -30.4168  -12.2628   19.3980 C   0  0  0  0  0  0
  -29.4831  -12.4914   18.1916 C   0  0  0  0  0  0
  -28.0062  -12.3591   18.6104 C   0  0  0  0  0  0
  -27.6654  -13.1911   19.8745 C   0  0  2  0  0  0
  -28.7058  -12.9324   20.9878 C   0  0  0  0  0  0
  -25.2617  -13.8119   20.5651 C   0  0  0  0  0  0
  -24.1855  -13.0435   20.9163 C   0  0  0  0  0  0
  -24.6367  -11.6887   20.8728 C   0  0  0  0  0  0
  -23.9023  -10.4288   21.0400 C   0  0  0  0  0  0
  -24.3589   -9.4210   21.9172 C   0  0  0  0  0  0
  -23.6278   -8.2245   22.0758 C   0  0  0  0  0  0
  -22.4260   -8.0274   21.3548 C   0  0  0  0  0  0
  -21.9885   -9.0238   20.4639 C   0  0  0  0  0  0
  -22.7202  -10.2120   20.3044 C   0  0  0  0  0  0
  -21.6853   -6.0726   22.5278 C   0  0  0  0  0  0
  -21.4009   -6.5631   23.8209 C   0  0  0  0  0  0
  -21.3658   -5.6788   24.9173 C   0  0  0  0  0  0
  -21.6052   -4.3051   24.7228 C   0  0  0  0  0  0
  -21.8822   -3.8139   23.4348 C   0  0  0  0  0  0
  -21.9193   -4.6954   22.3398 C   0  0  0  0  0  0
  -22.7882  -13.5250   21.1832 C   0  0  0  0  0  0
  -22.1669   -4.2138   21.0980 F   0  0  0  0  0  0
  -21.5628   -3.4536   25.7740 F   0  0  0  0  0  0
  -30.0448  -13.2265   20.4448 N   0  0  0  0  0  0
  -26.3046  -12.9271   20.3356 N   0  0  0  0  0  0
  -25.9288  -11.6450   20.5755 N   0  0  0  0  0  0
  -22.0512  -12.8246   22.0370 N   0  0  0  0  0  0
  -25.4363  -15.1831   20.4018 N   0  0  0  0  0  0
  -31.8254  -14.5952   20.0730 O   0  0  0  0  0  0
  -21.6641   -6.8864   21.4237 O   0  0  0  0  0  0
  -22.3584  -14.5568   20.6675 O   0  0  0  0  0  0
  -24.6125  -31.8701   23.2110 C   0  0  0  0  0  0
  -25.9029  -32.4839   23.8410 C   0  0  1  0  0  0
  -27.2503  -27.4794   20.0826 C   0  0  0  0  0  0
  -25.5874  -33.8634   24.2321 N   0  0  0  0  0  0
  -23.3987  -30.4903   21.5538 C   0  0  2  0  0  0
  -24.8445  -28.9609   20.1198 C   0  0  0  0  0  0
  -22.7404  -29.4653   22.5041 C   0  0  0  0  0  0
  -18.0263  -28.1380   22.8476 C   0  0  0  0  0  0
  -24.1473  -36.7317   23.2641 C   0  0  0  0  0  0
  -25.9220  -30.8532   21.3549 C   0  0  0  0  0  0
  -26.0044  -29.4928   20.6965 C   0  0  0  0  0  0
  -27.2134  -28.7676   20.6638 C   0  0  0  0  0  0
  -26.0668  -26.9473   19.5298 C   0  0  0  0  0  0
  -24.8683  -27.6834   19.5342 C   0  0  0  0  0  0
  -23.6034  -29.8196   20.1691 C   0  0  0  0  0  0
  -25.4094  -36.3121   24.0336 C   0  0  1  0  0  0
  -20.5847  -28.3657   23.1327 C   0  0  2  0  0  0
  -20.6742  -26.9403   22.5421 C   0  0  0  0  0  0
  -19.5736  -26.6376   21.5205 C   0  0  0  0  0  0
  -18.1906  -26.7929   22.1603 C   0  0  0  0  0  0
  -19.1514  -28.8830   23.2899 C   0  0  0  0  0  0
  -18.9448  -30.1430   23.8909 C   0  0  0  0  0  0
  -17.6459  -30.6577   24.0565 C   0  0  0  0  0  0
  -25.9028  -34.9483   23.5124 C   0  0  0  0  0  0
  -16.5350  -29.9080   23.6317 C   0  0  0  0  0  0
  -16.7259  -28.6504   23.0330 C   0  0  0  0  0  0
  -26.4475  -31.6612   25.0729 C   0  0  0  0  0  0
  -25.3782  -31.3710   26.1524 C   0  0  0  0  0  0
  -27.0310  -30.3053   24.6081 C   0  0  0  0  0  0
  -27.6035  -32.4367   25.7475 C   0  0  0  0  0  0
  -27.5571  -37.1816   24.8465 C   0  0  0  0  0  0
  -21.4134  -29.3022   22.3757 N   0  0  0  0  0  0
  -26.4278  -37.3805   23.9414 N   0  0  0  0  0  0
  -24.6626  -31.0856   22.0981 N   0  0  0  0  0  0
  -23.4186  -28.8206   23.3088 O   0  0  0  0  0  0
  -28.3636  -26.6726   20.0163 O   0  0  0  0  0  0
  -26.5616  -34.8943   22.4703 O   0  0  0  0  0  0
  -23.5327  -32.1404   23.7537 O   0  0  0  0  0  0
  -29.0333  -18.8195   20.6410 C   0  0  0  0  0  0
  -28.9825  -17.4465   20.9382 C   0  0  0  0  0  0
  -30.2851  -19.4571   20.5242 C   0  0  0  0  0  0
  -31.4403  -18.6836   20.7923 C   0  0  0  0  0  0
  -30.1809  -16.7309   21.1090 C   0  0  0  0  0  0
  -30.6252  -26.2077   19.5598 C   0  0  0  0  0  0
  -30.0483  -27.2700   21.7278 C   0  0  0  0  0  0
  -30.5861  -24.8366   20.2611 C   0  0  0  0  0  0
  -30.1276  -25.8797   22.3824 C   0  0  0  0  0  0
  -29.6695  -27.1953   20.2379 C   0  0  0  0  0  0
  -32.8501  -19.2508   20.7689 C   0  0  0  0  0  0
  -30.3330  -20.8978   20.0109 C   0  0  0  0  0  0
  -31.1166  -23.7238   22.4652 C   0  0  0  0  0  0
  -31.3752  -22.3958   21.7230 C   0  0  0  0  0  0
  -31.3742  -17.3680   21.0886 N   0  0  0  0  0  0
  -31.0248  -24.9620   21.6594 N   0  0  0  0  0  0
  -30.0576  -15.3356   21.2858 N   0  0  0  0  0  0
  -30.1471  -21.9321   21.0467 N   0  3  0  0  0  0
  -31.4603  -12.3508   19.0908 H   0  0  0  0  0  0
  -30.3056  -11.2440   19.7743 H   0  0  0  0  0  0
  -29.7055  -11.7737   17.4001 H   0  0  0  0  0  0
  -29.6593  -13.4809   17.7665 H   0  0  0  0  0  0
  -27.8122  -11.3023   18.8024 H   0  0  0  0  0  0
  -27.3515  -12.6381   17.7847 H   0  0  0  0  0  0
  -27.7224  -14.2420   19.5912 H   0  0  0  0  0  0
  -28.6701  -11.8861   21.2957 H   0  0  0  0  0  0
  -28.4674  -13.4983   21.8890 H   0  0  0  0  0  0
  -25.2728   -9.5705   22.4748 H   0  0  0  0  0  0
  -23.9991   -7.4645   22.7483 H   0  0  0  0  0  0
  -21.0817   -8.8730   19.8950 H   0  0  0  0  0  0
  -22.3635  -10.9653   19.6157 H   0  0  0  0  0  0
  -21.1999   -7.6140   23.9702 H   0  0  0  0  0  0
  -21.1482   -6.0524   25.9073 H   0  0  0  0  0  0
  -22.0602   -2.7603   23.2852 H   0  0  0  0  0  0
  -22.4123  -11.9893   22.4740 H   0  0  0  0  0  0
  -21.1134  -13.1282   22.2573 H   0  0  0  0  0  0
  -24.6603  -15.8322   20.4823 H   0  0  0  0  0  0
  -26.2689  -15.6074   20.0157 H   0  0  0  0  0  0
  -26.7130  -32.5556   23.1201 H   0  0  0  0  0  0
  -25.0014  -33.9822   25.0458 H   0  0  0  0  0  0
  -22.6851  -31.3048   21.4160 H   0  0  0  0  0  0
  -23.3739  -35.9649   23.3329 H   0  0  0  0  0  0
  -24.3572  -36.8922   22.2059 H   0  0  0  0  0  0
  -23.7231  -37.6516   23.6656 H   0  0  0  0  0  0
  -26.0397  -31.6307   20.5986 H   0  0  0  0  0  0
  -26.8059  -30.8964   21.9801 H   0  0  0  0  0  0
  -28.1007  -29.2141   21.0860 H   0  0  0  0  0  0
  -26.0759  -25.9610   19.0877 H   0  0  0  0  0  0
  -23.9731  -27.2577   19.1011 H   0  0  0  0  0  0
  -23.7074  -30.5937   19.4074 H   0  0  0  0  0  0
  -22.7280  -29.2354   19.8764 H   0  0  0  0  0  0
  -25.1270  -36.1986   25.0827 H   0  0  0  0  0  0
  -20.9904  -28.3224   24.1467 H   0  0  0  0  0  0
  -20.5629  -26.2282   23.3612 H   0  0  0  0  0  0
  -21.6623  -26.7446   22.1256 H   0  0  0  0  0  0
  -19.6904  -25.6287   21.1232 H   0  0  0  0  0  0
  -19.6670  -27.3177   20.6733 H   0  0  0  0  0  0
  -17.4181  -26.6674   21.4005 H   0  0  0  0  0  0
  -18.0303  -26.0070   22.8989 H   0  0  0  0  0  0
  -19.7935  -30.7214   24.2295 H   0  0  0  0  0  0
  -17.5028  -31.6252   24.5172 H   0  0  0  0  0  0
  -15.5350  -30.2987   23.7626 H   0  0  0  0  0  0
  -15.8672  -28.0825   22.7032 H   0  0  0  0  0  0
  -24.5862  -30.7171   25.7867 H   0  0  0  0  0  0
  -24.9108  -32.2880   26.5114 H   0  0  0  0  0  0
  -25.8168  -30.8748   27.0190 H   0  0  0  0  0  0
  -26.2811  -29.6812   24.1203 H   0  0  0  0  0  0
  -27.4157  -29.7303   25.4518 H   0  0  0  0  0  0
  -27.8619  -30.4382   23.9149 H   0  0  0  0  0  0
  -27.2594  -33.3601   26.2143 H   0  0  0  0  0  0
  -28.3756  -32.7077   25.0264 H   0  0  0  0  0  0
  -28.0815  -31.8484   26.5319 H   0  0  0  0  0  0
  -28.2592  -38.0117   24.7528 H   0  0  0  0  0  0
  -28.1063  -36.2650   24.6244 H   0  0  0  0  0  0
  -27.2320  -37.1430   25.8882 H   0  0  0  0  0  0
  -20.9302  -29.8789   21.7017 H   0  0  0  0  0  0
  -26.0162  -38.2861   24.1460 H   0  0  0  0  0  0
  -28.1161  -19.3638   20.4629 H   0  0  0  0  0  0
  -28.0220  -16.9506   20.9741 H   0  0  0  0  0  0
  -30.3599  -26.0949   18.5070 H   0  0  0  0  0  0
  -31.6406  -26.6052   19.5742 H   0  0  0  0  0  0
  -31.0132  -27.7684   21.8225 H   0  0  0  0  0  0
  -29.3412  -27.8795   22.2875 H   0  0  0  0  0  0
  -31.2390  -24.1595   19.7102 H   0  0  0  0  0  0
  -29.5750  -24.4314   20.2091 H   0  0  0  0  0  0
  -29.1225  -25.4544   22.4371 H   0  0  0  0  0  0
  -30.4733  -25.9982   23.4110 H   0  0  0  0  0  0
  -29.7683  -28.1731   19.7646 H   0  0  0  0  0  0
  -33.0121  -19.8995   21.6297 H   0  0  0  0  0  0
  -33.0517  -19.8131   19.8581 H   0  0  0  0  0  0
  -33.5903  -18.4506   20.8217 H   0  0  0  0  0  0
  -29.5185  -21.0156   19.2940 H   0  0  0  0  0  0
  -31.2374  -21.0910   19.4344 H   0  0  0  0  0  0
  -31.9427  -23.8790   23.1632 H   0  0  0  0  0  0
  -30.2363  -23.5930   23.0982 H   0  0  0  0  0  0
  -31.6647  -21.6371   22.4500 H   0  0  0  0  0  0
  -32.2102  -22.4924   21.0272 H   0  0  0  0  0  0
  -29.1763  -15.0178   21.6551 H   0  0  0  0  0  0
  -29.4473  -21.6600   21.7182 H   0  0  0  0  0  0
  -29.7968  -22.7492   20.5729 H   0  0  0  0  0  0
  1 25  1  0  0  0
  1 30  2  0  0  0
  1 87  1  0  0  0
  2  3  1  0  0  0
  2 25  1  0  0  0
  2 89  1  0  0  0
  2 90  1  0  0  0
  3  4  1  0  0  0
  3 91  1  0  0  0
  3 92  1  0  0  0
  4  5  1  0  0  0
  4 93  1  0  0  0
  4 94  1  0  0  0
  5  6  1  0  0  0
  5 26  1  0  0  0
  5 95  1  0  0  0
  6 25  1  0  0  0
  6 96  1  0  0  0
  6 97  1  0  0  0
  7  8  2  0  0  0
  7 26  1  0  0  0
  7 29  1  0  0  0
  8  9  1  0  0  0
  8 22  1  0  0  0
  9 10  1  0  0  0
  9 27  2  0  0  0
 10 11  2  0  0  0
 10 15  1  0  0  0
 11 12  1  0  0  0
 11 98  1  0  0  0
 12 13  2  0  0  0
 12 99  1  0  0  0
 13 14  1  0  0  0
 13 31  1  0  0  0
 14 15  2  0  0  0
 14100  1  0  0  0
 15101  1  0  0  0
 16 17  2  0  0  0
 16 21  1  0  0  0
 16 31  1  0  0  0
 17 18  1  0  0  0
 17102  1  0  0  0
 18 19  2  0  0  0
 18103  1  0  0  0
 19 20  1  0  0  0
 19 24  1  0  0  0
 20 21  2  0  0  0
 20104  1  0  0  0
 21 23  1  0  0  0
 22 28  1  0  0  0
 22 32  2  0  0  0
 26 27  1  0  0  0
 28105  1  0  0  0
 28106  1  0  0  0
 29107  1  0  0  0
 29108  1  0  0  0
 33 34  1  0  0  0
 33 66  1  0  0  0
 33 70  2  0  0  0
 34 36  1  0  0  0
 34 59  1  0  0  0
 34109  1  0  0  0
 35 44  2  0  0  0
 35 45  1  0  0  0
 35 68  1  0  0  0
 36 56  1  0  0  0
 36110  1  0  0  0
 37 39  1  0  0  0
 37 47  1  0  0  0
 37 66  1  0  0  0
 37111  1  0  0  0
 38 43  2  0  0  0
 38 46  1  0  0  0
 38 47  1  0  0  0
 39 64  1  0  0  0
 39 67  2  0  0  0
 40 52  1  0  0  0
 40 53  2  0  0  0
 40 58  1  0  0  0
 41112  1  0  0  0
 41113  1  0  0  0
 41114  1  0  0  0
 41 48  1  0  0  0
 42 43  1  0  0  0
 42 66  1  0  0  0
 42115  1  0  0  0
 42116  1  0  0  0
 43 44  1  0  0  0
 44117  1  0  0  0
 45 46  2  0  0  0
 45118  1  0  0  0
 46119  1  0  0  0
 47120  1  0  0  0
 47121  1  0  0  0
 48 56  1  0  0  0
 48 65  1  0  0  0
 48122  1  0  0  0
 49 50  1  0  0  0
 49 53  1  0  0  0
 49 64  1  0  0  0
 49123  1  0  0  0
 50 51  1  0  0  0
 50124  1  0  0  0
 50125  1  0  0  0
 51 52  1  0  0  0
 51126  1  0  0  0
 51127  1  0  0  0
 52128  1  0  0  0
 52129  1  0  0  0
 53 54  1  0  0  0
 54 55  2  0  0  0
 54130  1  0  0  0
 55 57  1  0  0  0
 55131  1  0  0  0
 56 69  2  0  0  0
 57 58  2  0  0  0
 57132  1  0  0  0
 58133  1  0  0  0
 59 60  1  0  0  0
 59 61  1  0  0  0
 59 62  1  0  0  0
 60134  1  0  0  0
 60135  1  0  0  0
 60136  1  0  0  0
 61137  1  0  0  0
 61138  1  0  0  0
 61139  1  0  0  0
 62140  1  0  0  0
 62141  1  0  0  0
 62142  1  0  0  0
 63 65  1  0  0  0
 63143  1  0  0  0
 63144  1  0  0  0
 63145  1  0  0  0
 64146  1  0  0  0
 65147  1  0  0  0
 68 80  1  0  0  0
 71 72  2  0  0  0
 71 73  1  0  0  0
 71148  1  0  0  0
 72 75  1  0  0  0
 72149  1  0  0  0
 73 74  2  0  0  0
 73 82  1  0  0  0
 74 81  1  0  0  0
 74 85  1  0  0  0
 75 85  2  0  0  0
 75 87  1  0  0  0
 76 78  1  0  0  0
 76 80  1  0  0  0
 76150  1  0  0  0
 76151  1  0  0  0
 77 79  1  0  0  0
 77 80  1  0  0  0
 77152  1  0  0  0
 77153  1  0  0  0
 78 86  1  0  0  0
 78154  1  0  0  0
 78155  1  0  0  0
 79 86  1  0  0  0
 79156  1  0  0  0
 79157  1  0  0  0
 80158  1  0  0  0
 81159  1  0  0  0
 81160  1  0  0  0
 81161  1  0  0  0
 82 88  1  0  0  0
 82162  1  0  0  0
 82163  1  0  0  0
 83 84  1  0  0  0
 83 86  1  0  0  0
 83164  1  0  0  0
 83165  1  0  0  0
 84 88  1  0  0  0
 84166  1  0  0  0
 84167  1  0  0  0
 87168  1  0  0  0
 88169  1  0  0  0
 88170  1  0  0  0
M  CHG  1  88   1
M  ISO  4   1 100  68 101  80 101  87 100
M  END
> <chiral flag>
0

> <version>
0

> <s_m_source_file>
/data/baiqing/PycharmProjects/Reinvent-master-3.2/result/LINK_invent/BTK/process_docking_weight1_custom_sum_contain_oxygen_bond_distance_aromatic_linkinvent_7_9_3/rearranged_h_0129.sdf

> <i_m_source_file_index>
11

> <r_mmod_Potential_Energy-OPLS-2005>
-312.913604736328

> <r_mmod_Stretch_Energy-OPLS-2005>
35.4884376525879

> <r_mmod_Bend_Energy-OPLS-2005>
126.761672973633

> <r_mmod_Torsional_Energy-OPLS-2005>
236.551422119141

> <r_mmod_Improper_Torsional_Energy-OPLS-2005>
4.70951747894287

> <r_mmod_Van_der_Waal_Energy-OPLS-2005>
166.13166809082

> <r_mmod_Electrostatic_Energy-OPLS-2005>
-404.3232421875

> <r_mmod_Solvation_Energy-OPLS-2005>
-486.781555175781

> <b_mmod_Minimization_Converged-OPLS-2005>
0

> <r_mmod_RMS_Derivative-OPLS-2005>
3.05044221878052

$$$$
11
                    3D
 Structure written by MMmdl.
150158  0  0  1  0            999 V2000
  -30.5486  -14.9977   20.4165 C   0  0  0  0  0  0
  -30.4390  -12.6211   19.5025 C   0  0  0  0  0  0
  -29.5244  -12.5257   18.2600 C   0  0  0  0  0  0
  -28.0644  -12.2951   18.6887 C   0  0  0  0  0  0
  -27.6278  -13.2493   19.8307 C   0  0  2  0  0  0
  -28.6687  -13.3163   20.9680 C   0  0  0  0  0  0
  -25.2478  -13.8206   20.5706 C   0  0  0  0  0  0
  -24.1796  -13.0429   20.9217 C   0  0  0  0  0  0
  -24.6413  -11.6918   20.8754 C   0  0  0  0  0  0
  -23.9105  -10.4285   21.0414 C   0  0  0  0  0  0
  -24.3646   -9.4197   21.9193 C   0  0  0  0  0  0
  -23.6305   -8.2240   22.0765 C   0  0  0  0  0  0
  -22.4286   -8.0287   21.3555 C   0  0  0  0  0  0
  -21.9931   -9.0262   20.4656 C   0  0  0  0  0  0
  -22.7276  -10.2131   20.3061 C   0  0  0  0  0  0
  -21.6848   -6.0748   22.5292 C   0  0  0  0  0  0
  -21.4019   -6.5655   23.8226 C   0  0  0  0  0  0
  -21.3651   -5.6804   24.9187 C   0  0  0  0  0  0
  -21.6028   -4.3063   24.7237 C   0  0  0  0  0  0
  -21.8818   -3.8161   23.4363 C   0  0  0  0  0  0
  -21.9191   -4.6974   22.3418 C   0  0  0  0  0  0
  -22.7818  -13.5205   21.1870 C   0  0  0  0  0  0
  -22.1659   -4.2158   21.0992 F   0  0  0  0  0  0
  -21.5619   -3.4550   25.7753 F   0  0  0  0  0  0
  -29.9391  -13.7377   20.3629 N   0  0  0  0  0  0
  -26.2894  -12.9441   20.3223 N   0  0  0  0  0  0
  -25.9341  -11.6573   20.5727 N   0  0  0  0  0  0
  -22.0465  -12.8191   22.0418 N   0  0  0  0  0  0
  -25.4155  -15.1941   20.4163 N   0  0  0  0  0  0
  -31.7591  -15.0046   20.1597 O   0  0  0  0  0  0
  -21.6638   -6.8893   21.4255 O   0  0  0  0  0  0
  -22.3500  -14.5501   20.6701 O   0  0  0  0  0  0
  -24.6442  -31.8404   23.1852 C   0  0  0  0  0  0
  -25.9212  -32.4670   23.8234 C   0  0  1  0  0  0
  -27.2165  -27.1096   20.1564 C   0  0  0  0  0  0
  -25.5963  -33.8473   24.2156 N   0  0  0  0  0  0
  -23.4489  -30.4589   21.5323 C   0  0  2  0  0  0
  -24.8988  -28.8815   20.1103 C   0  0  0  0  0  0
  -22.7579  -29.4518   22.4854 C   0  0  0  0  0  0
  -18.0304  -28.1375   22.8455 C   0  0  0  0  0  0
  -24.1504  -36.7257   23.2642 C   0  0  0  0  0  0
  -26.0052  -30.7055   21.3872 C   0  0  0  0  0  0
  -26.0771  -29.3139   20.7320 C   0  0  0  0  0  0
  -27.2373  -28.4465   20.7352 C   0  0  0  0  0  0
  -26.0116  -26.7851   19.4965 C   0  0  0  0  0  0
  -24.8810  -27.6315   19.4748 C   0  0  0  0  0  0
  -23.6763  -29.7878   20.1516 C   0  0  0  0  0  0
  -25.4134  -36.3007   24.0303 C   0  0  1  0  0  0
  -20.5919  -28.3703   23.1218 C   0  0  2  0  0  0
  -20.6798  -26.9403   22.5394 C   0  0  0  0  0  0
  -19.5789  -26.6368   21.5189 C   0  0  0  0  0  0
  -18.1961  -26.7911   22.1587 C   0  0  0  0  0  0
  -19.1558  -28.8862   23.2820 C   0  0  0  0  0  0
  -18.9485  -30.1460   23.8836 C   0  0  0  0  0  0
  -17.6487  -30.6572   24.0555 C   0  0  0  0  0  0
  -25.9076  -34.9391   23.5035 C   0  0  0  0  0  0
  -16.5371  -29.9075   23.6336 C   0  0  0  0  0  0
  -16.7295  -28.6501   23.0336 C   0  0  0  0  0  0
  -26.4541  -31.6539   25.0678 C   0  0  0  0  0  0
  -25.3719  -31.3726   26.1368 C   0  0  0  0  0  0
  -27.0413  -30.2933   24.6265 C   0  0  0  0  0  0
  -27.6072  -32.4310   25.7438 C   0  0  0  0  0  0
  -27.5584  -37.1765   24.8453 C   0  0  0  0  0  0
  -21.4273  -29.3027   22.3598 N   0  0  0  0  0  0
  -26.4289  -37.3734   23.9408 N   0  0  0  0  0  0
  -24.7186  -31.0223   22.0901 N   0  0  0  0  0  0
  -23.4202  -28.8064   23.3016 O   0  0  0  0  0  0
  -28.2659  -26.1102   20.2149 O   0  0  0  0  0  0
  -26.5671  -34.8899   22.4616 O   0  0  0  0  0  0
  -23.5555  -32.1306   23.7059 O   0  0  0  0  0  0
  -31.8939  -19.4326   20.6682 C   0  0  0  0  0  0
  -30.9772  -20.4969   20.5773 C   0  0  0  0  0  0
  -31.4657  -18.0888   20.6344 C   0  0  0  0  0  0
  -29.6039  -20.2493   20.4560 C   0  0  0  0  0  0
  -30.1045  -17.7317   20.5180 C   0  0  0  0  0  0
  -28.5968  -21.5789   20.3853 C   0  0  0  0  0  0
  -27.9653  -24.5654   20.2182 C   0  0  0  0  0  0
  -29.0285  -23.2419   20.3971 C   0  0  1  0  0  0
  -29.2131  -18.8621   20.4376 N   0  0  0  0  0  0
  -29.7862  -16.2135   20.5297 N   0  0  0  0  0  0
  -29.6382  -23.4879   21.6576 O   0  0  0  0  0  0
  -31.4713  -12.7720   19.1868 H   0  0  0  0  0  0
  -30.4371  -11.6803   20.0553 H   0  0  0  0  0  0
  -29.8546  -11.7181   17.6049 H   0  0  0  0  0  0
  -29.5966  -13.4433   17.6746 H   0  0  0  0  0  0
  -27.9878  -11.2613   19.0303 H   0  0  0  0  0  0
  -27.3916  -12.3809   17.8340 H   0  0  0  0  0  0
  -27.5807  -14.2398   19.3773 H   0  0  0  0  0  0
  -28.7693  -12.3535   21.4716 H   0  0  0  0  0  0
  -28.3563  -14.0338   21.7284 H   0  0  0  0  0  0
  -25.2797   -9.5655   22.4759 H   0  0  0  0  0  0
  -24.0005   -7.4631   22.7489 H   0  0  0  0  0  0
  -21.0864   -8.8801   19.8963 H   0  0  0  0  0  0
  -22.3764  -10.9672   19.6158 H   0  0  0  0  0  0
  -21.2027   -7.6165   23.9737 H   0  0  0  0  0  0
  -21.1455   -6.0538   25.9087 H   0  0  0  0  0  0
  -22.0598   -2.7624   23.2871 H   0  0  0  0  0  0
  -22.4095  -11.9863   22.4815 H   0  0  0  0  0  0
  -21.1070  -13.1202   22.2594 H   0  0  0  0  0  0
  -24.6483  -15.8465   20.5409 H   0  0  0  0  0  0
  -26.2601  -15.6394   20.0806 H   0  0  0  0  0  0
  -26.7258  -32.5259   23.0934 H   0  0  0  0  0  0
  -25.0097  -33.9570   25.0299 H   0  0  0  0  0  0
  -22.7509  -31.2850   21.3792 H   0  0  0  0  0  0
  -23.3759  -35.9585   23.3264 H   0  0  0  0  0  0
  -24.3620  -36.8943   22.2069 H   0  0  0  0  0  0
  -23.7266  -37.6441   23.6718 H   0  0  0  0  0  0
  -26.1622  -31.4544   20.6095 H   0  0  0  0  0  0
  -26.8756  -30.7595   22.0291 H   0  0  0  0  0  0
  -28.1328  -28.7767   21.2431 H   0  0  0  0  0  0
  -25.9070  -25.8329   18.9998 H   0  0  0  0  0  0
  -23.9861  -27.2956   18.9702 H   0  0  0  0  0  0
  -23.8158  -30.5650   19.3999 H   0  0  0  0  0  0
  -22.7887  -29.2340   19.8381 H   0  0  0  0  0  0
  -25.1317  -36.1829   25.0793 H   0  0  0  0  0  0
  -20.9984  -28.3299   24.1348 H   0  0  0  0  0  0
  -20.5704  -26.2302   23.3608 H   0  0  0  0  0  0
  -21.6671  -26.7425   22.1185 H   0  0  0  0  0  0
  -19.6964  -25.6275   21.1233 H   0  0  0  0  0  0
  -19.6745  -27.3157   20.6699 H   0  0  0  0  0  0
  -17.4232  -26.6633   21.3988 H   0  0  0  0  0  0
  -18.0379  -26.0044   22.8978 H   0  0  0  0  0  0
  -19.7972  -30.7287   24.2155 H   0  0  0  0  0  0
  -17.5052  -31.6248   24.5177 H   0  0  0  0  0  0
  -15.5376  -30.2964   23.7703 H   0  0  0  0  0  0
  -15.8681  -28.0831   22.7037 H   0  0  0  0  0  0
  -24.5913  -30.7050   25.7695 H   0  0  0  0  0  0
  -24.8879  -32.2896   26.4727 H   0  0  0  0  0  0
  -25.7994  -30.8952   27.0196 H   0  0  0  0  0  0
  -26.3019  -29.6617   24.1305 H   0  0  0  0  0  0
  -27.4079  -29.7260   25.4834 H   0  0  0  0  0  0
  -27.8915  -30.4167   23.9546 H   0  0  0  0  0  0
  -27.2685  -33.3662   26.1910 H   0  0  0  0  0  0
  -28.3917  -32.6788   25.0275 H   0  0  0  0  0  0
  -28.0697  -31.8505   26.5433 H   0  0  0  0  0  0
  -28.2541  -38.0121   24.7552 H   0  0  0  0  0  0
  -28.1143  -36.2641   24.6206 H   0  0  0  0  0  0
  -27.2310  -37.1322   25.8860 H   0  0  0  0  0  0
  -20.9470  -29.8754   21.6793 H   0  0  0  0  0  0
  -26.0139  -38.2784   24.1474 H   0  0  0  0  0  0
  -32.9472  -19.6507   20.7742 H   0  0  0  0  0  0
  -31.3410  -21.5155   20.6221 H   0  0  0  0  0  0
  -32.2310  -17.3317   20.7157 H   0  0  0  0  0  0
  -27.8855  -21.4369   21.1980 H   0  0  0  0  0  0
  -28.0029  -21.4299   19.4840 H   0  0  0  0  0  0
  -27.1838  -24.4360   20.9680 H   0  0  0  0  0  0
  -27.4692  -24.3706   19.2685 H   0  0  0  0  0  0
  -29.7932  -23.3601   19.6288 H   0  0  0  0  0  0
  -28.8022  -16.0261   20.6302 H   0  0  0  0  0  0
  -28.9495  -23.5335   22.3121 H   0  0  0  0  0  0
  1 25  1  0  0  0
  1 30  2  0  0  0
  1 80  1  0  0  0
  2  3  1  0  0  0
  2 25  1  0  0  0
  2 82  1  0  0  0
  2 83  1  0  0  0
  3  4  1  0  0  0
  3 84  1  0  0  0
  3 85  1  0  0  0
  4  5  1  0  0  0
  4 86  1  0  0  0
  4 87  1  0  0  0
  5  6  1  0  0  0
  5 26  1  0  0  0
  5 88  1  0  0  0
  6 25  1  0  0  0
  6 89  1  0  0  0
  6 90  1  0  0  0
  7  8  2  0  0  0
  7 26  1  0  0  0
  7 29  1  0  0  0
  8  9  1  0  0  0
  8 22  1  0  0  0
  9 10  1  0  0  0
  9 27  2  0  0  0
 10 11  2  0  0  0
 10 15  1  0  0  0
 11 12  1  0  0  0
 11 91  1  0  0  0
 12 13  2  0  0  0
 12 92  1  0  0  0
 13 14  1  0  0  0
 13 31  1  0  0  0
 14 15  2  0  0  0
 14 93  1  0  0  0
 15 94  1  0  0  0
 16 17  2  0  0  0
 16 21  1  0  0  0
 16 31  1  0  0  0
 17 18  1  0  0  0
 17 95  1  0  0  0
 18 19  2  0  0  0
 18 96  1  0  0  0
 19 20  1  0  0  0
 19 24  1  0  0  0
 20 21  2  0  0  0
 20 97  1  0  0  0
 21 23  1  0  0  0
 22 28  1  0  0  0
 22 32  2  0  0  0
 26 27  1  0  0  0
 28 98  1  0  0  0
 28 99  1  0  0  0
 29100  1  0  0  0
 29101  1  0  0  0
 33 34  1  0  0  0
 33 66  1  0  0  0
 33 70  2  0  0  0
 34 36  1  0  0  0
 34 59  1  0  0  0
 34102  1  0  0  0
 35 44  2  0  0  0
 35 45  1  0  0  0
 35 68  1  0  0  0
 36 56  1  0  0  0
 36103  1  0  0  0
 37 39  1  0  0  0
 37 47  1  0  0  0
 37 66  1  0  0  0
 37104  1  0  0  0
 38 43  2  0  0  0
 38 46  1  0  0  0
 38 47  1  0  0  0
 39 64  1  0  0  0
 39 67  2  0  0  0
 40 52  1  0  0  0
 40 53  2  0  0  0
 40 58  1  0  0  0
 41105  1  0  0  0
 41106  1  0  0  0
 41107  1  0  0  0
 41 48  1  0  0  0
 42 43  1  0  0  0
 42 66  1  0  0  0
 42108  1  0  0  0
 42109  1  0  0  0
 43 44  1  0  0  0
 44110  1  0  0  0
 45 46  2  0  0  0
 45111  1  0  0  0
 46112  1  0  0  0
 47113  1  0  0  0
 47114  1  0  0  0
 48 56  1  0  0  0
 48 65  1  0  0  0
 48115  1  0  0  0
 49 50  1  0  0  0
 49 53  1  0  0  0
 49 64  1  0  0  0
 49116  1  0  0  0
 50 51  1  0  0  0
 50117  1  0  0  0
 50118  1  0  0  0
 51 52  1  0  0  0
 51119  1  0  0  0
 51120  1  0  0  0
 52121  1  0  0  0
 52122  1  0  0  0
 53 54  1  0  0  0
 54 55  2  0  0  0
 54123  1  0  0  0
 55 57  1  0  0  0
 55124  1  0  0  0
 56 69  2  0  0  0
 57 58  2  0  0  0
 57125  1  0  0  0
 58126  1  0  0  0
 59 60  1  0  0  0
 59 61  1  0  0  0
 59 62  1  0  0  0
 60127  1  0  0  0
 60128  1  0  0  0
 60129  1  0  0  0
 61130  1  0  0  0
 61131  1  0  0  0
 61132  1  0  0  0
 62133  1  0  0  0
 62134  1  0  0  0
 62135  1  0  0  0
 63 65  1  0  0  0
 63136  1  0  0  0
 63137  1  0  0  0
 63138  1  0  0  0
 64139  1  0  0  0
 65140  1  0  0  0
 68 77  1  0  0  0
 71 72  2  0  0  0
 71 73  1  0  0  0
 71141  1  0  0  0
 72 74  1  0  0  0
 72142  1  0  0  0
 73 75  2  0  0  0
 73143  1  0  0  0
 74 76  1  0  0  0
 74 79  2  0  0  0
 75 79  1  0  0  0
 75 80  1  0  0  0
 76 78  1  0  0  0
 76144  1  0  0  0
 76145  1  0  0  0
 77 78  1  0  0  0
 77146  1  0  0  0
 77147  1  0  0  0
 78 81  1  0  0  0
 78148  1  0  0  0
 80149  1  0  0  0
 81150  1  0  0  0
M  ISO  4   1 100  68 101  77 101  80 100
M  END
> <chiral flag>
0

> <version>
0

> <s_m_source_file>
/data/baiqing/PycharmProjects/Reinvent-master-3.2/result/LINK_invent/BTK/process_docking_weight1_custom_sum_contain_oxygen_bond_distance_aromatic_linkinvent_7_9_3/rearranged_h_0129.sdf

> <i_m_source_file_index>
12

> <r_mmod_Potential_Energy-OPLS-2005>
460.997406005859

> <r_mmod_Stretch_Energy-OPLS-2005>
311.522125244141

> <r_mmod_Bend_Energy-OPLS-2005>
265.287902832031

> <r_mmod_Torsional_Energy-OPLS-2005>
222.225402832031

> <r_mmod_Improper_Torsional_Energy-OPLS-2005>
4.70680475234985

> <r_mmod_Van_der_Waal_Energy-OPLS-2005>
132.770797729492

> <r_mmod_Electrostatic_Energy-OPLS-2005>
-452.379516601562

> <r_mmod_Solvation_Energy-OPLS-2005>
-243.35237121582

> <b_mmod_Minimization_Converged-OPLS-2005>
0

> <r_mmod_RMS_Derivative-OPLS-2005>
2.64282274246216

$$$$
12
                    3D
 Structure written by MMmdl.
183192  0  0  1  0            999 V2000
  -30.6485  -14.5247   20.5635 C   0  0  0  0  0  0
  -30.4345  -12.3322   19.4500 C   0  0  0  0  0  0
  -29.5107  -12.5179   18.2268 C   0  0  0  0  0  0
  -28.0308  -12.3629   18.6283 C   0  0  0  0  0  0
  -27.6655  -13.1996   19.8831 C   0  0  2  0  0  0
  -28.6993  -12.9907   21.0150 C   0  0  0  0  0  0
  -25.2599  -13.8166   20.5656 C   0  0  0  0  0  0
  -24.1845  -13.0453   20.9151 C   0  0  0  0  0  0
  -24.6385  -11.6910   20.8690 C   0  0  0  0  0  0
  -23.9069  -10.4309   21.0369 C   0  0  0  0  0  0
  -24.3622   -9.4217   21.9137 C   0  0  0  0  0  0
  -23.6288   -8.2270   22.0751 C   0  0  0  0  0  0
  -22.4280   -8.0302   21.3537 C   0  0  0  0  0  0
  -21.9911   -9.0270   20.4643 C   0  0  0  0  0  0
  -22.7242  -10.2143   20.3020 C   0  0  0  0  0  0
  -21.6895   -6.0713   22.5260 C   0  0  0  0  0  0
  -21.4020   -6.5617   23.8176 C   0  0  0  0  0  0
  -21.3670   -5.6774   24.9142 C   0  0  0  0  0  0
  -21.6047   -4.3036   24.7216 C   0  0  0  0  0  0
  -21.8825   -3.8125   23.4334 C   0  0  0  0  0  0
  -21.9222   -4.6934   22.3385 C   0  0  0  0  0  0
  -22.7868  -13.5249   21.1825 C   0  0  0  0  0  0
  -22.1675   -4.2100   21.0957 F   0  0  0  0  0  0
  -21.5635   -3.4534   25.7727 F   0  0  0  0  0  0
  -30.0358  -13.3098   20.4805 N   0  0  0  0  0  0
  -26.3037  -12.9307   20.3380 N   0  0  0  0  0  0
  -25.9317  -11.6483   20.5784 N   0  0  0  0  0  0
  -22.0525  -12.8232   22.0369 N   0  0  0  0  0  0
  -25.4331  -15.1877   20.4074 N   0  0  0  0  0  0
  -31.7363  -14.7661   20.0296 O   0  0  0  0  0  0
  -21.6674   -6.8866   21.4224 O   0  0  0  0  0  0
  -22.3542  -14.5557   20.6690 O   0  0  0  0  0  0
  -24.6172  -31.8657   23.2078 C   0  0  0  0  0  0
  -25.9048  -32.4810   23.8386 C   0  0  1  0  0  0
  -27.2296  -27.4026   20.1022 C   0  0  0  0  0  0
  -25.5904  -33.8611   24.2320 N   0  0  0  0  0  0
  -23.4095  -30.4865   21.5489 C   0  0  2  0  0  0
  -24.8573  -28.9516   20.1128 C   0  0  0  0  0  0
  -22.7437  -29.4626   22.4975 C   0  0  0  0  0  0
  -18.0269  -28.1371   22.8489 C   0  0  0  0  0  0
  -24.1482  -36.7306   23.2636 C   0  0  0  0  0  0
  -25.9418  -30.8201   21.3675 C   0  0  0  0  0  0
  -26.0205  -29.4532   20.7128 C   0  0  0  0  0  0
  -27.2143  -28.6865   20.7027 C   0  0  0  0  0  0
  -26.0537  -26.9301   19.4828 C   0  0  0  0  0  0
  -24.8697  -27.6909   19.4936 C   0  0  0  0  0  0
  -23.6203  -29.8201   20.1640 C   0  0  0  0  0  0
  -25.4104  -36.3105   24.0332 C   0  0  1  0  0  0
  -20.5871  -28.3666   23.1299 C   0  0  2  0  0  0
  -20.6762  -26.9398   22.5409 C   0  0  0  0  0  0
  -19.5747  -26.6376   21.5205 C   0  0  0  0  0  0
  -18.1922  -26.7920   22.1612 C   0  0  0  0  0  0
  -19.1526  -28.8833   23.2895 C   0  0  0  0  0  0
  -18.9456  -30.1433   23.8902 C   0  0  0  0  0  0
  -17.6461  -30.6584   24.0555 C   0  0  0  0  0  0
  -25.9027  -34.9473   23.5119 C   0  0  0  0  0  0
  -16.5347  -29.9084   23.6330 C   0  0  0  0  0  0
  -16.7256  -28.6501   23.0353 C   0  0  0  0  0  0
  -26.4472  -31.6603   25.0728 C   0  0  0  0  0  0
  -25.3741  -31.3726   26.1481 C   0  0  0  0  0  0
  -27.0303  -30.3045   24.6115 C   0  0  0  0  0  0
  -27.6040  -32.4332   25.7502 C   0  0  0  0  0  0
  -27.5576  -37.1807   24.8461 C   0  0  0  0  0  0
  -21.4160  -29.3037   22.3718 N   0  0  0  0  0  0
  -26.4286  -37.3795   23.9406 N   0  0  0  0  0  0
  -24.6746  -31.0709   22.1000 N   0  0  0  0  0  0
  -23.4185  -28.8164   23.3025 O   0  0  0  0  0  0
  -28.3471  -26.5859   20.1159 O   0  0  0  0  0  0
  -26.5592  -34.8925   22.4678 O   0  0  0  0  0  0
  -23.5356  -32.1417   23.7448 O   0  0  0  0  0  0
  -28.9362  -23.7085   19.1049 C   0  0  0  0  0  0
  -29.4257  -23.2118   21.4237 C   0  0  0  0  0  0
  -29.5439  -22.4828   18.7283 C   0  0  0  0  0  0
  -30.0429  -21.9928   21.0459 C   0  0  0  0  0  0
  -28.8884  -24.1017   20.4607 C   0  0  0  0  0  0
  -30.1319  -21.6153   19.6858 C   0  0  0  0  0  0
  -33.0018  -21.8343   19.1855 C   0  0  0  0  0  0
  -33.3886  -19.5289   19.4749 C   0  0  0  0  0  0
  -34.3357  -22.1954   19.8698 C   0  0  0  0  0  0
  -34.7084  -19.8184   20.2247 C   0  0  0  0  0  0
  -29.0801  -17.5389   16.6320 C   0  0  0  0  0  0
  -31.3973  -17.8382   15.6883 C   0  0  0  0  0  0
  -28.1739  -25.3911   20.9210 C   0  0  0  0  0  0
  -30.4114  -18.0642   20.5030 C   0  0  0  0  0  0
  -29.5305  -16.7693   20.3381 C   0  0  0  0  0  0
  -31.0302  -20.4372   19.2136 C   0  0  2  0  0  0
  -30.4007  -18.3189   16.7577 C   0  0  0  0  0  0
  -30.3838  -18.9778   19.2184 C   0  0  1  0  0  0
  -32.4071  -20.5955   19.7492 N   0  0  0  0  0  0
  -29.8827  -15.5219   21.0625 N   0  0  0  0  0  0
  -35.2997  -21.0836   19.7581 N   0  3  0  0  0  0
  -30.9959  -18.1909   18.1132 N   0  3  0  0  0  0
  -31.4781  -12.4459   19.1549 H   0  0  0  0  0  0
  -30.3461  -11.3161   19.8408 H   0  0  0  0  0  0
  -29.7625  -11.7980   17.4468 H   0  0  0  0  0  0
  -29.6711  -13.5084   17.7965 H   0  0  0  0  0  0
  -27.8562  -11.3042   18.8262 H   0  0  0  0  0  0
  -27.3795  -12.6289   17.7939 H   0  0  0  0  0  0
  -27.7107  -14.2472   19.5849 H   0  0  0  0  0  0
  -28.6782  -11.9602   21.3726 H   0  0  0  0  0  0
  -28.4474  -13.5983   21.8862 H   0  0  0  0  0  0
  -25.2751   -9.5734   22.4716 H   0  0  0  0  0  0
  -24.0003   -7.4692   22.7491 H   0  0  0  0  0  0
  -21.0844   -8.8802   19.8953 H   0  0  0  0  0  0
  -22.3673  -10.9701   19.6148 H   0  0  0  0  0  0
  -21.1984   -7.6118   23.9664 H   0  0  0  0  0  0
  -21.1485   -6.0501   25.9046 H   0  0  0  0  0  0
  -22.0600   -2.7598   23.2861 H   0  0  0  0  0  0
  -22.4173  -11.9892   22.4722 H   0  0  0  0  0  0
  -21.1128  -13.1230   22.2583 H   0  0  0  0  0  0
  -24.6675  -15.8455   20.5128 H   0  0  0  0  0  0
  -26.2851  -15.6335   20.0958 H   0  0  0  0  0  0
  -26.7118  -32.5512   23.1149 H   0  0  0  0  0  0
  -25.0087  -33.9793   25.0490 H   0  0  0  0  0  0
  -22.6992  -31.3035   21.4068 H   0  0  0  0  0  0
  -23.3749  -35.9632   23.3298 H   0  0  0  0  0  0
  -24.3577  -36.8923   22.2050 H   0  0  0  0  0  0
  -23.7224  -37.6505   23.6653 H   0  0  0  0  0  0
  -26.0568  -31.5844   20.5980 H   0  0  0  0  0  0
  -26.8283  -30.8748   21.9873 H   0  0  0  0  0  0
  -28.1113  -29.0620   21.1753 H   0  0  0  0  0  0
  -26.0506  -25.9617   19.0024 H   0  0  0  0  0  0
  -23.9771  -27.2986   19.0245 H   0  0  0  0  0  0
  -23.7327  -30.5948   19.4052 H   0  0  0  0  0  0
  -22.7456  -29.2393   19.8659 H   0  0  0  0  0  0
  -25.1288  -36.1962   25.0826 H   0  0  0  0  0  0
  -20.9956  -28.3215   24.1420 H   0  0  0  0  0  0
  -20.5649  -26.2273   23.3602 H   0  0  0  0  0  0
  -21.6629  -26.7419   22.1206 H   0  0  0  0  0  0
  -19.6904  -25.6286   21.1238 H   0  0  0  0  0  0
  -19.6692  -27.3182   20.6738 H   0  0  0  0  0  0
  -17.4197  -26.6663   21.4009 H   0  0  0  0  0  0
  -18.0316  -26.0052   22.9000 H   0  0  0  0  0  0
  -19.7936  -30.7238   24.2275 H   0  0  0  0  0  0
  -17.5022  -31.6268   24.5150 H   0  0  0  0  0  0
  -15.5351  -30.2987   23.7654 H   0  0  0  0  0  0
  -15.8656  -28.0812   22.7078 H   0  0  0  0  0  0
  -24.5894  -30.7090   25.7832 H   0  0  0  0  0  0
  -24.8955  -32.2891   26.4945 H   0  0  0  0  0  0
  -25.8091  -30.8887   27.0236 H   0  0  0  0  0  0
  -26.2851  -29.6815   24.1150 H   0  0  0  0  0  0
  -27.4056  -29.7268   25.4573 H   0  0  0  0  0  0
  -27.8697  -30.4366   23.9282 H   0  0  0  0  0  0
  -27.2649  -33.3632   26.2084 H   0  0  0  0  0  0
  -28.3857  -32.6893   25.0338 H   0  0  0  0  0  0
  -28.0698  -31.8452   26.5424 H   0  0  0  0  0  0
  -28.2588  -38.0113   24.7517 H   0  0  0  0  0  0
  -28.1082  -36.2639   24.6278 H   0  0  0  0  0  0
  -27.2295  -37.1443   25.8868 H   0  0  0  0  0  0
  -20.9315  -29.8793   21.6978 H   0  0  0  0  0  0
  -26.0171  -38.2865   24.1436 H   0  0  0  0  0  0
  -28.5122  -24.3506   18.3454 H   0  0  0  0  0  0
  -29.3810  -23.4700   22.4732 H   0  0  0  0  0  0
  -29.6006  -22.2401   17.6765 H   0  0  0  0  0  0
  -30.4960  -21.3696   21.8040 H   0  0  0  0  0  0
  -33.1501  -21.7350   18.1081 H   0  0  0  0  0  0
  -32.3440  -22.6949   19.3170 H   0  0  0  0  0  0
  -33.0373  -18.5655   19.8292 H   0  0  0  0  0  0
  -33.5704  -19.4196   18.4046 H   0  0  0  0  0  0
  -34.1608  -22.4310   20.9192 H   0  0  0  0  0  0
  -34.7621  -23.0885   19.4099 H   0  0  0  0  0  0
  -35.4236  -19.0064   20.0773 H   0  0  0  0  0  0
  -34.5235  -19.8812   21.2988 H   0  0  0  0  0  0
  -28.6686  -17.6506   15.6282 H   0  0  0  0  0  0
  -28.3180  -17.8944   17.3250 H   0  0  0  0  0  0
  -29.2206  -16.4710   16.8047 H   0  0  0  0  0  0
  -30.9855  -17.9804   14.6879 H   0  0  0  0  0  0
  -31.6326  -16.7776   15.7962 H   0  0  0  0  0  0
  -32.3354  -18.3928   15.7298 H   0  0  0  0  0  0
  -28.5239  -25.6372   21.9254 H   0  0  0  0  0  0
  -27.1217  -25.1233   21.0438 H   0  0  0  0  0  0
  -31.4226  -17.7748   20.7710 H   0  0  0  0  0  0
  -30.0467  -18.6389   21.3556 H   0  0  0  0  0  0
  -29.4393  -16.4913   19.2893 H   0  0  0  0  0  0
  -28.5090  -17.0200   20.6281 H   0  0  0  0  0  0
  -31.1391  -20.6536   18.1509 H   0  0  0  0  0  0
  -30.1974  -19.3721   16.5636 H   0  0  0  0  0  0
  -29.3311  -19.1190   18.9697 H   0  0  0  0  0  0
  -29.1223  -15.1623   21.6241 H   0  0  0  0  0  0
  -36.1146  -21.2956   20.3112 H   0  0  0  0  0  0
  -35.5932  -20.9858   18.7989 H   0  0  0  0  0  0
  -31.9563  -18.4870   18.0660 H   0  0  0  0  0  0
  -31.0004  -17.2171   18.3795 H   0  0  0  0  0  0
  1 25  1  0  0  0
  1 30  2  0  0  0
  1 90  1  0  0  0
  2  3  1  0  0  0
  2 25  1  0  0  0
  2 93  1  0  0  0
  2 94  1  0  0  0
  3  4  1  0  0  0
  3 95  1  0  0  0
  3 96  1  0  0  0
  4  5  1  0  0  0
  4 97  1  0  0  0
  4 98  1  0  0  0
  5  6  1  0  0  0
  5 26  1  0  0  0
  5 99  1  0  0  0
  6 25  1  0  0  0
  6100  1  0  0  0
  6101  1  0  0  0
  7  8  2  0  0  0
  7 26  1  0  0  0
  7 29  1  0  0  0
  8  9  1  0  0  0
  8 22  1  0  0  0
  9 10  1  0  0  0
  9 27  2  0  0  0
 10 11  2  0  0  0
 10 15  1  0  0  0
 11 12  1  0  0  0
 11102  1  0  0  0
 12 13  2  0  0  0
 12103  1  0  0  0
 13 14  1  0  0  0
 13 31  1  0  0  0
 14 15  2  0  0  0
 14104  1  0  0  0
 15105  1  0  0  0
 16 17  2  0  0  0
 16 21  1  0  0  0
 16 31  1  0  0  0
 17 18  1  0  0  0
 17106  1  0  0  0
 18 19  2  0  0  0
 18107  1  0  0  0
 19 20  1  0  0  0
 19 24  1  0  0  0
 20 21  2  0  0  0
 20108  1  0  0  0
 21 23  1  0  0  0
 22 28  1  0  0  0
 22 32  2  0  0  0
 26 27  1  0  0  0
 28109  1  0  0  0
 28110  1  0  0  0
 29111  1  0  0  0
 29112  1  0  0  0
 33 34  1  0  0  0
 33 66  1  0  0  0
 33 70  2  0  0  0
 34 36  1  0  0  0
 34 59  1  0  0  0
 34113  1  0  0  0
 35 44  2  0  0  0
 35 45  1  0  0  0
 35 68  1  0  0  0
 36 56  1  0  0  0
 36114  1  0  0  0
 37 39  1  0  0  0
 37 47  1  0  0  0
 37 66  1  0  0  0
 37115  1  0  0  0
 38 43  2  0  0  0
 38 46  1  0  0  0
 38 47  1  0  0  0
 39 64  1  0  0  0
 39 67  2  0  0  0
 40 52  1  0  0  0
 40 53  2  0  0  0
 40 58  1  0  0  0
 41116  1  0  0  0
 41117  1  0  0  0
 41118  1  0  0  0
 41 48  1  0  0  0
 42 43  1  0  0  0
 42 66  1  0  0  0
 42119  1  0  0  0
 42120  1  0  0  0
 43 44  1  0  0  0
 44121  1  0  0  0
 45 46  2  0  0  0
 45122  1  0  0  0
 46123  1  0  0  0
 47124  1  0  0  0
 47125  1  0  0  0
 48 56  1  0  0  0
 48 65  1  0  0  0
 48126  1  0  0  0
 49 50  1  0  0  0
 49 53  1  0  0  0
 49 64  1  0  0  0
 49127  1  0  0  0
 50 51  1  0  0  0
 50128  1  0  0  0
 50129  1  0  0  0
 51 52  1  0  0  0
 51130  1  0  0  0
 51131  1  0  0  0
 52132  1  0  0  0
 52133  1  0  0  0
 53 54  1  0  0  0
 54 55  2  0  0  0
 54134  1  0  0  0
 55 57  1  0  0  0
 55135  1  0  0  0
 56 69  2  0  0  0
 57 58  2  0  0  0
 57136  1  0  0  0
 58137  1  0  0  0
 59 60  1  0  0  0
 59 61  1  0  0  0
 59 62  1  0  0  0
 60138  1  0  0  0
 60139  1  0  0  0
 60140  1  0  0  0
 61141  1  0  0  0
 61142  1  0  0  0
 61143  1  0  0  0
 62144  1  0  0  0
 62145  1  0  0  0
 62146  1  0  0  0
 63 65  1  0  0  0
 63147  1  0  0  0
 63148  1  0  0  0
 63149  1  0  0  0
 64150  1  0  0  0
 65151  1  0  0  0
 68 83  1  0  0  0
 71 73  2  0  0  0
 71 75  1  0  0  0
 71152  1  0  0  0
 72 74  1  0  0  0
 72 75  2  0  0  0
 72153  1  0  0  0
 73 76  1  0  0  0
 73154  1  0  0  0
 74 76  2  0  0  0
 74155  1  0  0  0
 75 83  1  0  0  0
 76 86  1  0  0  0
 77 79  1  0  0  0
 77 89  1  0  0  0
 77156  1  0  0  0
 77157  1  0  0  0
 78 80  1  0  0  0
 78 89  1  0  0  0
 78158  1  0  0  0
 78159  1  0  0  0
 79 91  1  0  0  0
 79160  1  0  0  0
 79161  1  0  0  0
 80 91  1  0  0  0
 80162  1  0  0  0
 80163  1  0  0  0
 81164  1  0  0  0
 81165  1  0  0  0
 81166  1  0  0  0
 81 87  1  0  0  0
 82 87  1  0  0  0
 82167  1  0  0  0
 82168  1  0  0  0
 82169  1  0  0  0
 83170  1  0  0  0
 83171  1  0  0  0
 84 85  1  0  0  0
 84172  1  0  0  0
 84173  1  0  0  0
 84 88  1  0  0  0
 85 90  1  0  0  0
 85174  1  0  0  0
 85175  1  0  0  0
 86 88  1  0  0  0
 86 89  1  0  0  0
 86176  1  0  0  0
 87 92  1  0  0  0
 87177  1  0  0  0
 88 92  1  0  0  0
 88178  1  0  0  0
 90179  1  0  0  0
 91180  1  0  0  0
 91181  1  0  0  0
 92182  1  0  0  0
 92183  1  0  0  0
M  CHG  2  91   1  92   1
M  ISO  4   1 100  68 101  83 101  90 100
M  END
> <chiral flag>
0

> <version>
0

> <s_m_source_file>
/data/baiqing/PycharmProjects/Reinvent-master-3.2/result/LINK_invent/BTK/process_docking_weight1_custom_sum_contain_oxygen_bond_distance_aromatic_linkinvent_7_9_3/rearranged_h_0129.sdf

> <i_m_source_file_index>
13

> <r_mmod_Potential_Energy-OPLS-2005>
-181.283569335938

> <r_mmod_Stretch_Energy-OPLS-2005>
61.0648574829102

> <r_mmod_Bend_Energy-OPLS-2005>
144.937805175781

> <r_mmod_Torsional_Energy-OPLS-2005>
307.860321044922

> <r_mmod_Improper_Torsional_Energy-OPLS-2005>
10.1730728149414

> <r_mmod_Van_der_Waal_Energy-OPLS-2005>
153.284652709961

> <r_mmod_Electrostatic_Energy-OPLS-2005>
42.3156967163086

> <r_mmod_Solvation_Energy-OPLS-2005>
-922.276062011719

> <b_mmod_Minimization_Converged-OPLS-2005>
0

> <r_mmod_RMS_Derivative-OPLS-2005>
3.64208674430847

$$$$
13
                    3D
 Structure written by MMmdl.
155163  0  0  1  0            999 V2000
  -30.6164  -14.7263   20.4631 C   0  0  0  0  0  0
  -30.4411  -12.4463   19.4549 C   0  0  0  0  0  0
  -29.5011  -12.4750   18.2286 C   0  0  0  0  0  0
  -28.0368  -12.2847   18.6679 C   0  0  0  0  0  0
  -27.6420  -13.2149   19.8443 C   0  0  2  0  0  0
  -28.6917  -13.1546   20.9748 C   0  0  0  0  0  0
  -25.2546  -13.8170   20.5712 C   0  0  0  0  0  0
  -24.1808  -13.0431   20.9219 C   0  0  0  0  0  0
  -24.6372  -11.6908   20.8769 C   0  0  0  0  0  0
  -23.9052  -10.4292   21.0431 C   0  0  0  0  0  0
  -24.3595   -9.4206   21.9210 C   0  0  0  0  0  0
  -23.6277   -8.2238   22.0776 C   0  0  0  0  0  0
  -22.4267   -8.0280   21.3550 C   0  0  0  0  0  0
  -21.9912   -9.0251   20.4652 C   0  0  0  0  0  0
  -22.7237  -10.2128   20.3069 C   0  0  0  0  0  0
  -21.6838   -6.0733   22.5282 C   0  0  0  0  0  0
  -21.4005   -6.5640   23.8211 C   0  0  0  0  0  0
  -21.3654   -5.6798   24.9183 C   0  0  0  0  0  0
  -21.6035   -4.3060   24.7236 C   0  0  0  0  0  0
  -21.8819   -3.8149   23.4358 C   0  0  0  0  0  0
  -21.9192   -4.6961   22.3411 C   0  0  0  0  0  0
  -22.7837  -13.5237   21.1861 C   0  0  0  0  0  0
  -22.1659   -4.2146   21.0986 F   0  0  0  0  0  0
  -21.5629   -3.4540   25.7752 F   0  0  0  0  0  0
  -29.9902  -13.5049   20.3845 N   0  0  0  0  0  0
  -26.2943  -12.9332   20.3289 N   0  0  0  0  0  0
  -25.9296  -11.6496   20.5785 N   0  0  0  0  0  0
  -22.0445  -12.8223   22.0381 N   0  0  0  0  0  0
  -25.4286  -15.1887   20.4111 N   0  0  0  0  0  0
  -31.8133  -14.8310   20.1841 O   0  0  0  0  0  0
  -21.6626   -6.8873   21.4243 O   0  0  0  0  0  0
  -22.3549  -14.5558   20.6726 O   0  0  0  0  0  0
  -24.6294  -31.8518   23.1971 C   0  0  0  0  0  0
  -25.9102  -32.4746   23.8340 C   0  0  1  0  0  0
  -27.2366  -27.2737   20.1325 C   0  0  0  0  0  0
  -25.5894  -33.8549   24.2245 N   0  0  0  0  0  0
  -23.4292  -30.4710   21.5405 C   0  0  2  0  0  0
  -24.8814  -28.9129   20.1188 C   0  0  0  0  0  0
  -22.7501  -29.4558   22.4911 C   0  0  0  0  0  0
  -18.0299  -28.1372   22.8488 C   0  0  0  0  0  0
  -24.1471  -36.7262   23.2632 C   0  0  0  0  0  0
  -25.9731  -30.7695   21.3740 C   0  0  0  0  0  0
  -26.0521  -29.3915   20.7213 C   0  0  0  0  0  0
  -27.2362  -28.5863   20.7095 C   0  0  0  0  0  0
  -26.0420  -26.8527   19.5114 C   0  0  0  0  0  0
  -24.8794  -27.6502   19.5055 C   0  0  0  0  0  0
  -23.6507  -29.7976   20.1616 C   0  0  0  0  0  0
  -25.4095  -36.3060   24.0315 C   0  0  1  0  0  0
  -20.5900  -28.3666   23.1259 C   0  0  2  0  0  0
  -20.6762  -26.9384   22.5387 C   0  0  0  0  0  0
  -19.5745  -26.6389   21.5174 C   0  0  0  0  0  0
  -18.1927  -26.7930   22.1605 C   0  0  0  0  0  0
  -19.1555  -28.8840   23.2864 C   0  0  0  0  0  0
  -18.9482  -30.1448   23.8873 C   0  0  0  0  0  0
  -17.6480  -30.6572   24.0567 C   0  0  0  0  0  0
  -25.9051  -34.9427   23.5088 C   0  0  0  0  0  0
  -16.5368  -29.9067   23.6341 C   0  0  0  0  0  0
  -16.7289  -28.6493   23.0348 C   0  0  0  0  0  0
  -26.4506  -31.6583   25.0721 C   0  0  0  0  0  0
  -25.3747  -31.3623   26.1437 C   0  0  0  0  0  0
  -27.0412  -30.3042   24.6165 C   0  0  0  0  0  0
  -27.6058  -32.4348   25.7498 C   0  0  0  0  0  0
  -27.5581  -37.1743   24.8432 C   0  0  0  0  0  0
  -21.4209  -29.3008   22.3647 N   0  0  0  0  0  0
  -26.4248  -37.3783   23.9454 N   0  0  0  0  0  0
  -24.6964  -31.0475   22.0959 N   0  0  0  0  0  0
  -23.4194  -28.8081   23.2997 O   0  0  0  0  0  0
  -28.3473  -26.4019   20.1281 O   0  0  0  0  0  0
  -26.5652  -34.8890   22.4676 O   0  0  0  0  0  0
  -23.5435  -32.1368   23.7243 O   0  0  0  0  0  0
  -28.3017  -22.2560   20.6538 C   0  0  0  0  0  0
  -30.4151  -22.0163   19.5519 C   0  0  0  0  0  0
  -29.1991  -21.1354   19.9742 C   0  0  1  0  0  0
  -28.6940  -23.6549   20.0131 C   0  0  1  0  0  0
  -28.2018  -25.0315   20.7259 C   0  0  0  0  0  0
  -30.2233  -17.3001   20.9203 C   0  0  0  0  0  0
  -29.4446  -18.5153   20.1889 C   0  0  0  0  0  0
  -29.8330  -15.8476   20.6651 N   0  0  0  0  0  0
  -29.6006  -19.9063   20.7701 N   0  0  0  0  0  0
  -30.1570  -23.4424   19.9304 N   0  3  0  0  0  0
  -31.4745  -12.5894   19.1325 H   0  0  0  0  0  0
  -30.4138  -11.4715   19.9457 H   0  0  0  0  0  0
  -29.7797  -11.6887   17.5249 H   0  0  0  0  0  0
  -29.6081  -13.4211   17.6964 H   0  0  0  0  0  0
  -27.9321  -11.2451   18.9837 H   0  0  0  0  0  0
  -27.3587  -12.4169   17.8244 H   0  0  0  0  0  0
  -27.6380  -14.2276   19.4421 H   0  0  0  0  0  0
  -28.7287  -12.1576   21.4161 H   0  0  0  0  0  0
  -28.4309  -13.8363   21.7859 H   0  0  0  0  0  0
  -25.2721   -9.5675   22.4818 H   0  0  0  0  0  0
  -23.9968   -7.4633   22.7509 H   0  0  0  0  0  0
  -21.0851   -8.8771   19.8958 H   0  0  0  0  0  0
  -22.3705  -10.9667   19.6190 H   0  0  0  0  0  0
  -21.1990   -7.6148   23.9718 H   0  0  0  0  0  0
  -21.1473   -6.0529   25.9083 H   0  0  0  0  0  0
  -22.0601   -2.7611   23.2867 H   0  0  0  0  0  0
  -22.4011  -11.9825   22.4711 H   0  0  0  0  0  0
  -21.1074  -13.1270   22.2590 H   0  0  0  0  0  0
  -24.6647  -15.8467   20.5286 H   0  0  0  0  0  0
  -26.2751  -15.6221   20.0655 H   0  0  0  0  0  0
  -26.7156  -32.5397   23.1069 H   0  0  0  0  0  0
  -24.9980  -33.9696   25.0351 H   0  0  0  0  0  0
  -22.7259  -31.2913   21.3858 H   0  0  0  0  0  0
  -23.3777  -35.9543   23.3207 H   0  0  0  0  0  0
  -24.3583  -36.9025   22.2071 H   0  0  0  0  0  0
  -23.7168  -37.6391   23.6752 H   0  0  0  0  0  0
  -26.0965  -31.5272   20.5990 H   0  0  0  0  0  0
  -26.8558  -30.8313   21.9998 H   0  0  0  0  0  0
  -28.1400  -28.9556   21.1722 H   0  0  0  0  0  0
  -26.0005  -25.8842   19.0316 H   0  0  0  0  0  0
  -23.9795  -27.2814   19.0329 H   0  0  0  0  0  0
  -23.7753  -30.5684   19.4013 H   0  0  0  0  0  0
  -22.7735  -29.2249   19.8570 H   0  0  0  0  0  0
  -25.1257  -36.1884   25.0794 H   0  0  0  0  0  0
  -20.9989  -28.3248   24.1379 H   0  0  0  0  0  0
  -20.5645  -26.2256   23.3575 H   0  0  0  0  0  0
  -21.6623  -26.7387   22.1187 H   0  0  0  0  0  0
  -19.6890  -25.6314   21.1182 H   0  0  0  0  0  0
  -19.6691  -27.3213   20.6714 H   0  0  0  0  0  0
  -17.4186  -26.6690   21.4011 H   0  0  0  0  0  0
  -18.0338  -26.0050   22.8981 H   0  0  0  0  0  0
  -19.7949  -30.7270   24.2233 H   0  0  0  0  0  0
  -17.5029  -31.6253   24.5166 H   0  0  0  0  0  0
  -15.5368  -30.2951   23.7690 H   0  0  0  0  0  0
  -15.8690  -28.0820   22.7049 H   0  0  0  0  0  0
  -24.5928  -30.6999   25.7705 H   0  0  0  0  0  0
  -24.8906  -32.2729   26.4965 H   0  0  0  0  0  0
  -25.8081  -30.8706   27.0161 H   0  0  0  0  0  0
  -26.3012  -29.6726   24.1237 H   0  0  0  0  0  0
  -27.4236  -29.7340   25.4644 H   0  0  0  0  0  0
  -27.8804  -30.4404   23.9337 H   0  0  0  0  0  0
  -27.2708  -33.3702   26.1991 H   0  0  0  0  0  0
  -28.3905  -32.6843   25.0338 H   0  0  0  0  0  0
  -28.0683  -31.8525   26.5480 H   0  0  0  0  0  0
  -28.2439  -38.0186   24.7715 H   0  0  0  0  0  0
  -28.1253  -36.2745   24.6002 H   0  0  0  0  0  0
  -27.2331  -37.1065   25.8825 H   0  0  0  0  0  0
  -20.9390  -29.8775   21.6893 H   0  0  0  0  0  0
  -26.0108  -38.2811   24.1641 H   0  0  0  0  0  0
  -28.5112  -22.2945   21.7265 H   0  0  0  0  0  0
  -27.2364  -22.0480   20.5491 H   0  0  0  0  0  0
  -30.5541  -21.9563   18.4714 H   0  0  0  0  0  0
  -31.3448  -21.6774   20.0107 H   0  0  0  0  0  0
  -28.6895  -20.8033   19.0659 H   0  0  0  0  0  0
  -28.3143  -23.6699   18.9896 H   0  0  0  0  0  0
  -28.6796  -25.0873   21.7039 H   0  0  0  0  0  0
  -27.1484  -24.8806   20.9592 H   0  0  0  0  0  0
  -30.1059  -17.4382   21.9956 H   0  0  0  0  0  0
  -31.2925  -17.4143   20.7363 H   0  0  0  0  0  0
  -28.3775  -18.2888   20.1669 H   0  0  0  0  0  0
  -29.7635  -18.5378   19.1449 H   0  0  0  0  0  0
  -28.8494  -15.6481   20.7692 H   0  0  0  0  0  0
  -29.1907  -19.9332   21.7011 H   0  0  0  0  0  0
  -30.6097  -24.0756   19.2893 H   0  0  0  0  0  0
  -30.5607  -23.5808   20.8439 H   0  0  0  0  0  0
  1 25  1  0  0  0
  1 30  2  0  0  0
  1 78  1  0  0  0
  2  3  1  0  0  0
  2 25  1  0  0  0
  2 81  1  0  0  0
  2 82  1  0  0  0
  3  4  1  0  0  0
  3 83  1  0  0  0
  3 84  1  0  0  0
  4  5  1  0  0  0
  4 85  1  0  0  0
  4 86  1  0  0  0
  5  6  1  0  0  0
  5 26  1  0  0  0
  5 87  1  0  0  0
  6 25  1  0  0  0
  6 88  1  0  0  0
  6 89  1  0  0  0
  7  8  2  0  0  0
  7 26  1  0  0  0
  7 29  1  0  0  0
  8  9  1  0  0  0
  8 22  1  0  0  0
  9 10  1  0  0  0
  9 27  2  0  0  0
 10 11  2  0  0  0
 10 15  1  0  0  0
 11 12  1  0  0  0
 11 90  1  0  0  0
 12 13  2  0  0  0
 12 91  1  0  0  0
 13 14  1  0  0  0
 13 31  1  0  0  0
 14 15  2  0  0  0
 14 92  1  0  0  0
 15 93  1  0  0  0
 16 17  2  0  0  0
 16 21  1  0  0  0
 16 31  1  0  0  0
 17 18  1  0  0  0
 17 94  1  0  0  0
 18 19  2  0  0  0
 18 95  1  0  0  0
 19 20  1  0  0  0
 19 24  1  0  0  0
 20 21  2  0  0  0
 20 96  1  0  0  0
 21 23  1  0  0  0
 22 28  1  0  0  0
 22 32  2  0  0  0
 26 27  1  0  0  0
 28 97  1  0  0  0
 28 98  1  0  0  0
 29 99  1  0  0  0
 29100  1  0  0  0
 33 34  1  0  0  0
 33 66  1  0  0  0
 33 70  2  0  0  0
 34 36  1  0  0  0
 34 59  1  0  0  0
 34101  1  0  0  0
 35 44  2  0  0  0
 35 45  1  0  0  0
 35 68  1  0  0  0
 36 56  1  0  0  0
 36102  1  0  0  0
 37 39  1  0  0  0
 37 47  1  0  0  0
 37 66  1  0  0  0
 37103  1  0  0  0
 38 43  2  0  0  0
 38 46  1  0  0  0
 38 47  1  0  0  0
 39 64  1  0  0  0
 39 67  2  0  0  0
 40 52  1  0  0  0
 40 53  2  0  0  0
 40 58  1  0  0  0
 41104  1  0  0  0
 41105  1  0  0  0
 41106  1  0  0  0
 41 48  1  0  0  0
 42 43  1  0  0  0
 42 66  1  0  0  0
 42107  1  0  0  0
 42108  1  0  0  0
 43 44  1  0  0  0
 44109  1  0  0  0
 45 46  2  0  0  0
 45110  1  0  0  0
 46111  1  0  0  0
 47112  1  0  0  0
 47113  1  0  0  0
 48 56  1  0  0  0
 48 65  1  0  0  0
 48114  1  0  0  0
 49 50  1  0  0  0
 49 53  1  0  0  0
 49 64  1  0  0  0
 49115  1  0  0  0
 50 51  1  0  0  0
 50116  1  0  0  0
 50117  1  0  0  0
 51 52  1  0  0  0
 51118  1  0  0  0
 51119  1  0  0  0
 52120  1  0  0  0
 52121  1  0  0  0
 53 54  1  0  0  0
 54 55  2  0  0  0
 54122  1  0  0  0
 55 57  1  0  0  0
 55123  1  0  0  0
 56 69  2  0  0  0
 57 58  2  0  0  0
 57124  1  0  0  0
 58125  1  0  0  0
 59 60  1  0  0  0
 59 61  1  0  0  0
 59 62  1  0  0  0
 60126  1  0  0  0
 60127  1  0  0  0
 60128  1  0  0  0
 61129  1  0  0  0
 61130  1  0  0  0
 61131  1  0  0  0
 62132  1  0  0  0
 62133  1  0  0  0
 62134  1  0  0  0
 63 65  1  0  0  0
 63135  1  0  0  0
 63136  1  0  0  0
 63137  1  0  0  0
 64138  1  0  0  0
 65139  1  0  0  0
 68 75  1  0  0  0
 71 73  1  0  0  0
 71 74  1  0  0  0
 71140  1  0  0  0
 71141  1  0  0  0
 72 73  1  0  0  0
 72 80  1  0  0  0
 72142  1  0  0  0
 72143  1  0  0  0
 73 79  1  0  0  0
 73144  1  0  0  0
 74 75  1  0  0  0
 74 80  1  0  0  0
 74145  1  0  0  0
 75146  1  0  0  0
 75147  1  0  0  0
 76 77  1  0  0  0
 76 78  1  0  0  0
 76148  1  0  0  0
 76149  1  0  0  0
 77 79  1  0  0  0
 77150  1  0  0  0
 77151  1  0  0  0
 78152  1  0  0  0
 79153  1  0  0  0
 80154  1  0  0  0
 80155  1  0  0  0
M  CHG  1  80   1
M  ISO  4   1 100  68 101  75 101  78 100
M  END
> <chiral flag>
0

> <version>
0

> <s_m_source_file>
/data/baiqing/PycharmProjects/Reinvent-master-3.2/result/LINK_invent/BTK/process_docking_weight1_custom_sum_contain_oxygen_bond_distance_aromatic_linkinvent_7_9_3/rearranged_h_0129.sdf

> <i_m_source_file_index>
14

> <r_mmod_Potential_Energy-OPLS-2005>
34.837574005127

> <r_mmod_Stretch_Energy-OPLS-2005>
110.302040100098

> <r_mmod_Bend_Energy-OPLS-2005>
200.179504394531

> <r_mmod_Torsional_Energy-OPLS-2005>
287.640228271484

> <r_mmod_Improper_Torsional_Energy-OPLS-2005>
4.2253623008728

> <r_mmod_Van_der_Waal_Energy-OPLS-2005>
115.168182373047

> <r_mmod_Electrostatic_Energy-OPLS-2005>
-303.889831542969

> <r_mmod_Solvation_Energy-OPLS-2005>
-457.15771484375

> <b_mmod_Minimization_Converged-OPLS-2005>
0

> <r_mmod_RMS_Derivative-OPLS-2005>
2.81109619140625

$$$$
14
                    3D
 Structure written by MMmdl.
174183  0  0  1  0            999 V2000
  -30.6887  -14.5542   20.5251 C   0  0  0  0  0  0
  -30.4217  -12.3479   19.4373 C   0  0  0  0  0  0
  -29.4942  -12.4937   18.2135 C   0  0  0  0  0  0
  -28.0191  -12.3426   18.6318 C   0  0  0  0  0  0
  -27.6531  -13.2151   19.8624 C   0  0  2  0  0  0
  -28.6987  -13.0633   20.9896 C   0  0  0  0  0  0
  -25.2556  -13.8175   20.5683 C   0  0  0  0  0  0
  -24.1823  -13.0441   20.9193 C   0  0  0  0  0  0
  -24.6390  -11.6913   20.8747 C   0  0  0  0  0  0
  -23.9068  -10.4296   21.0414 C   0  0  0  0  0  0
  -24.3618   -9.4206   21.9188 C   0  0  0  0  0  0
  -23.6291   -8.2243   22.0755 C   0  0  0  0  0  0
  -22.4272   -8.0282   21.3547 C   0  0  0  0  0  0
  -21.9912   -9.0257   20.4649 C   0  0  0  0  0  0
  -22.7243  -10.2137   20.3059 C   0  0  0  0  0  0
  -21.6853   -6.0738   22.5279 C   0  0  0  0  0  0
  -21.4013   -6.5643   23.8214 C   0  0  0  0  0  0
  -21.3659   -5.6792   24.9176 C   0  0  0  0  0  0
  -21.6041   -4.3055   24.7224 C   0  0  0  0  0  0
  -21.8820   -3.8148   23.4347 C   0  0  0  0  0  0
  -21.9192   -4.6966   22.3403 C   0  0  0  0  0  0
  -22.7842  -13.5230   21.1858 C   0  0  0  0  0  0
  -22.1660   -4.2151   21.0980 F   0  0  0  0  0  0
  -21.5631   -3.4540   25.7742 F   0  0  0  0  0  0
  -30.0177  -13.3710   20.4176 N   0  0  0  0  0  0
  -26.2987  -12.9359   20.3333 N   0  0  0  0  0  0
  -25.9320  -11.6515   20.5775 N   0  0  0  0  0  0
  -22.0493  -12.8215   22.0418 N   0  0  0  0  0  0
  -25.4267  -15.1897   20.4089 N   0  0  0  0  0  0
  -31.8515  -14.6813   20.1353 O   0  0  0  0  0  0
  -21.6636   -6.8875   21.4241 O   0  0  0  0  0  0
  -22.3524  -14.5545   20.6723 O   0  0  0  0  0  0
  -24.6194  -31.8643   23.2065 C   0  0  0  0  0  0
  -25.9061  -32.4812   23.8382 C   0  0  1  0  0  0
  -27.2303  -27.3917   20.1048 C   0  0  0  0  0  0
  -25.5906  -33.8610   24.2319 N   0  0  0  0  0  0
  -23.4115  -30.4861   21.5476 C   0  0  2  0  0  0
  -24.8608  -28.9496   20.1097 C   0  0  0  0  0  0
  -22.7443  -29.4641   22.4973 C   0  0  0  0  0  0
  -18.0276  -28.1386   22.8487 C   0  0  0  0  0  0
  -24.1485  -36.7302   23.2638 C   0  0  0  0  0  0
  -25.9444  -30.8179   21.3658 C   0  0  0  0  0  0
  -26.0234  -29.4491   20.7116 C   0  0  0  0  0  0
  -27.2156  -28.6766   20.7069 C   0  0  0  0  0  0
  -26.0553  -26.9239   19.4832 C   0  0  0  0  0  0
  -24.8737  -27.6888   19.4891 C   0  0  0  0  0  0
  -23.6225  -29.8180   20.1624 C   0  0  0  0  0  0
  -25.4102  -36.3104   24.0340 C   0  0  1  0  0  0
  -20.5869  -28.3675   23.1311 C   0  0  2  0  0  0
  -20.6762  -26.9409   22.5420 C   0  0  0  0  0  0
  -19.5744  -26.6384   21.5218 C   0  0  0  0  0  0
  -18.1919  -26.7930   22.1618 C   0  0  0  0  0  0
  -19.1526  -28.8843   23.2899 C   0  0  0  0  0  0
  -18.9457  -30.1447   23.8915 C   0  0  0  0  0  0
  -17.6461  -30.6592   24.0559 C   0  0  0  0  0  0
  -25.9037  -34.9469   23.5126 C   0  0  0  0  0  0
  -16.5351  -29.9090   23.6329 C   0  0  0  0  0  0
  -16.7264  -28.6504   23.0355 C   0  0  0  0  0  0
  -26.4478  -31.6599   25.0721 C   0  0  0  0  0  0
  -25.3736  -31.3696   26.1465 C   0  0  0  0  0  0
  -27.0324  -30.3045   24.6109 C   0  0  0  0  0  0
  -27.6061  -32.4310   25.7475 C   0  0  0  0  0  0
  -27.5574  -37.1797   24.8465 C   0  0  0  0  0  0
  -21.4161  -29.3037   22.3713 N   0  0  0  0  0  0
  -26.4284  -37.3791   23.9418 N   0  0  0  0  0  0
  -24.6771  -31.0712   22.0981 N   0  0  0  0  0  0
  -23.4195  -28.8191   23.3037 O   0  0  0  0  0  0
  -28.3277  -26.5463   20.1362 O   0  0  0  0  0  0
  -26.5603  -34.8919   22.4693 O   0  0  0  0  0  0
  -23.5370  -32.1403   23.7434 O   0  0  0  0  0  0
  -28.4118  -23.3171   19.8685 C   0  0  0  0  0  0
  -28.7538  -21.9358   19.8271 C   0  0  0  0  0  0
  -29.5264  -23.5067   21.9958 C   0  0  0  0  0  0
  -28.7757  -24.1249   20.9707 C   0  0  0  0  0  0
  -29.8793  -22.1294   21.9693 C   0  0  0  0  0  0
  -29.4621  -21.2995   20.8837 C   0  0  0  0  0  0
  -30.8184  -17.8738   19.8813 C   0  0  0  0  0  0
  -29.7634  -17.8208   22.2665 C   0  0  0  0  0  0
  -29.9705  -19.1602   19.6337 C   0  0  0  0  0  0
  -28.9555  -19.0636   21.8092 C   0  0  0  0  0  0
  -30.5031  -17.0172   21.1549 C   0  0  0  0  0  0
  -32.9123  -23.1945   21.0131 C   0  0  0  0  0  0
  -29.9170  -21.6530   24.4564 C   0  0  0  0  0  0
  -28.2338  -25.5615   21.1985 C   0  0  0  0  0  0
  -33.0529  -22.1266   22.1087 C   0  0  0  0  0  0
  -32.0826  -22.2923   23.2964 C   0  0  0  0  0  0
  -30.7120  -21.5903   23.1400 C   0  0  2  0  0  0
  -29.7207  -19.8925   20.8757 N   0  0  0  0  0  0
  -29.9733  -15.6377   20.9278 N   0  0  0  0  0  0
  -31.4657  -12.4452   19.1345 H   0  0  0  0  0  0
  -30.3299  -11.3520   19.8741 H   0  0  0  0  0  0
  -29.7462  -11.7478   17.4588 H   0  0  0  0  0  0
  -29.6466  -13.4675   17.7450 H   0  0  0  0  0  0
  -27.8512  -11.2900   18.8634 H   0  0  0  0  0  0
  -27.3615  -12.5757   17.7939 H   0  0  0  0  0  0
  -27.6764  -14.2516   19.5250 H   0  0  0  0  0  0
  -28.6930  -12.0467   21.3837 H   0  0  0  0  0  0
  -28.4594  -13.7118   21.8335 H   0  0  0  0  0  0
  -25.2765   -9.5679   22.4763 H   0  0  0  0  0  0
  -24.0003   -7.4628   22.7473 H   0  0  0  0  0  0
  -21.0845   -8.8777   19.8949 H   0  0  0  0  0  0
  -22.3706  -10.9677   19.6167 H   0  0  0  0  0  0
  -21.2004   -7.6150   23.9719 H   0  0  0  0  0  0
  -21.1479   -6.0523   25.9078 H   0  0  0  0  0  0
  -22.0599   -2.7610   23.2848 H   0  0  0  0  0  0
  -22.4109  -11.9857   22.4774 H   0  0  0  0  0  0
  -21.1119  -13.1237   22.2659 H   0  0  0  0  0  0
  -24.6593  -15.8438   20.5167 H   0  0  0  0  0  0
  -26.2754  -15.6287   20.0754 H   0  0  0  0  0  0
  -26.7131  -32.5512   23.1143 H   0  0  0  0  0  0
  -25.0066  -33.9767   25.0468 H   0  0  0  0  0  0
  -22.7026  -31.3037   21.4035 H   0  0  0  0  0  0
  -23.3755  -35.9633   23.3318 H   0  0  0  0  0  0
  -24.3574  -36.8918   22.2053 H   0  0  0  0  0  0
  -23.7232  -37.6503   23.6646 H   0  0  0  0  0  0
  -26.0585  -31.5828   20.5964 H   0  0  0  0  0  0
  -26.8312  -30.8741   21.9850 H   0  0  0  0  0  0
  -28.1095  -29.0476   21.1863 H   0  0  0  0  0  0
  -26.0507  -25.9491   19.0153 H   0  0  0  0  0  0
  -23.9792  -27.3005   19.0213 H   0  0  0  0  0  0
  -23.7278  -30.5921   19.4015 H   0  0  0  0  0  0
  -22.7463  -29.2378   19.8678 H   0  0  0  0  0  0
  -25.1280  -36.1962   25.0832 H   0  0  0  0  0  0
  -20.9957  -28.3253   24.1433 H   0  0  0  0  0  0
  -20.5679  -26.2288   23.3615 H   0  0  0  0  0  0
  -21.6626  -26.7459   22.1199 H   0  0  0  0  0  0
  -19.6919  -25.6303   21.1231 H   0  0  0  0  0  0
  -19.6685  -27.3196   20.6757 H   0  0  0  0  0  0
  -17.4188  -26.6691   21.4015 H   0  0  0  0  0  0
  -18.0311  -26.0074   22.9011 H   0  0  0  0  0  0
  -19.7942  -30.7247   24.2299 H   0  0  0  0  0  0
  -17.5017  -31.6272   24.5158 H   0  0  0  0  0  0
  -15.5350  -30.2996   23.7648 H   0  0  0  0  0  0
  -15.8663  -28.0820   22.7085 H   0  0  0  0  0  0
  -24.5923  -30.7030   25.7788 H   0  0  0  0  0  0
  -24.8898  -32.2840   26.4910 H   0  0  0  0  0  0
  -25.8078  -30.8860   27.0227 H   0  0  0  0  0  0
  -26.2872  -29.6790   24.1176 H   0  0  0  0  0  0
  -27.4124  -29.7295   25.4566 H   0  0  0  0  0  0
  -27.8690  -30.4385   23.9246 H   0  0  0  0  0  0
  -27.2707  -33.3620   26.2057 H   0  0  0  0  0  0
  -28.3861  -32.6864   25.0284 H   0  0  0  0  0  0
  -28.0730  -31.8421   26.5384 H   0  0  0  0  0  0
  -28.2594  -38.0093   24.7513 H   0  0  0  0  0  0
  -28.1072  -36.2622   24.6287 H   0  0  0  0  0  0
  -27.2288  -37.1446   25.8869 H   0  0  0  0  0  0
  -20.9336  -29.8772   21.6935 H   0  0  0  0  0  0
  -26.0186  -38.2875   24.1422 H   0  0  0  0  0  0
  -27.8223  -23.7440   19.0691 H   0  0  0  0  0  0
  -28.4214  -21.3534   18.9804 H   0  0  0  0  0  0
  -29.8120  -24.0997   22.8525 H   0  0  0  0  0  0
  -31.8537  -18.2071   19.9701 H   0  0  0  0  0  0
  -30.8105  -17.2502   18.9863 H   0  0  0  0  0  0
  -29.1218  -17.1627   22.8536 H   0  0  0  0  0  0
  -30.5150  -18.1754   22.9730 H   0  0  0  0  0  0
  -29.0158  -18.8878   19.1800 H   0  0  0  0  0  0
  -30.4828  -19.8023   18.9153 H   0  0  0  0  0  0
  -28.6390  -19.6413   22.6770 H   0  0  0  0  0  0
  -28.0363  -18.7383   21.3176 H   0  0  0  0  0  0
  -31.4834  -16.8199   21.5963 H   0  0  0  0  0  0
  -33.6893  -23.0787   20.2565 H   0  0  0  0  0  0
  -33.0058  -24.1993   21.4272 H   0  0  0  0  0  0
  -31.9535  -23.1288   20.5003 H   0  0  0  0  0  0
  -28.9641  -21.1311   24.3705 H   0  0  0  0  0  0
  -29.7028  -22.6803   24.7500 H   0  0  0  0  0  0
  -30.4713  -21.1884   25.2726 H   0  0  0  0  0  0
  -28.7431  -25.9903   22.0627 H   0  0  0  0  0  0
  -27.1977  -25.4332   21.5182 H   0  0  0  0  0  0
  -34.0730  -22.1806   22.4928 H   0  0  0  0  0  0
  -32.9513  -21.1298   21.6772 H   0  0  0  0  0  0
  -31.9559  -23.3488   23.5345 H   0  0  0  0  0  0
  -32.5704  -21.8609   24.1726 H   0  0  0  0  0  0
  -30.9427  -20.5413   22.9686 H   0  0  0  0  0  0
  -29.0059  -15.4693   21.1606 H   0  0  0  0  0  0
  1 25  1  0  0  0
  1 30  2  0  0  0
  1 89  1  0  0  0
  2  3  1  0  0  0
  2 25  1  0  0  0
  2 90  1  0  0  0
  2 91  1  0  0  0
  3  4  1  0  0  0
  3 92  1  0  0  0
  3 93  1  0  0  0
  4  5  1  0  0  0
  4 94  1  0  0  0
  4 95  1  0  0  0
  5  6  1  0  0  0
  5 26  1  0  0  0
  5 96  1  0  0  0
  6 25  1  0  0  0
  6 97  1  0  0  0
  6 98  1  0  0  0
  7  8  2  0  0  0
  7 26  1  0  0  0
  7 29  1  0  0  0
  8  9  1  0  0  0
  8 22  1  0  0  0
  9 10  1  0  0  0
  9 27  2  0  0  0
 10 11  2  0  0  0
 10 15  1  0  0  0
 11 12  1  0  0  0
 11 99  1  0  0  0
 12 13  2  0  0  0
 12100  1  0  0  0
 13 14  1  0  0  0
 13 31  1  0  0  0
 14 15  2  0  0  0
 14101  1  0  0  0
 15102  1  0  0  0
 16 17  2  0  0  0
 16 21  1  0  0  0
 16 31  1  0  0  0
 17 18  1  0  0  0
 17103  1  0  0  0
 18 19  2  0  0  0
 18104  1  0  0  0
 19 20  1  0  0  0
 19 24  1  0  0  0
 20 21  2  0  0  0
 20105  1  0  0  0
 21 23  1  0  0  0
 22 28  1  0  0  0
 22 32  2  0  0  0
 26 27  1  0  0  0
 28106  1  0  0  0
 28107  1  0  0  0
 29108  1  0  0  0
 29109  1  0  0  0
 33 34  1  0  0  0
 33 66  1  0  0  0
 33 70  2  0  0  0
 34 36  1  0  0  0
 34 59  1  0  0  0
 34110  1  0  0  0
 35 44  2  0  0  0
 35 45  1  0  0  0
 35 68  1  0  0  0
 36 56  1  0  0  0
 36111  1  0  0  0
 37 39  1  0  0  0
 37 47  1  0  0  0
 37 66  1  0  0  0
 37112  1  0  0  0
 38 43  2  0  0  0
 38 46  1  0  0  0
 38 47  1  0  0  0
 39 64  1  0  0  0
 39 67  2  0  0  0
 40 52  1  0  0  0
 40 53  2  0  0  0
 40 58  1  0  0  0
 41113  1  0  0  0
 41114  1  0  0  0
 41115  1  0  0  0
 41 48  1  0  0  0
 42 43  1  0  0  0
 42 66  1  0  0  0
 42116  1  0  0  0
 42117  1  0  0  0
 43 44  1  0  0  0
 44118  1  0  0  0
 45 46  2  0  0  0
 45119  1  0  0  0
 46120  1  0  0  0
 47121  1  0  0  0
 47122  1  0  0  0
 48 56  1  0  0  0
 48 65  1  0  0  0
 48123  1  0  0  0
 49 50  1  0  0  0
 49 53  1  0  0  0
 49 64  1  0  0  0
 49124  1  0  0  0
 50 51  1  0  0  0
 50125  1  0  0  0
 50126  1  0  0  0
 51 52  1  0  0  0
 51127  1  0  0  0
 51128  1  0  0  0
 52129  1  0  0  0
 52130  1  0  0  0
 53 54  1  0  0  0
 54 55  2  0  0  0
 54131  1  0  0  0
 55 57  1  0  0  0
 55132  1  0  0  0
 56 69  2  0  0  0
 57 58  2  0  0  0
 57133  1  0  0  0
 58134  1  0  0  0
 59 60  1  0  0  0
 59 61  1  0  0  0
 59 62  1  0  0  0
 60135  1  0  0  0
 60136  1  0  0  0
 60137  1  0  0  0
 61138  1  0  0  0
 61139  1  0  0  0
 61140  1  0  0  0
 62141  1  0  0  0
 62142  1  0  0  0
 62143  1  0  0  0
 63 65  1  0  0  0
 63144  1  0  0  0
 63145  1  0  0  0
 63146  1  0  0  0
 64147  1  0  0  0
 65148  1  0  0  0
 68 84  1  0  0  0
 71 72  2  0  0  0
 71 74  1  0  0  0
 71149  1  0  0  0
 72 76  1  0  0  0
 72150  1  0  0  0
 73 74  2  0  0  0
 73 75  1  0  0  0
 73151  1  0  0  0
 74 84  1  0  0  0
 75 76  2  0  0  0
 75 87  1  0  0  0
 76 88  1  0  0  0
 77 79  1  0  0  0
 77 81  1  0  0  0
 77152  1  0  0  0
 77153  1  0  0  0
 78 80  1  0  0  0
 78 81  1  0  0  0
 78154  1  0  0  0
 78155  1  0  0  0
 79 88  1  0  0  0
 79156  1  0  0  0
 79157  1  0  0  0
 80 88  1  0  0  0
 80158  1  0  0  0
 80159  1  0  0  0
 81 89  1  0  0  0
 81160  1  0  0  0
 82 85  1  0  0  0
 82161  1  0  0  0
 82162  1  0  0  0
 82163  1  0  0  0
 83164  1  0  0  0
 83165  1  0  0  0
 83166  1  0  0  0
 83 87  1  0  0  0
 84167  1  0  0  0
 84168  1  0  0  0
 85 86  1  0  0  0
 85169  1  0  0  0
 85170  1  0  0  0
 86 87  1  0  0  0
 86171  1  0  0  0
 86172  1  0  0  0
 87173  1  0  0  0
 89174  1  0  0  0
M  ISO  4   1 100  68 101  84 101  89 100
M  END
> <chiral flag>
0

> <version>
0

> <s_m_source_file>
/data/baiqing/PycharmProjects/Reinvent-master-3.2/result/LINK_invent/BTK/process_docking_weight1_custom_sum_contain_oxygen_bond_distance_aromatic_linkinvent_7_9_3/rearranged_h_0129.sdf

> <i_m_source_file_index>
15

> <r_mmod_Potential_Energy-OPLS-2005>
105.11629486084

> <r_mmod_Stretch_Energy-OPLS-2005>
55.2757949829102

> <r_mmod_Bend_Energy-OPLS-2005>
136.047424316406

> <r_mmod_Torsional_Energy-OPLS-2005>
298.124145507812

> <r_mmod_Improper_Torsional_Energy-OPLS-2005>
7.68514347076416

> <r_mmod_Van_der_Waal_Energy-OPLS-2005>
144.812149047852

> <r_mmod_Electrostatic_Energy-OPLS-2005>
-364.116302490234

> <r_mmod_Solvation_Energy-OPLS-2005>
-201.006256103516

> <b_mmod_Minimization_Converged-OPLS-2005>
0

> <r_mmod_RMS_Derivative-OPLS-2005>
1.48871719837189

$$$$
15
                    3D
 Structure written by MMmdl.
156164  0  0  1  0            999 V2000
  -30.6318  -14.7301   20.4438 C   0  0  0  0  0  0
  -30.4209  -12.4429   19.4695 C   0  0  0  0  0  0
  -29.5012  -12.5010   18.2314 C   0  0  0  0  0  0
  -28.0277  -12.3324   18.6463 C   0  0  0  0  0  0
  -27.6365  -13.2353   19.8459 C   0  0  2  0  0  0
  -28.6825  -13.1815   20.9810 C   0  0  0  0  0  0
  -25.2458  -13.8187   20.5681 C   0  0  0  0  0  0
  -24.1773  -13.0431   20.9208 C   0  0  0  0  0  0
  -24.6371  -11.6911   20.8743 C   0  0  0  0  0  0
  -23.9051  -10.4286   21.0388 C   0  0  0  0  0  0
  -24.3604   -9.4206   21.9170 C   0  0  0  0  0  0
  -23.6283   -8.2242   22.0749 C   0  0  0  0  0  0
  -22.4272   -8.0266   21.3539 C   0  0  0  0  0  0
  -21.9899   -9.0233   20.4637 C   0  0  0  0  0  0
  -22.7217  -10.2112   20.3044 C   0  0  0  0  0  0
  -21.6861   -6.0713   22.5264 C   0  0  0  0  0  0
  -21.4015   -6.5620   23.8193 C   0  0  0  0  0  0
  -21.3666   -5.6777   24.9155 C   0  0  0  0  0  0
  -21.6053   -4.3043   24.7212 C   0  0  0  0  0  0
  -21.8825   -3.8130   23.4337 C   0  0  0  0  0  0
  -21.9192   -4.6939   22.3390 C   0  0  0  0  0  0
  -22.7790  -13.5193   21.1881 C   0  0  0  0  0  0
  -22.1664   -4.2130   21.0966 F   0  0  0  0  0  0
  -21.5634   -3.4530   25.7728 F   0  0  0  0  0  0
  -29.9865  -13.5146   20.3950 N   0  0  0  0  0  0
  -26.2909  -12.9416   20.3266 N   0  0  0  0  0  0
  -25.9303  -11.6559   20.5748 N   0  0  0  0  0  0
  -22.0458  -12.8177   22.0429 N   0  0  0  0  0  0
  -25.4090  -15.1913   20.4054 N   0  0  0  0  0  0
  -31.8324  -14.7717   20.1651 O   0  0  0  0  0  0
  -21.6643   -6.8855   21.4231 O   0  0  0  0  0  0
  -22.3483  -14.5517   20.6742 O   0  0  0  0  0  0
  -24.6269  -31.8555   23.1954 C   0  0  0  0  0  0
  -25.9112  -32.4736   23.8275 C   0  0  1  0  0  0
  -27.2155  -27.2840   20.1169 C   0  0  0  0  0  0
  -25.5925  -33.8547   24.2205 N   0  0  0  0  0  0
  -23.4195  -30.4773   21.5392 C   0  0  2  0  0  0
  -24.8640  -28.9264   20.1025 C   0  0  0  0  0  0
  -22.7487  -29.4567   22.4906 C   0  0  0  0  0  0
  -18.0274  -28.1410   22.8461 C   0  0  0  0  0  0
  -24.1505  -36.7294   23.2643 C   0  0  0  0  0  0
  -25.9598  -30.7777   21.3653 C   0  0  0  0  0  0
  -26.0321  -29.4005   20.7099 C   0  0  0  0  0  0
  -27.2068  -28.5894   20.7097 C   0  0  0  0  0  0
  -26.0209  -26.8637   19.4891 C   0  0  0  0  0  0
  -24.8612  -27.6660   19.4837 C   0  0  0  0  0  0
  -23.6361  -29.8157   20.1520 C   0  0  0  0  0  0
  -25.4126  -36.3047   24.0323 C   0  0  1  0  0  0
  -20.5876  -28.3681   23.1319 C   0  0  2  0  0  0
  -20.6764  -26.9415   22.5429 C   0  0  0  0  0  0
  -19.5744  -26.6401   21.5221 C   0  0  0  0  0  0
  -18.1911  -26.7953   22.1613 C   0  0  0  0  0  0
  -19.1531  -28.8862   23.2873 C   0  0  0  0  0  0
  -18.9463  -30.1465   23.8891 C   0  0  0  0  0  0
  -17.6467  -30.6598   24.0580 C   0  0  0  0  0  0
  -25.9068  -34.9435   23.5064 C   0  0  0  0  0  0
  -16.5352  -29.9106   23.6347 C   0  0  0  0  0  0
  -16.7270  -28.6543   23.0323 C   0  0  0  0  0  0
  -26.4503  -31.6557   25.0654 C   0  0  0  0  0  0
  -25.3752  -31.3721   26.1392 C   0  0  0  0  0  0
  -27.0337  -30.2987   24.6085 C   0  0  0  0  0  0
  -27.6058  -32.4298   25.7425 C   0  0  0  0  0  0
  -27.5580  -37.1789   24.8461 C   0  0  0  0  0  0
  -21.4196  -29.3016   22.3701 N   0  0  0  0  0  0
  -26.4287  -37.3755   23.9422 N   0  0  0  0  0  0
  -24.6875  -31.0548   22.0908 N   0  0  0  0  0  0
  -23.4219  -28.8108   23.2974 O   0  0  0  0  0  0
  -28.3500  -26.4544   20.1969 O   0  0  0  0  0  0
  -26.5645  -34.8904   22.4633 O   0  0  0  0  0  0
  -23.5442  -32.1375   23.7293 O   0  0  0  0  0  0
  -31.7858  -19.0662   19.6531 C   0  0  0  0  0  0
  -30.8941  -20.1064   19.9556 C   0  0  0  0  0  0
  -31.4433  -17.7197   19.8701 C   0  0  0  0  0  0
  -29.6042  -19.8455   20.4584 C   0  0  0  0  0  0
  -29.2550  -18.4337   20.6634 C   0  0  0  0  0  0
  -30.1838  -17.3343   20.3941 C   0  0  0  0  0  0
  -27.8695  -18.0761   21.1885 C   0  0  0  0  0  0
  -28.7165  -21.1269   20.8191 C   0  0  0  0  0  0
  -28.2828  -23.7522   20.5652 C   0  0  0  0  0  0
  -28.4387  -25.0674   19.6451 C   0  0  0  0  0  0
  -29.8718  -15.8861   20.6080 N   0  0  0  0  0  0
  -28.9595  -22.4528   20.0819 N   0  3  0  0  0  0
  -31.4615  -12.5517   19.1626 H   0  0  0  0  0  0
  -30.3549  -11.4694   19.9567 H   0  0  0  0  0  0
  -29.7782  -11.7244   17.5170 H   0  0  0  0  0  0
  -29.6320  -13.4542   17.7169 H   0  0  0  0  0  0
  -27.8795  -11.2843   18.9080 H   0  0  0  0  0  0
  -27.3728  -12.5281   17.7970 H   0  0  0  0  0  0
  -27.6262  -14.2543   19.4606 H   0  0  0  0  0  0
  -28.7107  -12.1935   21.4426 H   0  0  0  0  0  0
  -28.4220  -13.8836   21.7740 H   0  0  0  0  0  0
  -25.2750   -9.5692   22.4740 H   0  0  0  0  0  0
  -23.9991   -7.4644   22.7480 H   0  0  0  0  0  0
  -21.0832   -8.8742   19.8951 H   0  0  0  0  0  0
  -22.3670  -10.9644   19.6153 H   0  0  0  0  0  0
  -21.2012   -7.6129   23.9687 H   0  0  0  0  0  0
  -21.1492   -6.0508   25.9053 H   0  0  0  0  0  0
  -22.0604   -2.7595   23.2837 H   0  0  0  0  0  0
  -22.4089  -11.9815   22.4778 H   0  0  0  0  0  0
  -21.1084  -13.1196   22.2678 H   0  0  0  0  0  0
  -24.6267  -15.8299   20.4974 H   0  0  0  0  0  0
  -26.2266  -15.6263   20.0006 H   0  0  0  0  0  0
  -26.7159  -32.5392   23.1000 H   0  0  0  0  0  0
  -25.0043  -33.9666   25.0325 H   0  0  0  0  0  0
  -22.7091  -31.2948   21.3958 H   0  0  0  0  0  0
  -23.3744  -35.9646   23.3279 H   0  0  0  0  0  0
  -24.3582  -36.8972   22.2057 H   0  0  0  0  0  0
  -23.7287  -37.6498   23.6703 H   0  0  0  0  0  0
  -26.0867  -31.5381   20.5930 H   0  0  0  0  0  0
  -26.8408  -30.8294   21.9931 H   0  0  0  0  0  0
  -28.1015  -28.9476   21.1984 H   0  0  0  0  0  0
  -25.9353  -25.8969   19.0171 H   0  0  0  0  0  0
  -23.9637  -27.2983   19.0056 H   0  0  0  0  0  0
  -23.7653  -30.5959   19.4015 H   0  0  0  0  0  0
  -22.7503  -29.2610   19.8384 H   0  0  0  0  0  0
  -25.1306  -36.1863   25.0817 H   0  0  0  0  0  0
  -20.9939  -28.3247   24.1455 H   0  0  0  0  0  0
  -20.5699  -26.2280   23.3611 H   0  0  0  0  0  0
  -21.6626  -26.7464   22.1205 H   0  0  0  0  0  0
  -19.6926  -25.6319   21.1233 H   0  0  0  0  0  0
  -19.6719  -27.3224   20.6763 H   0  0  0  0  0  0
  -17.4203  -26.6724   21.3987 H   0  0  0  0  0  0
  -18.0278  -26.0099   22.9009 H   0  0  0  0  0  0
  -19.7942  -30.7271   24.2262 H   0  0  0  0  0  0
  -17.5025  -31.6266   24.5188 H   0  0  0  0  0  0
  -15.5354  -30.3002   23.7680 H   0  0  0  0  0  0
  -15.8669  -28.0881   22.7007 H   0  0  0  0  0  0
  -24.5951  -30.7018   25.7755 H   0  0  0  0  0  0
  -24.8899  -32.2900   26.4736 H   0  0  0  0  0  0
  -25.8090  -30.8989   27.0210 H   0  0  0  0  0  0
  -26.2874  -29.6712   24.1191 H   0  0  0  0  0  0
  -27.4154  -29.7256   25.4541 H   0  0  0  0  0  0
  -27.8699  -30.4274   23.9206 H   0  0  0  0  0  0
  -27.2673  -33.3629   26.1928 H   0  0  0  0  0  0
  -28.3906  -32.6799   25.0277 H   0  0  0  0  0  0
  -28.0668  -31.8465   26.5405 H   0  0  0  0  0  0
  -28.2572  -38.0095   24.7469 H   0  0  0  0  0  0
  -28.1091  -36.2619   24.6312 H   0  0  0  0  0  0
  -27.2295  -37.1471   25.8861 H   0  0  0  0  0  0
  -20.9369  -29.8794   21.6968 H   0  0  0  0  0  0
  -26.0155  -38.2836   24.1412 H   0  0  0  0  0  0
  -32.7608  -19.3090   19.2534 H   0  0  0  0  0  0
  -31.2336  -21.1201   19.7978 H   0  0  0  0  0  0
  -32.1984  -16.9979   19.6066 H   0  0  0  0  0  0
  -27.8608  -18.0262   22.2773 H   0  0  0  0  0  0
  -27.5436  -17.1108   20.8056 H   0  0  0  0  0  0
  -27.1096  -18.7876   20.8723 H   0  0  0  0  0  0
  -28.8654  -21.3162   21.8830 H   0  0  0  0  0  0
  -27.6604  -20.8890   20.7071 H   0  0  0  0  0  0
  -27.2182  -23.5596   20.6957 H   0  0  0  0  0  0
  -28.6733  -23.9817   21.5572 H   0  0  0  0  0  0
  -27.8164  -24.9641   18.7587 H   0  0  0  0  0  0
  -29.4511  -25.0307   19.2427 H   0  0  0  0  0  0
  -28.9102  -15.6948   20.8397 H   0  0  0  0  0  0
  -28.7105  -22.2971   19.1184 H   0  0  0  0  0  0
  -29.9531  -22.6170   20.1011 H   0  0  0  0  0  0
  1 25  1  0  0  0
  1 30  2  0  0  0
  1 81  1  0  0  0
  2  3  1  0  0  0
  2 25  1  0  0  0
  2 83  1  0  0  0
  2 84  1  0  0  0
  3  4  1  0  0  0
  3 85  1  0  0  0
  3 86  1  0  0  0
  4  5  1  0  0  0
  4 87  1  0  0  0
  4 88  1  0  0  0
  5  6  1  0  0  0
  5 26  1  0  0  0
  5 89  1  0  0  0
  6 25  1  0  0  0
  6 90  1  0  0  0
  6 91  1  0  0  0
  7  8  2  0  0  0
  7 26  1  0  0  0
  7 29  1  0  0  0
  8  9  1  0  0  0
  8 22  1  0  0  0
  9 10  1  0  0  0
  9 27  2  0  0  0
 10 11  2  0  0  0
 10 15  1  0  0  0
 11 12  1  0  0  0
 11 92  1  0  0  0
 12 13  2  0  0  0
 12 93  1  0  0  0
 13 14  1  0  0  0
 13 31  1  0  0  0
 14 15  2  0  0  0
 14 94  1  0  0  0
 15 95  1  0  0  0
 16 17  2  0  0  0
 16 21  1  0  0  0
 16 31  1  0  0  0
 17 18  1  0  0  0
 17 96  1  0  0  0
 18 19  2  0  0  0
 18 97  1  0  0  0
 19 20  1  0  0  0
 19 24  1  0  0  0
 20 21  2  0  0  0
 20 98  1  0  0  0
 21 23  1  0  0  0
 22 28  1  0  0  0
 22 32  2  0  0  0
 26 27  1  0  0  0
 28 99  1  0  0  0
 28100  1  0  0  0
 29101  1  0  0  0
 29102  1  0  0  0
 33 34  1  0  0  0
 33 66  1  0  0  0
 33 70  2  0  0  0
 34 36  1  0  0  0
 34 59  1  0  0  0
 34103  1  0  0  0
 35 44  2  0  0  0
 35 45  1  0  0  0
 35 68  1  0  0  0
 36 56  1  0  0  0
 36104  1  0  0  0
 37 39  1  0  0  0
 37 47  1  0  0  0
 37 66  1  0  0  0
 37105  1  0  0  0
 38 43  2  0  0  0
 38 46  1  0  0  0
 38 47  1  0  0  0
 39 64  1  0  0  0
 39 67  2  0  0  0
 40 52  1  0  0  0
 40 53  2  0  0  0
 40 58  1  0  0  0
 41106  1  0  0  0
 41107  1  0  0  0
 41108  1  0  0  0
 41 48  1  0  0  0
 42 43  1  0  0  0
 42 66  1  0  0  0
 42109  1  0  0  0
 42110  1  0  0  0
 43 44  1  0  0  0
 44111  1  0  0  0
 45 46  2  0  0  0
 45112  1  0  0  0
 46113  1  0  0  0
 47114  1  0  0  0
 47115  1  0  0  0
 48 56  1  0  0  0
 48 65  1  0  0  0
 48116  1  0  0  0
 49 50  1  0  0  0
 49 53  1  0  0  0
 49 64  1  0  0  0
 49117  1  0  0  0
 50 51  1  0  0  0
 50118  1  0  0  0
 50119  1  0  0  0
 51 52  1  0  0  0
 51120  1  0  0  0
 51121  1  0  0  0
 52122  1  0  0  0
 52123  1  0  0  0
 53 54  1  0  0  0
 54 55  2  0  0  0
 54124  1  0  0  0
 55 57  1  0  0  0
 55125  1  0  0  0
 56 69  2  0  0  0
 57 58  2  0  0  0
 57126  1  0  0  0
 58127  1  0  0  0
 59 60  1  0  0  0
 59 61  1  0  0  0
 59 62  1  0  0  0
 60128  1  0  0  0
 60129  1  0  0  0
 60130  1  0  0  0
 61131  1  0  0  0
 61132  1  0  0  0
 61133  1  0  0  0
 62134  1  0  0  0
 62135  1  0  0  0
 62136  1  0  0  0
 63 65  1  0  0  0
 63137  1  0  0  0
 63138  1  0  0  0
 63139  1  0  0  0
 64140  1  0  0  0
 65141  1  0  0  0
 68 80  1  0  0  0
 71 72  2  0  0  0
 71 73  1  0  0  0
 71142  1  0  0  0
 72 74  1  0  0  0
 72143  1  0  0  0
 73 76  2  0  0  0
 73144  1  0  0  0
 74 75  2  0  0  0
 74 78  1  0  0  0
 75 76  1  0  0  0
 75 77  1  0  0  0
 76 81  1  0  0  0
 77145  1  0  0  0
 77146  1  0  0  0
 77147  1  0  0  0
 78 82  1  0  0  0
 78148  1  0  0  0
 78149  1  0  0  0
 79 80  1  0  0  0
 79 82  1  0  0  0
 79150  1  0  0  0
 79151  1  0  0  0
 80152  1  0  0  0
 80153  1  0  0  0
 81154  1  0  0  0
 82155  1  0  0  0
 82156  1  0  0  0
M  CHG  1  82   1
M  ISO  4   1 100  68 101  80 101  81 100
M  END
> <chiral flag>
0

> <version>
0

> <s_m_source_file>
/data/baiqing/PycharmProjects/Reinvent-master-3.2/result/LINK_invent/BTK/process_docking_weight1_custom_sum_contain_oxygen_bond_distance_aromatic_linkinvent_7_9_3/rearranged_h_0129.sdf

> <i_m_source_file_index>
16

> <r_mmod_Potential_Energy-OPLS-2005>
-36.3876152038574

> <r_mmod_Stretch_Energy-OPLS-2005>
121.221626281738

> <r_mmod_Bend_Energy-OPLS-2005>
168.303405761719

> <r_mmod_Torsional_Energy-OPLS-2005>
206.218719482422

> <r_mmod_Improper_Torsional_Energy-OPLS-2005>
4.9335789680481

> <r_mmod_Van_der_Waal_Energy-OPLS-2005>
143.549163818359

> <r_mmod_Electrostatic_Energy-OPLS-2005>
-289.384826660156

> <r_mmod_Solvation_Energy-OPLS-2005>
-466.208770751953

> <b_mmod_Minimization_Converged-OPLS-2005>
0

> <r_mmod_RMS_Derivative-OPLS-2005>
2.6038863658905

$$$$
16
                    3D
 Structure written by MMmdl.
165173  0  0  1  0            999 V2000
  -30.6359  -14.6057   20.5167 C   0  0  0  0  0  0
  -30.4353  -12.3706   19.4665 C   0  0  0  0  0  0
  -29.5073  -12.5146   18.2380 C   0  0  0  0  0  0
  -28.0275  -12.3684   18.6444 C   0  0  0  0  0  0
  -27.6594  -13.2203   19.8872 C   0  0  2  0  0  0
  -28.7040  -13.0483   21.0157 C   0  0  0  0  0  0
  -25.2562  -13.8176   20.5781 C   0  0  0  0  0  0
  -24.1818  -13.0430   20.9223 C   0  0  0  0  0  0
  -24.6400  -11.6899   20.8770 C   0  0  0  0  0  0
  -23.9073  -10.4286   21.0412 C   0  0  0  0  0  0
  -24.3620   -9.4201   21.9179 C   0  0  0  0  0  0
  -23.6304   -8.2235   22.0754 C   0  0  0  0  0  0
  -22.4286   -8.0275   21.3545 C   0  0  0  0  0  0
  -21.9919   -9.0246   20.4649 C   0  0  0  0  0  0
  -22.7245  -10.2134   20.3052 C   0  0  0  0  0  0
  -21.6843   -6.0745   22.5272 C   0  0  0  0  0  0
  -21.4003   -6.5646   23.8214 C   0  0  0  0  0  0
  -21.3660   -5.6800   24.9171 C   0  0  0  0  0  0
  -21.6042   -4.3067   24.7207 C   0  0  0  0  0  0
  -21.8815   -3.8150   23.4329 C   0  0  0  0  0  0
  -21.9191   -4.6969   22.3395 C   0  0  0  0  0  0
  -22.7828  -13.5209   21.1888 C   0  0  0  0  0  0
  -22.1657   -4.2161   21.0973 F   0  0  0  0  0  0
  -21.5644   -3.4546   25.7720 F   0  0  0  0  0  0
  -30.0228  -13.3833   20.4597 N   0  0  0  0  0  0
  -26.3026  -12.9383   20.3469 N   0  0  0  0  0  0
  -25.9344  -11.6527   20.5824 N   0  0  0  0  0  0
  -22.0496  -12.8160   22.0427 N   0  0  0  0  0  0
  -25.4274  -15.1904   20.4203 N   0  0  0  0  0  0
  -31.7744  -14.7787   20.0777 O   0  0  0  0  0  0
  -21.6627   -6.8891   21.4244 O   0  0  0  0  0  0
  -22.3512  -14.5529   20.6773 O   0  0  0  0  0  0
  -24.6278  -31.8592   23.2000 C   0  0  0  0  0  0
  -25.9123  -32.4778   23.8340 C   0  0  1  0  0  0
  -27.2434  -27.3477   20.1270 C   0  0  0  0  0  0
  -25.5908  -33.8573   24.2250 N   0  0  0  0  0  0
  -23.4234  -30.4803   21.5414 C   0  0  2  0  0  0
  -24.8763  -28.9405   20.1100 C   0  0  0  0  0  0
  -22.7503  -29.4614   22.4926 C   0  0  0  0  0  0
  -18.0263  -28.1411   22.8464 C   0  0  0  0  0  0
  -24.1483  -36.7272   23.2640 C   0  0  0  0  0  0
  -25.9622  -30.8007   21.3732 C   0  0  0  0  0  0
  -26.0420  -29.4306   20.7143 C   0  0  0  0  0  0
  -27.2318  -28.6473   20.7114 C   0  0  0  0  0  0
  -26.0594  -26.8974   19.5064 C   0  0  0  0  0  0
  -24.8865  -27.6772   19.4962 C   0  0  0  0  0  0
  -23.6387  -29.8134   20.1582 C   0  0  0  0  0  0
  -25.4121  -36.3077   24.0310 C   0  0  1  0  0  0
  -20.5866  -28.3703   23.1264 C   0  0  2  0  0  0
  -20.6774  -26.9423   22.5417 C   0  0  0  0  0  0
  -19.5761  -26.6387   21.5223 C   0  0  0  0  0  0
  -18.1920  -26.7954   22.1602 C   0  0  0  0  0  0
  -19.1523  -28.8876   23.2853 C   0  0  0  0  0  0
  -18.9469  -30.1460   23.8902 C   0  0  0  0  0  0
  -17.6472  -30.6604   24.0573 C   0  0  0  0  0  0
  -25.9046  -34.9450   23.5068 C   0  0  0  0  0  0
  -16.5352  -29.9101   23.6356 C   0  0  0  0  0  0
  -16.7254  -28.6518   23.0361 C   0  0  0  0  0  0
  -26.4520  -31.6607   25.0730 C   0  0  0  0  0  0
  -25.3705  -31.3742   26.1429 C   0  0  0  0  0  0
  -27.0419  -30.3045   24.6229 C   0  0  0  0  0  0
  -27.6080  -32.4368   25.7496 C   0  0  0  0  0  0
  -27.5578  -37.1791   24.8459 C   0  0  0  0  0  0
  -21.4209  -29.3040   22.3681 N   0  0  0  0  0  0
  -26.4299  -37.3774   23.9380 N   0  0  0  0  0  0
  -24.6887  -31.0638   22.0948 N   0  0  0  0  0  0
  -23.4240  -28.8151   23.2992 O   0  0  0  0  0  0
  -28.3659  -26.5182   20.1348 O   0  0  0  0  0  0
  -26.5645  -34.8912   22.4648 O   0  0  0  0  0  0
  -23.5424  -32.1355   23.7342 O   0  0  0  0  0  0
  -28.2815  -20.4105   18.0911 C   0  0  0  0  0  0
  -29.6095  -20.8914   18.6658 C   0  0  0  0  0  0
  -27.9145  -19.2290   18.9964 C   0  0  0  0  0  0
  -29.4382  -20.7046   20.1747 C   0  0  2  0  0  0
  -29.0629  -22.3999   22.6963 C   0  0  0  0  0  0
  -26.7321  -22.0589   20.9108 C   0  0  0  0  0  0
  -29.9027  -17.0485   20.2543 C   0  0  0  0  0  0
  -29.0765  -18.1805   21.0200 C   0  0  0  0  0  0
  -28.1950  -25.1836   20.7366 C   0  0  0  0  0  0
  -28.9537  -23.9493   20.0934 C   0  0  0  0  0  0
  -29.8427  -15.6670   20.8493 N   0  0  0  0  0  0
  -28.6021  -19.4457   20.2995 N   0  3  2  0  0  0
  -28.5711  -22.2629   20.9232 S   0  0  0  0  0  0
  -31.4795  -12.4799   19.1697 H   0  0  0  0  0  0
  -30.3565  -11.3703   19.8948 H   0  0  0  0  0  0
  -29.7622  -11.7714   17.4830 H   0  0  0  0  0  0
  -29.6596  -13.4898   17.7722 H   0  0  0  0  0  0
  -27.8445  -11.3143   18.8550 H   0  0  0  0  0  0
  -27.3768  -12.6279   17.8086 H   0  0  0  0  0  0
  -27.6865  -14.2609   19.5664 H   0  0  0  0  0  0
  -28.7071  -12.0200   21.3794 H   0  0  0  0  0  0
  -28.4622  -13.6647   21.8828 H   0  0  0  0  0  0
  -25.2762   -9.5666   22.4761 H   0  0  0  0  0  0
  -24.0012   -7.4605   22.7448 H   0  0  0  0  0  0
  -21.0872   -8.8768   19.8923 H   0  0  0  0  0  0
  -22.3715  -10.9681   19.6164 H   0  0  0  0  0  0
  -21.1988   -7.6147   23.9724 H   0  0  0  0  0  0
  -21.1489   -6.0523   25.9090 H   0  0  0  0  0  0
  -22.0595   -2.7605   23.2816 H   0  0  0  0  0  0
  -22.4125  -11.9804   22.4765 H   0  0  0  0  0  0
  -21.1111  -13.1154   22.2668 H   0  0  0  0  0  0
  -24.6595  -15.8445   20.5426 H   0  0  0  0  0  0
  -26.2698  -15.6265   20.0719 H   0  0  0  0  0  0
  -26.7223  -32.5484   23.1111 H   0  0  0  0  0  0
  -25.0076  -33.9692   25.0420 H   0  0  0  0  0  0
  -22.7194  -31.3032   21.3994 H   0  0  0  0  0  0
  -23.3751  -35.9599   23.3328 H   0  0  0  0  0  0
  -24.3573  -36.8900   22.2052 H   0  0  0  0  0  0
  -23.7254  -37.6469   23.6683 H   0  0  0  0  0  0
  -26.0995  -31.5711   20.6142 H   0  0  0  0  0  0
  -26.8387  -30.8442   22.0077 H   0  0  0  0  0  0
  -28.1297  -29.0217   21.1856 H   0  0  0  0  0  0
  -26.0415  -25.9261   19.0339 H   0  0  0  0  0  0
  -23.9980  -27.2960   19.0136 H   0  0  0  0  0  0
  -23.7486  -30.5921   19.4036 H   0  0  0  0  0  0
  -22.7613  -29.2364   19.8618 H   0  0  0  0  0  0
  -25.1317  -36.1925   25.0814 H   0  0  0  0  0  0
  -20.9933  -28.3294   24.1385 H   0  0  0  0  0  0
  -20.5755  -26.2270   23.3596 H   0  0  0  0  0  0
  -21.6641  -26.7506   22.1191 H   0  0  0  0  0  0
  -19.6965  -25.6306   21.1243 H   0  0  0  0  0  0
  -19.6756  -27.3201   20.6766 H   0  0  0  0  0  0
  -17.4213  -26.6680   21.3978 H   0  0  0  0  0  0
  -18.0327  -26.0135   22.9033 H   0  0  0  0  0  0
  -19.7957  -30.7243   24.2317 H   0  0  0  0  0  0
  -17.5039  -31.6314   24.5128 H   0  0  0  0  0  0
  -15.5356  -30.3003   23.7702 H   0  0  0  0  0  0
  -15.8650  -28.0843   22.7082 H   0  0  0  0  0  0
  -24.5850  -30.7155   25.7697 H   0  0  0  0  0  0
  -24.8891  -32.2885   26.4918 H   0  0  0  0  0  0
  -25.7957  -30.8839   27.0196 H   0  0  0  0  0  0
  -26.3021  -29.6712   24.1320 H   0  0  0  0  0  0
  -27.4189  -29.7424   25.4788 H   0  0  0  0  0  0
  -27.8842  -30.4355   23.9438 H   0  0  0  0  0  0
  -27.2731  -33.3687   26.2073 H   0  0  0  0  0  0
  -28.3883  -32.6916   25.0308 H   0  0  0  0  0  0
  -28.0769  -31.8502   26.5410 H   0  0  0  0  0  0
  -28.2600  -38.0092   24.7539 H   0  0  0  0  0  0
  -28.1083  -36.2616   24.6281 H   0  0  0  0  0  0
  -27.2273  -37.1439   25.8863 H   0  0  0  0  0  0
  -20.9404  -29.8716   21.6855 H   0  0  0  0  0  0
  -26.0175  -38.2839   24.1430 H   0  0  0  0  0  0
  -28.3590  -20.1282   17.0401 H   0  0  0  0  0  0
  -27.5247  -21.1920   18.1617 H   0  0  0  0  0  0
  -29.8692  -21.9110   18.3750 H   0  0  0  0  0  0
  -30.4108  -20.2426   18.3127 H   0  0  0  0  0  0
  -28.2299  -18.3160   18.5016 H   0  0  0  0  0  0
  -26.8337  -19.1437   19.1344 H   0  0  0  0  0  0
  -30.3981  -20.5760   20.6754 H   0  0  0  0  0  0
  -29.6870  -21.5516   22.9797 H   0  0  0  0  0  0
  -28.1824  -22.4273   23.3368 H   0  0  0  0  0  0
  -29.6275  -23.3186   22.8428 H   0  0  0  0  0  0
  -26.4446  -21.0588   20.5997 H   0  0  0  0  0  0
  -26.2857  -22.7814   20.2282 H   0  0  0  0  0  0
  -26.3283  -22.2347   21.9086 H   0  0  0  0  0  0
  -30.9413  -17.3684   20.1597 H   0  0  0  0  0  0
  -29.5496  -16.9087   19.2341 H   0  0  0  0  0  0
  -29.6132  -18.4728   21.9248 H   0  0  0  0  0  0
  -28.1581  -17.7114   21.3786 H   0  0  0  0  0  0
  -28.5302  -25.2718   21.7713 H   0  0  0  0  0  0
  -27.1393  -24.9288   20.8138 H   0  0  0  0  0  0
  -30.0311  -24.1071   20.1402 H   0  0  0  0  0  0
  -28.6922  -23.8717   19.0383 H   0  0  0  0  0  0
  -28.9695  -15.4122   21.2878 H   0  0  0  0  0  0
  -27.8640  -19.7604   20.9129 H   0  0  0  0  0  0
  1 25  1  0  0  0
  1 30  2  0  0  0
  1 81  1  0  0  0
  2  3  1  0  0  0
  2 25  1  0  0  0
  2 84  1  0  0  0
  2 85  1  0  0  0
  3  4  1  0  0  0
  3 86  1  0  0  0
  3 87  1  0  0  0
  4  5  1  0  0  0
  4 88  1  0  0  0
  4 89  1  0  0  0
  5  6  1  0  0  0
  5 26  1  0  0  0
  5 90  1  0  0  0
  6 25  1  0  0  0
  6 91  1  0  0  0
  6 92  1  0  0  0
  7  8  2  0  0  0
  7 26  1  0  0  0
  7 29  1  0  0  0
  8  9  1  0  0  0
  8 22  1  0  0  0
  9 10  1  0  0  0
  9 27  2  0  0  0
 10 11  2  0  0  0
 10 15  1  0  0  0
 11 12  1  0  0  0
 11 93  1  0  0  0
 12 13  2  0  0  0
 12 94  1  0  0  0
 13 14  1  0  0  0
 13 31  1  0  0  0
 14 15  2  0  0  0
 14 95  1  0  0  0
 15 96  1  0  0  0
 16 17  2  0  0  0
 16 21  1  0  0  0
 16 31  1  0  0  0
 17 18  1  0  0  0
 17 97  1  0  0  0
 18 19  2  0  0  0
 18 98  1  0  0  0
 19 20  1  0  0  0
 19 24  1  0  0  0
 20 21  2  0  0  0
 20 99  1  0  0  0
 21 23  1  0  0  0
 22 28  1  0  0  0
 22 32  2  0  0  0
 26 27  1  0  0  0
 28100  1  0  0  0
 28101  1  0  0  0
 29102  1  0  0  0
 29103  1  0  0  0
 33 34  1  0  0  0
 33 66  1  0  0  0
 33 70  2  0  0  0
 34 36  1  0  0  0
 34 59  1  0  0  0
 34104  1  0  0  0
 35 44  2  0  0  0
 35 45  1  0  0  0
 35 68  1  0  0  0
 36 56  1  0  0  0
 36105  1  0  0  0
 37 39  1  0  0  0
 37 47  1  0  0  0
 37 66  1  0  0  0
 37106  1  0  0  0
 38 43  2  0  0  0
 38 46  1  0  0  0
 38 47  1  0  0  0
 39 64  1  0  0  0
 39 67  2  0  0  0
 40 52  1  0  0  0
 40 53  2  0  0  0
 40 58  1  0  0  0
 41107  1  0  0  0
 41108  1  0  0  0
 41109  1  0  0  0
 41 48  1  0  0  0
 42 43  1  0  0  0
 42 66  1  0  0  0
 42110  1  0  0  0
 42111  1  0  0  0
 43 44  1  0  0  0
 44112  1  0  0  0
 45 46  2  0  0  0
 45113  1  0  0  0
 46114  1  0  0  0
 47115  1  0  0  0
 47116  1  0  0  0
 48 56  1  0  0  0
 48 65  1  0  0  0
 48117  1  0  0  0
 49 50  1  0  0  0
 49 53  1  0  0  0
 49 64  1  0  0  0
 49118  1  0  0  0
 50 51  1  0  0  0
 50119  1  0  0  0
 50120  1  0  0  0
 51 52  1  0  0  0
 51121  1  0  0  0
 51122  1  0  0  0
 52123  1  0  0  0
 52124  1  0  0  0
 53 54  1  0  0  0
 54 55  2  0  0  0
 54125  1  0  0  0
 55 57  1  0  0  0
 55126  1  0  0  0
 56 69  2  0  0  0
 57 58  2  0  0  0
 57127  1  0  0  0
 58128  1  0  0  0
 59 60  1  0  0  0
 59 61  1  0  0  0
 59 62  1  0  0  0
 60129  1  0  0  0
 60130  1  0  0  0
 60131  1  0  0  0
 61132  1  0  0  0
 61133  1  0  0  0
 61134  1  0  0  0
 62135  1  0  0  0
 62136  1  0  0  0
 62137  1  0  0  0
 63 65  1  0  0  0
 63138  1  0  0  0
 63139  1  0  0  0
 63140  1  0  0  0
 64141  1  0  0  0
 65142  1  0  0  0
 68 79  1  0  0  0
 71 72  1  0  0  0
 71 73  1  0  0  0
 71143  1  0  0  0
 71144  1  0  0  0
 72145  1  0  0  0
 72146  1  0  0  0
 72 74  1  0  0  0
 73 82  1  0  0  0
 73147  1  0  0  0
 73148  1  0  0  0
 74 82  1  0  0  0
 74 83  1  0  0  0
 74149  1  0  0  0
 75150  1  0  0  0
 75151  1  0  0  0
 75152  1  0  0  0
 75 83  1  0  0  0
 76 83  1  0  0  0
 76153  1  0  0  0
 76154  1  0  0  0
 76155  1  0  0  0
 77 78  1  0  0  0
 77 81  1  0  0  0
 77156  1  0  0  0
 77157  1  0  0  0
 78158  1  0  0  0
 78159  1  0  0  0
 78 82  1  0  0  0
 79 80  1  0  0  0
 79160  1  0  0  0
 79161  1  0  0  0
 80 83  1  0  0  0
 80162  1  0  0  0
 80163  1  0  0  0
 81164  1  0  0  0
 82165  1  0  0  0
M  CHG  1  82   1
M  ISO  4   1 100  68 101  79 101  81 100
M  END
> <chiral flag>
0

> <version>
0

> <s_m_source_file>
/data/baiqing/PycharmProjects/Reinvent-master-3.2/result/LINK_invent/BTK/process_docking_weight1_custom_sum_contain_oxygen_bond_distance_aromatic_linkinvent_7_9_3/rearranged_h_0129.sdf

> <i_m_source_file_index>
17

> <r_mmod_Potential_Energy-OPLS-2005>
51.6444396972656

> <r_mmod_Stretch_Energy-OPLS-2005>
78.1007461547852

> <r_mmod_Bend_Energy-OPLS-2005>
207.789169311523

> <r_mmod_Torsional_Energy-OPLS-2005>
317.081665039062

> <r_mmod_Improper_Torsional_Energy-OPLS-2005>
6.90749835968018

> <r_mmod_Van_der_Waal_Energy-OPLS-2005>
110.58683013916

> <r_mmod_Electrostatic_Energy-OPLS-2005>
-252.981781005859

> <r_mmod_Solvation_Energy-OPLS-2005>
-452.806945800781

> <b_mmod_Minimization_Converged-OPLS-2005>
0

> <r_mmod_RMS_Derivative-OPLS-2005>
4.39632225036621

$$$$
17
                    3D
 Structure written by MMmdl.
186195  0  0  1  0            999 V2000
  -30.5200  -15.1223   20.4356 C   0  0  0  0  0  0
  -30.4043  -12.7262   19.5232 C   0  0  0  0  0  0
  -29.5108  -12.5593   18.2751 C   0  0  0  0  0  0
  -28.0562  -12.3017   18.7022 C   0  0  0  0  0  0
  -27.5993  -13.2683   19.8271 C   0  0  2  0  0  0
  -28.6289  -13.4095   20.9658 C   0  0  0  0  0  0
  -25.2306  -13.8257   20.5759 C   0  0  0  0  0  0
  -24.1660  -13.0441   20.9247 C   0  0  0  0  0  0
  -24.6328  -11.6936   20.8778 C   0  0  0  0  0  0
  -23.9057  -10.4294   21.0416 C   0  0  0  0  0  0
  -24.3622   -9.4206   21.9199 C   0  0  0  0  0  0
  -23.6289   -8.2239   22.0764 C   0  0  0  0  0  0
  -22.4285   -8.0271   21.3541 C   0  0  0  0  0  0
  -21.9914   -9.0243   20.4664 C   0  0  0  0  0  0
  -22.7230  -10.2127   20.3063 C   0  0  0  0  0  0
  -21.6854   -6.0740   22.5285 C   0  0  0  0  0  0
  -21.4018   -6.5641   23.8214 C   0  0  0  0  0  0
  -21.3655   -5.6790   24.9174 C   0  0  0  0  0  0
  -21.6042   -4.3062   24.7233 C   0  0  0  0  0  0
  -21.8811   -3.8152   23.4352 C   0  0  0  0  0  0
  -21.9185   -4.6966   22.3407 C   0  0  0  0  0  0
  -22.7689  -13.5195   21.1893 C   0  0  0  0  0  0
  -22.1632   -4.2160   21.0978 F   0  0  0  0  0  0
  -21.5639   -3.4536   25.7738 F   0  0  0  0  0  0
  -29.8667  -13.8760   20.3347 N   0  0  0  0  0  0
  -26.2712  -12.9500   20.3226 N   0  0  0  0  0  0
  -25.9253  -11.6633   20.5760 N   0  0  0  0  0  0
  -22.0347  -12.8185   22.0471 N   0  0  0  0  0  0
  -25.3956  -15.1977   20.4180 N   0  0  0  0  0  0
  -31.7406  -15.0247   20.2446 O   0  0  0  0  0  0
  -21.6627   -6.8881   21.4246 O   0  0  0  0  0  0
  -22.3377  -14.5492   20.6738 O   0  0  0  0  0  0
  -24.6534  -31.8307   23.1794 C   0  0  0  0  0  0
  -25.9262  -32.4621   23.8209 C   0  0  1  0  0  0
  -27.2038  -27.0055   20.2156 C   0  0  0  0  0  0
  -25.5982  -33.8447   24.2098 N   0  0  0  0  0  0
  -23.4628  -30.4438   21.5299 C   0  0  2  0  0  0
  -24.9111  -28.8430   20.1236 C   0  0  0  0  0  0
  -22.7622  -29.4464   22.4864 C   0  0  0  0  0  0
  -18.0283  -28.1432   22.8444 C   0  0  0  0  0  0
  -24.1507  -36.7224   23.2631 C   0  0  0  0  0  0
  -26.0235  -30.6646   21.3949 C   0  0  0  0  0  0
  -26.0884  -29.2584   20.7570 C   0  0  0  0  0  0
  -27.2339  -28.3591   20.7815 C   0  0  0  0  0  0
  -26.0106  -26.7279   19.5190 C   0  0  0  0  0  0
  -24.8913  -27.5940   19.4842 C   0  0  0  0  0  0
  -23.6963  -29.7613   20.1546 C   0  0  0  0  0  0
  -25.4129  -36.2969   24.0288 C   0  0  1  0  0  0
  -20.5880  -28.3791   23.1232 C   0  0  2  0  0  0
  -20.6716  -26.9522   22.5420 C   0  0  0  0  0  0
  -19.5754  -26.6411   21.5216 C   0  0  0  0  0  0
  -18.1918  -26.7971   22.1585 C   0  0  0  0  0  0
  -19.1529  -28.8920   23.2820 C   0  0  0  0  0  0
  -18.9448  -30.1507   23.8872 C   0  0  0  0  0  0
  -17.6458  -30.6615   24.0560 C   0  0  0  0  0  0
  -25.9114  -34.9365   23.5007 C   0  0  0  0  0  0
  -16.5342  -29.9087   23.6354 C   0  0  0  0  0  0
  -16.7271  -28.6524   23.0354 C   0  0  0  0  0  0
  -26.4559  -31.6531   25.0694 C   0  0  0  0  0  0
  -25.3700  -31.3774   26.1355 C   0  0  0  0  0  0
  -27.0384  -30.2902   24.6328 C   0  0  0  0  0  0
  -27.6102  -32.4292   25.7464 C   0  0  0  0  0  0
  -27.5587  -37.1722   24.8431 C   0  0  0  0  0  0
  -21.4291  -29.3057   22.3607 N   0  0  0  0  0  0
  -26.4253  -37.3717   23.9442 N   0  0  0  0  0  0
  -24.7344  -31.0036   22.0917 N   0  0  0  0  0  0
  -23.4192  -28.8015   23.3079 O   0  0  0  0  0  0
  -28.2608  -25.9884   20.1801 O   0  0  0  0  0  0
  -26.5722  -34.8892   22.4601 O   0  0  0  0  0  0
  -23.5628  -32.1250   23.6957 O   0  0  0  0  0  0
  -22.8576  -23.9419   22.7262 C   0  0  0  0  0  0
  -23.9783  -23.5874   23.7022 C   0  0  0  0  0  0
  -23.5692  -24.1894   21.4007 C   0  0  0  0  0  0
  -25.1210  -23.0067   22.8478 C   0  0  0  0  0  0
  -28.4515  -18.7302   21.2181 C   0  0  0  0  0  0
  -28.5828  -17.1263   20.7606 C   0  0  0  0  0  0
  -30.8216  -17.7146   20.3661 C   0  0  0  0  0  0
  -30.3715  -19.2382   19.8714 C   0  0  1  0  0  0
  -28.9779  -19.9556   20.2982 C   0  0  2  0  0  0
  -24.6704  -23.1209   21.3756 C   0  0  0  0  0  0
  -36.6257  -20.4302   20.9294 C   0  0  0  0  0  0
  -31.5617  -20.2151   20.0994 C   0  0  0  0  0  0
  -35.4738  -19.7752   20.1639 C   0  0  0  0  0  0
  -32.9749  -19.6401   19.8299 C   0  0  0  0  0  0
  -34.1327  -20.5198   20.3131 C   0  0  0  0  0  0
  -26.7054  -22.4388   20.0157 C   0  0  0  0  0  0
  -28.3203  -24.4950   20.7882 C   0  0  0  0  0  0
  -28.2136  -22.8329   20.1742 C   0  0  1  0  0  0
  -29.9378  -16.4818   20.4785 N   0  0  0  0  0  0
  -28.9221  -21.5078   20.7755 N   0  0  0  0  0  0
  -25.7593  -23.4952   20.4494 N   0  3  0  0  0  0
  -31.4337  -12.8868   19.2020 H   0  0  0  0  0  0
  -30.4266  -11.8101   20.1142 H   0  0  0  0  0  0
  -29.8776  -11.7420   17.6544 H   0  0  0  0  0  0
  -29.5627  -13.4623   17.6643 H   0  0  0  0  0  0
  -28.0001  -11.2704   19.0548 H   0  0  0  0  0  0
  -27.3888  -12.3658   17.8432 H   0  0  0  0  0  0
  -27.5283  -14.2449   19.3479 H   0  0  0  0  0  0
  -28.7681  -12.4678   21.4977 H   0  0  0  0  0  0
  -28.2841  -14.1346   21.7036 H   0  0  0  0  0  0
  -25.2766   -9.5690   22.4786 H   0  0  0  0  0  0
  -24.0014   -7.4630   22.7480 H   0  0  0  0  0  0
  -21.0855   -8.8749   19.8968 H   0  0  0  0  0  0
  -22.3677  -10.9665   19.6182 H   0  0  0  0  0  0
  -21.2001   -7.6151   23.9732 H   0  0  0  0  0  0
  -21.1487   -6.0519   25.9082 H   0  0  0  0  0  0
  -22.0601   -2.7622   23.2844 H   0  0  0  0  0  0
  -22.3957  -11.9836   22.4845 H   0  0  0  0  0  0
  -21.0971  -13.1223   22.2683 H   0  0  0  0  0  0
  -24.6321  -15.8527   20.5442 H   0  0  0  0  0  0
  -26.2427  -15.6387   20.0883 H   0  0  0  0  0  0
  -26.7331  -32.5178   23.0930 H   0  0  0  0  0  0
  -25.0071  -33.9574   25.0207 H   0  0  0  0  0  0
  -22.7736  -31.2743   21.3629 H   0  0  0  0  0  0
  -23.3800  -35.9517   23.3178 H   0  0  0  0  0  0
  -24.3615  -36.9004   22.2075 H   0  0  0  0  0  0
  -23.7258  -37.6372   23.6776 H   0  0  0  0  0  0
  -26.1781  -31.3998   20.6029 H   0  0  0  0  0  0
  -26.9003  -30.7341   22.0283 H   0  0  0  0  0  0
  -28.1313  -28.6766   21.2932 H   0  0  0  0  0  0
  -25.9282  -25.7943   18.9868 H   0  0  0  0  0  0
  -24.0008  -27.2769   18.9593 H   0  0  0  0  0  0
  -23.8483  -30.5301   19.3966 H   0  0  0  0  0  0
  -22.8083  -29.2091   19.8416 H   0  0  0  0  0  0
  -25.1325  -36.1714   25.0775 H   0  0  0  0  0  0
  -20.9945  -28.3347   24.1371 H   0  0  0  0  0  0
  -20.5502  -26.2513   23.3681 H   0  0  0  0  0  0
  -21.6579  -26.7575   22.1220 H   0  0  0  0  0  0
  -19.6980  -25.6307   21.1304 H   0  0  0  0  0  0
  -19.6717  -27.3176   20.6720 H   0  0  0  0  0  0
  -17.4211  -26.6729   21.3970 H   0  0  0  0  0  0
  -18.0288  -26.0114   22.8979 H   0  0  0  0  0  0
  -19.7933  -30.7308   24.2235 H   0  0  0  0  0  0
  -17.5006  -31.6299   24.5158 H   0  0  0  0  0  0
  -15.5347  -30.2975   23.7720 H   0  0  0  0  0  0
  -15.8677  -28.0835   22.7095 H   0  0  0  0  0  0
  -24.5982  -30.6987   25.7715 H   0  0  0  0  0  0
  -24.8744  -32.2946   26.4549 H   0  0  0  0  0  0
  -25.7920  -30.9163   27.0285 H   0  0  0  0  0  0
  -26.2984  -29.6643   24.1323 H   0  0  0  0  0  0
  -27.3963  -29.7200   25.4911 H   0  0  0  0  0  0
  -27.8921  -30.4133   23.9658 H   0  0  0  0  0  0
  -27.2762  -33.3686   26.1875 H   0  0  0  0  0  0
  -28.3972  -32.6678   25.0303 H   0  0  0  0  0  0
  -28.0679  -31.8502   26.5497 H   0  0  0  0  0  0
  -28.2462  -38.0154   24.7610 H   0  0  0  0  0  0
  -28.1213  -36.2684   24.6030 H   0  0  0  0  0  0
  -27.2335  -37.1095   25.8835 H   0  0  0  0  0  0
  -20.9543  -29.8770   21.6753 H   0  0  0  0  0  0
  -26.0071  -38.2738   24.1570 H   0  0  0  0  0  0
  -22.2814  -24.7966   23.0690 H   0  0  0  0  0  0
  -22.1708  -23.1008   22.6237 H   0  0  0  0  0  0
  -23.6368  -22.8919   24.4691 H   0  0  0  0  0  0
  -24.3185  -24.4918   24.2133 H   0  0  0  0  0  0
  -23.9942  -25.1954   21.4020 H   0  0  0  0  0  0
  -22.8939  -24.1223   20.5473 H   0  0  0  0  0  0
  -25.3273  -21.9693   23.1110 H   0  0  0  0  0  0
  -26.0312  -23.5718   23.0490 H   0  0  0  0  0  0
  -28.9345  -18.8247   22.1923 H   0  0  0  0  0  0
  -27.3990  -18.9221   21.4277 H   0  0  0  0  0  0
  -27.9859  -16.9827   19.8615 H   0  0  0  0  0  0
  -28.0983  -16.5219   21.5280 H   0  0  0  0  0  0
  -31.2963  -17.8036   21.3457 H   0  0  0  0  0  0
  -31.6034  -17.4079   19.6724 H   0  0  0  0  0  0
  -30.2873  -19.1257   18.7892 H   0  0  0  0  0  0
  -28.3413  -19.9327   19.4124 H   0  0  0  0  0  0
  -24.2204  -22.1768   21.0627 H   0  0  0  0  0  0
  -37.5696  -19.9335   20.7003 H   0  0  0  0  0  0
  -36.4722  -20.3562   22.0062 H   0  0  0  0  0  0
  -36.7327  -21.4825   20.6695 H   0  0  0  0  0  0
  -31.5249  -20.5689   21.1295 H   0  0  0  0  0  0
  -31.4228  -21.0960   19.4709 H   0  0  0  0  0  0
  -35.3773  -18.7498   20.5243 H   0  0  0  0  0  0
  -35.7284  -19.7005   19.1054 H   0  0  0  0  0  0
  -33.0908  -19.3971   18.7725 H   0  0  0  0  0  0
  -33.1107  -18.7093   20.3739 H   0  0  0  0  0  0
  -34.1533  -21.4613   19.7609 H   0  0  0  0  0  0
  -33.9688  -20.7748   21.3628 H   0  0  0  0  0  0
  -26.4791  -21.5238   20.5681 H   0  0  0  0  0  0
  -26.4884  -22.2073   18.9714 H   0  0  0  0  0  0
  -29.3148  -24.5133   21.2361 H   0  0  0  0  0  0
  -27.6912  -24.5507   21.6768 H   0  0  0  0  0  0
  -28.6416  -22.9023   19.1731 H   0  0  0  0  0  0
  -29.8608  -21.7712   21.0581 H   0  0  0  0  0  0
  -26.2955  -24.2216   20.8944 H   0  0  0  0  0  0
  -25.3340  -23.8755   19.6191 H   0  0  0  0  0  0
  1 25  1  0  0  0
  1 30  2  0  0  0
  1 89  1  0  0  0
  2  3  1  0  0  0
  2 25  1  0  0  0
  2 92  1  0  0  0
  2 93  1  0  0  0
  3  4  1  0  0  0
  3 94  1  0  0  0
  3 95  1  0  0  0
  4  5  1  0  0  0
  4 96  1  0  0  0
  4 97  1  0  0  0
  5  6  1  0  0  0
  5 26  1  0  0  0
  5 98  1  0  0  0
  6 25  1  0  0  0
  6 99  1  0  0  0
  6100  1  0  0  0
  7  8  2  0  0  0
  7 26  1  0  0  0
  7 29  1  0  0  0
  8  9  1  0  0  0
  8 22  1  0  0  0
  9 10  1  0  0  0
  9 27  2  0  0  0
 10 11  2  0  0  0
 10 15  1  0  0  0
 11 12  1  0  0  0
 11101  1  0  0  0
 12 13  2  0  0  0
 12102  1  0  0  0
 13 14  1  0  0  0
 13 31  1  0  0  0
 14 15  2  0  0  0
 14103  1  0  0  0
 15104  1  0  0  0
 16 17  2  0  0  0
 16 21  1  0  0  0
 16 31  1  0  0  0
 17 18  1  0  0  0
 17105  1  0  0  0
 18 19  2  0  0  0
 18106  1  0  0  0
 19 20  1  0  0  0
 19 24  1  0  0  0
 20 21  2  0  0  0
 20107  1  0  0  0
 21 23  1  0  0  0
 22 28  1  0  0  0
 22 32  2  0  0  0
 26 27  1  0  0  0
 28108  1  0  0  0
 28109  1  0  0  0
 29110  1  0  0  0
 29111  1  0  0  0
 33 34  1  0  0  0
 33 66  1  0  0  0
 33 70  2  0  0  0
 34 36  1  0  0  0
 34 59  1  0  0  0
 34112  1  0  0  0
 35 44  2  0  0  0
 35 45  1  0  0  0
 35 68  1  0  0  0
 36 56  1  0  0  0
 36113  1  0  0  0
 37 39  1  0  0  0
 37 47  1  0  0  0
 37 66  1  0  0  0
 37114  1  0  0  0
 38 43  2  0  0  0
 38 46  1  0  0  0
 38 47  1  0  0  0
 39 64  1  0  0  0
 39 67  2  0  0  0
 40 52  1  0  0  0
 40 53  2  0  0  0
 40 58  1  0  0  0
 41115  1  0  0  0
 41116  1  0  0  0
 41117  1  0  0  0
 41 48  1  0  0  0
 42 43  1  0  0  0
 42 66  1  0  0  0
 42118  1  0  0  0
 42119  1  0  0  0
 43 44  1  0  0  0
 44120  1  0  0  0
 45 46  2  0  0  0
 45121  1  0  0  0
 46122  1  0  0  0
 47123  1  0  0  0
 47124  1  0  0  0
 48 56  1  0  0  0
 48 65  1  0  0  0
 48125  1  0  0  0
 49 50  1  0  0  0
 49 53  1  0  0  0
 49 64  1  0  0  0
 49126  1  0  0  0
 50 51  1  0  0  0
 50127  1  0  0  0
 50128  1  0  0  0
 51 52  1  0  0  0
 51129  1  0  0  0
 51130  1  0  0  0
 52131  1  0  0  0
 52132  1  0  0  0
 53 54  1  0  0  0
 54 55  2  0  0  0
 54133  1  0  0  0
 55 57  1  0  0  0
 55134  1  0  0  0
 56 69  2  0  0  0
 57 58  2  0  0  0
 57135  1  0  0  0
 58136  1  0  0  0
 59 60  1  0  0  0
 59 61  1  0  0  0
 59 62  1  0  0  0
 60137  1  0  0  0
 60138  1  0  0  0
 60139  1  0  0  0
 61140  1  0  0  0
 61141  1  0  0  0
 61142  1  0  0  0
 62143  1  0  0  0
 62144  1  0  0  0
 62145  1  0  0  0
 63 65  1  0  0  0
 63146  1  0  0  0
 63147  1  0  0  0
 63148  1  0  0  0
 64149  1  0  0  0
 65150  1  0  0  0
 68 87  1  0  0  0
 71 72  1  0  0  0
 71 73  1  0  0  0
 71151  1  0  0  0
 71152  1  0  0  0
 72 74  1  0  0  0
 72153  1  0  0  0
 72154  1  0  0  0
 73 80  1  0  0  0
 73155  1  0  0  0
 73156  1  0  0  0
 74 80  1  0  0  0
 74157  1  0  0  0
 74158  1  0  0  0
 75 76  1  0  0  0
 75 79  1  0  0  0
 75159  1  0  0  0
 75160  1  0  0  0
 76 89  1  0  0  0
 76161  1  0  0  0
 76162  1  0  0  0
 77 78  1  0  0  0
 77 89  1  0  0  0
 77163  1  0  0  0
 77164  1  0  0  0
 78 79  1  0  0  0
 78 82  1  0  0  0
 78165  1  0  0  0
 79 90  1  0  0  0
 79166  1  0  0  0
 80 91  1  0  0  0
 80167  1  0  0  0
 81 83  1  0  0  0
 81168  1  0  0  0
 81169  1  0  0  0
 81170  1  0  0  0
 82 84  1  0  0  0
 82171  1  0  0  0
 82172  1  0  0  0
 83 85  1  0  0  0
 83173  1  0  0  0
 83174  1  0  0  0
 84 85  1  0  0  0
 84175  1  0  0  0
 84176  1  0  0  0
 85177  1  0  0  0
 85178  1  0  0  0
 86 91  1  0  0  0
 86179  1  0  0  0
 86180  1  0  0  0
 86 88  1  0  0  0
 87 88  1  0  0  0
 87181  1  0  0  0
 87182  1  0  0  0
 88 90  1  0  0  0
 88183  1  0  0  0
 90184  1  0  0  0
 91185  1  0  0  0
 91186  1  0  0  0
M  CHG  1  91   1
M  ISO  4   1 100  68 101  87 101  89 100
M  END
> <chiral flag>
0

> <version>
0

> <s_m_source_file>
/data/baiqing/PycharmProjects/Reinvent-master-3.2/result/LINK_invent/BTK/process_docking_weight1_custom_sum_contain_oxygen_bond_distance_aromatic_linkinvent_7_9_3/rearranged_h_0129.sdf

> <i_m_source_file_index>
18

> <r_mmod_Potential_Energy-OPLS-2005>
1213.63171386719

> <r_mmod_Stretch_Energy-OPLS-2005>
428.878845214844

> <r_mmod_Bend_Energy-OPLS-2005>
522.484375

> <r_mmod_Torsional_Energy-OPLS-2005>
449.545928955078

> <r_mmod_Improper_Torsional_Energy-OPLS-2005>
6.27664756774902

> <r_mmod_Van_der_Waal_Energy-OPLS-2005>
118.448234558105

> <r_mmod_Electrostatic_Energy-OPLS-2005>
-207.517822265625

> <r_mmod_Solvation_Energy-OPLS-2005>
-427.400543212891

> <b_mmod_Minimization_Converged-OPLS-2005>
0

> <r_mmod_RMS_Derivative-OPLS-2005>
4.22951126098633

$$$$
18
                    3D
 Structure written by MMmdl.
155163  0  0  1  0            999 V2000
  -30.5395  -14.8781   20.4335 C   0  0  0  0  0  0
  -30.4508  -12.5376   19.4908 C   0  0  0  0  0  0
  -29.5280  -12.5325   18.2486 C   0  0  0  0  0  0
  -28.0526  -12.3358   18.6538 C   0  0  0  0  0  0
  -27.6401  -13.2396   19.8458 C   0  0  2  0  0  0
  -28.6839  -13.2063   20.9844 C   0  0  0  0  0  0
  -25.2511  -13.8201   20.5701 C   0  0  0  0  0  0
  -24.1804  -13.0447   20.9227 C   0  0  0  0  0  0
  -24.6398  -11.6926   20.8732 C   0  0  0  0  0  0
  -23.9073  -10.4300   21.0385 C   0  0  0  0  0  0
  -24.3622   -9.4225   21.9170 C   0  0  0  0  0  0
  -23.6307   -8.2256   22.0744 C   0  0  0  0  0  0
  -22.4291   -8.0280   21.3543 C   0  0  0  0  0  0
  -21.9921   -9.0244   20.4641 C   0  0  0  0  0  0
  -22.7239  -10.2134   20.3044 C   0  0  0  0  0  0
  -21.6857   -6.0737   22.5274 C   0  0  0  0  0  0
  -21.4010   -6.5629   23.8212 C   0  0  0  0  0  0
  -21.3668   -5.6785   24.9174 C   0  0  0  0  0  0
  -21.6050   -4.3051   24.7220 C   0  0  0  0  0  0
  -21.8818   -3.8140   23.4342 C   0  0  0  0  0  0
  -21.9198   -4.6960   22.3402 C   0  0  0  0  0  0
  -22.7825  -13.5231   21.1871 C   0  0  0  0  0  0
  -22.1665   -4.2145   21.0983 F   0  0  0  0  0  0
  -21.5642   -3.4540   25.7736 F   0  0  0  0  0  0
  -29.9756  -13.6079   20.4070 N   0  0  0  0  0  0
  -26.2935  -12.9416   20.3241 N   0  0  0  0  0  0
  -25.9331  -11.6554   20.5702 N   0  0  0  0  0  0
  -22.0457  -12.8231   22.0420 N   0  0  0  0  0  0
  -25.4194  -15.1935   20.4132 N   0  0  0  0  0  0
  -31.7260  -14.9931   20.1026 O   0  0  0  0  0  0
  -21.6648   -6.8887   21.4237 O   0  0  0  0  0  0
  -22.3520  -14.5540   20.6712 O   0  0  0  0  0  0
  -24.6395  -31.8491   23.1937 C   0  0  0  0  0  0
  -25.9185  -32.4719   23.8317 C   0  0  1  0  0  0
  -27.2218  -27.1859   20.1314 C   0  0  0  0  0  0
  -25.5961  -33.8534   24.2233 N   0  0  0  0  0  0
  -23.4409  -30.4686   21.5408 C   0  0  2  0  0  0
  -24.8908  -28.9092   20.1075 C   0  0  0  0  0  0
  -22.7556  -29.4562   22.4919 C   0  0  0  0  0  0
  -18.0294  -28.1389   22.8476 C   0  0  0  0  0  0
  -24.1498  -36.7253   23.2638 C   0  0  0  0  0  0
  -25.9951  -30.7340   21.3912 C   0  0  0  0  0  0
  -26.0656  -29.3531   20.7266 C   0  0  0  0  0  0
  -27.2304  -28.5049   20.7270 C   0  0  0  0  0  0
  -26.0229  -26.8403   19.4647 C   0  0  0  0  0  0
  -24.8806  -27.6644   19.4631 C   0  0  0  0  0  0
  -23.6624  -29.8015   20.1585 C   0  0  0  0  0  0
  -25.4128  -36.3049   24.0321 C   0  0  1  0  0  0
  -20.5902  -28.3702   23.1266 C   0  0  2  0  0  0
  -20.6795  -26.9415   22.5414 C   0  0  0  0  0  0
  -19.5764  -26.6376   21.5231 C   0  0  0  0  0  0
  -18.1935  -26.7931   22.1621 C   0  0  0  0  0  0
  -19.1547  -28.8871   23.2860 C   0  0  0  0  0  0
  -18.9463  -30.1481   23.8864 C   0  0  0  0  0  0
  -17.6457  -30.6590   24.0556 C   0  0  0  0  0  0
  -25.9076  -34.9421   23.5079 C   0  0  0  0  0  0
  -16.5352  -29.9073   23.6350 C   0  0  0  0  0  0
  -16.7277  -28.6502   23.0354 C   0  0  0  0  0  0
  -26.4514  -31.6570   25.0750 C   0  0  0  0  0  0
  -25.3692  -31.3755   26.1440 C   0  0  0  0  0  0
  -27.0380  -30.2964   24.6324 C   0  0  0  0  0  0
  -27.6048  -32.4338   25.7526 C   0  0  0  0  0  0
  -27.5591  -37.1776   24.8454 C   0  0  0  0  0  0
  -21.4251  -29.3028   22.3650 N   0  0  0  0  0  0
  -26.4299  -37.3757   23.9411 N   0  0  0  0  0  0
  -24.7109  -31.0374   22.0958 N   0  0  0  0  0  0
  -23.4222  -28.8112   23.3057 O   0  0  0  0  0  0
  -28.2907  -26.2331   20.2161 O   0  0  0  0  0  0
  -26.5648  -34.8910   22.4652 O   0  0  0  0  0  0
  -23.5527  -32.1363   23.7175 O   0  0  0  0  0  0
  -28.5138  -18.1702   21.0423 C   0  0  0  0  0  0
  -28.2778  -19.5859   20.8926 C   0  0  0  0  0  0
  -29.1824  -20.4376   20.1846 C   0  0  0  0  0  0
  -30.3387  -19.6910   19.7489 C   0  0  0  0  0  0
  -29.6579  -17.4803   20.5327 C   0  0  0  0  0  0
  -26.9984  -20.1657   21.4685 C   0  0  0  0  0  0
  -31.4458  -20.4029   18.9932 C   0  0  0  0  0  0
  -28.7774  -21.9500   19.6769 C   0  0  0  0  0  0
  -28.9252  -23.4253   20.4210 C   0  0  0  0  0  0
  -28.1016  -24.7511   19.8414 C   0  0  0  0  0  0
  -30.5551  -18.3211   19.9159 N   0  0  0  0  0  0
  -29.6924  -15.9716   20.7016 N   0  0  0  0  0  0
  -31.4859  -12.6963   19.1847 H   0  0  0  0  0  0
  -30.4344  -11.5699   19.9921 H   0  0  0  0  0  0
  -29.8364  -11.7529   17.5513 H   0  0  0  0  0  0
  -29.6355  -13.4785   17.7144 H   0  0  0  0  0  0
  -27.9209  -11.2875   18.9229 H   0  0  0  0  0  0
  -27.3973  -12.5146   17.7992 H   0  0  0  0  0  0
  -27.6212  -14.2560   19.4527 H   0  0  0  0  0  0
  -28.7510  -12.2118   21.4257 H   0  0  0  0  0  0
  -28.3934  -13.8786   21.7934 H   0  0  0  0  0  0
  -25.2750   -9.5718   22.4757 H   0  0  0  0  0  0
  -24.0020   -7.4647   22.7457 H   0  0  0  0  0  0
  -21.0855   -8.8748   19.8943 H   0  0  0  0  0  0
  -22.3668  -10.9672   19.6161 H   0  0  0  0  0  0
  -21.1983   -7.6133   23.9718 H   0  0  0  0  0  0
  -21.1502   -6.0510   25.9085 H   0  0  0  0  0  0
  -22.0595   -2.7599   23.2835 H   0  0  0  0  0  0
  -22.4046  -11.9906   22.4851 H   0  0  0  0  0  0
  -21.1059  -13.1242   22.2563 H   0  0  0  0  0  0
  -24.6475  -15.8420   20.5232 H   0  0  0  0  0  0
  -26.2470  -15.6312   20.0306 H   0  0  0  0  0  0
  -26.7255  -32.5329   23.1056 H   0  0  0  0  0  0
  -25.0102  -33.9665   25.0371 H   0  0  0  0  0  0
  -22.7402  -31.2922   21.3920 H   0  0  0  0  0  0
  -23.3795  -35.9550   23.3259 H   0  0  0  0  0  0
  -24.3590  -36.8923   22.2063 H   0  0  0  0  0  0
  -23.7211  -37.6421   23.6695 H   0  0  0  0  0  0
  -26.1558  -31.4951   20.6269 H   0  0  0  0  0  0
  -26.8635  -30.7730   22.0377 H   0  0  0  0  0  0
  -28.1251  -28.8388   21.2344 H   0  0  0  0  0  0
  -25.9263  -25.8992   18.9466 H   0  0  0  0  0  0
  -23.9850  -27.3214   18.9631 H   0  0  0  0  0  0
  -23.7859  -30.5777   19.4035 H   0  0  0  0  0  0
  -22.7789  -29.2367   19.8549 H   0  0  0  0  0  0
  -25.1313  -36.1888   25.0815 H   0  0  0  0  0  0
  -20.9982  -28.3280   24.1399 H   0  0  0  0  0  0
  -20.5739  -26.2299   23.3619 H   0  0  0  0  0  0
  -21.6650  -26.7457   22.1174 H   0  0  0  0  0  0
  -19.6926  -25.6291   21.1264 H   0  0  0  0  0  0
  -19.6717  -27.3190   20.6770 H   0  0  0  0  0  0
  -17.4223  -26.6698   21.4011 H   0  0  0  0  0  0
  -18.0305  -26.0083   22.9017 H   0  0  0  0  0  0
  -19.7940  -30.7312   24.2203 H   0  0  0  0  0  0
  -17.5005  -31.6269   24.5154 H   0  0  0  0  0  0
  -15.5343  -30.2949   23.7718 H   0  0  0  0  0  0
  -15.8675  -28.0815   22.7071 H   0  0  0  0  0  0
  -24.5858  -30.7128   25.7738 H   0  0  0  0  0  0
  -24.8904  -32.2945   26.4837 H   0  0  0  0  0  0
  -25.7966  -30.8923   27.0235 H   0  0  0  0  0  0
  -26.3002  -29.6689   24.1314 H   0  0  0  0  0  0
  -27.3964  -29.7265   25.4905 H   0  0  0  0  0  0
  -27.8923  -30.4197   23.9665 H   0  0  0  0  0  0
  -27.2628  -33.3643   26.2076 H   0  0  0  0  0  0
  -28.3867  -32.6895   25.0358 H   0  0  0  0  0  0
  -28.0709  -31.8487   26.5467 H   0  0  0  0  0  0
  -28.2559  -38.0120   24.7567 H   0  0  0  0  0  0
  -28.1140  -36.2655   24.6204 H   0  0  0  0  0  0
  -27.2312  -37.1313   25.8853 H   0  0  0  0  0  0
  -20.9471  -29.8705   21.6789 H   0  0  0  0  0  0
  -26.0170  -38.2824   24.1441 H   0  0  0  0  0  0
  -27.7571  -17.5903   21.5529 H   0  0  0  0  0  0
  -26.6869  -19.6143   22.3571 H   0  0  0  0  0  0
  -26.1912  -20.1190   20.7363 H   0  0  0  0  0  0
  -27.1336  -21.2065   21.7656 H   0  0  0  0  0  0
  -31.2060  -20.4727   17.9324 H   0  0  0  0  0  0
  -32.3969  -19.8778   19.0939 H   0  0  0  0  0  0
  -31.5914  -21.4130   19.3760 H   0  0  0  0  0  0
  -27.7226  -21.8737   19.4084 H   0  0  0  0  0  0
  -29.2600  -22.0706   18.7068 H   0  0  0  0  0  0
  -29.9864  -23.6761   20.4520 H   0  0  0  0  0  0
  -28.6297  -23.3064   21.4637 H   0  0  0  0  0  0
  -27.0599  -24.4996   20.0371 H   0  0  0  0  0  0
  -28.2018  -24.7253   18.7557 H   0  0  0  0  0  0
  -28.8129  -15.6241   21.0459 H   0  0  0  0  0  0
  1 25  1  0  0  0
  1 30  2  0  0  0
  1 82  1  0  0  0
  2  3  1  0  0  0
  2 25  1  0  0  0
  2 83  1  0  0  0
  2 84  1  0  0  0
  3  4  1  0  0  0
  3 85  1  0  0  0
  3 86  1  0  0  0
  4  5  1  0  0  0
  4 87  1  0  0  0
  4 88  1  0  0  0
  5  6  1  0  0  0
  5 26  1  0  0  0
  5 89  1  0  0  0
  6 25  1  0  0  0
  6 90  1  0  0  0
  6 91  1  0  0  0
  7  8  2  0  0  0
  7 26  1  0  0  0
  7 29  1  0  0  0
  8  9  1  0  0  0
  8 22  1  0  0  0
  9 10  1  0  0  0
  9 27  2  0  0  0
 10 11  2  0  0  0
 10 15  1  0  0  0
 11 12  1  0  0  0
 11 92  1  0  0  0
 12 13  2  0  0  0
 12 93  1  0  0  0
 13 14  1  0  0  0
 13 31  1  0  0  0
 14 15  2  0  0  0
 14 94  1  0  0  0
 15 95  1  0  0  0
 16 17  2  0  0  0
 16 21  1  0  0  0
 16 31  1  0  0  0
 17 18  1  0  0  0
 17 96  1  0  0  0
 18 19  2  0  0  0
 18 97  1  0  0  0
 19 20  1  0  0  0
 19 24  1  0  0  0
 20 21  2  0  0  0
 20 98  1  0  0  0
 21 23  1  0  0  0
 22 28  1  0  0  0
 22 32  2  0  0  0
 26 27  1  0  0  0
 28 99  1  0  0  0
 28100  1  0  0  0
 29101  1  0  0  0
 29102  1  0  0  0
 33 34  1  0  0  0
 33 66  1  0  0  0
 33 70  2  0  0  0
 34 36  1  0  0  0
 34 59  1  0  0  0
 34103  1  0  0  0
 35 44  2  0  0  0
 35 45  1  0  0  0
 35 68  1  0  0  0
 36 56  1  0  0  0
 36104  1  0  0  0
 37 39  1  0  0  0
 37 47  1  0  0  0
 37 66  1  0  0  0
 37105  1  0  0  0
 38 43  2  0  0  0
 38 46  1  0  0  0
 38 47  1  0  0  0
 39 64  1  0  0  0
 39 67  2  0  0  0
 40 52  1  0  0  0
 40 53  2  0  0  0
 40 58  1  0  0  0
 41106  1  0  0  0
 41107  1  0  0  0
 41108  1  0  0  0
 41 48  1  0  0  0
 42 43  1  0  0  0
 42 66  1  0  0  0
 42109  1  0  0  0
 42110  1  0  0  0
 43 44  1  0  0  0
 44111  1  0  0  0
 45 46  2  0  0  0
 45112  1  0  0  0
 46113  1  0  0  0
 47114  1  0  0  0
 47115  1  0  0  0
 48 56  1  0  0  0
 48 65  1  0  0  0
 48116  1  0  0  0
 49 50  1  0  0  0
 49 53  1  0  0  0
 49 64  1  0  0  0
 49117  1  0  0  0
 50 51  1  0  0  0
 50118  1  0  0  0
 50119  1  0  0  0
 51 52  1  0  0  0
 51120  1  0  0  0
 51121  1  0  0  0
 52122  1  0  0  0
 52123  1  0  0  0
 53 54  1  0  0  0
 54 55  2  0  0  0
 54124  1  0  0  0
 55 57  1  0  0  0
 55125  1  0  0  0
 56 69  2  0  0  0
 57 58  2  0  0  0
 57126  1  0  0  0
 58127  1  0  0  0
 59 60  1  0  0  0
 59 61  1  0  0  0
 59 62  1  0  0  0
 60128  1  0  0  0
 60129  1  0  0  0
 60130  1  0  0  0
 61131  1  0  0  0
 61132  1  0  0  0
 61133  1  0  0  0
 62134  1  0  0  0
 62135  1  0  0  0
 62136  1  0  0  0
 63 65  1  0  0  0
 63137  1  0  0  0
 63138  1  0  0  0
 63139  1  0  0  0
 64140  1  0  0  0
 65141  1  0  0  0
 68 80  1  0  0  0
 71 72  2  0  0  0
 71 75  1  0  0  0
 71142  1  0  0  0
 72 73  1  0  0  0
 72 76  1  0  0  0
 73 74  2  0  0  0
 73 78  1  0  0  0
 74 77  1  0  0  0
 74 81  1  0  0  0
 75 81  2  0  0  0
 75 82  1  0  0  0
 76143  1  0  0  0
 76144  1  0  0  0
 76145  1  0  0  0
 77146  1  0  0  0
 77147  1  0  0  0
 77148  1  0  0  0
 78 79  1  0  0  0
 78149  1  0  0  0
 78150  1  0  0  0
 79 80  1  0  0  0
 79151  1  0  0  0
 79152  1  0  0  0
 80153  1  0  0  0
 80154  1  0  0  0
 82155  1  0  0  0
M  ISO  4   1 100  68 101  80 101  82 100
M  END
> <chiral flag>
0

> <version>
0

> <s_m_source_file>
/data/baiqing/PycharmProjects/Reinvent-master-3.2/result/LINK_invent/BTK/process_docking_weight1_custom_sum_contain_oxygen_bond_distance_aromatic_linkinvent_7_9_3/rearranged_h_0129.sdf

> <i_m_source_file_index>
19

> <r_mmod_Potential_Energy-OPLS-2005>
207.041976928711

> <r_mmod_Stretch_Energy-OPLS-2005>
193.555206298828

> <r_mmod_Bend_Energy-OPLS-2005>
245.827926635742

> <r_mmod_Torsional_Energy-OPLS-2005>
210.939575195312

> <r_mmod_Improper_Torsional_Energy-OPLS-2005>
5.59209632873535

> <r_mmod_Van_der_Waal_Energy-OPLS-2005>
136.005355834961

> <r_mmod_Electrostatic_Energy-OPLS-2005>
-496.820709228516

> <r_mmod_Solvation_Energy-OPLS-2005>
-235.522659301758

> <b_mmod_Minimization_Converged-OPLS-2005>
0

> <r_mmod_RMS_Derivative-OPLS-2005>
2.33862662315369

$$$$
19
                    3D
 Structure written by MMmdl.
178186  0  0  1  0            999 V2000
  -30.7672  -14.5628   20.3116 C   0  0  0  0  0  0
  -30.4157  -12.3391   19.3796 C   0  0  0  0  0  0
  -29.4549  -12.3739   18.1803 C   0  0  0  0  0  0
  -27.9956  -12.2275   18.6479 C   0  0  0  0  0  0
  -27.6349  -13.1751   19.8195 C   0  0  2  0  0  0
  -28.7209  -13.1801   20.9222 C   0  0  0  0  0  0
  -25.2651  -13.8042   20.5809 C   0  0  0  0  0  0
  -24.1827  -13.0372   20.9270 C   0  0  0  0  0  0
  -24.6351  -11.6822   20.8796 C   0  0  0  0  0  0
  -23.8992  -10.4217   21.0430 C   0  0  0  0  0  0
  -24.3539   -9.4154   21.9203 C   0  0  0  0  0  0
  -23.6294   -8.2152   22.0714 C   0  0  0  0  0  0
  -22.4277   -8.0211   21.3515 C   0  0  0  0  0  0
  -21.9888   -9.0175   20.4654 C   0  0  0  0  0  0
  -22.7172  -10.2082   20.3082 C   0  0  0  0  0  0
  -21.6814   -6.0712   22.5249 C   0  0  0  0  0  0
  -21.4015   -6.5634   23.8177 C   0  0  0  0  0  0
  -21.3700   -5.6809   24.9145 C   0  0  0  0  0  0
  -21.6032   -4.3066   24.7227 C   0  0  0  0  0  0
  -21.8798   -3.8169   23.4334 C   0  0  0  0  0  0
  -21.9168   -4.6965   22.3384 C   0  0  0  0  0  0
  -22.7895  -13.5259   21.1955 C   0  0  0  0  0  0
  -22.1596   -4.2131   21.0975 F   0  0  0  0  0  0
  -21.5684   -3.4589   25.7763 F   0  0  0  0  0  0
  -30.0097  -13.4352   20.2629 N   0  0  0  0  0  0
  -26.2967  -12.9128   20.3327 N   0  0  0  0  0  0
  -25.9243  -11.6329   20.5788 N   0  0  0  0  0  0
  -22.0545  -12.8136   22.0477 N   0  0  0  0  0  0
  -25.4604  -15.1740   20.4321 N   0  0  0  0  0  0
  -31.9614  -14.4848   20.5797 O   0  0  0  0  0  0
  -21.6632   -6.8828   21.4186 O   0  0  0  0  0  0
  -22.3649  -14.5628   20.6900 O   0  0  0  0  0  0
  -24.6103  -31.8711   23.2097 C   0  0  0  0  0  0
  -25.9011  -32.4852   23.8403 C   0  0  1  0  0  0
  -27.2760  -27.4768   20.1183 C   0  0  0  0  0  0
  -25.5893  -33.8644   24.2349 N   0  0  0  0  0  0
  -23.3998  -30.4831   21.5501 C   0  0  2  0  0  0
  -24.8593  -28.9522   20.1185 C   0  0  0  0  0  0
  -22.7395  -29.4653   22.5037 C   0  0  0  0  0  0
  -18.0271  -28.1346   22.8494 C   0  0  0  0  0  0
  -24.1494  -36.7319   23.2643 C   0  0  0  0  0  0
  -25.9180  -30.8479   21.3571 C   0  0  0  0  0  0
  -26.0065  -29.4792   20.7235 C   0  0  0  0  0  0
  -27.2129  -28.7510   20.7294 C   0  0  0  0  0  0
  -26.1212  -26.9679   19.4871 C   0  0  0  0  0  0
  -24.9111  -27.6930   19.4928 C   0  0  0  0  0  0
  -23.6083  -29.8000   20.1691 C   0  0  0  0  0  0
  -25.4126  -36.3133   24.0341 C   0  0  1  0  0  0
  -20.5846  -28.3647   23.1319 C   0  0  2  0  0  0
  -20.6766  -26.9388   22.5395 C   0  0  0  0  0  0
  -19.5737  -26.6377   21.5202 C   0  0  0  0  0  0
  -18.1907  -26.7916   22.1601 C   0  0  0  0  0  0
  -19.1503  -28.8833   23.2891 C   0  0  0  0  0  0
  -18.9442  -30.1449   23.8872 C   0  0  0  0  0  0
  -17.6441  -30.6586   24.0528 C   0  0  0  0  0  0
  -25.9037  -34.9506   23.5146 C   0  0  0  0  0  0
  -16.5337  -29.9048   23.6338 C   0  0  0  0  0  0
  -16.7258  -28.6448   23.0396 C   0  0  0  0  0  0
  -26.4470  -31.6604   25.0695 C   0  0  0  0  0  0
  -25.3753  -31.3641   26.1426 C   0  0  0  0  0  0
  -27.0310  -30.3079   24.5997 C   0  0  0  0  0  0
  -27.6040  -32.4317   25.7470 C   0  0  0  0  0  0
  -27.5606  -37.1807   24.8471 C   0  0  0  0  0  0
  -21.4132  -29.3024   22.3768 N   0  0  0  0  0  0
  -26.4320  -37.3814   23.9420 N   0  0  0  0  0  0
  -24.6605  -31.0813   22.0978 N   0  0  0  0  0  0
  -23.4155  -28.8234   23.3124 O   0  0  0  0  0  0
  -28.4084  -26.6877   20.0910 O   0  0  0  0  0  0
  -26.5578  -34.8943   22.4689 O   0  0  0  0  0  0
  -23.5300  -32.1435   23.7517 O   0  0  0  0  0  0
  -29.5303  -15.8267   16.7586 C   0  0  0  0  0  0
  -28.7037  -16.1830   17.7641 C   0  0  0  0  0  0
  -31.0165  -15.5881   16.9304 C   0  0  0  0  0  0
  -31.4960  -15.8827   18.3607 C   0  0  0  0  0  0
  -29.2319  -16.3177   19.2058 C   0  0  2  0  0  0
  -27.1237  -17.8956   16.7437 C   0  0  0  0  0  0
  -26.4772  -15.4432   16.7498 C   0  0  0  0  0  0
  -29.4191  -17.8406   19.4688 C   0  0  0  0  0  0
  -29.8061  -18.3473   20.8722 C   0  0  0  0  0  0
  -29.3691  -19.8251   20.9751 C   0  0  0  0  0  0
  -29.7329  -20.5987   22.2533 C   0  0  0  0  0  0
  -29.1100  -22.0146   22.2347 C   0  0  0  0  0  0
  -30.1324  -23.1833   22.2034 C   0  0  0  0  0  0
  -29.4358  -24.5578   22.0615 C   0  0  0  0  0  0
  -30.2444  -25.6355   21.3051 C   0  0  0  0  0  0
  -29.4432  -26.9328   21.0509 C   0  0  0  0  0  0
  -27.2451  -16.5483   17.4994 C   0  0  0  0  0  0
  -30.4638  -15.5043   19.3588 N   0  0  0  0  0  0
  -31.4450  -12.4560   19.0282 H   0  0  0  0  0  0
  -30.3757  -11.3831   19.9029 H   0  0  0  0  0  0
  -29.6979  -11.5704   17.4827 H   0  0  0  0  0  0
  -29.5571  -13.3046   17.6279 H   0  0  0  0  0  0
  -27.8593  -11.1918   18.9670 H   0  0  0  0  0  0
  -27.3160  -12.3682   17.8038 H   0  0  0  0  0  0
  -27.5947  -14.1572   19.3722 H   0  0  0  0  0  0
  -28.7543  -12.2294   21.4586 H   0  0  0  0  0  0
  -28.5151  -13.9532   21.6635 H   0  0  0  0  0  0
  -25.2612   -9.5727   22.4837 H   0  0  0  0  0  0
  -24.0055   -7.4541   22.7377 H   0  0  0  0  0  0
  -21.0835   -8.8694   19.8977 H   0  0  0  0  0  0
  -22.3564  -10.9649   19.6287 H   0  0  0  0  0  0
  -21.1949   -7.6140   23.9686 H   0  0  0  0  0  0
  -21.1605   -6.0558   25.9034 H   0  0  0  0  0  0
  -22.0578   -2.7645   23.2847 H   0  0  0  0  0  0
  -22.4293  -11.9748   22.4623 H   0  0  0  0  0  0
  -21.1182  -13.1102   22.2810 H   0  0  0  0  0  0
  -24.7240  -15.8610   20.5453 H   0  0  0  0  0  0
  -26.3551  -15.5927   20.2230 H   0  0  0  0  0  0
  -26.7088  -32.5623   23.1186 H   0  0  0  0  0  0
  -25.0110  -33.9815   25.0544 H   0  0  0  0  0  0
  -22.6852  -31.2952   21.4023 H   0  0  0  0  0  0
  -23.3771  -35.9637   23.3278 H   0  0  0  0  0  0
  -24.3576  -36.8947   22.2062 H   0  0  0  0  0  0
  -23.7206  -37.6505   23.6650 H   0  0  0  0  0  0
  -26.0077  -31.6054   20.5776 H   0  0  0  0  0  0
  -26.8132  -30.9256   21.9608 H   0  0  0  0  0  0
  -28.0860  -29.1814   21.2000 H   0  0  0  0  0  0
  -26.1617  -26.0062   18.9918 H   0  0  0  0  0  0
  -24.0373  -27.2837   19.0040 H   0  0  0  0  0  0
  -23.6888  -30.5623   19.3927 H   0  0  0  0  0  0
  -22.7442  -29.1922   19.8936 H   0  0  0  0  0  0
  -25.1299  -36.2024   25.0833 H   0  0  0  0  0  0
  -20.9910  -28.3195   24.1454 H   0  0  0  0  0  0
  -20.5713  -26.2251   23.3565 H   0  0  0  0  0  0
  -21.6635  -26.7470   22.1162 H   0  0  0  0  0  0
  -19.6910  -25.6295   21.1211 H   0  0  0  0  0  0
  -19.6692  -27.3199   20.6733 H   0  0  0  0  0  0
  -17.4209  -26.6715   21.3958 H   0  0  0  0  0  0
  -18.0268  -26.0018   22.8941 H   0  0  0  0  0  0
  -19.7914  -30.7284   24.2210 H   0  0  0  0  0  0
  -17.4982  -31.6278   24.5086 H   0  0  0  0  0  0
  -15.5314  -30.2942   23.7686 H   0  0  0  0  0  0
  -15.8652  -28.0751   22.7157 H   0  0  0  0  0  0
  -24.5957  -30.6966   25.7718 H   0  0  0  0  0  0
  -24.8911  -32.2775   26.4896 H   0  0  0  0  0  0
  -25.8126  -30.8781   27.0160 H   0  0  0  0  0  0
  -26.2826  -29.6808   24.1125 H   0  0  0  0  0  0
  -27.4209  -29.7311   25.4395 H   0  0  0  0  0  0
  -27.8591  -30.4425   23.9028 H   0  0  0  0  0  0
  -27.2654  -33.3602   26.2075 H   0  0  0  0  0  0
  -28.3846  -32.6908   25.0306 H   0  0  0  0  0  0
  -28.0705  -31.8425   26.5368 H   0  0  0  0  0  0
  -28.2597  -38.0132   24.7577 H   0  0  0  0  0  0
  -28.1120  -36.2659   24.6243 H   0  0  0  0  0  0
  -27.2293  -37.1393   25.8859 H   0  0  0  0  0  0
  -20.9328  -29.8706   21.6936 H   0  0  0  0  0  0
  -26.0212  -38.2897   24.1412 H   0  0  0  0  0  0
  -29.1525  -15.7607   15.7500 H   0  0  0  0  0  0
  -31.5575  -16.2347   16.2367 H   0  0  0  0  0  0
  -31.2512  -14.5575   16.6569 H   0  0  0  0  0  0
  -31.7310  -16.9404   18.4525 H   0  0  0  0  0  0
  -32.4633  -15.3930   18.4942 H   0  0  0  0  0  0
  -28.4842  -15.9705   19.9141 H   0  0  0  0  0  0
  -27.6364  -18.7087   17.2556 H   0  0  0  0  0  0
  -26.0837  -18.2069   16.6428 H   0  0  0  0  0  0
  -27.5453  -17.8377   15.7380 H   0  0  0  0  0  0
  -26.5356  -14.4824   17.2620 H   0  0  0  0  0  0
  -26.8505  -15.3029   15.7322 H   0  0  0  0  0  0
  -25.4209  -15.7082   16.6803 H   0  0  0  0  0  0
  -28.4590  -18.3009   19.2388 H   0  0  0  0  0  0
  -30.0871  -18.2884   18.7288 H   0  0  0  0  0  0
  -30.8799  -18.2468   21.0313 H   0  0  0  0  0  0
  -29.3161  -17.7643   21.6506 H   0  0  0  0  0  0
  -28.2871  -19.8530   20.8529 H   0  0  0  0  0  0
  -29.7717  -20.3634   20.1189 H   0  0  0  0  0  0
  -30.8182  -20.6581   22.3546 H   0  0  0  0  0  0
  -29.3719  -20.0571   23.1309 H   0  0  0  0  0  0
  -28.4378  -22.1345   23.0916 H   0  0  0  0  0  0
  -28.4557  -22.0997   21.3607 H   0  0  0  0  0  0
  -30.8396  -23.0361   21.3844 H   0  0  0  0  0  0
  -30.7382  -23.1806   23.1159 H   0  0  0  0  0  0
  -29.1767  -24.9241   23.0550 H   0  0  0  0  0  0
  -28.4912  -24.4307   21.5346 H   0  0  0  0  0  0
  -30.5888  -25.2477   20.3453 H   0  0  0  0  0  0
  -31.1393  -25.8780   21.8777 H   0  0  0  0  0  0
  -30.1025  -27.7131   20.6637 H   0  0  0  0  0  0
  -29.0484  -27.2882   22.0040 H   0  0  0  0  0  0
  -26.7707  -16.6657   18.4721 H   0  0  0  0  0  0
  1 25  1  0  0  0
  1 30  2  0  0  0
  1 88  1  0  0  0
  2  3  1  0  0  0
  2 25  1  0  0  0
  2 89  1  0  0  0
  2 90  1  0  0  0
  3  4  1  0  0  0
  3 91  1  0  0  0
  3 92  1  0  0  0
  4  5  1  0  0  0
  4 93  1  0  0  0
  4 94  1  0  0  0
  5  6  1  0  0  0
  5 26  1  0  0  0
  5 95  1  0  0  0
  6 25  1  0  0  0
  6 96  1  0  0  0
  6 97  1  0  0  0
  7  8  2  0  0  0
  7 26  1  0  0  0
  7 29  1  0  0  0
  8  9  1  0  0  0
  8 22  1  0  0  0
  9 10  1  0  0  0
  9 27  2  0  0  0
 10 11  2  0  0  0
 10 15  1  0  0  0
 11 12  1  0  0  0
 11 98  1  0  0  0
 12 13  2  0  0  0
 12 99  1  0  0  0
 13 14  1  0  0  0
 13 31  1  0  0  0
 14 15  2  0  0  0
 14100  1  0  0  0
 15101  1  0  0  0
 16 17  2  0  0  0
 16 21  1  0  0  0
 16 31  1  0  0  0
 17 18  1  0  0  0
 17102  1  0  0  0
 18 19  2  0  0  0
 18103  1  0  0  0
 19 20  1  0  0  0
 19 24  1  0  0  0
 20 21  2  0  0  0
 20104  1  0  0  0
 21 23  1  0  0  0
 22 28  1  0  0  0
 22 32  2  0  0  0
 26 27  1  0  0  0
 28105  1  0  0  0
 28106  1  0  0  0
 29107  1  0  0  0
 29108  1  0  0  0
 33 34  1  0  0  0
 33 66  1  0  0  0
 33 70  2  0  0  0
 34 36  1  0  0  0
 34 59  1  0  0  0
 34109  1  0  0  0
 35 44  2  0  0  0
 35 45  1  0  0  0
 35 68  1  0  0  0
 36 56  1  0  0  0
 36110  1  0  0  0
 37 39  1  0  0  0
 37 47  1  0  0  0
 37 66  1  0  0  0
 37111  1  0  0  0
 38 43  2  0  0  0
 38 46  1  0  0  0
 38 47  1  0  0  0
 39 64  1  0  0  0
 39 67  2  0  0  0
 40 52  1  0  0  0
 40 53  2  0  0  0
 40 58  1  0  0  0
 41112  1  0  0  0
 41113  1  0  0  0
 41114  1  0  0  0
 41 48  1  0  0  0
 42 43  1  0  0  0
 42 66  1  0  0  0
 42115  1  0  0  0
 42116  1  0  0  0
 43 44  1  0  0  0
 44117  1  0  0  0
 45 46  2  0  0  0
 45118  1  0  0  0
 46119  1  0  0  0
 47120  1  0  0  0
 47121  1  0  0  0
 48 56  1  0  0  0
 48 65  1  0  0  0
 48122  1  0  0  0
 49 50  1  0  0  0
 49 53  1  0  0  0
 49 64  1  0  0  0
 49123  1  0  0  0
 50 51  1  0  0  0
 50124  1  0  0  0
 50125  1  0  0  0
 51 52  1  0  0  0
 51126  1  0  0  0
 51127  1  0  0  0
 52128  1  0  0  0
 52129  1  0  0  0
 53 54  1  0  0  0
 54 55  2  0  0  0
 54130  1  0  0  0
 55 57  1  0  0  0
 55131  1  0  0  0
 56 69  2  0  0  0
 57 58  2  0  0  0
 57132  1  0  0  0
 58133  1  0  0  0
 59 60  1  0  0  0
 59 61  1  0  0  0
 59 62  1  0  0  0
 60134  1  0  0  0
 60135  1  0  0  0
 60136  1  0  0  0
 61137  1  0  0  0
 61138  1  0  0  0
 61139  1  0  0  0
 62140  1  0  0  0
 62141  1  0  0  0
 62142  1  0  0  0
 63 65  1  0  0  0
 63143  1  0  0  0
 63144  1  0  0  0
 63145  1  0  0  0
 64146  1  0  0  0
 65147  1  0  0  0
 68 86  1  0  0  0
 71 72  2  0  0  0
 71 73  1  0  0  0
 71148  1  0  0  0
 72 75  1  0  0  0
 72 87  1  0  0  0
 73 74  1  0  0  0
 73149  1  0  0  0
 73150  1  0  0  0
 74 88  1  0  0  0
 74151  1  0  0  0
 74152  1  0  0  0
 75 78  1  0  0  0
 75 88  1  0  0  0
 75153  1  0  0  0
 76154  1  0  0  0
 76155  1  0  0  0
 76156  1  0  0  0
 76 87  1  0  0  0
 77 87  1  0  0  0
 77157  1  0  0  0
 77158  1  0  0  0
 77159  1  0  0  0
 78 79  1  0  0  0
 78160  1  0  0  0
 78161  1  0  0  0
 79 80  1  0  0  0
 79162  1  0  0  0
 79163  1  0  0  0
 80 81  1  0  0  0
 80164  1  0  0  0
 80165  1  0  0  0
 81 82  1  0  0  0
 81166  1  0  0  0
 81167  1  0  0  0
 82 83  1  0  0  0
 82168  1  0  0  0
 82169  1  0  0  0
 83 84  1  0  0  0
 83170  1  0  0  0
 83171  1  0  0  0
 84 85  1  0  0  0
 84172  1  0  0  0
 84173  1  0  0  0
 85 86  1  0  0  0
 85174  1  0  0  0
 85175  1  0  0  0
 86176  1  0  0  0
 86177  1  0  0  0
 87178  1  0  0  0
M  ISO  4   1 100  68 101  86 101  88 100
M  END
> <chiral flag>
0

> <version>
0

> <s_m_source_file>
/data/baiqing/PycharmProjects/Reinvent-master-3.2/result/LINK_invent/BTK/process_docking_weight1_custom_sum_contain_oxygen_bond_distance_aromatic_linkinvent_7_9_3/rearranged_h_0129.sdf

> <i_m_source_file_index>
20

> <r_mmod_Potential_Energy-OPLS-2005>
331.293395996094

> <r_mmod_Stretch_Energy-OPLS-2005>
41.1016845703125

> <r_mmod_Bend_Energy-OPLS-2005>
132.32682800293

> <r_mmod_Torsional_Energy-OPLS-2005>
356.030853271484

> <r_mmod_Improper_Torsional_Energy-OPLS-2005>
31.4641246795654

> <r_mmod_Van_der_Waal_Energy-OPLS-2005>
136.498611450195

> <r_mmod_Electrostatic_Energy-OPLS-2005>
-276.225006103516

> <r_mmod_Solvation_Energy-OPLS-2005>
-169.730773925781

> <b_mmod_Minimization_Converged-OPLS-2005>
0

> <r_mmod_RMS_Derivative-OPLS-2005>
6.66563558578491

$$$$
20
                    3D
 Structure written by MMmdl.
172181  0  0  1  0            999 V2000
  -30.6972  -14.4798   20.6360 C   0  0  0  0  0  0
  -30.4336  -12.3328   19.4191 C   0  0  0  0  0  0
  -29.4987  -12.5223   18.2060 C   0  0  0  0  0  0
  -28.0207  -12.3725   18.6187 C   0  0  0  0  0  0
  -27.6647  -13.2052   19.8780 C   0  0  2  0  0  0
  -28.7027  -12.9669   20.9957 C   0  0  0  0  0  0
  -25.2599  -13.8156   20.5693 C   0  0  0  0  0  0
  -24.1847  -13.0442   20.9189 C   0  0  0  0  0  0
  -24.6390  -11.6903   20.8739 C   0  0  0  0  0  0
  -23.9048  -10.4298   21.0416 C   0  0  0  0  0  0
  -24.3598   -9.4217   21.9195 C   0  0  0  0  0  0
  -23.6287   -8.2242   22.0752 C   0  0  0  0  0  0
  -22.4273   -8.0276   21.3540 C   0  0  0  0  0  0
  -21.9902   -9.0251   20.4648 C   0  0  0  0  0  0
  -22.7221  -10.2137   20.3067 C   0  0  0  0  0  0
  -21.6849   -6.0743   22.5286 C   0  0  0  0  0  0
  -21.4011   -6.5648   23.8220 C   0  0  0  0  0  0
  -21.3657   -5.6798   24.9181 C   0  0  0  0  0  0
  -21.6040   -4.3061   24.7231 C   0  0  0  0  0  0
  -21.8819   -3.8157   23.4355 C   0  0  0  0  0  0
  -21.9191   -4.6970   22.3410 C   0  0  0  0  0  0
  -22.7864  -13.5242   21.1861 C   0  0  0  0  0  0
  -22.1661   -4.2156   21.0989 F   0  0  0  0  0  0
  -21.5622   -3.4548   25.7747 F   0  0  0  0  0  0
  -30.0372  -13.2970   20.4606 N   0  0  0  0  0  0
  -26.3037  -12.9323   20.3366 N   0  0  0  0  0  0
  -25.9318  -11.6486   20.5758 N   0  0  0  0  0  0
  -22.0480  -12.8251   22.0408 N   0  0  0  0  0  0
  -25.4333  -15.1876   20.4112 N   0  0  0  0  0  0
  -31.7398  -14.7551   20.0331 O   0  0  0  0  0  0
  -21.6630   -6.8880   21.4245 O   0  0  0  0  0  0
  -22.3571  -14.5560   20.6714 O   0  0  0  0  0  0
  -24.6178  -31.8648   23.2079 C   0  0  0  0  0  0
  -25.9059  -32.4803   23.8381 C   0  0  1  0  0  0
  -27.2367  -27.4050   20.0873 C   0  0  0  0  0  0
  -25.5901  -33.8602   24.2311 N   0  0  0  0  0  0
  -23.4079  -30.4887   21.5479 C   0  0  2  0  0  0
  -24.8525  -28.9496   20.1134 C   0  0  0  0  0  0
  -22.7431  -29.4649   22.4965 C   0  0  0  0  0  0
  -18.0279  -28.1402   22.8487 C   0  0  0  0  0  0
  -24.1485  -36.7311   23.2639 C   0  0  0  0  0  0
  -25.9386  -30.8194   21.3660 C   0  0  0  0  0  0
  -26.0139  -29.4501   20.7140 C   0  0  0  0  0  0
  -27.2038  -28.6813   20.7051 C   0  0  0  0  0  0
  -26.0464  -26.9174   19.5000 C   0  0  0  0  0  0
  -24.8641  -27.6817   19.5079 C   0  0  0  0  0  0
  -23.6185  -29.8232   20.1620 C   0  0  0  0  0  0
  -25.4107  -36.3102   24.0335 C   0  0  1  0  0  0
  -20.5869  -28.3694   23.1301 C   0  0  2  0  0  0
  -20.6771  -26.9428   22.5416 C   0  0  0  0  0  0
  -19.5749  -26.6402   21.5217 C   0  0  0  0  0  0
  -18.1928  -26.7944   22.1629 C   0  0  0  0  0  0
  -19.1528  -28.8865   23.2890 C   0  0  0  0  0  0
  -18.9457  -30.1467   23.8909 C   0  0  0  0  0  0
  -17.6460  -30.6599   24.0577 C   0  0  0  0  0  0
  -25.9035  -34.9467   23.5123 C   0  0  0  0  0  0
  -16.5352  -29.9111   23.6321 C   0  0  0  0  0  0
  -16.7269  -28.6529   23.0338 C   0  0  0  0  0  0
  -26.4480  -31.6589   25.0719 C   0  0  0  0  0  0
  -25.3744  -31.3706   26.1470 C   0  0  0  0  0  0
  -27.0306  -30.3023   24.6111 C   0  0  0  0  0  0
  -27.6049  -32.4316   25.7483 C   0  0  0  0  0  0
  -27.5579  -37.1810   24.8467 C   0  0  0  0  0  0
  -21.4156  -29.3043   22.3694 N   0  0  0  0  0  0
  -26.4291  -37.3788   23.9412 N   0  0  0  0  0  0
  -24.6731  -31.0727   22.0990 N   0  0  0  0  0  0
  -23.4182  -28.8191   23.3028 O   0  0  0  0  0  0
  -28.4088  -26.6635   20.1119 O   0  0  0  0  0  0
  -26.5603  -34.8922   22.4687 O   0  0  0  0  0  0
  -23.5362  -32.1414   23.7454 O   0  0  0  0  0  0
  -27.9318  -23.2284   18.9343 C   0  0  0  0  0  0
  -29.7944  -23.7547   20.3684 C   0  0  0  0  0  0
  -28.7634  -24.2032   19.5186 C   0  0  0  0  0  0
  -28.1652  -21.8416   19.1153 C   0  0  0  0  0  0
  -30.0478  -22.3699   20.5723 C   0  0  0  0  0  0
  -29.2583  -21.3745   19.9091 C   0  0  0  0  0  0
  -31.1779  -16.3688   23.4019 C   0  0  0  0  0  0
  -30.6553  -17.7668   23.0465 C   0  0  0  0  0  0
  -30.2174  -15.2897   22.8828 C   0  0  0  0  0  0
  -29.5849  -16.7249   20.9716 C   0  0  0  0  0  0
  -30.4031  -17.9393   21.5312 C   0  0  1  0  0  0
  -27.2410  -20.8848   18.3742 C   0  0  0  0  0  0
  -31.2098  -22.0157   21.4926 C   0  0  0  0  0  0
  -30.8117  -19.5624   18.9901 C   0  0  0  0  0  0
  -28.6578  -25.6809   19.0849 C   0  0  0  0  0  0
  -29.6227  -19.8500   19.9318 C   0  0  1  0  0  0
  -30.0783  -15.3959   21.4272 N   0  0  0  0  0  0
  -29.7771  -19.2888   21.3052 N   0  3  0  0  0  0
  -31.4755  -12.4537   19.1163 H   0  0  0  0  0  0
  -30.3556  -11.3154   19.8055 H   0  0  0  0  0  0
  -29.7436  -11.7996   17.4254 H   0  0  0  0  0  0
  -29.6591  -13.5102   17.7716 H   0  0  0  0  0  0
  -27.8383  -11.3152   18.8129 H   0  0  0  0  0  0
  -27.3675  -12.6455   17.7894 H   0  0  0  0  0  0
  -27.7141  -14.2569   19.5939 H   0  0  0  0  0  0
  -28.6868  -11.9235   21.3124 H   0  0  0  0  0  0
  -28.4356  -13.5381   21.8839 H   0  0  0  0  0  0
  -25.2740   -9.5700   22.4776 H   0  0  0  0  0  0
  -24.0000   -7.4637   22.7474 H   0  0  0  0  0  0
  -21.0829   -8.8771   19.8964 H   0  0  0  0  0  0
  -22.3677  -10.9676   19.6177 H   0  0  0  0  0  0
  -21.2002   -7.6156   23.9735 H   0  0  0  0  0  0
  -21.1476   -6.0522   25.9083 H   0  0  0  0  0  0
  -22.0600   -2.7620   23.2856 H   0  0  0  0  0  0
  -22.4053  -11.9891   22.4801 H   0  0  0  0  0  0
  -21.1102  -13.1304   22.2600 H   0  0  0  0  0  0
  -24.6640  -15.8404   20.5150 H   0  0  0  0  0  0
  -26.2845  -15.6260   20.0842 H   0  0  0  0  0  0
  -26.7132  -32.5510   23.1144 H   0  0  0  0  0  0
  -25.0046  -33.9755   25.0454 H   0  0  0  0  0  0
  -22.6987  -31.3069   21.4090 H   0  0  0  0  0  0
  -23.3738  -35.9653   23.3310 H   0  0  0  0  0  0
  -24.3583  -36.8921   22.2054 H   0  0  0  0  0  0
  -23.7245  -37.6522   23.6646 H   0  0  0  0  0  0
  -26.0544  -31.5838   20.5959 H   0  0  0  0  0  0
  -26.8245  -30.8732   21.9873 H   0  0  0  0  0  0
  -28.1003  -29.0634   21.1734 H   0  0  0  0  0  0
  -26.0044  -25.9351   19.0526 H   0  0  0  0  0  0
  -23.9669  -27.2840   19.0539 H   0  0  0  0  0  0
  -23.7388  -30.6000   19.4061 H   0  0  0  0  0  0
  -22.7390  -29.2519   19.8593 H   0  0  0  0  0  0
  -25.1282  -36.1965   25.0826 H   0  0  0  0  0  0
  -20.9965  -28.3281   24.1422 H   0  0  0  0  0  0
  -20.5695  -26.2309   23.3612 H   0  0  0  0  0  0
  -21.6639  -26.7484   22.1198 H   0  0  0  0  0  0
  -19.6917  -25.6316   21.1241 H   0  0  0  0  0  0
  -19.6688  -27.3216   20.6750 H   0  0  0  0  0  0
  -17.4197  -26.6692   21.4031 H   0  0  0  0  0  0
  -18.0334  -26.0091   22.9032 H   0  0  0  0  0  0
  -19.7934  -30.7280   24.2283 H   0  0  0  0  0  0
  -17.5017  -31.6272   24.5198 H   0  0  0  0  0  0
  -15.5354  -30.3027   23.7629 H   0  0  0  0  0  0
  -15.8667  -28.0862   22.7035 H   0  0  0  0  0  0
  -24.5907  -30.7063   25.7810 H   0  0  0  0  0  0
  -24.8950  -32.2867   26.4924 H   0  0  0  0  0  0
  -25.8094  -30.8869   27.0225 H   0  0  0  0  0  0
  -26.2851  -29.6790   24.1156 H   0  0  0  0  0  0
  -27.4059  -29.7251   25.4573 H   0  0  0  0  0  0
  -27.8695  -30.4330   23.9271 H   0  0  0  0  0  0
  -27.2655  -33.3604   26.2082 H   0  0  0  0  0  0
  -28.3840  -32.6903   25.0300 H   0  0  0  0  0  0
  -28.0738  -31.8437   26.5385 H   0  0  0  0  0  0
  -28.2598  -38.0105   24.7503 H   0  0  0  0  0  0
  -28.1070  -36.2635   24.6298 H   0  0  0  0  0  0
  -27.2299  -37.1471   25.8871 H   0  0  0  0  0  0
  -20.9335  -29.8764   21.6900 H   0  0  0  0  0  0
  -26.0178  -38.2864   24.1415 H   0  0  0  0  0  0
  -27.1351  -23.5546   18.2798 H   0  0  0  0  0  0
  -30.4388  -24.4940   20.8251 H   0  0  0  0  0  0
  -31.2858  -16.2780   24.4833 H   0  0  0  0  0  0
  -32.1732  -16.2210   22.9781 H   0  0  0  0  0  0
  -31.3667  -18.5160   23.3976 H   0  0  0  0  0  0
  -29.7311  -17.9423   23.6001 H   0  0  0  0  0  0
  -29.2357  -15.3992   23.3448 H   0  0  0  0  0  0
  -30.5821  -14.3027   23.1770 H   0  0  0  0  0  0
  -29.5714  -16.7556   19.8807 H   0  0  0  0  0  0
  -28.5440  -16.8085   21.2865 H   0  0  0  0  0  0
  -31.3840  -17.9283   21.0542 H   0  0  0  0  0  0
  -26.4653  -21.4199   17.8258 H   0  0  0  0  0  0
  -26.7351  -20.2152   19.0707 H   0  0  0  0  0  0
  -27.7949  -20.2911   17.6457 H   0  0  0  0  0  0
  -31.7315  -22.9123   21.8301 H   0  0  0  0  0  0
  -31.9568  -21.3977   20.9987 H   0  0  0  0  0  0
  -30.8579  -21.5079   22.3901 H   0  0  0  0  0  0
  -30.6144  -19.9741   18.0001 H   0  0  0  0  0  0
  -30.9761  -18.4949   18.8498 H   0  0  0  0  0  0
  -31.7449  -19.9987   19.3382 H   0  0  0  0  0  0
  -27.9940  -25.7783   18.2256 H   0  0  0  0  0  0
  -29.6353  -25.9375   18.6753 H   0  0  0  0  0  0
  -28.7898  -19.2772   19.5293 H   0  0  0  0  0  0
  -30.3389  -19.9574   21.8061 H   0  0  0  0  0  0
  -28.8678  -19.3067   21.7404 H   0  0  0  0  0  0
  1 25  1  0  0  0
  1 30  2  0  0  0
  1 87  1  0  0  0
  2  3  1  0  0  0
  2 25  1  0  0  0
  2 89  1  0  0  0
  2 90  1  0  0  0
  3  4  1  0  0  0
  3 91  1  0  0  0
  3 92  1  0  0  0
  4  5  1  0  0  0
  4 93  1  0  0  0
  4 94  1  0  0  0
  5  6  1  0  0  0
  5 26  1  0  0  0
  5 95  1  0  0  0
  6 25  1  0  0  0
  6 96  1  0  0  0
  6 97  1  0  0  0
  7  8  2  0  0  0
  7 26  1  0  0  0
  7 29  1  0  0  0
  8  9  1  0  0  0
  8 22  1  0  0  0
  9 10  1  0  0  0
  9 27  2  0  0  0
 10 11  2  0  0  0
 10 15  1  0  0  0
 11 12  1  0  0  0
 11 98  1  0  0  0
 12 13  2  0  0  0
 12 99  1  0  0  0
 13 14  1  0  0  0
 13 31  1  0  0  0
 14 15  2  0  0  0
 14100  1  0  0  0
 15101  1  0  0  0
 16 17  2  0  0  0
 16 21  1  0  0  0
 16 31  1  0  0  0
 17 18  1  0  0  0
 17102  1  0  0  0
 18 19  2  0  0  0
 18103  1  0  0  0
 19 20  1  0  0  0
 19 24  1  0  0  0
 20 21  2  0  0  0
 20104  1  0  0  0
 21 23  1  0  0  0
 22 28  1  0  0  0
 22 32  2  0  0  0
 26 27  1  0  0  0
 28105  1  0  0  0
 28106  1  0  0  0
 29107  1  0  0  0
 29108  1  0  0  0
 33 34  1  0  0  0
 33 66  1  0  0  0
 33 70  2  0  0  0
 34 36  1  0  0  0
 34 59  1  0  0  0
 34109  1  0  0  0
 35 44  2  0  0  0
 35 45  1  0  0  0
 35 68  1  0  0  0
 36 56  1  0  0  0
 36110  1  0  0  0
 37 39  1  0  0  0
 37 47  1  0  0  0
 37 66  1  0  0  0
 37111  1  0  0  0
 38 43  2  0  0  0
 38 46  1  0  0  0
 38 47  1  0  0  0
 39 64  1  0  0  0
 39 67  2  0  0  0
 40 52  1  0  0  0
 40 53  2  0  0  0
 40 58  1  0  0  0
 41112  1  0  0  0
 41113  1  0  0  0
 41114  1  0  0  0
 41 48  1  0  0  0
 42 43  1  0  0  0
 42 66  1  0  0  0
 42115  1  0  0  0
 42116  1  0  0  0
 43 44  1  0  0  0
 44117  1  0  0  0
 45 46  2  0  0  0
 45118  1  0  0  0
 46119  1  0  0  0
 47120  1  0  0  0
 47121  1  0  0  0
 48 56  1  0  0  0
 48 65  1  0  0  0
 48122  1  0  0  0
 49 50  1  0  0  0
 49 53  1  0  0  0
 49 64  1  0  0  0
 49123  1  0  0  0
 50 51  1  0  0  0
 50124  1  0  0  0
 50125  1  0  0  0
 51 52  1  0  0  0
 51126  1  0  0  0
 51127  1  0  0  0
 52128  1  0  0  0
 52129  1  0  0  0
 53 54  1  0  0  0
 54 55  2  0  0  0
 54130  1  0  0  0
 55 57  1  0  0  0
 55131  1  0  0  0
 56 69  2  0  0  0
 57 58  2  0  0  0
 57132  1  0  0  0
 58133  1  0  0  0
 59 60  1  0  0  0
 59 61  1  0  0  0
 59 62  1  0  0  0
 60134  1  0  0  0
 60135  1  0  0  0
 60136  1  0  0  0
 61137  1  0  0  0
 61138  1  0  0  0
 61139  1  0  0  0
 62140  1  0  0  0
 62141  1  0  0  0
 62142  1  0  0  0
 63 65  1  0  0  0
 63143  1  0  0  0
 63144  1  0  0  0
 63145  1  0  0  0
 64146  1  0  0  0
 65147  1  0  0  0
 68 85  1  0  0  0
 71 73  2  0  0  0
 71 74  1  0  0  0
 71148  1  0  0  0
 72 73  1  0  0  0
 72 75  2  0  0  0
 72149  1  0  0  0
 73 85  1  0  0  0
 74 76  2  0  0  0
 74 82  1  0  0  0
 75 76  1  0  0  0
 75 83  1  0  0  0
 76 86  1  0  0  0
 77 78  1  0  0  0
 77 79  1  0  0  0
 77150  1  0  0  0
 77151  1  0  0  0
 78 81  1  0  0  0
 78152  1  0  0  0
 78153  1  0  0  0
 79 87  1  0  0  0
 79154  1  0  0  0
 79155  1  0  0  0
 80 81  1  0  0  0
 80 87  1  0  0  0
 80156  1  0  0  0
 80157  1  0  0  0
 81 88  1  0  0  0
 81158  1  0  0  0
 82159  1  0  0  0
 82160  1  0  0  0
 82161  1  0  0  0
 83162  1  0  0  0
 83163  1  0  0  0
 83164  1  0  0  0
 84165  1  0  0  0
 84166  1  0  0  0
 84167  1  0  0  0
 84 86  1  0  0  0
 85168  1  0  0  0
 85169  1  0  0  0
 86 88  1  0  0  0
 86170  1  0  0  0
 88171  1  0  0  0
 88172  1  0  0  0
M  CHG  1  88   1
M  ISO  4   1 100  68 101  85 101  87 100
M  END
> <chiral flag>
0

> <version>
0

> <s_m_source_file>
/data/baiqing/PycharmProjects/Reinvent-master-3.2/result/LINK_invent/BTK/process_docking_weight1_custom_sum_contain_oxygen_bond_distance_aromatic_linkinvent_7_9_3/rearranged_h_0129.sdf

> <i_m_source_file_index>
21

> <r_mmod_Potential_Energy-OPLS-2005>
34.2032814025879

> <r_mmod_Stretch_Energy-OPLS-2005>
54.0412216186523

> <r_mmod_Bend_Energy-OPLS-2005>
122.732727050781

> <r_mmod_Torsional_Energy-OPLS-2005>
342.537445068359

> <r_mmod_Improper_Torsional_Energy-OPLS-2005>
4.76197385787964

> <r_mmod_Van_der_Waal_Energy-OPLS-2005>
151.959899902344

> <r_mmod_Electrostatic_Energy-OPLS-2005>
-227.602386474609

> <r_mmod_Solvation_Energy-OPLS-2005>
-429.318939208984

> <b_mmod_Minimization_Converged-OPLS-2005>
0

> <r_mmod_RMS_Derivative-OPLS-2005>
1.15073704719543

$$$$
21
                    3D
 Structure written by MMmdl.
159168  0  0  1  0            999 V2000
  -30.4704  -15.1913   20.3806 C   0  0  0  0  0  0
  -30.4355  -12.7574   19.5193 C   0  0  0  0  0  0
  -29.5288  -12.5617   18.2795 C   0  0  0  0  0  0
  -28.0740  -12.3006   18.7063 C   0  0  0  0  0  0
  -27.6131  -13.2685   19.8248 C   0  0  2  0  0  0
  -28.6490  -13.4181   20.9588 C   0  0  0  0  0  0
  -25.2389  -13.8237   20.5725 C   0  0  0  0  0  0
  -24.1740  -13.0437   20.9263 C   0  0  0  0  0  0
  -24.6386  -11.6931   20.8770 C   0  0  0  0  0  0
  -23.9078  -10.4292   21.0415 C   0  0  0  0  0  0
  -24.3628   -9.4201   21.9185 C   0  0  0  0  0  0
  -23.6303   -8.2236   22.0749 C   0  0  0  0  0  0
  -22.4283   -8.0279   21.3542 C   0  0  0  0  0  0
  -21.9923   -9.0251   20.4642 C   0  0  0  0  0  0
  -22.7252  -10.2132   20.3056 C   0  0  0  0  0  0
  -21.6857   -6.0736   22.5278 C   0  0  0  0  0  0
  -21.4011   -6.5639   23.8207 C   0  0  0  0  0  0
  -21.3658   -5.6794   24.9173 C   0  0  0  0  0  0
  -21.6048   -4.3057   24.7228 C   0  0  0  0  0  0
  -21.8819   -3.8146   23.4348 C   0  0  0  0  0  0
  -21.9193   -4.6963   22.3403 C   0  0  0  0  0  0
  -22.7756  -13.5189   21.1918 C   0  0  0  0  0  0
  -22.1664   -4.2145   21.0982 F   0  0  0  0  0  0
  -21.5631   -3.4539   25.7740 F   0  0  0  0  0  0
  -29.8900  -13.8994   20.3341 N   0  0  0  0  0  0
  -26.2816  -12.9501   20.3216 N   0  0  0  0  0  0
  -25.9321  -11.6614   20.5732 N   0  0  0  0  0  0
  -22.0425  -12.8159   22.0475 N   0  0  0  0  0  0
  -25.4020  -15.1965   20.4092 N   0  0  0  0  0  0
  -31.6902  -15.1930   20.1712 O   0  0  0  0  0  0
  -21.6646   -6.8878   21.4240 O   0  0  0  0  0  0
  -22.3430  -14.5492   20.6764 O   0  0  0  0  0  0
  -24.6597  -31.8281   23.1752 C   0  0  0  0  0  0
  -25.9299  -32.4614   23.8189 C   0  0  1  0  0  0
  -27.2092  -26.9680   20.1709 C   0  0  0  0  0  0
  -25.5980  -33.8422   24.2102 N   0  0  0  0  0  0
  -23.4718  -30.4447   21.5227 C   0  0  2  0  0  0
  -24.9233  -28.8452   20.1077 C   0  0  0  0  0  0
  -22.7650  -29.4471   22.4780 C   0  0  0  0  0  0
  -18.0323  -28.1411   22.8479 C   0  0  0  0  0  0
  -24.1481  -36.7200   23.2649 C   0  0  0  0  0  0
  -26.0398  -30.6470   21.4014 C   0  0  0  0  0  0
  -26.1071  -29.2428   20.7422 C   0  0  0  0  0  0
  -27.2461  -28.3238   20.7536 C   0  0  0  0  0  0
  -25.9998  -26.7235   19.4781 C   0  0  0  0  0  0
  -24.8933  -27.6045   19.4556 C   0  0  0  0  0  0
  -23.7090  -29.7685   20.1455 C   0  0  0  0  0  0
  -25.4124  -36.2979   24.0309 C   0  0  1  0  0  0
  -20.5944  -28.3753   23.1197 C   0  0  2  0  0  0
  -20.6795  -26.9440   22.5403 C   0  0  0  0  0  0
  -19.5763  -26.6389   21.5214 C   0  0  0  0  0  0
  -18.1952  -26.7946   22.1631 C   0  0  0  0  0  0
  -19.1586  -28.8901   23.2828 C   0  0  0  0  0  0
  -18.9496  -30.1487   23.8866 C   0  0  0  0  0  0
  -17.6494  -30.6607   24.0559 C   0  0  0  0  0  0
  -25.9091  -34.9364   23.5025 C   0  0  0  0  0  0
  -16.5382  -29.9097   23.6347 C   0  0  0  0  0  0
  -16.7309  -28.6510   23.0381 C   0  0  0  0  0  0
  -26.4552  -31.6549   25.0705 C   0  0  0  0  0  0
  -25.3691  -31.3791   26.1371 C   0  0  0  0  0  0
  -27.0438  -30.2921   24.6418 C   0  0  0  0  0  0
  -27.6048  -32.4356   25.7504 C   0  0  0  0  0  0
  -27.5558  -37.1762   24.8472 C   0  0  0  0  0  0
  -21.4323  -29.3045   22.3534 N   0  0  0  0  0  0
  -26.4265  -37.3723   23.9420 N   0  0  0  0  0  0
  -24.7449  -30.9985   22.0869 N   0  0  0  0  0  0
  -23.4219  -28.8035   23.3001 O   0  0  0  0  0  0
  -28.1877  -25.8541   20.2645 O   0  0  0  0  0  0
  -26.5695  -34.8898   22.4613 O   0  0  0  0  0  0
  -23.5681  -32.1228   23.6882 O   0  0  0  0  0  0
  -30.0966  -20.8310   19.8492 C   0  0  0  0  0  0
  -29.4018  -19.6324   20.3312 C   0  0  0  0  0  0
  -27.6594  -21.5464   20.7637 C   0  0  0  0  0  0
  -28.1312  -20.1254   20.8294 C   0  0  0  0  0  0
  -28.4334  -22.7049   20.2829 C   0  0  0  0  0  0
  -27.6384  -18.1458   23.7699 C   0  0  0  0  0  0
  -28.3991  -19.4503   23.7782 C   0  0  0  0  0  0
  -27.1901  -19.2837   22.8812 C   0  0  0  0  0  0
  -26.2128  -21.8357   21.1661 C   0  0  0  0  0  0
  -30.1448  -18.0534   20.3801 C   0  0  0  0  0  0
  -27.7827  -24.3007   19.9968 C   0  0  0  0  0  0
  -29.6436  -22.1825   19.8362 N   0  3  0  0  0  0
  -27.3364  -19.1430   21.4373 N   0  0  0  0  0  0
  -29.7220  -16.4573   20.4553 N   0  0  0  0  0  0
  -31.4583  -12.9482   19.1918 H   0  0  0  0  0  0
  -30.4840  -11.8428   20.1133 H   0  0  0  0  0  0
  -29.8943  -11.7380   17.6643 H   0  0  0  0  0  0
  -29.5705  -13.4547   17.6539 H   0  0  0  0  0  0
  -28.0166  -11.2727   19.0659 H   0  0  0  0  0  0
  -27.4057  -12.3620   17.8467 H   0  0  0  0  0  0
  -27.5375  -14.2413   19.3384 H   0  0  0  0  0  0
  -28.7986  -12.4780   21.4919 H   0  0  0  0  0  0
  -28.3018  -14.1429   21.6968 H   0  0  0  0  0  0
  -25.2769   -9.5683   22.4765 H   0  0  0  0  0  0
  -24.0016   -7.4625   22.7459 H   0  0  0  0  0  0
  -21.0859   -8.8766   19.8943 H   0  0  0  0  0  0
  -22.3701  -10.9673   19.6169 H   0  0  0  0  0  0
  -21.1999   -7.6144   23.9710 H   0  0  0  0  0  0
  -21.1481   -6.0525   25.9075 H   0  0  0  0  0  0
  -22.0600   -2.7607   23.2849 H   0  0  0  0  0  0
  -22.4071  -11.9826   22.4849 H   0  0  0  0  0  0
  -21.1032  -13.1144   22.2687 H   0  0  0  0  0  0
  -24.6250  -15.8416   20.5036 H   0  0  0  0  0  0
  -26.2268  -15.6272   20.0152 H   0  0  0  0  0  0
  -26.7367  -32.5159   23.0904 H   0  0  0  0  0  0
  -25.0086  -33.9498   25.0225 H   0  0  0  0  0  0
  -22.7831  -31.2763   21.3582 H   0  0  0  0  0  0
  -23.3758  -35.9515   23.3303 H   0  0  0  0  0  0
  -24.3557  -36.8848   22.2064 H   0  0  0  0  0  0
  -23.7224  -37.6385   23.6695 H   0  0  0  0  0  0
  -26.2191  -31.3935   20.6262 H   0  0  0  0  0  0
  -26.9008  -30.6979   22.0554 H   0  0  0  0  0  0
  -28.1383  -28.6222   21.2853 H   0  0  0  0  0  0
  -25.8597  -25.7828   18.9680 H   0  0  0  0  0  0
  -23.9960  -27.2973   18.9358 H   0  0  0  0  0  0
  -23.8633  -30.5405   19.3907 H   0  0  0  0  0  0
  -22.8185  -29.2238   19.8274 H   0  0  0  0  0  0
  -25.1325  -36.1771   25.0802 H   0  0  0  0  0  0
  -21.0043  -28.3354   24.1314 H   0  0  0  0  0  0
  -20.5662  -26.2378   23.3646 H   0  0  0  0  0  0
  -21.6661  -26.7415   22.1212 H   0  0  0  0  0  0
  -19.6915  -25.6290   21.1272 H   0  0  0  0  0  0
  -19.6688  -27.3175   20.6720 H   0  0  0  0  0  0
  -17.4215  -26.6701   21.4038 H   0  0  0  0  0  0
  -18.0342  -26.0100   22.9039 H   0  0  0  0  0  0
  -19.7975  -30.7312   24.2226 H   0  0  0  0  0  0
  -17.5052  -31.6285   24.5168 H   0  0  0  0  0  0
  -15.5382  -30.2995   23.7688 H   0  0  0  0  0  0
  -15.8708  -28.0812   22.7134 H   0  0  0  0  0  0
  -24.5886  -30.7123   25.7687 H   0  0  0  0  0  0
  -24.8860  -32.2988   26.4677 H   0  0  0  0  0  0
  -25.7939  -30.9044   27.0226 H   0  0  0  0  0  0
  -26.3094  -29.6611   24.1399 H   0  0  0  0  0  0
  -27.3950  -29.7275   25.5065 H   0  0  0  0  0  0
  -27.9052  -30.4111   23.9844 H   0  0  0  0  0  0
  -27.2615  -33.3701   26.1955 H   0  0  0  0  0  0
  -28.3919  -32.6851   25.0374 H   0  0  0  0  0  0
  -28.0642  -31.8567   26.5525 H   0  0  0  0  0  0
  -28.2582  -38.0055   24.7524 H   0  0  0  0  0  0
  -28.1057  -36.2590   24.6301 H   0  0  0  0  0  0
  -27.2285  -37.1415   25.8880 H   0  0  0  0  0  0
  -20.9562  -29.8747   21.6683 H   0  0  0  0  0  0
  -26.0113  -38.2780   24.1437 H   0  0  0  0  0  0
  -31.0932  -20.7296   19.4431 H   0  0  0  0  0  0
  -27.0326  -17.9202   24.6459 H   0  0  0  0  0  0
  -28.1280  -17.2879   23.3118 H   0  0  0  0  0  0
  -29.3916  -19.4496   23.3302 H   0  0  0  0  0  0
  -28.2878  -20.0898   24.6519 H   0  0  0  0  0  0
  -26.2661  -19.7887   23.1581 H   0  0  0  0  0  0
  -25.6055  -20.9427   21.3005 H   0  0  0  0  0  0
  -25.7007  -22.3992   20.3870 H   0  0  0  0  0  0
  -26.1798  -22.4082   22.0932 H   0  0  0  0  0  0
  -30.8136  -18.1504   21.2357 H   0  0  0  0  0  0
  -30.8205  -18.0785   19.5253 H   0  0  0  0  0  0
  -26.8094  -24.2660   20.4789 H   0  0  0  0  0  0
  -27.5612  -24.2719   18.9302 H   0  0  0  0  0  0
  -30.2835  -22.8617   19.4171 H   0  0  0  0  0  0
  -27.5923  -18.2075   21.1519 H   0  0  0  0  0  0
  -28.7315  -16.2984   20.5517 H   0  0  0  0  0  0
  1 25  1  0  0  0
  1 30  2  0  0  0
  1 84  1  0  0  0
  2  3  1  0  0  0
  2 25  1  0  0  0
  2 85  1  0  0  0
  2 86  1  0  0  0
  3  4  1  0  0  0
  3 87  1  0  0  0
  3 88  1  0  0  0
  4  5  1  0  0  0
  4 89  1  0  0  0
  4 90  1  0  0  0
  5  6  1  0  0  0
  5 26  1  0  0  0
  5 91  1  0  0  0
  6 25  1  0  0  0
  6 92  1  0  0  0
  6 93  1  0  0  0
  7  8  2  0  0  0
  7 26  1  0  0  0
  7 29  1  0  0  0
  8  9  1  0  0  0
  8 22  1  0  0  0
  9 10  1  0  0  0
  9 27  2  0  0  0
 10 11  2  0  0  0
 10 15  1  0  0  0
 11 12  1  0  0  0
 11 94  1  0  0  0
 12 13  2  0  0  0
 12 95  1  0  0  0
 13 14  1  0  0  0
 13 31  1  0  0  0
 14 15  2  0  0  0
 14 96  1  0  0  0
 15 97  1  0  0  0
 16 17  2  0  0  0
 16 21  1  0  0  0
 16 31  1  0  0  0
 17 18  1  0  0  0
 17 98  1  0  0  0
 18 19  2  0  0  0
 18 99  1  0  0  0
 19 20  1  0  0  0
 19 24  1  0  0  0
 20 21  2  0  0  0
 20100  1  0  0  0
 21 23  1  0  0  0
 22 28  1  0  0  0
 22 32  2  0  0  0
 26 27  1  0  0  0
 28101  1  0  0  0
 28102  1  0  0  0
 29103  1  0  0  0
 29104  1  0  0  0
 33 34  1  0  0  0
 33 66  1  0  0  0
 33 70  2  0  0  0
 34 36  1  0  0  0
 34 59  1  0  0  0
 34105  1  0  0  0
 35 44  2  0  0  0
 35 45  1  0  0  0
 35 68  1  0  0  0
 36 56  1  0  0  0
 36106  1  0  0  0
 37 39  1  0  0  0
 37 47  1  0  0  0
 37 66  1  0  0  0
 37107  1  0  0  0
 38 43  2  0  0  0
 38 46  1  0  0  0
 38 47  1  0  0  0
 39 64  1  0  0  0
 39 67  2  0  0  0
 40 52  1  0  0  0
 40 53  2  0  0  0
 40 58  1  0  0  0
 41108  1  0  0  0
 41109  1  0  0  0
 41110  1  0  0  0
 41 48  1  0  0  0
 42 43  1  0  0  0
 42 66  1  0  0  0
 42111  1  0  0  0
 42112  1  0  0  0
 43 44  1  0  0  0
 44113  1  0  0  0
 45 46  2  0  0  0
 45114  1  0  0  0
 46115  1  0  0  0
 47116  1  0  0  0
 47117  1  0  0  0
 48 56  1  0  0  0
 48 65  1  0  0  0
 48118  1  0  0  0
 49 50  1  0  0  0
 49 53  1  0  0  0
 49 64  1  0  0  0
 49119  1  0  0  0
 50 51  1  0  0  0
 50120  1  0  0  0
 50121  1  0  0  0
 51 52  1  0  0  0
 51122  1  0  0  0
 51123  1  0  0  0
 52124  1  0  0  0
 52125  1  0  0  0
 53 54  1  0  0  0
 54 55  2  0  0  0
 54126  1  0  0  0
 55 57  1  0  0  0
 55127  1  0  0  0
 56 69  2  0  0  0
 57 58  2  0  0  0
 57128  1  0  0  0
 58129  1  0  0  0
 59 60  1  0  0  0
 59 61  1  0  0  0
 59 62  1  0  0  0
 60130  1  0  0  0
 60131  1  0  0  0
 60132  1  0  0  0
 61133  1  0  0  0
 61134  1  0  0  0
 61135  1  0  0  0
 62136  1  0  0  0
 62137  1  0  0  0
 62138  1  0  0  0
 63 65  1  0  0  0
 63139  1  0  0  0
 63140  1  0  0  0
 63141  1  0  0  0
 64142  1  0  0  0
 65143  1  0  0  0
 68 81  1  0  0  0
 71 72  2  0  0  0
 71 82  1  0  0  0
 71144  1  0  0  0
 72 74  1  0  0  0
 72 80  1  0  0  0
 73 74  2  0  0  0
 73 75  1  0  0  0
 73 79  1  0  0  0
 74 83  1  0  0  0
 75 81  1  0  0  0
 75 82  2  0  0  0
 76 77  1  0  0  0
 76 78  1  0  0  0
 76145  1  0  0  0
 76146  1  0  0  0
 77 78  1  0  0  0
 77147  1  0  0  0
 77148  1  0  0  0
 78 83  1  0  0  0
 78149  1  0  0  0
 79150  1  0  0  0
 79151  1  0  0  0
 79152  1  0  0  0
 80 84  1  0  0  0
 80153  1  0  0  0
 80154  1  0  0  0
 81155  1  0  0  0
 81156  1  0  0  0
 82157  1  0  0  0
 83158  1  0  0  0
 84159  1  0  0  0
M  CHG  1  82   1
M  ISO  4   1 100  68 101  81 101  84 100
M  END
> <chiral flag>
0

> <version>
0

> <s_m_source_file>
/data/baiqing/PycharmProjects/Reinvent-master-3.2/result/LINK_invent/BTK/process_docking_weight1_custom_sum_contain_oxygen_bond_distance_aromatic_linkinvent_7_9_3/rearranged_h_0129.sdf

> <i_m_source_file_index>
22

> <r_mmod_Potential_Energy-OPLS-2005>
1022.23077392578

> <r_mmod_Stretch_Energy-OPLS-2005>
472.621063232422

> <r_mmod_Bend_Energy-OPLS-2005>
430.40771484375

> <r_mmod_Torsional_Energy-OPLS-2005>
260.705352783203

> <r_mmod_Improper_Torsional_Energy-OPLS-2005>
11.5869884490967

> <r_mmod_Van_der_Waal_Energy-OPLS-2005>
135.247680664062

> <r_mmod_Electrostatic_Energy-OPLS-2005>
-248.625152587891

> <r_mmod_Solvation_Energy-OPLS-2005>
-437.0458984375

> <b_mmod_Minimization_Converged-OPLS-2005>
0

> <r_mmod_RMS_Derivative-OPLS-2005>
1.19101858139038

$$$$
22
                    3D
 Structure written by MMmdl.
174183  0  0  1  0            999 V2000
  -30.6885  -14.4171   20.5859 C   0  0  0  0  0  0
  -30.4322  -12.2694   19.4237 C   0  0  0  0  0  0
  -29.5030  -12.5070   18.2130 C   0  0  0  0  0  0
  -28.0213  -12.3707   18.6206 C   0  0  0  0  0  0
  -27.6713  -13.1884   19.8921 C   0  0  2  0  0  0
  -28.7100  -12.9191   21.0093 C   0  0  0  0  0  0
  -25.2629  -13.8134   20.5685 C   0  0  0  0  0  0
  -24.1844  -13.0416   20.9168 C   0  0  0  0  0  0
  -24.6370  -11.6882   20.8735 C   0  0  0  0  0  0
  -23.9018  -10.4280   21.0422 C   0  0  0  0  0  0
  -24.3581   -9.4214   21.9206 C   0  0  0  0  0  0
  -23.6269   -8.2246   22.0772 C   0  0  0  0  0  0
  -22.4260   -8.0271   21.3551 C   0  0  0  0  0  0
  -21.9875   -9.0245   20.4667 C   0  0  0  0  0  0
  -22.7189  -10.2128   20.3080 C   0  0  0  0  0  0
  -21.6853   -6.0727   22.5283 C   0  0  0  0  0  0
  -21.4013   -6.5636   23.8214 C   0  0  0  0  0  0
  -21.3657   -5.6790   24.9182 C   0  0  0  0  0  0
  -21.6044   -4.3054   24.7230 C   0  0  0  0  0  0
  -21.8809   -3.8140   23.4354 C   0  0  0  0  0  0
  -21.9188   -4.6955   22.3410 C   0  0  0  0  0  0
  -22.7877  -13.5259   21.1819 C   0  0  0  0  0  0
  -22.1654   -4.2138   21.0984 F   0  0  0  0  0  0
  -21.5629   -3.4536   25.7742 F   0  0  0  0  0  0
  -30.0547  -13.2208   20.4790 N   0  0  0  0  0  0
  -26.3062  -12.9257   20.3431 N   0  0  0  0  0  0
  -25.9299  -11.6433   20.5805 N   0  0  0  0  0  0
  -22.0474  -12.8298   22.0386 N   0  0  0  0  0  0
  -25.4343  -15.1841   20.4056 N   0  0  0  0  0  0
  -31.7774  -14.6695   20.0634 O   0  0  0  0  0  0
  -21.6629   -6.8870   21.4243 O   0  0  0  0  0  0
  -22.3610  -14.5582   20.6679 O   0  0  0  0  0  0
  -24.6112  -31.8711   23.2124 C   0  0  0  0  0  0
  -25.9025  -32.4840   23.8417 C   0  0  1  0  0  0
  -27.2401  -27.4752   20.1067 C   0  0  0  0  0  0
  -25.5896  -33.8635   24.2363 N   0  0  0  0  0  0
  -23.3976  -30.4958   21.5483 C   0  0  2  0  0  0
  -24.8459  -28.9658   20.1118 C   0  0  0  0  0  0
  -22.7401  -29.4679   22.4974 C   0  0  0  0  0  0
  -18.0276  -28.1419   22.8494 C   0  0  0  0  0  0
  -24.1475  -36.7322   23.2639 C   0  0  0  0  0  0
  -25.9184  -30.8552   21.3532 C   0  0  0  0  0  0
  -25.9990  -29.4886   20.7100 C   0  0  0  0  0  0
  -27.1996  -28.7519   20.7075 C   0  0  0  0  0  0
  -26.0801  -26.9612   19.4934 C   0  0  0  0  0  0
  -24.8792  -27.6986   19.4999 C   0  0  0  0  0  0
  -23.6041  -29.8278   20.1610 C   0  0  0  0  0  0
  -25.4085  -36.3126   24.0346 C   0  0  1  0  0  0
  -20.5863  -28.3688   23.1339 C   0  0  2  0  0  0
  -20.6775  -26.9431   22.5425 C   0  0  0  0  0  0
  -19.5747  -26.6415   21.5238 C   0  0  0  0  0  0
  -18.1923  -26.7960   22.1640 C   0  0  0  0  0  0
  -19.1526  -28.8865   23.2917 C   0  0  0  0  0  0
  -18.9452  -30.1469   23.8929 C   0  0  0  0  0  0
  -17.6458  -30.6612   24.0588 C   0  0  0  0  0  0
  -25.9016  -34.9489   23.5149 C   0  0  0  0  0  0
  -16.5349  -29.9113   23.6343 C   0  0  0  0  0  0
  -16.7264  -28.6543   23.0334 C   0  0  0  0  0  0
  -26.4470  -31.6584   25.0713 C   0  0  0  0  0  0
  -25.3774  -31.3652   26.1485 C   0  0  0  0  0  0
  -27.0286  -30.3041   24.6016 C   0  0  0  0  0  0
  -27.6061  -32.4275   25.7469 C   0  0  0  0  0  0
  -27.5566  -37.1815   24.8471 C   0  0  0  0  0  0
  -21.4129  -29.3048   22.3728 N   0  0  0  0  0  0
  -26.4277  -37.3805   23.9422 N   0  0  0  0  0  0
  -24.6608  -31.0865   22.0989 N   0  0  0  0  0  0
  -23.4192  -28.8236   23.3020 O   0  0  0  0  0  0
  -28.3865  -26.7187   20.1007 O   0  0  0  0  0  0
  -26.5570  -34.8941   22.4702 O   0  0  0  0  0  0
  -23.5312  -32.1414   23.7560 O   0  0  0  0  0  0
  -29.8280  -18.6573   21.4011 C   0  0  0  0  0  0
  -30.9064  -20.3938   20.1177 C   0  0  0  0  0  0
  -30.2256  -20.0059   21.2936 C   0  0  0  0  0  0
  -30.1018  -17.7785   20.3374 C   0  0  0  0  0  0
  -31.1959  -19.4275   19.1291 C   0  0  0  0  0  0
  -30.6921  -22.2516   22.5621 C   0  0  0  0  0  0
  -28.3106  -21.4139   22.1512 C   0  0  0  0  0  0
  -29.8856  -23.5503   22.7758 C   0  0  0  0  0  0
  -28.1762  -22.6155   21.1983 C   0  0  0  0  0  0
  -29.7825  -21.0043   22.3693 C   0  0  1  0  0  0
  -32.5353  -21.1781   17.7942 C   0  0  0  0  0  0
  -31.0623  -19.5213   16.5908 C   0  0  0  0  0  0
  -29.4190  -16.4309   20.2492 C   0  0  0  0  0  0
  -28.1173  -25.0328   21.8468 C   0  0  0  0  0  0
  -28.8383  -26.3246   21.4021 C   0  0  0  0  0  0
  -31.9430  -19.7573   17.8318 C   0  0  0  0  0  0
  -30.8091  -18.1420   19.2518 N   0  0  0  0  0  0
  -29.9275  -15.3754   21.1181 N   0  0  0  0  0  0
  -28.9526  -23.8155   21.6399 N   0  3  1  0  0  0
  -31.4792  -12.3654   19.1286 H   0  0  0  0  0  0
  -30.3223  -11.2476   19.7888 H   0  0  0  0  0  0
  -29.7366  -11.8002   17.4152 H   0  0  0  0  0  0
  -29.6790  -13.5017   17.8017 H   0  0  0  0  0  0
  -27.8213  -11.3133   18.8010 H   0  0  0  0  0  0
  -27.3739  -12.6657   17.7950 H   0  0  0  0  0  0
  -27.7247  -14.2406   19.6199 H   0  0  0  0  0  0
  -28.6738  -11.8716   21.3100 H   0  0  0  0  0  0
  -28.4722  -13.4792   21.9141 H   0  0  0  0  0  0
  -25.2717   -9.5711   22.4792 H   0  0  0  0  0  0
  -23.9971   -7.4651   22.7509 H   0  0  0  0  0  0
  -21.0797   -8.8765   19.8996 H   0  0  0  0  0  0
  -22.3636  -10.9668   19.6209 H   0  0  0  0  0  0
  -21.2006   -7.6141   23.9717 H   0  0  0  0  0  0
  -21.1497   -6.0525   25.9087 H   0  0  0  0  0  0
  -22.0595   -2.7599   23.2856 H   0  0  0  0  0  0
  -22.3999  -11.9919   22.4758 H   0  0  0  0  0  0
  -21.1141  -13.1456   22.2615 H   0  0  0  0  0  0
  -24.6592  -15.8326   20.4989 H   0  0  0  0  0  0
  -26.2764  -15.6187   20.0513 H   0  0  0  0  0  0
  -26.7107  -32.5584   23.1206 H   0  0  0  0  0  0
  -25.0109  -33.9794   25.0550 H   0  0  0  0  0  0
  -22.6846  -31.3120   21.4130 H   0  0  0  0  0  0
  -23.3734  -35.9663   23.3316 H   0  0  0  0  0  0
  -24.3596  -36.8908   22.2059 H   0  0  0  0  0  0
  -23.7233  -37.6532   23.6633 H   0  0  0  0  0  0
  -26.0136  -31.6163   20.5773 H   0  0  0  0  0  0
  -26.8133  -30.9218   21.9597 H   0  0  0  0  0  0
  -28.0877  -29.1659   21.1634 H   0  0  0  0  0  0
  -26.1023  -25.9849   19.0298 H   0  0  0  0  0  0
  -23.9938  -27.2877   19.0343 H   0  0  0  0  0  0
  -23.7140  -30.6060   19.4041 H   0  0  0  0  0  0
  -22.7281  -29.2477   19.8632 H   0  0  0  0  0  0
  -25.1261  -36.1991   25.0837 H   0  0  0  0  0  0
  -20.9972  -28.3270   24.1456 H   0  0  0  0  0  0
  -20.5747  -26.2297   23.3611 H   0  0  0  0  0  0
  -21.6638  -26.7519   22.1189 H   0  0  0  0  0  0
  -19.6918  -25.6334   21.1251 H   0  0  0  0  0  0
  -19.6699  -27.3250   20.6793 H   0  0  0  0  0  0
  -17.4206  -26.6737   21.4020 H   0  0  0  0  0  0
  -18.0298  -26.0102   22.9037 H   0  0  0  0  0  0
  -19.7917  -30.7286   24.2309 H   0  0  0  0  0  0
  -17.5004  -31.6289   24.5197 H   0  0  0  0  0  0
  -15.5346  -30.3033   23.7643 H   0  0  0  0  0  0
  -15.8667  -28.0892   22.6998 H   0  0  0  0  0  0
  -24.5964  -30.6969   25.7846 H   0  0  0  0  0  0
  -24.8951  -32.2782   26.4970 H   0  0  0  0  0  0
  -25.8173  -30.8827   27.0218 H   0  0  0  0  0  0
  -26.2792  -29.6811   24.1113 H   0  0  0  0  0  0
  -27.4140  -29.7253   25.4419 H   0  0  0  0  0  0
  -27.8594  -30.4402   23.9094 H   0  0  0  0  0  0
  -27.2704  -33.3567   26.2077 H   0  0  0  0  0  0
  -28.3855  -32.6821   25.0283 H   0  0  0  0  0  0
  -28.0741  -31.8375   26.5357 H   0  0  0  0  0  0
  -28.2594  -38.0105   24.7496 H   0  0  0  0  0  0
  -28.1047  -36.2629   24.6300 H   0  0  0  0  0  0
  -27.2297  -37.1464   25.8883 H   0  0  0  0  0  0
  -20.9292  -29.8745   21.6924 H   0  0  0  0  0  0
  -26.0165  -38.2881   24.1434 H   0  0  0  0  0  0
  -29.2349  -18.3217   22.2432 H   0  0  0  0  0  0
  -31.1847  -21.4192   19.9464 H   0  0  0  0  0  0
  -31.3624  -22.0808   23.4040 H   0  0  0  0  0  0
  -31.3597  -22.4269   21.7253 H   0  0  0  0  0  0
  -27.7221  -20.5686   21.7904 H   0  0  0  0  0  0
  -27.8586  -21.6844   23.1064 H   0  0  0  0  0  0
  -30.5666  -24.3928   22.9030 H   0  0  0  0  0  0
  -29.3203  -23.4782   23.7071 H   0  0  0  0  0  0
  -27.1167  -22.8326   21.0707 H   0  0  0  0  0  0
  -28.5381  -22.3315   20.2095 H   0  0  0  0  0  0
  -29.8105  -20.4527   23.3123 H   0  0  0  0  0  0
  -31.7517  -21.9388   17.7784 H   0  0  0  0  0  0
  -33.1376  -21.3174   16.8980 H   0  0  0  0  0  0
  -33.1823  -21.3602   18.6524 H   0  0  0  0  0  0
  -30.7231  -18.4870   16.5358 H   0  0  0  0  0  0
  -31.6134  -19.7236   15.6724 H   0  0  0  0  0  0
  -30.1787  -20.1598   16.5988 H   0  0  0  0  0  0
  -28.3682  -16.5794   20.4999 H   0  0  0  0  0  0
  -29.4106  -16.1029   19.2056 H   0  0  0  0  0  0
  -27.1758  -24.9663   21.3022 H   0  0  0  0  0  0
  -27.8289  -25.1030   22.8962 H   0  0  0  0  0  0
  -29.9197  -26.1866   21.3781 H   0  0  0  0  0  0
  -28.6671  -27.1085   22.1400 H   0  0  0  0  0  0
  -32.7804  -19.0592   17.7758 H   0  0  0  0  0  0
  -29.2260  -15.0251   21.7516 H   0  0  0  0  0  0
  -29.5359  -24.0343   20.8435 H   0  0  0  0  0  0
  1 25  1  0  0  0
  1 30  2  0  0  0
  1 88  1  0  0  0
  2  3  1  0  0  0
  2 25  1  0  0  0
  2 90  1  0  0  0
  2 91  1  0  0  0
  3  4  1  0  0  0
  3 92  1  0  0  0
  3 93  1  0  0  0
  4  5  1  0  0  0
  4 94  1  0  0  0
  4 95  1  0  0  0
  5  6  1  0  0  0
  5 26  1  0  0  0
  5 96  1  0  0  0
  6 25  1  0  0  0
  6 97  1  0  0  0
  6 98  1  0  0  0
  7  8  2  0  0  0
  7 26  1  0  0  0
  7 29  1  0  0  0
  8  9  1  0  0  0
  8 22  1  0  0  0
  9 10  1  0  0  0
  9 27  2  0  0  0
 10 11  2  0  0  0
 10 15  1  0  0  0
 11 12  1  0  0  0
 11 99  1  0  0  0
 12 13  2  0  0  0
 12100  1  0  0  0
 13 14  1  0  0  0
 13 31  1  0  0  0
 14 15  2  0  0  0
 14101  1  0  0  0
 15102  1  0  0  0
 16 17  2  0  0  0
 16 21  1  0  0  0
 16 31  1  0  0  0
 17 18  1  0  0  0
 17103  1  0  0  0
 18 19  2  0  0  0
 18104  1  0  0  0
 19 20  1  0  0  0
 19 24  1  0  0  0
 20 21  2  0  0  0
 20105  1  0  0  0
 21 23  1  0  0  0
 22 28  1  0  0  0
 22 32  2  0  0  0
 26 27  1  0  0  0
 28106  1  0  0  0
 28107  1  0  0  0
 29108  1  0  0  0
 29109  1  0  0  0
 33 34  1  0  0  0
 33 66  1  0  0  0
 33 70  2  0  0  0
 34 36  1  0  0  0
 34 59  1  0  0  0
 34110  1  0  0  0
 35 44  2  0  0  0
 35 45  1  0  0  0
 35 68  1  0  0  0
 36 56  1  0  0  0
 36111  1  0  0  0
 37 39  1  0  0  0
 37 47  1  0  0  0
 37 66  1  0  0  0
 37112  1  0  0  0
 38 43  2  0  0  0
 38 46  1  0  0  0
 38 47  1  0  0  0
 39 64  1  0  0  0
 39 67  2  0  0  0
 40 52  1  0  0  0
 40 53  2  0  0  0
 40 58  1  0  0  0
 41113  1  0  0  0
 41114  1  0  0  0
 41115  1  0  0  0
 41 48  1  0  0  0
 42 43  1  0  0  0
 42 66  1  0  0  0
 42116  1  0  0  0
 42117  1  0  0  0
 43 44  1  0  0  0
 44118  1  0  0  0
 45 46  2  0  0  0
 45119  1  0  0  0
 46120  1  0  0  0
 47121  1  0  0  0
 47122  1  0  0  0
 48 56  1  0  0  0
 48 65  1  0  0  0
 48123  1  0  0  0
 49 50  1  0  0  0
 49 53  1  0  0  0
 49 64  1  0  0  0
 49124  1  0  0  0
 50 51  1  0  0  0
 50125  1  0  0  0
 50126  1  0  0  0
 51 52  1  0  0  0
 51127  1  0  0  0
 51128  1  0  0  0
 52129  1  0  0  0
 52130  1  0  0  0
 53 54  1  0  0  0
 54 55  2  0  0  0
 54131  1  0  0  0
 55 57  1  0  0  0
 55132  1  0  0  0
 56 69  2  0  0  0
 57 58  2  0  0  0
 57133  1  0  0  0
 58134  1  0  0  0
 59 60  1  0  0  0
 59 61  1  0  0  0
 59 62  1  0  0  0
 60135  1  0  0  0
 60136  1  0  0  0
 60137  1  0  0  0
 61138  1  0  0  0
 61139  1  0  0  0
 61140  1  0  0  0
 62141  1  0  0  0
 62142  1  0  0  0
 62143  1  0  0  0
 63 65  1  0  0  0
 63144  1  0  0  0
 63145  1  0  0  0
 63146  1  0  0  0
 64147  1  0  0  0
 65148  1  0  0  0
 68 85  1  0  0  0
 71 73  2  0  0  0
 71 74  1  0  0  0
 71149  1  0  0  0
 72 73  1  0  0  0
 72 75  2  0  0  0
 72150  1  0  0  0
 73 80  1  0  0  0
 74 83  1  0  0  0
 74 87  2  0  0  0
 75 86  1  0  0  0
 75 87  1  0  0  0
 76 78  1  0  0  0
 76 80  1  0  0  0
 76151  1  0  0  0
 76152  1  0  0  0
 77 79  1  0  0  0
 77 80  1  0  0  0
 77153  1  0  0  0
 77154  1  0  0  0
 78 89  1  0  0  0
 78155  1  0  0  0
 78156  1  0  0  0
 79 89  1  0  0  0
 79157  1  0  0  0
 79158  1  0  0  0
 80159  1  0  0  0
 81160  1  0  0  0
 81161  1  0  0  0
 81162  1  0  0  0
 81 86  1  0  0  0
 82 86  1  0  0  0
 82163  1  0  0  0
 82164  1  0  0  0
 82165  1  0  0  0
 83 88  1  0  0  0
 83166  1  0  0  0
 83167  1  0  0  0
 84 85  1  0  0  0
 84168  1  0  0  0
 84169  1  0  0  0
 84 89  1  0  0  0
 85170  1  0  0  0
 85171  1  0  0  0
 86172  1  0  0  0
 88173  1  0  0  0
 89174  1  0  0  0
M  CHG  1  89   1
M  ISO  4   1 100  68 101  85 101  88 100
M  END
> <chiral flag>
0

> <version>
0

> <s_m_source_file>
/data/baiqing/PycharmProjects/Reinvent-master-3.2/result/LINK_invent/BTK/process_docking_weight1_custom_sum_contain_oxygen_bond_distance_aromatic_linkinvent_7_9_3/rearranged_h_0129.sdf

> <i_m_source_file_index>
23

> <r_mmod_Potential_Energy-OPLS-2005>
-359.851348876953

> <r_mmod_Stretch_Energy-OPLS-2005>
36.6513710021973

> <r_mmod_Bend_Energy-OPLS-2005>
102.412933349609

> <r_mmod_Torsional_Energy-OPLS-2005>
328.550415039062

> <r_mmod_Improper_Torsional_Energy-OPLS-2005>
11.0201549530029

> <r_mmod_Van_der_Waal_Energy-OPLS-2005>
173.024017333984

> <r_mmod_Electrostatic_Energy-OPLS-2005>
-566.8212890625

> <r_mmod_Solvation_Energy-OPLS-2005>
-453.241607666016

> <b_mmod_Minimization_Converged-OPLS-2005>
0

> <r_mmod_RMS_Derivative-OPLS-2005>
3.02995109558105

$$$$
23
                    3D
 Structure written by MMmdl.
186195  0  0  1  0            999 V2000
  -30.7444  -14.4226   20.6462 C   0  0  0  0  0  0
  -30.4298  -12.3207   19.3815 C   0  0  0  0  0  0
  -29.4778  -12.5187   18.1858 C   0  0  0  0  0  0
  -28.0091  -12.3540   18.6165 C   0  0  0  0  0  0
  -27.6684  -13.1971   19.8702 C   0  0  2  0  0  0
  -28.7154  -12.9738   20.9835 C   0  0  0  0  0  0
  -25.2716  -13.8132   20.5790 C   0  0  0  0  0  0
  -24.1899  -13.0501   20.9206 C   0  0  0  0  0  0
  -24.6370  -11.6946   20.8714 C   0  0  0  0  0  0
  -23.9006  -10.4330   21.0375 C   0  0  0  0  0  0
  -24.3553   -9.4270   21.9169 C   0  0  0  0  0  0
  -23.6281   -8.2296   22.0757 C   0  0  0  0  0  0
  -22.4287   -8.0281   21.3537 C   0  0  0  0  0  0
  -21.9862   -9.0262   20.4659 C   0  0  0  0  0  0
  -22.7160  -10.2170   20.3063 C   0  0  0  0  0  0
  -21.6861   -6.0757   22.5263 C   0  0  0  0  0  0
  -21.4041   -6.5664   23.8192 C   0  0  0  0  0  0
  -21.3643   -5.6784   24.9151 C   0  0  0  0  0  0
  -21.6068   -4.3063   24.7186 C   0  0  0  0  0  0
  -21.8851   -3.8165   23.4288 C   0  0  0  0  0  0
  -21.9210   -4.6986   22.3368 C   0  0  0  0  0  0
  -22.7927  -13.5335   21.1871 C   0  0  0  0  0  0
  -22.1673   -4.2172   21.0936 F   0  0  0  0  0  0
  -21.5579   -3.4531   25.7692 F   0  0  0  0  0  0
  -30.0534  -13.2718   20.4371 N   0  0  0  0  0  0
  -26.3067  -12.9287   20.3343 N   0  0  0  0  0  0
  -25.9294  -11.6477   20.5725 N   0  0  0  0  0  0
  -22.0531  -12.8318   22.0378 N   0  0  0  0  0  0
  -25.4652  -15.1837   20.4421 N   0  0  0  0  0  0
  -31.7960  -14.7008   20.0608 O   0  0  0  0  0  0
  -21.6662   -6.8874   21.4225 O   0  0  0  0  0  0
  -22.3670  -14.5675   20.6710 O   0  0  0  0  0  0
  -24.6168  -31.8686   23.2115 C   0  0  0  0  0  0
  -25.9083  -32.4794   23.8363 C   0  0  1  0  0  0
  -27.2006  -27.3652   20.0489 C   0  0  0  0  0  0
  -25.5937  -33.8591   24.2275 N   0  0  0  0  0  0
  -23.3985  -30.5039   21.5561 C   0  0  2  0  0  0
  -24.8325  -28.9716   20.1122 C   0  0  0  0  0  0
  -22.7404  -29.4700   22.4982 C   0  0  0  0  0  0
  -18.0286  -28.1400   22.8495 C   0  0  0  0  0  0
  -24.1510  -36.7322   23.2621 C   0  0  0  0  0  0
  -25.9429  -30.8025   21.3821 C   0  0  0  0  0  0
  -26.0056  -29.4368   20.7200 C   0  0  0  0  0  0
  -27.1842  -28.6392   20.6957 C   0  0  0  0  0  0
  -25.9923  -26.9592   19.4375 C   0  0  0  0  0  0
  -24.8253  -27.7313   19.4716 C   0  0  0  0  0  0
  -23.6048  -29.8525   20.1670 C   0  0  0  0  0  0
  -25.4113  -36.3112   24.0330 C   0  0  1  0  0  0
  -20.5875  -28.3695   23.1329 C   0  0  2  0  0  0
  -20.6788  -26.9416   22.5463 C   0  0  0  0  0  0
  -19.5774  -26.6406   21.5251 C   0  0  0  0  0  0
  -18.1925  -26.7952   22.1622 C   0  0  0  0  0  0
  -19.1524  -28.8860   23.2915 C   0  0  0  0  0  0
  -18.9443  -30.1473   23.8915 C   0  0  0  0  0  0
  -17.6430  -30.6593   24.0577 C   0  0  0  0  0  0
  -25.9069  -34.9457   23.5117 C   0  0  0  0  0  0
  -16.5334  -29.9097   23.6311 C   0  0  0  0  0  0
  -16.7260  -28.6527   23.0312 C   0  0  0  0  0  0
  -26.4479  -31.6551   25.0691 C   0  0  0  0  0  0
  -25.3725  -31.3713   26.1436 C   0  0  0  0  0  0
  -27.0233  -30.2939   24.6127 C   0  0  0  0  0  0
  -27.6068  -32.4250   25.7433 C   0  0  0  0  0  0
  -27.5587  -37.1831   24.8452 C   0  0  0  0  0  0
  -21.4137  -29.3069   22.3726 N   0  0  0  0  0  0
  -26.4318  -37.3784   23.9411 N   0  0  0  0  0  0
  -24.6718  -31.0744   22.1053 N   0  0  0  0  0  0
  -23.4209  -28.8222   23.2999 O   0  0  0  0  0  0
  -28.3896  -26.6346   20.0068 O   0  0  0  0  0  0
  -26.5639  -34.8925   22.4687 O   0  0  0  0  0  0
  -23.5373  -32.1491   23.7509 O   0  0  0  0  0  0
  -25.4777  -19.9215   21.1240 C   0  0  0  0  0  0
  -25.3810  -19.9919   19.5857 C   0  0  0  0  0  0
  -26.6026  -18.9913   21.6007 C   0  0  0  0  0  0
  -26.5897  -19.3653   18.8441 C   0  0  0  0  0  0
  -29.2807  -22.8597   20.3446 C   0  0  0  0  0  0
  -28.8750  -24.2961   20.7688 C   0  0  0  0  0  0
  -27.6059  -24.4992   18.6238 C   0  0  0  0  0  0
  -28.0701  -23.0974   18.1391 C   0  0  1  0  0  0
  -27.9466  -19.5453   21.0612 C   0  0  2  0  0  0
  -28.2656  -22.1772   19.3868 C   0  0  1  0  0  0
  -27.9760  -19.6138   19.5063 C   0  0  2  0  0  0
  -28.5833  -25.2339   19.5787 C   0  0  1  0  0  0
  -25.9990  -23.3478   16.5080 C   0  0  0  0  0  0
  -27.9242  -21.8323   15.8914 C   0  0  0  0  0  0
  -29.5047  -19.4355   22.8868 C   0  0  0  0  0  0
  -30.4150  -16.6987   21.6852 C   0  0  0  0  0  0
  -29.0561  -17.4253   21.6275 C   0  0  0  0  0  0
  -27.1295  -22.4609   17.0561 C   0  0  0  0  0  0
  -30.1630  -15.2707   21.5021 N   0  0  0  0  0  0
  -29.1642  -18.8861   21.5748 N   0  0  0  0  0  0
  -28.7296  -20.8060   19.0164 N   0  3  0  0  0  0
  -31.4696  -12.4309   19.0673 H   0  0  0  0  0  0
  -30.3462  -11.3018   19.7613 H   0  0  0  0  0  0
  -29.7132  -11.8019   17.4017 H   0  0  0  0  0  0
  -29.6194  -13.5110   17.7536 H   0  0  0  0  0  0
  -27.8378  -11.2940   18.8217 H   0  0  0  0  0  0
  -27.3354  -12.6093   17.7971 H   0  0  0  0  0  0
  -27.7185  -14.2434   19.5694 H   0  0  0  0  0  0
  -28.6896  -11.9392   21.3253 H   0  0  0  0  0  0
  -28.4576  -13.5641   21.8611 H   0  0  0  0  0  0
  -25.2690   -9.5819   22.4732 H   0  0  0  0  0  0
  -24.0066   -7.4700   22.7458 H   0  0  0  0  0  0
  -21.0801   -8.8752   19.8930 H   0  0  0  0  0  0
  -22.3564  -10.9716   19.6188 H   0  0  0  0  0  0
  -21.2053   -7.6166   23.9697 H   0  0  0  0  0  0
  -21.1417   -6.0502   25.9033 H   0  0  0  0  0  0
  -22.0635   -2.7624   23.2768 H   0  0  0  0  0  0
  -22.4106  -11.9958   22.4724 H   0  0  0  0  0  0
  -21.1177  -13.1352   22.2629 H   0  0  0  0  0  0
  -24.7447  -15.8677   20.6324 H   0  0  0  0  0  0
  -26.3532  -15.5865   20.1665 H   0  0  0  0  0  0
  -26.7112  -32.5449   23.1058 H   0  0  0  0  0  0
  -25.0002  -33.9727   25.0378 H   0  0  0  0  0  0
  -22.6850  -31.3208   21.4283 H   0  0  0  0  0  0
  -23.3771  -35.9665   23.3286 H   0  0  0  0  0  0
  -24.3635  -36.8938   22.2043 H   0  0  0  0  0  0
  -23.7284  -37.6543   23.6620 H   0  0  0  0  0  0
  -26.0759  -31.5669   20.6128 H   0  0  0  0  0  0
  -26.8264  -30.8462   22.0077 H   0  0  0  0  0  0
  -28.0839  -28.9916   21.1781 H   0  0  0  0  0  0
  -25.8586  -26.0741   18.8606 H   0  0  0  0  0  0
  -23.9343  -27.3756   18.9717 H   0  0  0  0  0  0
  -23.7191  -30.6369   19.4172 H   0  0  0  0  0  0
  -22.7186  -29.2866   19.8676 H   0  0  0  0  0  0
  -25.1291  -36.1961   25.0828 H   0  0  0  0  0  0
  -20.9965  -28.3307   24.1458 H   0  0  0  0  0  0
  -20.5739  -26.2292   23.3673 H   0  0  0  0  0  0
  -21.6647  -26.7496   22.1227 H   0  0  0  0  0  0
  -19.6961  -25.6334   21.1230 H   0  0  0  0  0  0
  -19.6732  -27.3276   20.6826 H   0  0  0  0  0  0
  -17.4238  -26.6752   21.3988 H   0  0  0  0  0  0
  -18.0271  -26.0079   22.8975 H   0  0  0  0  0  0
  -19.7910  -30.7297   24.2274 H   0  0  0  0  0  0
  -17.4987  -31.6257   24.5213 H   0  0  0  0  0  0
  -15.5331  -30.3009   23.7653 H   0  0  0  0  0  0
  -15.8660  -28.0895   22.6962 H   0  0  0  0  0  0
  -24.6012  -30.6890   25.7851 H   0  0  0  0  0  0
  -24.8770  -32.2869   26.4667 H   0  0  0  0  0  0
  -25.8122  -30.9105   27.0296 H   0  0  0  0  0  0
  -26.2775  -29.6768   24.1110 H   0  0  0  0  0  0
  -27.3847  -29.7113   25.4609 H   0  0  0  0  0  0
  -27.8690  -30.4150   23.9359 H   0  0  0  0  0  0
  -27.2713  -33.3585   26.1947 H   0  0  0  0  0  0
  -28.3904  -32.6741   25.0265 H   0  0  0  0  0  0
  -28.0687  -31.8384   26.5380 H   0  0  0  0  0  0
  -28.2588  -38.0134   24.7478 H   0  0  0  0  0  0
  -28.1098  -36.2666   24.6278 H   0  0  0  0  0  0
  -27.2325  -37.1484   25.8864 H   0  0  0  0  0  0
  -20.9291  -29.8733   21.6907 H   0  0  0  0  0  0
  -26.0188  -38.2876   24.1406 H   0  0  0  0  0  0
  -24.5196  -19.6304   21.5587 H   0  0  0  0  0  0
  -25.6731  -20.9242   21.5090 H   0  0  0  0  0  0
  -25.2385  -21.0321   19.2881 H   0  0  0  0  0  0
  -24.4813  -19.4658   19.2586 H   0  0  0  0  0  0
  -26.3933  -17.9763   21.2539 H   0  0  0  0  0  0
  -26.6001  -18.9635   22.6904 H   0  0  0  0  0  0
  -26.5940  -19.6083   17.7836 H   0  0  0  0  0  0
  -26.4283  -18.2842   18.8346 H   0  0  0  0  0  0
  -29.4096  -22.2604   21.2441 H   0  0  0  0  0  0
  -30.2646  -22.8818   19.8740 H   0  0  0  0  0  0
  -29.6760  -24.7204   21.3717 H   0  0  0  0  0  0
  -28.0065  -24.2441   21.4220 H   0  0  0  0  0  0
  -26.6727  -24.3083   19.1507 H   0  0  0  0  0  0
  -27.4255  -25.1415   17.7630 H   0  0  0  0  0  0
  -29.0478  -23.2461   17.6802 H   0  0  0  0  0  0
  -27.9632  -20.5679   21.4312 H   0  0  0  0  0  0
  -27.3086  -22.0947   19.9034 H   0  0  0  0  0  0
  -28.5651  -18.7673   19.1416 H   0  0  0  0  0  0
  -29.5151  -25.3016   19.0150 H   0  0  0  0  0  0
  -25.3333  -23.6864   17.3015 H   0  0  0  0  0  0
  -25.3773  -22.7785   15.8145 H   0  0  0  0  0  0
  -26.3808  -24.2155   15.9758 H   0  0  0  0  0  0
  -28.6123  -21.0538   16.2260 H   0  0  0  0  0  0
  -28.5148  -22.5905   15.3762 H   0  0  0  0  0  0
  -27.2690  -21.3773   15.1454 H   0  0  0  0  0  0
  -28.7425  -19.2052   23.6305 H   0  0  0  0  0  0
  -29.6223  -20.5244   22.8355 H   0  0  0  0  0  0
  -30.4482  -19.0308   23.2451 H   0  0  0  0  0  0
  -30.8927  -16.8487   22.6505 H   0  0  0  0  0  0
  -31.1015  -17.0870   20.9316 H   0  0  0  0  0  0
  -28.5501  -17.0836   20.7236 H   0  0  0  0  0  0
  -28.4272  -17.1050   22.4629 H   0  0  0  0  0  0
  -26.5665  -21.6758   17.5401 H   0  0  0  0  0  0
  -29.3408  -14.9104   21.9641 H   0  0  0  0  0  0
  -29.6612  -20.6952   19.3839 H   0  0  0  0  0  0
  -28.8106  -20.7395   18.0163 H   0  0  0  0  0  0
  1 25  1  0  0  0
  1 30  2  0  0  0
  1 89  1  0  0  0
  2  3  1  0  0  0
  2 25  1  0  0  0
  2 92  1  0  0  0
  2 93  1  0  0  0
  3  4  1  0  0  0
  3 94  1  0  0  0
  3 95  1  0  0  0
  4  5  1  0  0  0
  4 96  1  0  0  0
  4 97  1  0  0  0
  5  6  1  0  0  0
  5 26  1  0  0  0
  5 98  1  0  0  0
  6 25  1  0  0  0
  6 99  1  0  0  0
  6100  1  0  0  0
  7  8  2  0  0  0
  7 26  1  0  0  0
  7 29  1  0  0  0
  8  9  1  0  0  0
  8 22  1  0  0  0
  9 10  1  0  0  0
  9 27  2  0  0  0
 10 11  2  0  0  0
 10 15  1  0  0  0
 11 12  1  0  0  0
 11101  1  0  0  0
 12 13  2  0  0  0
 12102  1  0  0  0
 13 14  1  0  0  0
 13 31  1  0  0  0
 14 15  2  0  0  0
 14103  1  0  0  0
 15104  1  0  0  0
 16 17  2  0  0  0
 16 21  1  0  0  0
 16 31  1  0  0  0
 17 18  1  0  0  0
 17105  1  0  0  0
 18 19  2  0  0  0
 18106  1  0  0  0
 19 20  1  0  0  0
 19 24  1  0  0  0
 20 21  2  0  0  0
 20107  1  0  0  0
 21 23  1  0  0  0
 22 28  1  0  0  0
 22 32  2  0  0  0
 26 27  1  0  0  0
 28108  1  0  0  0
 28109  1  0  0  0
 29110  1  0  0  0
 29111  1  0  0  0
 33 34  1  0  0  0
 33 66  1  0  0  0
 33 70  2  0  0  0
 34 36  1  0  0  0
 34 59  1  0  0  0
 34112  1  0  0  0
 35 44  2  0  0  0
 35 45  1  0  0  0
 35 68  1  0  0  0
 36 56  1  0  0  0
 36113  1  0  0  0
 37 39  1  0  0  0
 37 47  1  0  0  0
 37 66  1  0  0  0
 37114  1  0  0  0
 38 43  2  0  0  0
 38 46  1  0  0  0
 38 47  1  0  0  0
 39 64  1  0  0  0
 39 67  2  0  0  0
 40 52  1  0  0  0
 40 53  2  0  0  0
 40 58  1  0  0  0
 41115  1  0  0  0
 41116  1  0  0  0
 41117  1  0  0  0
 41 48  1  0  0  0
 42 43  1  0  0  0
 42 66  1  0  0  0
 42118  1  0  0  0
 42119  1  0  0  0
 43 44  1  0  0  0
 44120  1  0  0  0
 45 46  2  0  0  0
 45121  1  0  0  0
 46122  1  0  0  0
 47123  1  0  0  0
 47124  1  0  0  0
 48 56  1  0  0  0
 48 65  1  0  0  0
 48125  1  0  0  0
 49 50  1  0  0  0
 49 53  1  0  0  0
 49 64  1  0  0  0
 49126  1  0  0  0
 50 51  1  0  0  0
 50127  1  0  0  0
 50128  1  0  0  0
 51 52  1  0  0  0
 51129  1  0  0  0
 51130  1  0  0  0
 52131  1  0  0  0
 52132  1  0  0  0
 53 54  1  0  0  0
 54 55  2  0  0  0
 54133  1  0  0  0
 55 57  1  0  0  0
 55134  1  0  0  0
 56 69  2  0  0  0
 57 58  2  0  0  0
 57135  1  0  0  0
 58136  1  0  0  0
 59 60  1  0  0  0
 59 61  1  0  0  0
 59 62  1  0  0  0
 60137  1  0  0  0
 60138  1  0  0  0
 60139  1  0  0  0
 61140  1  0  0  0
 61141  1  0  0  0
 61142  1  0  0  0
 62143  1  0  0  0
 62144  1  0  0  0
 62145  1  0  0  0
 63 65  1  0  0  0
 63146  1  0  0  0
 63147  1  0  0  0
 63148  1  0  0  0
 64149  1  0  0  0
 65150  1  0  0  0
 68 82  1  0  0  0
 71 72  1  0  0  0
 71 73  1  0  0  0
 71151  1  0  0  0
 71152  1  0  0  0
 72 74  1  0  0  0
 72153  1  0  0  0
 72154  1  0  0  0
 73 79  1  0  0  0
 73155  1  0  0  0
 73156  1  0  0  0
 74 81  1  0  0  0
 74157  1  0  0  0
 74158  1  0  0  0
 75 76  1  0  0  0
 75 80  1  0  0  0
 75159  1  0  0  0
 75160  1  0  0  0
 76 82  1  0  0  0
 76161  1  0  0  0
 76162  1  0  0  0
 77 82  1  0  0  0
 77163  1  0  0  0
 77164  1  0  0  0
 77 78  1  0  0  0
 78 80  1  0  0  0
 78 88  1  0  0  0
 78165  1  0  0  0
 79 81  1  0  0  0
 79 90  1  0  0  0
 79166  1  0  0  0
 80 91  1  0  0  0
 80167  1  0  0  0
 81 91  1  0  0  0
 81168  1  0  0  0
 82169  1  0  0  0
 83170  1  0  0  0
 83171  1  0  0  0
 83172  1  0  0  0
 83 88  1  0  0  0
 84 88  1  0  0  0
 84173  1  0  0  0
 84174  1  0  0  0
 84175  1  0  0  0
 85 90  1  0  0  0
 85176  1  0  0  0
 85177  1  0  0  0
 85178  1  0  0  0
 86 87  1  0  0  0
 86 89  1  0  0  0
 86179  1  0  0  0
 86180  1  0  0  0
 87 90  1  0  0  0
 87181  1  0  0  0
 87182  1  0  0  0
 88183  1  0  0  0
 89184  1  0  0  0
 91185  1  0  0  0
 91186  1  0  0  0
M  CHG  1  91   1
M  ISO  4   1 100  68 101  82 101  89 100
M  END
> <chiral flag>
0

> <version>
0

> <s_m_source_file>
/data/baiqing/PycharmProjects/Reinvent-master-3.2/result/LINK_invent/BTK/process_docking_weight1_custom_sum_contain_oxygen_bond_distance_aromatic_linkinvent_7_9_3/rearranged_h_0129.sdf

> <i_m_source_file_index>
24

> <r_mmod_Potential_Energy-OPLS-2005>
-21.5762996673584

> <r_mmod_Stretch_Energy-OPLS-2005>
53.0957527160645

> <r_mmod_Bend_Energy-OPLS-2005>
186.368682861328

> <r_mmod_Torsional_Energy-OPLS-2005>
305.102691650391

> <r_mmod_Improper_Torsional_Energy-OPLS-2005>
2.18843054771423

> <r_mmod_Van_der_Waal_Energy-OPLS-2005>
159.225677490234

> <r_mmod_Electrostatic_Energy-OPLS-2005>
-318.675628662109

> <r_mmod_Solvation_Energy-OPLS-2005>
-426.147338867188

> <b_mmod_Minimization_Converged-OPLS-2005>
0

> <r_mmod_RMS_Derivative-OPLS-2005>
7.34596920013428

$$$$
24
                    3D
 Structure written by MMmdl.
166175  0  0  1  0            999 V2000
  -30.6139  -14.7196   20.4753 C   0  0  0  0  0  0
  -30.4339  -12.4439   19.4606 C   0  0  0  0  0  0
  -29.5054  -12.5005   18.2273 C   0  0  0  0  0  0
  -28.0321  -12.3252   18.6454 C   0  0  0  0  0  0
  -27.6410  -13.2247   19.8479 C   0  0  2  0  0  0
  -28.6871  -13.1462   20.9812 C   0  0  0  0  0  0
  -25.2514  -13.8175   20.5695 C   0  0  0  0  0  0
  -24.1805  -13.0430   20.9225 C   0  0  0  0  0  0
  -24.6386  -11.6907   20.8755 C   0  0  0  0  0  0
  -23.9062  -10.4287   21.0415 C   0  0  0  0  0  0
  -24.3617   -9.4203   21.9189 C   0  0  0  0  0  0
  -23.6297   -8.2236   22.0752 C   0  0  0  0  0  0
  -22.4278   -8.0275   21.3544 C   0  0  0  0  0  0
  -21.9915   -9.0247   20.4644 C   0  0  0  0  0  0
  -22.7240  -10.2127   20.3058 C   0  0  0  0  0  0
  -21.6850   -6.0738   22.5280 C   0  0  0  0  0  0
  -21.4010   -6.5641   23.8213 C   0  0  0  0  0  0
  -21.3657   -5.6795   24.9177 C   0  0  0  0  0  0
  -21.6044   -4.3059   24.7226 C   0  0  0  0  0  0
  -21.8818   -3.8149   23.4347 C   0  0  0  0  0  0
  -21.9194   -4.6967   22.3405 C   0  0  0  0  0  0
  -22.7829  -13.5220   21.1882 C   0  0  0  0  0  0
  -22.1664   -4.2154   21.0981 F   0  0  0  0  0  0
  -21.5630   -3.4541   25.7737 F   0  0  0  0  0  0
  -29.9890  -13.4971   20.3998 N   0  0  0  0  0  0
  -26.2928  -12.9370   20.3263 N   0  0  0  0  0  0
  -25.9309  -11.6523   20.5750 N   0  0  0  0  0  0
  -22.0472  -12.8201   22.0428 N   0  0  0  0  0  0
  -25.4204  -15.1897   20.4083 N   0  0  0  0  0  0
  -31.8025  -14.8288   20.1629 O   0  0  0  0  0  0
  -21.6640   -6.8874   21.4240 O   0  0  0  0  0  0
  -22.3523  -14.5531   20.6730 O   0  0  0  0  0  0
  -24.6303  -31.8557   23.1978 C   0  0  0  0  0  0
  -25.9131  -32.4763   23.8325 C   0  0  1  0  0  0
  -27.2195  -27.2760   20.1374 C   0  0  0  0  0  0
  -25.5931  -33.8562   24.2248 N   0  0  0  0  0  0
  -23.4268  -30.4775   21.5407 C   0  0  2  0  0  0
  -24.8745  -28.9238   20.1122 C   0  0  0  0  0  0
  -22.7498  -29.4608   22.4913 C   0  0  0  0  0  0
  -18.0289  -28.1398   22.8486 C   0  0  0  0  0  0
  -24.1489  -36.7279   23.2641 C   0  0  0  0  0  0
  -25.9706  -30.7750   21.3738 C   0  0  0  0  0  0
  -26.0455  -29.3971   20.7198 C   0  0  0  0  0  0
  -27.2248  -28.5869   20.7177 C   0  0  0  0  0  0
  -26.0314  -26.8680   19.4956 C   0  0  0  0  0  0
  -24.8717  -27.6668   19.4879 C   0  0  0  0  0  0
  -23.6443  -29.8087   20.1577 C   0  0  0  0  0  0
  -25.4114  -36.3067   24.0325 C   0  0  1  0  0  0
  -20.5894  -28.3705   23.1271 C   0  0  2  0  0  0
  -20.6774  -26.9422   22.5407 C   0  0  0  0  0  0
  -19.5752  -26.6388   21.5211 C   0  0  0  0  0  0
  -18.1932  -26.7943   22.1619 C   0  0  0  0  0  0
  -19.1542  -28.8866   23.2877 C   0  0  0  0  0  0
  -18.9465  -30.1465   23.8899 C   0  0  0  0  0  0
  -17.6464  -30.6597   24.0567 C   0  0  0  0  0  0
  -25.9054  -34.9445   23.5085 C   0  0  0  0  0  0
  -16.5353  -29.9094   23.6339 C   0  0  0  0  0  0
  -16.7274  -28.6511   23.0359 C   0  0  0  0  0  0
  -26.4500  -31.6593   25.0716 C   0  0  0  0  0  0
  -25.3720  -31.3736   26.1435 C   0  0  0  0  0  0
  -27.0352  -30.3017   24.6193 C   0  0  0  0  0  0
  -27.6052  -32.4343   25.7491 C   0  0  0  0  0  0
  -27.5579  -37.1796   24.8465 C   0  0  0  0  0  0
  -21.4202  -29.3056   22.3665 N   0  0  0  0  0  0
  -26.4285  -37.3770   23.9413 N   0  0  0  0  0  0
  -24.6950  -31.0538   22.0944 N   0  0  0  0  0  0
  -23.4206  -28.8146   23.3006 O   0  0  0  0  0  0
  -28.3089  -26.3826   20.1567 O   0  0  0  0  0  0
  -26.5627  -34.8921   22.4654 O   0  0  0  0  0  0
  -23.5457  -32.1368   23.7280 O   0  0  0  0  0  0
  -30.0669  -22.7629   18.2118 C   0  0  0  0  0  0
  -29.3969  -23.8541   18.7972 C   0  0  0  0  0  0
  -28.8805  -22.4262   20.6900 C   0  0  0  0  0  0
  -30.1877  -21.5001   18.8486 C   0  0  0  0  0  0
  -28.8026  -23.7360   20.0624 C   0  0  0  0  0  0
  -29.5681  -21.2772   20.1159 C   0  0  0  0  0  0
  -33.0917  -19.9262   16.9382 C   0  0  0  0  0  0
  -31.8981  -19.5033   16.0663 C   0  0  0  0  0  0
  -32.5285  -20.8682   18.0059 C   0  0  0  0  0  0
  -30.6400  -20.0850   16.7285 C   0  0  0  0  0  0
  -31.0644  -20.4469   18.1586 C   0  0  0  0  0  0
  -29.8199  -19.9169   20.9243 C   0  0  0  0  0  0
  -28.0653  -24.9972   20.6822 C   0  0  0  0  0  0
  -30.2454  -17.3077   20.8456 C   0  0  0  0  0  0
  -29.8330  -15.8386   20.7088 N   0  0  0  0  0  0
  -29.4227  -18.5317   20.3890 N   0  3  0  0  0  0
  -31.4727  -12.5753   19.1530 H   0  0  0  0  0  0
  -30.3851  -11.4634   19.9369 H   0  0  0  0  0  0
  -29.7833  -11.7273   17.5096 H   0  0  0  0  0  0
  -29.6301  -13.4544   17.7127 H   0  0  0  0  0  0
  -27.8904  -11.2765   18.9099 H   0  0  0  0  0  0
  -27.3712  -12.5147   17.7987 H   0  0  0  0  0  0
  -27.6375  -14.2469   19.4691 H   0  0  0  0  0  0
  -28.7191  -12.1440   21.4113 H   0  0  0  0  0  0
  -28.4239  -13.8187   21.7990 H   0  0  0  0  0  0
  -25.2762   -9.5685   22.4768 H   0  0  0  0  0  0
  -24.0012   -7.4624   22.7463 H   0  0  0  0  0  0
  -21.0853   -8.8758   19.8945 H   0  0  0  0  0  0
  -22.3697  -10.9666   19.6168 H   0  0  0  0  0  0
  -21.1991   -7.6148   23.9719 H   0  0  0  0  0  0
  -21.1483   -6.0525   25.9081 H   0  0  0  0  0  0
  -22.0597   -2.7613   23.2844 H   0  0  0  0  0  0
  -22.4092  -11.9853   22.4799 H   0  0  0  0  0  0
  -21.1085  -13.1213   22.2628 H   0  0  0  0  0  0
  -24.6415  -15.8334   20.4968 H   0  0  0  0  0  0
  -26.2430  -15.6197   20.0076 H   0  0  0  0  0  0
  -26.7202  -32.5416   23.1073 H   0  0  0  0  0  0
  -25.0088  -33.9700   25.0403 H   0  0  0  0  0  0
  -22.7233  -31.2992   21.3923 H   0  0  0  0  0  0
  -23.3757  -35.9606   23.3291 H   0  0  0  0  0  0
  -24.3579  -36.8912   22.2058 H   0  0  0  0  0  0
  -23.7240  -37.6473   23.6675 H   0  0  0  0  0  0
  -26.1039  -31.5339   20.6014 H   0  0  0  0  0  0
  -26.8510  -30.8276   22.0029 H   0  0  0  0  0  0
  -28.1242  -28.9446   21.1992 H   0  0  0  0  0  0
  -25.9900  -25.9058   19.0049 H   0  0  0  0  0  0
  -23.9773  -27.3011   19.0018 H   0  0  0  0  0  0
  -23.7660  -30.5827   19.3993 H   0  0  0  0  0  0
  -22.7645  -29.2380   19.8544 H   0  0  0  0  0  0
  -25.1298  -36.1906   25.0817 H   0  0  0  0  0  0
  -20.9981  -28.3278   24.1393 H   0  0  0  0  0  0
  -20.5671  -26.2312   23.3610 H   0  0  0  0  0  0
  -21.6641  -26.7449   22.1198 H   0  0  0  0  0  0
  -19.6910  -25.6295   21.1246 H   0  0  0  0  0  0
  -19.6694  -27.3193   20.6737 H   0  0  0  0  0  0
  -17.4200  -26.6700   21.4023 H   0  0  0  0  0  0
  -18.0327  -26.0084   22.9013 H   0  0  0  0  0  0
  -19.7939  -30.7282   24.2270 H   0  0  0  0  0  0
  -17.5019  -31.6282   24.5164 H   0  0  0  0  0  0
  -15.5355  -30.2998   23.7670 H   0  0  0  0  0  0
  -15.8671  -28.0827   22.7085 H   0  0  0  0  0  0
  -24.5900  -30.7083   25.7757 H   0  0  0  0  0  0
  -24.8903  -32.2898   26.4858 H   0  0  0  0  0  0
  -25.8029  -30.8914   27.0215 H   0  0  0  0  0  0
  -26.2929  -29.6765   24.1215 H   0  0  0  0  0  0
  -27.4040  -29.7284   25.4708 H   0  0  0  0  0  0
  -27.8801  -30.4300   23.9425 H   0  0  0  0  0  0
  -27.2658  -33.3657   26.2033 H   0  0  0  0  0  0
  -28.3879  -32.6882   25.0331 H   0  0  0  0  0  0
  -28.0702  -31.8492   26.5434 H   0  0  0  0  0  0
  -28.2582  -38.0109   24.7523 H   0  0  0  0  0  0
  -28.1084  -36.2635   24.6266 H   0  0  0  0  0  0
  -27.2295  -37.1413   25.8868 H   0  0  0  0  0  0
  -20.9386  -29.8785   21.6873 H   0  0  0  0  0  0
  -26.0155  -38.2836   24.1431 H   0  0  0  0  0  0
  -30.5373  -22.9263   17.2525 H   0  0  0  0  0  0
  -29.3575  -24.7977   18.2708 H   0  0  0  0  0  0
  -28.4325  -22.3160   21.6680 H   0  0  0  0  0  0
  -33.8819  -20.4024   16.3561 H   0  0  0  0  0  0
  -33.5270  -19.0461   17.4143 H   0  0  0  0  0  0
  -31.8388  -18.4149   16.0173 H   0  0  0  0  0  0
  -32.0021  -19.8661   15.0426 H   0  0  0  0  0  0
  -32.6003  -21.8931   17.6407 H   0  0  0  0  0  0
  -33.0788  -20.8203   18.9463 H   0  0  0  0  0  0
  -29.7932  -19.3984   16.7021 H   0  0  0  0  0  0
  -30.3419  -20.9733   16.1715 H   0  0  0  0  0  0
  -31.0823  -19.5188   18.7206 H   0  0  0  0  0  0
  -29.3666  -20.0205   21.9107 H   0  0  0  0  0  0
  -30.8928  -19.8912   21.1199 H   0  0  0  0  0  0
  -28.3410  -25.0270   21.7368 H   0  0  0  0  0  0
  -27.0020  -24.7594   20.6858 H   0  0  0  0  0  0
  -31.2320  -17.4164   20.3920 H   0  0  0  0  0  0
  -30.4173  -17.4450   21.9141 H   0  0  0  0  0  0
  -28.8667  -15.6345   20.9075 H   0  0  0  0  0  0
  -29.4472  -18.5701   19.3847 H   0  0  0  0  0  0
  -28.4604  -18.3998   20.6519 H   0  0  0  0  0  0
  1 25  1  0  0  0
  1 30  2  0  0  0
  1 85  1  0  0  0
  2  3  1  0  0  0
  2 25  1  0  0  0
  2 87  1  0  0  0
  2 88  1  0  0  0
  3  4  1  0  0  0
  3 89  1  0  0  0
  3 90  1  0  0  0
  4  5  1  0  0  0
  4 91  1  0  0  0
  4 92  1  0  0  0
  5  6  1  0  0  0
  5 26  1  0  0  0
  5 93  1  0  0  0
  6 25  1  0  0  0
  6 94  1  0  0  0
  6 95  1  0  0  0
  7  8  2  0  0  0
  7 26  1  0  0  0
  7 29  1  0  0  0
  8  9  1  0  0  0
  8 22  1  0  0  0
  9 10  1  0  0  0
  9 27  2  0  0  0
 10 11  2  0  0  0
 10 15  1  0  0  0
 11 12  1  0  0  0
 11 96  1  0  0  0
 12 13  2  0  0  0
 12 97  1  0  0  0
 13 14  1  0  0  0
 13 31  1  0  0  0
 14 15  2  0  0  0
 14 98  1  0  0  0
 15 99  1  0  0  0
 16 17  2  0  0  0
 16 21  1  0  0  0
 16 31  1  0  0  0
 17 18  1  0  0  0
 17100  1  0  0  0
 18 19  2  0  0  0
 18101  1  0  0  0
 19 20  1  0  0  0
 19 24  1  0  0  0
 20 21  2  0  0  0
 20102  1  0  0  0
 21 23  1  0  0  0
 22 28  1  0  0  0
 22 32  2  0  0  0
 26 27  1  0  0  0
 28103  1  0  0  0
 28104  1  0  0  0
 29105  1  0  0  0
 29106  1  0  0  0
 33 34  1  0  0  0
 33 66  1  0  0  0
 33 70  2  0  0  0
 34 36  1  0  0  0
 34 59  1  0  0  0
 34107  1  0  0  0
 35 44  2  0  0  0
 35 45  1  0  0  0
 35 68  1  0  0  0
 36 56  1  0  0  0
 36108  1  0  0  0
 37 39  1  0  0  0
 37 47  1  0  0  0
 37 66  1  0  0  0
 37109  1  0  0  0
 38 43  2  0  0  0
 38 46  1  0  0  0
 38 47  1  0  0  0
 39 64  1  0  0  0
 39 67  2  0  0  0
 40 52  1  0  0  0
 40 53  2  0  0  0
 40 58  1  0  0  0
 41110  1  0  0  0
 41111  1  0  0  0
 41112  1  0  0  0
 41 48  1  0  0  0
 42 43  1  0  0  0
 42 66  1  0  0  0
 42113  1  0  0  0
 42114  1  0  0  0
 43 44  1  0  0  0
 44115  1  0  0  0
 45 46  2  0  0  0
 45116  1  0  0  0
 46117  1  0  0  0
 47118  1  0  0  0
 47119  1  0  0  0
 48 56  1  0  0  0
 48 65  1  0  0  0
 48120  1  0  0  0
 49 50  1  0  0  0
 49 53  1  0  0  0
 49 64  1  0  0  0
 49121  1  0  0  0
 50 51  1  0  0  0
 50122  1  0  0  0
 50123  1  0  0  0
 51 52  1  0  0  0
 51124  1  0  0  0
 51125  1  0  0  0
 52126  1  0  0  0
 52127  1  0  0  0
 53 54  1  0  0  0
 54 55  2  0  0  0
 54128  1  0  0  0
 55 57  1  0  0  0
 55129  1  0  0  0
 56 69  2  0  0  0
 57 58  2  0  0  0
 57130  1  0  0  0
 58131  1  0  0  0
 59 60  1  0  0  0
 59 61  1  0  0  0
 59 62  1  0  0  0
 60132  1  0  0  0
 60133  1  0  0  0
 60134  1  0  0  0
 61135  1  0  0  0
 61136  1  0  0  0
 61137  1  0  0  0
 62138  1  0  0  0
 62139  1  0  0  0
 62140  1  0  0  0
 63 65  1  0  0  0
 63141  1  0  0  0
 63142  1  0  0  0
 63143  1  0  0  0
 64144  1  0  0  0
 65145  1  0  0  0
 68 83  1  0  0  0
 71 72  2  0  0  0
 71 74  1  0  0  0
 71146  1  0  0  0
 72 75  1  0  0  0
 72147  1  0  0  0
 73 75  2  0  0  0
 73 76  1  0  0  0
 73148  1  0  0  0
 74 76  2  0  0  0
 74 81  1  0  0  0
 75 83  1  0  0  0
 76 82  1  0  0  0
 77 78  1  0  0  0
 77 79  1  0  0  0
 77149  1  0  0  0
 77150  1  0  0  0
 78 80  1  0  0  0
 78151  1  0  0  0
 78152  1  0  0  0
 79 81  1  0  0  0
 79153  1  0  0  0
 79154  1  0  0  0
 80 81  1  0  0  0
 80155  1  0  0  0
 80156  1  0  0  0
 81157  1  0  0  0
 82 86  1  0  0  0
 82158  1  0  0  0
 82159  1  0  0  0
 83160  1  0  0  0
 83161  1  0  0  0
 84 85  1  0  0  0
 84 86  1  0  0  0
 84162  1  0  0  0
 84163  1  0  0  0
 85164  1  0  0  0
 86165  1  0  0  0
 86166  1  0  0  0
M  CHG  1  86   1
M  ISO  4   1 100  68 101  83 101  85 100
M  END
> <chiral flag>
0

> <version>
0

> <s_m_source_file>
/data/baiqing/PycharmProjects/Reinvent-master-3.2/result/LINK_invent/BTK/process_docking_weight1_custom_sum_contain_oxygen_bond_distance_aromatic_linkinvent_7_9_3/rearranged_h_0129.sdf

> <i_m_source_file_index>
25

> <r_mmod_Potential_Energy-OPLS-2005>
-2.00309348106384

> <r_mmod_Stretch_Energy-OPLS-2005>
115.86939239502

> <r_mmod_Bend_Energy-OPLS-2005>
174.536773681641

> <r_mmod_Torsional_Energy-OPLS-2005>
281.440490722656

> <r_mmod_Improper_Torsional_Energy-OPLS-2005>
5.802086353302

> <r_mmod_Van_der_Waal_Energy-OPLS-2005>
136.814498901367

> <r_mmod_Electrostatic_Energy-OPLS-2005>
-303.559112548828

> <r_mmod_Solvation_Energy-OPLS-2005>
-489.183929443359

> <b_mmod_Minimization_Converged-OPLS-2005>
0

> <r_mmod_RMS_Derivative-OPLS-2005>
0.894005835056305

$$$$
25
                    3D
 Structure written by MMmdl.
169179  0  0  1  0            999 V2000
  -30.7175  -14.4008   20.5746 C   0  0  0  0  0  0
  -30.4207  -12.2741   19.3926 C   0  0  0  0  0  0
  -29.4748  -12.5186   18.1969 C   0  0  0  0  0  0
  -28.0006  -12.3862   18.6214 C   0  0  0  0  0  0
  -27.6681  -13.1899   19.9076 C   0  0  2  0  0  0
  -28.7247  -12.9168   21.0068 C   0  0  0  0  0  0
  -25.2613  -13.8130   20.5689 C   0  0  0  0  0  0
  -24.1824  -13.0419   20.9142 C   0  0  0  0  0  0
  -24.6358  -11.6882   20.8770 C   0  0  0  0  0  0
  -23.9017  -10.4265   21.0440 C   0  0  0  0  0  0
  -24.3572   -9.4181   21.9235 C   0  0  0  0  0  0
  -23.6221   -8.2229   22.0799 C   0  0  0  0  0  0
  -22.4225   -8.0275   21.3569 C   0  0  0  0  0  0
  -21.9850   -9.0251   20.4678 C   0  0  0  0  0  0
  -22.7188  -10.2127   20.3074 C   0  0  0  0  0  0
  -21.6823   -6.0696   22.5254 C   0  0  0  0  0  0
  -21.4003   -6.5614   23.8186 C   0  0  0  0  0  0
  -21.3645   -5.6785   24.9167 C   0  0  0  0  0  0
  -21.6032   -4.3041   24.7226 C   0  0  0  0  0  0
  -21.8811   -3.8124   23.4352 C   0  0  0  0  0  0
  -21.9166   -4.6923   22.3400 C   0  0  0  0  0  0
  -22.7865  -13.5271   21.1792 C   0  0  0  0  0  0
  -22.1646   -4.2111   21.0975 F   0  0  0  0  0  0
  -21.5626   -3.4525   25.7736 F   0  0  0  0  0  0
  -30.0573  -13.2217   20.4525 N   0  0  0  0  0  0
  -26.3052  -12.9242   20.3585 N   0  0  0  0  0  0
  -25.9299  -11.6423   20.5940 N   0  0  0  0  0  0
  -22.0472  -12.8292   22.0356 N   0  0  0  0  0  0
  -25.4401  -15.1825   20.4092 N   0  0  0  0  0  0
  -31.8245  -14.6313   20.0789 O   0  0  0  0  0  0
  -21.6623   -6.8846   21.4226 O   0  0  0  0  0  0
  -22.3577  -14.5594   20.6649 O   0  0  0  0  0  0
  -24.6105  -31.8683   23.2099 C   0  0  0  0  0  0
  -25.8999  -32.4816   23.8419 C   0  0  1  0  0  0
  -27.2413  -27.4708   20.0877 C   0  0  0  0  0  0
  -25.5872  -33.8624   24.2329 N   0  0  0  0  0  0
  -23.3971  -30.4885   21.5511 C   0  0  2  0  0  0
  -24.8460  -28.9618   20.1107 C   0  0  0  0  0  0
  -22.7402  -29.4622   22.5017 C   0  0  0  0  0  0
  -18.0234  -28.1320   22.8462 C   0  0  0  0  0  0
  -24.1480  -36.7342   23.2629 C   0  0  0  0  0  0
  -25.9229  -30.8470   21.3558 C   0  0  0  0  0  0
  -26.0036  -29.4828   20.7057 C   0  0  0  0  0  0
  -27.2052  -28.7447   20.6887 C   0  0  0  0  0  0
  -26.0701  -26.9507   19.4973 C   0  0  0  0  0  0
  -24.8742  -27.6934   19.5032 C   0  0  0  0  0  0
  -23.6034  -29.8215   20.1641 C   0  0  0  0  0  0
  -25.4095  -36.3128   24.0343 C   0  0  1  0  0  0
  -20.5827  -28.3605   23.1335 C   0  0  2  0  0  0
  -20.6747  -26.9355   22.5415 C   0  0  0  0  0  0
  -19.5750  -26.6355   21.5182 C   0  0  0  0  0  0
  -18.1909  -26.7862   22.1587 C   0  0  0  0  0  0
  -19.1486  -28.8781   23.2880 C   0  0  0  0  0  0
  -18.9429  -30.1375   23.8913 C   0  0  0  0  0  0
  -17.6445  -30.6547   24.0525 C   0  0  0  0  0  0
  -25.9042  -34.9479   23.5147 C   0  0  0  0  0  0
  -16.5327  -29.9048   23.6301 C   0  0  0  0  0  0
  -16.7223  -28.6448   23.0341 C   0  0  0  0  0  0
  -26.4448  -31.6563   25.0723 C   0  0  0  0  0  0
  -25.3738  -31.3603   26.1486 C   0  0  0  0  0  0
  -27.0260  -30.3034   24.6005 C   0  0  0  0  0  0
  -27.6056  -32.4256   25.7467 C   0  0  0  0  0  0
  -27.5574  -37.1807   24.8448 C   0  0  0  0  0  0
  -21.4130  -29.2981   22.3773 N   0  0  0  0  0  0
  -26.4272  -37.3813   23.9415 N   0  0  0  0  0  0
  -24.6614  -31.0817   22.0975 N   0  0  0  0  0  0
  -23.4198  -28.8152   23.3025 O   0  0  0  0  0  0
  -28.4104  -26.7555   20.0681 O   0  0  0  0  0  0
  -26.5617  -34.8912   22.4717 O   0  0  0  0  0  0
  -23.5313  -32.1414   23.7523 O   0  0  0  0  0  0
  -26.6422  -21.2204   16.8838 C   0  0  0  0  0  0
  -26.7500  -22.4698   17.5220 C   0  0  0  0  0  0
  -28.9624  -19.1812   18.9686 C   0  0  0  0  0  0
  -28.3809  -21.5470   19.0639 C   0  0  0  0  0  0
  -27.3853  -20.1070   17.3412 C   0  0  0  0  0  0
  -28.2475  -20.2802   18.4523 C   0  0  0  0  0  0
  -28.0013  -17.7280   17.2485 C   0  0  0  0  0  0
  -28.8295  -17.9009   18.3912 C   0  0  0  0  0  0
  -27.2738  -18.8330   16.7236 C   0  0  0  0  0  0
  -27.6253  -22.6559   18.6087 C   0  0  0  0  0  0
  -27.8791  -16.3463   16.5938 C   0  0  0  0  0  0
  -27.2202  -16.3744   15.2148 C   0  0  0  0  0  0
  -26.0308  -17.3316   15.2102 C   0  0  0  0  0  0
  -29.5552  -16.6961   18.9847 C   0  0  0  0  0  0
  -29.9610  -16.7462   20.4807 C   0  0  0  0  0  0
  -28.7771  -24.3265   19.9421 C   0  0  0  0  0  0
  -28.3721  -25.5306   20.8054 C   0  0  0  0  0  0
  -26.4496  -18.6706   15.5945 N   0  0  0  0  0  0
  -29.9518  -15.3920   21.0368 N   0  0  0  0  0  0
  -27.6458  -23.9137   19.1731 O   0  0  0  0  0  0
  -31.4611  -12.3788   19.0774 H   0  0  0  0  0  0
  -30.3224  -11.2525   19.7613 H   0  0  0  0  0  0
  -29.6925  -11.8067   17.4018 H   0  0  0  0  0  0
  -29.6451  -13.5126   17.7823 H   0  0  0  0  0  0
  -27.8029  -11.3261   18.7906 H   0  0  0  0  0  0
  -27.3437  -12.6961   17.8074 H   0  0  0  0  0  0
  -27.7134  -14.2458   19.6585 H   0  0  0  0  0  0
  -28.6971  -11.8650   21.2997 H   0  0  0  0  0  0
  -28.5152  -13.4698   21.9214 H   0  0  0  0  0  0
  -25.2716   -9.5637   22.4834 H   0  0  0  0  0  0
  -23.9888   -7.4610   22.7535 H   0  0  0  0  0  0
  -21.0760   -8.8767   19.8994 H   0  0  0  0  0  0
  -22.3649  -10.9667   19.6177 H   0  0  0  0  0  0
  -21.2030   -7.6130   23.9670 H   0  0  0  0  0  0
  -21.1470   -6.0547   25.9056 H   0  0  0  0  0  0
  -22.0601   -2.7583   23.2881 H   0  0  0  0  0  0
  -22.3994  -11.9878   22.4681 H   0  0  0  0  0  0
  -21.1149  -13.1447   22.2625 H   0  0  0  0  0  0
  -24.6834  -15.8503   20.5129 H   0  0  0  0  0  0
  -26.3082  -15.6185   20.1271 H   0  0  0  0  0  0
  -26.7054  -32.5541   23.1182 H   0  0  0  0  0  0
  -25.0021  -33.9802   25.0470 H   0  0  0  0  0  0
  -22.6831  -31.3031   21.4149 H   0  0  0  0  0  0
  -23.3745  -35.9662   23.3264 H   0  0  0  0  0  0
  -24.3588  -36.9013   22.2051 H   0  0  0  0  0  0
  -23.7238  -37.6540   23.6676 H   0  0  0  0  0  0
  -26.0283  -31.6109   20.5859 H   0  0  0  0  0  0
  -26.8149  -30.9054   21.9683 H   0  0  0  0  0  0
  -28.1007  -29.1451   21.1435 H   0  0  0  0  0  0
  -26.0878  -25.9779   19.0268 H   0  0  0  0  0  0
  -23.9858  -27.2872   19.0366 H   0  0  0  0  0  0
  -23.6981  -30.6009   19.4073 H   0  0  0  0  0  0
  -22.7305  -29.2336   19.8718 H   0  0  0  0  0  0
  -25.1248  -36.2012   25.0836 H   0  0  0  0  0  0
  -20.9857  -28.3130   24.1472 H   0  0  0  0  0  0
  -20.5657  -26.2192   23.3569 H   0  0  0  0  0  0
  -21.6623  -26.7423   22.1204 H   0  0  0  0  0  0
  -19.6965  -25.6278   21.1187 H   0  0  0  0  0  0
  -19.6716  -27.3180   20.6724 H   0  0  0  0  0  0
  -17.4195  -26.6552   21.3972 H   0  0  0  0  0  0
  -18.0338  -25.9967   22.8963 H   0  0  0  0  0  0
  -19.7916  -30.7128   24.2346 H   0  0  0  0  0  0
  -17.5014  -31.6242   24.5089 H   0  0  0  0  0  0
  -15.5337  -30.2969   23.7633 H   0  0  0  0  0  0
  -15.8596  -28.0781   22.7104 H   0  0  0  0  0  0
  -24.5922  -30.6938   25.7810 H   0  0  0  0  0  0
  -24.8890  -32.2710   26.5013 H   0  0  0  0  0  0
  -25.8124  -30.8725   27.0200 H   0  0  0  0  0  0
  -26.2758  -29.6815   24.1101 H   0  0  0  0  0  0
  -27.4141  -29.7239   25.4392 H   0  0  0  0  0  0
  -27.8531  -30.4399   23.9033 H   0  0  0  0  0  0
  -27.2730  -33.3576   26.2036 H   0  0  0  0  0  0
  -28.3855  -32.6780   25.0269 H   0  0  0  0  0  0
  -28.0694  -31.8355   26.5373 H   0  0  0  0  0  0
  -28.2558  -38.0130   24.7564 H   0  0  0  0  0  0
  -28.1113  -36.2690   24.6195 H   0  0  0  0  0  0
  -27.2311  -37.1357   25.8846 H   0  0  0  0  0  0
  -20.9303  -29.8738   21.7026 H   0  0  0  0  0  0
  -26.0183  -38.2896   24.1431 H   0  0  0  0  0  0
  -25.9635  -21.1320   16.0485 H   0  0  0  0  0  0
  -26.1545  -23.2986   17.1640 H   0  0  0  0  0  0
  -29.5967  -19.3239   19.8322 H   0  0  0  0  0  0
  -29.0481  -21.6244   19.9064 H   0  0  0  0  0  0
  -27.2911  -15.7012   17.2485 H   0  0  0  0  0  0
  -28.8653  -15.8922   16.4986 H   0  0  0  0  0  0
  -26.9133  -15.3699   14.9202 H   0  0  0  0  0  0
  -27.9517  -16.7000   14.4730 H   0  0  0  0  0  0
  -25.2555  -16.9761   15.8904 H   0  0  0  0  0  0
  -25.5802  -17.3757   14.2181 H   0  0  0  0  0  0
  -30.4250  -16.4697   18.3647 H   0  0  0  0  0  0
  -28.8833  -15.8520   18.8666 H   0  0  0  0  0  0
  -29.2355  -17.3162   21.0628 H   0  0  0  0  0  0
  -30.9339  -17.2238   20.6144 H   0  0  0  0  0  0
  -29.1214  -23.5557   20.6308 H   0  0  0  0  0  0
  -29.6083  -24.5795   19.2817 H   0  0  0  0  0  0
  -29.0934  -25.6386   21.6188 H   0  0  0  0  0  0
  -27.4119  -25.3378   21.2875 H   0  0  0  0  0  0
  -25.8997  -19.4601   15.2689 H   0  0  0  0  0  0
  -29.0776  -15.0927   21.4447 H   0  0  0  0  0  0
  1 25  1  0  0  0
  1 30  2  0  0  0
  1 89  1  0  0  0
  2  3  1  0  0  0
  2 25  1  0  0  0
  2 91  1  0  0  0
  2 92  1  0  0  0
  3  4  1  0  0  0
  3 93  1  0  0  0
  3 94  1  0  0  0
  4  5  1  0  0  0
  4 95  1  0  0  0
  4 96  1  0  0  0
  5  6  1  0  0  0
  5 26  1  0  0  0
  5 97  1  0  0  0
  6 25  1  0  0  0
  6 98  1  0  0  0
  6 99  1  0  0  0
  7  8  2  0  0  0
  7 26  1  0  0  0
  7 29  1  0  0  0
  8  9  1  0  0  0
  8 22  1  0  0  0
  9 10  1  0  0  0
  9 27  2  0  0  0
 10 11  2  0  0  0
 10 15  1  0  0  0
 11 12  1  0  0  0
 11100  1  0  0  0
 12 13  2  0  0  0
 12101  1  0  0  0
 13 14  1  0  0  0
 13 31  1  0  0  0
 14 15  2  0  0  0
 14102  1  0  0  0
 15103  1  0  0  0
 16 17  2  0  0  0
 16 21  1  0  0  0
 16 31  1  0  0  0
 17 18  1  0  0  0
 17104  1  0  0  0
 18 19  2  0  0  0
 18105  1  0  0  0
 19 20  1  0  0  0
 19 24  1  0  0  0
 20 21  2  0  0  0
 20106  1  0  0  0
 21 23  1  0  0  0
 22 28  1  0  0  0
 22 32  2  0  0  0
 26 27  1  0  0  0
 28107  1  0  0  0
 28108  1  0  0  0
 29109  1  0  0  0
 29110  1  0  0  0
 33 34  1  0  0  0
 33 66  1  0  0  0
 33 70  2  0  0  0
 34 36  1  0  0  0
 34 59  1  0  0  0
 34111  1  0  0  0
 35 44  2  0  0  0
 35 45  1  0  0  0
 35 68  1  0  0  0
 36 56  1  0  0  0
 36112  1  0  0  0
 37 39  1  0  0  0
 37 47  1  0  0  0
 37 66  1  0  0  0
 37113  1  0  0  0
 38 43  2  0  0  0
 38 46  1  0  0  0
 38 47  1  0  0  0
 39 64  1  0  0  0
 39 67  2  0  0  0
 40 52  1  0  0  0
 40 53  2  0  0  0
 40 58  1  0  0  0
 41114  1  0  0  0
 41115  1  0  0  0
 41116  1  0  0  0
 41 48  1  0  0  0
 42 43  1  0  0  0
 42 66  1  0  0  0
 42117  1  0  0  0
 42118  1  0  0  0
 43 44  1  0  0  0
 44119  1  0  0  0
 45 46  2  0  0  0
 45120  1  0  0  0
 46121  1  0  0  0
 47122  1  0  0  0
 47123  1  0  0  0
 48 56  1  0  0  0
 48 65  1  0  0  0
 48124  1  0  0  0
 49 50  1  0  0  0
 49 53  1  0  0  0
 49 64  1  0  0  0
 49125  1  0  0  0
 50 51  1  0  0  0
 50126  1  0  0  0
 50127  1  0  0  0
 51 52  1  0  0  0
 51128  1  0  0  0
 51129  1  0  0  0
 52130  1  0  0  0
 52131  1  0  0  0
 53 54  1  0  0  0
 54 55  2  0  0  0
 54132  1  0  0  0
 55 57  1  0  0  0
 55133  1  0  0  0
 56 69  2  0  0  0
 57 58  2  0  0  0
 57134  1  0  0  0
 58135  1  0  0  0
 59 60  1  0  0  0
 59 61  1  0  0  0
 59 62  1  0  0  0
 60136  1  0  0  0
 60137  1  0  0  0
 60138  1  0  0  0
 61139  1  0  0  0
 61140  1  0  0  0
 61141  1  0  0  0
 62142  1  0  0  0
 62143  1  0  0  0
 62144  1  0  0  0
 63 65  1  0  0  0
 63145  1  0  0  0
 63146  1  0  0  0
 63147  1  0  0  0
 64148  1  0  0  0
 65149  1  0  0  0
 68 87  1  0  0  0
 71 72  2  0  0  0
 71 75  1  0  0  0
 71150  1  0  0  0
 72 80  1  0  0  0
 72151  1  0  0  0
 73 76  1  0  0  0
 73 78  2  0  0  0
 73152  1  0  0  0
 74 76  1  0  0  0
 74 80  2  0  0  0
 74153  1  0  0  0
 75 76  2  0  0  0
 75 79  1  0  0  0
 77 78  1  0  0  0
 77 79  2  0  0  0
 77 81  1  0  0  0
 78 84  1  0  0  0
 79 88  1  0  0  0
 80 90  1  0  0  0
 81 82  1  0  0  0
 81154  1  0  0  0
 81155  1  0  0  0
 82 83  1  0  0  0
 82156  1  0  0  0
 82157  1  0  0  0
 83 88  1  0  0  0
 83158  1  0  0  0
 83159  1  0  0  0
 84 85  1  0  0  0
 84160  1  0  0  0
 84161  1  0  0  0
 85 89  1  0  0  0
 85162  1  0  0  0
 85163  1  0  0  0
 86 87  1  0  0  0
 86 90  1  0  0  0
 86164  1  0  0  0
 86165  1  0  0  0
 87166  1  0  0  0
 87167  1  0  0  0
 88168  1  0  0  0
 89169  1  0  0  0
M  ISO  4   1 100  68 101  87 101  89 100
M  END
> <chiral flag>
0

> <version>
0

> <s_m_source_file>
/data/baiqing/PycharmProjects/Reinvent-master-3.2/result/LINK_invent/BTK/process_docking_weight1_custom_sum_contain_oxygen_bond_distance_aromatic_linkinvent_7_9_3/rearranged_h_0129.sdf

> <i_m_source_file_index>
26

> <r_mmod_Potential_Energy-OPLS-2005>
-43.1250228881836

> <r_mmod_Stretch_Energy-OPLS-2005>
38.0856819152832

> <r_mmod_Bend_Energy-OPLS-2005>
109.72095489502

> <r_mmod_Torsional_Energy-OPLS-2005>
240.209777832031

> <r_mmod_Improper_Torsional_Energy-OPLS-2005>
9.63331890106201

> <r_mmod_Van_der_Waal_Energy-OPLS-2005>
184.990615844727

> <r_mmod_Electrostatic_Energy-OPLS-2005>
-395.653533935547

> <r_mmod_Solvation_Energy-OPLS-2005>
-238.399200439453

> <b_mmod_Minimization_Converged-OPLS-2005>
0

> <r_mmod_RMS_Derivative-OPLS-2005>
3.99548149108887

$$$$
26
                    3D
 Structure written by MMmdl.
182191  0  0  1  0            999 V2000
  -30.7136  -14.4757   20.6126 C   0  0  0  0  0  0
  -30.4235  -12.3228   19.4276 C   0  0  0  0  0  0
  -29.4957  -12.5230   18.2121 C   0  0  0  0  0  0
  -28.0185  -12.3727   18.6226 C   0  0  0  0  0  0
  -27.6610  -13.2064   19.8812 C   0  0  2  0  0  0
  -28.7024  -12.9906   21.0029 C   0  0  0  0  0  0
  -25.2497  -13.7984   20.5529 C   0  0  0  0  0  0
  -24.1831  -13.0324   20.9271 C   0  0  0  0  0  0
  -24.6423  -11.6823   20.8844 C   0  0  0  0  0  0
  -23.9077  -10.4235   21.0453 C   0  0  0  0  0  0
  -24.3620   -9.4146   21.9215 C   0  0  0  0  0  0
  -23.6283   -8.2192   22.0759 C   0  0  0  0  0  0
  -22.4268   -8.0259   21.3542 C   0  0  0  0  0  0
  -21.9917   -9.0246   20.4651 C   0  0  0  0  0  0
  -22.7259  -10.2111   20.3084 C   0  0  0  0  0  0
  -21.6843   -6.0722   22.5268 C   0  0  0  0  0  0
  -21.3999   -6.5629   23.8201 C   0  0  0  0  0  0
  -21.3656   -5.6782   24.9163 C   0  0  0  0  0  0
  -21.6048   -4.3048   24.7222 C   0  0  0  0  0  0
  -21.8821   -3.8144   23.4344 C   0  0  0  0  0  0
  -21.9190   -4.6953   22.3393 C   0  0  0  0  0  0
  -22.7860  -13.5176   21.1836 C   0  0  0  0  0  0
  -22.1665   -4.2141   21.0972 F   0  0  0  0  0  0
  -21.5629   -3.4539   25.7740 F   0  0  0  0  0  0
  -30.0363  -13.3024   20.4581 N   0  0  0  0  0  0
  -26.3035  -12.9249   20.3410 N   0  0  0  0  0  0
  -25.9360  -11.6425   20.5884 N   0  0  0  0  0  0
  -22.0414  -12.8232   22.0352 N   0  0  0  0  0  0
  -25.3833  -15.1575   20.3105 N   0  0  0  0  0  0
  -31.8104  -14.6706   20.0835 O   0  0  0  0  0  0
  -21.6621   -6.8869   21.4235 O   0  0  0  0  0  0
  -22.3708  -14.5539   20.6653 O   0  0  0  0  0  0
  -24.6154  -31.8686   23.2098 C   0  0  0  0  0  0
  -25.9043  -32.4827   23.8388 C   0  0  1  0  0  0
  -27.2386  -27.4260   20.0887 C   0  0  0  0  0  0
  -25.5895  -33.8622   24.2322 N   0  0  0  0  0  0
  -23.4026  -30.4930   21.5513 C   0  0  2  0  0  0
  -24.8481  -28.9609   20.1170 C   0  0  0  0  0  0
  -22.7410  -29.4661   22.4988 C   0  0  0  0  0  0
  -18.0269  -28.1394   22.8490 C   0  0  0  0  0  0
  -24.1481  -36.7296   23.2634 C   0  0  0  0  0  0
  -25.9335  -30.8318   21.3644 C   0  0  0  0  0  0
  -26.0106  -29.4663   20.7103 C   0  0  0  0  0  0
  -27.2052  -28.7071   20.6924 C   0  0  0  0  0  0
  -26.0434  -26.9355   19.5024 C   0  0  0  0  0  0
  -24.8595  -27.6943   19.5132 C   0  0  0  0  0  0
  -23.6105  -29.8281   20.1660 C   0  0  0  0  0  0
  -25.4105  -36.3106   24.0334 C   0  0  1  0  0  0
  -20.5861  -28.3671   23.1319 C   0  0  2  0  0  0
  -20.6761  -26.9405   22.5424 C   0  0  0  0  0  0
  -19.5740  -26.6397   21.5213 C   0  0  0  0  0  0
  -18.1915  -26.7943   22.1615 C   0  0  0  0  0  0
  -19.1522  -28.8846   23.2904 C   0  0  0  0  0  0
  -18.9449  -30.1448   23.8924 C   0  0  0  0  0  0
  -17.6452  -30.6596   24.0566 C   0  0  0  0  0  0
  -25.9034  -34.9471   23.5126 C   0  0  0  0  0  0
  -16.5345  -29.9097   23.6324 C   0  0  0  0  0  0
  -16.7262  -28.6515   23.0353 C   0  0  0  0  0  0
  -26.4473  -31.6612   25.0717 C   0  0  0  0  0  0
  -25.3745  -31.3754   26.1473 C   0  0  0  0  0  0
  -27.0274  -30.3042   24.6103 C   0  0  0  0  0  0
  -27.6067  -32.4325   25.7464 C   0  0  0  0  0  0
  -27.5580  -37.1795   24.8463 C   0  0  0  0  0  0
  -21.4141  -29.3036   22.3722 N   0  0  0  0  0  0
  -26.4298  -37.3786   23.9411 N   0  0  0  0  0  0
  -24.6688  -31.0785   22.1002 N   0  0  0  0  0  0
  -23.4182  -28.8190   23.3016 O   0  0  0  0  0  0
  -28.4265  -26.7067   20.0946 O   0  0  0  0  0  0
  -26.5592  -34.8926   22.4686 O   0  0  0  0  0  0
  -23.5346  -32.1437   23.7490 O   0  0  0  0  0  0
  -31.9699  -18.6986   21.6660 C   0  0  0  0  0  0
  -31.6787  -17.3379   21.4215 C   0  0  0  0  0  0
  -29.6317  -19.1148   22.1009 C   0  0  0  0  0  0
  -30.9467  -19.6025   22.0203 C   0  0  0  0  0  0
  -29.3158  -17.7586   21.8361 C   0  0  0  0  0  0
  -30.3525  -16.8334   21.4992 C   0  0  0  0  0  0
  -26.6245  -18.4584   18.3022 C   0  0  0  0  0  0
  -25.1306  -18.1880   18.5450 C   0  0  0  0  0  0
  -27.4826  -17.7617   19.3694 C   0  0  0  0  0  0
  -24.7183  -18.5399   19.9884 C   0  0  0  0  0  0
  -27.0244  -18.1317   20.8015 C   0  0  2  0  0  0
  -32.1704  -21.0740   23.6456 C   0  0  0  0  0  0
  -31.8220  -21.9361   21.2802 C   0  0  0  0  0  0
  -30.8296  -22.4996   20.2303 C   0  0  0  0  0  0
  -29.7900  -24.6756   19.5238 C   0  0  0  0  0  0
  -28.3991  -25.3550   19.6032 C   0  0  0  0  0  0
  -27.8337  -17.3869   21.8935 C   0  0  2  0  0  0
  -31.2434  -21.0559   22.4180 C   0  0  1  0  0  0
  -30.0494  -15.4369   21.2984 N   0  0  0  0  0  0
  -25.5841  -17.8540   20.9721 N   0  3  0  0  0  0
  -30.1062  -23.7398   20.6458 N   0  3  0  0  0  0
  -27.2713  -17.6770   23.1665 O   0  0  0  0  0  0
  -31.4670  -12.4234   19.1250 H   0  0  0  0  0  0
  -30.3263  -11.3095   19.8199 H   0  0  0  0  0  0
  -29.7400  -11.8048   17.4285 H   0  0  0  0  0  0
  -29.6602  -13.5118   17.7813 H   0  0  0  0  0  0
  -27.8335  -11.3160   18.8178 H   0  0  0  0  0  0
  -27.3666  -12.6456   17.7918 H   0  0  0  0  0  0
  -27.7025  -14.2565   19.5913 H   0  0  0  0  0  0
  -28.6829  -11.9544   21.3446 H   0  0  0  0  0  0
  -28.4501  -13.5838   21.8825 H   0  0  0  0  0  0
  -25.2756   -9.5606   22.4797 H   0  0  0  0  0  0
  -23.9982   -7.4574   22.7476 H   0  0  0  0  0  0
  -21.0841   -8.8782   19.8957 H   0  0  0  0  0  0
  -22.3727  -10.9662   19.6205 H   0  0  0  0  0  0
  -21.1981   -7.6130   23.9706 H   0  0  0  0  0  0
  -21.1475   -6.0504   25.9063 H   0  0  0  0  0  0
  -22.0605   -2.7607   23.2842 H   0  0  0  0  0  0
  -22.3963  -11.9873   22.4758 H   0  0  0  0  0  0
  -21.1050  -13.1331   22.2521 H   0  0  0  0  0  0
  -24.4283  -15.4262   20.0844 H   0  0  0  0  0  0
  -25.9597  -15.2236   19.4781 H   0  0  0  0  0  0
  -26.7109  -32.5534   23.1143 H   0  0  0  0  0  0
  -25.0064  -33.9783   25.0483 H   0  0  0  0  0  0
  -22.6913  -31.3100   21.4137 H   0  0  0  0  0  0
  -23.3746  -35.9625   23.3323 H   0  0  0  0  0  0
  -24.3570  -36.8884   22.2042 H   0  0  0  0  0  0
  -23.7236  -37.6512   23.6631 H   0  0  0  0  0  0
  -26.0492  -31.5983   20.5969 H   0  0  0  0  0  0
  -26.8197  -30.8827   21.9847 H   0  0  0  0  0  0
  -28.1045  -29.0992   21.1468 H   0  0  0  0  0  0
  -25.9849  -25.9672   19.0291 H   0  0  0  0  0  0
  -23.9627  -27.2972   19.0576 H   0  0  0  0  0  0
  -23.7199  -30.6020   19.4052 H   0  0  0  0  0  0
  -22.7337  -29.2481   19.8703 H   0  0  0  0  0  0
  -25.1289  -36.1968   25.0829 H   0  0  0  0  0  0
  -20.9961  -28.3247   24.1435 H   0  0  0  0  0  0
  -20.5653  -26.2275   23.3611 H   0  0  0  0  0  0
  -21.6632  -26.7439   22.1228 H   0  0  0  0  0  0
  -19.6892  -25.6311   21.1228 H   0  0  0  0  0  0
  -19.6691  -27.3217   20.6752 H   0  0  0  0  0  0
  -17.4189  -26.6699   21.4016 H   0  0  0  0  0  0
  -18.0302  -26.0096   22.9016 H   0  0  0  0  0  0
  -19.7926  -30.7245   24.2324 H   0  0  0  0  0  0
  -17.5013  -31.6285   24.5158 H   0  0  0  0  0  0
  -15.5344  -30.3004   23.7646 H   0  0  0  0  0  0
  -15.8659  -28.0827   22.7078 H   0  0  0  0  0  0
  -24.5915  -30.7088   25.7835 H   0  0  0  0  0  0
  -24.8931  -32.2922   26.4887 H   0  0  0  0  0  0
  -25.8101  -30.8963   27.0248 H   0  0  0  0  0  0
  -26.2795  -29.6831   24.1157 H   0  0  0  0  0  0
  -27.4021  -29.7266   25.4563 H   0  0  0  0  0  0
  -27.8651  -30.4329   23.9246 H   0  0  0  0  0  0
  -27.2698  -33.3616   26.2070 H   0  0  0  0  0  0
  -28.3847  -32.6904   25.0267 H   0  0  0  0  0  0
  -28.0764  -31.8437   26.5351 H   0  0  0  0  0  0
  -28.2624  -38.0067   24.7500 H   0  0  0  0  0  0
  -28.1053  -36.2603   24.6307 H   0  0  0  0  0  0
  -27.2297  -37.1475   25.8869 H   0  0  0  0  0  0
  -20.9291  -29.8757   21.6953 H   0  0  0  0  0  0
  -26.0187  -38.2864   24.1436 H   0  0  0  0  0  0
  -32.9957  -19.0359   21.6161 H   0  0  0  0  0  0
  -32.5111  -16.6882   21.1960 H   0  0  0  0  0  0
  -28.8488  -19.8050   22.3814 H   0  0  0  0  0  0
  -26.8152  -19.5323   18.3233 H   0  0  0  0  0  0
  -26.9129  -18.1132   17.3081 H   0  0  0  0  0  0
  -24.9111  -17.1398   18.3412 H   0  0  0  0  0  0
  -24.5298  -18.7604   17.8379 H   0  0  0  0  0  0
  -28.5286  -18.0336   19.2222 H   0  0  0  0  0  0
  -27.4353  -16.6824   19.2278 H   0  0  0  0  0  0
  -23.6806  -18.2525   20.1631 H   0  0  0  0  0  0
  -24.7760  -19.6178   20.1463 H   0  0  0  0  0  0
  -27.1496  -19.2076   20.9281 H   0  0  0  0  0  0
  -31.7527  -20.4815   24.4603 H   0  0  0  0  0  0
  -32.3101  -22.0882   24.0212 H   0  0  0  0  0  0
  -33.1569  -20.6693   23.4159 H   0  0  0  0  0  0
  -32.3582  -22.7818   21.7117 H   0  0  0  0  0  0
  -32.5912  -21.3625   20.7614 H   0  0  0  0  0  0
  -30.1185  -21.7350   19.9145 H   0  0  0  0  0  0
  -31.4242  -22.7343   19.3465 H   0  0  0  0  0  0
  -30.5803  -25.4204   19.4198 H   0  0  0  0  0  0
  -29.7998  -24.1057   18.5932 H   0  0  0  0  0  0
  -27.7018  -24.7475   20.1818 H   0  0  0  0  0  0
  -28.0204  -25.3816   18.5801 H   0  0  0  0  0  0
  -27.7095  -16.3145   21.7403 H   0  0  0  0  0  0
  -30.3096  -21.5174   22.7426 H   0  0  0  0  0  0
  -29.1622  -15.1196   21.6543 H   0  0  0  0  0  0
  -25.4589  -16.8451   20.8967 H   0  0  0  0  0  0
  -25.3301  -18.1089   21.9141 H   0  0  0  0  0  0
  -30.6639  -24.2466   21.3153 H   0  0  0  0  0  0
  -29.2556  -23.4715   21.1156 H   0  0  0  0  0  0
  -27.5707  -18.5398   23.4333 H   0  0  0  0  0  0
  1 25  1  0  0  0
  1 30  2  0  0  0
  1 89  1  0  0  0
  2  3  1  0  0  0
  2 25  1  0  0  0
  2 93  1  0  0  0
  2 94  1  0  0  0
  3  4  1  0  0  0
  3 95  1  0  0  0
  3 96  1  0  0  0
  4  5  1  0  0  0
  4 97  1  0  0  0
  4 98  1  0  0  0
  5  6  1  0  0  0
  5 26  1  0  0  0
  5 99  1  0  0  0
  6 25  1  0  0  0
  6100  1  0  0  0
  6101  1  0  0  0
  7  8  2  0  0  0
  7 26  1  0  0  0
  7 29  1  0  0  0
  8  9  1  0  0  0
  8 22  1  0  0  0
  9 10  1  0  0  0
  9 27  2  0  0  0
 10 11  2  0  0  0
 10 15  1  0  0  0
 11 12  1  0  0  0
 11102  1  0  0  0
 12 13  2  0  0  0
 12103  1  0  0  0
 13 14  1  0  0  0
 13 31  1  0  0  0
 14 15  2  0  0  0
 14104  1  0  0  0
 15105  1  0  0  0
 16 17  2  0  0  0
 16 21  1  0  0  0
 16 31  1  0  0  0
 17 18  1  0  0  0
 17106  1  0  0  0
 18 19  2  0  0  0
 18107  1  0  0  0
 19 20  1  0  0  0
 19 24  1  0  0  0
 20 21  2  0  0  0
 20108  1  0  0  0
 21 23  1  0  0  0
 22 28  1  0  0  0
 22 32  2  0  0  0
 26 27  1  0  0  0
 28109  1  0  0  0
 28110  1  0  0  0
 29111  1  0  0  0
 29112  1  0  0  0
 33 34  1  0  0  0
 33 66  1  0  0  0
 33 70  2  0  0  0
 34 36  1  0  0  0
 34 59  1  0  0  0
 34113  1  0  0  0
 35 44  2  0  0  0
 35 45  1  0  0  0
 35 68  1  0  0  0
 36 56  1  0  0  0
 36114  1  0  0  0
 37 39  1  0  0  0
 37 47  1  0  0  0
 37 66  1  0  0  0
 37115  1  0  0  0
 38 43  2  0  0  0
 38 46  1  0  0  0
 38 47  1  0  0  0
 39 64  1  0  0  0
 39 67  2  0  0  0
 40 52  1  0  0  0
 40 53  2  0  0  0
 40 58  1  0  0  0
 41116  1  0  0  0
 41117  1  0  0  0
 41118  1  0  0  0
 41 48  1  0  0  0
 42 43  1  0  0  0
 42 66  1  0  0  0
 42119  1  0  0  0
 42120  1  0  0  0
 43 44  1  0  0  0
 44121  1  0  0  0
 45 46  2  0  0  0
 45122  1  0  0  0
 46123  1  0  0  0
 47124  1  0  0  0
 47125  1  0  0  0
 48 56  1  0  0  0
 48 65  1  0  0  0
 48126  1  0  0  0
 49 50  1  0  0  0
 49 53  1  0  0  0
 49 64  1  0  0  0
 49127  1  0  0  0
 50 51  1  0  0  0
 50128  1  0  0  0
 50129  1  0  0  0
 51 52  1  0  0  0
 51130  1  0  0  0
 51131  1  0  0  0
 52132  1  0  0  0
 52133  1  0  0  0
 53 54  1  0  0  0
 54 55  2  0  0  0
 54134  1  0  0  0
 55 57  1  0  0  0
 55135  1  0  0  0
 56 69  2  0  0  0
 57 58  2  0  0  0
 57136  1  0  0  0
 58137  1  0  0  0
 59 60  1  0  0  0
 59 61  1  0  0  0
 59 62  1  0  0  0
 60138  1  0  0  0
 60139  1  0  0  0
 60140  1  0  0  0
 61141  1  0  0  0
 61142  1  0  0  0
 61143  1  0  0  0
 62144  1  0  0  0
 62145  1  0  0  0
 62146  1  0  0  0
 63 65  1  0  0  0
 63147  1  0  0  0
 63148  1  0  0  0
 63149  1  0  0  0
 64150  1  0  0  0
 65151  1  0  0  0
 68 86  1  0  0  0
 71 72  2  0  0  0
 71 74  1  0  0  0
 71152  1  0  0  0
 72 76  1  0  0  0
 72153  1  0  0  0
 73 74  2  0  0  0
 73 75  1  0  0  0
 73154  1  0  0  0
 74 88  1  0  0  0
 75 76  2  0  0  0
 75 87  1  0  0  0
 76 89  1  0  0  0
 77 78  1  0  0  0
 77 79  1  0  0  0
 77155  1  0  0  0
 77156  1  0  0  0
 78 80  1  0  0  0
 78157  1  0  0  0
 78158  1  0  0  0
 79159  1  0  0  0
 79160  1  0  0  0
 79 81  1  0  0  0
 80 90  1  0  0  0
 80161  1  0  0  0
 80162  1  0  0  0
 81 87  1  0  0  0
 81 90  1  0  0  0
 81163  1  0  0  0
 82164  1  0  0  0
 82165  1  0  0  0
 82166  1  0  0  0
 82 88  1  0  0  0
 83 84  1  0  0  0
 83 88  1  0  0  0
 83167  1  0  0  0
 83168  1  0  0  0
 84 91  1  0  0  0
 84169  1  0  0  0
 84170  1  0  0  0
 85 86  1  0  0  0
 85 91  1  0  0  0
 85171  1  0  0  0
 85172  1  0  0  0
 86173  1  0  0  0
 86174  1  0  0  0
 87 92  1  0  0  0
 87175  1  0  0  0
 88176  1  0  0  0
 89177  1  0  0  0
 90178  1  0  0  0
 90179  1  0  0  0
 91180  1  0  0  0
 91181  1  0  0  0
 92182  1  0  0  0
M  CHG  2  90   1  91   1
M  ISO  4   1 100  68 101  86 101  89 100
M  END
> <chiral flag>
0

> <version>
0

> <s_m_source_file>
/data/baiqing/PycharmProjects/Reinvent-master-3.2/result/LINK_invent/BTK/process_docking_weight1_custom_sum_contain_oxygen_bond_distance_aromatic_linkinvent_7_9_3/rearranged_h_0129.sdf

> <i_m_source_file_index>
27

> <r_mmod_Potential_Energy-OPLS-2005>
-308.608489990234

> <r_mmod_Stretch_Energy-OPLS-2005>
45.4839897155762

> <r_mmod_Bend_Energy-OPLS-2005>
116.345275878906

> <r_mmod_Torsional_Energy-OPLS-2005>
295.511138916016

> <r_mmod_Improper_Torsional_Energy-OPLS-2005>
10.2254629135132

> <r_mmod_Van_der_Waal_Energy-OPLS-2005>
166.773712158203

> <r_mmod_Electrostatic_Energy-OPLS-2005>
-80.6965560913086

> <r_mmod_Solvation_Energy-OPLS-2005>
-875.754028320312

> <b_mmod_Minimization_Converged-OPLS-2005>
0

> <r_mmod_RMS_Derivative-OPLS-2005>
1.5632688999176

$$$$
27
                    3D
 Structure written by MMmdl.
171180  0  0  1  0            999 V2000
  -30.7070  -14.5484   20.4686 C   0  0  0  0  0  0
  -30.4057  -12.3205   19.4599 C   0  0  0  0  0  0
  -29.4987  -12.4748   18.2212 C   0  0  0  0  0  0
  -28.0200  -12.3391   18.6353 C   0  0  0  0  0  0
  -27.6515  -13.2224   19.8590 C   0  0  2  0  0  0
  -28.6945  -13.0991   20.9947 C   0  0  0  0  0  0
  -25.2546  -13.8203   20.5709 C   0  0  0  0  0  0
  -24.1824  -13.0451   20.9236 C   0  0  0  0  0  0
  -24.6385  -11.6925   20.8765 C   0  0  0  0  0  0
  -23.9071  -10.4302   21.0430 C   0  0  0  0  0  0
  -24.3622   -9.4213   21.9209 C   0  0  0  0  0  0
  -23.6293   -8.2251   22.0763 C   0  0  0  0  0  0
  -22.4274   -8.0299   21.3553 C   0  0  0  0  0  0
  -21.9911   -9.0275   20.4655 C   0  0  0  0  0  0
  -22.7247  -10.2158   20.3072 C   0  0  0  0  0  0
  -21.6836   -6.0753   22.5293 C   0  0  0  0  0  0
  -21.4009   -6.5645   23.8228 C   0  0  0  0  0  0
  -21.3668   -5.6791   24.9184 C   0  0  0  0  0  0
  -21.6038   -4.3057   24.7233 C   0  0  0  0  0  0
  -21.8816   -3.8157   23.4342 C   0  0  0  0  0  0
  -21.9188   -4.6979   22.3401 C   0  0  0  0  0  0
  -22.7851  -13.5255   21.1883 C   0  0  0  0  0  0
  -22.1658   -4.2162   21.0979 F   0  0  0  0  0  0
  -21.5630   -3.4542   25.7741 F   0  0  0  0  0  0
  -30.0176  -13.3721   20.4201 N   0  0  0  0  0  0
  -26.2968  -12.9387   20.3315 N   0  0  0  0  0  0
  -25.9313  -11.6540   20.5772 N   0  0  0  0  0  0
  -22.0463  -12.8254   22.0417 N   0  0  0  0  0  0
  -25.4255  -15.1907   20.4102 N   0  0  0  0  0  0
  -31.8736  -14.6154   20.0877 O   0  0  0  0  0  0
  -21.6638   -6.8898   21.4253 O   0  0  0  0  0  0
  -22.3558  -14.5573   20.6733 O   0  0  0  0  0  0
  -24.6205  -31.8677   23.2125 C   0  0  0  0  0  0
  -25.9083  -32.4830   23.8417 C   0  0  1  0  0  0
  -27.1909  -27.3784   20.0975 C   0  0  0  0  0  0
  -25.5925  -33.8623   24.2365 N   0  0  0  0  0  0
  -23.4051  -30.5028   21.5538 C   0  0  2  0  0  0
  -24.8403  -28.9729   20.1098 C   0  0  0  0  0  0
  -22.7422  -29.4690   22.4946 C   0  0  0  0  0  0
  -18.0270  -28.1396   22.8470 C   0  0  0  0  0  0
  -24.1478  -36.7322   23.2640 C   0  0  0  0  0  0
  -25.9417  -30.8266   21.3623 C   0  0  0  0  0  0
  -26.0124  -29.4588   20.7042 C   0  0  0  0  0  0
  -27.1965  -28.6727   20.6879 C   0  0  0  0  0  0
  -26.0013  -26.9387   19.4757 C   0  0  0  0  0  0
  -24.8326  -27.7172   19.4888 C   0  0  0  0  0  0
  -23.6129  -29.8555   20.1621 C   0  0  0  0  0  0
  -25.4093  -36.3110   24.0347 C   0  0  1  0  0  0
  -20.5862  -28.3697   23.1296 C   0  0  2  0  0  0
  -20.6756  -26.9433   22.5409 C   0  0  0  0  0  0
  -19.5739  -26.6400   21.5201 C   0  0  0  0  0  0
  -18.1916  -26.7939   22.1612 C   0  0  0  0  0  0
  -19.1518  -28.8858   23.2885 C   0  0  0  0  0  0
  -18.9455  -30.1452   23.8921 C   0  0  0  0  0  0
  -17.6463  -30.6595   24.0571 C   0  0  0  0  0  0
  -25.9036  -34.9480   23.5153 C   0  0  0  0  0  0
  -16.5352  -29.9114   23.6309 C   0  0  0  0  0  0
  -16.7263  -28.6526   23.0333 C   0  0  0  0  0  0
  -26.4487  -31.6584   25.0734 C   0  0  0  0  0  0
  -25.3765  -31.3666   26.1488 C   0  0  0  0  0  0
  -27.0293  -30.3032   24.6060 C   0  0  0  0  0  0
  -27.6078  -32.4266   25.7498 C   0  0  0  0  0  0
  -27.5570  -37.1820   24.8467 C   0  0  0  0  0  0
  -21.4138  -29.3073   22.3703 N   0  0  0  0  0  0
  -26.4278  -37.3798   23.9423 N   0  0  0  0  0  0
  -24.6761  -31.0784   22.1031 N   0  0  0  0  0  0
  -23.4191  -28.8187   23.2948 O   0  0  0  0  0  0
  -28.3065  -26.5489   20.1528 O   0  0  0  0  0  0
  -26.5583  -34.8938   22.4706 O   0  0  0  0  0  0
  -23.5385  -32.1426   23.7532 O   0  0  0  0  0  0
  -28.0531  -22.8144   19.0695 C   0  0  0  0  0  0
  -28.6762  -22.9084   21.4764 C   0  0  0  0  0  0
  -28.2587  -24.3522   18.9354 C   0  0  0  0  0  0
  -28.9396  -24.4435   21.3464 C   0  0  0  0  0  0
  -29.3351  -18.1884   20.1497 C   0  0  0  0  0  0
  -31.8138  -18.8176   21.6134 C   0  0  0  0  0  0
  -30.4469  -17.0557   20.2350 C   0  0  2  0  0  0
  -28.9389  -22.1291   20.1531 C   0  0  1  0  0  0
  -29.5251  -19.5990   20.8568 C   0  0  1  0  0  0
  -28.0576  -25.1091   20.2687 C   0  0  2  0  0  0
  -31.8188  -17.4969   20.8286 C   0  0  1  0  0  0
  -31.0261  -19.9659   20.9567 C   0  0  1  0  0  0
  -32.9478  -18.3597   18.8197 C   0  0  0  0  0  0
  -30.0024  -15.6937   20.6913 N   0  0  0  0  0  0
  -28.6444  -20.6448   20.1994 N   0  3  0  0  0  0
  -31.2396  -21.0750   21.8115 O   0  0  0  0  0  0
  -32.8856  -17.4042   19.8759 O   0  0  0  0  0  0
  -31.4572  -12.3721   19.1728 H   0  0  0  0  0  0
  -30.2723  -11.3345   19.9088 H   0  0  0  0  0  0
  -29.7459  -11.7154   17.4775 H   0  0  0  0  0  0
  -29.6729  -13.4408   17.7412 H   0  0  0  0  0  0
  -27.8476  -11.2897   18.8797 H   0  0  0  0  0  0
  -27.3660  -12.5650   17.7925 H   0  0  0  0  0  0
  -27.6668  -14.2546   19.5085 H   0  0  0  0  0  0
  -28.6753  -12.1003   21.4284 H   0  0  0  0  0  0
  -28.4676  -13.7875   21.8092 H   0  0  0  0  0  0
  -25.2766   -9.5689   22.4798 H   0  0  0  0  0  0
  -24.0008   -7.4626   22.7466 H   0  0  0  0  0  0
  -21.0846   -8.8806   19.8947 H   0  0  0  0  0  0
  -22.3715  -10.9711   19.6191 H   0  0  0  0  0  0
  -21.2002   -7.6157   23.9741 H   0  0  0  0  0  0
  -21.1488   -6.0518   25.9089 H   0  0  0  0  0  0
  -22.0583   -2.7620   23.2838 H   0  0  0  0  0  0
  -22.4004  -11.9900   22.4835 H   0  0  0  0  0  0
  -21.1073  -13.1321   22.2586 H   0  0  0  0  0  0
  -24.6556  -15.8444   20.5096 H   0  0  0  0  0  0
  -26.2669  -15.6229   20.0499 H   0  0  0  0  0  0
  -26.7144  -32.5523   23.1172 H   0  0  0  0  0  0
  -25.0071  -33.9776   25.0496 H   0  0  0  0  0  0
  -22.6950  -31.3226   21.4258 H   0  0  0  0  0  0
  -23.3738  -35.9662   23.3309 H   0  0  0  0  0  0
  -24.3568  -36.8920   22.2051 H   0  0  0  0  0  0
  -23.7229  -37.6540   23.6632 H   0  0  0  0  0  0
  -26.0466  -31.5907   20.5917 H   0  0  0  0  0  0
  -26.8372  -30.8875   21.9707 H   0  0  0  0  0  0
  -28.1012  -29.0417   21.1520 H   0  0  0  0  0  0
  -25.9405  -25.9800   18.9846 H   0  0  0  0  0  0
  -23.9322  -27.3406   19.0231 H   0  0  0  0  0  0
  -23.7474  -30.6466   19.4211 H   0  0  0  0  0  0
  -22.7262  -29.3003   19.8463 H   0  0  0  0  0  0
  -25.1260  -36.1987   25.0838 H   0  0  0  0  0  0
  -20.9961  -28.3286   24.1414 H   0  0  0  0  0  0
  -20.5616  -26.2332   23.3610 H   0  0  0  0  0  0
  -21.6640  -26.7439   22.1240 H   0  0  0  0  0  0
  -19.6909  -25.6307   21.1245 H   0  0  0  0  0  0
  -19.6696  -27.3192   20.6716 H   0  0  0  0  0  0
  -17.4182  -26.6658   21.4023 H   0  0  0  0  0  0
  -18.0345  -26.0091   22.9020 H   0  0  0  0  0  0
  -19.7931  -30.7240   24.2339 H   0  0  0  0  0  0
  -17.5023  -31.6280   24.5174 H   0  0  0  0  0  0
  -15.5358  -30.3042   23.7622 H   0  0  0  0  0  0
  -15.8644  -28.0870   22.7050 H   0  0  0  0  0  0
  -24.5986  -30.6948   25.7845 H   0  0  0  0  0  0
  -24.8910  -32.2810   26.4913 H   0  0  0  0  0  0
  -25.8166  -30.8882   27.0249 H   0  0  0  0  0  0
  -26.2827  -29.6817   24.1116 H   0  0  0  0  0  0
  -27.4084  -29.7225   25.4473 H   0  0  0  0  0  0
  -27.8642  -30.4356   23.9182 H   0  0  0  0  0  0
  -27.2738  -33.3569   26.2095 H   0  0  0  0  0  0
  -28.3908  -32.6799   25.0341 H   0  0  0  0  0  0
  -28.0718  -31.8355   26.5400 H   0  0  0  0  0  0
  -28.2607  -38.0097   24.7496 H   0  0  0  0  0  0
  -28.1051  -36.2636   24.6309 H   0  0  0  0  0  0
  -27.2304  -37.1497   25.8875 H   0  0  0  0  0  0
  -20.9292  -29.8872   21.7008 H   0  0  0  0  0  0
  -26.0173  -38.2883   24.1428 H   0  0  0  0  0  0
  -27.0032  -22.6291   19.3042 H   0  0  0  0  0  0
  -28.2196  -22.3513   18.0977 H   0  0  0  0  0  0
  -27.6431  -22.7503   21.7945 H   0  0  0  0  0  0
  -29.2892  -22.5175   22.2830 H   0  0  0  0  0  0
  -27.5661  -24.7280   18.1826 H   0  0  0  0  0  0
  -29.2570  -24.5619   18.5495 H   0  0  0  0  0  0
  -29.9948  -24.6331   21.1326 H   0  0  0  0  0  0
  -28.7362  -24.9189   22.3062 H   0  0  0  0  0  0
  -28.3737  -17.7704   20.4438 H   0  0  0  0  0  0
  -29.2191  -18.3933   19.0840 H   0  0  0  0  0  0
  -32.8473  -19.1082   21.8035 H   0  0  0  0  0  0
  -31.3821  -18.6153   22.5965 H   0  0  0  0  0  0
  -30.6580  -16.8452   19.1841 H   0  0  0  0  0  0
  -29.9764  -22.2678   19.8439 H   0  0  0  0  0  0
  -29.1638  -19.4959   21.8811 H   0  0  0  0  0  0
  -27.0381  -24.9325   20.6152 H   0  0  0  0  0  0
  -32.1104  -16.7530   21.5693 H   0  0  0  0  0  0
  -31.4154  -20.2180   19.9737 H   0  0  0  0  0  0
  -32.0029  -18.4710   18.2880 H   0  0  0  0  0  0
  -33.6923  -18.0346   18.0956 H   0  0  0  0  0  0
  -33.2701  -19.3339   19.1881 H   0  0  0  0  0  0
  -29.0399  -15.5872   20.9749 H   0  0  0  0  0  0
  -28.6075  -20.3663   19.2328 H   0  0  0  0  0  0
  -27.7123  -20.5232   20.5630 H   0  0  0  0  0  0
  -32.1751  -21.2526   21.8394 H   0  0  0  0  0  0
  1 25  1  0  0  0
  1 30  2  0  0  0
  1 84  1  0  0  0
  2  3  1  0  0  0
  2 25  1  0  0  0
  2 88  1  0  0  0
  2 89  1  0  0  0
  3  4  1  0  0  0
  3 90  1  0  0  0
  3 91  1  0  0  0
  4  5  1  0  0  0
  4 92  1  0  0  0
  4 93  1  0  0  0
  5  6  1  0  0  0
  5 26  1  0  0  0
  5 94  1  0  0  0
  6 25  1  0  0  0
  6 95  1  0  0  0
  6 96  1  0  0  0
  7  8  2  0  0  0
  7 26  1  0  0  0
  7 29  1  0  0  0
  8  9  1  0  0  0
  8 22  1  0  0  0
  9 10  1  0  0  0
  9 27  2  0  0  0
 10 11  2  0  0  0
 10 15  1  0  0  0
 11 12  1  0  0  0
 11 97  1  0  0  0
 12 13  2  0  0  0
 12 98  1  0  0  0
 13 14  1  0  0  0
 13 31  1  0  0  0
 14 15  2  0  0  0
 14 99  1  0  0  0
 15100  1  0  0  0
 16 17  2  0  0  0
 16 21  1  0  0  0
 16 31  1  0  0  0
 17 18  1  0  0  0
 17101  1  0  0  0
 18 19  2  0  0  0
 18102  1  0  0  0
 19 20  1  0  0  0
 19 24  1  0  0  0
 20 21  2  0  0  0
 20103  1  0  0  0
 21 23  1  0  0  0
 22 28  1  0  0  0
 22 32  2  0  0  0
 26 27  1  0  0  0
 28104  1  0  0  0
 28105  1  0  0  0
 29106  1  0  0  0
 29107  1  0  0  0
 33 34  1  0  0  0
 33 66  1  0  0  0
 33 70  2  0  0  0
 34 36  1  0  0  0
 34 59  1  0  0  0
 34108  1  0  0  0
 35 44  2  0  0  0
 35 45  1  0  0  0
 35 68  1  0  0  0
 36 56  1  0  0  0
 36109  1  0  0  0
 37 39  1  0  0  0
 37 47  1  0  0  0
 37 66  1  0  0  0
 37110  1  0  0  0
 38 43  2  0  0  0
 38 46  1  0  0  0
 38 47  1  0  0  0
 39 64  1  0  0  0
 39 67  2  0  0  0
 40 52  1  0  0  0
 40 53  2  0  0  0
 40 58  1  0  0  0
 41111  1  0  0  0
 41112  1  0  0  0
 41113  1  0  0  0
 41 48  1  0  0  0
 42 43  1  0  0  0
 42 66  1  0  0  0
 42114  1  0  0  0
 42115  1  0  0  0
 43 44  1  0  0  0
 44116  1  0  0  0
 45 46  2  0  0  0
 45117  1  0  0  0
 46118  1  0  0  0
 47119  1  0  0  0
 47120  1  0  0  0
 48 56  1  0  0  0
 48 65  1  0  0  0
 48121  1  0  0  0
 49 50  1  0  0  0
 49 53  1  0  0  0
 49 64  1  0  0  0
 49122  1  0  0  0
 50 51  1  0  0  0
 50123  1  0  0  0
 50124  1  0  0  0
 51 52  1  0  0  0
 51125  1  0  0  0
 51126  1  0  0  0
 52127  1  0  0  0
 52128  1  0  0  0
 53 54  1  0  0  0
 54 55  2  0  0  0
 54129  1  0  0  0
 55 57  1  0  0  0
 55130  1  0  0  0
 56 69  2  0  0  0
 57 58  2  0  0  0
 57131  1  0  0  0
 58132  1  0  0  0
 59 60  1  0  0  0
 59 61  1  0  0  0
 59 62  1  0  0  0
 60133  1  0  0  0
 60134  1  0  0  0
 60135  1  0  0  0
 61136  1  0  0  0
 61137  1  0  0  0
 61138  1  0  0  0
 62139  1  0  0  0
 62140  1  0  0  0
 62141  1  0  0  0
 63 65  1  0  0  0
 63142  1  0  0  0
 63143  1  0  0  0
 63144  1  0  0  0
 64145  1  0  0  0
 65146  1  0  0  0
 68 80  1  0  0  0
 71 73  1  0  0  0
 71 78  1  0  0  0
 71147  1  0  0  0
 71148  1  0  0  0
 72 74  1  0  0  0
 72 78  1  0  0  0
 72149  1  0  0  0
 72150  1  0  0  0
 73 80  1  0  0  0
 73151  1  0  0  0
 73152  1  0  0  0
 74 80  1  0  0  0
 74153  1  0  0  0
 74154  1  0  0  0
 75 77  1  0  0  0
 75 79  1  0  0  0
 75155  1  0  0  0
 75156  1  0  0  0
 76 81  1  0  0  0
 76 82  1  0  0  0
 76157  1  0  0  0
 76158  1  0  0  0
 77 81  1  0  0  0
 77 84  1  0  0  0
 77159  1  0  0  0
 78 85  1  0  0  0
 78160  1  0  0  0
 79 82  1  0  0  0
 79 85  1  0  0  0
 79161  1  0  0  0
 80162  1  0  0  0
 81 87  1  0  0  0
 81163  1  0  0  0
 82 86  1  0  0  0
 82164  1  0  0  0
 83 87  1  0  0  0
 83165  1  0  0  0
 83166  1  0  0  0
 83167  1  0  0  0
 84168  1  0  0  0
 85169  1  0  0  0
 85170  1  0  0  0
 86171  1  0  0  0
M  CHG  1  85   1
M  ISO  4   1 100  68 101  80 101  84 100
M  END
> <chiral flag>
0

> <version>
0

> <s_m_source_file>
/data/baiqing/PycharmProjects/Reinvent-master-3.2/result/LINK_invent/BTK/process_docking_weight1_custom_sum_contain_oxygen_bond_distance_aromatic_linkinvent_7_9_3/rearranged_h_0129.sdf

> <i_m_source_file_index>
28

> <r_mmod_Potential_Energy-OPLS-2005>
-121.275825500488

> <r_mmod_Stretch_Energy-OPLS-2005>
64.4128494262695

> <r_mmod_Bend_Energy-OPLS-2005>
164.553237915039

> <r_mmod_Torsional_Energy-OPLS-2005>
285.550689697266

> <r_mmod_Improper_Torsional_Energy-OPLS-2005>
6.91610479354858

> <r_mmod_Van_der_Waal_Energy-OPLS-2005>
147.521530151367

> <r_mmod_Electrostatic_Energy-OPLS-2005>
-332.744689941406

> <r_mmod_Solvation_Energy-OPLS-2005>
-490.936004638672

> <b_mmod_Minimization_Converged-OPLS-2005>
0

> <r_mmod_RMS_Derivative-OPLS-2005>
3.97061538696289

$$$$
28
                    3D
 Structure written by MMmdl.
163171  0  0  1  0            999 V2000
  -30.6085  -14.7722   20.4639 C   0  0  0  0  0  0
  -30.4418  -12.4767   19.4713 C   0  0  0  0  0  0
  -29.5148  -12.4992   18.2352 C   0  0  0  0  0  0
  -28.0311  -12.3574   18.6329 C   0  0  0  0  0  0
  -27.6419  -13.2418   19.8487 C   0  0  2  0  0  0
  -28.6908  -13.1704   20.9791 C   0  0  0  0  0  0
  -25.2514  -13.8224   20.5714 C   0  0  0  0  0  0
  -24.1811  -13.0443   20.9227 C   0  0  0  0  0  0
  -24.6421  -11.6927   20.8737 C   0  0  0  0  0  0
  -23.9113  -10.4292   21.0403 C   0  0  0  0  0  0
  -24.3657   -9.4212   21.9193 C   0  0  0  0  0  0
  -23.6311   -8.2252   22.0756 C   0  0  0  0  0  0
  -22.4307   -8.0270   21.3529 C   0  0  0  0  0  0
  -21.9940   -9.0249   20.4635 C   0  0  0  0  0  0
  -22.7279  -10.2134   20.3049 C   0  0  0  0  0  0
  -21.6847   -6.0739   22.5282 C   0  0  0  0  0  0
  -21.4024   -6.5640   23.8220 C   0  0  0  0  0  0
  -21.3664   -5.6790   24.9174 C   0  0  0  0  0  0
  -21.6057   -4.3052   24.7218 C   0  0  0  0  0  0
  -21.8819   -3.8144   23.4338 C   0  0  0  0  0  0
  -21.9196   -4.6972   22.3406 C   0  0  0  0  0  0
  -22.7820  -13.5198   21.1838 C   0  0  0  0  0  0
  -22.1650   -4.2161   21.0980 F   0  0  0  0  0  0
  -21.5638   -3.4532   25.7728 F   0  0  0  0  0  0
  -29.9864  -13.5437   20.3953 N   0  0  0  0  0  0
  -26.2952  -12.9457   20.3288 N   0  0  0  0  0  0
  -25.9363  -11.6579   20.5733 N   0  0  0  0  0  0
  -22.0440  -12.8205   22.0406 N   0  0  0  0  0  0
  -25.4190  -15.1943   20.4106 N   0  0  0  0  0  0
  -31.8004  -14.8732   20.1577 O   0  0  0  0  0  0
  -21.6642   -6.8878   21.4241 O   0  0  0  0  0  0
  -22.3508  -14.5488   20.6653 O   0  0  0  0  0  0
  -24.6299  -31.8536   23.1959 C   0  0  0  0  0  0
  -25.9123  -32.4754   23.8318 C   0  0  1  0  0  0
  -27.2333  -27.2687   20.1244 C   0  0  0  0  0  0
  -25.5911  -33.8564   24.2241 N   0  0  0  0  0  0
  -23.4271  -30.4706   21.5393 C   0  0  2  0  0  0
  -24.8763  -28.9099   20.1098 C   0  0  0  0  0  0
  -22.7490  -29.4577   22.4923 C   0  0  0  0  0  0
  -18.0288  -28.1382   22.8484 C   0  0  0  0  0  0
  -24.1479  -36.7277   23.2640 C   0  0  0  0  0  0
  -25.9705  -30.7672   21.3762 C   0  0  0  0  0  0
  -26.0432  -29.3873   20.7205 C   0  0  0  0  0  0
  -27.2197  -28.5775   20.7158 C   0  0  0  0  0  0
  -26.0467  -26.8490   19.4904 C   0  0  0  0  0  0
  -24.8826  -27.6492   19.4850 C   0  0  0  0  0  0
  -23.6448  -29.7941   20.1585 C   0  0  0  0  0  0
  -25.4111  -36.3073   24.0329 C   0  0  1  0  0  0
  -20.5884  -28.3697   23.1276 C   0  0  2  0  0  0
  -20.6776  -26.9415   22.5416 C   0  0  0  0  0  0
  -19.5751  -26.6375   21.5219 C   0  0  0  0  0  0
  -18.1929  -26.7928   22.1621 C   0  0  0  0  0  0
  -19.1536  -28.8859   23.2876 C   0  0  0  0  0  0
  -18.9460  -30.1457   23.8898 C   0  0  0  0  0  0
  -17.6457  -30.6586   24.0565 C   0  0  0  0  0  0
  -25.9051  -34.9443   23.5092 C   0  0  0  0  0  0
  -16.5352  -29.9080   23.6330 C   0  0  0  0  0  0
  -16.7275  -28.6499   23.0358 C   0  0  0  0  0  0
  -26.4492  -31.6597   25.0722 C   0  0  0  0  0  0
  -25.3716  -31.3740   26.1443 C   0  0  0  0  0  0
  -27.0361  -30.3018   24.6231 C   0  0  0  0  0  0
  -27.6032  -32.4361   25.7502 C   0  0  0  0  0  0
  -27.5583  -37.1789   24.8462 C   0  0  0  0  0  0
  -21.4203  -29.3031   22.3671 N   0  0  0  0  0  0
  -26.4281  -37.3777   23.9416 N   0  0  0  0  0  0
  -24.6945  -31.0489   22.0939 N   0  0  0  0  0  0
  -23.4193  -28.8141   23.3039 O   0  0  0  0  0  0
  -28.3648  -26.4297   20.1938 O   0  0  0  0  0  0
  -26.5630  -34.8917   22.4667 O   0  0  0  0  0  0
  -23.5446  -32.1360   23.7247 O   0  0  0  0  0  0
  -28.2489  -23.8301   20.5950 C   0  0  0  0  0  0
  -28.4475  -25.0498   19.8265 C   0  0  0  0  0  0
  -28.6010  -22.6737   19.8820 C   0  0  0  0  0  0
  -28.9665  -24.5933   18.6448 C   0  0  0  0  0  0
  -29.4397  -25.4372   17.4980 C   0  0  0  0  0  0
  -28.8712  -21.2037   17.0220 C   0  0  0  0  0  0
  -31.1302  -22.1448   17.7864 C   0  0  0  0  0  0
  -28.3924  -21.1250   20.2252 C   0  0  0  0  0  0
  -30.2414  -17.4041   20.6055 C   0  0  0  0  0  0
  -29.1133  -18.5732   20.4224 C   0  0  0  0  0  0
  -29.6482  -22.4357   17.5147 C   0  0  0  0  0  0
  -29.0589  -23.1805   18.6461 N   0  0  0  0  0  0
  -29.8402  -15.9149   20.6652 N   0  0  0  0  0  0
  -29.5093  -20.0755   20.3924 N   0  3  0  0  0  0
  -31.4798  -12.6147   19.1624 H   0  0  0  0  0  0
  -30.4059  -11.5034   19.9617 H   0  0  0  0  0  0
  -29.7914  -11.6986   17.5487 H   0  0  0  0  0  0
  -29.6539  -13.4292   17.6820 H   0  0  0  0  0  0
  -27.8424  -11.3067   18.8532 H   0  0  0  0  0  0
  -27.3949  -12.6015   17.7809 H   0  0  0  0  0  0
  -27.6333  -14.2680   19.4794 H   0  0  0  0  0  0
  -28.7389  -12.1628   21.3909 H   0  0  0  0  0  0
  -28.4275  -13.8278   21.8091 H   0  0  0  0  0  0
  -25.2812   -9.5673   22.4761 H   0  0  0  0  0  0
  -24.0020   -7.4644   22.7459 H   0  0  0  0  0  0
  -21.0881   -8.8753   19.8920 H   0  0  0  0  0  0
  -22.3739  -10.9661   19.6134 H   0  0  0  0  0  0
  -21.2012   -7.6148   23.9726 H   0  0  0  0  0  0
  -21.1498   -6.0512   25.9085 H   0  0  0  0  0  0
  -22.0602   -2.7609   23.2820 H   0  0  0  0  0  0
  -22.4056  -11.9917   22.4877 H   0  0  0  0  0  0
  -21.0998  -13.1167   22.2462 H   0  0  0  0  0  0
  -24.6563  -15.8466   20.5555 H   0  0  0  0  0  0
  -26.2496  -15.6308   20.0312 H   0  0  0  0  0  0
  -26.7200  -32.5397   23.1069 H   0  0  0  0  0  0
  -25.0089  -33.9705   25.0408 H   0  0  0  0  0  0
  -22.7252  -31.2929   21.3888 H   0  0  0  0  0  0
  -23.3763  -35.9583   23.3275 H   0  0  0  0  0  0
  -24.3573  -36.8933   22.2057 H   0  0  0  0  0  0
  -23.7199  -37.6453   23.6693 H   0  0  0  0  0  0
  -26.1099  -31.5268   20.6044 H   0  0  0  0  0  0
  -26.8486  -30.8150   22.0107 H   0  0  0  0  0  0
  -28.1155  -28.9390   21.2017 H   0  0  0  0  0  0
  -26.0100  -25.8771   19.0212 H   0  0  0  0  0  0
  -23.9898  -27.2773   19.0011 H   0  0  0  0  0  0
  -23.7643  -30.5647   19.3966 H   0  0  0  0  0  0
  -22.7658  -29.2210   19.8591 H   0  0  0  0  0  0
  -25.1287  -36.1917   25.0823 H   0  0  0  0  0  0
  -20.9979  -28.3280   24.1394 H   0  0  0  0  0  0
  -20.5665  -26.2318   23.3625 H   0  0  0  0  0  0
  -21.6649  -26.7435   22.1215 H   0  0  0  0  0  0
  -19.6916  -25.6281   21.1261 H   0  0  0  0  0  0
  -19.6687  -27.3175   20.6740 H   0  0  0  0  0  0
  -17.4202  -26.6692   21.4016 H   0  0  0  0  0  0
  -18.0318  -26.0069   22.9012 H   0  0  0  0  0  0
  -19.7935  -30.7277   24.2280 H   0  0  0  0  0  0
  -17.5009  -31.6267   24.5155 H   0  0  0  0  0  0
  -15.5352  -30.2982   23.7649 H   0  0  0  0  0  0
  -15.8682  -28.0811   22.7083 H   0  0  0  0  0  0
  -24.5872  -30.7126   25.7753 H   0  0  0  0  0  0
  -24.8935  -32.2908   26.4897 H   0  0  0  0  0  0
  -25.8013  -30.8877   27.0208 H   0  0  0  0  0  0
  -26.2961  -29.6750   24.1249 H   0  0  0  0  0  0
  -27.4032  -29.7296   25.4759 H   0  0  0  0  0  0
  -27.8830  -30.4294   23.9489 H   0  0  0  0  0  0
  -27.2630  -33.3675   26.2040 H   0  0  0  0  0  0
  -28.3856  -32.6912   25.0344 H   0  0  0  0  0  0
  -28.0698  -31.8532   26.5451 H   0  0  0  0  0  0
  -28.2568  -38.0115   24.7561 H   0  0  0  0  0  0
  -28.1108  -36.2654   24.6222 H   0  0  0  0  0  0
  -27.2317  -37.1360   25.8865 H   0  0  0  0  0  0
  -20.9409  -29.8744   21.6851 H   0  0  0  0  0  0
  -26.0159  -38.2843   24.1439 H   0  0  0  0  0  0
  -27.8643  -23.8041   21.6065 H   0  0  0  0  0  0
  -29.4059  -26.4971   17.7506 H   0  0  0  0  0  0
  -28.8171  -25.2960   16.6138 H   0  0  0  0  0  0
  -30.4718  -25.2033   17.2361 H   0  0  0  0  0  0
  -28.9573  -20.3412   17.6762 H   0  0  0  0  0  0
  -29.2763  -20.8802   16.0612 H   0  0  0  0  0  0
  -27.8159  -21.4225   16.8583 H   0  0  0  0  0  0
  -31.5976  -21.6623   16.9290 H   0  0  0  0  0  0
  -31.2716  -21.5023   18.6533 H   0  0  0  0  0  0
  -31.6730  -23.0744   17.9683 H   0  0  0  0  0  0
  -27.6934  -20.7287   19.4882 H   0  0  0  0  0  0
  -27.8253  -21.0800   21.1551 H   0  0  0  0  0  0
  -30.7995  -17.6105   21.5204 H   0  0  0  0  0  0
  -30.9687  -17.5209   19.8023 H   0  0  0  0  0  0
  -28.3727  -18.4503   21.2147 H   0  0  0  0  0  0
  -28.5772  -18.3741   19.4935 H   0  0  0  0  0  0
  -29.6281  -23.0925   16.6473 H   0  0  0  0  0  0
  -28.8740  -15.7342   20.8830 H   0  0  0  0  0  0
  -29.9717  -20.2925   21.2622 H   0  0  0  0  0  0
  -30.1843  -20.2213   19.6633 H   0  0  0  0  0  0
  1 25  1  0  0  0
  1 30  2  0  0  0
  1 83  1  0  0  0
  2  3  1  0  0  0
  2 25  1  0  0  0
  2 85  1  0  0  0
  2 86  1  0  0  0
  3  4  1  0  0  0
  3 87  1  0  0  0
  3 88  1  0  0  0
  4  5  1  0  0  0
  4 89  1  0  0  0
  4 90  1  0  0  0
  5  6  1  0  0  0
  5 26  1  0  0  0
  5 91  1  0  0  0
  6 25  1  0  0  0
  6 92  1  0  0  0
  6 93  1  0  0  0
  7  8  2  0  0  0
  7 26  1  0  0  0
  7 29  1  0  0  0
  8  9  1  0  0  0
  8 22  1  0  0  0
  9 10  1  0  0  0
  9 27  2  0  0  0
 10 11  2  0  0  0
 10 15  1  0  0  0
 11 12  1  0  0  0
 11 94  1  0  0  0
 12 13  2  0  0  0
 12 95  1  0  0  0
 13 14  1  0  0  0
 13 31  1  0  0  0
 14 15  2  0  0  0
 14 96  1  0  0  0
 15 97  1  0  0  0
 16 17  2  0  0  0
 16 21  1  0  0  0
 16 31  1  0  0  0
 17 18  1  0  0  0
 17 98  1  0  0  0
 18 19  2  0  0  0
 18 99  1  0  0  0
 19 20  1  0  0  0
 19 24  1  0  0  0
 20 21  2  0  0  0
 20100  1  0  0  0
 21 23  1  0  0  0
 22 28  1  0  0  0
 22 32  2  0  0  0
 26 27  1  0  0  0
 28101  1  0  0  0
 28102  1  0  0  0
 29103  1  0  0  0
 29104  1  0  0  0
 33 34  1  0  0  0
 33 66  1  0  0  0
 33 70  2  0  0  0
 34 36  1  0  0  0
 34 59  1  0  0  0
 34105  1  0  0  0
 35 44  2  0  0  0
 35 45  1  0  0  0
 35 68  1  0  0  0
 36 56  1  0  0  0
 36106  1  0  0  0
 37 39  1  0  0  0
 37 47  1  0  0  0
 37 66  1  0  0  0
 37107  1  0  0  0
 38 43  2  0  0  0
 38 46  1  0  0  0
 38 47  1  0  0  0
 39 64  1  0  0  0
 39 67  2  0  0  0
 40 52  1  0  0  0
 40 53  2  0  0  0
 40 58  1  0  0  0
 41108  1  0  0  0
 41109  1  0  0  0
 41110  1  0  0  0
 41 48  1  0  0  0
 42 43  1  0  0  0
 42 66  1  0  0  0
 42111  1  0  0  0
 42112  1  0  0  0
 43 44  1  0  0  0
 44113  1  0  0  0
 45 46  2  0  0  0
 45114  1  0  0  0
 46115  1  0  0  0
 47116  1  0  0  0
 47117  1  0  0  0
 48 56  1  0  0  0
 48 65  1  0  0  0
 48118  1  0  0  0
 49 50  1  0  0  0
 49 53  1  0  0  0
 49 64  1  0  0  0
 49119  1  0  0  0
 50 51  1  0  0  0
 50120  1  0  0  0
 50121  1  0  0  0
 51 52  1  0  0  0
 51122  1  0  0  0
 51123  1  0  0  0
 52124  1  0  0  0
 52125  1  0  0  0
 53 54  1  0  0  0
 54 55  2  0  0  0
 54126  1  0  0  0
 55 57  1  0  0  0
 55127  1  0  0  0
 56 69  2  0  0  0
 57 58  2  0  0  0
 57128  1  0  0  0
 58129  1  0  0  0
 59 60  1  0  0  0
 59 61  1  0  0  0
 59 62  1  0  0  0
 60130  1  0  0  0
 60131  1  0  0  0
 60132  1  0  0  0
 61133  1  0  0  0
 61134  1  0  0  0
 61135  1  0  0  0
 62136  1  0  0  0
 62137  1  0  0  0
 62138  1  0  0  0
 63 65  1  0  0  0
 63139  1  0  0  0
 63140  1  0  0  0
 63141  1  0  0  0
 64142  1  0  0  0
 65143  1  0  0  0
 68 72  1  0  0  0
 71 72  1  0  0  0
 71 73  2  0  0  0
 71144  1  0  0  0
 72 74  2  0  0  0
 73 78  1  0  0  0
 73 82  1  0  0  0
 74 75  1  0  0  0
 74 82  1  0  0  0
 75145  1  0  0  0
 75146  1  0  0  0
 75147  1  0  0  0
 76148  1  0  0  0
 76149  1  0  0  0
 76150  1  0  0  0
 76 81  1  0  0  0
 77 81  1  0  0  0
 77151  1  0  0  0
 77152  1  0  0  0
 77153  1  0  0  0
 78 84  1  0  0  0
 78154  1  0  0  0
 78155  1  0  0  0
 79 80  1  0  0  0
 79 83  1  0  0  0
 79156  1  0  0  0
 79157  1  0  0  0
 80 84  1  0  0  0
 80158  1  0  0  0
 80159  1  0  0  0
 81 82  1  0  0  0
 81160  1  0  0  0
 83161  1  0  0  0
 84162  1  0  0  0
 84163  1  0  0  0
M  CHG  1  84   1
M  ISO  4   1 100  68 101  72 101  83 100
M  END
> <chiral flag>
0

> <version>
0

> <s_m_source_file>
/data/baiqing/PycharmProjects/Reinvent-master-3.2/result/LINK_invent/BTK/process_docking_weight1_custom_sum_contain_oxygen_bond_distance_aromatic_linkinvent_7_9_3/rearranged_h_0129.sdf

> <i_m_source_file_index>
29

> <r_mmod_Potential_Energy-OPLS-2005>
-104.824333190918

> <r_mmod_Stretch_Energy-OPLS-2005>
126.610145568848

> <r_mmod_Bend_Energy-OPLS-2005>
187.381546020508

> <r_mmod_Torsional_Energy-OPLS-2005>
230.986511230469

> <r_mmod_Improper_Torsional_Energy-OPLS-2005>
6.086745262146

> <r_mmod_Van_der_Waal_Energy-OPLS-2005>
109.690002441406

> <r_mmod_Electrostatic_Energy-OPLS-2005>
-362.289855957031

> <r_mmod_Solvation_Energy-OPLS-2005>
-490.157073974609

> <b_mmod_Minimization_Converged-OPLS-2005>
0

> <r_mmod_RMS_Derivative-OPLS-2005>
4.1257905960083

$$$$
29
                    3D
 Structure written by MMmdl.
169177  0  0  1  0            999 V2000
  -30.5756  -14.8714   20.4479 C   0  0  0  0  0  0
  -30.4368  -12.5448   19.4859 C   0  0  0  0  0  0
  -29.5191  -12.5216   18.2441 C   0  0  0  0  0  0
  -28.0495  -12.3198   18.6605 C   0  0  0  0  0  0
  -27.6312  -13.2400   19.8377 C   0  0  2  0  0  0
  -28.6739  -13.2441   20.9740 C   0  0  0  0  0  0
  -25.2489  -13.8141   20.5705 C   0  0  0  0  0  0
  -24.1776  -13.0411   20.9220 C   0  0  0  0  0  0
  -24.6377  -11.6897   20.8747 C   0  0  0  0  0  0
  -23.9053  -10.4284   21.0410 C   0  0  0  0  0  0
  -24.3610   -9.4201   21.9183 C   0  0  0  0  0  0
  -23.6285   -8.2236   22.0752 C   0  0  0  0  0  0
  -22.4263   -8.0274   21.3545 C   0  0  0  0  0  0
  -21.9895   -9.0249   20.4648 C   0  0  0  0  0  0
  -22.7230  -10.2123   20.3060 C   0  0  0  0  0  0
  -21.6846   -6.0733   22.5283 C   0  0  0  0  0  0
  -21.4019   -6.5632   23.8220 C   0  0  0  0  0  0
  -21.3657   -5.6783   24.9178 C   0  0  0  0  0  0
  -21.6039   -4.3045   24.7224 C   0  0  0  0  0  0
  -21.8820   -3.8143   23.4344 C   0  0  0  0  0  0
  -21.9195   -4.6965   22.3407 C   0  0  0  0  0  0
  -22.7809  -13.5219   21.1875 C   0  0  0  0  0  0
  -22.1666   -4.2153   21.0979 F   0  0  0  0  0  0
  -21.5624   -3.4524   25.7742 F   0  0  0  0  0  0
  -29.9539  -13.6348   20.3741 N   0  0  0  0  0  0
  -26.2894  -12.9378   20.3226 N   0  0  0  0  0  0
  -25.9305  -11.6519   20.5709 N   0  0  0  0  0  0
  -22.0411  -12.8255   22.0425 N   0  0  0  0  0  0
  -25.4178  -15.1831   20.4145 N   0  0  0  0  0  0
  -31.7861  -14.9199   20.2038 O   0  0  0  0  0  0
  -21.6629   -6.8872   21.4245 O   0  0  0  0  0  0
  -22.3519  -14.5523   20.6706 O   0  0  0  0  0  0
  -24.6390  -31.8496   23.1909 C   0  0  0  0  0  0
  -25.9177  -32.4721   23.8293 C   0  0  1  0  0  0
  -27.2221  -27.1878   20.1460 C   0  0  0  0  0  0
  -25.5940  -33.8529   24.2206 N   0  0  0  0  0  0
  -23.4386  -30.4690   21.5375 C   0  0  2  0  0  0
  -24.8868  -28.9019   20.1133 C   0  0  0  0  0  0
  -22.7551  -29.4563   22.4890 C   0  0  0  0  0  0
  -18.0305  -28.1390   22.8477 C   0  0  0  0  0  0
  -24.1489  -36.7265   23.2639 C   0  0  0  0  0  0
  -25.9910  -30.7390   21.3819 C   0  0  0  0  0  0
  -26.0628  -29.3543   20.7255 C   0  0  0  0  0  0
  -27.2318  -28.5140   20.7222 C   0  0  0  0  0  0
  -26.0192  -26.8206   19.5027 C   0  0  0  0  0  0
  -24.8755  -27.6461   19.4876 C   0  0  0  0  0  0
  -23.6620  -29.7994   20.1559 C   0  0  0  0  0  0
  -25.4120  -36.3042   24.0310 C   0  0  1  0  0  0
  -20.5912  -28.3706   23.1259 C   0  0  2  0  0  0
  -20.6790  -26.9417   22.5412 C   0  0  0  0  0  0
  -19.5762  -26.6375   21.5218 C   0  0  0  0  0  0
  -18.1939  -26.7927   22.1625 C   0  0  0  0  0  0
  -19.1559  -28.8870   23.2852 C   0  0  0  0  0  0
  -18.9475  -30.1470   23.8868 C   0  0  0  0  0  0
  -17.6470  -30.6585   24.0563 C   0  0  0  0  0  0
  -25.9071  -34.9418   23.5063 C   0  0  0  0  0  0
  -16.5362  -29.9078   23.6335 C   0  0  0  0  0  0
  -16.7289  -28.6501   23.0347 C   0  0  0  0  0  0
  -26.4516  -31.6572   25.0717 C   0  0  0  0  0  0
  -25.3713  -31.3760   26.1421 C   0  0  0  0  0  0
  -27.0369  -30.2970   24.6252 C   0  0  0  0  0  0
  -27.6048  -32.4338   25.7502 C   0  0  0  0  0  0
  -27.5576  -37.1783   24.8461 C   0  0  0  0  0  0
  -21.4251  -29.3038   22.3642 N   0  0  0  0  0  0
  -26.4284  -37.3755   23.9411 N   0  0  0  0  0  0
  -24.7092  -31.0396   22.0921 N   0  0  0  0  0  0
  -23.4221  -28.8118   23.3024 O   0  0  0  0  0  0
  -28.3135  -26.2628   20.1803 O   0  0  0  0  0  0
  -26.5660  -34.8907   22.4643 O   0  0  0  0  0  0
  -23.5521  -32.1360   23.7151 O   0  0  0  0  0  0
  -30.6830  -21.4181   20.2849 C   0  0  0  0  0  0
  -30.8931  -20.0036   20.4185 C   0  0  0  0  0  0
  -28.3572  -21.0860   20.3682 C   0  0  0  0  0  0
  -29.4076  -22.0555   20.2471 C   0  0  0  0  0  0
  -29.8671  -19.0180   20.5543 C   0  0  0  0  0  0
  -28.5556  -19.6392   20.5315 C   0  0  0  0  0  0
  -27.3886  -19.2884   23.2783 C   0  0  0  0  0  0
  -29.8435  -23.9666   18.5822 C   0  0  0  0  0  0
  -30.3709  -17.4913   20.9153 C   0  0  0  0  0  0
  -26.5252  -19.2478   22.0062 C   0  0  0  0  0  0
  -26.4414  -18.8027   19.4323 C   0  0  0  0  0  0
  -24.9230  -18.6008   19.5978 C   0  0  0  0  0  0
  -28.1109  -24.7383   20.2923 C   0  0  0  0  0  0
  -29.3466  -23.6810   20.0097 C   0  0  1  0  0  0
  -27.2929  -18.8014   20.7341 C   0  0  1  0  0  0
  -29.8337  -16.0616   20.6081 N   0  0  0  0  0  0
  -24.3065  -18.4872   18.3276 O   0  0  0  0  0  0
  -31.4742  -12.6929   19.1820 H   0  0  0  0  0  0
  -30.4134  -11.5865   20.0071 H   0  0  0  0  0  0
  -29.8279  -11.7345   17.5558 H   0  0  0  0  0  0
  -29.6223  -13.4621   17.6995 H   0  0  0  0  0  0
  -27.9294  -11.2746   18.9494 H   0  0  0  0  0  0
  -27.3923  -12.4784   17.8056 H   0  0  0  0  0  0
  -27.6028  -14.2485   19.4246 H   0  0  0  0  0  0
  -28.7460  -12.2639   21.4482 H   0  0  0  0  0  0
  -28.3843  -13.9469   21.7575 H   0  0  0  0  0  0
  -25.2751   -9.5677   22.4761 H   0  0  0  0  0  0
  -23.9998   -7.4615   22.7458 H   0  0  0  0  0  0
  -21.0832   -8.8775   19.8939 H   0  0  0  0  0  0
  -22.3697  -10.9667   19.6175 H   0  0  0  0  0  0
  -21.2017   -7.6147   23.9733 H   0  0  0  0  0  0
  -21.1469   -6.0504   25.9081 H   0  0  0  0  0  0
  -22.0599   -2.7611   23.2841 H   0  0  0  0  0  0
  -22.3996  -11.9938   22.4880 H   0  0  0  0  0  0
  -21.1019  -13.1296   22.2559 H   0  0  0  0  0  0
  -24.6212  -15.8062   20.4576 H   0  0  0  0  0  0
  -26.2357  -15.6064   19.9990 H   0  0  0  0  0  0
  -26.7245  -32.5344   23.1035 H   0  0  0  0  0  0
  -25.0072  -33.9664   25.0339 H   0  0  0  0  0  0
  -22.7373  -31.2922   21.3865 H   0  0  0  0  0  0
  -23.3755  -35.9593   23.3289 H   0  0  0  0  0  0
  -24.3581  -36.8918   22.2058 H   0  0  0  0  0  0
  -23.7239  -37.6450   23.6695 H   0  0  0  0  0  0
  -26.1391  -31.4976   20.6110 H   0  0  0  0  0  0
  -26.8643  -30.7899   22.0207 H   0  0  0  0  0  0
  -28.1324  -28.8606   21.2096 H   0  0  0  0  0  0
  -25.9335  -25.8700   19.0006 H   0  0  0  0  0  0
  -23.9794  -27.2973   18.9935 H   0  0  0  0  0  0
  -23.7952  -30.5754   19.4015 H   0  0  0  0  0  0
  -22.7780  -29.2401   19.8447 H   0  0  0  0  0  0
  -25.1303  -36.1876   25.0802 H   0  0  0  0  0  0
  -20.9990  -28.3289   24.1385 H   0  0  0  0  0  0
  -20.5695  -26.2318   23.3625 H   0  0  0  0  0  0
  -21.6656  -26.7436   22.1206 H   0  0  0  0  0  0
  -19.6924  -25.6280   21.1257 H   0  0  0  0  0  0
  -19.6693  -27.3183   20.6745 H   0  0  0  0  0  0
  -17.4212  -26.6682   21.4020 H   0  0  0  0  0  0
  -18.0326  -26.0075   22.9025 H   0  0  0  0  0  0
  -19.7952  -30.7299   24.2207 H   0  0  0  0  0  0
  -17.5025  -31.6260   24.5175 H   0  0  0  0  0  0
  -15.5360  -30.2974   23.7661 H   0  0  0  0  0  0
  -15.8693  -28.0815   22.7060 H   0  0  0  0  0  0
  -24.5864  -30.7139   25.7747 H   0  0  0  0  0  0
  -24.8935  -32.2950   26.4830 H   0  0  0  0  0  0
  -25.8001  -30.8938   27.0213 H   0  0  0  0  0  0
  -26.2968  -29.6708   24.1250 H   0  0  0  0  0  0
  -27.3998  -29.7252   25.4804 H   0  0  0  0  0  0
  -27.8876  -30.4225   23.9547 H   0  0  0  0  0  0
  -27.2624  -33.3645   26.2043 H   0  0  0  0  0  0
  -28.3873  -32.6893   25.0342 H   0  0  0  0  0  0
  -28.0697  -31.8491   26.5450 H   0  0  0  0  0  0
  -28.2574  -38.0097   24.7517 H   0  0  0  0  0  0
  -28.1083  -36.2623   24.6267 H   0  0  0  0  0  0
  -27.2298  -37.1411   25.8865 H   0  0  0  0  0  0
  -20.9456  -29.8765   21.6835 H   0  0  0  0  0  0
  -26.0147  -38.2820   24.1425 H   0  0  0  0  0  0
  -31.5618  -22.0421   20.2042 H   0  0  0  0  0  0
  -31.9217  -19.6729   20.4559 H   0  0  0  0  0  0
  -27.3444  -21.4649   20.3483 H   0  0  0  0  0  0
  -26.7834  -19.5378   24.1504 H   0  0  0  0  0  0
  -28.1798  -20.0364   23.2112 H   0  0  0  0  0  0
  -27.8555  -18.3209   23.4658 H   0  0  0  0  0  0
  -30.8057  -23.4964   18.3825 H   0  0  0  0  0  0
  -29.9722  -25.0374   18.4168 H   0  0  0  0  0  0
  -29.1374  -23.5967   17.8383 H   0  0  0  0  0  0
  -30.4454  -17.5080   22.0041 H   0  0  0  0  0  0
  -31.4109  -17.4653   20.5850 H   0  0  0  0  0  0
  -26.0845  -20.2330   21.8543 H   0  0  0  0  0  0
  -25.6903  -18.5710   22.1887 H   0  0  0  0  0  0
  -26.5762  -19.7459   18.9025 H   0  0  0  0  0  0
  -26.8477  -18.0400   18.7656 H   0  0  0  0  0  0
  -24.4750  -19.4429   20.1278 H   0  0  0  0  0  0
  -24.7039  -17.7106   20.1837 H   0  0  0  0  0  0
  -27.7524  -24.5580   21.3059 H   0  0  0  0  0  0
  -27.2966  -24.4261   19.6438 H   0  0  0  0  0  0
  -30.1318  -24.0407   20.6760 H   0  0  0  0  0  0
  -27.5919  -17.7685   20.9110 H   0  0  0  0  0  0
  -28.8365  -15.9396   20.6983 H   0  0  0  0  0  0
  -24.3722  -19.3321   17.8897 H   0  0  0  0  0  0
  1 25  1  0  0  0
  1 30  2  0  0  0
  1 86  1  0  0  0
  2  3  1  0  0  0
  2 25  1  0  0  0
  2 88  1  0  0  0
  2 89  1  0  0  0
  3  4  1  0  0  0
  3 90  1  0  0  0
  3 91  1  0  0  0
  4  5  1  0  0  0
  4 92  1  0  0  0
  4 93  1  0  0  0
  5  6  1  0  0  0
  5 26  1  0  0  0
  5 94  1  0  0  0
  6 25  1  0  0  0
  6 95  1  0  0  0
  6 96  1  0  0  0
  7  8  2  0  0  0
  7 26  1  0  0  0
  7 29  1  0  0  0
  8  9  1  0  0  0
  8 22  1  0  0  0
  9 10  1  0  0  0
  9 27  2  0  0  0
 10 11  2  0  0  0
 10 15  1  0  0  0
 11 12  1  0  0  0
 11 97  1  0  0  0
 12 13  2  0  0  0
 12 98  1  0  0  0
 13 14  1  0  0  0
 13 31  1  0  0  0
 14 15  2  0  0  0
 14 99  1  0  0  0
 15100  1  0  0  0
 16 17  2  0  0  0
 16 21  1  0  0  0
 16 31  1  0  0  0
 17 18  1  0  0  0
 17101  1  0  0  0
 18 19  2  0  0  0
 18102  1  0  0  0
 19 20  1  0  0  0
 19 24  1  0  0  0
 20 21  2  0  0  0
 20103  1  0  0  0
 21 23  1  0  0  0
 22 28  1  0  0  0
 22 32  2  0  0  0
 26 27  1  0  0  0
 28104  1  0  0  0
 28105  1  0  0  0
 29106  1  0  0  0
 29107  1  0  0  0
 33 34  1  0  0  0
 33 66  1  0  0  0
 33 70  2  0  0  0
 34 36  1  0  0  0
 34 59  1  0  0  0
 34108  1  0  0  0
 35 44  2  0  0  0
 35 45  1  0  0  0
 35 68  1  0  0  0
 36 56  1  0  0  0
 36109  1  0  0  0
 37 39  1  0  0  0
 37 47  1  0  0  0
 37 66  1  0  0  0
 37110  1  0  0  0
 38 43  2  0  0  0
 38 46  1  0  0  0
 38 47  1  0  0  0
 39 64  1  0  0  0
 39 67  2  0  0  0
 40 52  1  0  0  0
 40 53  2  0  0  0
 40 58  1  0  0  0
 41111  1  0  0  0
 41112  1  0  0  0
 41113  1  0  0  0
 41 48  1  0  0  0
 42 43  1  0  0  0
 42 66  1  0  0  0
 42114  1  0  0  0
 42115  1  0  0  0
 43 44  1  0  0  0
 44116  1  0  0  0
 45 46  2  0  0  0
 45117  1  0  0  0
 46118  1  0  0  0
 47119  1  0  0  0
 47120  1  0  0  0
 48 56  1  0  0  0
 48 65  1  0  0  0
 48121  1  0  0  0
 49 50  1  0  0  0
 49 53  1  0  0  0
 49 64  1  0  0  0
 49122  1  0  0  0
 50 51  1  0  0  0
 50123  1  0  0  0
 50124  1  0  0  0
 51 52  1  0  0  0
 51125  1  0  0  0
 51126  1  0  0  0
 52127  1  0  0  0
 52128  1  0  0  0
 53 54  1  0  0  0
 54 55  2  0  0  0
 54129  1  0  0  0
 55 57  1  0  0  0
 55130  1  0  0  0
 56 69  2  0  0  0
 57 58  2  0  0  0
 57131  1  0  0  0
 58132  1  0  0  0
 59 60  1  0  0  0
 59 61  1  0  0  0
 59 62  1  0  0  0
 60133  1  0  0  0
 60134  1  0  0  0
 60135  1  0  0  0
 61136  1  0  0  0
 61137  1  0  0  0
 61138  1  0  0  0
 62139  1  0  0  0
 62140  1  0  0  0
 62141  1  0  0  0
 63 65  1  0  0  0
 63142  1  0  0  0
 63143  1  0  0  0
 63144  1  0  0  0
 64145  1  0  0  0
 65146  1  0  0  0
 68 83  1  0  0  0
 71 72  2  0  0  0
 71 74  1  0  0  0
 71147  1  0  0  0
 72 75  1  0  0  0
 72148  1  0  0  0
 73 74  2  0  0  0
 73 76  1  0  0  0
 73149  1  0  0  0
 74 84  1  0  0  0
 75 76  2  0  0  0
 75 79  1  0  0  0
 76 85  1  0  0  0
 77 80  1  0  0  0
 77150  1  0  0  0
 77151  1  0  0  0
 77152  1  0  0  0
 78153  1  0  0  0
 78154  1  0  0  0
 78155  1  0  0  0
 78 84  1  0  0  0
 79 86  1  0  0  0
 79156  1  0  0  0
 79157  1  0  0  0
 80158  1  0  0  0
 80159  1  0  0  0
 80 85  1  0  0  0
 81 82  1  0  0  0
 81 85  1  0  0  0
 81160  1  0  0  0
 81161  1  0  0  0
 82 87  1  0  0  0
 82162  1  0  0  0
 82163  1  0  0  0
 83 84  1  0  0  0
 83164  1  0  0  0
 83165  1  0  0  0
 84166  1  0  0  0
 85167  1  0  0  0
 86168  1  0  0  0
 87169  1  0  0  0
M  ISO  4   1 100  68 101  83 101  86 100
M  END
> <chiral flag>
0

> <version>
0

> <s_m_source_file>
/data/baiqing/PycharmProjects/Reinvent-master-3.2/result/LINK_invent/BTK/process_docking_weight1_custom_sum_contain_oxygen_bond_distance_aromatic_linkinvent_7_9_3/rearranged_h_0129.sdf

> <i_m_source_file_index>
30

> <r_mmod_Potential_Energy-OPLS-2005>
371.147216796875

> <r_mmod_Stretch_Energy-OPLS-2005>
194.694427490234

> <r_mmod_Bend_Energy-OPLS-2005>
278.072296142578

> <r_mmod_Torsional_Energy-OPLS-2005>
228.295028686523

> <r_mmod_Improper_Torsional_Energy-OPLS-2005>
5.97882747650146

> <r_mmod_Van_der_Waal_Energy-OPLS-2005>
130.847274780273

> <r_mmod_Electrostatic_Energy-OPLS-2005>
-391.290466308594

> <r_mmod_Solvation_Energy-OPLS-2005>
-217.968246459961

> <b_mmod_Minimization_Converged-OPLS-2005>
0

> <r_mmod_RMS_Derivative-OPLS-2005>
2.06606388092041

$$$$
30
                    3D
 Structure written by MMmdl.
174182  0  0  1  0            999 V2000
  -30.7819  -14.3793   20.6558 C   0  0  0  0  0  0
  -30.3996  -12.2856   19.4078 C   0  0  0  0  0  0
  -29.4821  -12.5324   18.1959 C   0  0  0  0  0  0
  -28.0072  -12.3864   18.6092 C   0  0  0  0  0  0
  -27.6625  -13.2127   19.8778 C   0  0  2  0  0  0
  -28.7012  -12.9826   21.0007 C   0  0  0  0  0  0
  -25.2575  -13.8162   20.5679 C   0  0  0  0  0  0
  -24.1828  -13.0426   20.9159 C   0  0  0  0  0  0
  -24.6383  -11.6899   20.8700 C   0  0  0  0  0  0
  -23.9044  -10.4284   21.0380 C   0  0  0  0  0  0
  -24.3599   -9.4212   21.9170 C   0  0  0  0  0  0
  -23.6282   -8.2244   22.0745 C   0  0  0  0  0  0
  -22.4271   -8.0265   21.3534 C   0  0  0  0  0  0
  -21.9891   -9.0236   20.4637 C   0  0  0  0  0  0
  -22.7207  -10.2122   20.3041 C   0  0  0  0  0  0
  -21.6859   -6.0726   22.5277 C   0  0  0  0  0  0
  -21.4020   -6.5632   23.8209 C   0  0  0  0  0  0
  -21.3661   -5.6788   24.9173 C   0  0  0  0  0  0
  -21.6045   -4.3051   24.7228 C   0  0  0  0  0  0
  -21.8816   -3.8137   23.4353 C   0  0  0  0  0  0
  -21.9190   -4.6953   22.3406 C   0  0  0  0  0  0
  -22.7847  -13.5226   21.1838 C   0  0  0  0  0  0
  -22.1660   -4.2134   21.0989 F   0  0  0  0  0  0
  -21.5629   -3.4538   25.7745 F   0  0  0  0  0  0
  -30.0450  -13.2529   20.4620 N   0  0  0  0  0  0
  -26.3024  -12.9349   20.3374 N   0  0  0  0  0  0
  -25.9319  -11.6495   20.5732 N   0  0  0  0  0  0
  -22.0497  -12.8213   22.0392 N   0  0  0  0  0  0
  -25.4265  -15.1884   20.4106 N   0  0  0  0  0  0
  -31.8039  -14.6247   20.0102 O   0  0  0  0  0  0
  -21.6634   -6.8865   21.4238 O   0  0  0  0  0  0
  -22.3533  -14.5550   20.6711 O   0  0  0  0  0  0
  -24.6115  -31.8696   23.2078 C   0  0  0  0  0  0
  -25.9021  -32.4823   23.8387 C   0  0  1  0  0  0
  -27.2482  -27.4600   20.0776 C   0  0  0  0  0  0
  -25.5879  -33.8615   24.2314 N   0  0  0  0  0  0
  -23.3992  -30.4933   21.5470 C   0  0  2  0  0  0
  -24.8461  -28.9589   20.1137 C   0  0  0  0  0  0
  -22.7396  -29.4676   22.4971 C   0  0  0  0  0  0
  -18.0268  -28.1374   22.8472 C   0  0  0  0  0  0
  -24.1491  -36.7330   23.2638 C   0  0  0  0  0  0
  -25.9228  -30.8417   21.3547 C   0  0  0  0  0  0
  -26.0026  -29.4745   20.7099 C   0  0  0  0  0  0
  -27.2007  -28.7300   20.6929 C   0  0  0  0  0  0
  -26.0710  -26.9597   19.4698 C   0  0  0  0  0  0
  -24.8736  -27.6989   19.4952 C   0  0  0  0  0  0
  -23.6063  -29.8228   20.1621 C   0  0  0  0  0  0
  -25.4102  -36.3107   24.0333 C   0  0  1  0  0  0
  -20.5856  -28.3664   23.1302 C   0  0  2  0  0  0
  -20.6759  -26.9403   22.5401 C   0  0  0  0  0  0
  -19.5738  -26.6388   21.5194 C   0  0  0  0  0  0
  -18.1914  -26.7920   22.1604 C   0  0  0  0  0  0
  -19.1522  -28.8833   23.2890 C   0  0  0  0  0  0
  -18.9460  -30.1431   23.8918 C   0  0  0  0  0  0
  -17.6467  -30.6582   24.0577 C   0  0  0  0  0  0
  -25.9021  -34.9472   23.5125 C   0  0  0  0  0  0
  -16.5349  -29.9099   23.6317 C   0  0  0  0  0  0
  -16.7263  -28.6516   23.0325 C   0  0  0  0  0  0
  -26.4462  -31.6578   25.0692 C   0  0  0  0  0  0
  -25.3722  -31.3664   26.1441 C   0  0  0  0  0  0
  -27.0292  -30.3039   24.6006 C   0  0  0  0  0  0
  -27.6060  -32.4287   25.7421 C   0  0  0  0  0  0
  -27.5580  -37.1807   24.8463 C   0  0  0  0  0  0
  -21.4126  -29.3037   22.3724 N   0  0  0  0  0  0
  -26.4291  -37.3783   23.9405 N   0  0  0  0  0  0
  -24.6633  -31.0826   22.0960 N   0  0  0  0  0  0
  -23.4185  -28.8205   23.2999 O   0  0  0  0  0  0
  -28.4587  -26.7934   20.0829 O   0  0  0  0  0  0
  -26.5615  -34.8938   22.4697 O   0  0  0  0  0  0
  -23.5313  -32.1446   23.7489 O   0  0  0  0  0  0
  -29.3871  -18.8995   25.2294 C   0  0  0  0  0  0
  -29.1563  -19.9900   26.2860 C   0  0  0  0  0  0
  -28.0948  -21.4372   24.6290 C   0  0  0  0  0  0
  -28.3984  -20.4480   23.4591 C   0  0  2  0  0  0
  -29.5819  -19.4705   23.7949 C   0  0  2  0  0  0
  -27.0757  -21.4009   21.4858 C   0  0  0  0  0  0
  -31.1389  -16.4468   21.9297 C   0  0  0  0  0  0
  -30.6426  -17.2626   23.1436 C   0  0  0  0  0  0
  -29.4344  -24.7070   20.8081 C   0  0  0  0  0  0
  -29.2614  -22.5578   22.0991 C   0  0  0  0  0  0
  -28.5173  -25.3960   19.7826 C   0  0  0  0  0  0
  -28.4920  -21.2008   22.0774 C   0  0  1  0  0  0
  -30.3692  -15.2325   21.6090 N   0  0  0  0  0  0
  -27.9611  -20.7753   25.9408 N   0  3  0  0  0  0
  -29.7041  -18.3616   22.7920 N   0  3  0  0  0  0
  -29.2596  -23.2306   20.7770 N   0  3  0  0  0  0
  -31.4488  -12.3480   19.1126 H   0  0  0  0  0  0
  -30.2582  -11.2688   19.7796 H   0  0  0  0  0  0
  -29.7164  -11.8335   17.3924 H   0  0  0  0  0  0
  -29.6554  -13.5317   17.7932 H   0  0  0  0  0  0
  -27.8157  -11.3275   18.7915 H   0  0  0  0  0  0
  -27.3540  -12.6726   17.7833 H   0  0  0  0  0  0
  -27.7116  -14.2638   19.5927 H   0  0  0  0  0  0
  -28.6565  -11.9483   21.3455 H   0  0  0  0  0  0
  -28.4585  -13.5926   21.8706 H   0  0  0  0  0  0
  -25.2750   -9.5695   22.4732 H   0  0  0  0  0  0
  -23.9992   -7.4641   22.7476 H   0  0  0  0  0  0
  -21.0814   -8.8741   19.8956 H   0  0  0  0  0  0
  -22.3653  -10.9646   19.6139 H   0  0  0  0  0  0
  -21.2016   -7.6138   23.9707 H   0  0  0  0  0  0
  -21.1489   -6.0522   25.9074 H   0  0  0  0  0  0
  -22.0595   -2.7597   23.2861 H   0  0  0  0  0  0
  -22.4102  -11.9855   22.4749 H   0  0  0  0  0  0
  -21.1109  -13.1221   22.2606 H   0  0  0  0  0  0
  -24.6510  -15.8370   20.4951 H   0  0  0  0  0  0
  -26.2794  -15.6285   20.0885 H   0  0  0  0  0  0
  -26.7103  -32.5561   23.1162 H   0  0  0  0  0  0
  -25.0029  -33.9781   25.0465 H   0  0  0  0  0  0
  -22.6865  -31.3082   21.4052 H   0  0  0  0  0  0
  -23.3741  -35.9676   23.3293 H   0  0  0  0  0  0
  -24.3607  -36.8948   22.2059 H   0  0  0  0  0  0
  -23.7255  -37.6537   23.6658 H   0  0  0  0  0  0
  -26.0249  -31.6013   20.5795 H   0  0  0  0  0  0
  -26.8154  -30.9058   21.9637 H   0  0  0  0  0  0
  -28.0976  -29.1312   21.1479 H   0  0  0  0  0  0
  -26.0502  -26.0209   18.9400 H   0  0  0  0  0  0
  -23.9894  -27.2990   19.0189 H   0  0  0  0  0  0
  -23.7129  -30.5969   19.4006 H   0  0  0  0  0  0
  -22.7305  -29.2414   19.8670 H   0  0  0  0  0  0
  -25.1269  -36.1980   25.0821 H   0  0  0  0  0  0
  -20.9966  -28.3239   24.1418 H   0  0  0  0  0  0
  -20.5643  -26.2285   23.3587 H   0  0  0  0  0  0
  -21.6633  -26.7439   22.1197 H   0  0  0  0  0  0
  -19.6912  -25.6311   21.1200 H   0  0  0  0  0  0
  -19.6672  -27.3214   20.6735 H   0  0  0  0  0  0
  -17.4181  -26.6665   21.4011 H   0  0  0  0  0  0
  -18.0336  -26.0045   22.8989 H   0  0  0  0  0  0
  -19.7941  -30.7238   24.2293 H   0  0  0  0  0  0
  -17.5024  -31.6255   24.5188 H   0  0  0  0  0  0
  -15.5356  -30.3018   23.7611 H   0  0  0  0  0  0
  -15.8653  -28.0856   22.7006 H   0  0  0  0  0  0
  -24.5914  -30.6996   25.7772 H   0  0  0  0  0  0
  -24.8902  -32.2809   26.4901 H   0  0  0  0  0  0
  -25.8076  -30.8836   27.0189 H   0  0  0  0  0  0
  -26.2828  -29.6794   24.1095 H   0  0  0  0  0  0
  -27.4149  -29.7264   25.4404 H   0  0  0  0  0  0
  -27.8598  -30.4388   23.9077 H   0  0  0  0  0  0
  -27.2717  -33.3585   26.2030 H   0  0  0  0  0  0
  -28.3840  -32.6840   25.0212 H   0  0  0  0  0  0
  -28.0759  -31.8384   26.5299 H   0  0  0  0  0  0
  -28.2577  -38.0118   24.7535 H   0  0  0  0  0  0
  -28.1088  -36.2653   24.6249 H   0  0  0  0  0  0
  -27.2319  -37.1423   25.8869 H   0  0  0  0  0  0
  -20.9279  -29.8842   21.7017 H   0  0  0  0  0  0
  -26.0187  -38.2863   24.1410 H   0  0  0  0  0  0
  -28.5409  -18.2105   25.2427 H   0  0  0  0  0  0
  -30.2562  -18.3207   25.5423 H   0  0  0  0  0  0
  -30.0244  -20.6495   26.3563 H   0  0  0  0  0  0
  -29.0258  -19.5458   27.2738 H   0  0  0  0  0  0
  -27.1746  -21.9888   24.4303 H   0  0  0  0  0  0
  -28.8902  -22.1748   24.7398 H   0  0  0  0  0  0
  -27.5243  -19.7968   23.3975 H   0  0  0  0  0  0
  -30.5171  -20.0362   23.7812 H   0  0  0  0  0  0
  -26.5197  -20.4637   21.4519 H   0  0  0  0  0  0
  -27.1019  -21.7669   20.4588 H   0  0  0  0  0  0
  -26.4833  -22.1083   22.0681 H   0  0  0  0  0  0
  -32.1550  -16.1171   22.1646 H   0  0  0  0  0  0
  -31.2355  -17.0809   21.0458 H   0  0  0  0  0  0
  -31.5227  -17.7211   23.5975 H   0  0  0  0  0  0
  -30.2202  -16.6070   23.9061 H   0  0  0  0  0  0
  -29.1835  -25.1020   21.7939 H   0  0  0  0  0  0
  -30.4789  -24.9664   20.6347 H   0  0  0  0  0  0
  -30.2897  -22.4331   22.4414 H   0  0  0  0  0  0
  -28.7754  -23.2295   22.8063 H   0  0  0  0  0  0
  -27.5482  -24.9025   19.8385 H   0  0  0  0  0  0
  -28.8989  -25.2581   18.7700 H   0  0  0  0  0  0
  -29.0171  -20.5543   21.3763 H   0  0  0  0  0  0
  -29.5486  -14.9930   22.1458 H   0  0  0  0  0  0
  -27.8281  -21.4837   26.6463 H   0  0  0  0  0  0
  -27.1423  -20.1893   25.9626 H   0  0  0  0  0  0
  -30.0212  -18.7567   21.9211 H   0  0  0  0  0  0
  -28.8008  -17.9505   22.6162 H   0  0  0  0  0  0
  -29.9431  -22.8113   20.1621 H   0  0  0  0  0  0
  -28.3511  -23.0501   20.3778 H   0  0  0  0  0  0
  1 25  1  0  0  0
  1 30  2  0  0  0
  1 83  1  0  0  0
  2  3  1  0  0  0
  2 25  1  0  0  0
  2 87  1  0  0  0
  2 88  1  0  0  0
  3  4  1  0  0  0
  3 89  1  0  0  0
  3 90  1  0  0  0
  4  5  1  0  0  0
  4 91  1  0  0  0
  4 92  1  0  0  0
  5  6  1  0  0  0
  5 26  1  0  0  0
  5 93  1  0  0  0
  6 25  1  0  0  0
  6 94  1  0  0  0
  6 95  1  0  0  0
  7  8  2  0  0  0
  7 26  1  0  0  0
  7 29  1  0  0  0
  8  9  1  0  0  0
  8 22  1  0  0  0
  9 10  1  0  0  0
  9 27  2  0  0  0
 10 11  2  0  0  0
 10 15  1  0  0  0
 11 12  1  0  0  0
 11 96  1  0  0  0
 12 13  2  0  0  0
 12 97  1  0  0  0
 13 14  1  0  0  0
 13 31  1  0  0  0
 14 15  2  0  0  0
 14 98  1  0  0  0
 15 99  1  0  0  0
 16 17  2  0  0  0
 16 21  1  0  0  0
 16 31  1  0  0  0
 17 18  1  0  0  0
 17100  1  0  0  0
 18 19  2  0  0  0
 18101  1  0  0  0
 19 20  1  0  0  0
 19 24  1  0  0  0
 20 21  2  0  0  0
 20102  1  0  0  0
 21 23  1  0  0  0
 22 28  1  0  0  0
 22 32  2  0  0  0
 26 27  1  0  0  0
 28103  1  0  0  0
 28104  1  0  0  0
 29105  1  0  0  0
 29106  1  0  0  0
 33 34  1  0  0  0
 33 66  1  0  0  0
 33 70  2  0  0  0
 34 36  1  0  0  0
 34 59  1  0  0  0
 34107  1  0  0  0
 35 44  2  0  0  0
 35 45  1  0  0  0
 35 68  1  0  0  0
 36 56  1  0  0  0
 36108  1  0  0  0
 37 39  1  0  0  0
 37 47  1  0  0  0
 37 66  1  0  0  0
 37109  1  0  0  0
 38 43  2  0  0  0
 38 46  1  0  0  0
 38 47  1  0  0  0
 39 64  1  0  0  0
 39 67  2  0  0  0
 40 52  1  0  0  0
 40 53  2  0  0  0
 40 58  1  0  0  0
 41110  1  0  0  0
 41111  1  0  0  0
 41112  1  0  0  0
 41 48  1  0  0  0
 42 43  1  0  0  0
 42 66  1  0  0  0
 42113  1  0  0  0
 42114  1  0  0  0
 43 44  1  0  0  0
 44115  1  0  0  0
 45 46  2  0  0  0
 45116  1  0  0  0
 46117  1  0  0  0
 47118  1  0  0  0
 47119  1  0  0  0
 48 56  1  0  0  0
 48 65  1  0  0  0
 48120  1  0  0  0
 49 50  1  0  0  0
 49 53  1  0  0  0
 49 64  1  0  0  0
 49121  1  0  0  0
 50 51  1  0  0  0
 50122  1  0  0  0
 50123  1  0  0  0
 51 52  1  0  0  0
 51124  1  0  0  0
 51125  1  0  0  0
 52126  1  0  0  0
 52127  1  0  0  0
 53 54  1  0  0  0
 54 55  2  0  0  0
 54128  1  0  0  0
 55 57  1  0  0  0
 55129  1  0  0  0
 56 69  2  0  0  0
 57 58  2  0  0  0
 57130  1  0  0  0
 58131  1  0  0  0
 59 60  1  0  0  0
 59 61  1  0  0  0
 59 62  1  0  0  0
 60132  1  0  0  0
 60133  1  0  0  0
 60134  1  0  0  0
 61135  1  0  0  0
 61136  1  0  0  0
 61137  1  0  0  0
 62138  1  0  0  0
 62139  1  0  0  0
 62140  1  0  0  0
 63 65  1  0  0  0
 63141  1  0  0  0
 63142  1  0  0  0
 63143  1  0  0  0
 64144  1  0  0  0
 65145  1  0  0  0
 68 81  1  0  0  0
 71 72  1  0  0  0
 71 75  1  0  0  0
 71146  1  0  0  0
 71147  1  0  0  0
 72 84  1  0  0  0
 72148  1  0  0  0
 72149  1  0  0  0
 73 84  1  0  0  0
 73150  1  0  0  0
 73151  1  0  0  0
 73 74  1  0  0  0
 74 75  1  0  0  0
 74 82  1  0  0  0
 74152  1  0  0  0
 75 85  1  0  0  0
 75153  1  0  0  0
 76154  1  0  0  0
 76155  1  0  0  0
 76156  1  0  0  0
 76 82  1  0  0  0
 77 78  1  0  0  0
 77 83  1  0  0  0
 77157  1  0  0  0
 77158  1  0  0  0
 78 85  1  0  0  0
 78159  1  0  0  0
 78160  1  0  0  0
 79 81  1  0  0  0
 79 86  1  0  0  0
 79161  1  0  0  0
 79162  1  0  0  0
 80 82  1  0  0  0
 80 86  1  0  0  0
 80163  1  0  0  0
 80164  1  0  0  0
 81165  1  0  0  0
 81166  1  0  0  0
 82167  1  0  0  0
 83168  1  0  0  0
 84169  1  0  0  0
 84170  1  0  0  0
 85171  1  0  0  0
 85172  1  0  0  0
 86173  1  0  0  0
 86174  1  0  0  0
M  CHG  3  84   1  85   1  86   1
M  ISO  4   1 100  68 101  81 101  83 100
M  END
> <chiral flag>
0

> <version>
0

> <s_m_source_file>
/data/baiqing/PycharmProjects/Reinvent-master-3.2/result/LINK_invent/BTK/process_docking_weight1_custom_sum_contain_oxygen_bond_distance_aromatic_linkinvent_7_9_3/rearranged_h_0129.sdf

> <i_m_source_file_index>
31

> <r_mmod_Potential_Energy-OPLS-2005>
-474.425537109375

> <r_mmod_Stretch_Energy-OPLS-2005>
42.1238021850586

> <r_mmod_Bend_Energy-OPLS-2005>
116.633567810059

> <r_mmod_Torsional_Energy-OPLS-2005>
303.994018554688

> <r_mmod_Improper_Torsional_Energy-OPLS-2005>
1.90290319919586

> <r_mmod_Van_der_Waal_Energy-OPLS-2005>
152.289001464844

> <r_mmod_Electrostatic_Energy-OPLS-2005>
664.077575683594

> <r_mmod_Solvation_Energy-OPLS-2005>
-1764.060546875

> <b_mmod_Minimization_Converged-OPLS-2005>
0

> <r_mmod_RMS_Derivative-OPLS-2005>
2.78564262390137

$$$$
31
                    3D
 Structure written by MMmdl.
164172  0  0  1  0            999 V2000
  -30.7323  -14.4156   20.5982 C   0  0  0  0  0  0
  -30.4196  -12.2810   19.4199 C   0  0  0  0  0  0
  -29.4957  -12.5018   18.2049 C   0  0  0  0  0  0
  -28.0147  -12.3693   18.6110 C   0  0  0  0  0  0
  -27.6639  -13.2015   19.8742 C   0  0  2  0  0  0
  -28.7011  -12.9597   20.9933 C   0  0  0  0  0  0
  -25.2593  -13.8156   20.5659 C   0  0  0  0  0  0
  -24.1838  -13.0439   20.9181 C   0  0  0  0  0  0
  -24.6383  -11.6909   20.8735 C   0  0  0  0  0  0
  -23.9041  -10.4290   21.0379 C   0  0  0  0  0  0
  -24.3565   -9.4228   21.9193 C   0  0  0  0  0  0
  -23.6243   -8.2266   22.0764 C   0  0  0  0  0  0
  -22.4244   -8.0276   21.3535 C   0  0  0  0  0  0
  -21.9905   -9.0226   20.4598 C   0  0  0  0  0  0
  -22.7240  -10.2108   20.2990 C   0  0  0  0  0  0
  -21.6835   -6.0726   22.5282 C   0  0  0  0  0  0
  -21.3997   -6.5631   23.8214 C   0  0  0  0  0  0
  -21.3655   -5.6792   24.9181 C   0  0  0  0  0  0
  -21.6034   -4.3050   24.7239 C   0  0  0  0  0  0
  -21.8809   -3.8140   23.4364 C   0  0  0  0  0  0
  -21.9188   -4.6951   22.3413 C   0  0  0  0  0  0
  -22.7855  -13.5256   21.1823 C   0  0  0  0  0  0
  -22.1670   -4.2131   21.0994 F   0  0  0  0  0  0
  -21.5630   -3.4546   25.7753 F   0  0  0  0  0  0
  -30.0375  -13.2569   20.4508 N   0  0  0  0  0  0
  -26.3028  -12.9323   20.3350 N   0  0  0  0  0  0
  -25.9310  -11.6489   20.5758 N   0  0  0  0  0  0
  -22.0386  -12.8225   22.0274 N   0  0  0  0  0  0
  -25.4284  -15.1878   20.4023 N   0  0  0  0  0  0
  -31.8380  -14.6146   20.0947 O   0  0  0  0  0  0
  -21.6623   -6.8865   21.4242 O   0  0  0  0  0  0
  -22.3606  -14.5622   20.6722 O   0  0  0  0  0  0
  -24.6130  -31.8705   23.2068 C   0  0  0  0  0  0
  -25.9034  -32.4845   23.8356 C   0  0  1  0  0  0
  -27.2332  -27.4459   20.0907 C   0  0  0  0  0  0
  -25.5892  -33.8632   24.2311 N   0  0  0  0  0  0
  -23.3974  -30.4936   21.5481 C   0  0  2  0  0  0
  -24.8413  -28.9587   20.1103 C   0  0  0  0  0  0
  -22.7397  -29.4671   22.4980 C   0  0  0  0  0  0
  -18.0278  -28.1384   22.8497 C   0  0  0  0  0  0
  -24.1486  -36.7308   23.2634 C   0  0  0  0  0  0
  -25.9224  -30.8420   21.3511 C   0  0  0  0  0  0
  -25.9997  -29.4748   20.7034 C   0  0  0  0  0  0
  -27.1944  -28.7247   20.6889 C   0  0  0  0  0  0
  -26.0537  -26.9386   19.4949 C   0  0  0  0  0  0
  -24.8642  -27.6914   19.5036 C   0  0  0  0  0  0
  -23.6016  -29.8221   20.1627 C   0  0  0  0  0  0
  -25.4112  -36.3119   24.0333 C   0  0  1  0  0  0
  -20.5861  -28.3664   23.1321 C   0  0  2  0  0  0
  -20.6747  -26.9397   22.5416 C   0  0  0  0  0  0
  -19.5734  -26.6392   21.5197 C   0  0  0  0  0  0
  -18.1922  -26.7935   22.1625 C   0  0  0  0  0  0
  -19.1525  -28.8840   23.2915 C   0  0  0  0  0  0
  -18.9448  -30.1446   23.8926 C   0  0  0  0  0  0
  -17.6450  -30.6589   24.0566 C   0  0  0  0  0  0
  -25.9040  -34.9485   23.5125 C   0  0  0  0  0  0
  -16.5345  -29.9096   23.6312 C   0  0  0  0  0  0
  -16.7264  -28.6509   23.0340 C   0  0  0  0  0  0
  -26.4456  -31.6602   25.0665 C   0  0  0  0  0  0
  -25.3705  -31.3682   26.1396 C   0  0  0  0  0  0
  -27.0255  -30.3061   24.5971 C   0  0  0  0  0  0
  -27.6076  -32.4272   25.7417 C   0  0  0  0  0  0
  -27.5589  -37.1811   24.8474 C   0  0  0  0  0  0
  -21.4123  -29.3043   22.3727 N   0  0  0  0  0  0
  -26.4306  -37.3797   23.9406 N   0  0  0  0  0  0
  -24.6632  -31.0830   22.0951 N   0  0  0  0  0  0
  -23.4196  -28.8209   23.2995 O   0  0  0  0  0  0
  -28.4277  -26.7553   20.1272 O   0  0  0  0  0  0
  -26.5615  -34.8942   22.4695 O   0  0  0  0  0  0
  -23.5338  -32.1442   23.7502 O   0  0  0  0  0  0
  -28.5123  -23.0459   20.8173 C   0  0  0  0  0  0
  -27.1922  -24.7486   21.9341 C   0  0  0  0  0  0
  -28.1240  -22.0953   21.7872 C   0  0  0  0  0  0
  -26.8004  -23.8005   22.8999 C   0  0  0  0  0  0
  -28.0538  -24.3813   20.8770 C   0  0  0  0  0  0
  -27.2638  -22.4698   22.8429 C   0  0  0  0  0  0
  -28.4871  -25.3647   19.7841 C   0  0  0  0  0  0
  -26.7427  -19.1165   23.4687 C   0  0  0  0  0  0
  -27.4829  -20.3017   24.1223 C   0  0  0  0  0  0
  -29.8133  -15.8146   22.4249 C   0  0  0  0  0  0
  -26.9686  -17.7503   24.1668 C   0  0  0  0  0  0
  -28.5120  -16.6283   22.5606 C   0  0  0  0  0  0
  -26.8384  -21.5856   23.8457 N   0  0  0  0  0  0
  -30.0341  -15.4723   21.0244 N   0  0  0  0  0  0
  -28.2947  -17.1302   23.9340 N   0  3  0  0  0  0
  -31.4662  -12.3727   19.1225 H   0  0  0  0  0  0
  -30.3121  -11.2666   19.8065 H   0  0  0  0  0  0
  -29.7298  -11.7882   17.4148 H   0  0  0  0  0  0
  -29.6732  -13.4927   17.7835 H   0  0  0  0  0  0
  -27.8183  -11.3131   18.7955 H   0  0  0  0  0  0
  -27.3698  -12.6534   17.7782 H   0  0  0  0  0  0
  -27.7148  -14.2528   19.5864 H   0  0  0  0  0  0
  -28.6650  -11.9193   21.3206 H   0  0  0  0  0  0
  -28.4577  -13.5478   21.8753 H   0  0  0  0  0  0
  -25.2690   -9.5735   22.4788 H   0  0  0  0  0  0
  -23.9926   -7.4681   22.7530 H   0  0  0  0  0  0
  -21.0870   -8.8723   19.8858 H   0  0  0  0  0  0
  -22.3730  -10.9614   19.6046 H   0  0  0  0  0  0
  -21.1973   -7.6139   23.9719 H   0  0  0  0  0  0
  -21.1506   -6.0527   25.9091 H   0  0  0  0  0  0
  -22.0590   -2.7602   23.2883 H   0  0  0  0  0  0
  -22.3794  -11.9728   22.4512 H   0  0  0  0  0  0
  -21.0992  -13.1319   22.2365 H   0  0  0  0  0  0
  -24.6318  -15.8142   20.4439 H   0  0  0  0  0  0
  -26.2443  -15.6153   19.9816 H   0  0  0  0  0  0
  -26.7108  -32.5580   23.1121 H   0  0  0  0  0  0
  -25.0000  -33.9776   25.0430 H   0  0  0  0  0  0
  -22.6862  -31.3107   21.4090 H   0  0  0  0  0  0
  -23.3743  -35.9646   23.3325 H   0  0  0  0  0  0
  -24.3566  -36.8897   22.2041 H   0  0  0  0  0  0
  -23.7237  -37.6520   23.6631 H   0  0  0  0  0  0
  -26.0199  -31.6043   20.5774 H   0  0  0  0  0  0
  -26.8177  -30.9096   21.9571 H   0  0  0  0  0  0
  -28.0910  -29.1217   21.1451 H   0  0  0  0  0  0
  -26.0234  -25.9664   19.0278 H   0  0  0  0  0  0
  -23.9726  -27.2878   19.0433 H   0  0  0  0  0  0
  -23.6997  -30.5955   19.4002 H   0  0  0  0  0  0
  -22.7267  -29.2370   19.8727 H   0  0  0  0  0  0
  -25.1287  -36.1982   25.0824 H   0  0  0  0  0  0
  -20.9970  -28.3230   24.1435 H   0  0  0  0  0  0
  -20.5606  -26.2268   23.3597 H   0  0  0  0  0  0
  -21.6623  -26.7414   22.1232 H   0  0  0  0  0  0
  -19.6885  -25.6300   21.1234 H   0  0  0  0  0  0
  -19.6682  -27.3189   20.6715 H   0  0  0  0  0  0
  -17.4173  -26.6674   21.4052 H   0  0  0  0  0  0
  -18.0357  -26.0077   22.9028 H   0  0  0  0  0  0
  -19.7918  -30.7257   24.2320 H   0  0  0  0  0  0
  -17.4998  -31.6272   24.5157 H   0  0  0  0  0  0
  -15.5343  -30.3008   23.7603 H   0  0  0  0  0  0
  -15.8669  -28.0832   22.7039 H   0  0  0  0  0  0
  -24.5914  -30.7004   25.7696 H   0  0  0  0  0  0
  -24.8825  -32.2811   26.4827 H   0  0  0  0  0  0
  -25.8044  -30.8852   27.0159 H   0  0  0  0  0  0
  -26.2761  -29.6856   24.1047 H   0  0  0  0  0  0
  -27.4082  -29.7269   25.4382 H   0  0  0  0  0  0
  -27.8569  -30.4400   23.9045 H   0  0  0  0  0  0
  -27.2768  -33.3579   26.2031 H   0  0  0  0  0  0
  -28.3869  -32.6812   25.0217 H   0  0  0  0  0  0
  -28.0746  -31.8335   26.5284 H   0  0  0  0  0  0
  -28.2633  -38.0087   24.7514 H   0  0  0  0  0  0
  -28.1070  -36.2626   24.6324 H   0  0  0  0  0  0
  -27.2307  -37.1482   25.8878 H   0  0  0  0  0  0
  -20.9281  -29.8769   21.6955 H   0  0  0  0  0  0
  -26.0208  -38.2885   24.1391 H   0  0  0  0  0  0
  -29.1730  -22.7433   20.0180 H   0  0  0  0  0  0
  -26.8177  -25.7565   22.0229 H   0  0  0  0  0  0
  -28.4928  -21.0833   21.6992 H   0  0  0  0  0  0
  -26.1359  -24.1137   23.6929 H   0  0  0  0  0  0
  -27.9722  -25.1416   18.8506 H   0  0  0  0  0  0
  -29.5369  -25.1615   19.5702 H   0  0  0  0  0  0
  -26.9667  -19.0654   22.4033 H   0  0  0  0  0  0
  -25.6713  -19.3121   23.5263 H   0  0  0  0  0  0
  -28.5376  -20.3111   23.8416 H   0  0  0  0  0  0
  -27.4700  -20.1762   25.2061 H   0  0  0  0  0  0
  -29.7861  -14.9204   23.0504 H   0  0  0  0  0  0
  -30.6658  -16.4045   22.7654 H   0  0  0  0  0  0
  -26.1978  -17.0491   23.8446 H   0  0  0  0  0  0
  -26.8226  -17.8641   25.2414 H   0  0  0  0  0  0
  -27.6682  -16.0006   22.2687 H   0  0  0  0  0  0
  -28.5298  -17.4719   21.8710 H   0  0  0  0  0  0
  -26.2724  -21.9780   24.5957 H   0  0  0  0  0  0
  -30.3436  -16.2920   20.5211 H   0  0  0  0  0  0
  -28.3653  -16.3430   24.5598 H   0  0  0  0  0  0
  -29.0259  -17.7738   24.1903 H   0  0  0  0  0  0
  1 25  1  0  0  0
  1 30  2  0  0  0
  1 84  1  0  0  0
  2  3  1  0  0  0
  2 25  1  0  0  0
  2 86  1  0  0  0
  2 87  1  0  0  0
  3  4  1  0  0  0
  3 88  1  0  0  0
  3 89  1  0  0  0
  4  5  1  0  0  0
  4 90  1  0  0  0
  4 91  1  0  0  0
  5  6  1  0  0  0
  5 26  1  0  0  0
  5 92  1  0  0  0
  6 25  1  0  0  0
  6 93  1  0  0  0
  6 94  1  0  0  0
  7  8  2  0  0  0
  7 26  1  0  0  0
  7 29  1  0  0  0
  8  9  1  0  0  0
  8 22  1  0  0  0
  9 10  1  0  0  0
  9 27  2  0  0  0
 10 11  2  0  0  0
 10 15  1  0  0  0
 11 12  1  0  0  0
 11 95  1  0  0  0
 12 13  2  0  0  0
 12 96  1  0  0  0
 13 14  1  0  0  0
 13 31  1  0  0  0
 14 15  2  0  0  0
 14 97  1  0  0  0
 15 98  1  0  0  0
 16 17  2  0  0  0
 16 21  1  0  0  0
 16 31  1  0  0  0
 17 18  1  0  0  0
 17 99  1  0  0  0
 18 19  2  0  0  0
 18100  1  0  0  0
 19 20  1  0  0  0
 19 24  1  0  0  0
 20 21  2  0  0  0
 20101  1  0  0  0
 21 23  1  0  0  0
 22 28  1  0  0  0
 22 32  2  0  0  0
 26 27  1  0  0  0
 28102  1  0  0  0
 28103  1  0  0  0
 29104  1  0  0  0
 29105  1  0  0  0
 33 34  1  0  0  0
 33 66  1  0  0  0
 33 70  2  0  0  0
 34 36  1  0  0  0
 34 59  1  0  0  0
 34106  1  0  0  0
 35 44  2  0  0  0
 35 45  1  0  0  0
 35 68  1  0  0  0
 36 56  1  0  0  0
 36107  1  0  0  0
 37 39  1  0  0  0
 37 47  1  0  0  0
 37 66  1  0  0  0
 37108  1  0  0  0
 38 43  2  0  0  0
 38 46  1  0  0  0
 38 47  1  0  0  0
 39 64  1  0  0  0
 39 67  2  0  0  0
 40 52  1  0  0  0
 40 53  2  0  0  0
 40 58  1  0  0  0
 41109  1  0  0  0
 41110  1  0  0  0
 41111  1  0  0  0
 41 48  1  0  0  0
 42 43  1  0  0  0
 42 66  1  0  0  0
 42112  1  0  0  0
 42113  1  0  0  0
 43 44  1  0  0  0
 44114  1  0  0  0
 45 46  2  0  0  0
 45115  1  0  0  0
 46116  1  0  0  0
 47117  1  0  0  0
 47118  1  0  0  0
 48 56  1  0  0  0
 48 65  1  0  0  0
 48119  1  0  0  0
 49 50  1  0  0  0
 49 53  1  0  0  0
 49 64  1  0  0  0
 49120  1  0  0  0
 50 51  1  0  0  0
 50121  1  0  0  0
 50122  1  0  0  0
 51 52  1  0  0  0
 51123  1  0  0  0
 51124  1  0  0  0
 52125  1  0  0  0
 52126  1  0  0  0
 53 54  1  0  0  0
 54 55  2  0  0  0
 54127  1  0  0  0
 55 57  1  0  0  0
 55128  1  0  0  0
 56 69  2  0  0  0
 57 58  2  0  0  0
 57129  1  0  0  0
 58130  1  0  0  0
 59 60  1  0  0  0
 59 61  1  0  0  0
 59 62  1  0  0  0
 60131  1  0  0  0
 60132  1  0  0  0
 60133  1  0  0  0
 61134  1  0  0  0
 61135  1  0  0  0
 61136  1  0  0  0
 62137  1  0  0  0
 62138  1  0  0  0
 62139  1  0  0  0
 63 65  1  0  0  0
 63140  1  0  0  0
 63141  1  0  0  0
 63142  1  0  0  0
 64143  1  0  0  0
 65144  1  0  0  0
 68 77  1  0  0  0
 71 73  2  0  0  0
 71 75  1  0  0  0
 71145  1  0  0  0
 72 74  1  0  0  0
 72 75  2  0  0  0
 72146  1  0  0  0
 73 76  1  0  0  0
 73147  1  0  0  0
 74 76  2  0  0  0
 74148  1  0  0  0
 75 77  1  0  0  0
 76 83  1  0  0  0
 77149  1  0  0  0
 77150  1  0  0  0
 78 79  1  0  0  0
 78 81  1  0  0  0
 78151  1  0  0  0
 78152  1  0  0  0
 79 83  1  0  0  0
 79153  1  0  0  0
 79154  1  0  0  0
 80 82  1  0  0  0
 80 84  1  0  0  0
 80155  1  0  0  0
 80156  1  0  0  0
 81 85  1  0  0  0
 81157  1  0  0  0
 81158  1  0  0  0
 82 85  1  0  0  0
 82159  1  0  0  0
 82160  1  0  0  0
 83161  1  0  0  0
 84162  1  0  0  0
 85163  1  0  0  0
 85164  1  0  0  0
M  CHG  1  85   1
M  ISO  4   1 100  68 101  77 101  84 100
M  END
> <chiral flag>
0

> <version>
0

> <s_m_source_file>
/data/baiqing/PycharmProjects/Reinvent-master-3.2/result/LINK_invent/BTK/process_docking_weight1_custom_sum_contain_oxygen_bond_distance_aromatic_linkinvent_7_9_3/rearranged_h_0129.sdf

> <i_m_source_file_index>
32

> <r_mmod_Potential_Energy-OPLS-2005>
-211.278198242188

> <r_mmod_Stretch_Energy-OPLS-2005>
34.4196968078613

> <r_mmod_Bend_Energy-OPLS-2005>
127.584465026855

> <r_mmod_Torsional_Energy-OPLS-2005>
258.017120361328

> <r_mmod_Improper_Torsional_Energy-OPLS-2005>
14.8517141342163

> <r_mmod_Van_der_Waal_Energy-OPLS-2005>
145.032608032227

> <r_mmod_Electrostatic_Energy-OPLS-2005>
-301.285034179688

> <r_mmod_Solvation_Energy-OPLS-2005>
-500.212554931641

> <b_mmod_Minimization_Converged-OPLS-2005>
0

> <r_mmod_RMS_Derivative-OPLS-2005>
2.01230692863464

$$$$
32
                    3D
 Structure written by MMmdl.
158166  0  0  1  0            999 V2000
  -30.5255  -14.8627   20.3969 C   0  0  0  0  0  0
  -30.4383  -12.5169   19.4699 C   0  0  0  0  0  0
  -29.5168  -12.5229   18.2280 C   0  0  0  0  0  0
  -28.0384  -12.3376   18.6303 C   0  0  0  0  0  0
  -27.6293  -13.2390   19.8275 C   0  0  2  0  0  0
  -28.6756  -13.1989   20.9610 C   0  0  0  0  0  0
  -25.2451  -13.8184   20.5711 C   0  0  0  0  0  0
  -24.1771  -13.0391   20.9174 C   0  0  0  0  0  0
  -24.6384  -11.6887   20.8657 C   0  0  0  0  0  0
  -23.9078  -10.4264   21.0328 C   0  0  0  0  0  0
  -24.3633   -9.4201   21.9126 C   0  0  0  0  0  0
  -23.6296   -8.2242   22.0730 C   0  0  0  0  0  0
  -22.4267   -8.0277   21.3529 C   0  0  0  0  0  0
  -21.9901   -9.0242   20.4613 C   0  0  0  0  0  0
  -22.7239  -10.2111   20.2993 C   0  0  0  0  0  0
  -21.6870   -6.0713   22.5272 C   0  0  0  0  0  0
  -21.4017   -6.5611   23.8205 C   0  0  0  0  0  0
  -21.3669   -5.6766   24.9171 C   0  0  0  0  0  0
  -21.6059   -4.3032   24.7223 C   0  0  0  0  0  0
  -21.8829   -3.8119   23.4347 C   0  0  0  0  0  0
  -21.9200   -4.6935   22.3398 C   0  0  0  0  0  0
  -22.7794  -13.5161   21.1883 C   0  0  0  0  0  0
  -22.1668   -4.2118   21.0977 F   0  0  0  0  0  0
  -21.5641   -3.4518   25.7740 F   0  0  0  0  0  0
  -29.9653  -13.5938   20.3756 N   0  0  0  0  0  0
  -26.2871  -12.9409   20.3155 N   0  0  0  0  0  0
  -25.9305  -11.6537   20.5603 N   0  0  0  0  0  0
  -22.0479  -12.8119   22.0453 N   0  0  0  0  0  0
  -25.4000  -15.1936   20.4337 N   0  0  0  0  0  0
  -31.7295  -14.9875   20.1467 O   0  0  0  0  0  0
  -21.6641   -6.8863   21.4238 O   0  0  0  0  0  0
  -22.3444  -14.5451   20.6738 O   0  0  0  0  0  0
  -24.6411  -31.8468   23.1885 C   0  0  0  0  0  0
  -25.9189  -32.4725   23.8275 C   0  0  1  0  0  0
  -27.2278  -27.1847   20.1201 C   0  0  0  0  0  0
  -25.5938  -33.8527   24.2216 N   0  0  0  0  0  0
  -23.4415  -30.4650   21.5362 C   0  0  2  0  0  0
  -24.8906  -28.9027   20.1037 C   0  0  0  0  0  0
  -22.7540  -29.4549   22.4887 C   0  0  0  0  0  0
  -18.0274  -28.1374   22.8476 C   0  0  0  0  0  0
  -24.1489  -36.7269   23.2644 C   0  0  0  0  0  0
  -25.9937  -30.7343   21.3779 C   0  0  0  0  0  0
  -26.0645  -29.3496   20.7215 C   0  0  0  0  0  0
  -27.2285  -28.5021   20.7212 C   0  0  0  0  0  0
  -26.0252  -26.8292   19.4668 C   0  0  0  0  0  0
  -24.8813  -27.6543   19.4648 C   0  0  0  0  0  0
  -23.6627  -29.7941   20.1548 C   0  0  0  0  0  0
  -25.4120  -36.3053   24.0329 C   0  0  1  0  0  0
  -20.5887  -28.3685   23.1251 C   0  0  2  0  0  0
  -20.6754  -26.9391   22.5397 C   0  0  0  0  0  0
  -19.5741  -26.6369   21.5191 C   0  0  0  0  0  0
  -18.1922  -26.7917   22.1611 C   0  0  0  0  0  0
  -19.1534  -28.8858   23.2852 C   0  0  0  0  0  0
  -18.9451  -30.1453   23.8876 C   0  0  0  0  0  0
  -17.6452  -30.6579   24.0549 C   0  0  0  0  0  0
  -25.9063  -34.9424   23.5088 C   0  0  0  0  0  0
  -16.5340  -29.9066   23.6328 C   0  0  0  0  0  0
  -16.7263  -28.6480   23.0361 C   0  0  0  0  0  0
  -26.4508  -31.6563   25.0689 C   0  0  0  0  0  0
  -25.3678  -31.3708   26.1362 C   0  0  0  0  0  0
  -27.0371  -30.2986   24.6200 C   0  0  0  0  0  0
  -27.6076  -32.4287   25.7464 C   0  0  0  0  0  0
  -27.5584  -37.1795   24.8470 C   0  0  0  0  0  0
  -21.4236  -29.3027   22.3646 N   0  0  0  0  0  0
  -26.4298  -37.3760   23.9401 N   0  0  0  0  0  0
  -24.7123  -31.0357   22.0904 N   0  0  0  0  0  0
  -23.4201  -28.8076   23.3007 O   0  0  0  0  0  0
  -28.3192  -26.2590   20.2226 O   0  0  0  0  0  0
  -26.5655  -34.8922   22.4666 O   0  0  0  0  0  0
  -23.5543  -32.1324   23.7132 O   0  0  0  0  0  0
  -30.5601  -19.8232   20.4798 C   0  0  0  0  0  0
  -30.7077  -18.3849   20.6091 C   0  0  0  0  0  0
  -29.3651  -20.5027   20.0432 C   0  0  0  0  0  0
  -28.3009  -19.5673   19.7900 C   0  0  0  0  0  0
  -29.6612  -17.4588   20.3153 C   0  0  0  0  0  0
  -28.4592  -18.1237   19.9049 C   0  0  0  0  0  0
  -26.9581  -20.1152   19.3208 C   0  0  0  0  0  0
  -30.7284  -22.4643   19.0517 C   0  0  0  0  0  0
  -28.7396  -23.4028   20.4091 C   0  0  0  0  0  0
  -28.3772  -24.8377   19.6336 C   0  0  0  0  0  0
  -29.3305  -22.0855   19.5788 C   0  0  2  0  0  0
  -27.4009  -17.2884   19.5379 N   0  0  0  0  0  0
  -29.6441  -15.9522   20.4723 N   0  0  0  0  0  0
  -31.4763  -12.6673   19.1726 H   0  0  0  0  0  0
  -30.4061  -11.5464   19.9678 H   0  0  0  0  0  0
  -29.8147  -11.7418   17.5264 H   0  0  0  0  0  0
  -29.6336  -13.4686   17.6964 H   0  0  0  0  0  0
  -27.8928  -11.2867   18.8822 H   0  0  0  0  0  0
  -27.3925  -12.5338   17.7725 H   0  0  0  0  0  0
  -27.6025  -14.2541   19.4325 H   0  0  0  0  0  0
  -28.7325  -12.1983   21.3899 H   0  0  0  0  0  0
  -28.3902  -13.8666   21.7755 H   0  0  0  0  0  0
  -25.2798   -9.5681   22.4667 H   0  0  0  0  0  0
  -24.0027   -7.4624   22.7436 H   0  0  0  0  0  0
  -21.0842   -8.8746   19.8888 H   0  0  0  0  0  0
  -22.3716  -10.9637   19.6069 H   0  0  0  0  0  0
  -21.2006   -7.6116   23.9708 H   0  0  0  0  0  0
  -21.1485   -6.0485   25.9078 H   0  0  0  0  0  0
  -22.0601   -2.7578   23.2852 H   0  0  0  0  0  0
  -22.4178  -11.9833   22.4866 H   0  0  0  0  0  0
  -21.1057  -13.1039   22.2604 H   0  0  0  0  0  0
  -24.6189  -15.8218   20.5811 H   0  0  0  0  0  0
  -26.2505  -15.7043   20.1985 H   0  0  0  0  0  0
  -26.7251  -32.5350   23.1005 H   0  0  0  0  0  0
  -25.0058  -33.9628   25.0348 H   0  0  0  0  0  0
  -22.7433  -31.2898   21.3819 H   0  0  0  0  0  0
  -23.3768  -35.9584   23.3296 H   0  0  0  0  0  0
  -24.3585  -36.8912   22.2063 H   0  0  0  0  0  0
  -23.7221  -37.6462   23.6669 H   0  0  0  0  0  0
  -26.1325  -31.4862   20.5998 H   0  0  0  0  0  0
  -26.8740  -30.7954   22.0062 H   0  0  0  0  0  0
  -28.1235  -28.8363   21.2267 H   0  0  0  0  0  0
  -25.9130  -25.8813   18.9689 H   0  0  0  0  0  0
  -23.9826  -27.3084   18.9707 H   0  0  0  0  0  0
  -23.7806  -30.5658   19.3928 H   0  0  0  0  0  0
  -22.7818  -29.2212   19.8579 H   0  0  0  0  0  0
  -25.1294  -36.1915   25.0827 H   0  0  0  0  0  0
  -20.9959  -28.3237   24.1381 H   0  0  0  0  0  0
  -20.5610  -26.2273   23.3586 H   0  0  0  0  0  0
  -21.6621  -26.7377   22.1213 H   0  0  0  0  0  0
  -19.6885  -25.6273   21.1232 H   0  0  0  0  0  0
  -19.6704  -27.3168   20.6711 H   0  0  0  0  0  0
  -17.4172  -26.6646   21.4030 H   0  0  0  0  0  0
  -18.0352  -26.0065   22.9024 H   0  0  0  0  0  0
  -19.7925  -30.7272   24.2254 H   0  0  0  0  0  0
  -17.4990  -31.6265   24.5138 H   0  0  0  0  0  0
  -15.5337  -30.2958   23.7670 H   0  0  0  0  0  0
  -15.8653  -28.0788   22.7107 H   0  0  0  0  0  0
  -24.5892  -30.7043   25.7630 H   0  0  0  0  0  0
  -24.8808  -32.2861   26.4739 H   0  0  0  0  0  0
  -25.7945  -30.8887   27.0165 H   0  0  0  0  0  0
  -26.2972  -29.6712   24.1223 H   0  0  0  0  0  0
  -27.4052  -29.7283   25.4737 H   0  0  0  0  0  0
  -27.8834  -30.4280   23.9453 H   0  0  0  0  0  0
  -27.2735  -33.3624   26.1997 H   0  0  0  0  0  0
  -28.3903  -32.6787   25.0283 H   0  0  0  0  0  0
  -28.0701  -31.8404   26.5397 H   0  0  0  0  0  0
  -28.2593  -38.0102   24.7525 H   0  0  0  0  0  0
  -28.1092  -36.2636   24.6285 H   0  0  0  0  0  0
  -27.2291  -37.1419   25.8870 H   0  0  0  0  0  0
  -20.9417  -29.8780   21.6883 H   0  0  0  0  0  0
  -26.0184  -38.2842   24.1393 H   0  0  0  0  0  0
  -31.4371  -20.4190   20.6884 H   0  0  0  0  0  0
  -31.6614  -17.9963   20.9368 H   0  0  0  0  0  0
  -26.8222  -21.1613   19.5884 H   0  0  0  0  0  0
  -26.1297  -19.5773   19.7815 H   0  0  0  0  0  0
  -26.8720  -20.0246   18.2381 H   0  0  0  0  0  0
  -31.0926  -21.7255   18.3366 H   0  0  0  0  0  0
  -31.4546  -22.5389   19.8620 H   0  0  0  0  0  0
  -30.7334  -23.4233   18.5354 H   0  0  0  0  0  0
  -27.8262  -23.0856   20.9112 H   0  0  0  0  0  0
  -29.4352  -23.6203   21.2190 H   0  0  0  0  0  0
  -29.1374  -24.9569   18.8630 H   0  0  0  0  0  0
  -27.4866  -24.6245   19.0522 H   0  0  0  0  0  0
  -28.7123  -22.0617   18.6813 H   0  0  0  0  0  0
  -26.6053  -17.7928   19.1637 H   0  0  0  0  0  0
  -27.6812  -16.5874   18.8623 H   0  0  0  0  0  0
  -28.6897  -15.6312   20.5389 H   0  0  0  0  0  0
  1 25  1  0  0  0
  1 30  2  0  0  0
  1 83  1  0  0  0
  2  3  1  0  0  0
  2 25  1  0  0  0
  2 84  1  0  0  0
  2 85  1  0  0  0
  3  4  1  0  0  0
  3 86  1  0  0  0
  3 87  1  0  0  0
  4  5  1  0  0  0
  4 88  1  0  0  0
  4 89  1  0  0  0
  5  6  1  0  0  0
  5 26  1  0  0  0
  5 90  1  0  0  0
  6 25  1  0  0  0
  6 91  1  0  0  0
  6 92  1  0  0  0
  7  8  2  0  0  0
  7 26  1  0  0  0
  7 29  1  0  0  0
  8  9  1  0  0  0
  8 22  1  0  0  0
  9 10  1  0  0  0
  9 27  2  0  0  0
 10 11  2  0  0  0
 10 15  1  0  0  0
 11 12  1  0  0  0
 11 93  1  0  0  0
 12 13  2  0  0  0
 12 94  1  0  0  0
 13 14  1  0  0  0
 13 31  1  0  0  0
 14 15  2  0  0  0
 14 95  1  0  0  0
 15 96  1  0  0  0
 16 17  2  0  0  0
 16 21  1  0  0  0
 16 31  1  0  0  0
 17 18  1  0  0  0
 17 97  1  0  0  0
 18 19  2  0  0  0
 18 98  1  0  0  0
 19 20  1  0  0  0
 19 24  1  0  0  0
 20 21  2  0  0  0
 20 99  1  0  0  0
 21 23  1  0  0  0
 22 28  1  0  0  0
 22 32  2  0  0  0
 26 27  1  0  0  0
 28100  1  0  0  0
 28101  1  0  0  0
 29102  1  0  0  0
 29103  1  0  0  0
 33 34  1  0  0  0
 33 66  1  0  0  0
 33 70  2  0  0  0
 34 36  1  0  0  0
 34 59  1  0  0  0
 34104  1  0  0  0
 35 44  2  0  0  0
 35 45  1  0  0  0
 35 68  1  0  0  0
 36 56  1  0  0  0
 36105  1  0  0  0
 37 39  1  0  0  0
 37 47  1  0  0  0
 37 66  1  0  0  0
 37106  1  0  0  0
 38 43  2  0  0  0
 38 46  1  0  0  0
 38 47  1  0  0  0
 39 64  1  0  0  0
 39 67  2  0  0  0
 40 52  1  0  0  0
 40 53  2  0  0  0
 40 58  1  0  0  0
 41107  1  0  0  0
 41108  1  0  0  0
 41109  1  0  0  0
 41 48  1  0  0  0
 42 43  1  0  0  0
 42 66  1  0  0  0
 42110  1  0  0  0
 42111  1  0  0  0
 43 44  1  0  0  0
 44112  1  0  0  0
 45 46  2  0  0  0
 45113  1  0  0  0
 46114  1  0  0  0
 47115  1  0  0  0
 47116  1  0  0  0
 48 56  1  0  0  0
 48 65  1  0  0  0
 48117  1  0  0  0
 49 50  1  0  0  0
 49 53  1  0  0  0
 49 64  1  0  0  0
 49118  1  0  0  0
 50 51  1  0  0  0
 50119  1  0  0  0
 50120  1  0  0  0
 51 52  1  0  0  0
 51121  1  0  0  0
 51122  1  0  0  0
 52123  1  0  0  0
 52124  1  0  0  0
 53 54  1  0  0  0
 54 55  2  0  0  0
 54125  1  0  0  0
 55 57  1  0  0  0
 55126  1  0  0  0
 56 69  2  0  0  0
 57 58  2  0  0  0
 57127  1  0  0  0
 58128  1  0  0  0
 59 60  1  0  0  0
 59 61  1  0  0  0
 59 62  1  0  0  0
 60129  1  0  0  0
 60130  1  0  0  0
 60131  1  0  0  0
 61132  1  0  0  0
 61133  1  0  0  0
 61134  1  0  0  0
 62135  1  0  0  0
 62136  1  0  0  0
 62137  1  0  0  0
 63 65  1  0  0  0
 63138  1  0  0  0
 63139  1  0  0  0
 63140  1  0  0  0
 64141  1  0  0  0
 65142  1  0  0  0
 68 80  1  0  0  0
 71 72  2  0  0  0
 71 73  1  0  0  0
 71143  1  0  0  0
 72 75  1  0  0  0
 72144  1  0  0  0
 73 74  2  0  0  0
 73 81  1  0  0  0
 74 76  1  0  0  0
 74 77  1  0  0  0
 75 76  2  0  0  0
 75 83  1  0  0  0
 76 82  1  0  0  0
 77145  1  0  0  0
 77146  1  0  0  0
 77147  1  0  0  0
 78148  1  0  0  0
 78149  1  0  0  0
 78150  1  0  0  0
 78 81  1  0  0  0
 79 80  1  0  0  0
 79 81  1  0  0  0
 79151  1  0  0  0
 79152  1  0  0  0
 80153  1  0  0  0
 80154  1  0  0  0
 81155  1  0  0  0
 82156  1  0  0  0
 82157  1  0  0  0
 83158  1  0  0  0
M  ISO  4   1 100  68 101  80 101  83 100
M  END
> <chiral flag>
0

> <version>
0

> <s_m_source_file>
/data/baiqing/PycharmProjects/Reinvent-master-3.2/result/LINK_invent/BTK/process_docking_weight1_custom_sum_contain_oxygen_bond_distance_aromatic_linkinvent_7_9_3/rearranged_h_0129.sdf

> <i_m_source_file_index>
33

> <r_mmod_Potential_Energy-OPLS-2005>
259.337249755859

> <r_mmod_Stretch_Energy-OPLS-2005>
197.277633666992

> <r_mmod_Bend_Energy-OPLS-2005>
255.300827026367

> <r_mmod_Torsional_Energy-OPLS-2005>
241.359436035156

> <r_mmod_Improper_Torsional_Energy-OPLS-2005>
13.7216787338257

> <r_mmod_Van_der_Waal_Energy-OPLS-2005>
145.181564331055

> <r_mmod_Electrostatic_Energy-OPLS-2005>
-536.837585449219

> <r_mmod_Solvation_Energy-OPLS-2005>
-200.531646728516

> <b_mmod_Minimization_Converged-OPLS-2005>
0

> <r_mmod_RMS_Derivative-OPLS-2005>
2.60093402862549

$$$$
33
                    3D
 Structure written by MMmdl.
162171  0  0  1  0            999 V2000
  -30.6475  -14.7441   20.4786 C   0  0  0  0  0  0
  -30.4218  -12.4577   19.4782 C   0  0  0  0  0  0
  -29.5019  -12.4953   18.2374 C   0  0  0  0  0  0
  -28.0278  -12.3334   18.6508 C   0  0  0  0  0  0
  -27.6360  -13.2395   19.8470 C   0  0  2  0  0  0
  -28.6802  -13.1963   20.9837 C   0  0  0  0  0  0
  -25.2461  -13.8166   20.5681 C   0  0  0  0  0  0
  -24.1781  -13.0423   20.9217 C   0  0  0  0  0  0
  -24.6387  -11.6897   20.8743 C   0  0  0  0  0  0
  -23.9066  -10.4285   21.0401 C   0  0  0  0  0  0
  -24.3607   -9.4225   21.9202 C   0  0  0  0  0  0
  -23.6273   -8.2256   22.0771 C   0  0  0  0  0  0
  -22.4270   -8.0283   21.3543 C   0  0  0  0  0  0
  -21.9911   -9.0248   20.4644 C   0  0  0  0  0  0
  -22.7236  -10.2124   20.3050 C   0  0  0  0  0  0
  -21.6851   -6.0742   22.5278 C   0  0  0  0  0  0
  -21.4009   -6.5648   23.8209 C   0  0  0  0  0  0
  -21.3659   -5.6799   24.9175 C   0  0  0  0  0  0
  -21.6049   -4.3058   24.7221 C   0  0  0  0  0  0
  -21.8822   -3.8150   23.4340 C   0  0  0  0  0  0
  -21.9185   -4.6971   22.3398 C   0  0  0  0  0  0
  -22.7804  -13.5204   21.1870 C   0  0  0  0  0  0
  -22.1663   -4.2168   21.0963 F   0  0  0  0  0  0
  -21.5635   -3.4533   25.7726 F   0  0  0  0  0  0
  -29.9829  -13.5389   20.3987 N   0  0  0  0  0  0
  -26.2915  -12.9415   20.3289 N   0  0  0  0  0  0
  -25.9327  -11.6554   20.5788 N   0  0  0  0  0  0
  -22.0463  -12.8182   22.0426 N   0  0  0  0  0  0
  -25.4115  -15.1854   20.4005 N   0  0  0  0  0  0
  -31.8372  -14.7761   20.1594 O   0  0  0  0  0  0
  -21.6626   -6.8887   21.4244 O   0  0  0  0  0  0
  -22.3507  -14.5516   20.6734 O   0  0  0  0  0  0
  -24.6308  -31.8562   23.1979 C   0  0  0  0  0  0
  -25.9135  -32.4753   23.8330 C   0  0  1  0  0  0
  -27.2200  -27.2669   20.1531 C   0  0  0  0  0  0
  -25.5940  -33.8556   24.2258 N   0  0  0  0  0  0
  -23.4271  -30.4783   21.5396 C   0  0  2  0  0  0
  -24.8773  -28.9203   20.1156 C   0  0  0  0  0  0
  -22.7496  -29.4618   22.4906 C   0  0  0  0  0  0
  -18.0292  -28.1403   22.8479 C   0  0  0  0  0  0
  -24.1471  -36.7262   23.2646 C   0  0  0  0  0  0
  -25.9712  -30.7747   21.3747 C   0  0  0  0  0  0
  -26.0466  -29.3940   20.7243 C   0  0  0  0  0  0
  -27.2240  -28.5825   20.7265 C   0  0  0  0  0  0
  -26.0315  -26.8527   19.5182 C   0  0  0  0  0  0
  -24.8718  -27.6558   19.5031 C   0  0  0  0  0  0
  -23.6482  -29.8085   20.1579 C   0  0  0  0  0  0
  -25.4103  -36.3067   24.0327 C   0  0  1  0  0  0
  -20.5889  -28.3711   23.1273 C   0  0  2  0  0  0
  -20.6790  -26.9426   22.5412 C   0  0  0  0  0  0
  -19.5765  -26.6392   21.5224 C   0  0  0  0  0  0
  -18.1939  -26.7951   22.1623 C   0  0  0  0  0  0
  -19.1544  -28.8873   23.2875 C   0  0  0  0  0  0
  -18.9479  -30.1476   23.8885 C   0  0  0  0  0  0
  -17.6485  -30.6605   24.0568 C   0  0  0  0  0  0
  -25.9055  -34.9438   23.5099 C   0  0  0  0  0  0
  -16.5370  -29.9100   23.6339 C   0  0  0  0  0  0
  -16.7287  -28.6518   23.0355 C   0  0  0  0  0  0
  -26.4509  -31.6578   25.0714 C   0  0  0  0  0  0
  -25.3727  -31.3727   26.1421 C   0  0  0  0  0  0
  -27.0375  -30.3003   24.6199 C   0  0  0  0  0  0
  -27.6046  -32.4325   25.7508 C   0  0  0  0  0  0
  -27.5551  -37.1792   24.8470 C   0  0  0  0  0  0
  -21.4196  -29.3059   22.3649 N   0  0  0  0  0  0
  -26.4265  -37.3775   23.9417 N   0  0  0  0  0  0
  -24.6951  -31.0549   22.0943 N   0  0  0  0  0  0
  -23.4183  -28.8168   23.3028 O   0  0  0  0  0  0
  -28.3099  -26.3730   20.1805 O   0  0  0  0  0  0
  -26.5623  -34.8915   22.4663 O   0  0  0  0  0  0
  -23.5454  -32.1369   23.7281 O   0  0  0  0  0  0
  -27.9814  -18.2901   20.3663 C   0  0  0  0  0  0
  -29.6337  -20.0041   20.8029 C   0  0  0  0  0  0
  -27.3198  -20.6806   20.4932 C   0  0  0  0  0  0
  -26.9977  -19.3033   20.3066 C   0  0  0  0  0  0
  -29.3237  -18.5875   20.6557 C   0  0  0  0  0  0
  -28.6719  -21.0891   20.6824 C   0  0  0  0  0  0
  -26.2017  -21.6317   20.6360 C   0  0  0  0  0  0
  -24.9172  -21.2489   20.7010 C   0  0  0  0  0  0
  -25.5582  -18.8685   20.0532 C   0  0  0  0  0  0
  -24.4821  -19.8021   20.6336 C   0  0  0  0  0  0
  -31.6074  -17.7096   19.9308 C   0  0  0  0  0  0
  -28.1062  -25.0009   20.7644 C   0  0  0  0  0  0
  -28.6466  -23.6312   20.0756 C   0  0  0  0  0  0
  -30.3809  -17.3985   20.8182 C   0  0  2  0  0  0
  -29.9386  -15.9186   20.7334 N   0  0  0  0  0  0
  -29.0351  -22.4525   20.9212 O   0  0  0  0  0  0
  -31.4613  -12.5650   19.1649 H   0  0  0  0  0  0
  -30.3643  -11.4892   19.9759 H   0  0  0  0  0  0
  -29.7792  -11.7023   17.5421 H   0  0  0  0  0  0
  -29.6371  -13.4346   17.6994 H   0  0  0  0  0  0
  -27.8739  -11.2859   18.9110 H   0  0  0  0  0  0
  -27.3710  -12.5317   17.8021 H   0  0  0  0  0  0
  -27.6230  -14.2597   19.4605 H   0  0  0  0  0  0
  -28.7104  -12.2113   21.4498 H   0  0  0  0  0  0
  -28.4068  -13.8978   21.7734 H   0  0  0  0  0  0
  -25.2744   -9.5722   22.4783 H   0  0  0  0  0  0
  -23.9991   -7.4659   22.7482 H   0  0  0  0  0  0
  -21.0862   -8.8740   19.8916 H   0  0  0  0  0  0
  -22.3703  -10.9662   19.6144 H   0  0  0  0  0  0
  -21.2008   -7.6155   23.9729 H   0  0  0  0  0  0
  -21.1478   -6.0519   25.9075 H   0  0  0  0  0  0
  -22.0598   -2.7613   23.2817 H   0  0  0  0  0  0
  -22.4054  -11.9800   22.4748 H   0  0  0  0  0  0
  -21.1107  -13.1247   22.2683 H   0  0  0  0  0  0
  -24.6269  -15.8237   20.4763 H   0  0  0  0  0  0
  -26.2368  -15.6065   19.9969 H   0  0  0  0  0  0
  -26.7188  -32.5426   23.1065 H   0  0  0  0  0  0
  -25.0101  -33.9697   25.0415 H   0  0  0  0  0  0
  -22.7239  -31.3003   21.3909 H   0  0  0  0  0  0
  -23.3747  -35.9580   23.3319 H   0  0  0  0  0  0
  -24.3558  -36.8887   22.2061 H   0  0  0  0  0  0
  -23.7206  -37.6459   23.6663 H   0  0  0  0  0  0
  -26.1041  -31.5311   20.5995 H   0  0  0  0  0  0
  -26.8518  -30.8295   22.0031 H   0  0  0  0  0  0
  -28.1207  -28.9429   21.2120 H   0  0  0  0  0  0
  -25.9891  -25.8808   19.0481 H   0  0  0  0  0  0
  -23.9768  -27.2810   19.0286 H   0  0  0  0  0  0
  -23.7789  -30.5854   19.4037 H   0  0  0  0  0  0
  -22.7654  -29.2464   19.8508 H   0  0  0  0  0  0
  -25.1283  -36.1894   25.0817 H   0  0  0  0  0  0
  -20.9983  -28.3293   24.1399 H   0  0  0  0  0  0
  -20.5722  -26.2316   23.3620 H   0  0  0  0  0  0
  -21.6655  -26.7478   22.1190 H   0  0  0  0  0  0
  -19.6938  -25.6306   21.1259 H   0  0  0  0  0  0
  -19.6715  -27.3190   20.6752 H   0  0  0  0  0  0
  -17.4217  -26.6699   21.4019 H   0  0  0  0  0  0
  -18.0324  -26.0108   22.9030 H   0  0  0  0  0  0
  -19.7961  -30.7293   24.2233 H   0  0  0  0  0  0
  -17.5050  -31.6286   24.5177 H   0  0  0  0  0  0
  -15.5367  -30.3014   23.7697 H   0  0  0  0  0  0
  -15.8677  -28.0855   22.7073 H   0  0  0  0  0  0
  -24.5899  -30.7077   25.7756 H   0  0  0  0  0  0
  -24.8913  -32.2911   26.4803 H   0  0  0  0  0  0
  -25.8041  -30.8931   27.0218 H   0  0  0  0  0  0
  -26.2973  -29.6751   24.1198 H   0  0  0  0  0  0
  -27.4063  -29.7244   25.4702 H   0  0  0  0  0  0
  -27.8838  -30.4313   23.9449 H   0  0  0  0  0  0
  -27.2628  -33.3636   26.2038 H   0  0  0  0  0  0
  -28.3900  -32.6875   25.0381 H   0  0  0  0  0  0
  -28.0658  -31.8476   26.5480 H   0  0  0  0  0  0
  -28.2575  -38.0083   24.7516 H   0  0  0  0  0  0
  -28.1036  -36.2616   24.6288 H   0  0  0  0  0  0
  -27.2272  -37.1438   25.8877 H   0  0  0  0  0  0
  -20.9356  -29.8754   21.6841 H   0  0  0  0  0  0
  -26.0130  -38.2834   24.1460 H   0  0  0  0  0  0
  -27.6849  -17.2614   20.2246 H   0  0  0  0  0  0
  -30.6509  -20.2782   21.0463 H   0  0  0  0  0  0
  -26.4145  -22.6789   20.7505 H   0  0  0  0  0  0
  -24.1444  -21.9859   20.8664 H   0  0  0  0  0  0
  -25.3999  -17.8682   20.4529 H   0  0  0  0  0  0
  -25.4271  -18.7879   18.9731 H   0  0  0  0  0  0
  -23.5464  -19.7008   20.0829 H   0  0  0  0  0  0
  -24.2723  -19.4985   21.6598 H   0  0  0  0  0  0
  -31.9350  -18.7431   20.0360 H   0  0  0  0  0  0
  -31.3895  -17.5427   18.8767 H   0  0  0  0  0  0
  -32.4788  -17.1168   20.2039 H   0  0  0  0  0  0
  -28.5966  -25.0626   21.7357 H   0  0  0  0  0  0
  -27.0549  -24.8626   21.0172 H   0  0  0  0  0  0
  -29.5716  -23.9018   19.5681 H   0  0  0  0  0  0
  -27.9784  -23.3290   19.2690 H   0  0  0  0  0  0
  -30.7184  -17.5050   21.8514 H   0  0  0  0  0  0
  -28.9692  -15.7673   20.9697 H   0  0  0  0  0  0
  1 25  1  0  0  0
  1 30  2  0  0  0
  1 85  1  0  0  0
  2  3  1  0  0  0
  2 25  1  0  0  0
  2 87  1  0  0  0
  2 88  1  0  0  0
  3  4  1  0  0  0
  3 89  1  0  0  0
  3 90  1  0  0  0
  4  5  1  0  0  0
  4 91  1  0  0  0
  4 92  1  0  0  0
  5  6  1  0  0  0
  5 26  1  0  0  0
  5 93  1  0  0  0
  6 25  1  0  0  0
  6 94  1  0  0  0
  6 95  1  0  0  0
  7  8  2  0  0  0
  7 26  1  0  0  0
  7 29  1  0  0  0
  8  9  1  0  0  0
  8 22  1  0  0  0
  9 10  1  0  0  0
  9 27  2  0  0  0
 10 11  2  0  0  0
 10 15  1  0  0  0
 11 12  1  0  0  0
 11 96  1  0  0  0
 12 13  2  0  0  0
 12 97  1  0  0  0
 13 14  1  0  0  0
 13 31  1  0  0  0
 14 15  2  0  0  0
 14 98  1  0  0  0
 15 99  1  0  0  0
 16 17  2  0  0  0
 16 21  1  0  0  0
 16 31  1  0  0  0
 17 18  1  0  0  0
 17100  1  0  0  0
 18 19  2  0  0  0
 18101  1  0  0  0
 19 20  1  0  0  0
 19 24  1  0  0  0
 20 21  2  0  0  0
 20102  1  0  0  0
 21 23  1  0  0  0
 22 28  1  0  0  0
 22 32  2  0  0  0
 26 27  1  0  0  0
 28103  1  0  0  0
 28104  1  0  0  0
 29105  1  0  0  0
 29106  1  0  0  0
 33 34  1  0  0  0
 33 66  1  0  0  0
 33 70  2  0  0  0
 34 36  1  0  0  0
 34 59  1  0  0  0
 34107  1  0  0  0
 35 44  2  0  0  0
 35 45  1  0  0  0
 35 68  1  0  0  0
 36 56  1  0  0  0
 36108  1  0  0  0
 37 39  1  0  0  0
 37 47  1  0  0  0
 37 66  1  0  0  0
 37109  1  0  0  0
 38 43  2  0  0  0
 38 46  1  0  0  0
 38 47  1  0  0  0
 39 64  1  0  0  0
 39 67  2  0  0  0
 40 52  1  0  0  0
 40 53  2  0  0  0
 40 58  1  0  0  0
 41110  1  0  0  0
 41111  1  0  0  0
 41112  1  0  0  0
 41 48  1  0  0  0
 42 43  1  0  0  0
 42 66  1  0  0  0
 42113  1  0  0  0
 42114  1  0  0  0
 43 44  1  0  0  0
 44115  1  0  0  0
 45 46  2  0  0  0
 45116  1  0  0  0
 46117  1  0  0  0
 47118  1  0  0  0
 47119  1  0  0  0
 48 56  1  0  0  0
 48 65  1  0  0  0
 48120  1  0  0  0
 49 50  1  0  0  0
 49 53  1  0  0  0
 49 64  1  0  0  0
 49121  1  0  0  0
 50 51  1  0  0  0
 50122  1  0  0  0
 50123  1  0  0  0
 51 52  1  0  0  0
 51124  1  0  0  0
 51125  1  0  0  0
 52126  1  0  0  0
 52127  1  0  0  0
 53 54  1  0  0  0
 54 55  2  0  0  0
 54128  1  0  0  0
 55 57  1  0  0  0
 55129  1  0  0  0
 56 69  2  0  0  0
 57 58  2  0  0  0
 57130  1  0  0  0
 58131  1  0  0  0
 59 60  1  0  0  0
 59 61  1  0  0  0
 59 62  1  0  0  0
 60132  1  0  0  0
 60133  1  0  0  0
 60134  1  0  0  0
 61135  1  0  0  0
 61136  1  0  0  0
 61137  1  0  0  0
 62138  1  0  0  0
 62139  1  0  0  0
 62140  1  0  0  0
 63 65  1  0  0  0
 63141  1  0  0  0
 63142  1  0  0  0
 63143  1  0  0  0
 64144  1  0  0  0
 65145  1  0  0  0
 68 82  1  0  0  0
 71 74  2  0  0  0
 71 75  1  0  0  0
 71146  1  0  0  0
 72 75  2  0  0  0
 72 76  1  0  0  0
 72147  1  0  0  0
 73 74  1  0  0  0
 73 76  2  0  0  0
 73 77  1  0  0  0
 74 79  1  0  0  0
 75 84  1  0  0  0
 76 86  1  0  0  0
 77 78  2  0  0  0
 77148  1  0  0  0
 78 80  1  0  0  0
 78149  1  0  0  0
 79 80  1  0  0  0
 79150  1  0  0  0
 79151  1  0  0  0
 80152  1  0  0  0
 80153  1  0  0  0
 81154  1  0  0  0
 81155  1  0  0  0
 81156  1  0  0  0
 81 84  1  0  0  0
 82 83  1  0  0  0
 82157  1  0  0  0
 82158  1  0  0  0
 83 86  1  0  0  0
 83159  1  0  0  0
 83160  1  0  0  0
 84 85  1  0  0  0
 84161  1  0  0  0
 85162  1  0  0  0
M  ISO  4   1 100  68 101  82 101  85 100
M  END
> <chiral flag>
0

> <version>
0

> <s_m_source_file>
/data/baiqing/PycharmProjects/Reinvent-master-3.2/result/LINK_invent/BTK/process_docking_weight1_custom_sum_contain_oxygen_bond_distance_aromatic_linkinvent_7_9_3/rearranged_h_0129.sdf

> <i_m_source_file_index>
34

> <r_mmod_Potential_Energy-OPLS-2005>
190.260192871094

> <r_mmod_Stretch_Energy-OPLS-2005>
132.062759399414

> <r_mmod_Bend_Energy-OPLS-2005>
184.007019042969

> <r_mmod_Torsional_Energy-OPLS-2005>
243.069076538086

> <r_mmod_Improper_Torsional_Energy-OPLS-2005>
5.56871223449707

> <r_mmod_Van_der_Waal_Energy-OPLS-2005>
147.276092529297

> <r_mmod_Electrostatic_Energy-OPLS-2005>
-397.815399169922

> <r_mmod_Solvation_Energy-OPLS-2005>
-208.232482910156

> <b_mmod_Minimization_Converged-OPLS-2005>
0

> <r_mmod_RMS_Derivative-OPLS-2005>
3.28877091407776

$$$$
34
                    3D
 Structure written by MMmdl.
160169  0  0  1  0            999 V2000
  -30.6541  -14.5388   20.5346 C   0  0  0  0  0  0
  -30.4328  -12.3354   19.4339 C   0  0  0  0  0  0
  -29.5021  -12.5111   18.2135 C   0  0  0  0  0  0
  -28.0231  -12.3641   18.6234 C   0  0  0  0  0  0
  -27.6620  -13.2080   19.8743 C   0  0  2  0  0  0
  -28.7046  -13.0029   20.9977 C   0  0  0  0  0  0
  -25.2600  -13.8157   20.5662 C   0  0  0  0  0  0
  -24.1856  -13.0436   20.9186 C   0  0  0  0  0  0
  -24.6411  -11.6903   20.8743 C   0  0  0  0  0  0
  -23.9073  -10.4290   21.0410 C   0  0  0  0  0  0
  -24.3622   -9.4204   21.9187 C   0  0  0  0  0  0
  -23.6301   -8.2235   22.0750 C   0  0  0  0  0  0
  -22.4278   -8.0283   21.3544 C   0  0  0  0  0  0
  -21.9916   -9.0254   20.4642 C   0  0  0  0  0  0
  -22.7246  -10.2134   20.3056 C   0  0  0  0  0  0
  -21.6849   -6.0738   22.5279 C   0  0  0  0  0  0
  -21.4008   -6.5639   23.8212 C   0  0  0  0  0  0
  -21.3666   -5.6791   24.9177 C   0  0  0  0  0  0
  -21.6048   -4.3055   24.7228 C   0  0  0  0  0  0
  -21.8821   -3.8146   23.4346 C   0  0  0  0  0  0
  -21.9191   -4.6963   22.3403 C   0  0  0  0  0  0
  -22.7876  -13.5231   21.1854 C   0  0  0  0  0  0
  -22.1662   -4.2146   21.0982 F   0  0  0  0  0  0
  -21.5636   -3.4543   25.7743 F   0  0  0  0  0  0
  -30.0315  -13.3274   20.4467 N   0  0  0  0  0  0
  -26.3033  -12.9329   20.3351 N   0  0  0  0  0  0
  -25.9340  -11.6486   20.5765 N   0  0  0  0  0  0
  -22.0503  -12.8230   22.0405 N   0  0  0  0  0  0
  -25.4322  -15.1869   20.4041 N   0  0  0  0  0  0
  -31.7958  -14.7206   20.1004 O   0  0  0  0  0  0
  -21.6636   -6.8884   21.4243 O   0  0  0  0  0  0
  -22.3571  -14.5541   20.6699 O   0  0  0  0  0  0
  -24.6183  -31.8642   23.2070 C   0  0  0  0  0  0
  -25.9061  -32.4799   23.8379 C   0  0  1  0  0  0
  -27.2376  -27.3911   20.1002 C   0  0  0  0  0  0
  -25.5901  -33.8602   24.2303 N   0  0  0  0  0  0
  -23.4082  -30.4868   21.5480 C   0  0  2  0  0  0
  -24.8542  -28.9453   20.1138 C   0  0  0  0  0  0
  -22.7427  -29.4645   22.4979 C   0  0  0  0  0  0
  -18.0269  -28.1385   22.8491 C   0  0  0  0  0  0
  -24.1484  -36.7312   23.2638 C   0  0  0  0  0  0
  -25.9404  -30.8157   21.3661 C   0  0  0  0  0  0
  -26.0158  -29.4468   20.7124 C   0  0  0  0  0  0
  -27.2063  -28.6776   20.7012 C   0  0  0  0  0  0
  -26.0512  -26.9155   19.4933 C   0  0  0  0  0  0
  -24.8692  -27.6810   19.5013 C   0  0  0  0  0  0
  -23.6173  -29.8155   20.1639 C   0  0  0  0  0  0
  -25.4105  -36.3102   24.0334 C   0  0  1  0  0  0
  -20.5862  -28.3674   23.1309 C   0  0  2  0  0  0
  -20.6758  -26.9408   22.5417 C   0  0  0  0  0  0
  -19.5740  -26.6386   21.5214 C   0  0  0  0  0  0
  -18.1918  -26.7932   22.1620 C   0  0  0  0  0  0
  -19.1521  -28.8847   23.2894 C   0  0  0  0  0  0
  -18.9446  -30.1451   23.8906 C   0  0  0  0  0  0
  -17.6448  -30.6587   24.0570 C   0  0  0  0  0  0
  -25.9045  -34.9466   23.5123 C   0  0  0  0  0  0
  -16.5340  -29.9089   23.6333 C   0  0  0  0  0  0
  -16.7258  -28.6509   23.0351 C   0  0  0  0  0  0
  -26.4474  -31.6598   25.0727 C   0  0  0  0  0  0
  -25.3729  -31.3714   26.1467 C   0  0  0  0  0  0
  -27.0308  -30.3033   24.6141 C   0  0  0  0  0  0
  -27.6049  -32.4319   25.7487 C   0  0  0  0  0  0
  -27.5585  -37.1799   24.8453 C   0  0  0  0  0  0
  -21.4149  -29.3036   22.3715 N   0  0  0  0  0  0
  -26.4283  -37.3792   23.9418 N   0  0  0  0  0  0
  -24.6741  -31.0708   22.0985 N   0  0  0  0  0  0
  -23.4181  -28.8191   23.3040 O   0  0  0  0  0  0
  -28.4163  -26.6530   20.1365 O   0  0  0  0  0  0
  -26.5615  -34.8923   22.4691 O   0  0  0  0  0  0
  -23.5367  -32.1411   23.7445 O   0  0  0  0  0  0
  -30.8476  -19.0301   19.7808 C   0  0  0  0  0  0
  -28.4918  -18.9893   20.3296 C   0  0  0  0  0  0
  -30.9783  -17.6820   20.2028 C   0  0  0  0  0  0
  -28.6246  -17.6445   20.7624 C   0  0  0  0  0  0
  -29.5950  -19.6942   19.7938 C   0  0  0  0  0  0
  -29.8548  -16.9471   20.6607 C   0  0  0  0  0  0
  -29.9377  -24.8414   19.5463 C   0  0  0  0  0  0
  -27.8266  -24.2362   20.6211 C   0  0  0  0  0  0
  -30.0748  -23.4017   18.9843 C   0  0  0  0  0  0
  -27.9522  -22.7772   20.0770 C   0  0  0  0  0  0
  -28.4683  -25.2771   19.6718 C   0  0  1  0  0  0
  -29.4108  -21.0282   19.0257 C   0  0  0  0  0  0
  -29.8799  -15.5467   21.0131 N   0  0  0  0  0  0
  -29.3517  -22.3430   19.7609 N   0  3  1  0  0  0
  -31.4762  -12.4488   19.1333 H   0  0  0  0  0  0
  -30.3479  -11.3263   19.8395 H   0  0  0  0  0  0
  -29.7501  -11.7813   17.4413 H   0  0  0  0  0  0
  -29.6614  -13.4948   17.7684 H   0  0  0  0  0  0
  -27.8407  -11.3084   18.8260 H   0  0  0  0  0  0
  -27.3714  -12.6300   17.7902 H   0  0  0  0  0  0
  -27.7000  -14.2538   19.5692 H   0  0  0  0  0  0
  -28.6938  -11.9682   21.3423 H   0  0  0  0  0  0
  -28.4599  -13.6031   21.8751 H   0  0  0  0  0  0
  -25.2762   -9.5682   22.4772 H   0  0  0  0  0  0
  -24.0008   -7.4625   22.7471 H   0  0  0  0  0  0
  -21.0839   -8.8780   19.8957 H   0  0  0  0  0  0
  -22.3703  -10.9678   19.6172 H   0  0  0  0  0  0
  -21.1992   -7.6145   23.9725 H   0  0  0  0  0  0
  -21.1490   -6.0514   25.9083 H   0  0  0  0  0  0
  -22.0594   -2.7609   23.2843 H   0  0  0  0  0  0
  -22.4096  -11.9881   22.4792 H   0  0  0  0  0  0
  -21.1127  -13.1282   22.2603 H   0  0  0  0  0  0
  -24.6603  -15.8384   20.4969 H   0  0  0  0  0  0
  -26.2706  -15.6152   20.0339 H   0  0  0  0  0  0
  -26.7127  -32.5488   23.1134 H   0  0  0  0  0  0
  -25.0024  -33.9753   25.0428 H   0  0  0  0  0  0
  -22.6999  -31.3056   21.4059 H   0  0  0  0  0  0
  -23.3751  -35.9638   23.3275 H   0  0  0  0  0  0
  -24.3590  -36.8964   22.2061 H   0  0  0  0  0  0
  -23.7220  -37.6501   23.6673 H   0  0  0  0  0  0
  -26.0587  -31.5796   20.5964 H   0  0  0  0  0  0
  -26.8260  -30.8678   21.9880 H   0  0  0  0  0  0
  -28.1021  -29.0617   21.1697 H   0  0  0  0  0  0
  -26.0088  -25.9498   19.0137 H   0  0  0  0  0  0
  -23.9761  -27.2877   19.0356 H   0  0  0  0  0  0
  -23.7257  -30.5874   19.4013 H   0  0  0  0  0  0
  -22.7402  -29.2352   19.8709 H   0  0  0  0  0  0
  -25.1278  -36.1962   25.0824 H   0  0  0  0  0  0
  -20.9947  -28.3238   24.1431 H   0  0  0  0  0  0
  -20.5650  -26.2288   23.3611 H   0  0  0  0  0  0
  -21.6632  -26.7448   22.1214 H   0  0  0  0  0  0
  -19.6902  -25.6296   21.1244 H   0  0  0  0  0  0
  -19.6682  -27.3199   20.6748 H   0  0  0  0  0  0
  -17.4190  -26.6681   21.4021 H   0  0  0  0  0  0
  -18.0317  -26.0070   22.9010 H   0  0  0  0  0  0
  -19.7924  -30.7267   24.2275 H   0  0  0  0  0  0
  -17.5006  -31.6274   24.5165 H   0  0  0  0  0  0
  -15.5342  -30.2999   23.7654 H   0  0  0  0  0  0
  -15.8656  -28.0837   22.7060 H   0  0  0  0  0  0
  -24.5894  -30.7076   25.7794 H   0  0  0  0  0  0
  -24.8924  -32.2869   26.4929 H   0  0  0  0  0  0
  -25.8068  -30.8865   27.0222 H   0  0  0  0  0  0
  -26.2865  -29.6792   24.1178 H   0  0  0  0  0  0
  -27.4036  -29.7283   25.4630 H   0  0  0  0  0  0
  -27.8721  -30.4337   23.9327 H   0  0  0  0  0  0
  -27.2670  -33.3607   26.2097 H   0  0  0  0  0  0
  -28.3840  -32.6902   25.0301 H   0  0  0  0  0  0
  -28.0738  -31.8422   26.5375 H   0  0  0  0  0  0
  -28.2570  -38.0129   24.7557 H   0  0  0  0  0  0
  -28.1112  -36.2666   24.6200 H   0  0  0  0  0  0
  -27.2320  -37.1354   25.8858 H   0  0  0  0  0  0
  -20.9316  -29.8764   21.6937 H   0  0  0  0  0  0
  -26.0172  -38.2863   24.1448 H   0  0  0  0  0  0
  -31.7154  -19.5284   19.3698 H   0  0  0  0  0  0
  -27.5138  -19.4504   20.3487 H   0  0  0  0  0  0
  -31.9494  -17.2148   20.1294 H   0  0  0  0  0  0
  -27.7441  -17.1319   21.1247 H   0  0  0  0  0  0
  -30.4661  -25.5314   18.8879 H   0  0  0  0  0  0
  -30.4342  -24.9108   20.5152 H   0  0  0  0  0  0
  -28.2909  -24.3003   21.6062 H   0  0  0  0  0  0
  -26.7729  -24.4669   20.7755 H   0  0  0  0  0  0
  -31.1333  -23.1436   18.9277 H   0  0  0  0  0  0
  -29.7061  -23.3977   17.9567 H   0  0  0  0  0  0
  -27.3465  -22.7058   19.1724 H   0  0  0  0  0  0
  -27.5151  -22.0776   20.7909 H   0  0  0  0  0  0
  -28.0211  -25.2167   18.6788 H   0  0  0  0  0  0
  -28.5388  -20.9306   18.3783 H   0  0  0  0  0  0
  -30.2459  -21.0647   18.3252 H   0  0  0  0  0  0
  -29.0217  -15.2042   21.4161 H   0  0  0  0  0  0
  -29.8497  -22.2167   20.6297 H   0  0  0  0  0  0
  1 25  1  0  0  0
  1 30  2  0  0  0
  1 83  1  0  0  0
  2  3  1  0  0  0
  2 25  1  0  0  0
  2 85  1  0  0  0
  2 86  1  0  0  0
  3  4  1  0  0  0
  3 87  1  0  0  0
  3 88  1  0  0  0
  4  5  1  0  0  0
  4 89  1  0  0  0
  4 90  1  0  0  0
  5  6  1  0  0  0
  5 26  1  0  0  0
  5 91  1  0  0  0
  6 25  1  0  0  0
  6 92  1  0  0  0
  6 93  1  0  0  0
  7  8  2  0  0  0
  7 26  1  0  0  0
  7 29  1  0  0  0
  8  9  1  0  0  0
  8 22  1  0  0  0
  9 10  1  0  0  0
  9 27  2  0  0  0
 10 11  2  0  0  0
 10 15  1  0  0  0
 11 12  1  0  0  0
 11 94  1  0  0  0
 12 13  2  0  0  0
 12 95  1  0  0  0
 13 14  1  0  0  0
 13 31  1  0  0  0
 14 15  2  0  0  0
 14 96  1  0  0  0
 15 97  1  0  0  0
 16 17  2  0  0  0
 16 21  1  0  0  0
 16 31  1  0  0  0
 17 18  1  0  0  0
 17 98  1  0  0  0
 18 19  2  0  0  0
 18 99  1  0  0  0
 19 20  1  0  0  0
 19 24  1  0  0  0
 20 21  2  0  0  0
 20100  1  0  0  0
 21 23  1  0  0  0
 22 28  1  0  0  0
 22 32  2  0  0  0
 26 27  1  0  0  0
 28101  1  0  0  0
 28102  1  0  0  0
 29103  1  0  0  0
 29104  1  0  0  0
 33 34  1  0  0  0
 33 66  1  0  0  0
 33 70  2  0  0  0
 34 36  1  0  0  0
 34 59  1  0  0  0
 34105  1  0  0  0
 35 44  2  0  0  0
 35 45  1  0  0  0
 35 68  1  0  0  0
 36 56  1  0  0  0
 36106  1  0  0  0
 37 39  1  0  0  0
 37 47  1  0  0  0
 37 66  1  0  0  0
 37107  1  0  0  0
 38 43  2  0  0  0
 38 46  1  0  0  0
 38 47  1  0  0  0
 39 64  1  0  0  0
 39 67  2  0  0  0
 40 52  1  0  0  0
 40 53  2  0  0  0
 40 58  1  0  0  0
 41108  1  0  0  0
 41109  1  0  0  0
 41110  1  0  0  0
 41 48  1  0  0  0
 42 43  1  0  0  0
 42 66  1  0  0  0
 42111  1  0  0  0
 42112  1  0  0  0
 43 44  1  0  0  0
 44113  1  0  0  0
 45 46  2  0  0  0
 45114  1  0  0  0
 46115  1  0  0  0
 47116  1  0  0  0
 47117  1  0  0  0
 48 56  1  0  0  0
 48 65  1  0  0  0
 48118  1  0  0  0
 49 50  1  0  0  0
 49 53  1  0  0  0
 49 64  1  0  0  0
 49119  1  0  0  0
 50 51  1  0  0  0
 50120  1  0  0  0
 50121  1  0  0  0
 51 52  1  0  0  0
 51122  1  0  0  0
 51123  1  0  0  0
 52124  1  0  0  0
 52125  1  0  0  0
 53 54  1  0  0  0
 54 55  2  0  0  0
 54126  1  0  0  0
 55 57  1  0  0  0
 55127  1  0  0  0
 56 69  2  0  0  0
 57 58  2  0  0  0
 57128  1  0  0  0
 58129  1  0  0  0
 59 60  1  0  0  0
 59 61  1  0  0  0
 59 62  1  0  0  0
 60130  1  0  0  0
 60131  1  0  0  0
 60132  1  0  0  0
 61133  1  0  0  0
 61134  1  0  0  0
 61135  1  0  0  0
 62136  1  0  0  0
 62137  1  0  0  0
 62138  1  0  0  0
 63 65  1  0  0  0
 63139  1  0  0  0
 63140  1  0  0  0
 63141  1  0  0  0
 64142  1  0  0  0
 65143  1  0  0  0
 68 81  1  0  0  0
 71 73  2  0  0  0
 71 75  1  0  0  0
 71144  1  0  0  0
 72 74  1  0  0  0
 72 75  2  0  0  0
 72145  1  0  0  0
 73 76  1  0  0  0
 73146  1  0  0  0
 74 76  2  0  0  0
 74147  1  0  0  0
 75 82  1  0  0  0
 76 83  1  0  0  0
 77 79  1  0  0  0
 77 81  1  0  0  0
 77148  1  0  0  0
 77149  1  0  0  0
 78 80  1  0  0  0
 78 81  1  0  0  0
 78150  1  0  0  0
 78151  1  0  0  0
 79 84  1  0  0  0
 79152  1  0  0  0
 79153  1  0  0  0
 80 84  1  0  0  0
 80154  1  0  0  0
 80155  1  0  0  0
 81156  1  0  0  0
 82157  1  0  0  0
 82158  1  0  0  0
 82 84  1  0  0  0
 83159  1  0  0  0
 84160  1  0  0  0
M  CHG  1  84   1
M  ISO  4   1 100  68 101  81 101  83 100
M  END
> <chiral flag>
0

> <version>
0

> <s_m_source_file>
/data/baiqing/PycharmProjects/Reinvent-master-3.2/result/LINK_invent/BTK/process_docking_weight1_custom_sum_contain_oxygen_bond_distance_aromatic_linkinvent_7_9_3/rearranged_h_0129.sdf

> <i_m_source_file_index>
35

> <r_mmod_Potential_Energy-OPLS-2005>
-133.233779907227

> <r_mmod_Stretch_Energy-OPLS-2005>
51.148120880127

> <r_mmod_Bend_Energy-OPLS-2005>
127.580101013184

> <r_mmod_Torsional_Energy-OPLS-2005>
239.631591796875

> <r_mmod_Improper_Torsional_Energy-OPLS-2005>
5.96680116653442

> <r_mmod_Van_der_Waal_Energy-OPLS-2005>
152.691436767578

> <r_mmod_Electrostatic_Energy-OPLS-2005>
-278.277984619141

> <r_mmod_Solvation_Energy-OPLS-2005>
-453.074432373047

> <b_mmod_Minimization_Converged-OPLS-2005>
0

> <r_mmod_RMS_Derivative-OPLS-2005>
1.15981495380402

$$$$
35
                    3D
 Structure written by MMmdl.
163172  0  0  1  0            999 V2000
  -30.5025  -14.9448   20.4150 C   0  0  0  0  0  0
  -30.4351  -12.5791   19.5128 C   0  0  0  0  0  0
  -29.5236  -12.5452   18.2607 C   0  0  0  0  0  0
  -28.0494  -12.3434   18.6611 C   0  0  0  0  0  0
  -27.6306  -13.2458   19.8516 C   0  0  2  0  0  0
  -28.6675  -13.2417   20.9950 C   0  0  0  0  0  0
  -25.2448  -13.8200   20.5648 C   0  0  0  0  0  0
  -24.1764  -13.0448   20.9216 C   0  0  0  0  0  0
  -24.6364  -11.6926   20.8749 C   0  0  0  0  0  0
  -23.9044  -10.4297   21.0419 C   0  0  0  0  0  0
  -24.3601   -9.4211   21.9200 C   0  0  0  0  0  0
  -23.6284   -8.2238   22.0775 C   0  0  0  0  0  0
  -22.4285   -8.0255   21.3542 C   0  0  0  0  0  0
  -21.9898   -9.0238   20.4664 C   0  0  0  0  0  0
  -22.7209  -10.2133   20.3072 C   0  0  0  0  0  0
  -21.6847   -6.0721   22.5262 C   0  0  0  0  0  0
  -21.4007   -6.5629   23.8194 C   0  0  0  0  0  0
  -21.3673   -5.6787   24.9164 C   0  0  0  0  0  0
  -21.6054   -4.3042   24.7208 C   0  0  0  0  0  0
  -21.8811   -3.8141   23.4328 C   0  0  0  0  0  0
  -21.9170   -4.6951   22.3382 C   0  0  0  0  0  0
  -22.7800  -13.5247   21.1851 C   0  0  0  0  0  0
  -22.1633   -4.2131   21.0968 F   0  0  0  0  0  0
  -21.5660   -3.4536   25.7738 F   0  0  0  0  0  0
  -29.9437  -13.6669   20.4085 N   0  0  0  0  0  0
  -26.2864  -12.9420   20.3251 N   0  0  0  0  0  0
  -25.9301  -11.6547   20.5744 N   0  0  0  0  0  0
  -22.0383  -12.8240   22.0361 N   0  0  0  0  0  0
  -25.4078  -15.1901   20.3856 N   0  0  0  0  0  0
  -31.6883  -15.0357   20.0721 O   0  0  0  0  0  0
  -21.6649   -6.8853   21.4221 O   0  0  0  0  0  0
  -22.3545  -14.5574   20.6695 O   0  0  0  0  0  0
  -24.6458  -31.8378   23.1778 C   0  0  0  0  0  0
  -25.9205  -32.4648   23.8229 C   0  0  1  0  0  0
  -27.2227  -27.1080   20.1510 C   0  0  0  0  0  0
  -25.5911  -33.8454   24.2134 N   0  0  0  0  0  0
  -23.4535  -30.4486   21.5217 C   0  0  2  0  0  0
  -24.9036  -28.8653   20.0955 C   0  0  0  0  0  0
  -22.7608  -29.4479   22.4818 C   0  0  0  0  0  0
  -18.0306  -28.1385   22.8492 C   0  0  0  0  0  0
  -24.1478  -36.7265   23.2670 C   0  0  0  0  0  0
  -26.0070  -30.6967   21.3839 C   0  0  0  0  0  0
  -26.0729  -29.3050   20.7267 C   0  0  0  0  0  0
  -27.2252  -28.4362   20.7436 C   0  0  0  0  0  0
  -26.0405  -26.7697   19.4644 C   0  0  0  0  0  0
  -24.9033  -27.6170   19.4429 C   0  0  0  0  0  0
  -23.6789  -29.7683   20.1419 C   0  0  0  0  0  0
  -25.4118  -36.3021   24.0328 C   0  0  1  0  0  0
  -20.5921  -28.3695   23.1239 C   0  0  2  0  0  0
  -20.6769  -26.9392   22.5397 C   0  0  0  0  0  0
  -19.5729  -26.6361   21.5220 C   0  0  0  0  0  0
  -18.1928  -26.7914   22.1662 C   0  0  0  0  0  0
  -19.1568  -28.8872   23.2848 C   0  0  0  0  0  0
  -18.9481  -30.1478   23.8863 C   0  0  0  0  0  0
  -17.6469  -30.6583   24.0558 C   0  0  0  0  0  0
  -25.9063  -34.9388   23.5052 C   0  0  0  0  0  0
  -16.5360  -29.9074   23.6336 C   0  0  0  0  0  0
  -16.7291  -28.6495   23.0360 C   0  0  0  0  0  0
  -26.4512  -31.6574   25.0725 C   0  0  0  0  0  0
  -25.3693  -31.3732   26.1423 C   0  0  0  0  0  0
  -27.0440  -30.2995   24.6335 C   0  0  0  0  0  0
  -27.6011  -32.4409   25.7509 C   0  0  0  0  0  0
  -27.5572  -37.1797   24.8468 C   0  0  0  0  0  0
  -21.4291  -29.3023   22.3613 N   0  0  0  0  0  0
  -26.4284  -37.3738   23.9405 N   0  0  0  0  0  0
  -24.7212  -31.0196   22.0821 N   0  0  0  0  0  0
  -23.4243  -28.8046   23.2994 O   0  0  0  0  0  0
  -28.2904  -26.1563   20.3287 O   0  0  0  0  0  0
  -26.5684  -34.8903   22.4652 O   0  0  0  0  0  0
  -23.5566  -32.1277   23.6954 O   0  0  0  0  0  0
  -26.6397  -22.0988   23.3208 C   0  0  0  0  0  0
  -26.6804  -20.6433   23.7286 C   0  0  0  0  0  0
  -29.3931  -20.4953   19.7577 C   0  0  0  0  0  0
  -28.0217  -19.3578   21.2502 C   0  0  0  0  0  0
  -29.3994  -19.0871   20.6003 C   0  0  1  0  0  0
  -27.8081  -21.2311   22.8973 C   0  0  0  0  0  0
  -28.7107  -21.7115   20.6168 C   0  0  1  0  0  0
  -27.2364  -22.7348   18.7492 C   0  0  0  0  0  0
  -29.7579  -17.5606   19.9337 C   0  0  0  0  0  0
  -28.5524  -24.7090   19.7832 C   0  0  0  0  0  0
  -27.9432  -23.1435   20.0544 C   0  0  2  0  0  0
  -29.6940  -16.1079   20.5798 N   0  0  0  0  0  0
  -27.7964  -20.8508   21.4602 N   0  3  1  0  0  0
  -31.4756  -12.7293   19.2169 H   0  0  0  0  0  0
  -30.4156  -11.6193   20.0323 H   0  0  0  0  0  0
  -29.8438  -11.7556   17.5803 H   0  0  0  0  0  0
  -29.6241  -13.4849   17.7130 H   0  0  0  0  0  0
  -27.9179  -11.2935   18.9226 H   0  0  0  0  0  0
  -27.3984  -12.5273   17.8076 H   0  0  0  0  0  0
  -27.6028  -14.2585   19.4523 H   0  0  0  0  0  0
  -28.7508  -12.2497   21.4419 H   0  0  0  0  0  0
  -28.3643  -13.9149   21.7975 H   0  0  0  0  0  0
  -25.2746   -9.5699   22.4777 H   0  0  0  0  0  0
  -23.9980   -7.4664   22.7521 H   0  0  0  0  0  0
  -21.0825   -8.8743   19.9010 H   0  0  0  0  0  0
  -22.3642  -10.9664   19.6187 H   0  0  0  0  0  0
  -21.2002   -7.6142   23.9675 H   0  0  0  0  0  0
  -21.1518   -6.0533   25.9060 H   0  0  0  0  0  0
  -22.0594   -2.7599   23.2824 H   0  0  0  0  0  0
  -22.3911  -11.9802   22.4665 H   0  0  0  0  0  0
  -21.1026  -13.1367   22.2575 H   0  0  0  0  0  0
  -24.5818  -15.7783   20.3387 H   0  0  0  0  0  0
  -26.1704  -15.5502   19.8256 H   0  0  0  0  0  0
  -26.7282  -32.5231   23.0955 H   0  0  0  0  0  0
  -24.9952  -33.9526   25.0211 H   0  0  0  0  0  0
  -22.7598  -31.2753   21.3592 H   0  0  0  0  0  0
  -23.3731  -35.9602   23.3328 H   0  0  0  0  0  0
  -24.3568  -36.8913   22.2085 H   0  0  0  0  0  0
  -23.7231  -37.6460   23.6722 H   0  0  0  0  0  0
  -26.1763  -31.4452   20.6099 H   0  0  0  0  0  0
  -26.8730  -30.7440   22.0333 H   0  0  0  0  0  0
  -28.1116  -28.7566   21.2719 H   0  0  0  0  0  0
  -25.9712  -25.8073   18.9800 H   0  0  0  0  0  0
  -24.0171  -27.2838   18.9205 H   0  0  0  0  0  0
  -23.8089  -30.5352   19.3781 H   0  0  0  0  0  0
  -22.7971  -29.2024   19.8368 H   0  0  0  0  0  0
  -25.1309  -36.1865   25.0824 H   0  0  0  0  0  0
  -21.0024  -28.3264   24.1355 H   0  0  0  0  0  0
  -20.5656  -26.2308   23.3615 H   0  0  0  0  0  0
  -21.6624  -26.7365   22.1190 H   0  0  0  0  0  0
  -19.6857  -25.6268   21.1261 H   0  0  0  0  0  0
  -19.6636  -27.3163   20.6741 H   0  0  0  0  0  0
  -17.4169  -26.6649   21.4093 H   0  0  0  0  0  0
  -18.0340  -26.0073   22.9084 H   0  0  0  0  0  0
  -19.7954  -30.7313   24.2199 H   0  0  0  0  0  0
  -17.5015  -31.6252   24.5165 H   0  0  0  0  0  0
  -15.5360  -30.2955   23.7669 H   0  0  0  0  0  0
  -15.8703  -28.0800   22.7081 H   0  0  0  0  0  0
  -24.5778  -30.7224   25.7688 H   0  0  0  0  0  0
  -24.8983  -32.2894   26.4989 H   0  0  0  0  0  0
  -25.7952  -30.8744   27.0129 H   0  0  0  0  0  0
  -26.3075  -29.6648   24.1386 H   0  0  0  0  0  0
  -27.4120  -29.7370   25.4922 H   0  0  0  0  0  0
  -27.8935  -30.4282   23.9624 H   0  0  0  0  0  0
  -27.2502  -33.3593   26.2223 H   0  0  0  0  0  0
  -28.3697  -32.7199   25.0296 H   0  0  0  0  0  0
  -28.0844  -31.8524   26.5309 H   0  0  0  0  0  0
  -28.2593  -38.0091   24.7482 H   0  0  0  0  0  0
  -28.1064  -36.2616   24.6316 H   0  0  0  0  0  0
  -27.2297  -37.1475   25.8877 H   0  0  0  0  0  0
  -20.9523  -29.8800   21.6838 H   0  0  0  0  0  0
  -26.0159  -38.2820   24.1365 H   0  0  0  0  0  0
  -26.8218  -22.8393   24.0977 H   0  0  0  0  0  0
  -25.8882  -22.3789   22.5854 H   0  0  0  0  0  0
  -25.9653  -19.9702   23.2591 H   0  0  0  0  0  0
  -26.8937  -20.4280   24.7745 H   0  0  0  0  0  0
  -28.8217  -20.3354   18.8435 H   0  0  0  0  0  0
  -30.3986  -20.7713   19.4388 H   0  0  0  0  0  0
  -27.9110  -18.7906   22.1748 H   0  0  0  0  0  0
  -27.2365  -19.0007   20.5808 H   0  0  0  0  0  0
  -30.1346  -19.2286   21.3934 H   0  0  0  0  0  0
  -28.7924  -21.3526   23.3485 H   0  0  0  0  0  0
  -29.5024  -22.0610   21.2816 H   0  0  0  0  0  0
  -26.6949  -21.7956   18.8424 H   0  0  0  0  0  0
  -27.9657  -22.6086   17.9451 H   0  0  0  0  0  0
  -26.5205  -23.4851   18.4175 H   0  0  0  0  0  0
  -29.1060  -17.4738   19.0625 H   0  0  0  0  0  0
  -30.7576  -17.6424   19.5095 H   0  0  0  0  0  0
  -28.5685  -24.8498   18.7015 H   0  0  0  0  0  0
  -29.6102  -24.5888   20.0196 H   0  0  0  0  0  0
  -27.1526  -23.3318   20.7790 H   0  0  0  0  0  0
  -28.7802  -15.8764   20.9460 H   0  0  0  0  0  0
  -26.8574  -21.0157   21.1348 H   0  0  0  0  0  0
  1 25  1  0  0  0
  1 30  2  0  0  0
  1 82  1  0  0  0
  2  3  1  0  0  0
  2 25  1  0  0  0
  2 84  1  0  0  0
  2 85  1  0  0  0
  3  4  1  0  0  0
  3 86  1  0  0  0
  3 87  1  0  0  0
  4  5  1  0  0  0
  4 88  1  0  0  0
  4 89  1  0  0  0
  5  6  1  0  0  0
  5 26  1  0  0  0
  5 90  1  0  0  0
  6 25  1  0  0  0
  6 91  1  0  0  0
  6 92  1  0  0  0
  7  8  2  0  0  0
  7 26  1  0  0  0
  7 29  1  0  0  0
  8  9  1  0  0  0
  8 22  1  0  0  0
  9 10  1  0  0  0
  9 27  2  0  0  0
 10 11  2  0  0  0
 10 15  1  0  0  0
 11 12  1  0  0  0
 11 93  1  0  0  0
 12 13  2  0  0  0
 12 94  1  0  0  0
 13 14  1  0  0  0
 13 31  1  0  0  0
 14 15  2  0  0  0
 14 95  1  0  0  0
 15 96  1  0  0  0
 16 17  2  0  0  0
 16 21  1  0  0  0
 16 31  1  0  0  0
 17 18  1  0  0  0
 17 97  1  0  0  0
 18 19  2  0  0  0
 18 98  1  0  0  0
 19 20  1  0  0  0
 19 24  1  0  0  0
 20 21  2  0  0  0
 20 99  1  0  0  0
 21 23  1  0  0  0
 22 28  1  0  0  0
 22 32  2  0  0  0
 26 27  1  0  0  0
 28100  1  0  0  0
 28101  1  0  0  0
 29102  1  0  0  0
 29103  1  0  0  0
 33 34  1  0  0  0
 33 66  1  0  0  0
 33 70  2  0  0  0
 34 36  1  0  0  0
 34 59  1  0  0  0
 34104  1  0  0  0
 35 44  2  0  0  0
 35 45  1  0  0  0
 35 68  1  0  0  0
 36 56  1  0  0  0
 36105  1  0  0  0
 37 39  1  0  0  0
 37 47  1  0  0  0
 37 66  1  0  0  0
 37106  1  0  0  0
 38 43  2  0  0  0
 38 46  1  0  0  0
 38 47  1  0  0  0
 39 64  1  0  0  0
 39 67  2  0  0  0
 40 52  1  0  0  0
 40 53  2  0  0  0
 40 58  1  0  0  0
 41107  1  0  0  0
 41108  1  0  0  0
 41109  1  0  0  0
 41 48  1  0  0  0
 42 43  1  0  0  0
 42 66  1  0  0  0
 42110  1  0  0  0
 42111  1  0  0  0
 43 44  1  0  0  0
 44112  1  0  0  0
 45 46  2  0  0  0
 45113  1  0  0  0
 46114  1  0  0  0
 47115  1  0  0  0
 47116  1  0  0  0
 48 56  1  0  0  0
 48 65  1  0  0  0
 48117  1  0  0  0
 49 50  1  0  0  0
 49 53  1  0  0  0
 49 64  1  0  0  0
 49118  1  0  0  0
 50 51  1  0  0  0
 50119  1  0  0  0
 50120  1  0  0  0
 51 52  1  0  0  0
 51121  1  0  0  0
 51122  1  0  0  0
 52123  1  0  0  0
 52124  1  0  0  0
 53 54  1  0  0  0
 54 55  2  0  0  0
 54125  1  0  0  0
 55 57  1  0  0  0
 55126  1  0  0  0
 56 69  2  0  0  0
 57 58  2  0  0  0
 57127  1  0  0  0
 58128  1  0  0  0
 59 60  1  0  0  0
 59 61  1  0  0  0
 59 62  1  0  0  0
 60129  1  0  0  0
 60130  1  0  0  0
 60131  1  0  0  0
 61132  1  0  0  0
 61133  1  0  0  0
 61134  1  0  0  0
 62135  1  0  0  0
 62136  1  0  0  0
 62137  1  0  0  0
 63 65  1  0  0  0
 63138  1  0  0  0
 63139  1  0  0  0
 63140  1  0  0  0
 64141  1  0  0  0
 65142  1  0  0  0
 68 80  1  0  0  0
 71 72  1  0  0  0
 71143  1  0  0  0
 71144  1  0  0  0
 71 76  1  0  0  0
 72 76  1  0  0  0
 72145  1  0  0  0
 72146  1  0  0  0
 73 75  1  0  0  0
 73147  1  0  0  0
 73148  1  0  0  0
 73 77  1  0  0  0
 74 75  1  0  0  0
 74149  1  0  0  0
 74150  1  0  0  0
 74 83  1  0  0  0
 75 79  1  0  0  0
 75151  1  0  0  0
 76 83  1  0  0  0
 76152  1  0  0  0
 77 81  1  0  0  0
 77 83  1  0  0  0
 77153  1  0  0  0
 78154  1  0  0  0
 78155  1  0  0  0
 78156  1  0  0  0
 78 81  1  0  0  0
 79 82  1  0  0  0
 79157  1  0  0  0
 79158  1  0  0  0
 80 81  1  0  0  0
 80159  1  0  0  0
 80160  1  0  0  0
 81161  1  0  0  0
 82162  1  0  0  0
 83163  1  0  0  0
M  CHG  1  83   1
M  ISO  4   1 100  68 101  80 101  82 100
M  END
> <chiral flag>
0

> <version>
0

> <s_m_source_file>
/data/baiqing/PycharmProjects/Reinvent-master-3.2/result/LINK_invent/BTK/process_docking_weight1_custom_sum_contain_oxygen_bond_distance_aromatic_linkinvent_7_9_3/rearranged_h_0129.sdf

> <i_m_source_file_index>
36

> <r_mmod_Potential_Energy-OPLS-2005>
662.642883300781

> <r_mmod_Stretch_Energy-OPLS-2005>
285.856719970703

> <r_mmod_Bend_Energy-OPLS-2005>
400.057495117188

> <r_mmod_Torsional_Energy-OPLS-2005>
342.723754882812

> <r_mmod_Improper_Torsional_Energy-OPLS-2005>
8.89268684387207

> <r_mmod_Van_der_Waal_Energy-OPLS-2005>
101.857727050781

> <r_mmod_Electrostatic_Energy-OPLS-2005>
-226.798828125

> <r_mmod_Solvation_Energy-OPLS-2005>
-454.184387207031

> <b_mmod_Minimization_Converged-OPLS-2005>
0

> <r_mmod_RMS_Derivative-OPLS-2005>
4.10705137252808

$$$$
36
                    3D
 Structure written by MMmdl.
159168  0  0  1  0            999 V2000
  -30.5919  -14.7604   20.4951 C   0  0  0  0  0  0
  -30.4365  -12.4762   19.4799 C   0  0  0  0  0  0
  -29.5119  -12.5154   18.2431 C   0  0  0  0  0  0
  -28.0404  -12.3234   18.6548 C   0  0  0  0  0  0
  -27.6367  -13.2282   19.8470 C   0  0  2  0  0  0
  -28.6745  -13.1622   20.9863 C   0  0  0  0  0  0
  -25.2470  -13.8172   20.5657 C   0  0  0  0  0  0
  -24.1764  -13.0438   20.9235 C   0  0  0  0  0  0
  -24.6337  -11.6916   20.8729 C   0  0  0  0  0  0
  -23.9027  -10.4287   21.0388 C   0  0  0  0  0  0
  -24.3584   -9.4203   21.9173 C   0  0  0  0  0  0
  -23.6266   -8.2229   22.0739 C   0  0  0  0  0  0
  -22.4259   -8.0248   21.3516 C   0  0  0  0  0  0
  -21.9885   -9.0226   20.4631 C   0  0  0  0  0  0
  -22.7201  -10.2111   20.3035 C   0  0  0  0  0  0
  -21.6851   -6.0706   22.5280 C   0  0  0  0  0  0
  -21.4020   -6.5615   23.8214 C   0  0  0  0  0  0
  -21.3662   -5.6773   24.9171 C   0  0  0  0  0  0
  -21.6032   -4.3030   24.7230 C   0  0  0  0  0  0
  -21.8823   -3.8119   23.4355 C   0  0  0  0  0  0
  -21.9196   -4.6935   22.3400 C   0  0  0  0  0  0
  -22.7780  -13.5216   21.1905 C   0  0  0  0  0  0
  -22.1662   -4.2116   21.0974 F   0  0  0  0  0  0
  -21.5634   -3.4521   25.7751 F   0  0  0  0  0  0
  -29.9761  -13.5293   20.4137 N   0  0  0  0  0  0
  -26.2886  -12.9373   20.3222 N   0  0  0  0  0  0
  -25.9264  -11.6535   20.5721 N   0  0  0  0  0  0
  -22.0414  -12.8175   22.0430 N   0  0  0  0  0  0
  -25.4197  -15.1883   20.4025 N   0  0  0  0  0  0
  -31.7810  -14.8748   20.1819 O   0  0  0  0  0  0
  -21.6628   -6.8835   21.4224 O   0  0  0  0  0  0
  -22.3471  -14.5524   20.6750 O   0  0  0  0  0  0
  -24.6348  -31.8599   23.1935 C   0  0  0  0  0  0
  -25.9174  -32.4777   23.8301 C   0  0  1  0  0  0
  -27.1996  -27.2387   20.1425 C   0  0  0  0  0  0
  -25.5985  -33.8556   24.2289 N   0  0  0  0  0  0
  -23.4293  -30.4818   21.5368 C   0  0  2  0  0  0
  -24.8763  -28.9267   20.0986 C   0  0  0  0  0  0
  -22.7543  -29.4618   22.4860 C   0  0  0  0  0  0
  -18.0319  -28.1421   22.8485 C   0  0  0  0  0  0
  -24.1474  -36.7252   23.2616 C   0  0  0  0  0  0
  -25.9750  -30.7610   21.3778 C   0  0  0  0  0  0
  -26.0467  -29.3822   20.7256 C   0  0  0  0  0  0
  -27.2134  -28.5478   20.7402 C   0  0  0  0  0  0
  -26.0180  -26.8694   19.4639 C   0  0  0  0  0  0
  -24.8707  -27.6807   19.4557 C   0  0  0  0  0  0
  -23.6473  -29.8165   20.1515 C   0  0  0  0  0  0
  -25.4093  -36.3054   24.0337 C   0  0  1  0  0  0
  -20.5927  -28.3736   23.1239 C   0  0  2  0  0  0
  -20.6800  -26.9435   22.5398 C   0  0  0  0  0  0
  -19.5776  -26.6394   21.5186 C   0  0  0  0  0  0
  -18.1945  -26.7970   22.1591 C   0  0  0  0  0  0
  -19.1562  -28.8894   23.2862 C   0  0  0  0  0  0
  -18.9461  -30.1479   23.8924 C   0  0  0  0  0  0
  -17.6450  -30.6606   24.0570 C   0  0  0  0  0  0
  -25.9046  -34.9434   23.5111 C   0  0  0  0  0  0
  -16.5350  -29.9111   23.6327 C   0  0  0  0  0  0
  -16.7291  -28.6513   23.0378 C   0  0  0  0  0  0
  -26.4524  -31.6582   25.0674 C   0  0  0  0  0  0
  -25.3765  -31.3776   26.1431 C   0  0  0  0  0  0
  -27.0332  -30.3005   24.6121 C   0  0  0  0  0  0
  -27.6095  -32.4322   25.7457 C   0  0  0  0  0  0
  -27.5580  -37.1787   24.8468 C   0  0  0  0  0  0
  -21.4237  -29.3075   22.3605 N   0  0  0  0  0  0
  -26.4275  -37.3744   23.9430 N   0  0  0  0  0  0
  -24.6990  -31.0537   22.0929 N   0  0  0  0  0  0
  -23.4208  -28.8159   23.2960 O   0  0  0  0  0  0
  -28.2309  -26.2718   20.2076 O   0  0  0  0  0  0
  -26.5520  -34.8910   22.4630 O   0  0  0  0  0  0
  -23.5486  -32.1429   23.7229 O   0  0  0  0  0  0
  -27.3091  -22.3223   21.5112 C   0  0  0  0  0  0
  -26.9299  -24.7146   21.6262 C   0  0  0  0  0  0
  -26.5883  -23.4094   22.0378 C   0  0  0  0  0  0
  -28.3521  -22.5225   20.5922 C   0  0  0  0  0  0
  -27.9442  -24.9334   20.6634 C   0  0  0  0  0  0
  -24.1819  -22.5138   22.4551 C   0  0  0  0  0  0
  -24.1621  -23.9150   23.0110 C   0  0  0  0  0  0
  -25.4560  -23.1297   22.9888 C   0  0  0  0  0  0
  -28.9675  -21.2017   19.9229 C   0  0  0  0  0  0
  -30.1647  -17.3601   20.9528 C   0  0  0  0  0  0
  -29.2565  -18.5514   20.3064 C   0  0  0  0  0  0
  -28.6542  -23.8306   20.1765 N   0  0  0  0  0  0
  -29.8046  -15.8775   20.7434 N   0  0  0  0  0  0
  -29.4363  -20.0128   20.7869 N   0  3  0  0  0  0
  -31.4738  -12.6228   19.1732 H   0  0  0  0  0  0
  -30.4008  -11.4988   19.9658 H   0  0  0  0  0  0
  -29.8043  -11.7452   17.5290 H   0  0  0  0  0  0
  -29.6293  -13.4705   17.7292 H   0  0  0  0  0  0
  -27.9122  -11.2761   18.9328 H   0  0  0  0  0  0
  -27.3798  -12.4956   17.8050 H   0  0  0  0  0  0
  -27.6284  -14.2486   19.4630 H   0  0  0  0  0  0
  -28.7098  -12.1601   21.4173 H   0  0  0  0  0  0
  -28.3925  -13.8336   21.7993 H   0  0  0  0  0  0
  -25.2724   -9.5686   22.4760 H   0  0  0  0  0  0
  -23.9995   -7.4606   22.7443 H   0  0  0  0  0  0
  -21.0831   -8.8719   19.8920 H   0  0  0  0  0  0
  -22.3651  -10.9637   19.6142 H   0  0  0  0  0  0
  -21.2011   -7.6128   23.9704 H   0  0  0  0  0  0
  -21.1481   -6.0499   25.9072 H   0  0  0  0  0  0
  -22.0598   -2.7579   23.2869 H   0  0  0  0  0  0
  -22.4036  -11.9840   22.4828 H   0  0  0  0  0  0
  -21.1029  -13.1188   22.2632 H   0  0  0  0  0  0
  -24.6482  -15.8426   20.4758 H   0  0  0  0  0  0
  -26.2520  -15.6040   20.0055 H   0  0  0  0  0  0
  -26.7266  -32.5443   23.1050 H   0  0  0  0  0  0
  -25.0348  -33.9708   25.0586 H   0  0  0  0  0  0
  -22.7215  -31.3004   21.3926 H   0  0  0  0  0  0
  -23.3732  -35.9595   23.3298 H   0  0  0  0  0  0
  -24.3536  -36.8810   22.2014 H   0  0  0  0  0  0
  -23.7177  -37.6438   23.6621 H   0  0  0  0  0  0
  -26.0962  -31.5068   20.5908 H   0  0  0  0  0  0
  -26.8608  -30.8304   21.9972 H   0  0  0  0  0  0
  -28.1073  -28.8799   21.2490 H   0  0  0  0  0  0
  -25.9674  -25.9030   18.9814 H   0  0  0  0  0  0
  -23.9803  -27.3233   18.9570 H   0  0  0  0  0  0
  -23.7714  -30.5896   19.3921 H   0  0  0  0  0  0
  -22.7683  -29.2467   19.8481 H   0  0  0  0  0  0
  -25.1240  -36.1908   25.0818 H   0  0  0  0  0  0
  -21.0037  -28.3344   24.1346 H   0  0  0  0  0  0
  -20.5665  -26.2307   23.3584 H   0  0  0  0  0  0
  -21.6677  -26.7451   22.1198 H   0  0  0  0  0  0
  -19.6893  -25.6288   21.1238 H   0  0  0  0  0  0
  -19.6727  -27.3170   20.6684 H   0  0  0  0  0  0
  -17.4209  -26.6711   21.4001 H   0  0  0  0  0  0
  -18.0363  -26.0111   22.8993 H   0  0  0  0  0  0
  -19.7937  -30.7309   24.2274 H   0  0  0  0  0  0
  -17.5014  -31.6305   24.5167 H   0  0  0  0  0  0
  -15.5368  -30.3026   23.7655 H   0  0  0  0  0  0
  -15.8671  -28.0856   22.7114 H   0  0  0  0  0  0
  -24.6009  -30.7008   25.7820 H   0  0  0  0  0  0
  -24.8907  -32.2962   26.4806 H   0  0  0  0  0  0
  -25.8160  -30.9067   27.0244 H   0  0  0  0  0  0
  -26.2913  -29.6787   24.1121 H   0  0  0  0  0  0
  -27.3927  -29.7219   25.4625 H   0  0  0  0  0  0
  -27.8799  -30.4225   23.9351 H   0  0  0  0  0  0
  -27.2752  -33.3673   26.1983 H   0  0  0  0  0  0
  -28.3941  -32.6825   25.0297 H   0  0  0  0  0  0
  -28.0696  -31.8452   26.5408 H   0  0  0  0  0  0
  -28.2615  -38.0072   24.7504 H   0  0  0  0  0  0
  -28.1056  -36.2597   24.6343 H   0  0  0  0  0  0
  -27.2288  -37.1491   25.8864 H   0  0  0  0  0  0
  -20.9404  -29.8795   21.6839 H   0  0  0  0  0  0
  -26.0152  -38.2806   24.1482 H   0  0  0  0  0  0
  -27.0157  -21.3192   21.7870 H   0  0  0  0  0  0
  -26.3903  -25.5526   22.0410 H   0  0  0  0  0  0
  -24.0758  -22.4128   21.3773 H   0  0  0  0  0  0
  -23.6903  -21.7404   23.0463 H   0  0  0  0  0  0
  -23.6547  -24.0396   23.9677 H   0  0  0  0  0  0
  -24.0222  -24.7316   22.3039 H   0  0  0  0  0  0
  -25.8363  -22.7477   23.9361 H   0  0  0  0  0  0
  -29.7680  -21.4838   19.2396 H   0  0  0  0  0  0
  -28.1699  -20.8264   19.2799 H   0  0  0  0  0  0
  -30.1774  -17.5032   22.0344 H   0  0  0  0  0  0
  -31.1973  -17.5088   20.6309 H   0  0  0  0  0  0
  -28.2064  -18.3014   20.4566 H   0  0  0  0  0  0
  -29.4097  -18.5323   19.2283 H   0  0  0  0  0  0
  -28.8336  -15.6574   20.9121 H   0  0  0  0  0  0
  -28.9688  -20.1029   21.6731 H   0  0  0  0  0  0
  -30.4129  -20.1748   20.9683 H   0  0  0  0  0  0
  1 25  1  0  0  0
  1 30  2  0  0  0
  1 83  1  0  0  0
  2  3  1  0  0  0
  2 25  1  0  0  0
  2 85  1  0  0  0
  2 86  1  0  0  0
  3  4  1  0  0  0
  3 87  1  0  0  0
  3 88  1  0  0  0
  4  5  1  0  0  0
  4 89  1  0  0  0
  4 90  1  0  0  0
  5  6  1  0  0  0
  5 26  1  0  0  0
  5 91  1  0  0  0
  6 25  1  0  0  0
  6 92  1  0  0  0
  6 93  1  0  0  0
  7  8  2  0  0  0
  7 26  1  0  0  0
  7 29  1  0  0  0
  8  9  1  0  0  0
  8 22  1  0  0  0
  9 10  1  0  0  0
  9 27  2  0  0  0
 10 11  2  0  0  0
 10 15  1  0  0  0
 11 12  1  0  0  0
 11 94  1  0  0  0
 12 13  2  0  0  0
 12 95  1  0  0  0
 13 14  1  0  0  0
 13 31  1  0  0  0
 14 15  2  0  0  0
 14 96  1  0  0  0
 15 97  1  0  0  0
 16 17  2  0  0  0
 16 21  1  0  0  0
 16 31  1  0  0  0
 17 18  1  0  0  0
 17 98  1  0  0  0
 18 19  2  0  0  0
 18 99  1  0  0  0
 19 20  1  0  0  0
 19 24  1  0  0  0
 20 21  2  0  0  0
 20100  1  0  0  0
 21 23  1  0  0  0
 22 28  1  0  0  0
 22 32  2  0  0  0
 26 27  1  0  0  0
 28101  1  0  0  0
 28102  1  0  0  0
 29103  1  0  0  0
 29104  1  0  0  0
 33 34  1  0  0  0
 33 66  1  0  0  0
 33 70  2  0  0  0
 34 36  1  0  0  0
 34 59  1  0  0  0
 34105  1  0  0  0
 35 44  2  0  0  0
 35 45  1  0  0  0
 35 68  1  0  0  0
 36 56  1  0  0  0
 36106  1  0  0  0
 37 39  1  0  0  0
 37 47  1  0  0  0
 37 66  1  0  0  0
 37107  1  0  0  0
 38 43  2  0  0  0
 38 46  1  0  0  0
 38 47  1  0  0  0
 39 64  1  0  0  0
 39 67  2  0  0  0
 40 52  1  0  0  0
 40 53  2  0  0  0
 40 58  1  0  0  0
 41108  1  0  0  0
 41109  1  0  0  0
 41110  1  0  0  0
 41 48  1  0  0  0
 42 43  1  0  0  0
 42 66  1  0  0  0
 42111  1  0  0  0
 42112  1  0  0  0
 43 44  1  0  0  0
 44113  1  0  0  0
 45 46  2  0  0  0
 45114  1  0  0  0
 46115  1  0  0  0
 47116  1  0  0  0
 47117  1  0  0  0
 48 56  1  0  0  0
 48 65  1  0  0  0
 48118  1  0  0  0
 49 50  1  0  0  0
 49 53  1  0  0  0
 49 64  1  0  0  0
 49119  1  0  0  0
 50 51  1  0  0  0
 50120  1  0  0  0
 50121  1  0  0  0
 51 52  1  0  0  0
 51122  1  0  0  0
 51123  1  0  0  0
 52124  1  0  0  0
 52125  1  0  0  0
 53 54  1  0  0  0
 54 55  2  0  0  0
 54126  1  0  0  0
 55 57  1  0  0  0
 55127  1  0  0  0
 56 69  2  0  0  0
 57 58  2  0  0  0
 57128  1  0  0  0
 58129  1  0  0  0
 59 60  1  0  0  0
 59 61  1  0  0  0
 59 62  1  0  0  0
 60130  1  0  0  0
 60131  1  0  0  0
 60132  1  0  0  0
 61133  1  0  0  0
 61134  1  0  0  0
 61135  1  0  0  0
 62136  1  0  0  0
 62137  1  0  0  0
 62138  1  0  0  0
 63 65  1  0  0  0
 63139  1  0  0  0
 63140  1  0  0  0
 63141  1  0  0  0
 64142  1  0  0  0
 65143  1  0  0  0
 68 75  1  0  0  0
 71 73  2  0  0  0
 71 74  1  0  0  0
 71144  1  0  0  0
 72 73  1  0  0  0
 72 75  2  0  0  0
 72145  1  0  0  0
 73 78  1  0  0  0
 74 79  1  0  0  0
 74 82  2  0  0  0
 75 82  1  0  0  0
 76 77  1  0  0  0
 76 78  1  0  0  0
 76146  1  0  0  0
 76147  1  0  0  0
 77 78  1  0  0  0
 77148  1  0  0  0
 77149  1  0  0  0
 78150  1  0  0  0
 79 84  1  0  0  0
 79151  1  0  0  0
 79152  1  0  0  0
 80 81  1  0  0  0
 80 83  1  0  0  0
 80153  1  0  0  0
 80154  1  0  0  0
 81 84  1  0  0  0
 81155  1  0  0  0
 81156  1  0  0  0
 83157  1  0  0  0
 84158  1  0  0  0
 84159  1  0  0  0
M  CHG  1  84   1
M  ISO  4   1 100  68 101  75 101  83 100
M  END
> <chiral flag>
0

> <version>
0

> <s_m_source_file>
/data/baiqing/PycharmProjects/Reinvent-master-3.2/result/LINK_invent/BTK/process_docking_weight1_custom_sum_contain_oxygen_bond_distance_aromatic_linkinvent_7_9_3/rearranged_h_0129.sdf

> <i_m_source_file_index>
37

> <r_mmod_Potential_Energy-OPLS-2005>
-270.519897460938

> <r_mmod_Stretch_Energy-OPLS-2005>
130.914428710938

> <r_mmod_Bend_Energy-OPLS-2005>
164.882034301758

> <r_mmod_Torsional_Energy-OPLS-2005>
243.970886230469

> <r_mmod_Improper_Torsional_Energy-OPLS-2005>
5.55590581893921

> <r_mmod_Van_der_Waal_Energy-OPLS-2005>
129.310653686523

> <r_mmod_Electrostatic_Energy-OPLS-2005>
-537.303039550781

> <r_mmod_Solvation_Energy-OPLS-2005>
-512.371459960938

> <b_mmod_Minimization_Converged-OPLS-2005>
0

> <r_mmod_RMS_Derivative-OPLS-2005>
5.68923950195312

$$$$
37
                    3D
 Structure written by MMmdl.
159167  0  0  1  0            999 V2000
  -30.6427  -14.5992   20.5002 C   0  0  0  0  0  0
  -30.4315  -12.3718   19.4342 C   0  0  0  0  0  0
  -29.4958  -12.4968   18.2126 C   0  0  0  0  0  0
  -28.0201  -12.3429   18.6322 C   0  0  0  0  0  0
  -27.6518  -13.2130   19.8635 C   0  0  2  0  0  0
  -28.6999  -13.0624   20.9883 C   0  0  0  0  0  0
  -25.2559  -13.8170   20.5684 C   0  0  0  0  0  0
  -24.1826  -13.0438   20.9196 C   0  0  0  0  0  0
  -24.6390  -11.6908   20.8757 C   0  0  0  0  0  0
  -23.9064  -10.4292   21.0419 C   0  0  0  0  0  0
  -24.3620   -9.4205   21.9190 C   0  0  0  0  0  0
  -23.6292   -8.2241   22.0756 C   0  0  0  0  0  0
  -22.4273   -8.0283   21.3544 C   0  0  0  0  0  0
  -21.9914   -9.0259   20.4650 C   0  0  0  0  0  0
  -22.7242  -10.2138   20.3061 C   0  0  0  0  0  0
  -21.6853   -6.0735   22.5275 C   0  0  0  0  0  0
  -21.4012   -6.5637   23.8209 C   0  0  0  0  0  0
  -21.3657   -5.6790   24.9172 C   0  0  0  0  0  0
  -21.6042   -4.3051   24.7222 C   0  0  0  0  0  0
  -21.8824   -3.8145   23.4342 C   0  0  0  0  0  0
  -21.9194   -4.6963   22.3398 C   0  0  0  0  0  0
  -22.7853  -13.5231   21.1860 C   0  0  0  0  0  0
  -22.1663   -4.2152   21.0976 F   0  0  0  0  0  0
  -21.5630   -3.4536   25.7735 F   0  0  0  0  0  0
  -30.0127  -13.3907   20.4137 N   0  0  0  0  0  0
  -26.2987  -12.9347   20.3347 N   0  0  0  0  0  0
  -25.9317  -11.6505   20.5787 N   0  0  0  0  0  0
  -22.0507  -12.8216   22.0424 N   0  0  0  0  0  0
  -25.4279  -15.1890   20.4069 N   0  0  0  0  0  0
  -31.8131  -14.7517   20.1435 O   0  0  0  0  0  0
  -21.6637   -6.8882   21.4235 O   0  0  0  0  0  0
  -22.3536  -14.5547   20.6719 O   0  0  0  0  0  0
  -24.6228  -31.8622   23.2058 C   0  0  0  0  0  0
  -25.9090  -32.4789   23.8378 C   0  0  1  0  0  0
  -27.2269  -27.3579   20.1025 C   0  0  0  0  0  0
  -25.5922  -33.8589   24.2297 N   0  0  0  0  0  0
  -23.4137  -30.4875   21.5471 C   0  0  2  0  0  0
  -24.8582  -28.9467   20.1136 C   0  0  0  0  0  0
  -22.7453  -29.4636   22.4948 C   0  0  0  0  0  0
  -18.0285  -28.1384   22.8481 C   0  0  0  0  0  0
  -24.1477  -36.7282   23.2644 C   0  0  0  0  0  0
  -25.9520  -30.8060   21.3696 C   0  0  0  0  0  0
  -26.0279  -29.4384   20.7067 C   0  0  0  0  0  0
  -27.2163  -28.6574   20.6866 C   0  0  0  0  0  0
  -26.0282  -26.9008   19.5083 C   0  0  0  0  0  0
  -24.8576  -27.6804   19.5099 C   0  0  0  0  0  0
  -23.6257  -29.8237   20.1620 C   0  0  0  0  0  0
  -25.4105  -36.3082   24.0333 C   0  0  1  0  0  0
  -20.5880  -28.3682   23.1278 C   0  0  2  0  0  0
  -20.6772  -26.9407   22.5409 C   0  0  0  0  0  0
  -19.5752  -26.6377   21.5210 C   0  0  0  0  0  0
  -18.1924  -26.7926   22.1616 C   0  0  0  0  0  0
  -19.1536  -28.8849   23.2869 C   0  0  0  0  0  0
  -18.9473  -30.1453   23.8887 C   0  0  0  0  0  0
  -17.6478  -30.6590   24.0564 C   0  0  0  0  0  0
  -25.9049  -34.9452   23.5107 C   0  0  0  0  0  0
  -16.5364  -29.9095   23.6345 C   0  0  0  0  0  0
  -16.7273  -28.6512   23.0358 C   0  0  0  0  0  0
  -26.4488  -31.6606   25.0745 C   0  0  0  0  0  0
  -25.3740  -31.3727   26.1492 C   0  0  0  0  0  0
  -27.0350  -30.3046   24.6175 C   0  0  0  0  0  0
  -27.6038  -32.4365   25.7511 C   0  0  0  0  0  0
  -27.5568  -37.1785   24.8470 C   0  0  0  0  0  0
  -21.4174  -29.3038   22.3680 N   0  0  0  0  0  0
  -26.4278  -37.3779   23.9421 N   0  0  0  0  0  0
  -24.6811  -31.0682   22.0977 N   0  0  0  0  0  0
  -23.4189  -28.8176   23.3011 O   0  0  0  0  0  0
  -28.3747  -26.5620   20.1235 O   0  0  0  0  0  0
  -26.5614  -34.8915   22.4677 O   0  0  0  0  0  0
  -23.5403  -32.1404   23.7417 O   0  0  0  0  0  0
  -29.8179  -22.9903   20.5839 C   0  0  0  0  0  0
  -28.0228  -22.8853   18.8109 C   0  0  0  0  0  0
  -29.3540  -24.4303   21.0173 C   0  0  0  0  0  0
  -28.2834  -24.4271   18.7551 C   0  0  0  0  0  0
  -28.6855  -22.1048   19.9970 C   0  0  1  0  0  0
  -28.2446  -25.0979   20.1455 C   0  0  2  0  0  0
  -29.4053  -18.1775   20.1756 C   0  0  0  0  0  0
  -30.2337  -17.1066   20.9939 C   0  0  0  0  0  0
  -29.5651  -19.7017   20.5991 C   0  0  0  0  0  0
  -29.8552  -15.6671   20.8192 N   0  0  0  0  0  0
  -29.0851  -20.7033   19.5789 N   0  3  0  0  0  0
  -31.4707  -12.4968   19.1245 H   0  0  0  0  0  0
  -30.3664  -11.3754   19.8736 H   0  0  0  0  0  0
  -29.7497  -11.7442   17.4649 H   0  0  0  0  0  0
  -29.6405  -13.4660   17.7333 H   0  0  0  0  0  0
  -27.8496  -11.2901   18.8602 H   0  0  0  0  0  0
  -27.3626  -12.5808   17.7951 H   0  0  0  0  0  0
  -27.6730  -14.2488   19.5254 H   0  0  0  0  0  0
  -28.7067  -12.0437   21.3784 H   0  0  0  0  0  0
  -28.4581  -13.7040   21.8375 H   0  0  0  0  0  0
  -25.2770   -9.5671   22.4765 H   0  0  0  0  0  0
  -24.0001   -7.4628   22.7470 H   0  0  0  0  0  0
  -21.0851   -8.8784   19.8954 H   0  0  0  0  0  0
  -22.3712  -10.9679   19.6170 H   0  0  0  0  0  0
  -21.2002   -7.6147   23.9714 H   0  0  0  0  0  0
  -21.1472   -6.0518   25.9074 H   0  0  0  0  0  0
  -22.0606   -2.7610   23.2841 H   0  0  0  0  0  0
  -22.4130  -11.9853   22.4761 H   0  0  0  0  0  0
  -21.1141  -13.1251   22.2683 H   0  0  0  0  0  0
  -24.6587  -15.8427   20.5080 H   0  0  0  0  0  0
  -26.2722  -15.6252   20.0592 H   0  0  0  0  0  0
  -26.7155  -32.5462   23.1129 H   0  0  0  0  0  0
  -25.0076  -33.9746   25.0443 H   0  0  0  0  0  0
  -22.7061  -31.3069   21.4056 H   0  0  0  0  0  0
  -23.3743  -35.9610   23.3324 H   0  0  0  0  0  0
  -24.3555  -36.8902   22.2057 H   0  0  0  0  0  0
  -23.7231  -37.6485   23.6665 H   0  0  0  0  0  0
  -26.0836  -31.5763   20.6080 H   0  0  0  0  0  0
  -26.8316  -30.8491   22.0009 H   0  0  0  0  0  0
  -28.1185  -29.0337   21.1488 H   0  0  0  0  0  0
  -25.9655  -25.9292   19.0460 H   0  0  0  0  0  0
  -23.9575  -27.2912   19.0534 H   0  0  0  0  0  0
  -23.7449  -30.6010   19.4058 H   0  0  0  0  0  0
  -22.7456  -29.2540   19.8590 H   0  0  0  0  0  0
  -25.1281  -36.1931   25.0824 H   0  0  0  0  0  0
  -20.9969  -28.3266   24.1405 H   0  0  0  0  0  0
  -20.5683  -26.2290   23.3609 H   0  0  0  0  0  0
  -21.6637  -26.7447   22.1196 H   0  0  0  0  0  0
  -19.6918  -25.6290   21.1243 H   0  0  0  0  0  0
  -19.6698  -27.3182   20.6731 H   0  0  0  0  0  0
  -17.4199  -26.6681   21.4011 H   0  0  0  0  0  0
  -18.0316  -26.0063   22.9006 H   0  0  0  0  0  0
  -19.7959  -30.7256   24.2245 H   0  0  0  0  0  0
  -17.5053  -31.6271   24.5168 H   0  0  0  0  0  0
  -15.5370  -30.3002   23.7685 H   0  0  0  0  0  0
  -15.8663  -28.0837   22.7081 H   0  0  0  0  0  0
  -24.5909  -30.7077   25.7842 H   0  0  0  0  0  0
  -24.8927  -32.2882   26.4942 H   0  0  0  0  0  0
  -25.8087  -30.8905   27.0258 H   0  0  0  0  0  0
  -26.2911  -29.6766   24.1257 H   0  0  0  0  0  0
  -27.4149  -29.7337   25.4657 H   0  0  0  0  0  0
  -27.8730  -30.4371   23.9326 H   0  0  0  0  0  0
  -27.2635  -33.3671   26.2070 H   0  0  0  0  0  0
  -28.3846  -32.6933   25.0340 H   0  0  0  0  0  0
  -28.0706  -31.8516   26.5451 H   0  0  0  0  0  0
  -28.2583  -38.0081   24.7529 H   0  0  0  0  0  0
  -28.1061  -36.2614   24.6283 H   0  0  0  0  0  0
  -27.2284  -37.1434   25.8871 H   0  0  0  0  0  0
  -20.9361  -29.8764   21.6893 H   0  0  0  0  0  0
  -26.0157  -38.2845   24.1459 H   0  0  0  0  0  0
  -30.2863  -22.4933   21.4342 H   0  0  0  0  0  0
  -30.6025  -23.0919   19.8319 H   0  0  0  0  0  0
  -28.3513  -22.4701   17.8575 H   0  0  0  0  0  0
  -26.9465  -22.7101   18.8425 H   0  0  0  0  0  0
  -30.2343  -25.0736   21.0276 H   0  0  0  0  0  0
  -29.0047  -24.4022   22.0496 H   0  0  0  0  0  0
  -27.5790  -24.8907   18.0664 H   0  0  0  0  0  0
  -29.2650  -24.6093   18.3166 H   0  0  0  0  0  0
  -27.9318  -21.9930   20.7781 H   0  0  0  0  0  0
  -27.2924  -24.8371   20.6119 H   0  0  0  0  0  0
  -28.3453  -17.9250   20.2366 H   0  0  0  0  0  0
  -29.6721  -18.0690   19.1241 H   0  0  0  0  0  0
  -30.1271  -17.3259   22.0569 H   0  0  0  0  0  0
  -31.2937  -17.2384   20.7729 H   0  0  0  0  0  0
  -30.6125  -19.9191   20.8096 H   0  0  0  0  0  0
  -29.0296  -19.8635   21.5348 H   0  0  0  0  0  0
  -28.8986  -15.4327   21.0394 H   0  0  0  0  0  0
  -29.7832  -20.7646   18.8540 H   0  0  0  0  0  0
  -28.2665  -20.3007   19.1518 H   0  0  0  0  0  0
  1 25  1  0  0  0
  1 30  2  0  0  0
  1 80  1  0  0  0
  2  3  1  0  0  0
  2 25  1  0  0  0
  2 82  1  0  0  0
  2 83  1  0  0  0
  3  4  1  0  0  0
  3 84  1  0  0  0
  3 85  1  0  0  0
  4  5  1  0  0  0
  4 86  1  0  0  0
  4 87  1  0  0  0
  5  6  1  0  0  0
  5 26  1  0  0  0
  5 88  1  0  0  0
  6 25  1  0  0  0
  6 89  1  0  0  0
  6 90  1  0  0  0
  7  8  2  0  0  0
  7 26  1  0  0  0
  7 29  1  0  0  0
  8  9  1  0  0  0
  8 22  1  0  0  0
  9 10  1  0  0  0
  9 27  2  0  0  0
 10 11  2  0  0  0
 10 15  1  0  0  0
 11 12  1  0  0  0
 11 91  1  0  0  0
 12 13  2  0  0  0
 12 92  1  0  0  0
 13 14  1  0  0  0
 13 31  1  0  0  0
 14 15  2  0  0  0
 14 93  1  0  0  0
 15 94  1  0  0  0
 16 17  2  0  0  0
 16 21  1  0  0  0
 16 31  1  0  0  0
 17 18  1  0  0  0
 17 95  1  0  0  0
 18 19  2  0  0  0
 18 96  1  0  0  0
 19 20  1  0  0  0
 19 24  1  0  0  0
 20 21  2  0  0  0
 20 97  1  0  0  0
 21 23  1  0  0  0
 22 28  1  0  0  0
 22 32  2  0  0  0
 26 27  1  0  0  0
 28 98  1  0  0  0
 28 99  1  0  0  0
 29100  1  0  0  0
 29101  1  0  0  0
 33 34  1  0  0  0
 33 66  1  0  0  0
 33 70  2  0  0  0
 34 36  1  0  0  0
 34 59  1  0  0  0
 34102  1  0  0  0
 35 44  2  0  0  0
 35 45  1  0  0  0
 35 68  1  0  0  0
 36 56  1  0  0  0
 36103  1  0  0  0
 37 39  1  0  0  0
 37 47  1  0  0  0
 37 66  1  0  0  0
 37104  1  0  0  0
 38 43  2  0  0  0
 38 46  1  0  0  0
 38 47  1  0  0  0
 39 64  1  0  0  0
 39 67  2  0  0  0
 40 52  1  0  0  0
 40 53  2  0  0  0
 40 58  1  0  0  0
 41105  1  0  0  0
 41106  1  0  0  0
 41107  1  0  0  0
 41 48  1  0  0  0
 42 43  1  0  0  0
 42 66  1  0  0  0
 42108  1  0  0  0
 42109  1  0  0  0
 43 44  1  0  0  0
 44110  1  0  0  0
 45 46  2  0  0  0
 45111  1  0  0  0
 46112  1  0  0  0
 47113  1  0  0  0
 47114  1  0  0  0
 48 56  1  0  0  0
 48 65  1  0  0  0
 48115  1  0  0  0
 49 50  1  0  0  0
 49 53  1  0  0  0
 49 64  1  0  0  0
 49116  1  0  0  0
 50 51  1  0  0  0
 50117  1  0  0  0
 50118  1  0  0  0
 51 52  1  0  0  0
 51119  1  0  0  0
 51120  1  0  0  0
 52121  1  0  0  0
 52122  1  0  0  0
 53 54  1  0  0  0
 54 55  2  0  0  0
 54123  1  0  0  0
 55 57  1  0  0  0
 55124  1  0  0  0
 56 69  2  0  0  0
 57 58  2  0  0  0
 57125  1  0  0  0
 58126  1  0  0  0
 59 60  1  0  0  0
 59 61  1  0  0  0
 59 62  1  0  0  0
 60127  1  0  0  0
 60128  1  0  0  0
 60129  1  0  0  0
 61130  1  0  0  0
 61131  1  0  0  0
 61132  1  0  0  0
 62133  1  0  0  0
 62134  1  0  0  0
 62135  1  0  0  0
 63 65  1  0  0  0
 63136  1  0  0  0
 63137  1  0  0  0
 63138  1  0  0  0
 64139  1  0  0  0
 65140  1  0  0  0
 68 76  1  0  0  0
 71 73  1  0  0  0
 71 75  1  0  0  0
 71141  1  0  0  0
 71142  1  0  0  0
 72 74  1  0  0  0
 72 75  1  0  0  0
 72143  1  0  0  0
 72144  1  0  0  0
 73 76  1  0  0  0
 73145  1  0  0  0
 73146  1  0  0  0
 74 76  1  0  0  0
 74147  1  0  0  0
 74148  1  0  0  0
 75 81  1  0  0  0
 75149  1  0  0  0
 76150  1  0  0  0
 77 78  1  0  0  0
 77 79  1  0  0  0
 77151  1  0  0  0
 77152  1  0  0  0
 78 80  1  0  0  0
 78153  1  0  0  0
 78154  1  0  0  0
 79 81  1  0  0  0
 79155  1  0  0  0
 79156  1  0  0  0
 80157  1  0  0  0
 81158  1  0  0  0
 81159  1  0  0  0
M  CHG  1  81   1
M  ISO  4   1 100  68 101  76 101  80 100
M  END
> <chiral flag>
0

> <version>
0

> <s_m_source_file>
/data/baiqing/PycharmProjects/Reinvent-master-3.2/result/LINK_invent/BTK/process_docking_weight1_custom_sum_contain_oxygen_bond_distance_aromatic_linkinvent_7_9_3/rearranged_h_0129.sdf

> <i_m_source_file_index>
38

> <r_mmod_Potential_Energy-OPLS-2005>
-114.453392028809

> <r_mmod_Stretch_Energy-OPLS-2005>
63.8817443847656

> <r_mmod_Bend_Energy-OPLS-2005>
125.254119873047

> <r_mmod_Torsional_Energy-OPLS-2005>
252.484603881836

> <r_mmod_Improper_Torsional_Energy-OPLS-2005>
4.19567441940308

> <r_mmod_Van_der_Waal_Energy-OPLS-2005>
131.839462280273

> <r_mmod_Electrostatic_Energy-OPLS-2005>
-247.902252197266

> <r_mmod_Solvation_Energy-OPLS-2005>
-479.072906494141

> <b_mmod_Minimization_Converged-OPLS-2005>
0

> <r_mmod_RMS_Derivative-OPLS-2005>
1.45481252670288

$$$$
38
                    3D
 Structure written by MMmdl.
162170  0  0  1  0            999 V2000
  -30.7978  -14.4880   20.5972 C   0  0  0  0  0  0
  -30.3861  -12.3365   19.4537 C   0  0  0  0  0  0
  -29.5097  -12.5243   18.1915 C   0  0  0  0  0  0
  -28.0199  -12.8143   18.4964 C   0  0  0  0  0  0
  -27.7020  -12.7282   19.9857 C   0  0  2  0  0  0
  -28.6982  -13.2025   21.0413 C   0  0  0  0  0  0
  -25.3082  -13.7433   20.5423 C   0  0  0  0  0  0
  -24.1820  -13.0382   20.9082 C   0  0  0  0  0  0
  -24.5671  -11.6681   20.8993 C   0  0  0  0  0  0
  -23.8355  -10.4245   21.0728 C   0  0  0  0  0  0
  -24.3165   -9.4166   21.9363 C   0  0  0  0  0  0
  -23.6098   -8.2070   22.0764 C   0  0  0  0  0  0
  -22.4100   -8.0106   21.3522 C   0  0  0  0  0  0
  -21.9591   -9.0038   20.4678 C   0  0  0  0  0  0
  -22.6668  -10.2042   20.3229 C   0  0  0  0  0  0
  -21.6793   -6.0639   22.5242 C   0  0  0  0  0  0
  -21.3972   -6.5575   23.8166 C   0  0  0  0  0  0
  -21.3667   -5.6744   24.9141 C   0  0  0  0  0  0
  -21.6045   -4.3013   24.7214 C   0  0  0  0  0  0
  -21.8837   -3.8085   23.4340 C   0  0  0  0  0  0
  -21.9194   -4.6881   22.3394 C   0  0  0  0  0  0
  -22.7988  -13.5589   21.1721 C   0  0  0  0  0  0
  -22.1672   -4.2113   21.0978 F   0  0  0  0  0  0
  -21.5657   -3.4493   25.7714 F   0  0  0  0  0  0
  -30.0421  -13.3669   20.4548 N   0  0  0  0  0  0
  -26.2996  -12.7711   20.3685 N   0  0  0  0  0  0
  -25.8294  -11.5428   20.6141 N   0  0  0  0  0  0
  -22.0419  -12.8694   22.0227 N   0  0  0  0  0  0
  -25.5547  -15.0962   20.3439 N   0  0  0  0  0  0
  -31.8498  -14.6667   19.9869 O   0  0  0  0  0  0
  -21.6537   -6.8684   21.4175 O   0  0  0  0  0  0
  -22.3900  -14.5966   20.6562 O   0  0  0  0  0  0
  -24.6110  -31.8734   23.2136 C   0  0  0  0  0  0
  -25.9007  -32.4878   23.8423 C   0  0  1  0  0  0
  -27.2307  -27.4573   20.0772 C   0  0  0  0  0  0
  -25.5904  -33.8668   24.2372 N   0  0  0  0  0  0
  -23.3967  -30.4920   21.5605 C   0  0  2  0  0  0
  -24.8399  -28.9522   20.1344 C   0  0  0  0  0  0
  -22.7398  -29.4676   22.5086 C   0  0  0  0  0  0
  -18.0257  -28.1359   22.8508 C   0  0  0  0  0  0
  -24.1480  -36.7292   23.2624 C   0  0  0  0  0  0
  -25.9226  -30.8408   21.3603 C   0  0  0  0  0  0
  -26.0011  -29.4702   20.7205 C   0  0  0  0  0  0
  -27.2018  -28.7269   20.6973 C   0  0  0  0  0  0
  -26.0511  -26.9414   19.5035 C   0  0  0  0  0  0
  -24.8552  -27.6807   19.5364 C   0  0  0  0  0  0
  -23.6006  -29.8180   20.1792 C   0  0  0  0  0  0
  -25.4106  -36.3138   24.0350 C   0  0  1  0  0  0
  -20.5845  -28.3657   23.1366 C   0  0  2  0  0  0
  -20.6745  -26.9405   22.5423 C   0  0  0  0  0  0
  -19.5716  -26.6392   21.5218 C   0  0  0  0  0  0
  -18.1901  -26.7915   22.1622 C   0  0  0  0  0  0
  -19.1501  -28.8820   23.2937 C   0  0  0  0  0  0
  -18.9417  -30.1422   23.8950 C   0  0  0  0  0  0
  -17.6427  -30.6574   24.0566 C   0  0  0  0  0  0
  -25.9028  -34.9517   23.5162 C   0  0  0  0  0  0
  -16.5328  -29.9075   23.6324 C   0  0  0  0  0  0
  -16.7246  -28.6479   23.0374 C   0  0  0  0  0  0
  -26.4407  -31.6626   25.0728 C   0  0  0  0  0  0
  -25.3661  -31.3766   26.1490 C   0  0  0  0  0  0
  -27.0164  -30.3060   24.6044 C   0  0  0  0  0  0
  -27.6039  -32.4286   25.7491 C   0  0  0  0  0  0
  -27.5593  -37.1819   24.8482 C   0  0  0  0  0  0
  -21.4131  -29.3027   22.3797 N   0  0  0  0  0  0
  -26.4299  -37.3826   23.9429 N   0  0  0  0  0  0
  -24.6624  -31.0826   22.1042 N   0  0  0  0  0  0
  -23.4195  -28.8238   23.3125 O   0  0  0  0  0  0
  -28.4070  -26.7719   19.9079 O   0  0  0  0  0  0
  -26.5576  -34.8956   22.4712 O   0  0  0  0  0  0
  -23.5294  -32.1469   23.7524 O   0  0  0  0  0  0
  -28.8148  -22.3860   19.5198 C   0  0  0  0  0  0
  -28.9025  -23.6899   21.9837 C   0  0  0  0  0  0
  -28.8161  -23.8031   19.5558 C   0  0  0  0  0  0
  -28.8971  -22.2782   21.9489 C   0  0  0  0  0  0
  -28.8348  -21.6059   20.7012 C   0  0  0  0  0  0
  -28.8422  -24.4725   20.8113 C   0  0  0  0  0  0
  -28.7755  -24.5557   18.2303 C   0  0  0  0  0  0
  -28.9510  -21.5282   23.2696 C   0  0  0  0  0  0
  -28.6635  -20.0783   20.6023 C   0  0  0  0  0  0
  -28.8890  -25.9993   20.9992 C   0  0  0  0  0  0
  -30.7023  -16.8731   21.4334 C   0  0  0  0  0  0
  -29.5822  -17.7930   20.8666 C   0  0  0  0  0  0
  -30.2985  -15.4533   21.3905 N   0  0  0  0  0  0
  -29.8461  -19.2548   20.9664 N   0  3  0  0  0  0
  -31.4420  -12.3440   19.1792 H   0  0  0  0  0  0
  -30.2186  -11.3511   19.8909 H   0  0  0  0  0  0
  -29.5914  -11.6380   17.5572 H   0  0  0  0  0  0
  -29.9070  -13.3528   17.6031 H   0  0  0  0  0  0
  -27.3805  -12.1346   17.9283 H   0  0  0  0  0  0
  -27.7657  -13.8136   18.1406 H   0  0  0  0  0  0
  -27.9469  -11.6622   20.0617 H   0  0  0  0  0  0
  -28.7613  -12.4759   21.8541 H   0  0  0  0  0  0
  -28.2880  -14.1078   21.4884 H   0  0  0  0  0  0
  -25.2274   -9.5745   22.4958 H   0  0  0  0  0  0
  -23.9964   -7.4456   22.7407 H   0  0  0  0  0  0
  -21.0540   -8.8392   19.9004 H   0  0  0  0  0  0
  -22.3029  -10.9595   19.6405 H   0  0  0  0  0  0
  -21.1926   -7.6089   23.9644 H   0  0  0  0  0  0
  -21.1504   -6.0482   25.9040 H   0  0  0  0  0  0
  -22.0643   -2.7561   23.2783 H   0  0  0  0  0  0
  -22.3801  -12.0270   22.4618 H   0  0  0  0  0  0
  -21.1078  -13.1889   22.2363 H   0  0  0  0  0  0
  -26.4203  -15.4336   19.9405 H   0  0  0  0  0  0
  -24.8091  -15.7826   20.3358 H   0  0  0  0  0  0
  -26.7138  -32.5582   23.1239 H   0  0  0  0  0  0
  -25.0143  -33.9885   25.0574 H   0  0  0  0  0  0
  -22.6828  -31.3070   21.4225 H   0  0  0  0  0  0
  -23.3775  -35.9593   23.3297 H   0  0  0  0  0  0
  -24.3573  -36.8853   22.2034 H   0  0  0  0  0  0
  -23.7189  -37.6500   23.6578 H   0  0  0  0  0  0
  -26.0169  -31.6005   20.5818 H   0  0  0  0  0  0
  -26.8183  -30.9089   21.9659 H   0  0  0  0  0  0
  -28.1088  -29.1414   21.1107 H   0  0  0  0  0  0
  -26.0512  -25.9752   19.0210 H   0  0  0  0  0  0
  -23.9561  -27.2764   19.0904 H   0  0  0  0  0  0
  -23.7082  -30.5879   19.4146 H   0  0  0  0  0  0
  -22.7224  -29.2367   19.8926 H   0  0  0  0  0  0
  -25.1273  -36.2049   25.0846 H   0  0  0  0  0  0
  -20.9910  -28.3188   24.1508 H   0  0  0  0  0  0
  -20.5667  -26.2262   23.3595 H   0  0  0  0  0  0
  -21.6614  -26.7476   22.1207 H   0  0  0  0  0  0
  -19.6895  -25.6326   21.1200 H   0  0  0  0  0  0
  -19.6636  -27.3232   20.6775 H   0  0  0  0  0  0
  -17.4177  -26.6698   21.4015 H   0  0  0  0  0  0
  -18.0293  -26.0036   22.8991 H   0  0  0  0  0  0
  -19.7897  -30.7211   24.2353 H   0  0  0  0  0  0
  -17.4983  -31.6268   24.5134 H   0  0  0  0  0  0
  -15.5320  -30.2992   23.7593 H   0  0  0  0  0  0
  -15.8657  -28.0791   22.7101 H   0  0  0  0  0  0
  -24.5890  -30.7017   25.7884 H   0  0  0  0  0  0
  -24.8734  -32.2906   26.4830 H   0  0  0  0  0  0
  -25.8006  -30.9075   27.0323 H   0  0  0  0  0  0
  -26.2695  -29.7010   24.0885 H   0  0  0  0  0  0
  -27.3688  -29.7146   25.4501 H   0  0  0  0  0  0
  -27.8653  -30.4379   23.9323 H   0  0  0  0  0  0
  -27.2743  -33.3641   26.2046 H   0  0  0  0  0  0
  -28.3885  -32.6746   25.0314 H   0  0  0  0  0  0
  -28.0653  -31.8371   26.5414 H   0  0  0  0  0  0
  -28.2642  -38.0092   24.7544 H   0  0  0  0  0  0
  -28.1055  -36.2629   24.6296 H   0  0  0  0  0  0
  -27.2304  -37.1492   25.8884 H   0  0  0  0  0  0
  -20.9291  -29.8727   21.6997 H   0  0  0  0  0  0
  -26.0198  -38.2908   24.1434 H   0  0  0  0  0  0
  -28.7660  -21.8892   18.5597 H   0  0  0  0  0  0
  -28.9476  -24.1945   22.9367 H   0  0  0  0  0  0
  -28.9082  -23.8910   17.3786 H   0  0  0  0  0  0
  -29.5629  -25.3091   18.1793 H   0  0  0  0  0  0
  -27.8131  -25.0466   18.0921 H   0  0  0  0  0  0
  -28.9493  -22.2266   24.1055 H   0  0  0  0  0  0
  -29.8679  -20.9451   23.3463 H   0  0  0  0  0  0
  -28.0940  -20.8662   23.4009 H   0  0  0  0  0  0
  -28.3443  -19.8201   19.5914 H   0  0  0  0  0  0
  -27.8268  -19.7986   21.2433 H   0  0  0  0  0  0
  -29.9327  -26.2781   21.1557 H   0  0  0  0  0  0
  -28.3688  -26.2724   21.9198 H   0  0  0  0  0  0
  -30.9188  -17.1366   22.4699 H   0  0  0  0  0  0
  -31.6276  -17.0247   20.8772 H   0  0  0  0  0  0
  -28.6509  -17.5751   21.3890 H   0  0  0  0  0  0
  -29.4147  -17.5492   19.8171 H   0  0  0  0  0  0
  -29.4925  -15.1939   21.9391 H   0  0  0  0  0  0
  -30.6208  -19.5020   20.3738 H   0  0  0  0  0  0
  -30.1019  -19.4712   21.9136 H   0  0  0  0  0  0
  1 25  1  0  0  0
  1 30  2  0  0  0
  1 83  1  0  0  0
  2  3  1  0  0  0
  2 25  1  0  0  0
  2 85  1  0  0  0
  2 86  1  0  0  0
  3  4  1  0  0  0
  3 87  1  0  0  0
  3 88  1  0  0  0
  4  5  1  0  0  0
  4 89  1  0  0  0
  4 90  1  0  0  0
  5  6  1  0  0  0
  5 26  1  0  0  0
  5 91  1  0  0  0
  6 25  1  0  0  0
  6 92  1  0  0  0
  6 93  1  0  0  0
  7  8  2  0  0  0
  7 26  1  0  0  0
  7 29  1  0  0  0
  8  9  1  0  0  0
  8 22  1  0  0  0
  9 10  1  0  0  0
  9 27  2  0  0  0
 10 11  2  0  0  0
 10 15  1  0  0  0
 11 12  1  0  0  0
 11 94  1  0  0  0
 12 13  2  0  0  0
 12 95  1  0  0  0
 13 14  1  0  0  0
 13 31  1  0  0  0
 14 15  2  0  0  0
 14 96  1  0  0  0
 15 97  1  0  0  0
 16 17  2  0  0  0
 16 21  1  0  0  0
 16 31  1  0  0  0
 17 18  1  0  0  0
 17 98  1  0  0  0
 18 19  2  0  0  0
 18 99  1  0  0  0
 19 20  1  0  0  0
 19 24  1  0  0  0
 20 21  2  0  0  0
 20100  1  0  0  0
 21 23  1  0  0  0
 22 28  1  0  0  0
 22 32  2  0  0  0
 26 27  1  0  0  0
 28101  1  0  0  0
 28102  1  0  0  0
 29103  1  0  0  0
 29104  1  0  0  0
 33 34  1  0  0  0
 33 66  1  0  0  0
 33 70  2  0  0  0
 34 36  1  0  0  0
 34 59  1  0  0  0
 34105  1  0  0  0
 35 44  2  0  0  0
 35 45  1  0  0  0
 35 68  1  0  0  0
 36 56  1  0  0  0
 36106  1  0  0  0
 37 39  1  0  0  0
 37 47  1  0  0  0
 37 66  1  0  0  0
 37107  1  0  0  0
 38 43  2  0  0  0
 38 46  1  0  0  0
 38 47  1  0  0  0
 39 64  1  0  0  0
 39 67  2  0  0  0
 40 52  1  0  0  0
 40 53  2  0  0  0
 40 58  1  0  0  0
 41108  1  0  0  0
 41109  1  0  0  0
 41110  1  0  0  0
 41 48  1  0  0  0
 42 43  1  0  0  0
 42 66  1  0  0  0
 42111  1  0  0  0
 42112  1  0  0  0
 43 44  1  0  0  0
 44113  1  0  0  0
 45 46  2  0  0  0
 45114  1  0  0  0
 46115  1  0  0  0
 47116  1  0  0  0
 47117  1  0  0  0
 48 56  1  0  0  0
 48 65  1  0  0  0
 48118  1  0  0  0
 49 50  1  0  0  0
 49 53  1  0  0  0
 49 64  1  0  0  0
 49119  1  0  0  0
 50 51  1  0  0  0
 50120  1  0  0  0
 50121  1  0  0  0
 51 52  1  0  0  0
 51122  1  0  0  0
 51123  1  0  0  0
 52124  1  0  0  0
 52125  1  0  0  0
 53 54  1  0  0  0
 54 55  2  0  0  0
 54126  1  0  0  0
 55 57  1  0  0  0
 55127  1  0  0  0
 56 69  2  0  0  0
 57 58  2  0  0  0
 57128  1  0  0  0
 58129  1  0  0  0
 59 60  1  0  0  0
 59 61  1  0  0  0
 59 62  1  0  0  0
 60130  1  0  0  0
 60131  1  0  0  0
 60132  1  0  0  0
 61133  1  0  0  0
 61134  1  0  0  0
 61135  1  0  0  0
 62136  1  0  0  0
 62137  1  0  0  0
 62138  1  0  0  0
 63 65  1  0  0  0
 63139  1  0  0  0
 63140  1  0  0  0
 63141  1  0  0  0
 64142  1  0  0  0
 65143  1  0  0  0
 68 80  1  0  0  0
 71 73  2  0  0  0
 71 75  1  0  0  0
 71144  1  0  0  0
 72 74  1  0  0  0
 72 76  2  0  0  0
 72145  1  0  0  0
 73 76  1  0  0  0
 73 77  1  0  0  0
 74 75  2  0  0  0
 74 78  1  0  0  0
 75 79  1  0  0  0
 76 80  1  0  0  0
 77146  1  0  0  0
 77147  1  0  0  0
 77148  1  0  0  0
 78149  1  0  0  0
 78150  1  0  0  0
 78151  1  0  0  0
 79 84  1  0  0  0
 79152  1  0  0  0
 79153  1  0  0  0
 80154  1  0  0  0
 80155  1  0  0  0
 81 82  1  0  0  0
 81 83  1  0  0  0
 81156  1  0  0  0
 81157  1  0  0  0
 82 84  1  0  0  0
 82158  1  0  0  0
 82159  1  0  0  0
 83160  1  0  0  0
 84161  1  0  0  0
 84162  1  0  0  0
M  CHG  1  84   1
M  ISO  4   1 100  68 101  80 101  83 100
M  END
> <chiral flag>
0

> <version>
0

> <s_m_source_file>
/data/baiqing/PycharmProjects/Reinvent-master-3.2/result/LINK_invent/BTK/process_docking_weight1_custom_sum_contain_oxygen_bond_distance_aromatic_linkinvent_7_9_3/rearranged_h_0129.sdf

> <i_m_source_file_index>
39

> <r_mmod_Potential_Energy-OPLS-2005>
-123.281951904297

> <r_mmod_Stretch_Energy-OPLS-2005>
38.0907707214355

> <r_mmod_Bend_Energy-OPLS-2005>
150.626892089844

> <r_mmod_Torsional_Energy-OPLS-2005>
248.946792602539

> <r_mmod_Improper_Torsional_Energy-OPLS-2005>
3.65549612045288

> <r_mmod_Van_der_Waal_Energy-OPLS-2005>
164.013763427734

> <r_mmod_Electrostatic_Energy-OPLS-2005>
-329.395812988281

> <r_mmod_Solvation_Energy-OPLS-2005>
-476.513031005859

> <b_mmod_Minimization_Converged-OPLS-2005>
0

> <r_mmod_RMS_Derivative-OPLS-2005>
5.29900884628296

$$$$
39
                    3D
 Structure written by MMmdl.
156164  0  0  1  0            999 V2000
  -30.7472  -14.3714   20.6099 C   0  0  0  0  0  0
  -30.4037  -12.2430   19.3975 C   0  0  0  0  0  0
  -29.4942  -12.5003   18.1806 C   0  0  0  0  0  0
  -28.0125  -12.3748   18.5915 C   0  0  0  0  0  0
  -27.6663  -13.2011   19.8624 C   0  0  2  0  0  0
  -28.7017  -12.9470   20.9797 C   0  0  0  0  0  0
  -25.2616  -13.8150   20.5668 C   0  0  0  0  0  0
  -24.1845  -13.0403   20.9121 C   0  0  0  0  0  0
  -24.6426  -11.6879   20.8683 C   0  0  0  0  0  0
  -23.9117  -10.4255   21.0363 C   0  0  0  0  0  0
  -24.3654   -9.4200   21.9180 C   0  0  0  0  0  0
  -23.6317   -8.2238   22.0769 C   0  0  0  0  0  0
  -22.4312   -8.0269   21.3561 C   0  0  0  0  0  0
  -21.9936   -9.0229   20.4659 C   0  0  0  0  0  0
  -22.7275  -10.2096   20.3038 C   0  0  0  0  0  0
  -21.6875   -6.0712   22.5291 C   0  0  0  0  0  0
  -21.4006   -6.5617   23.8218 C   0  0  0  0  0  0
  -21.3657   -5.6777   24.9180 C   0  0  0  0  0  0
  -21.6027   -4.3043   24.7239 C   0  0  0  0  0  0
  -21.8821   -3.8121   23.4373 C   0  0  0  0  0  0
  -21.9193   -4.6925   22.3420 C   0  0  0  0  0  0
  -22.7860  -13.5202   21.1789 C   0  0  0  0  0  0
  -22.1677   -4.2091   21.1006 F   0  0  0  0  0  0
  -21.5630   -3.4555   25.7775 F   0  0  0  0  0  0
  -30.0528  -13.2139   20.4446 N   0  0  0  0  0  0
  -26.3060  -12.9301   20.3289 N   0  0  0  0  0  0
  -25.9355  -11.6454   20.5701 N   0  0  0  0  0  0
  -22.0474  -12.8177   22.0321 N   0  0  0  0  0  0
  -25.4364  -15.1873   20.4221 N   0  0  0  0  0  0
  -31.7932  -14.6310   20.0097 O   0  0  0  0  0  0
  -21.6676   -6.8851   21.4250 O   0  0  0  0  0  0
  -22.3557  -14.5539   20.6692 O   0  0  0  0  0  0
  -24.6117  -31.8677   23.2106 C   0  0  0  0  0  0
  -25.9006  -32.4828   23.8418 C   0  0  1  0  0  0
  -27.2416  -27.4488   20.1009 C   0  0  0  0  0  0
  -25.5872  -33.8635   24.2350 N   0  0  0  0  0  0
  -23.4034  -30.4889   21.5450 C   0  0  2  0  0  0
  -24.8560  -28.9559   20.1133 C   0  0  0  0  0  0
  -22.7420  -29.4638   22.4942 C   0  0  0  0  0  0
  -18.0289  -28.1381   22.8499 C   0  0  0  0  0  0
  -24.1480  -36.7322   23.2637 C   0  0  0  0  0  0
  -25.9298  -30.8396   21.3598 C   0  0  0  0  0  0
  -26.0116  -29.4730   20.7104 C   0  0  0  0  0  0
  -27.2124  -28.7288   20.6959 C   0  0  0  0  0  0
  -26.0690  -26.9352   19.5088 C   0  0  0  0  0  0
  -24.8784  -27.6882   19.5057 C   0  0  0  0  0  0
  -23.6149  -29.8188   20.1597 C   0  0  0  0  0  0
  -25.4105  -36.3127   24.0340 C   0  0  1  0  0  0
  -20.5878  -28.3659   23.1323 C   0  0  2  0  0  0
  -20.6768  -26.9386   22.5428 C   0  0  0  0  0  0
  -19.5738  -26.6386   21.5226 C   0  0  0  0  0  0
  -18.1919  -26.7932   22.1636 C   0  0  0  0  0  0
  -19.1535  -28.8838   23.2917 C   0  0  0  0  0  0
  -18.9449  -30.1456   23.8902 C   0  0  0  0  0  0
  -17.6438  -30.6577   24.0569 C   0  0  0  0  0  0
  -25.9024  -34.9481   23.5151 C   0  0  0  0  0  0
  -16.5344  -29.9076   23.6323 C   0  0  0  0  0  0
  -16.7270  -28.6512   23.0325 C   0  0  0  0  0  0
  -26.4449  -31.6597   25.0742 C   0  0  0  0  0  0
  -25.3735  -31.3664   26.1509 C   0  0  0  0  0  0
  -27.0278  -30.3054   24.6092 C   0  0  0  0  0  0
  -27.6050  -32.4311   25.7480 C   0  0  0  0  0  0
  -27.5585  -37.1820   24.8476 C   0  0  0  0  0  0
  -21.4150  -29.3029   22.3717 N   0  0  0  0  0  0
  -26.4305  -37.3811   23.9412 N   0  0  0  0  0  0
  -24.6661  -31.0798   22.0973 N   0  0  0  0  0  0
  -23.4217  -28.8144   23.2941 O   0  0  0  0  0  0
  -28.4044  -26.7170   20.0678 O   0  0  0  0  0  0
  -26.5590  -34.8920   22.4713 O   0  0  0  0  0  0
  -23.5311  -32.1408   23.7513 O   0  0  0  0  0  0
  -30.5773  -18.8835   20.7285 C   0  0  0  0  0  0
  -28.5893  -18.4710   22.0716 C   0  0  0  0  0  0
  -30.8459  -17.4940   20.7106 C   0  0  0  0  0  0
  -28.8723  -17.0967   22.0814 C   0  0  0  0  0  0
  -29.4423  -19.3813   21.4139 C   0  0  0  0  0  0
  -30.0040  -16.5938   21.4100 C   0  0  0  0  0  0
  -29.1169  -20.8640   21.5824 C   0  0  0  0  0  0
  -29.7098  -21.9141   20.6159 C   0  0  0  0  0  0
  -29.0976  -24.3474   20.1700 C   0  0  0  0  0  0
  -28.3900  -25.5316   20.8694 C   0  0  0  0  0  0
  -30.2167  -15.1951   21.5223 N   0  0  0  0  0  0
  -29.3684  -23.2594   21.1416 N   0  3  0  0  0  0
  -31.4577  -12.2830   19.1198 H   0  0  0  0  0  0
  -30.2324  -11.2287   19.7612 H   0  0  0  0  0  0
  -29.7157  -11.7833   17.3877 H   0  0  0  0  0  0
  -29.6957  -13.4873   17.7601 H   0  0  0  0  0  0
  -27.8242  -11.3182   18.7766 H   0  0  0  0  0  0
  -27.3626  -12.6458   17.7575 H   0  0  0  0  0  0
  -27.7247  -14.2538   19.5863 H   0  0  0  0  0  0
  -28.6480  -11.9093   21.3103 H   0  0  0  0  0  0
  -28.4386  -13.5398   21.8584 H   0  0  0  0  0  0
  -25.2791   -9.5662   22.4767 H   0  0  0  0  0  0
  -23.9985   -7.4633   22.7515 H   0  0  0  0  0  0
  -21.0851   -8.8750   19.8998 H   0  0  0  0  0  0
  -22.3742  -10.9618   19.6131 H   0  0  0  0  0  0
  -21.1998   -7.6114   23.9733 H   0  0  0  0  0  0
  -21.1504   -6.0492   25.9092 H   0  0  0  0  0  0
  -22.0610   -2.7584   23.2906 H   0  0  0  0  0  0
  -22.4046  -11.9916   22.4889 H   0  0  0  0  0  0
  -21.1094  -13.1262   22.2461 H   0  0  0  0  0  0
  -24.6825  -15.8519   20.5573 H   0  0  0  0  0  0
  -26.3118  -15.6318   20.1756 H   0  0  0  0  0  0
  -26.7074  -32.5537   23.1186 H   0  0  0  0  0  0
  -25.0072  -33.9802   25.0530 H   0  0  0  0  0  0
  -22.6917  -31.3037   21.4021 H   0  0  0  0  0  0
  -23.3756  -35.9648   23.3341 H   0  0  0  0  0  0
  -24.3571  -36.8906   22.2045 H   0  0  0  0  0  0
  -23.7228  -37.6535   23.6630 H   0  0  0  0  0  0
  -26.0357  -31.6020   20.5865 H   0  0  0  0  0  0
  -26.8176  -30.9010   21.9756 H   0  0  0  0  0  0
  -28.1079  -29.1266   21.1555 H   0  0  0  0  0  0
  -26.0779  -25.9598   19.0465 H   0  0  0  0  0  0
  -23.9916  -27.2905   19.0345 H   0  0  0  0  0  0
  -23.7144  -30.5888   19.3943 H   0  0  0  0  0  0
  -22.7459  -29.2264   19.8669 H   0  0  0  0  0  0
  -25.1281  -36.2017   25.0838 H   0  0  0  0  0  0
  -20.9985  -28.3210   24.1436 H   0  0  0  0  0  0
  -20.5669  -26.2234   23.3600 H   0  0  0  0  0  0
  -21.6626  -26.7407   22.1193 H   0  0  0  0  0  0
  -19.6871  -25.6306   21.1217 H   0  0  0  0  0  0
  -19.6684  -27.3221   20.6769 H   0  0  0  0  0  0
  -17.4196  -26.6713   21.4032 H   0  0  0  0  0  0
  -18.0301  -26.0074   22.9018 H   0  0  0  0  0  0
  -19.7917  -30.7310   24.2238 H   0  0  0  0  0  0
  -17.4981  -31.6234   24.5200 H   0  0  0  0  0  0
  -15.5343  -30.2965   23.7640 H   0  0  0  0  0  0
  -15.8685  -28.0843   22.6981 H   0  0  0  0  0  0
  -24.5940  -30.6969   25.7863 H   0  0  0  0  0  0
  -24.8875  -32.2779   26.4996 H   0  0  0  0  0  0
  -25.8122  -30.8838   27.0254 H   0  0  0  0  0  0
  -26.2797  -29.6823   24.1186 H   0  0  0  0  0  0
  -27.4103  -29.7295   25.4529 H   0  0  0  0  0  0
  -27.8606  -30.4412   23.9196 H   0  0  0  0  0  0
  -27.2720  -33.3641   26.2047 H   0  0  0  0  0  0
  -28.3853  -32.6825   25.0281 H   0  0  0  0  0  0
  -28.0719  -31.8434   26.5396 H   0  0  0  0  0  0
  -28.2629  -38.0089   24.7521 H   0  0  0  0  0  0
  -28.1048  -36.2631   24.6318 H   0  0  0  0  0  0
  -27.2297  -37.1498   25.8875 H   0  0  0  0  0  0
  -20.9294  -29.8804   21.6988 H   0  0  0  0  0  0
  -26.0208  -38.2902   24.1408 H   0  0  0  0  0  0
  -31.2668  -19.5515   20.2300 H   0  0  0  0  0  0
  -27.7233  -18.8283   22.6136 H   0  0  0  0  0  0
  -31.7174  -17.1365   20.1800 H   0  0  0  0  0  0
  -28.2183  -16.4316   22.6291 H   0  0  0  0  0  0
  -29.3707  -21.1314   22.6094 H   0  0  0  0  0  0
  -28.0322  -20.9386   21.5097 H   0  0  0  0  0  0
  -29.3065  -21.7702   19.6131 H   0  0  0  0  0  0
  -30.7944  -21.8295   20.5403 H   0  0  0  0  0  0
  -30.0416  -24.6725   19.7287 H   0  0  0  0  0  0
  -28.4729  -23.9798   19.3554 H   0  0  0  0  0  0
  -28.8987  -25.7738   21.8038 H   0  0  0  0  0  0
  -27.3773  -25.2335   21.1518 H   0  0  0  0  0  0
  -29.5451  -14.7244   22.1088 H   0  0  0  0  0  0
  -30.1091  -23.5438   21.7648 H   0  0  0  0  0  0
  -28.5413  -23.1429   21.7070 H   0  0  0  0  0  0
  1 25  1  0  0  0
  1 30  2  0  0  0
  1 81  1  0  0  0
  2  3  1  0  0  0
  2 25  1  0  0  0
  2 83  1  0  0  0
  2 84  1  0  0  0
  3  4  1  0  0  0
  3 85  1  0  0  0
  3 86  1  0  0  0
  4  5  1  0  0  0
  4 87  1  0  0  0
  4 88  1  0  0  0
  5  6  1  0  0  0
  5 26  1  0  0  0
  5 89  1  0  0  0
  6 25  1  0  0  0
  6 90  1  0  0  0
  6 91  1  0  0  0
  7  8  2  0  0  0
  7 26  1  0  0  0
  7 29  1  0  0  0
  8  9  1  0  0  0
  8 22  1  0  0  0
  9 10  1  0  0  0
  9 27  2  0  0  0
 10 11  2  0  0  0
 10 15  1  0  0  0
 11 12  1  0  0  0
 11 92  1  0  0  0
 12 13  2  0  0  0
 12 93  1  0  0  0
 13 14  1  0  0  0
 13 31  1  0  0  0
 14 15  2  0  0  0
 14 94  1  0  0  0
 15 95  1  0  0  0
 16 17  2  0  0  0
 16 21  1  0  0  0
 16 31  1  0  0  0
 17 18  1  0  0  0
 17 96  1  0  0  0
 18 19  2  0  0  0
 18 97  1  0  0  0
 19 20  1  0  0  0
 19 24  1  0  0  0
 20 21  2  0  0  0
 20 98  1  0  0  0
 21 23  1  0  0  0
 22 28  1  0  0  0
 22 32  2  0  0  0
 26 27  1  0  0  0
 28 99  1  0  0  0
 28100  1  0  0  0
 29101  1  0  0  0
 29102  1  0  0  0
 33 34  1  0  0  0
 33 66  1  0  0  0
 33 70  2  0  0  0
 34 36  1  0  0  0
 34 59  1  0  0  0
 34103  1  0  0  0
 35 44  2  0  0  0
 35 45  1  0  0  0
 35 68  1  0  0  0
 36 56  1  0  0  0
 36104  1  0  0  0
 37 39  1  0  0  0
 37 47  1  0  0  0
 37 66  1  0  0  0
 37105  1  0  0  0
 38 43  2  0  0  0
 38 46  1  0  0  0
 38 47  1  0  0  0
 39 64  1  0  0  0
 39 67  2  0  0  0
 40 52  1  0  0  0
 40 53  2  0  0  0
 40 58  1  0  0  0
 41106  1  0  0  0
 41107  1  0  0  0
 41108  1  0  0  0
 41 48  1  0  0  0
 42 43  1  0  0  0
 42 66  1  0  0  0
 42109  1  0  0  0
 42110  1  0  0  0
 43 44  1  0  0  0
 44111  1  0  0  0
 45 46  2  0  0  0
 45112  1  0  0  0
 46113  1  0  0  0
 47114  1  0  0  0
 47115  1  0  0  0
 48 56  1  0  0  0
 48 65  1  0  0  0
 48116  1  0  0  0
 49 50  1  0  0  0
 49 53  1  0  0  0
 49 64  1  0  0  0
 49117  1  0  0  0
 50 51  1  0  0  0
 50118  1  0  0  0
 50119  1  0  0  0
 51 52  1  0  0  0
 51120  1  0  0  0
 51121  1  0  0  0
 52122  1  0  0  0
 52123  1  0  0  0
 53 54  1  0  0  0
 54 55  2  0  0  0
 54124  1  0  0  0
 55 57  1  0  0  0
 55125  1  0  0  0
 56 69  2  0  0  0
 57 58  2  0  0  0
 57126  1  0  0  0
 58127  1  0  0  0
 59 60  1  0  0  0
 59 61  1  0  0  0
 59 62  1  0  0  0
 60128  1  0  0  0
 60129  1  0  0  0
 60130  1  0  0  0
 61131  1  0  0  0
 61132  1  0  0  0
 61133  1  0  0  0
 62134  1  0  0  0
 62135  1  0  0  0
 62136  1  0  0  0
 63 65  1  0  0  0
 63137  1  0  0  0
 63138  1  0  0  0
 63139  1  0  0  0
 64140  1  0  0  0
 65141  1  0  0  0
 68 80  1  0  0  0
 71 73  2  0  0  0
 71 75  1  0  0  0
 71142  1  0  0  0
 72 74  1  0  0  0
 72 75  2  0  0  0
 72143  1  0  0  0
 73 76  1  0  0  0
 73144  1  0  0  0
 74 76  2  0  0  0
 74145  1  0  0  0
 75 77  1  0  0  0
 76 81  1  0  0  0
 77 78  1  0  0  0
 77146  1  0  0  0
 77147  1  0  0  0
 78 82  1  0  0  0
 78148  1  0  0  0
 78149  1  0  0  0
 79 80  1  0  0  0
 79 82  1  0  0  0
 79150  1  0  0  0
 79151  1  0  0  0
 80152  1  0  0  0
 80153  1  0  0  0
 81154  1  0  0  0
 82155  1  0  0  0
 82156  1  0  0  0
M  CHG  1  82   1
M  ISO  4   1 100  68 101  80 101  81 100
M  END
> <chiral flag>
0

> <version>
0

> <s_m_source_file>
/data/baiqing/PycharmProjects/Reinvent-master-3.2/result/LINK_invent/BTK/process_docking_weight1_custom_sum_contain_oxygen_bond_distance_aromatic_linkinvent_7_9_3/rearranged_h_0129.sdf

> <i_m_source_file_index>
40

> <r_mmod_Potential_Energy-OPLS-2005>
-164.602294921875

> <r_mmod_Stretch_Energy-OPLS-2005>
34.7913513183594

> <r_mmod_Bend_Energy-OPLS-2005>
106.250984191895

> <r_mmod_Torsional_Energy-OPLS-2005>
246.887756347656

> <r_mmod_Improper_Torsional_Energy-OPLS-2005>
4.37498092651367

> <r_mmod_Van_der_Waal_Energy-OPLS-2005>
148.57048034668

> <r_mmod_Electrostatic_Energy-OPLS-2005>
-250.921005249023

> <r_mmod_Solvation_Energy-OPLS-2005>
-462.492828369141

> <b_mmod_Minimization_Converged-OPLS-2005>
0

> <r_mmod_RMS_Derivative-OPLS-2005>
4.50672006607056

$$$$
40
                    3D
 Structure written by MMmdl.
174182  0  0  1  0            999 V2000
  -30.3857  -14.3753   19.2742 C   0  0  0  0  0  0
  -30.7899  -12.3217   20.0923 C   0  0  0  0  0  0
  -29.9831  -11.6429   19.0727 C   0  0  0  0  0  0
  -28.5407  -11.8300   19.5717 C   0  0  0  0  0  0
  -27.8012  -13.3172   19.9276 C   0  0  2  0  0  0
  -28.8455  -13.6616   21.0011 C   0  0  0  0  0  0
  -25.2952  -14.6538   19.8637 C   0  0  0  0  0  0
  -24.0426  -14.0835   20.1832 C   0  0  0  0  0  0
  -24.5460  -12.8240   20.6680 C   0  0  0  0  0  0
  -24.1106  -11.0383   21.8914 C   0  0  0  0  0  0
  -24.7126   -9.6744   22.1422 C   0  0  0  0  0  0
  -24.1227   -8.3065   22.0290 C   0  0  0  0  0  0
  -22.7818   -8.1028   21.5657 C   0  0  0  0  0  0
  -22.1333   -9.2917   21.3869 C   0  0  0  0  0  0
  -22.7805  -10.3552   22.1142 C   0  0  0  0  0  0
  -21.8286   -6.1042   22.5173 C   0  0  0  0  0  0
  -21.4934   -6.5918   23.8025 C   0  0  0  0  0  0
  -21.3718   -5.7009   24.8914 C   0  0  0  0  0  0
  -21.5793   -4.3196   24.7023 C   0  0  0  0  0  0
  -21.8508   -3.8242   23.4159 C   0  0  0  0  0  0
  -21.9557   -4.7111   22.3280 C   0  0  0  0  0  0
  -22.6501  -14.8139   20.3918 C   0  0  0  0  0  0
  -22.2009   -4.2211   21.0900 F   0  0  0  0  0  0
  -21.5223   -3.4672   25.7545 F   0  0  0  0  0  0
  -30.1264  -13.5901   20.2981 N   0  0  0  0  0  0
  -26.2941  -13.7114   19.9545 N   0  0  0  0  0  0
  -25.2496  -13.0955   19.5909 N   0  0  0  0  0  0
  -21.4888  -14.3938   20.9916 N   0  0  0  0  0  0
  -25.6538  -15.9130   19.5801 N   0  0  0  0  0  0
  -31.4238  -15.0392   19.4136 O   0  0  0  0  0  0
  -22.0459   -6.9301   21.4311 O   0  0  0  0  0  0
  -22.5762  -15.9407   20.0896 O   0  0  0  0  0  0
  -24.7458  -31.6923   23.1033 C   0  0  0  0  0  0
  -25.9733  -32.3876   23.7759 C   0  0  1  0  0  0
  -26.4516  -25.5144   20.7104 C   0  0  0  0  0  0
  -25.6039  -33.7805   24.1490 N   0  0  0  0  0  0
  -23.5778  -30.2895   21.4737 C   0  0  2  0  0  0
  -24.9202  -28.3968   20.1652 C   0  0  0  0  0  0
  -22.7842  -29.3807   22.4525 C   0  0  0  0  0  0
  -18.0334  -28.1442   22.8422 C   0  0  0  0  0  0
  -24.1504  -36.6907   23.2678 C   0  0  0  0  0  0
  -26.1326  -30.0017   21.5702 C   0  0  0  0  0  0
  -26.0306  -28.4479   20.9999 C   0  0  0  0  0  0
  -26.7742  -27.0617   21.2114 C   0  0  0  0  0  0
  -25.5762  -25.9644   19.6376 C   0  0  0  0  0  0
  -24.8323  -27.2029   19.4194 C   0  0  0  0  0  0
  -23.8609  -29.5437   20.1202 C   0  0  0  0  0  0
  -25.4187  -36.2575   24.0222 C   0  0  1  0  0  0
  -20.5958  -28.3789   23.1055 C   0  0  2  0  0  0
  -20.6743  -26.9400   22.5441 C   0  0  0  0  0  0
  -19.5752  -26.6329   21.5225 C   0  0  0  0  0  0
  -18.1931  -26.7965   22.1596 C   0  0  0  0  0  0
  -19.1605  -28.8958   23.2707 C   0  0  0  0  0  0
  -18.9523  -30.1536   23.8769 C   0  0  0  0  0  0
  -17.6512  -30.6614   24.0550 C   0  0  0  0  0  0
  -25.9220  -34.8978   23.4762 C   0  0  0  0  0  0
  -16.5398  -29.9092   23.6369 C   0  0  0  0  0  0
  -16.7316  -28.6521   23.0366 C   0  0  0  0  0  0
  -26.4703  -31.6395   25.0767 C   0  0  0  0  0  0
  -25.3566  -31.3989   26.1239 C   0  0  0  0  0  0
  -27.0805  -30.2656   24.7433 C   0  0  0  0  0  0
  -27.6000  -32.4528   25.7534 C   0  0  0  0  0  0
  -27.5532  -37.1608   24.8470 C   0  0  0  0  0  0
  -21.4466  -29.2891   22.3253 N   0  0  0  0  0  0
  -26.4239  -37.3426   23.9396 N   0  0  0  0  0  0
  -24.8639  -30.7342   22.0917 N   0  0  0  0  0  0
  -23.3963  -28.7509   23.3192 O   0  0  0  0  0  0
  -26.7647  -23.7285   21.0461 O   0  0  0  0  0  0
  -26.5979  -34.8720   22.4463 O   0  0  0  0  0  0
  -23.6367  -32.0619   23.5394 O   0  0  0  0  0  0
  -22.3977  -12.1434   20.6223 C   0  0  0  0  0  0
  -23.8273  -10.9039   19.5634 C   0  0  0  0  0  0
  -26.2951  -12.5629   22.0773 C   0  0  0  0  0  0
  -23.3227  -13.4495   22.5258 C   0  0  2  0  0  0
  -25.8968  -10.9731   20.2118 C   0  0  2  0  0  0
  -25.1862  -14.5945   22.4641 C   0  0  2  0  0  0
  -21.5655  -12.8359   24.4140 C   0  0  0  0  0  0
  -23.9227  -11.9377   24.7579 C   0  0  0  0  0  0
  -28.4532  -13.2325   17.2691 C   0  0  0  0  0  0
  -26.9004  -12.3325   17.5629 C   0  0  0  0  0  0
  -26.0861  -18.9571   21.8929 C   0  0  0  0  0  0
  -26.0862  -21.5030   21.2583 C   0  0  0  0  0  0
  -23.0546  -12.9920   24.0313 C   0  0  0  0  0  0
  -29.6005  -14.1908   18.0478 N   0  0  0  0  0  0
  -26.3679  -11.0852   18.5854 N   0  3  0  0  0  0
  -25.3482  -16.8192   21.9739 N   0  3  0  0  0  0
  -31.8361  -12.4139   19.7887 H   0  0  0  0  0  0
  -30.8023  -11.7575   21.0279 H   0  0  0  0  0  0
  -30.2747  -10.5881   19.1445 H   0  0  0  0  0  0
  -30.3066  -11.8761   18.0633 H   0  0  0  0  0  0
  -28.4477  -11.1912   20.4540 H   0  0  0  0  0  0
  -28.4689  -11.1616   18.7328 H   0  0  0  0  0  0
  -27.8625  -14.1920   19.3269 H   0  0  0  0  0  0
  -29.0320  -12.9813   21.8267 H   0  0  0  0  0  0
  -28.6880  -14.6605   21.4108 H   0  0  0  0  0  0
  -25.7654   -9.6564   22.3843 H   0  0  0  0  0  0
  -24.7331   -7.4432   22.2568 H   0  0  0  0  0  0
  -21.0585   -9.2490   21.2790 H   0  0  0  0  0  0
  -22.0199  -10.9701   22.5501 H   0  0  0  0  0  0
  -21.3696   -7.6538   23.9617 H   0  0  0  0  0  0
  -21.1434   -6.0854   25.8764 H   0  0  0  0  0  0
  -21.9878   -2.7639   23.2636 H   0  0  0  0  0  0
  -21.4093  -13.4431   21.3193 H   0  0  0  0  0  0
  -20.7041  -15.0220   21.0816 H   0  0  0  0  0  0
  -24.9224  -16.3577   19.0316 H   0  0  0  0  0  0
  -26.5396  -15.9799   19.0897 H   0  0  0  0  0  0
  -26.7866  -32.4091   23.0485 H   0  0  0  0  0  0
  -24.9939  -33.8729   24.9480 H   0  0  0  0  0  0
  -22.9621  -31.1615   21.2437 H   0  0  0  0  0  0
  -23.3797  -35.9195   23.3217 H   0  0  0  0  0  0
  -24.3546  -36.8741   22.2117 H   0  0  0  0  0  0
  -23.7235  -37.6011   23.6903 H   0  0  0  0  0  0
  -26.4783  -30.5999   20.7261 H   0  0  0  0  0  0
  -26.9658  -30.0489   22.2532 H   0  0  0  0  0  0
  -27.5445  -27.1093   21.9675 H   0  0  0  0  0  0
  -25.2525  -25.1610   18.9916 H   0  0  0  0  0  0
  -24.0638  -27.1617   18.6587 H   0  0  0  0  0  0
  -24.1962  -30.2708   19.3790 H   0  0  0  0  0  0
  -22.9262  -29.1397   19.7277 H   0  0  0  0  0  0
  -25.1434  -36.1225   25.0704 H   0  0  0  0  0  0
  -21.0032  -28.3477   24.1184 H   0  0  0  0  0  0
  -20.5533  -26.2442   23.3749 H   0  0  0  0  0  0
  -21.6609  -26.7244   22.1318 H   0  0  0  0  0  0
  -19.6904  -25.6202   21.1332 H   0  0  0  0  0  0
  -19.6740  -27.3077   20.6705 H   0  0  0  0  0  0
  -17.4220  -26.6737   21.3977 H   0  0  0  0  0  0
  -18.0279  -26.0136   22.9008 H   0  0  0  0  0  0
  -19.8010  -30.7376   24.2071 H   0  0  0  0  0  0
  -17.5072  -31.6282   24.5176 H   0  0  0  0  0  0
  -15.5396  -30.2961   23.7766 H   0  0  0  0  0  0
  -15.8710  -28.0811   22.7136 H   0  0  0  0  0  0
  -24.5842  -30.7221   25.7561 H   0  0  0  0  0  0
  -24.8659  -32.3289   26.4124 H   0  0  0  0  0  0
  -25.7558  -30.9534   27.0361 H   0  0  0  0  0  0
  -26.3559  -29.5803   24.3033 H   0  0  0  0  0  0
  -27.4349  -29.7725   25.6496 H   0  0  0  0  0  0
  -27.9536  -30.3549   24.0967 H   0  0  0  0  0  0
  -27.2450  -33.4040   26.1512 H   0  0  0  0  0  0
  -28.4049  -32.6741   25.0513 H   0  0  0  0  0  0
  -28.0414  -31.9118   26.5914 H   0  0  0  0  0  0
  -28.2473  -37.9966   24.7494 H   0  0  0  0  0  0
  -28.1106  -36.2474   24.6335 H   0  0  0  0  0  0
  -27.2246  -37.1269   25.8873 H   0  0  0  0  0  0
  -20.9907  -29.8438   21.6136 H   0  0  0  0  0  0
  -25.9988  -38.2437   24.1401 H   0  0  0  0  0  0
  -21.3963  -11.7336   20.7912 H   0  0  0  0  0  0
  -22.0674  -12.5912   19.6794 H   0  0  0  0  0  0
  -23.7748  -11.2340   18.5241 H   0  0  0  0  0  0
  -23.5163   -9.8684   19.4423 H   0  0  0  0  0  0
  -26.0115  -11.9953   22.9501 H   0  0  0  0  0  0
  -27.2898  -12.5825   22.4527 H   0  0  0  0  0  0
  -22.7341  -14.3221   22.8035 H   0  0  0  0  0  0
  -26.3348   -9.9982   20.4190 H   0  0  0  0  0  0
  -25.3945  -14.7332   23.5238 H   0  0  0  0  0  0
  -20.9740  -13.6926   24.0917 H   0  0  0  0  0  0
  -21.4627  -12.7821   25.4979 H   0  0  0  0  0  0
  -21.0821  -11.9454   24.0241 H   0  0  0  0  0  0
  -24.9841  -12.1669   24.7245 H   0  0  0  0  0  0
  -23.7638  -10.9120   24.4374 H   0  0  0  0  0  0
  -23.6803  -11.9364   25.8206 H   0  0  0  0  0  0
  -28.1173  -13.9659   16.5360 H   0  0  0  0  0  0
  -29.0263  -12.5734   16.6192 H   0  0  0  0  0  0
  -26.8289  -11.7902   16.6203 H   0  0  0  0  0  0
  -26.1040  -13.0518   17.3868 H   0  0  0  0  0  0
  -26.2191  -19.0734   22.9679 H   0  0  0  0  0  0
  -27.0799  -18.7123   21.5243 H   0  0  0  0  0  0
  -25.1055  -21.7393   21.6711 H   0  0  0  0  0  0
  -25.8997  -21.3633   20.1937 H   0  0  0  0  0  0
  -23.3490  -13.8759   24.6049 H   0  0  0  0  0  0
  -29.9597  -14.8545   17.3761 H   0  0  0  0  0  0
  -25.5716  -10.7142   18.0929 H   0  0  0  0  0  0
  -27.0787  -10.3783   18.4833 H   0  0  0  0  0  0
  -24.3889  -17.0409   22.1824 H   0  0  0  0  0  0
  -25.3774  -16.6404   20.9611 H   0  0  0  0  0  0
  1 25  1  0  0  0
  1 30  2  0  0  0
  1 84  1  0  0  0
  2  3  1  0  0  0
  2 25  1  0  0  0
  2 87  1  0  0  0
  2 88  1  0  0  0
  3  4  1  0  0  0
  3 89  1  0  0  0
  3 90  1  0  0  0
  4  5  1  0  0  0
  4 91  1  0  0  0
  4 92  1  0  0  0
  5  6  1  0  0  0
  5 26  1  0  0  0
  5 93  1  0  0  0
  6 25  1  0  0  0
  6 94  1  0  0  0
  6 95  1  0  0  0
  7  8  2  0  0  0
  7 26  1  0  0  0
  7 29  1  0  0  0
  8  9  1  0  0  0
  8 22  1  0  0  0
  9 10  1  0  0  0
  9 27  2  0  0  0
 10 11  2  0  0  0
 10 15  1  0  0  0
 11 12  1  0  0  0
 11 96  1  0  0  0
 12 13  2  0  0  0
 12 97  1  0  0  0
 13 14  1  0  0  0
 13 31  1  0  0  0
 14 15  2  0  0  0
 14 98  1  0  0  0
 15 99  1  0  0  0
 16 17  2  0  0  0
 16 21  1  0  0  0
 16 31  1  0  0  0
 17 18  1  0  0  0
 17100  1  0  0  0
 18 19  2  0  0  0
 18101  1  0  0  0
 19 20  1  0  0  0
 19 24  1  0  0  0
 20 21  2  0  0  0
 20102  1  0  0  0
 21 23  1  0  0  0
 22 28  1  0  0  0
 22 32  2  0  0  0
 26 27  1  0  0  0
 28103  1  0  0  0
 28104  1  0  0  0
 29105  1  0  0  0
 29106  1  0  0  0
 33 34  1  0  0  0
 33 66  1  0  0  0
 33 70  2  0  0  0
 34 36  1  0  0  0
 34 59  1  0  0  0
 34107  1  0  0  0
 35 44  2  0  0  0
 35 45  1  0  0  0
 35 68  1  0  0  0
 36 56  1  0  0  0
 36108  1  0  0  0
 37 39  1  0  0  0
 37 47  1  0  0  0
 37 66  1  0  0  0
 37109  1  0  0  0
 38 43  2  0  0  0
 38 46  1  0  0  0
 38 47  1  0  0  0
 39 64  1  0  0  0
 39 67  2  0  0  0
 40 52  1  0  0  0
 40 53  2  0  0  0
 40 58  1  0  0  0
 41110  1  0  0  0
 41111  1  0  0  0
 41112  1  0  0  0
 41 48  1  0  0  0
 42 43  1  0  0  0
 42 66  1  0  0  0
 42113  1  0  0  0
 42114  1  0  0  0
 43 44  1  0  0  0
 44115  1  0  0  0
 45 46  2  0  0  0
 45116  1  0  0  0
 46117  1  0  0  0
 47118  1  0  0  0
 47119  1  0  0  0
 48 56  1  0  0  0
 48 65  1  0  0  0
 48120  1  0  0  0
 49 50  1  0  0  0
 49 53  1  0  0  0
 49 64  1  0  0  0
 49121  1  0  0  0
 50 51  1  0  0  0
 50122  1  0  0  0
 50123  1  0  0  0
 51 52  1  0  0  0
 51124  1  0  0  0
 51125  1  0  0  0
 52126  1  0  0  0
 52127  1  0  0  0
 53 54  1  0  0  0
 54 55  2  0  0  0
 54128  1  0  0  0
 55 57  1  0  0  0
 55129  1  0  0  0
 56 69  2  0  0  0
 57 58  2  0  0  0
 57130  1  0  0  0
 58131  1  0  0  0
 59 60  1  0  0  0
 59 61  1  0  0  0
 59 62  1  0  0  0
 60132  1  0  0  0
 60133  1  0  0  0
 60134  1  0  0  0
 61135  1  0  0  0
 61136  1  0  0  0
 61137  1  0  0  0
 62138  1  0  0  0
 62139  1  0  0  0
 62140  1  0  0  0
 63 65  1  0  0  0
 63141  1  0  0  0
 63142  1  0  0  0
 63143  1  0  0  0
 64144  1  0  0  0
 65145  1  0  0  0
 68 82  1  0  0  0
 71 72  1  0  0  0
 71146  1  0  0  0
 71147  1  0  0  0
 71 74  1  0  0  0
 72 75  1  0  0  0
 72148  1  0  0  0
 72149  1  0  0  0
 73 75  1  0  0  0
 73 76  1  0  0  0
 73150  1  0  0  0
 73151  1  0  0  0
 74 76  1  0  0  0
 74 83  1  0  0  0
 74152  1  0  0  0
 75 85  1  0  0  0
 75153  1  0  0  0
 76 86  1  0  0  0
 76154  1  0  0  0
 77155  1  0  0  0
 77156  1  0  0  0
 77157  1  0  0  0
 77 83  1  0  0  0
 78 83  1  0  0  0
 78158  1  0  0  0
 78159  1  0  0  0
 78160  1  0  0  0
 79 80  1  0  0  0
 79 84  1  0  0  0
 79161  1  0  0  0
 79162  1  0  0  0
 80 85  1  0  0  0
 80163  1  0  0  0
 80164  1  0  0  0
 81 82  1  0  0  0
 81 86  1  0  0  0
 81165  1  0  0  0
 81166  1  0  0  0
 82167  1  0  0  0
 82168  1  0  0  0
 83169  1  0  0  0
 84170  1  0  0  0
 85171  1  0  0  0
 85172  1  0  0  0
 86173  1  0  0  0
 86174  1  0  0  0
M  CHG  2  85   1  86   1
M  ISO  4   1 100  68 101  82 101  84 100
M  END
> <chiral flag>
0

> <version>
0

> <s_m_source_file>
/data/baiqing/PycharmProjects/Reinvent-master-3.2/result/LINK_invent/BTK/process_docking_weight1_custom_sum_contain_oxygen_bond_distance_aromatic_linkinvent_7_9_3/rearranged_h_0129.sdf

> <i_m_source_file_index>
41

> <r_mmod_Potential_Energy-OPLS-2005>
22143.083984375

> <r_mmod_Stretch_Energy-OPLS-2005>
10744.1142578125

> <r_mmod_Bend_Energy-OPLS-2005>
2802.052734375

> <r_mmod_Torsional_Energy-OPLS-2005>
837.121215820312

> <r_mmod_Improper_Torsional_Energy-OPLS-2005>
39.8548698425293

> <r_mmod_Van_der_Waal_Energy-OPLS-2005>
2954.05590820312

> <r_mmod_Electrostatic_Energy-OPLS-2005>
-158.429351806641

> <r_mmod_Solvation_Energy-OPLS-2005>
-832.172790527344

> <b_mmod_Minimization_Converged-OPLS-2005>
0

> <r_mmod_RMS_Derivative-OPLS-2005>
4.37414884567261

$$$$
41
                    3D
 Structure written by MMmdl.
164172  0  0  1  0            999 V2000
  -30.6974  -14.4454   20.5611 C   0  0  0  0  0  0
  -30.4354  -12.2951   19.4041 C   0  0  0  0  0  0
  -29.4900  -12.5080   18.2015 C   0  0  0  0  0  0
  -28.0116  -12.3762   18.6158 C   0  0  0  0  0  0
  -27.6668  -13.1998   19.8847 C   0  0  2  0  0  0
  -28.7158  -12.9492   20.9946 C   0  0  0  0  0  0
  -25.2580  -13.8136   20.5677 C   0  0  0  0  0  0
  -24.1834  -13.0413   20.9179 C   0  0  0  0  0  0
  -24.6385  -11.6876   20.8745 C   0  0  0  0  0  0
  -23.9042  -10.4270   21.0410 C   0  0  0  0  0  0
  -24.3589   -9.4178   21.9184 C   0  0  0  0  0  0
  -23.6267   -8.2213   22.0741 C   0  0  0  0  0  0
  -22.4246   -8.0259   21.3538 C   0  0  0  0  0  0
  -21.9881   -9.0229   20.4631 C   0  0  0  0  0  0
  -22.7211  -10.2112   20.3050 C   0  0  0  0  0  0
  -21.6838   -6.0724   22.5274 C   0  0  0  0  0  0
  -21.4006   -6.5628   23.8206 C   0  0  0  0  0  0
  -21.3669   -5.6789   24.9176 C   0  0  0  0  0  0
  -21.6058   -4.3048   24.7234 C   0  0  0  0  0  0
  -21.8820   -3.8140   23.4349 C   0  0  0  0  0  0
  -21.9175   -4.6955   22.3404 C   0  0  0  0  0  0
  -22.7844  -13.5181   21.1872 C   0  0  0  0  0  0
  -22.1629   -4.2135   21.0988 F   0  0  0  0  0  0
  -21.5650   -3.4530   25.7741 F   0  0  0  0  0  0
  -30.0508  -13.2557   20.4461 N   0  0  0  0  0  0
  -26.3045  -12.9307   20.3432 N   0  0  0  0  0  0
  -25.9322  -11.6468   20.5807 N   0  0  0  0  0  0
  -22.0509  -12.8160   22.0440 N   0  0  0  0  0  0
  -25.4280  -15.1866   20.4047 N   0  0  0  0  0  0
  -31.8378  -14.6445   20.1352 O   0  0  0  0  0  0
  -21.6614   -6.8861   21.4233 O   0  0  0  0  0  0
  -22.3503  -14.5499   20.6751 O   0  0  0  0  0  0
  -24.6144  -31.8666   23.2077 C   0  0  0  0  0  0
  -25.9038  -32.4818   23.8363 C   0  0  1  0  0  0
  -27.2460  -27.4353   20.0800 C   0  0  0  0  0  0
  -25.5903  -33.8611   24.2316 N   0  0  0  0  0  0
  -23.4024  -30.4899   21.5476 C   0  0  2  0  0  0
  -24.8485  -28.9505   20.1149 C   0  0  0  0  0  0
  -22.7391  -29.4660   22.4982 C   0  0  0  0  0  0
  -18.0270  -28.1385   22.8501 C   0  0  0  0  0  0
  -24.1491  -36.7307   23.2637 C   0  0  0  0  0  0
  -25.9294  -30.8306   21.3575 C   0  0  0  0  0  0
  -26.0053  -29.4617   20.7123 C   0  0  0  0  0  0
  -27.1998  -28.7075   20.6980 C   0  0  0  0  0  0
  -26.0592  -26.9299   19.4956 C   0  0  0  0  0  0
  -24.8701  -27.6842   19.5075 C   0  0  0  0  0  0
  -23.6115  -29.8186   20.1624 C   0  0  0  0  0  0
  -25.4103  -36.3099   24.0344 C   0  0  1  0  0  0
  -20.5861  -28.3664   23.1336 C   0  0  2  0  0  0
  -20.6769  -26.9406   22.5423 C   0  0  0  0  0  0
  -19.5755  -26.6400   21.5212 C   0  0  0  0  0  0
  -18.1929  -26.7942   22.1611 C   0  0  0  0  0  0
  -19.1516  -28.8837   23.2932 C   0  0  0  0  0  0
  -18.9442  -30.1444   23.8949 C   0  0  0  0  0  0
  -17.6448  -30.6596   24.0572 C   0  0  0  0  0  0
  -25.9031  -34.9476   23.5125 C   0  0  0  0  0  0
  -16.5342  -29.9100   23.6326 C   0  0  0  0  0  0
  -16.7258  -28.6513   23.0356 C   0  0  0  0  0  0
  -26.4459  -31.6584   25.0677 C   0  0  0  0  0  0
  -25.3742  -31.3684   26.1439 C   0  0  0  0  0  0
  -27.0259  -30.3037   24.5996 C   0  0  0  0  0  0
  -27.6059  -32.4275   25.7442 C   0  0  0  0  0  0
  -27.5586  -37.1794   24.8459 C   0  0  0  0  0  0
  -21.4124  -29.3037   22.3726 N   0  0  0  0  0  0
  -26.4285  -37.3789   23.9425 N   0  0  0  0  0  0
  -24.6675  -31.0767   22.0969 N   0  0  0  0  0  0
  -23.4169  -28.8203   23.3014 O   0  0  0  0  0  0
  -28.4608  -26.7751   20.0806 O   0  0  0  0  0  0
  -26.5584  -34.8933   22.4676 O   0  0  0  0  0  0
  -23.5342  -32.1406   23.7491 O   0  0  0  0  0  0
  -28.1156  -23.1932   20.2750 C   0  0  0  0  0  0
  -28.3700  -22.1122   21.1461 C   0  0  0  0  0  0
  -29.9626  -24.4218   21.2697 C   0  0  0  0  0  0
  -28.9035  -24.3616   20.3383 C   0  0  0  0  0  0
  -29.4140  -22.1790   22.0956 C   0  0  0  0  0  0
  -30.2112  -23.3485   22.1526 C   0  0  0  0  0  0
  -30.5464  -17.2026   19.2591 C   0  0  0  0  0  0
  -29.6077  -21.0374   23.0978 C   0  0  0  0  0  0
  -28.6604  -25.5327   19.3908 C   0  0  0  0  0  0
  -30.7309  -20.0275   22.7706 C   0  0  0  0  0  0
  -30.6349  -17.7168   21.7914 C   0  0  0  0  0  0
  -29.9693  -16.8955   20.6612 C   0  0  2  0  0  0
  -31.2339  -23.4611   23.0925 N   0  0  0  0  0  0
  -29.8990  -15.4509   20.9555 N   0  0  0  0  0  0
  -30.4013  -19.1733   21.6078 N   0  3  0  0  0  0
  -31.4717  -12.4171   19.0842 H   0  0  0  0  0  0
  -30.3618  -11.2748   19.7827 H   0  0  0  0  0  0
  -29.7174  -11.7926   17.4096 H   0  0  0  0  0  0
  -29.6599  -13.4987   17.7760 H   0  0  0  0  0  0
  -27.8051  -11.3200   18.7906 H   0  0  0  0  0  0
  -27.3625  -12.6780   17.7932 H   0  0  0  0  0  0
  -27.7183  -14.2517   19.6055 H   0  0  0  0  0  0
  -28.6888  -11.9027   21.3033 H   0  0  0  0  0  0
  -28.4893  -13.5231   21.8945 H   0  0  0  0  0  0
  -25.2745   -9.5621   22.4753 H   0  0  0  0  0  0
  -23.9966   -7.4595   22.7441 H   0  0  0  0  0  0
  -21.0819   -8.8738   19.8930 H   0  0  0  0  0  0
  -22.3674  -10.9643   19.6148 H   0  0  0  0  0  0
  -21.1989   -7.6133   23.9697 H   0  0  0  0  0  0
  -21.1499   -6.0526   25.9077 H   0  0  0  0  0  0
  -22.0600   -2.7600   23.2852 H   0  0  0  0  0  0
  -22.4087  -11.9763   22.4763 H   0  0  0  0  0  0
  -21.1151  -13.1192   22.2742 H   0  0  0  0  0  0
  -24.6600  -15.8407   20.5099 H   0  0  0  0  0  0
  -26.2789  -15.6269   20.0815 H   0  0  0  0  0  0
  -26.7103  -32.5529   23.1121 H   0  0  0  0  0  0
  -25.0089  -33.9764   25.0486 H   0  0  0  0  0  0
  -22.6939  -31.3085   21.4061 H   0  0  0  0  0  0
  -23.3760  -35.9632   23.3272 H   0  0  0  0  0  0
  -24.3609  -36.8927   22.2057 H   0  0  0  0  0  0
  -23.7225  -37.6502   23.6654 H   0  0  0  0  0  0
  -26.0322  -31.5893   20.5807 H   0  0  0  0  0  0
  -26.8234  -30.8958   21.9658 H   0  0  0  0  0  0
  -28.0943  -29.1036   21.1583 H   0  0  0  0  0  0
  -26.0133  -25.9596   19.0251 H   0  0  0  0  0  0
  -23.9791  -27.2841   19.0439 H   0  0  0  0  0  0
  -23.7239  -30.5927   19.4025 H   0  0  0  0  0  0
  -22.7356  -29.2387   19.8637 H   0  0  0  0  0  0
  -25.1278  -36.1952   25.0838 H   0  0  0  0  0  0
  -20.9968  -28.3217   24.1450 H   0  0  0  0  0  0
  -20.5677  -26.2257   23.3593 H   0  0  0  0  0  0
  -21.6639  -26.7466   22.1203 H   0  0  0  0  0  0
  -19.6921  -25.6314   21.1230 H   0  0  0  0  0  0
  -19.6716  -27.3221   20.6754 H   0  0  0  0  0  0
  -17.4204  -26.6705   21.4010 H   0  0  0  0  0  0
  -18.0333  -26.0080   22.8998 H   0  0  0  0  0  0
  -19.7917  -30.7247   24.2353 H   0  0  0  0  0  0
  -17.5001  -31.6289   24.5145 H   0  0  0  0  0  0
  -15.5343  -30.3018   23.7633 H   0  0  0  0  0  0
  -15.8655  -28.0844   22.7059 H   0  0  0  0  0  0
  -24.5964  -30.6957   25.7794 H   0  0  0  0  0  0
  -24.8876  -32.2830   26.4837 H   0  0  0  0  0  0
  -25.8123  -30.8916   27.0213 H   0  0  0  0  0  0
  -26.2753  -29.6828   24.1081 H   0  0  0  0  0  0
  -27.4088  -29.7231   25.4390 H   0  0  0  0  0  0
  -27.8571  -30.4370   23.9070 H   0  0  0  0  0  0
  -27.2703  -33.3583   26.2021 H   0  0  0  0  0  0
  -28.3873  -32.6792   25.0264 H   0  0  0  0  0  0
  -28.0706  -31.8376   26.5344 H   0  0  0  0  0  0
  -28.2571  -38.0126   24.7551 H   0  0  0  0  0  0
  -28.1112  -36.2655   24.6210 H   0  0  0  0  0  0
  -27.2327  -37.1352   25.8869 H   0  0  0  0  0  0
  -20.9269  -29.8735   21.6942 H   0  0  0  0  0  0
  -26.0168  -38.2862   24.1450 H   0  0  0  0  0  0
  -27.3026  -23.1201   19.5655 H   0  0  0  0  0  0
  -27.7362  -21.2390   21.0937 H   0  0  0  0  0  0
  -30.5764  -25.3112   21.3000 H   0  0  0  0  0  0
  -31.6319  -17.0974   19.2338 H   0  0  0  0  0  0
  -30.3171  -18.2186   18.9386 H   0  0  0  0  0  0
  -30.1315  -16.5334   18.5048 H   0  0  0  0  0  0
  -28.6635  -20.5041   23.2205 H   0  0  0  0  0  0
  -29.8066  -21.4686   24.0790 H   0  0  0  0  0  0
  -27.9090  -25.2865   18.6436 H   0  0  0  0  0  0
  -29.5739  -25.6551   18.8077 H   0  0  0  0  0  0
  -30.8853  -19.4010   23.6495 H   0  0  0  0  0  0
  -31.6811  -20.5363   22.5991 H   0  0  0  0  0  0
  -31.7065  -17.5154   21.8467 H   0  0  0  0  0  0
  -30.2036  -17.4077   22.7455 H   0  0  0  0  0  0
  -28.9206  -17.1962   20.6340 H   0  0  0  0  0  0
  -31.5765  -24.3917   23.3129 H   0  0  0  0  0  0
  -31.1783  -22.8760   23.9199 H   0  0  0  0  0  0
  -29.0085  -15.1330   21.3091 H   0  0  0  0  0  0
  -30.9136  -19.5073   20.8069 H   0  0  0  0  0  0
  -29.4216  -19.2973   21.4168 H   0  0  0  0  0  0
  1 25  1  0  0  0
  1 30  2  0  0  0
  1 84  1  0  0  0
  2  3  1  0  0  0
  2 25  1  0  0  0
  2 86  1  0  0  0
  2 87  1  0  0  0
  3  4  1  0  0  0
  3 88  1  0  0  0
  3 89  1  0  0  0
  4  5  1  0  0  0
  4 90  1  0  0  0
  4 91  1  0  0  0
  5  6  1  0  0  0
  5 26  1  0  0  0
  5 92  1  0  0  0
  6 25  1  0  0  0
  6 93  1  0  0  0
  6 94  1  0  0  0
  7  8  2  0  0  0
  7 26  1  0  0  0
  7 29  1  0  0  0
  8  9  1  0  0  0
  8 22  1  0  0  0
  9 10  1  0  0  0
  9 27  2  0  0  0
 10 11  2  0  0  0
 10 15  1  0  0  0
 11 12  1  0  0  0
 11 95  1  0  0  0
 12 13  2  0  0  0
 12 96  1  0  0  0
 13 14  1  0  0  0
 13 31  1  0  0  0
 14 15  2  0  0  0
 14 97  1  0  0  0
 15 98  1  0  0  0
 16 17  2  0  0  0
 16 21  1  0  0  0
 16 31  1  0  0  0
 17 18  1  0  0  0
 17 99  1  0  0  0
 18 19  2  0  0  0
 18100  1  0  0  0
 19 20  1  0  0  0
 19 24  1  0  0  0
 20 21  2  0  0  0
 20101  1  0  0  0
 21 23  1  0  0  0
 22 28  1  0  0  0
 22 32  2  0  0  0
 26 27  1  0  0  0
 28102  1  0  0  0
 28103  1  0  0  0
 29104  1  0  0  0
 29105  1  0  0  0
 33 34  1  0  0  0
 33 66  1  0  0  0
 33 70  2  0  0  0
 34 36  1  0  0  0
 34 59  1  0  0  0
 34106  1  0  0  0
 35 44  2  0  0  0
 35 45  1  0  0  0
 35 68  1  0  0  0
 36 56  1  0  0  0
 36107  1  0  0  0
 37 39  1  0  0  0
 37 47  1  0  0  0
 37 66  1  0  0  0
 37108  1  0  0  0
 38 43  2  0  0  0
 38 46  1  0  0  0
 38 47  1  0  0  0
 39 64  1  0  0  0
 39 67  2  0  0  0
 40 52  1  0  0  0
 40 53  2  0  0  0
 40 58  1  0  0  0
 41109  1  0  0  0
 41110  1  0  0  0
 41111  1  0  0  0
 41 48  1  0  0  0
 42 43  1  0  0  0
 42 66  1  0  0  0
 42112  1  0  0  0
 42113  1  0  0  0
 43 44  1  0  0  0
 44114  1  0  0  0
 45 46  2  0  0  0
 45115  1  0  0  0
 46116  1  0  0  0
 47117  1  0  0  0
 47118  1  0  0  0
 48 56  1  0  0  0
 48 65  1  0  0  0
 48119  1  0  0  0
 49 50  1  0  0  0
 49 53  1  0  0  0
 49 64  1  0  0  0
 49120  1  0  0  0
 50 51  1  0  0  0
 50121  1  0  0  0
 50122  1  0  0  0
 51 52  1  0  0  0
 51123  1  0  0  0
 51124  1  0  0  0
 52125  1  0  0  0
 52126  1  0  0  0
 53 54  1  0  0  0
 54 55  2  0  0  0
 54127  1  0  0  0
 55 57  1  0  0  0
 55128  1  0  0  0
 56 69  2  0  0  0
 57 58  2  0  0  0
 57129  1  0  0  0
 58130  1  0  0  0
 59 60  1  0  0  0
 59 61  1  0  0  0
 59 62  1  0  0  0
 60131  1  0  0  0
 60132  1  0  0  0
 60133  1  0  0  0
 61134  1  0  0  0
 61135  1  0  0  0
 61136  1  0  0  0
 62137  1  0  0  0
 62138  1  0  0  0
 62139  1  0  0  0
 63 65  1  0  0  0
 63140  1  0  0  0
 63141  1  0  0  0
 63142  1  0  0  0
 64143  1  0  0  0
 65144  1  0  0  0
 68 79  1  0  0  0
 71 72  2  0  0  0
 71 74  1  0  0  0
 71145  1  0  0  0
 72 75  1  0  0  0
 72146  1  0  0  0
 73 74  2  0  0  0
 73 76  1  0  0  0
 73147  1  0  0  0
 74 79  1  0  0  0
 75 76  2  0  0  0
 75 78  1  0  0  0
 76 83  1  0  0  0
 77148  1  0  0  0
 77149  1  0  0  0
 77150  1  0  0  0
 77 82  1  0  0  0
 78 80  1  0  0  0
 78151  1  0  0  0
 78152  1  0  0  0
 79153  1  0  0  0
 79154  1  0  0  0
 80 85  1  0  0  0
 80155  1  0  0  0
 80156  1  0  0  0
 81 82  1  0  0  0
 81 85  1  0  0  0
 81157  1  0  0  0
 81158  1  0  0  0
 82 84  1  0  0  0
 82159  1  0  0  0
 83160  1  0  0  0
 83161  1  0  0  0
 84162  1  0  0  0
 85163  1  0  0  0
 85164  1  0  0  0
M  CHG  1  85   1
M  ISO  4   1 100  68 101  79 101  84 100
M  END
> <chiral flag>
0

> <version>
0

> <s_m_source_file>
/data/baiqing/PycharmProjects/Reinvent-master-3.2/result/LINK_invent/BTK/process_docking_weight1_custom_sum_contain_oxygen_bond_distance_aromatic_linkinvent_7_9_3/rearranged_h_0129.sdf

> <i_m_source_file_index>
42

> <r_mmod_Potential_Energy-OPLS-2005>
-284.689483642578

> <r_mmod_Stretch_Energy-OPLS-2005>
36.7079277038574

> <r_mmod_Bend_Energy-OPLS-2005>
112.604339599609

> <r_mmod_Torsional_Energy-OPLS-2005>
239.730606079102

> <r_mmod_Improper_Torsional_Energy-OPLS-2005>
10.2000551223755

> <r_mmod_Van_der_Waal_Energy-OPLS-2005>
152.722763061523

> <r_mmod_Electrostatic_Energy-OPLS-2005>
-370.608032226562

> <r_mmod_Solvation_Energy-OPLS-2005>
-478.204010009766

> <b_mmod_Minimization_Converged-OPLS-2005>
0

> <r_mmod_RMS_Derivative-OPLS-2005>
2.76610136032104

$$$$
42
                    3D
 Structure written by MMmdl.
176185  0  0  1  0            999 V2000
  -30.7097  -14.4380   20.5952 C   0  0  0  0  0  0
  -30.4247  -12.2892   19.4120 C   0  0  0  0  0  0
  -29.4928  -12.5078   18.2021 C   0  0  0  0  0  0
  -28.0133  -12.3681   18.6151 C   0  0  0  0  0  0
  -27.6649  -13.1996   19.8781 C   0  0  2  0  0  0
  -28.7064  -12.9503   20.9929 C   0  0  0  0  0  0
  -25.2605  -13.8149   20.5684 C   0  0  0  0  0  0
  -24.1846  -13.0431   20.9173 C   0  0  0  0  0  0
  -24.6378  -11.6901   20.8718 C   0  0  0  0  0  0
  -23.9039  -10.4294   21.0391 C   0  0  0  0  0  0
  -24.3596   -9.4215   21.9172 C   0  0  0  0  0  0
  -23.6280   -8.2246   22.0743 C   0  0  0  0  0  0
  -22.4262   -8.0275   21.3542 C   0  0  0  0  0  0
  -21.9894   -9.0242   20.4640 C   0  0  0  0  0  0
  -22.7210  -10.2131   20.3045 C   0  0  0  0  0  0
  -21.6849   -6.0732   22.5282 C   0  0  0  0  0  0
  -21.4007   -6.5638   23.8212 C   0  0  0  0  0  0
  -21.3658   -5.6791   24.9173 C   0  0  0  0  0  0
  -21.6042   -4.3050   24.7226 C   0  0  0  0  0  0
  -21.8818   -3.8142   23.4344 C   0  0  0  0  0  0
  -21.9192   -4.6961   22.3402 C   0  0  0  0  0  0
  -22.7865  -13.5241   21.1839 C   0  0  0  0  0  0
  -22.1660   -4.2148   21.0977 F   0  0  0  0  0  0
  -21.5631   -3.4531   25.7735 F   0  0  0  0  0  0
  -30.0439  -13.2588   20.4515 N   0  0  0  0  0  0
  -26.3030  -12.9309   20.3375 N   0  0  0  0  0  0
  -25.9310  -11.6475   20.5763 N   0  0  0  0  0  0
  -22.0494  -12.8248   22.0394 N   0  0  0  0  0  0
  -25.4343  -15.1860   20.4099 N   0  0  0  0  0  0
  -31.8193  -14.6344   20.0873 O   0  0  0  0  0  0
  -21.6631   -6.8873   21.4237 O   0  0  0  0  0  0
  -22.3558  -14.5551   20.6686 O   0  0  0  0  0  0
  -24.6125  -31.8727   23.2140 C   0  0  0  0  0  0
  -25.9021  -32.4872   23.8426 C   0  0  1  0  0  0
  -27.2560  -27.4691   20.0822 C   0  0  0  0  0  0
  -25.5876  -33.8662   24.2353 N   0  0  0  0  0  0
  -23.4032  -30.4941   21.5569 C   0  0  2  0  0  0
  -24.8529  -28.9602   20.1277 C   0  0  0  0  0  0
  -22.7414  -29.4683   22.5062 C   0  0  0  0  0  0
  -18.0275  -28.1384   22.8533 C   0  0  0  0  0  0
  -24.1486  -36.7291   23.2648 C   0  0  0  0  0  0
  -25.9291  -30.8424   21.3692 C   0  0  0  0  0  0
  -26.0121  -29.4761   20.7228 C   0  0  0  0  0  0
  -27.2171  -28.7356   20.7103 C   0  0  0  0  0  0
  -26.0784  -26.9643   19.4946 C   0  0  0  0  0  0
  -24.8771  -27.6959   19.5171 C   0  0  0  0  0  0
  -23.6133  -29.8234   20.1736 C   0  0  0  0  0  0
  -25.4115  -36.3126   24.0356 C   0  0  1  0  0  0
  -20.5879  -28.3650   23.1358 C   0  0  2  0  0  0
  -20.6790  -26.9402   22.5444 C   0  0  0  0  0  0
  -19.5754  -26.6391   21.5256 C   0  0  0  0  0  0
  -18.1920  -26.7942   22.1644 C   0  0  0  0  0  0
  -19.1539  -28.8832   23.2930 C   0  0  0  0  0  0
  -18.9465  -30.1453   23.8907 C   0  0  0  0  0  0
  -17.6474  -30.6603   24.0587 C   0  0  0  0  0  0
  -25.9023  -34.9507   23.5147 C   0  0  0  0  0  0
  -16.5353  -29.9125   23.6334 C   0  0  0  0  0  0
  -16.7272  -28.6539   23.0358 C   0  0  0  0  0  0
  -26.4453  -31.6630   25.0728 C   0  0  0  0  0  0
  -25.3702  -31.3746   26.1450 C   0  0  0  0  0  0
  -27.0282  -30.3095   24.6074 C   0  0  0  0  0  0
  -27.6039  -32.4356   25.7473 C   0  0  0  0  0  0
  -27.5591  -37.1815   24.8472 C   0  0  0  0  0  0
  -21.4146  -29.3015   22.3759 N   0  0  0  0  0  0
  -26.4300  -37.3813   23.9413 N   0  0  0  0  0  0
  -24.6667  -31.0820   22.1071 N   0  0  0  0  0  0
  -23.4168  -28.8260   23.3148 O   0  0  0  0  0  0
  -28.3638  -26.6616   19.9356 O   0  0  0  0  0  0
  -26.5588  -34.8960   22.4712 O   0  0  0  0  0  0
  -23.5312  -32.1485   23.7543 O   0  0  0  0  0  0
  -29.1439  -18.9047   21.9531 C   0  0  0  0  0  0
  -29.1208  -17.4983   21.9117 C   0  0  0  0  0  0
  -30.2098  -19.6024   21.3462 C   0  0  0  0  0  0
  -31.1972  -18.8260   20.6936 C   0  0  0  0  0  0
  -30.1535  -16.7936   21.2632 C   0  0  0  0  0  0
  -33.2638  -25.5250   22.4963 C   0  0  0  0  0  0
  -32.8689  -24.1441   21.9838 C   0  0  0  0  0  0
  -32.0852  -26.4036   22.0969 C   0  0  0  0  0  0
  -31.3262  -24.1328   21.9446 C   0  0  1  0  0  0
  -32.3734  -19.4559   19.9686 C   0  0  0  0  0  0
  -31.0066  -23.3589   24.3902 C   0  0  0  0  0  0
  -28.9715  -26.6754   23.1022 C   0  0  0  0  0  0
  -30.2239  -21.1390   21.3790 C   0  0  0  0  0  0
  -29.5837  -26.8755   20.6310 C   0  0  0  0  0  0
  -30.6528  -23.1008   22.9098 C   0  0  2  0  0  0
  -29.6170  -25.9822   21.8983 C   0  0  1  0  0  0
  -31.1654  -17.4723   20.6689 N   0  0  0  0  0  0
  -30.9494  -25.5093   22.3118 N   0  0  0  0  0  0
  -30.0266  -15.3778   21.2760 N   0  0  0  0  0  0
  -30.9388  -21.6832   22.5609 N   0  3  0  0  0  0
  -31.4693  -12.3841   19.1092 H   0  0  0  0  0  0
  -30.3217  -11.2728   19.7945 H   0  0  0  0  0  0
  -29.7272  -11.7950   17.4101 H   0  0  0  0  0  0
  -29.6621  -13.4997   17.7803 H   0  0  0  0  0  0
  -27.8200  -11.3113   18.8056 H   0  0  0  0  0  0
  -27.3618  -12.6486   17.7868 H   0  0  0  0  0  0
  -27.7183  -14.2508   19.5928 H   0  0  0  0  0  0
  -28.6784  -11.9042   21.3016 H   0  0  0  0  0  0
  -28.4635  -13.5161   21.8929 H   0  0  0  0  0  0
  -25.2741   -9.5696   22.4746 H   0  0  0  0  0  0
  -23.9990   -7.4635   22.7466 H   0  0  0  0  0  0
  -21.0820   -8.8748   19.8950 H   0  0  0  0  0  0
  -22.3653  -10.9659   19.6151 H   0  0  0  0  0  0
  -21.1994   -7.6144   23.9718 H   0  0  0  0  0  0
  -21.1480   -6.0515   25.9079 H   0  0  0  0  0  0
  -22.0598   -2.7605   23.2840 H   0  0  0  0  0  0
  -22.4082  -11.9902   22.4792 H   0  0  0  0  0  0
  -21.1110  -13.1296   22.2589 H   0  0  0  0  0  0
  -24.6684  -15.8427   20.5159 H   0  0  0  0  0  0
  -26.2871  -15.6244   20.0832 H   0  0  0  0  0  0
  -26.7111  -32.5601   23.1218 H   0  0  0  0  0  0
  -25.0031  -33.9848   25.0508 H   0  0  0  0  0  0
  -22.6901  -31.3094   21.4200 H   0  0  0  0  0  0
  -23.3771  -35.9594   23.3319 H   0  0  0  0  0  0
  -24.3575  -36.8863   22.2050 H   0  0  0  0  0  0
  -23.7222  -37.6511   23.6637 H   0  0  0  0  0  0
  -26.0358  -31.6098   20.6003 H   0  0  0  0  0  0
  -26.8174  -30.9008   21.9857 H   0  0  0  0  0  0
  -28.1003  -29.1586   21.1676 H   0  0  0  0  0  0
  -26.0976  -26.0000   19.0078 H   0  0  0  0  0  0
  -23.9885  -27.2892   19.0543 H   0  0  0  0  0  0
  -23.7227  -30.5976   19.4120 H   0  0  0  0  0  0
  -22.7374  -29.2403   19.8814 H   0  0  0  0  0  0
  -25.1321  -36.1985   25.0857 H   0  0  0  0  0  0
  -20.9947  -28.3205   24.1489 H   0  0  0  0  0  0
  -20.5726  -26.2259   23.3632 H   0  0  0  0  0  0
  -21.6659  -26.7501   22.1196 H   0  0  0  0  0  0
  -19.6915  -25.6308   21.1269 H   0  0  0  0  0  0
  -19.6691  -27.3230   20.6819 H   0  0  0  0  0  0
  -17.4221  -26.6733   21.4004 H   0  0  0  0  0  0
  -18.0256  -26.0073   22.9020 H   0  0  0  0  0  0
  -19.7936  -30.7296   24.2227 H   0  0  0  0  0  0
  -17.5034  -31.6269   24.5226 H   0  0  0  0  0  0
  -15.5357  -30.3046   23.7658 H   0  0  0  0  0  0
  -15.8660  -28.0884   22.7043 H   0  0  0  0  0  0
  -24.5849  -30.7155   25.7753 H   0  0  0  0  0  0
  -24.8920  -32.2901   26.4938 H   0  0  0  0  0  0
  -25.8001  -30.8856   27.0187 H   0  0  0  0  0  0
  -26.2830  -29.6873   24.1108 H   0  0  0  0  0  0
  -27.4059  -29.7335   25.4525 H   0  0  0  0  0  0
  -27.8656  -30.4464   23.9229 H   0  0  0  0  0  0
  -27.2666  -33.3636   26.2116 H   0  0  0  0  0  0
  -28.3784  -32.6943   25.0236 H   0  0  0  0  0  0
  -28.0770  -31.8436   26.5319 H   0  0  0  0  0  0
  -28.2649  -38.0088   24.7531 H   0  0  0  0  0  0
  -28.1059  -36.2629   24.6296 H   0  0  0  0  0  0
  -27.2296  -37.1442   25.8875 H   0  0  0  0  0  0
  -20.9307  -29.8696   21.6950 H   0  0  0  0  0  0
  -26.0188  -38.2889   24.1426 H   0  0  0  0  0  0
  -28.3433  -19.4395   22.4453 H   0  0  0  0  0  0
  -28.2961  -16.9763   22.3786 H   0  0  0  0  0  0
  -34.2090  -25.8772   22.0806 H   0  0  0  0  0  0
  -33.3699  -25.5042   23.5821 H   0  0  0  0  0  0
  -33.2996  -23.3549   22.6004 H   0  0  0  0  0  0
  -33.2545  -24.0004   20.9727 H   0  0  0  0  0  0
  -32.1898  -26.6839   21.0487 H   0  0  0  0  0  0
  -32.0174  -27.3152   22.6939 H   0  0  0  0  0  0
  -31.0146  -23.9470   20.9142 H   0  0  0  0  0  0
  -33.0299  -19.9680   20.6724 H   0  0  0  0  0  0
  -32.0299  -20.1744   19.2236 H   0  0  0  0  0  0
  -32.9680  -18.7069   19.4444 H   0  0  0  0  0  0
  -30.7145  -24.3629   24.6954 H   0  0  0  0  0  0
  -32.0735  -23.2538   24.5839 H   0  0  0  0  0  0
  -30.4800  -22.6675   25.0497 H   0  0  0  0  0  0
  -27.9627  -27.0067   22.8588 H   0  0  0  0  0  0
  -29.5445  -27.5472   23.4204 H   0  0  0  0  0  0
  -28.8864  -25.9963   23.9512 H   0  0  0  0  0  0
  -29.1884  -21.4819   21.3943 H   0  0  0  0  0  0
  -30.6530  -21.5488   20.4662 H   0  0  0  0  0  0
  -30.3440  -26.5391   19.9258 H   0  0  0  0  0  0
  -29.8110  -27.9203   20.8374 H   0  0  0  0  0  0
  -29.5721  -23.2240   22.8380 H   0  0  0  0  0  0
  -29.0156  -25.1000   21.6772 H   0  0  0  0  0  0
  -29.1870  -15.0283   21.7074 H   0  0  0  0  0  0
  -31.9309  -21.5517   22.4567 H   0  0  0  0  0  0
  -30.6469  -21.1351   23.3519 H   0  0  0  0  0  0
  1 25  1  0  0  0
  1 30  2  0  0  0
  1 89  1  0  0  0
  2  3  1  0  0  0
  2 25  1  0  0  0
  2 91  1  0  0  0
  2 92  1  0  0  0
  3  4  1  0  0  0
  3 93  1  0  0  0
  3 94  1  0  0  0
  4  5  1  0  0  0
  4 95  1  0  0  0
  4 96  1  0  0  0
  5  6  1  0  0  0
  5 26  1  0  0  0
  5 97  1  0  0  0
  6 25  1  0  0  0
  6 98  1  0  0  0
  6 99  1  0  0  0
  7  8  2  0  0  0
  7 26  1  0  0  0
  7 29  1  0  0  0
  8  9  1  0  0  0
  8 22  1  0  0  0
  9 10  1  0  0  0
  9 27  2  0  0  0
 10 11  2  0  0  0
 10 15  1  0  0  0
 11 12  1  0  0  0
 11100  1  0  0  0
 12 13  2  0  0  0
 12101  1  0  0  0
 13 14  1  0  0  0
 13 31  1  0  0  0
 14 15  2  0  0  0
 14102  1  0  0  0
 15103  1  0  0  0
 16 17  2  0  0  0
 16 21  1  0  0  0
 16 31  1  0  0  0
 17 18  1  0  0  0
 17104  1  0  0  0
 18 19  2  0  0  0
 18105  1  0  0  0
 19 20  1  0  0  0
 19 24  1  0  0  0
 20 21  2  0  0  0
 20106  1  0  0  0
 21 23  1  0  0  0
 22 28  1  0  0  0
 22 32  2  0  0  0
 26 27  1  0  0  0
 28107  1  0  0  0
 28108  1  0  0  0
 29109  1  0  0  0
 29110  1  0  0  0
 33 34  1  0  0  0
 33 66  1  0  0  0
 33 70  2  0  0  0
 34 36  1  0  0  0
 34 59  1  0  0  0
 34111  1  0  0  0
 35 44  2  0  0  0
 35 45  1  0  0  0
 35 68  1  0  0  0
 36 56  1  0  0  0
 36112  1  0  0  0
 37 39  1  0  0  0
 37 47  1  0  0  0
 37 66  1  0  0  0
 37113  1  0  0  0
 38 43  2  0  0  0
 38 46  1  0  0  0
 38 47  1  0  0  0
 39 64  1  0  0  0
 39 67  2  0  0  0
 40 52  1  0  0  0
 40 53  2  0  0  0
 40 58  1  0  0  0
 41114  1  0  0  0
 41115  1  0  0  0
 41116  1  0  0  0
 41 48  1  0  0  0
 42 43  1  0  0  0
 42 66  1  0  0  0
 42117  1  0  0  0
 42118  1  0  0  0
 43 44  1  0  0  0
 44119  1  0  0  0
 45 46  2  0  0  0
 45120  1  0  0  0
 46121  1  0  0  0
 47122  1  0  0  0
 47123  1  0  0  0
 48 56  1  0  0  0
 48 65  1  0  0  0
 48124  1  0  0  0
 49 50  1  0  0  0
 49 53  1  0  0  0
 49 64  1  0  0  0
 49125  1  0  0  0
 50 51  1  0  0  0
 50126  1  0  0  0
 50127  1  0  0  0
 51 52  1  0  0  0
 51128  1  0  0  0
 51129  1  0  0  0
 52130  1  0  0  0
 52131  1  0  0  0
 53 54  1  0  0  0
 54 55  2  0  0  0
 54132  1  0  0  0
 55 57  1  0  0  0
 55133  1  0  0  0
 56 69  2  0  0  0
 57 58  2  0  0  0
 57134  1  0  0  0
 58135  1  0  0  0
 59 60  1  0  0  0
 59 61  1  0  0  0
 59 62  1  0  0  0
 60136  1  0  0  0
 60137  1  0  0  0
 60138  1  0  0  0
 61139  1  0  0  0
 61140  1  0  0  0
 61141  1  0  0  0
 62142  1  0  0  0
 62143  1  0  0  0
 62144  1  0  0  0
 63 65  1  0  0  0
 63145  1  0  0  0
 63146  1  0  0  0
 63147  1  0  0  0
 64148  1  0  0  0
 65149  1  0  0  0
 68 84  1  0  0  0
 71 72  2  0  0  0
 71 73  1  0  0  0
 71150  1  0  0  0
 72 75  1  0  0  0
 72151  1  0  0  0
 73 74  2  0  0  0
 73 83  1  0  0  0
 74 80  1  0  0  0
 74 87  1  0  0  0
 75 87  2  0  0  0
 75 89  1  0  0  0
 76 77  1  0  0  0
 76 78  1  0  0  0
 76152  1  0  0  0
 76153  1  0  0  0
 77154  1  0  0  0
 77155  1  0  0  0
 77 79  1  0  0  0
 78 88  1  0  0  0
 78156  1  0  0  0
 78157  1  0  0  0
 79 85  1  0  0  0
 79 88  1  0  0  0
 79158  1  0  0  0
 80159  1  0  0  0
 80160  1  0  0  0
 80161  1  0  0  0
 81162  1  0  0  0
 81163  1  0  0  0
 81164  1  0  0  0
 81 85  1  0  0  0
 82165  1  0  0  0
 82166  1  0  0  0
 82167  1  0  0  0
 82 86  1  0  0  0
 83 90  1  0  0  0
 83168  1  0  0  0
 83169  1  0  0  0
 84 86  1  0  0  0
 84170  1  0  0  0
 84171  1  0  0  0
 85 90  1  0  0  0
 85172  1  0  0  0
 86 88  1  0  0  0
 86173  1  0  0  0
 89174  1  0  0  0
 90175  1  0  0  0
 90176  1  0  0  0
M  CHG  1  90   1
M  ISO  4   1 100  68 101  84 101  89 100
M  END
> <chiral flag>
0

> <version>
0

> <s_m_source_file>
/data/baiqing/PycharmProjects/Reinvent-master-3.2/result/LINK_invent/BTK/process_docking_weight1_custom_sum_contain_oxygen_bond_distance_aromatic_linkinvent_7_9_3/rearranged_h_0129.sdf

> <i_m_source_file_index>
43

> <r_mmod_Potential_Energy-OPLS-2005>
-235.008834838867

> <r_mmod_Stretch_Energy-OPLS-2005>
38.8558197021484

> <r_mmod_Bend_Energy-OPLS-2005>
158.111923217773

> <r_mmod_Torsional_Energy-OPLS-2005>
285.307189941406

> <r_mmod_Improper_Torsional_Energy-OPLS-2005>
2.84578394889832

> <r_mmod_Van_der_Waal_Energy-OPLS-2005>
148.261367797852

> <r_mmod_Electrostatic_Energy-OPLS-2005>
-404.871826171875

> <r_mmod_Solvation_Energy-OPLS-2005>
-473.236297607422

> <b_mmod_Minimization_Converged-OPLS-2005>
0

> <r_mmod_RMS_Derivative-OPLS-2005>
3.42557978630066

$$$$
43
                    3D
 Structure written by MMmdl.
167177  0  0  1  0            999 V2000
  -30.5532  -15.1200   20.3178 C   0  0  0  0  0  0
  -30.4537  -12.7037   19.4854 C   0  0  0  0  0  0
  -29.5405  -12.5141   18.2554 C   0  0  0  0  0  0
  -28.0765  -12.2907   18.6838 C   0  0  0  0  0  0
  -27.6239  -13.2576   19.8114 C   0  0  2  0  0  0
  -28.6804  -13.4211   20.9257 C   0  0  0  0  0  0
  -25.2533  -13.8228   20.5712 C   0  0  0  0  0  0
  -24.1850  -13.0469   20.9199 C   0  0  0  0  0  0
  -24.6481  -11.6951   20.8733 C   0  0  0  0  0  0
  -23.9167  -10.4334   21.0391 C   0  0  0  0  0  0
  -24.3707   -9.4251   21.9167 C   0  0  0  0  0  0
  -23.6385   -8.2291   22.0744 C   0  0  0  0  0  0
  -22.4366   -8.0319   21.3529 C   0  0  0  0  0  0
  -22.0009   -9.0297   20.4626 C   0  0  0  0  0  0
  -22.7335  -10.2180   20.3037 C   0  0  0  0  0  0
  -21.6889   -6.0783   22.5275 C   0  0  0  0  0  0
  -21.4032   -6.5672   23.8214 C   0  0  0  0  0  0
  -21.3677   -5.6806   24.9163 C   0  0  0  0  0  0
  -21.6056   -4.3074   24.7193 C   0  0  0  0  0  0
  -21.8821   -3.8172   23.4323 C   0  0  0  0  0  0
  -21.9208   -4.7001   22.3391 C   0  0  0  0  0  0
  -22.7873  -13.5237   21.1852 C   0  0  0  0  0  0
  -22.1657   -4.2194   21.0966 F   0  0  0  0  0  0
  -21.5653   -3.4537   25.7690 F   0  0  0  0  0  0
  -29.9224  -13.8576   20.2702 N   0  0  0  0  0  0
  -26.2939  -12.9455   20.3199 N   0  0  0  0  0  0
  -25.9413  -11.6582   20.5710 N   0  0  0  0  0  0
  -22.0538  -12.8225   22.0400 N   0  0  0  0  0  0
  -25.4245  -15.1961   20.4192 N   0  0  0  0  0  0
  -31.7883  -15.0665   20.2963 O   0  0  0  0  0  0
  -21.6708   -6.8931   21.4242 O   0  0  0  0  0  0
  -22.3555  -14.5531   20.6675 O   0  0  0  0  0  0
  -24.6503  -31.8372   23.1927 C   0  0  0  0  0  0
  -25.9245  -32.4673   23.8317 C   0  0  1  0  0  0
  -27.1947  -27.0599   20.1873 C   0  0  0  0  0  0
  -25.5982  -33.8487   24.2245 N   0  0  0  0  0  0
  -23.4567  -30.4592   21.5383 C   0  0  2  0  0  0
  -24.9046  -28.8816   20.1142 C   0  0  0  0  0  0
  -22.7613  -29.4476   22.4834 C   0  0  0  0  0  0
  -18.0308  -28.1405   22.8469 C   0  0  0  0  0  0
  -24.1475  -36.7235   23.2643 C   0  0  0  0  0  0
  -26.0196  -30.6914   21.4001 C   0  0  0  0  0  0
  -26.0854  -29.2956   20.7440 C   0  0  0  0  0  0
  -27.2329  -28.4055   20.7580 C   0  0  0  0  0  0
  -25.9909  -26.7691   19.5042 C   0  0  0  0  0  0
  -24.8765  -27.6361   19.4747 C   0  0  0  0  0  0
  -23.6902  -29.7997   20.1538 C   0  0  0  0  0  0
  -25.4109  -36.3024   24.0326 C   0  0  1  0  0  0
  -20.5920  -28.3722   23.1253 C   0  0  2  0  0  0
  -20.6785  -26.9418   22.5425 C   0  0  0  0  0  0
  -19.5761  -26.6368   21.5236 C   0  0  0  0  0  0
  -18.1935  -26.7939   22.1618 C   0  0  0  0  0  0
  -19.1554  -28.8879   23.2846 C   0  0  0  0  0  0
  -18.9465  -30.1481   23.8871 C   0  0  0  0  0  0
  -17.6453  -30.6591   24.0561 C   0  0  0  0  0  0
  -25.9074  -34.9386   23.5085 C   0  0  0  0  0  0
  -16.5353  -29.9089   23.6333 C   0  0  0  0  0  0
  -16.7285  -28.6510   23.0349 C   0  0  0  0  0  0
  -26.4559  -31.6560   25.0777 C   0  0  0  0  0  0
  -25.3755  -31.3750   26.1495 C   0  0  0  0  0  0
  -27.0419  -30.2942   24.6390 C   0  0  0  0  0  0
  -27.6088  -32.4339   25.7554 C   0  0  0  0  0  0
  -27.5564  -37.1786   24.8462 C   0  0  0  0  0  0
  -21.4274  -29.3043   22.3611 N   0  0  0  0  0  0
  -26.4265  -37.3745   23.9424 N   0  0  0  0  0  0
  -24.7295  -31.0180   22.0989 N   0  0  0  0  0  0
  -23.4233  -28.7947   23.2924 O   0  0  0  0  0  0
  -28.2042  -26.0129   20.2826 O   0  0  0  0  0  0
  -26.5637  -34.8893   22.4662 O   0  0  0  0  0  0
  -23.5601  -32.1238   23.7137 O   0  0  0  0  0  0
  -31.6367  -17.6266   18.3063 C   0  0  0  0  0  0
  -31.5536  -18.1200   19.5394 C   0  0  0  0  0  0
  -33.0098  -17.7342   17.8315 C   0  0  0  0  0  0
  -30.5299  -16.8335   17.6394 C   0  0  0  0  0  0
  -32.8703  -18.6548   20.0646 C   0  0  0  0  0  0
  -33.8890  -18.2638   18.9643 C   0  0  0  0  0  0
  -28.5935  -20.2103   21.2799 C   0  0  0  0  0  0
  -30.1443  -20.7664   19.5709 C   0  0  0  0  0  0
  -27.8721  -21.6691   21.0108 C   0  0  0  0  0  0
  -29.4125  -22.2122   19.3320 C   0  0  0  0  0  0
  -29.3985  -16.4462   18.6528 C   0  0  0  0  0  0
  -30.2856  -17.9530   20.3662 C   0  0  1  0  0  0
  -29.3756  -19.4422   20.1098 C   0  0  1  0  0  0
  -28.6878  -22.9788   20.5234 C   0  0  1  0  0  0
  -27.8361  -24.4683   20.2381 C   0  0  0  0  0  0
  -29.8676  -16.3962   20.0634 N   0  0  0  0  0  0
  -33.4404  -17.4300   16.7162 O   0  0  0  0  0  0
  -31.4779  -12.8789   19.1508 H   0  0  0  0  0  0
  -30.4867  -11.7970   20.0928 H   0  0  0  0  0  0
  -29.8956  -11.6681   17.6659 H   0  0  0  0  0  0
  -29.6065  -13.3843   17.6006 H   0  0  0  0  0  0
  -27.9937  -11.2611   19.0328 H   0  0  0  0  0  0
  -27.4193  -12.3666   17.8181 H   0  0  0  0  0  0
  -27.5330  -14.2283   19.3327 H   0  0  0  0  0  0
  -28.8257  -12.5024   21.4940 H   0  0  0  0  0  0
  -28.3611  -14.1873   21.6346 H   0  0  0  0  0  0
  -25.2870   -9.5744   22.4727 H   0  0  0  0  0  0
  -24.0090   -7.4723   22.7509 H   0  0  0  0  0  0
  -21.0929   -8.8867   19.8968 H   0  0  0  0  0  0
  -22.3824  -10.9732   19.6151 H   0  0  0  0  0  0
  -21.2010   -7.6178   23.9723 H   0  0  0  0  0  0
  -21.1496   -6.0532   25.9073 H   0  0  0  0  0  0
  -22.0578   -2.7630   23.2803 H   0  0  0  0  0  0
  -22.4204  -11.9921   22.4799 H   0  0  0  0  0  0
  -21.1139  -13.1185   22.2591 H   0  0  0  0  0  0
  -24.6637  -15.8523   20.5619 H   0  0  0  0  0  0
  -26.2914  -15.6432   20.1456 H   0  0  0  0  0  0
  -26.7292  -32.5242   23.1016 H   0  0  0  0  0  0
  -25.0181  -33.9621   25.0424 H   0  0  0  0  0  0
  -22.7625  -31.2895   21.3910 H   0  0  0  0  0  0
  -23.3758  -35.9539   23.3254 H   0  0  0  0  0  0
  -24.3552  -36.8918   22.2062 H   0  0  0  0  0  0
  -23.7205  -37.6405   23.6713 H   0  0  0  0  0  0
  -26.1872  -31.4380   20.6226 H   0  0  0  0  0  0
  -26.8873  -30.7419   22.0450 H   0  0  0  0  0  0
  -28.1281  -28.7147   21.2794 H   0  0  0  0  0  0
  -25.8602  -25.8205   19.0062 H   0  0  0  0  0  0
  -23.9753  -27.3234   18.9659 H   0  0  0  0  0  0
  -23.8594  -30.5891   19.4211 H   0  0  0  0  0  0
  -22.7956  -29.2728   19.8149 H   0  0  0  0  0  0
  -25.1296  -36.1829   25.0809 H   0  0  0  0  0  0
  -21.0016  -28.3307   24.1373 H   0  0  0  0  0  0
  -20.5710  -26.2309   23.3633 H   0  0  0  0  0  0
  -21.6638  -26.7429   22.1192 H   0  0  0  0  0  0
  -19.6919  -25.6268   21.1283 H   0  0  0  0  0  0
  -19.6721  -27.3156   20.6761 H   0  0  0  0  0  0
  -17.4213  -26.6698   21.4020 H   0  0  0  0  0  0
  -18.0316  -26.0106   22.9032 H   0  0  0  0  0  0
  -19.7932  -30.7313   24.2224 H   0  0  0  0  0  0
  -17.5007  -31.6272   24.5162 H   0  0  0  0  0  0
  -15.5351  -30.2986   23.7696 H   0  0  0  0  0  0
  -15.8679  -28.0851   22.7078 H   0  0  0  0  0  0
  -24.5923  -30.7105   25.7838 H   0  0  0  0  0  0
  -24.8957  -32.2924   26.4914 H   0  0  0  0  0  0
  -25.8049  -30.8932   27.0287 H   0  0  0  0  0  0
  -26.3038  -29.6673   24.1382 H   0  0  0  0  0  0
  -27.3977  -29.7251   25.4984 H   0  0  0  0  0  0
  -27.8971  -30.4154   23.9745 H   0  0  0  0  0  0
  -27.2689  -33.3676   26.2046 H   0  0  0  0  0  0
  -28.3943  -32.6844   25.0414 H   0  0  0  0  0  0
  -28.0709  -31.8526   26.5543 H   0  0  0  0  0  0
  -28.2566  -38.0102   24.7526 H   0  0  0  0  0  0
  -28.1076  -36.2631   24.6248 H   0  0  0  0  0  0
  -27.2288  -37.1377   25.8869 H   0  0  0  0  0  0
  -20.9482  -29.8784   21.6801 H   0  0  0  0  0  0
  -26.0105  -38.2788   24.1488 H   0  0  0  0  0  0
  -30.9778  -15.9319   17.2160 H   0  0  0  0  0  0
  -30.1349  -17.4064   16.7982 H   0  0  0  0  0  0
  -33.1160  -18.1812   21.0146 H   0  0  0  0  0  0
  -32.8420  -19.7362   20.2073 H   0  0  0  0  0  0
  -34.5192  -19.0999   18.6555 H   0  0  0  0  0  0
  -34.5263  -17.4470   19.3066 H   0  0  0  0  0  0
  -27.8175  -19.5256   21.6237 H   0  0  0  0  0  0
  -29.2700  -20.3146   22.1291 H   0  0  0  0  0  0
  -30.9887  -20.9652   20.2310 H   0  0  0  0  0  0
  -30.5844  -20.5084   18.6093 H   0  0  0  0  0  0
  -27.3406  -21.9392   21.9235 H   0  0  0  0  0  0
  -27.0796  -21.4906   20.2783 H   0  0  0  0  0  0
  -28.6789  -22.0807   18.5332 H   0  0  0  0  0  0
  -30.1481  -22.9029   18.9183 H   0  0  0  0  0  0
  -28.9742  -15.4998   18.3287 H   0  0  0  0  0  0
  -28.5733  -17.1515   18.5807 H   0  0  0  0  0  0
  -30.6082  -17.9504   21.4092 H   0  0  0  0  0  0
  -28.6255  -19.2157   19.3532 H   0  0  0  0  0  0
  -29.4149  -23.1917   21.3119 H   0  0  0  0  0  0
  -26.9957  -24.4182   20.9352 H   0  0  0  0  0  0
  -27.3818  -24.3200   19.2608 H   0  0  0  0  0  0
  1 25  1  0  0  0
  1 30  2  0  0  0
  1 86  1  0  0  0
  2  3  1  0  0  0
  2 25  1  0  0  0
  2 88  1  0  0  0
  2 89  1  0  0  0
  3  4  1  0  0  0
  3 90  1  0  0  0
  3 91  1  0  0  0
  4  5  1  0  0  0
  4 92  1  0  0  0
  4 93  1  0  0  0
  5  6  1  0  0  0
  5 26  1  0  0  0
  5 94  1  0  0  0
  6 25  1  0  0  0
  6 95  1  0  0  0
  6 96  1  0  0  0
  7  8  2  0  0  0
  7 26  1  0  0  0
  7 29  1  0  0  0
  8  9  1  0  0  0
  8 22  1  0  0  0
  9 10  1  0  0  0
  9 27  2  0  0  0
 10 11  2  0  0  0
 10 15  1  0  0  0
 11 12  1  0  0  0
 11 97  1  0  0  0
 12 13  2  0  0  0
 12 98  1  0  0  0
 13 14  1  0  0  0
 13 31  1  0  0  0
 14 15  2  0  0  0
 14 99  1  0  0  0
 15100  1  0  0  0
 16 17  2  0  0  0
 16 21  1  0  0  0
 16 31  1  0  0  0
 17 18  1  0  0  0
 17101  1  0  0  0
 18 19  2  0  0  0
 18102  1  0  0  0
 19 20  1  0  0  0
 19 24  1  0  0  0
 20 21  2  0  0  0
 20103  1  0  0  0
 21 23  1  0  0  0
 22 28  1  0  0  0
 22 32  2  0  0  0
 26 27  1  0  0  0
 28104  1  0  0  0
 28105  1  0  0  0
 29106  1  0  0  0
 29107  1  0  0  0
 33 34  1  0  0  0
 33 66  1  0  0  0
 33 70  2  0  0  0
 34 36  1  0  0  0
 34 59  1  0  0  0
 34108  1  0  0  0
 35 44  2  0  0  0
 35 45  1  0  0  0
 35 68  1  0  0  0
 36 56  1  0  0  0
 36109  1  0  0  0
 37 39  1  0  0  0
 37 47  1  0  0  0
 37 66  1  0  0  0
 37110  1  0  0  0
 38 43  2  0  0  0
 38 46  1  0  0  0
 38 47  1  0  0  0
 39 64  1  0  0  0
 39 67  2  0  0  0
 40 52  1  0  0  0
 40 53  2  0  0  0
 40 58  1  0  0  0
 41111  1  0  0  0
 41112  1  0  0  0
 41113  1  0  0  0
 41 48  1  0  0  0
 42 43  1  0  0  0
 42 66  1  0  0  0
 42114  1  0  0  0
 42115  1  0  0  0
 43 44  1  0  0  0
 44116  1  0  0  0
 45 46  2  0  0  0
 45117  1  0  0  0
 46118  1  0  0  0
 47119  1  0  0  0
 47120  1  0  0  0
 48 56  1  0  0  0
 48 65  1  0  0  0
 48121  1  0  0  0
 49 50  1  0  0  0
 49 53  1  0  0  0
 49 64  1  0  0  0
 49122  1  0  0  0
 50 51  1  0  0  0
 50123  1  0  0  0
 50124  1  0  0  0
 51 52  1  0  0  0
 51125  1  0  0  0
 51126  1  0  0  0
 52127  1  0  0  0
 52128  1  0  0  0
 53 54  1  0  0  0
 54 55  2  0  0  0
 54129  1  0  0  0
 55 57  1  0  0  0
 55130  1  0  0  0
 56 69  2  0  0  0
 57 58  2  0  0  0
 57131  1  0  0  0
 58132  1  0  0  0
 59 60  1  0  0  0
 59 61  1  0  0  0
 59 62  1  0  0  0
 60133  1  0  0  0
 60134  1  0  0  0
 60135  1  0  0  0
 61136  1  0  0  0
 61137  1  0  0  0
 61138  1  0  0  0
 62139  1  0  0  0
 62140  1  0  0  0
 62141  1  0  0  0
 63 65  1  0  0  0
 63142  1  0  0  0
 63143  1  0  0  0
 63144  1  0  0  0
 64145  1  0  0  0
 65146  1  0  0  0
 68 85  1  0  0  0
 71 72  2  0  0  0
 71 73  1  0  0  0
 71 74  1  0  0  0
 72 75  1  0  0  0
 72 82  1  0  0  0
 73 76  1  0  0  0
 73 87  2  0  0  0
 74 81  1  0  0  0
 74147  1  0  0  0
 74148  1  0  0  0
 75 76  1  0  0  0
 75149  1  0  0  0
 75150  1  0  0  0
 76151  1  0  0  0
 76152  1  0  0  0
 77 79  1  0  0  0
 77153  1  0  0  0
 77154  1  0  0  0
 77 83  1  0  0  0
 78 80  1  0  0  0
 78 83  1  0  0  0
 78155  1  0  0  0
 78156  1  0  0  0
 79 84  1  0  0  0
 79157  1  0  0  0
 79158  1  0  0  0
 80 84  1  0  0  0
 80159  1  0  0  0
 80160  1  0  0  0
 81 86  1  0  0  0
 81161  1  0  0  0
 81162  1  0  0  0
 82 83  1  0  0  0
 82 86  1  0  0  0
 82163  1  0  0  0
 83164  1  0  0  0
 84 85  1  0  0  0
 84165  1  0  0  0
 85166  1  0  0  0
 85167  1  0  0  0
M  ISO  4   1 100  68 101  85 101  86 100
M  END
> <chiral flag>
0

> <version>
0

> <s_m_source_file>
/data/baiqing/PycharmProjects/Reinvent-master-3.2/result/LINK_invent/BTK/process_docking_weight1_custom_sum_contain_oxygen_bond_distance_aromatic_linkinvent_7_9_3/rearranged_h_0129.sdf

> <i_m_source_file_index>
44

> <r_mmod_Potential_Energy-OPLS-2005>
1157.865234375

> <r_mmod_Stretch_Energy-OPLS-2005>
384.217498779297

> <r_mmod_Bend_Energy-OPLS-2005>
437.701629638672

> <r_mmod_Torsional_Energy-OPLS-2005>
365.409332275391

> <r_mmod_Improper_Torsional_Energy-OPLS-2005>
13.6667833328247

> <r_mmod_Van_der_Waal_Energy-OPLS-2005>
121.688682556152

> <r_mmod_Electrostatic_Energy-OPLS-2005>
-276.245086669922

> <r_mmod_Solvation_Energy-OPLS-2005>
-203.720001220703

> <b_mmod_Minimization_Converged-OPLS-2005>
0

> <r_mmod_RMS_Derivative-OPLS-2005>
5.42435646057129

$$$$
44
                    3D
 Structure written by MMmdl.
171179  0  0  1  0            999 V2000
  -30.7029  -14.4382   20.6028 C   0  0  0  0  0  0
  -30.4330  -12.2934   19.4064 C   0  0  0  0  0  0
  -29.4995  -12.5144   18.1993 C   0  0  0  0  0  0
  -28.0221  -12.3606   18.6200 C   0  0  0  0  0  0
  -27.6699  -13.1954   19.8780 C   0  0  2  0  0  0
  -28.7093  -12.9451   20.9941 C   0  0  0  0  0  0
  -25.2675  -13.8146   20.5716 C   0  0  0  0  0  0
  -24.1905  -13.0445   20.9212 C   0  0  0  0  0  0
  -24.6433  -11.6897   20.8727 C   0  0  0  0  0  0
  -23.9074  -10.4312   21.0400 C   0  0  0  0  0  0
  -24.3635   -9.4207   21.9181 C   0  0  0  0  0  0
  -23.6310   -8.2241   22.0733 C   0  0  0  0  0  0
  -22.4281   -8.0291   21.3536 C   0  0  0  0  0  0
  -21.9942   -9.0264   20.4641 C   0  0  0  0  0  0
  -22.7262  -10.2149   20.3049 C   0  0  0  0  0  0
  -21.6859   -6.0760   22.5272 C   0  0  0  0  0  0
  -21.4016   -6.5649   23.8221 C   0  0  0  0  0  0
  -21.3653   -5.6792   24.9179 C   0  0  0  0  0  0
  -21.6048   -4.3055   24.7225 C   0  0  0  0  0  0
  -21.8829   -3.8162   23.4347 C   0  0  0  0  0  0
  -21.9204   -4.6991   22.3402 C   0  0  0  0  0  0
  -22.7920  -13.5236   21.1855 C   0  0  0  0  0  0
  -22.1661   -4.2175   21.0983 F   0  0  0  0  0  0
  -21.5643   -3.4535   25.7742 F   0  0  0  0  0  0
  -30.0482  -13.2548   20.4525 N   0  0  0  0  0  0
  -26.3087  -12.9278   20.3349 N   0  0  0  0  0  0
  -25.9350  -11.6449   20.5707 N   0  0  0  0  0  0
  -22.0563  -12.8179   22.0380 N   0  0  0  0  0  0
  -25.4489  -15.1854   20.4119 N   0  0  0  0  0  0
  -31.7852  -14.6911   20.0686 O   0  0  0  0  0  0
  -21.6633   -6.8902   21.4235 O   0  0  0  0  0  0
  -22.3617  -14.5590   20.6749 O   0  0  0  0  0  0
  -24.6111  -31.8713   23.2118 C   0  0  0  0  0  0
  -25.9020  -32.4823   23.8383 C   0  0  1  0  0  0
  -27.2334  -27.4673   20.0737 C   0  0  0  0  0  0
  -25.5889  -33.8615   24.2301 N   0  0  0  0  0  0
  -23.3957  -30.4976   21.5556 C   0  0  2  0  0  0
  -24.8389  -28.9665   20.1247 C   0  0  0  0  0  0
  -22.7358  -29.4667   22.4997 C   0  0  0  0  0  0
  -18.0262  -28.1394   22.8514 C   0  0  0  0  0  0
  -24.1505  -36.7332   23.2635 C   0  0  0  0  0  0
  -25.9237  -30.8498   21.3573 C   0  0  0  0  0  0
  -26.0034  -29.4844   20.7067 C   0  0  0  0  0  0
  -27.2047  -28.7413   20.6840 C   0  0  0  0  0  0
  -26.0380  -26.9423   19.5489 C   0  0  0  0  0  0
  -24.8449  -27.6830   19.5570 C   0  0  0  0  0  0
  -23.6017  -29.8316   20.1713 C   0  0  0  0  0  0
  -25.4121  -36.3095   24.0332 C   0  0  1  0  0  0
  -20.5830  -28.3647   23.1317 C   0  0  2  0  0  0
  -20.6760  -26.9387   22.5380 C   0  0  0  0  0  0
  -19.5709  -26.6387   21.5183 C   0  0  0  0  0  0
  -18.1906  -26.7913   22.1664 C   0  0  0  0  0  0
  -19.1529  -28.8843   23.2897 C   0  0  0  0  0  0
  -18.9528  -30.1465   23.8832 C   0  0  0  0  0  0
  -17.6536  -30.6602   24.0578 C   0  0  0  0  0  0
  -25.9052  -34.9475   23.5120 C   0  0  0  0  0  0
  -16.5411  -29.9133   23.6389 C   0  0  0  0  0  0
  -16.7283  -28.6544   23.0375 C   0  0  0  0  0  0
  -26.4472  -31.6565   25.0681 C   0  0  0  0  0  0
  -25.3736  -31.3670   26.1433 C   0  0  0  0  0  0
  -27.0309  -30.3001   24.6026 C   0  0  0  0  0  0
  -27.6039  -32.4278   25.7466 C   0  0  0  0  0  0
  -27.5584  -37.1812   24.8467 C   0  0  0  0  0  0
  -21.4073  -29.3086   22.3792 N   0  0  0  0  0  0
  -26.4292  -37.3779   23.9414 N   0  0  0  0  0  0
  -24.6633  -31.0841   22.1002 N   0  0  0  0  0  0
  -23.4165  -28.8139   23.2960 O   0  0  0  0  0  0
  -28.4007  -26.7420   20.0281 O   0  0  0  0  0  0
  -26.5622  -34.8917   22.4679 O   0  0  0  0  0  0
  -23.5313  -32.1441   23.7544 O   0  0  0  0  0  0
  -26.5614  -22.2745   19.2060 C   0  0  0  0  0  0
  -27.2084  -24.3216   17.6385 C   0  0  0  0  0  0
  -28.3233  -23.8440   19.9395 C   0  0  0  0  0  0
  -26.1948  -23.1943   18.0106 C   0  0  2  0  0  0
  -28.0319  -22.3623   19.6535 C   0  0  1  0  0  0
  -28.3846  -24.6238   18.6175 C   0  0  2  0  0  0
  -24.7476  -23.7161   18.1421 C   0  0  0  0  0  0
  -30.5966  -17.0388   22.9803 C   0  0  0  0  0  0
  -28.3793  -21.4398   20.8516 C   0  0  0  0  0  0
  -28.7448  -26.1296   18.7763 C   0  0  0  0  0  0
  -28.2267  -19.9241   20.5524 C   0  0  0  0  0  0
  -29.1158  -17.6247   20.9572 C   0  0  0  0  0  0
  -30.3101  -16.7828   21.4894 C   0  0  2  0  0  0
  -30.0225  -15.3528   21.3088 N   0  0  0  0  0  0
  -29.2743  -19.0852   21.1830 N   0  3  0  0  0  0
  -31.4745  -12.4088   19.0983 H   0  0  0  0  0  0
  -30.3434  -11.2692   19.7756 H   0  0  0  0  0  0
  -29.7373  -11.8028   17.4078 H   0  0  0  0  0  0
  -29.6709  -13.5066   17.7811 H   0  0  0  0  0  0
  -27.8538  -11.3015   18.8257 H   0  0  0  0  0  0
  -27.3640  -12.6223   17.7913 H   0  0  0  0  0  0
  -27.7237  -14.2472   19.5899 H   0  0  0  0  0  0
  -28.6795  -11.9038   21.3156 H   0  0  0  0  0  0
  -28.4581  -13.5181   21.8886 H   0  0  0  0  0  0
  -25.2805   -9.5674   22.4733 H   0  0  0  0  0  0
  -24.0044   -7.4634   22.7421 H   0  0  0  0  0  0
  -21.0905   -8.8803   19.8922 H   0  0  0  0  0  0
  -22.3766  -10.9688   19.6144 H   0  0  0  0  0  0
  -21.1978   -7.6153   23.9739 H   0  0  0  0  0  0
  -21.1457   -6.0503   25.9078 H   0  0  0  0  0  0
  -22.0614   -2.7618   23.2829 H   0  0  0  0  0  0
  -22.4181  -11.9811   22.4713 H   0  0  0  0  0  0
  -21.1181  -13.1183   22.2634 H   0  0  0  0  0  0
  -24.7002  -15.8547   20.5465 H   0  0  0  0  0  0
  -26.2978  -15.6039   20.0517 H   0  0  0  0  0  0
  -26.7078  -32.5501   23.1139 H   0  0  0  0  0  0
  -24.9993  -33.9792   25.0415 H   0  0  0  0  0  0
  -22.6871  -31.3172   21.4199 H   0  0  0  0  0  0
  -23.3733  -35.9695   23.3308 H   0  0  0  0  0  0
  -24.3590  -36.8931   22.2037 H   0  0  0  0  0  0
  -23.7287  -37.6555   23.6655 H   0  0  0  0  0  0
  -26.0320  -31.6175   20.5891 H   0  0  0  0  0  0
  -26.8131  -30.9000   21.9731 H   0  0  0  0  0  0
  -28.1052  -29.1564   21.1109 H   0  0  0  0  0  0
  -26.0145  -25.9358   19.1837 H   0  0  0  0  0  0
  -23.9410  -27.2487   19.1509 H   0  0  0  0  0  0
  -23.7079  -30.6077   19.4144 H   0  0  0  0  0  0
  -22.7257  -29.2531   19.8717 H   0  0  0  0  0  0
  -25.1291  -36.1961   25.0818 H   0  0  0  0  0  0
  -20.9839  -28.3218   24.1467 H   0  0  0  0  0  0
  -20.5676  -26.2219   23.3569 H   0  0  0  0  0  0
  -21.6628  -26.7424   22.1143 H   0  0  0  0  0  0
  -19.6776  -25.6308   21.1166 H   0  0  0  0  0  0
  -19.6603  -27.3189   20.6679 H   0  0  0  0  0  0
  -17.4128  -26.6609   21.4122 H   0  0  0  0  0  0
  -18.0397  -26.0082   22.9083 H   0  0  0  0  0  0
  -19.8065  -30.7283   24.2099 H   0  0  0  0  0  0
  -17.5181  -31.6285   24.5192 H   0  0  0  0  0  0
  -15.5436  -30.3074   23.7799 H   0  0  0  0  0  0
  -15.8661  -28.0902   22.7112 H   0  0  0  0  0  0
  -24.5920  -30.7002   25.7789 H   0  0  0  0  0  0
  -24.8930  -32.2824   26.4873 H   0  0  0  0  0  0
  -25.8096  -30.8845   27.0183 H   0  0  0  0  0  0
  -26.2848  -29.6743   24.1111 H   0  0  0  0  0  0
  -27.4131  -29.7231   25.4464 H   0  0  0  0  0  0
  -27.8652  -30.4327   23.9133 H   0  0  0  0  0  0
  -27.2640  -33.3558   26.2073 H   0  0  0  0  0  0
  -28.3848  -32.6841   25.0299 H   0  0  0  0  0  0
  -28.0700  -31.8356   26.5351 H   0  0  0  0  0  0
  -28.2601  -38.0110   24.7486 H   0  0  0  0  0  0
  -28.1063  -36.2626   24.6317 H   0  0  0  0  0  0
  -27.2295  -37.1500   25.8867 H   0  0  0  0  0  0
  -20.9149  -29.9046   21.7270 H   0  0  0  0  0  0
  -26.0182  -38.2857   24.1387 H   0  0  0  0  0  0
  -26.3038  -21.2495   18.9402 H   0  0  0  0  0  0
  -25.9301  -22.5102   20.0627 H   0  0  0  0  0  0
  -26.6783  -25.2313   17.3585 H   0  0  0  0  0  0
  -27.6596  -24.0302   16.6877 H   0  0  0  0  0  0
  -29.2664  -23.9653   20.4751 H   0  0  0  0  0  0
  -27.5493  -24.2666   20.5831 H   0  0  0  0  0  0
  -26.1757  -22.5422   17.1388 H   0  0  0  0  0  0
  -28.6683  -22.0489   18.8215 H   0  0  0  0  0  0
  -29.2536  -24.2089   18.1039 H   0  0  0  0  0  0
  -24.5962  -24.3111   19.0433 H   0  0  0  0  0  0
  -24.0402  -22.8881   18.1931 H   0  0  0  0  0  0
  -24.4615  -24.3324   17.2917 H   0  0  0  0  0  0
  -30.9783  -18.0452   23.1528 H   0  0  0  0  0  0
  -31.3359  -16.3397   23.3745 H   0  0  0  0  0  0
  -29.6971  -16.9168   23.5816 H   0  0  0  0  0  0
  -27.7659  -21.7044   21.7157 H   0  0  0  0  0  0
  -29.4073  -21.6436   21.1536 H   0  0  0  0  0  0
  -28.3737  -26.7174   17.9332 H   0  0  0  0  0  0
  -29.8317  -26.2170   18.7153 H   0  0  0  0  0  0
  -28.2552  -19.7492   19.4771 H   0  0  0  0  0  0
  -27.2418  -19.5882   20.8852 H   0  0  0  0  0  0
  -28.1893  -17.2893   21.4274 H   0  0  0  0  0  0
  -28.9995  -17.4402   19.8866 H   0  0  0  0  0  0
  -31.2031  -17.0438   20.9191 H   0  0  0  0  0  0
  -29.1702  -15.0089   21.7279 H   0  0  0  0  0  0
  -29.2789  -19.2546   22.1755 H   0  0  0  0  0  0
  -30.1685  -19.3674   20.8172 H   0  0  0  0  0  0
  1 25  1  0  0  0
  1 30  2  0  0  0
  1 84  1  0  0  0
  2  3  1  0  0  0
  2 25  1  0  0  0
  2 86  1  0  0  0
  2 87  1  0  0  0
  3  4  1  0  0  0
  3 88  1  0  0  0
  3 89  1  0  0  0
  4  5  1  0  0  0
  4 90  1  0  0  0
  4 91  1  0  0  0
  5  6  1  0  0  0
  5 26  1  0  0  0
  5 92  1  0  0  0
  6 25  1  0  0  0
  6 93  1  0  0  0
  6 94  1  0  0  0
  7  8  2  0  0  0
  7 26  1  0  0  0
  7 29  1  0  0  0
  8  9  1  0  0  0
  8 22  1  0  0  0
  9 10  1  0  0  0
  9 27  2  0  0  0
 10 11  2  0  0  0
 10 15  1  0  0  0
 11 12  1  0  0  0
 11 95  1  0  0  0
 12 13  2  0  0  0
 12 96  1  0  0  0
 13 14  1  0  0  0
 13 31  1  0  0  0
 14 15  2  0  0  0
 14 97  1  0  0  0
 15 98  1  0  0  0
 16 17  2  0  0  0
 16 21  1  0  0  0
 16 31  1  0  0  0
 17 18  1  0  0  0
 17 99  1  0  0  0
 18 19  2  0  0  0
 18100  1  0  0  0
 19 20  1  0  0  0
 19 24  1  0  0  0
 20 21  2  0  0  0
 20101  1  0  0  0
 21 23  1  0  0  0
 22 28  1  0  0  0
 22 32  2  0  0  0
 26 27  1  0  0  0
 28102  1  0  0  0
 28103  1  0  0  0
 29104  1  0  0  0
 29105  1  0  0  0
 33 34  1  0  0  0
 33 66  1  0  0  0
 33 70  2  0  0  0
 34 36  1  0  0  0
 34 59  1  0  0  0
 34106  1  0  0  0
 35 44  2  0  0  0
 35 45  1  0  0  0
 35 68  1  0  0  0
 36 56  1  0  0  0
 36107  1  0  0  0
 37 39  1  0  0  0
 37 47  1  0  0  0
 37 66  1  0  0  0
 37108  1  0  0  0
 38 43  2  0  0  0
 38 46  1  0  0  0
 38 47  1  0  0  0
 39 64  1  0  0  0
 39 67  2  0  0  0
 40 52  1  0  0  0
 40 53  2  0  0  0
 40 58  1  0  0  0
 41109  1  0  0  0
 41110  1  0  0  0
 41111  1  0  0  0
 41 48  1  0  0  0
 42 43  1  0  0  0
 42 66  1  0  0  0
 42112  1  0  0  0
 42113  1  0  0  0
 43 44  1  0  0  0
 44114  1  0  0  0
 45 46  2  0  0  0
 45115  1  0  0  0
 46116  1  0  0  0
 47117  1  0  0  0
 47118  1  0  0  0
 48 56  1  0  0  0
 48 65  1  0  0  0
 48119  1  0  0  0
 49 50  1  0  0  0
 49 53  1  0  0  0
 49 64  1  0  0  0
 49120  1  0  0  0
 50 51  1  0  0  0
 50121  1  0  0  0
 50122  1  0  0  0
 51 52  1  0  0  0
 51123  1  0  0  0
 51124  1  0  0  0
 52125  1  0  0  0
 52126  1  0  0  0
 53 54  1  0  0  0
 54 55  2  0  0  0
 54127  1  0  0  0
 55 57  1  0  0  0
 55128  1  0  0  0
 56 69  2  0  0  0
 57 58  2  0  0  0
 57129  1  0  0  0
 58130  1  0  0  0
 59 60  1  0  0  0
 59 61  1  0  0  0
 59 62  1  0  0  0
 60131  1  0  0  0
 60132  1  0  0  0
 60133  1  0  0  0
 61134  1  0  0  0
 61135  1  0  0  0
 61136  1  0  0  0
 62137  1  0  0  0
 62138  1  0  0  0
 62139  1  0  0  0
 63 65  1  0  0  0
 63140  1  0  0  0
 63141  1  0  0  0
 63142  1  0  0  0
 64143  1  0  0  0
 65144  1  0  0  0
 68 80  1  0  0  0
 71 74  1  0  0  0
 71 75  1  0  0  0
 71145  1  0  0  0
 71146  1  0  0  0
 72 74  1  0  0  0
 72 76  1  0  0  0
 72147  1  0  0  0
 72148  1  0  0  0
 73 75  1  0  0  0
 73 76  1  0  0  0
 73149  1  0  0  0
 73150  1  0  0  0
 74 77  1  0  0  0
 74151  1  0  0  0
 75 79  1  0  0  0
 75152  1  0  0  0
 76 80  1  0  0  0
 76153  1  0  0  0
 77154  1  0  0  0
 77155  1  0  0  0
 77156  1  0  0  0
 78157  1  0  0  0
 78158  1  0  0  0
 78159  1  0  0  0
 78 83  1  0  0  0
 79 81  1  0  0  0
 79160  1  0  0  0
 79161  1  0  0  0
 80162  1  0  0  0
 80163  1  0  0  0
 81 85  1  0  0  0
 81164  1  0  0  0
 81165  1  0  0  0
 82 83  1  0  0  0
 82 85  1  0  0  0
 82166  1  0  0  0
 82167  1  0  0  0
 83 84  1  0  0  0
 83168  1  0  0  0
 84169  1  0  0  0
 85170  1  0  0  0
 85171  1  0  0  0
M  CHG  1  85   1
M  ISO  4   1 100  68 101  80 101  84 100
M  END
> <chiral flag>
0

> <version>
0

> <s_m_source_file>
/data/baiqing/PycharmProjects/Reinvent-master-3.2/result/LINK_invent/BTK/process_docking_weight1_custom_sum_contain_oxygen_bond_distance_aromatic_linkinvent_7_9_3/rearranged_h_0129.sdf

> <i_m_source_file_index>
45

> <r_mmod_Potential_Energy-OPLS-2005>
-145.351028442383

> <r_mmod_Stretch_Energy-OPLS-2005>
37.3073272705078

> <r_mmod_Bend_Energy-OPLS-2005>
120.354621887207

> <r_mmod_Torsional_Energy-OPLS-2005>
292.577026367188

> <r_mmod_Improper_Torsional_Energy-OPLS-2005>
2.80208325386047

> <r_mmod_Van_der_Waal_Energy-OPLS-2005>
140.515838623047

> <r_mmod_Electrostatic_Energy-OPLS-2005>
-284.119750976562

> <r_mmod_Solvation_Energy-OPLS-2005>
-463.779876708984

> <b_mmod_Minimization_Converged-OPLS-2005>
0

> <r_mmod_RMS_Derivative-OPLS-2005>
5.1007981300354

$$$$
45
                    3D
 Structure written by MMmdl.
162171  0  0  1  0            999 V2000
  -30.7801  -14.3644   20.6899 C   0  0  0  0  0  0
  -30.4126  -12.2953   19.3929 C   0  0  0  0  0  0
  -29.4798  -12.5246   18.1900 C   0  0  0  0  0  0
  -28.0061  -12.3777   18.6108 C   0  0  0  0  0  0
  -27.6643  -13.2049   19.8775 C   0  0  2  0  0  0
  -28.7031  -12.9584   20.9935 C   0  0  0  0  0  0
  -25.2589  -13.8160   20.5669 C   0  0  0  0  0  0
  -24.1838  -13.0437   20.9172 C   0  0  0  0  0  0
  -24.6392  -11.6907   20.8736 C   0  0  0  0  0  0
  -23.9063  -10.4293   21.0406 C   0  0  0  0  0  0
  -24.3611   -9.4209   21.9187 C   0  0  0  0  0  0
  -23.6286   -8.2245   22.0759 C   0  0  0  0  0  0
  -22.4272   -8.0282   21.3545 C   0  0  0  0  0  0
  -21.9909   -9.0255   20.4644 C   0  0  0  0  0  0
  -22.7239  -10.2131   20.3053 C   0  0  0  0  0  0
  -21.6849   -6.0734   22.5276 C   0  0  0  0  0  0
  -21.4012   -6.5639   23.8209 C   0  0  0  0  0  0
  -21.3662   -5.6789   24.9173 C   0  0  0  0  0  0
  -21.6047   -4.3052   24.7225 C   0  0  0  0  0  0
  -21.8820   -3.8147   23.4342 C   0  0  0  0  0  0
  -21.9193   -4.6963   22.3399 C   0  0  0  0  0  0
  -22.7863  -13.5235   21.1839 C   0  0  0  0  0  0
  -22.1662   -4.2149   21.0974 F   0  0  0  0  0  0
  -21.5631   -3.4538   25.7739 F   0  0  0  0  0  0
  -30.0461  -13.2459   20.4537 N   0  0  0  0  0  0
  -26.3030  -12.9329   20.3373 N   0  0  0  0  0  0
  -25.9315  -11.6489   20.5761 N   0  0  0  0  0  0
  -22.0502  -12.8222   22.0386 N   0  0  0  0  0  0
  -25.4323  -15.1874   20.4063 N   0  0  0  0  0  0
  -31.7992  -14.6535   20.0558 O   0  0  0  0  0  0
  -21.6637   -6.8878   21.4239 O   0  0  0  0  0  0
  -22.3558  -14.5553   20.6704 O   0  0  0  0  0  0
  -24.6111  -31.8687   23.2136 C   0  0  0  0  0  0
  -25.9010  -32.4820   23.8422 C   0  0  1  0  0  0
  -27.2415  -27.4572   20.0683 C   0  0  0  0  0  0
  -25.5868  -33.8622   24.2334 N   0  0  0  0  0  0
  -23.3990  -30.4934   21.5533 C   0  0  2  0  0  0
  -24.8452  -28.9626   20.1154 C   0  0  0  0  0  0
  -22.7385  -29.4659   22.5003 C   0  0  0  0  0  0
  -18.0254  -28.1368   22.8492 C   0  0  0  0  0  0
  -24.1477  -36.7329   23.2646 C   0  0  0  0  0  0
  -25.9276  -30.8347   21.3687 C   0  0  0  0  0  0
  -26.0037  -29.4714   20.7142 C   0  0  0  0  0  0
  -27.2000  -28.7202   20.7000 C   0  0  0  0  0  0
  -26.0552  -26.9483   19.4890 C   0  0  0  0  0  0
  -24.8638  -27.6963   19.5071 C   0  0  0  0  0  0
  -23.6062  -29.8278   20.1671 C   0  0  0  0  0  0
  -25.4092  -36.3111   24.0343 C   0  0  1  0  0  0
  -20.5841  -28.3654   23.1324 C   0  0  2  0  0  0
  -20.6740  -26.9390   22.5423 C   0  0  0  0  0  0
  -19.5725  -26.6374   21.5210 C   0  0  0  0  0  0
  -18.1902  -26.7917   22.1614 C   0  0  0  0  0  0
  -19.1503  -28.8825   23.2907 C   0  0  0  0  0  0
  -18.9432  -30.1433   23.8913 C   0  0  0  0  0  0
  -17.6434  -30.6578   24.0563 C   0  0  0  0  0  0
  -25.9022  -34.9475   23.5136 C   0  0  0  0  0  0
  -16.5325  -29.9081   23.6323 C   0  0  0  0  0  0
  -16.7245  -28.6496   23.0344 C   0  0  0  0  0  0
  -26.4454  -31.6607   25.0750 C   0  0  0  0  0  0
  -25.3734  -31.3676   26.1505 C   0  0  0  0  0  0
  -27.0316  -30.3057   24.6140 C   0  0  0  0  0  0
  -27.6016  -32.4360   25.7498 C   0  0  0  0  0  0
  -27.5570  -37.1817   24.8456 C   0  0  0  0  0  0
  -21.4116  -29.3027   22.3740 N   0  0  0  0  0  0
  -26.4276  -37.3794   23.9408 N   0  0  0  0  0  0
  -24.6634  -31.0805   22.1025 N   0  0  0  0  0  0
  -23.4164  -28.8197   23.3034 O   0  0  0  0  0  0
  -28.4211  -26.7426   20.0785 O   0  0  0  0  0  0
  -26.5596  -34.8921   22.4705 O   0  0  0  0  0  0
  -23.5310  -32.1446   23.7538 O   0  0  0  0  0  0
  -27.6050  -20.5531   19.6933 C   0  0  0  0  0  0
  -28.0262  -19.3146   20.2274 C   0  0  0  0  0  0
  -30.1505  -20.3067   20.9459 C   0  0  0  0  0  0
  -28.4707  -21.6533   19.8062 C   0  0  0  0  0  0
  -29.7063  -21.5356   20.4170 C   0  0  0  0  0  0
  -29.2905  -19.1772   20.8544 C   0  0  0  0  0  0
  -28.2416  -23.0683   19.3431 C   0  0  0  0  0  0
  -30.4106  -22.8705   20.4206 C   0  0  0  0  0  0
  -31.0151  -17.5300   21.5676 C   0  0  0  0  0  0
  -31.1338  -16.2003   22.3329 C   0  0  0  0  0  0
  -29.8701  -24.9937   19.1996 C   0  0  0  0  0  0
  -28.7956  -26.0539   18.8816 C   0  0  0  0  0  0
  -29.6224  -17.9195   21.3822 N   0  0  0  0  0  0
  -30.3709  -15.1099   21.7239 N   0  0  0  0  0  0
  -29.3554  -23.8341   19.9804 N   0  3  1  0  0  0
  -31.4553  -12.3919   19.0858 H   0  0  0  0  0  0
  -30.3093  -11.2746   19.7642 H   0  0  0  0  0  0
  -29.7113  -11.8165   17.3928 H   0  0  0  0  0  0
  -29.6484  -13.5199   17.7754 H   0  0  0  0  0  0
  -27.8162  -11.3200   18.7968 H   0  0  0  0  0  0
  -27.3496  -12.6633   17.7879 H   0  0  0  0  0  0
  -27.7201  -14.2576   19.5992 H   0  0  0  0  0  0
  -28.6658  -11.9182   21.3204 H   0  0  0  0  0  0
  -28.4477  -13.5459   21.8750 H   0  0  0  0  0  0
  -25.2754   -9.5688   22.4764 H   0  0  0  0  0  0
  -23.9995   -7.4641   22.7484 H   0  0  0  0  0  0
  -21.0844   -8.8773   19.8948 H   0  0  0  0  0  0
  -22.3702  -10.9670   19.6159 H   0  0  0  0  0  0
  -21.2003   -7.6148   23.9713 H   0  0  0  0  0  0
  -21.1483   -6.0519   25.9073 H   0  0  0  0  0  0
  -22.0599   -2.7607   23.2841 H   0  0  0  0  0  0
  -22.4104  -11.9856   22.4731 H   0  0  0  0  0  0
  -21.1120  -13.1247   22.2597 H   0  0  0  0  0  0
  -24.6681  -15.8460   20.5099 H   0  0  0  0  0  0
  -26.2889  -15.6196   20.0846 H   0  0  0  0  0  0
  -26.7071  -32.5532   23.1188 H   0  0  0  0  0  0
  -24.9977  -33.9782   25.0446 H   0  0  0  0  0  0
  -22.6874  -31.3103   21.4169 H   0  0  0  0  0  0
  -23.3725  -35.9674   23.3296 H   0  0  0  0  0  0
  -24.3565  -36.8969   22.2062 H   0  0  0  0  0  0
  -23.7250  -37.6534   23.6675 H   0  0  0  0  0  0
  -26.0435  -31.6016   20.6018 H   0  0  0  0  0  0
  -26.8136  -30.8837   21.9900 H   0  0  0  0  0  0
  -28.0949  -29.1132   21.1614 H   0  0  0  0  0  0
  -26.0173  -25.9691   19.0359 H   0  0  0  0  0  0
  -23.9682  -27.2917   19.0559 H   0  0  0  0  0  0
  -23.7120  -30.6043   19.4085 H   0  0  0  0  0  0
  -22.7294  -29.2478   19.8724 H   0  0  0  0  0  0
  -25.1269  -36.1976   25.0839 H   0  0  0  0  0  0
  -20.9930  -28.3219   24.1445 H   0  0  0  0  0  0
  -20.5608  -26.2270   23.3610 H   0  0  0  0  0  0
  -21.6618  -26.7411   22.1241 H   0  0  0  0  0  0
  -19.6887  -25.6287   21.1232 H   0  0  0  0  0  0
  -19.6672  -27.3183   20.6738 H   0  0  0  0  0  0
  -17.4181  -26.6673   21.4008 H   0  0  0  0  0  0
  -18.0291  -26.0043   22.8990 H   0  0  0  0  0  0
  -19.7906  -30.7241   24.2295 H   0  0  0  0  0  0
  -17.4989  -31.6255   24.5170 H   0  0  0  0  0  0
  -15.5325  -30.2985   23.7644 H   0  0  0  0  0  0
  -15.8644  -28.0827   22.7044 H   0  0  0  0  0  0
  -24.5921  -30.7003   25.7845 H   0  0  0  0  0  0
  -24.8893  -32.2802   26.4986 H   0  0  0  0  0  0
  -25.8116  -30.8833   27.0244 H   0  0  0  0  0  0
  -26.2876  -29.6794   24.1195 H   0  0  0  0  0  0
  -27.4094  -29.7316   25.4615 H   0  0  0  0  0  0
  -27.8703  -30.4388   23.9302 H   0  0  0  0  0  0
  -27.2615  -33.3664   26.2063 H   0  0  0  0  0  0
  -28.3804  -32.6930   25.0303 H   0  0  0  0  0  0
  -28.0708  -31.8508   26.5420 H   0  0  0  0  0  0
  -28.2580  -38.0120   24.7496 H   0  0  0  0  0  0
  -28.1078  -36.2652   24.6278 H   0  0  0  0  0  0
  -27.2294  -37.1466   25.8862 H   0  0  0  0  0  0
  -20.9268  -29.8779   21.6995 H   0  0  0  0  0  0
  -26.0166  -38.2876   24.1397 H   0  0  0  0  0  0
  -26.6384  -20.6491   19.2184 H   0  0  0  0  0  0
  -27.3611  -18.4653   20.1509 H   0  0  0  0  0  0
  -31.1189  -20.2588   21.4215 H   0  0  0  0  0  0
  -27.2666  -23.4420   19.6577 H   0  0  0  0  0  0
  -28.3012  -23.0981   18.2542 H   0  0  0  0  0  0
  -31.2422  -22.8364   19.7149 H   0  0  0  0  0  0
  -30.7985  -23.1255   21.4075 H   0  0  0  0  0  0
  -31.5014  -17.4489   20.5937 H   0  0  0  0  0  0
  -31.5572  -18.2920   22.1281 H   0  0  0  0  0  0
  -30.7773  -16.3320   23.3554 H   0  0  0  0  0  0
  -32.1845  -15.9160   22.4183 H   0  0  0  0  0  0
  -30.6878  -25.4653   19.7457 H   0  0  0  0  0  0
  -30.2951  -24.6283   18.2643 H   0  0  0  0  0  0
  -27.9670  -25.5903   18.3503 H   0  0  0  0  0  0
  -29.2129  -26.7909   18.1942 H   0  0  0  0  0  0
  -28.9614  -17.1597   21.2510 H   0  0  0  0  0  0
  -29.5396  -14.8024   22.2056 H   0  0  0  0  0  0
  -28.9678  -24.2001   20.8377 H   0  0  0  0  0  0
  1 25  1  0  0  0
  1 30  2  0  0  0
  1 84  1  0  0  0
  2  3  1  0  0  0
  2 25  1  0  0  0
  2 86  1  0  0  0
  2 87  1  0  0  0
  3  4  1  0  0  0
  3 88  1  0  0  0
  3 89  1  0  0  0
  4  5  1  0  0  0
  4 90  1  0  0  0
  4 91  1  0  0  0
  5  6  1  0  0  0
  5 26  1  0  0  0
  5 92  1  0  0  0
  6 25  1  0  0  0
  6 93  1  0  0  0
  6 94  1  0  0  0
  7  8  2  0  0  0
  7 26  1  0  0  0
  7 29  1  0  0  0
  8  9  1  0  0  0
  8 22  1  0  0  0
  9 10  1  0  0  0
  9 27  2  0  0  0
 10 11  2  0  0  0
 10 15  1  0  0  0
 11 12  1  0  0  0
 11 95  1  0  0  0
 12 13  2  0  0  0
 12 96  1  0  0  0
 13 14  1  0  0  0
 13 31  1  0  0  0
 14 15  2  0  0  0
 14 97  1  0  0  0
 15 98  1  0  0  0
 16 17  2  0  0  0
 16 21  1  0  0  0
 16 31  1  0  0  0
 17 18  1  0  0  0
 17 99  1  0  0  0
 18 19  2  0  0  0
 18100  1  0  0  0
 19 20  1  0  0  0
 19 24  1  0  0  0
 20 21  2  0  0  0
 20101  1  0  0  0
 21 23  1  0  0  0
 22 28  1  0  0  0
 22 32  2  0  0  0
 26 27  1  0  0  0
 28102  1  0  0  0
 28103  1  0  0  0
 29104  1  0  0  0
 29105  1  0  0  0
 33 34  1  0  0  0
 33 66  1  0  0  0
 33 70  2  0  0  0
 34 36  1  0  0  0
 34 59  1  0  0  0
 34106  1  0  0  0
 35 44  2  0  0  0
 35 45  1  0  0  0
 35 68  1  0  0  0
 36 56  1  0  0  0
 36107  1  0  0  0
 37 39  1  0  0  0
 37 47  1  0  0  0
 37 66  1  0  0  0
 37108  1  0  0  0
 38 43  2  0  0  0
 38 46  1  0  0  0
 38 47  1  0  0  0
 39 64  1  0  0  0
 39 67  2  0  0  0
 40 52  1  0  0  0
 40 53  2  0  0  0
 40 58  1  0  0  0
 41109  1  0  0  0
 41110  1  0  0  0
 41111  1  0  0  0
 41 48  1  0  0  0
 42 43  1  0  0  0
 42 66  1  0  0  0
 42112  1  0  0  0
 42113  1  0  0  0
 43 44  1  0  0  0
 44114  1  0  0  0
 45 46  2  0  0  0
 45115  1  0  0  0
 46116  1  0  0  0
 47117  1  0  0  0
 47118  1  0  0  0
 48 56  1  0  0  0
 48 65  1  0  0  0
 48119  1  0  0  0
 49 50  1  0  0  0
 49 53  1  0  0  0
 49 64  1  0  0  0
 49120  1  0  0  0
 50 51  1  0  0  0
 50121  1  0  0  0
 50122  1  0  0  0
 51 52  1  0  0  0
 51123  1  0  0  0
 51124  1  0  0  0
 52125  1  0  0  0
 52126  1  0  0  0
 53 54  1  0  0  0
 54 55  2  0  0  0
 54127  1  0  0  0
 55 57  1  0  0  0
 55128  1  0  0  0
 56 69  2  0  0  0
 57 58  2  0  0  0
 57129  1  0  0  0
 58130  1  0  0  0
 59 60  1  0  0  0
 59 61  1  0  0  0
 59 62  1  0  0  0
 60131  1  0  0  0
 60132  1  0  0  0
 60133  1  0  0  0
 61134  1  0  0  0
 61135  1  0  0  0
 61136  1  0  0  0
 62137  1  0  0  0
 62138  1  0  0  0
 62139  1  0  0  0
 63 65  1  0  0  0
 63140  1  0  0  0
 63141  1  0  0  0
 63142  1  0  0  0
 64143  1  0  0  0
 65144  1  0  0  0
 68 82  1  0  0  0
 71 72  2  0  0  0
 71 74  1  0  0  0
 71145  1  0  0  0
 72 76  1  0  0  0
 72146  1  0  0  0
 73 75  1  0  0  0
 73 76  2  0  0  0
 73147  1  0  0  0
 74 75  2  0  0  0
 74 77  1  0  0  0
 75 78  1  0  0  0
 76 83  1  0  0  0
 77 85  1  0  0  0
 77148  1  0  0  0
 77149  1  0  0  0
 78 85  1  0  0  0
 78150  1  0  0  0
 78151  1  0  0  0
 79 80  1  0  0  0
 79 83  1  0  0  0
 79152  1  0  0  0
 79153  1  0  0  0
 80 84  1  0  0  0
 80154  1  0  0  0
 80155  1  0  0  0
 81 82  1  0  0  0
 81156  1  0  0  0
 81157  1  0  0  0
 81 85  1  0  0  0
 82158  1  0  0  0
 82159  1  0  0  0
 83160  1  0  0  0
 84161  1  0  0  0
 85162  1  0  0  0
M  CHG  1  85   1
M  ISO  4   1 100  68 101  82 101  84 100
M  END
> <chiral flag>
0

> <version>
0

> <s_m_source_file>
/data/baiqing/PycharmProjects/Reinvent-master-3.2/result/LINK_invent/BTK/process_docking_weight1_custom_sum_contain_oxygen_bond_distance_aromatic_linkinvent_7_9_3/rearranged_h_0129.sdf

> <i_m_source_file_index>
46

> <r_mmod_Potential_Energy-OPLS-2005>
-254.576934814453

> <r_mmod_Stretch_Energy-OPLS-2005>
35.7282905578613

> <r_mmod_Bend_Energy-OPLS-2005>
142.482269287109

> <r_mmod_Torsional_Energy-OPLS-2005>
229.472076416016

> <r_mmod_Improper_Torsional_Energy-OPLS-2005>
4.00931882858276

> <r_mmod_Van_der_Waal_Energy-OPLS-2005>
150.729461669922

> <r_mmod_Electrostatic_Energy-OPLS-2005>
-383.380126953125

> <r_mmod_Solvation_Energy-OPLS-2005>
-441.274230957031

> <b_mmod_Minimization_Converged-OPLS-2005>
0

> <r_mmod_RMS_Derivative-OPLS-2005>
1.2008513212204

$$$$
46
                    3D
 Structure written by MMmdl.
162170  0  0  1  0            999 V2000
  -30.5760  -14.9790   20.4150 C   0  0  0  0  0  0
  -30.4401  -12.6032   19.4994 C   0  0  0  0  0  0
  -29.5191  -12.5169   18.2613 C   0  0  0  0  0  0
  -28.0490  -12.3222   18.6766 C   0  0  0  0  0  0
  -27.6290  -13.2570   19.8383 C   0  0  2  0  0  0
  -28.6834  -13.3076   20.9688 C   0  0  0  0  0  0
  -25.2467  -13.8204   20.5774 C   0  0  0  0  0  0
  -24.1786  -13.0449   20.9290 C   0  0  0  0  0  0
  -24.6391  -11.6921   20.8775 C   0  0  0  0  0  0
  -23.9053  -10.4301   21.0383 C   0  0  0  0  0  0
  -24.3603   -9.4210   21.9169 C   0  0  0  0  0  0
  -23.6305   -8.2228   22.0734 C   0  0  0  0  0  0
  -22.4281   -8.0265   21.3524 C   0  0  0  0  0  0
  -21.9909   -9.0230   20.4630 C   0  0  0  0  0  0
  -22.7220  -10.2118   20.3030 C   0  0  0  0  0  0
  -21.6838   -6.0731   22.5274 C   0  0  0  0  0  0
  -21.4019   -6.5631   23.8204 C   0  0  0  0  0  0
  -21.3667   -5.6773   24.9179 C   0  0  0  0  0  0
  -21.6046   -4.3040   24.7218 C   0  0  0  0  0  0
  -21.8834   -3.8131   23.4343 C   0  0  0  0  0  0
  -21.9183   -4.6960   22.3400 C   0  0  0  0  0  0
  -22.7778  -13.5209   21.1919 C   0  0  0  0  0  0
  -22.1610   -4.2150   21.0971 F   0  0  0  0  0  0
  -21.5665   -3.4515   25.7726 F   0  0  0  0  0  0
  -29.9536  -13.7264   20.3554 N   0  0  0  0  0  0
  -26.2912  -12.9462   20.3310 N   0  0  0  0  0  0
  -25.9341  -11.6574   20.5790 N   0  0  0  0  0  0
  -22.0392  -12.8191   22.0434 N   0  0  0  0  0  0
  -25.4140  -15.1942   20.4123 N   0  0  0  0  0  0
  -31.7887  -15.0073   20.1776 O   0  0  0  0  0  0
  -21.6628   -6.8886   21.4222 O   0  0  0  0  0  0
  -22.3447  -14.5491   20.6739 O   0  0  0  0  0  0
  -24.6510  -31.8372   23.1903 C   0  0  0  0  0  0
  -25.9290  -32.4632   23.8280 C   0  0  1  0  0  0
  -27.2277  -27.1224   20.1194 C   0  0  0  0  0  0
  -25.6047  -33.8447   24.2194 N   0  0  0  0  0  0
  -23.4534  -30.4642   21.5293 C   0  0  2  0  0  0
  -24.9029  -28.8895   20.1027 C   0  0  0  0  0  0
  -22.7600  -29.4545   22.4786 C   0  0  0  0  0  0
  -18.0307  -28.1393   22.8472 C   0  0  0  0  0  0
  -24.1492  -36.7195   23.2646 C   0  0  0  0  0  0
  -26.0148  -30.6976   21.4007 C   0  0  0  0  0  0
  -26.0829  -29.3144   20.7297 C   0  0  0  0  0  0
  -27.2407  -28.4474   20.7280 C   0  0  0  0  0  0
  -26.0161  -26.8064   19.4575 C   0  0  0  0  0  0
  -24.8823  -27.6466   19.4555 C   0  0  0  0  0  0
  -23.6896  -29.8064   20.1436 C   0  0  0  0  0  0
  -25.4123  -36.2968   24.0321 C   0  0  1  0  0  0
  -20.5942  -28.3722   23.1197 C   0  0  2  0  0  0
  -20.6804  -26.9413   22.5382 C   0  0  0  0  0  0
  -19.5771  -26.6372   21.5196 C   0  0  0  0  0  0
  -18.1957  -26.7934   22.1603 C   0  0  0  0  0  0
  -19.1577  -28.8873   23.2824 C   0  0  0  0  0  0
  -18.9482  -30.1478   23.8838 C   0  0  0  0  0  0
  -17.6487  -30.6590   24.0566 C   0  0  0  0  0  0
  -25.9098  -34.9361   23.5049 C   0  0  0  0  0  0
  -16.5376  -29.9079   23.6350 C   0  0  0  0  0  0
  -16.7291  -28.6502   23.0354 C   0  0  0  0  0  0
  -26.4619  -31.6518   25.0729 C   0  0  0  0  0  0
  -25.3834  -31.3697   26.1435 C   0  0  0  0  0  0
  -27.0544  -30.2910   24.6407 C   0  0  0  0  0  0
  -27.6125  -32.4318   25.7517 C   0  0  0  0  0  0
  -27.5565  -37.1757   24.8487 C   0  0  0  0  0  0
  -21.4279  -29.3030   22.3547 N   0  0  0  0  0  0
  -26.4265  -37.3724   23.9449 N   0  0  0  0  0  0
  -24.7252  -31.0264   22.0921 N   0  0  0  0  0  0
  -23.4230  -28.8072   23.2921 O   0  0  0  0  0  0
  -28.2798  -26.1271   20.2005 O   0  0  0  0  0  0
  -26.5625  -34.8881   22.4596 O   0  0  0  0  0  0
  -23.5633  -32.1253   23.7158 O   0  0  0  0  0  0
  -29.2102  -23.4337   21.7456 C   0  0  0  0  0  0
  -29.4120  -22.3031   22.5688 C   0  0  0  0  0  0
  -28.8987  -21.8839   19.9137 C   0  0  0  0  0  0
  -28.8019  -23.2928   20.4173 C   0  0  0  0  0  0
  -29.2862  -20.9600   22.1125 C   0  0  0  0  0  0
  -29.2150  -20.6583   20.7171 C   0  0  0  0  0  0
  -26.4115  -20.3793   22.5289 C   0  0  0  0  0  0
  -29.8771  -19.8598   24.3949 C   0  0  0  0  0  0
  -29.1834  -19.0570   20.2118 C   0  0  0  0  0  0
  -28.1313  -24.6398   19.7184 C   0  0  0  0  0  0
  -27.4450  -19.9962   23.6093 C   0  0  0  0  0  0
  -30.2243  -17.7529   20.6002 C   0  0  0  0  0  0
  -28.9351  -19.8969   23.1698 C   0  0  1  0  0  0
  -29.8387  -16.1999   20.5357 N   0  0  0  0  0  0
  -31.4685  -12.7607   19.1754 H   0  0  0  0  0  0
  -30.4491  -11.6648   20.0568 H   0  0  0  0  0  0
  -29.8299  -11.6975   17.6120 H   0  0  0  0  0  0
  -29.6164  -13.4330   17.6785 H   0  0  0  0  0  0
  -27.9291  -11.2839   18.9859 H   0  0  0  0  0  0
  -27.3893  -12.4606   17.8185 H   0  0  0  0  0  0
  -27.5858  -14.2562   19.4046 H   0  0  0  0  0  0
  -28.7900  -12.3369   21.4539 H   0  0  0  0  0  0
  -28.3897  -14.0151   21.7437 H   0  0  0  0  0  0
  -25.2705   -9.5721   22.4810 H   0  0  0  0  0  0
  -24.0030   -7.4599   22.7443 H   0  0  0  0  0  0
  -21.0855   -8.8699   19.8917 H   0  0  0  0  0  0
  -22.3614  -10.9664   19.6170 H   0  0  0  0  0  0
  -21.1982   -7.6121   23.9722 H   0  0  0  0  0  0
  -21.1476   -6.0485   25.9081 H   0  0  0  0  0  0
  -22.0623   -2.7597   23.2822 H   0  0  0  0  0  0
  -22.3997  -11.9855   22.4841 H   0  0  0  0  0  0
  -21.1006  -13.1233   22.2615 H   0  0  0  0  0  0
  -24.6449  -15.8508   20.5099 H   0  0  0  0  0  0
  -26.2277  -15.6006   19.9732 H   0  0  0  0  0  0
  -26.7372  -32.5206   23.1006 H   0  0  0  0  0  0
  -25.0338  -33.9562   25.0444 H   0  0  0  0  0  0
  -22.7555  -31.2908   21.3809 H   0  0  0  0  0  0
  -23.3769  -35.9523   23.3301 H   0  0  0  0  0  0
  -24.3574  -36.8814   22.2063 H   0  0  0  0  0  0
  -23.7235  -37.6389   23.6682 H   0  0  0  0  0  0
  -26.2073  -31.4548   20.6419 H   0  0  0  0  0  0
  -26.8722  -30.7185   22.0612 H   0  0  0  0  0  0
  -28.1310  -28.7727   21.2516 H   0  0  0  0  0  0
  -25.8996  -25.8650   18.9429 H   0  0  0  0  0  0
  -23.9810  -27.3155   18.9538 H   0  0  0  0  0  0
  -23.8577  -30.5918   19.4034 H   0  0  0  0  0  0
  -22.7997  -29.2709   19.8092 H   0  0  0  0  0  0
  -25.1322  -36.1768   25.0814 H   0  0  0  0  0  0
  -21.0046  -28.3320   24.1311 H   0  0  0  0  0  0
  -20.5701  -26.2335   23.3602 H   0  0  0  0  0  0
  -21.6665  -26.7401   22.1177 H   0  0  0  0  0  0
  -19.6919  -25.6270   21.1219 H   0  0  0  0  0  0
  -19.6735  -27.3188   20.6732 H   0  0  0  0  0  0
  -17.4244  -26.6702   21.3984 H   0  0  0  0  0  0
  -18.0339  -26.0074   22.8986 H   0  0  0  0  0  0
  -19.7962  -30.7317   24.2186 H   0  0  0  0  0  0
  -17.5033  -31.6252   24.5164 H   0  0  0  0  0  0
  -15.5379  -30.2958   23.7703 H   0  0  0  0  0  0
  -15.8690  -28.0803   22.7087 H   0  0  0  0  0  0
  -24.6036  -30.6995   25.7782 H   0  0  0  0  0  0
  -24.9002  -32.2869   26.4807 H   0  0  0  0  0  0
  -25.8155  -30.8911   27.0230 H   0  0  0  0  0  0
  -26.3192  -29.6541   24.1460 H   0  0  0  0  0  0
  -27.4191  -29.7302   25.5029 H   0  0  0  0  0  0
  -27.9103  -30.4143   23.9765 H   0  0  0  0  0  0
  -27.2707  -33.3675   26.1976 H   0  0  0  0  0  0
  -28.4012  -32.6773   25.0380 H   0  0  0  0  0  0
  -28.0738  -31.8503   26.5522 H   0  0  0  0  0  0
  -28.2582  -38.0052   24.7524 H   0  0  0  0  0  0
  -28.1039  -36.2571   24.6317 H   0  0  0  0  0  0
  -27.2277  -37.1422   25.8887 H   0  0  0  0  0  0
  -20.9509  -29.8763   21.6742 H   0  0  0  0  0  0
  -26.0087  -38.2782   24.1447 H   0  0  0  0  0  0
  -29.2264  -24.4225   22.1804 H   0  0  0  0  0  0
  -29.5255  -22.5085   23.6229 H   0  0  0  0  0  0
  -28.6356  -21.7276   18.8767 H   0  0  0  0  0  0
  -25.3943  -20.2401   22.8992 H   0  0  0  0  0  0
  -26.4835  -19.7886   21.6135 H   0  0  0  0  0  0
  -26.5115  -21.4300   22.2567 H   0  0  0  0  0  0
  -29.4904  -19.1539   25.1302 H   0  0  0  0  0  0
  -29.9798  -20.8146   24.9113 H   0  0  0  0  0  0
  -30.8807  -19.5267   24.1326 H   0  0  0  0  0  0
  -29.1412  -19.1036   19.1237 H   0  0  0  0  0  0
  -28.1901  -18.7162   20.4906 H   0  0  0  0  0  0
  -27.0767  -24.3894   19.7936 H   0  0  0  0  0  0
  -28.3442  -24.6165   18.6491 H   0  0  0  0  0  0
  -27.1456  -19.0518   24.0691 H   0  0  0  0  0  0
  -27.3522  -20.7496   24.3913 H   0  0  0  0  0  0
  -30.5724  -17.8882   21.6247 H   0  0  0  0  0  0
  -31.1416  -17.8817   20.0194 H   0  0  0  0  0  0
  -29.0090  -18.9097   22.7306 H   0  0  0  0  0  0
  -28.8511  -16.0370   20.6609 H   0  0  0  0  0  0
  1 25  1  0  0  0
  1 30  2  0  0  0
  1 84  1  0  0  0
  2  3  1  0  0  0
  2 25  1  0  0  0
  2 85  1  0  0  0
  2 86  1  0  0  0
  3  4  1  0  0  0
  3 87  1  0  0  0
  3 88  1  0  0  0
  4  5  1  0  0  0
  4 89  1  0  0  0
  4 90  1  0  0  0
  5  6  1  0  0  0
  5 26  1  0  0  0
  5 91  1  0  0  0
  6 25  1  0  0  0
  6 92  1  0  0  0
  6 93  1  0  0  0
  7  8  2  0  0  0
  7 26  1  0  0  0
  7 29  1  0  0  0
  8  9  1  0  0  0
  8 22  1  0  0  0
  9 10  1  0  0  0
  9 27  2  0  0  0
 10 11  2  0  0  0
 10 15  1  0  0  0
 11 12  1  0  0  0
 11 94  1  0  0  0
 12 13  2  0  0  0
 12 95  1  0  0  0
 13 14  1  0  0  0
 13 31  1  0  0  0
 14 15  2  0  0  0
 14 96  1  0  0  0
 15 97  1  0  0  0
 16 17  2  0  0  0
 16 21  1  0  0  0
 16 31  1  0  0  0
 17 18  1  0  0  0
 17 98  1  0  0  0
 18 19  2  0  0  0
 18 99  1  0  0  0
 19 20  1  0  0  0
 19 24  1  0  0  0
 20 21  2  0  0  0
 20100  1  0  0  0
 21 23  1  0  0  0
 22 28  1  0  0  0
 22 32  2  0  0  0
 26 27  1  0  0  0
 28101  1  0  0  0
 28102  1  0  0  0
 29103  1  0  0  0
 29104  1  0  0  0
 33 34  1  0  0  0
 33 66  1  0  0  0
 33 70  2  0  0  0
 34 36  1  0  0  0
 34 59  1  0  0  0
 34105  1  0  0  0
 35 44  2  0  0  0
 35 45  1  0  0  0
 35 68  1  0  0  0
 36 56  1  0  0  0
 36106  1  0  0  0
 37 39  1  0  0  0
 37 47  1  0  0  0
 37 66  1  0  0  0
 37107  1  0  0  0
 38 43  2  0  0  0
 38 46  1  0  0  0
 38 47  1  0  0  0
 39 64  1  0  0  0
 39 67  2  0  0  0
 40 52  1  0  0  0
 40 53  2  0  0  0
 40 58  1  0  0  0
 41108  1  0  0  0
 41109  1  0  0  0
 41110  1  0  0  0
 41 48  1  0  0  0
 42 43  1  0  0  0
 42 66  1  0  0  0
 42111  1  0  0  0
 42112  1  0  0  0
 43 44  1  0  0  0
 44113  1  0  0  0
 45 46  2  0  0  0
 45114  1  0  0  0
 46115  1  0  0  0
 47116  1  0  0  0
 47117  1  0  0  0
 48 56  1  0  0  0
 48 65  1  0  0  0
 48118  1  0  0  0
 49 50  1  0  0  0
 49 53  1  0  0  0
 49 64  1  0  0  0
 49119  1  0  0  0
 50 51  1  0  0  0
 50120  1  0  0  0
 50121  1  0  0  0
 51 52  1  0  0  0
 51122  1  0  0  0
 51123  1  0  0  0
 52124  1  0  0  0
 52125  1  0  0  0
 53 54  1  0  0  0
 54 55  2  0  0  0
 54126  1  0  0  0
 55 57  1  0  0  0
 55127  1  0  0  0
 56 69  2  0  0  0
 57 58  2  0  0  0
 57128  1  0  0  0
 58129  1  0  0  0
 59 60  1  0  0  0
 59 61  1  0  0  0
 59 62  1  0  0  0
 60130  1  0  0  0
 60131  1  0  0  0
 60132  1  0  0  0
 61133  1  0  0  0
 61134  1  0  0  0
 61135  1  0  0  0
 62136  1  0  0  0
 62137  1  0  0  0
 62138  1  0  0  0
 63 65  1  0  0  0
 63139  1  0  0  0
 63140  1  0  0  0
 63141  1  0  0  0
 64142  1  0  0  0
 65143  1  0  0  0
 68 80  1  0  0  0
 71 72  2  0  0  0
 71 74  1  0  0  0
 71144  1  0  0  0
 72 75  1  0  0  0
 72145  1  0  0  0
 73 74  2  0  0  0
 73 76  1  0  0  0
 73146  1  0  0  0
 74 80  1  0  0  0
 75 76  2  0  0  0
 75 83  1  0  0  0
 76 79  1  0  0  0
 77 81  1  0  0  0
 77147  1  0  0  0
 77148  1  0  0  0
 77149  1  0  0  0
 78150  1  0  0  0
 78151  1  0  0  0
 78152  1  0  0  0
 78 83  1  0  0  0
 79 82  1  0  0  0
 79153  1  0  0  0
 79154  1  0  0  0
 80155  1  0  0  0
 80156  1  0  0  0
 81 83  1  0  0  0
 81157  1  0  0  0
 81158  1  0  0  0
 82 84  1  0  0  0
 82159  1  0  0  0
 82160  1  0  0  0
 83161  1  0  0  0
 84162  1  0  0  0
M  ISO  4   1 100  68 101  80 101  84 100
M  END
> <chiral flag>
0

> <version>
0

> <s_m_source_file>
/data/baiqing/PycharmProjects/Reinvent-master-3.2/result/LINK_invent/BTK/process_docking_weight1_custom_sum_contain_oxygen_bond_distance_aromatic_linkinvent_7_9_3/rearranged_h_0129.sdf

> <i_m_source_file_index>
47

> <r_mmod_Potential_Energy-OPLS-2005>
604.119995117188

> <r_mmod_Stretch_Energy-OPLS-2005>
304.833801269531

> <r_mmod_Bend_Energy-OPLS-2005>
274.382598876953

> <r_mmod_Torsional_Energy-OPLS-2005>
253.906600952148

> <r_mmod_Improper_Torsional_Energy-OPLS-2005>
9.22767543792725

> <r_mmod_Van_der_Waal_Energy-OPLS-2005>
132.499984741211

> <r_mmod_Electrostatic_Energy-OPLS-2005>
-373.996337890625

> <r_mmod_Solvation_Energy-OPLS-2005>
-206.693145751953

> <b_mmod_Minimization_Converged-OPLS-2005>
0

> <r_mmod_RMS_Derivative-OPLS-2005>
6.15016603469849

$$$$
47
                    3D
 Structure written by MMmdl.
165173  0  0  1  0            999 V2000
  -30.7602  -14.3558   20.6749 C   0  0  0  0  0  0
  -30.4200  -12.2816   19.3927 C   0  0  0  0  0  0
  -29.4825  -12.5055   18.1921 C   0  0  0  0  0  0
  -28.0090  -12.3590   18.6147 C   0  0  0  0  0  0
  -27.6653  -13.1915   19.8768 C   0  0  2  0  0  0
  -28.7024  -12.9369   20.9917 C   0  0  0  0  0  0
  -25.2624  -13.8141   20.5670 C   0  0  0  0  0  0
  -24.1868  -13.0447   20.9243 C   0  0  0  0  0  0
  -24.6380  -11.6904   20.8771 C   0  0  0  0  0  0
  -23.9032  -10.4300   21.0448 C   0  0  0  0  0  0
  -24.3595   -9.4206   21.9224 C   0  0  0  0  0  0
  -23.6290   -8.2223   22.0762 C   0  0  0  0  0  0
  -22.4282   -8.0263   21.3532 C   0  0  0  0  0  0
  -21.9907   -9.0238   20.4646 C   0  0  0  0  0  0
  -22.7215  -10.2139   20.3083 C   0  0  0  0  0  0
  -21.6850   -6.0723   22.5272 C   0  0  0  0  0  0
  -21.4006   -6.5631   23.8205 C   0  0  0  0  0  0
  -21.3666   -5.6791   24.9170 C   0  0  0  0  0  0
  -21.6047   -4.3048   24.7230 C   0  0  0  0  0  0
  -21.8819   -3.8138   23.4352 C   0  0  0  0  0  0
  -21.9189   -4.6949   22.3407 C   0  0  0  0  0  0
  -22.7895  -13.5264   21.1869 C   0  0  0  0  0  0
  -22.1663   -4.2133   21.0984 F   0  0  0  0  0  0
  -21.5646   -3.4538   25.7748 F   0  0  0  0  0  0
  -30.0442  -13.2263   20.4507 N   0  0  0  0  0  0
  -26.3029  -12.9273   20.3356 N   0  0  0  0  0  0
  -25.9285  -11.6451   20.5760 N   0  0  0  0  0  0
  -22.0494  -12.8250   22.0401 N   0  0  0  0  0  0
  -25.4352  -15.1846   20.3931 N   0  0  0  0  0  0
  -31.8016  -14.6423   20.0797 O   0  0  0  0  0  0
  -21.6636   -6.8859   21.4235 O   0  0  0  0  0  0
  -22.3638  -14.5581   20.6697 O   0  0  0  0  0  0
  -24.6102  -31.8712   23.2150 C   0  0  0  0  0  0
  -25.9010  -32.4838   23.8425 C   0  0  1  0  0  0
  -27.2294  -27.4697   20.0795 C   0  0  0  0  0  0
  -25.5882  -33.8639   24.2349 N   0  0  0  0  0  0
  -23.3948  -30.4975   21.5538 C   0  0  2  0  0  0
  -24.8409  -28.9678   20.1156 C   0  0  0  0  0  0
  -22.7363  -29.4699   22.5011 C   0  0  0  0  0  0
  -18.0278  -28.1366   22.8425 C   0  0  0  0  0  0
  -24.1487  -36.7327   23.2641 C   0  0  0  0  0  0
  -25.9217  -30.8437   21.3663 C   0  0  0  0  0  0
  -25.9975  -29.4814   20.7145 C   0  0  0  0  0  0
  -27.1945  -28.7375   20.6981 C   0  0  0  0  0  0
  -26.0667  -26.9782   19.4501 C   0  0  0  0  0  0
  -24.8676  -27.7125   19.4841 C   0  0  0  0  0  0
  -23.6012  -29.8299   20.1675 C   0  0  0  0  0  0
  -25.4100  -36.3122   24.0348 C   0  0  1  0  0  0
  -20.5846  -28.3665   23.1284 C   0  0  2  0  0  0
  -20.6791  -26.9447   22.5294 C   0  0  0  0  0  0
  -19.5778  -26.6437   21.5103 C   0  0  0  0  0  0
  -18.1955  -26.7932   22.1511 C   0  0  0  0  0  0
  -19.1507  -28.8832   23.2870 C   0  0  0  0  0  0
  -18.9413  -30.1420   23.8889 C   0  0  0  0  0  0
  -17.6405  -30.6529   24.0577 C   0  0  0  0  0  0
  -25.9017  -34.9486   23.5139 C   0  0  0  0  0  0
  -16.5313  -29.9020   23.6306 C   0  0  0  0  0  0
  -16.7259  -28.6486   23.0255 C   0  0  0  0  0  0
  -26.4453  -31.6604   25.0740 C   0  0  0  0  0  0
  -25.3738  -31.3710   26.1505 C   0  0  0  0  0  0
  -27.0283  -30.3055   24.6090 C   0  0  0  0  0  0
  -27.6037  -32.4318   25.7493 C   0  0  0  0  0  0
  -27.5579  -37.1824   24.8469 C   0  0  0  0  0  0
  -21.4106  -29.3068   22.3736 N   0  0  0  0  0  0
  -26.4295  -37.3791   23.9405 N   0  0  0  0  0  0
  -24.6601  -31.0846   22.1042 N   0  0  0  0  0  0
  -23.4141  -28.8224   23.3040 O   0  0  0  0  0  0
  -28.4068  -26.7617   20.0510 O   0  0  0  0  0  0
  -26.5580  -34.8928   22.4704 O   0  0  0  0  0  0
  -23.5306  -32.1464   23.7558 O   0  0  0  0  0  0
  -27.2771  -24.6421   22.8049 C   0  0  0  0  0  0
  -28.1107  -25.8701   22.4094 C   0  0  0  0  0  0
  -27.8336  -24.3433   20.4880 C   0  0  0  0  0  0
  -27.6528  -23.5565   21.7884 C   0  0  2  0  0  0
  -28.5273  -25.6408   20.9376 C   0  0  1  0  0  0
  -27.8563  -20.4379   22.4630 C   0  0  0  0  0  0
  -29.5782  -16.3870   21.2364 C   0  0  0  0  0  0
  -27.1543  -21.1576   21.2881 C   0  0  0  0  0  0
  -28.6022  -19.1418   22.0935 C   0  0  0  0  0  0
  -28.3714  -16.6602   22.1583 C   0  0  0  0  0  0
  -30.2730  -15.1608   21.6187 N   0  0  0  0  0  0
  -26.6334  -22.4866   21.6842 N   0  3  0  0  0  0
  -27.7192  -17.9651   21.8967 N   0  3  0  0  0  0
  -30.3306  -11.2595   19.7646 H   0  0  0  0  0  0
  -31.4616  -12.3911   19.0843 H   0  0  0  0  0  0
  -29.7113  -11.7898   17.4015 H   0  0  0  0  0  0
  -29.6527  -13.4973   17.7693 H   0  0  0  0  0  0
  -27.8242  -11.3026   18.8120 H   0  0  0  0  0  0
  -27.3510  -12.6322   17.7888 H   0  0  0  0  0  0
  -27.7242  -14.2420   19.5954 H   0  0  0  0  0  0
  -28.4511  -13.5181   21.8790 H   0  0  0  0  0  0
  -28.6670  -11.8961   21.3165 H   0  0  0  0  0  0
  -25.2726   -9.5680   22.4821 H   0  0  0  0  0  0
  -23.9986   -7.4600   22.7476 H   0  0  0  0  0  0
  -21.0841   -8.8755   19.8953 H   0  0  0  0  0  0
  -22.3663  -10.9683   19.6201 H   0  0  0  0  0  0
  -21.1990   -7.6138   23.9694 H   0  0  0  0  0  0
  -21.1500   -6.0532   25.9072 H   0  0  0  0  0  0
  -22.0595   -2.7597   23.2862 H   0  0  0  0  0  0
  -22.4063  -11.9878   22.4764 H   0  0  0  0  0  0
  -21.1110  -13.1291   22.2576 H   0  0  0  0  0  0
  -24.6040  -15.7655   20.3690 H   0  0  0  0  0  0
  -26.1516  -15.5103   19.7580 H   0  0  0  0  0  0
  -26.7088  -32.5563   23.1201 H   0  0  0  0  0  0
  -25.0067  -33.9808   25.0515 H   0  0  0  0  0  0
  -22.6840  -31.3154   21.4147 H   0  0  0  0  0  0
  -23.3738  -35.9672   23.3319 H   0  0  0  0  0  0
  -24.3592  -36.8920   22.2053 H   0  0  0  0  0  0
  -23.7257  -37.6549   23.6636 H   0  0  0  0  0  0
  -26.0316  -31.6100   20.5977 H   0  0  0  0  0  0
  -26.8111  -30.8945   21.9814 H   0  0  0  0  0  0
  -28.0911  -29.1303   21.1553 H   0  0  0  0  0  0
  -26.0815  -26.0515   18.8980 H   0  0  0  0  0  0
  -23.9849  -27.3225   18.9956 H   0  0  0  0  0  0
  -23.6996  -30.6042   19.4059 H   0  0  0  0  0  0
  -22.7267  -29.2441   19.8793 H   0  0  0  0  0  0
  -25.1278  -36.1995   25.0842 H   0  0  0  0  0  0
  -20.9946  -28.3153   24.1403 H   0  0  0  0  0  0
  -20.5760  -26.2252   23.3427 H   0  0  0  0  0  0
  -21.6656  -26.7571   22.1036 H   0  0  0  0  0  0
  -19.7000  -25.6368   21.1086 H   0  0  0  0  0  0
  -19.6696  -27.3235   20.6614 H   0  0  0  0  0  0
  -17.4242  -26.6713   21.3886 H   0  0  0  0  0  0
  -18.0340  -26.0022   22.8844 H   0  0  0  0  0  0
  -19.7893  -30.7246   24.2226 H   0  0  0  0  0  0
  -17.4920  -31.6187   24.5202 H   0  0  0  0  0  0
  -15.5301  -30.2900   23.7597 H   0  0  0  0  0  0
  -15.8693  -28.0820   22.6885 H   0  0  0  0  0  0
  -24.5879  -30.7088   25.7851 H   0  0  0  0  0  0
  -24.8967  -32.2872   26.5000 H   0  0  0  0  0  0
  -25.8100  -30.8849   27.0235 H   0  0  0  0  0  0
  -26.2830  -29.6835   24.1118 H   0  0  0  0  0  0
  -27.4052  -29.7262   25.4525 H   0  0  0  0  0  0
  -27.8655  -30.4403   23.9237 H   0  0  0  0  0  0
  -27.2651  -33.3589   26.2125 H   0  0  0  0  0  0
  -28.3810  -32.6930   25.0302 H   0  0  0  0  0  0
  -28.0743  -31.8418   26.5368 H   0  0  0  0  0  0
  -28.2613  -38.0103   24.7486 H   0  0  0  0  0  0
  -28.1058  -36.2640   24.6320 H   0  0  0  0  0  0
  -27.2304  -37.1503   25.8874 H   0  0  0  0  0  0
  -20.9269  -29.8762   21.6936 H   0  0  0  0  0  0
  -26.0197  -38.2880   24.1376 H   0  0  0  0  0  0
  -26.2166  -24.8883   22.7163 H   0  0  0  0  0  0
  -27.4627  -24.3333   23.8355 H   0  0  0  0  0  0
  -27.5341  -26.7792   22.5761 H   0  0  0  0  0  0
  -29.0029  -25.9505   23.0323 H   0  0  0  0  0  0
  -26.8509  -24.5382   20.0749 H   0  0  0  0  0  0
  -28.4125  -23.8050   19.7354 H   0  0  0  0  0  0
  -28.6179  -23.1424   22.0836 H   0  0  0  0  0  0
  -29.5969  -25.4210   20.9544 H   0  0  0  0  0  0
  -27.1503  -20.2414   23.2701 H   0  0  0  0  0  0
  -28.5986  -21.1101   22.8916 H   0  0  0  0  0  0
  -29.2455  -16.3450   20.1969 H   0  0  0  0  0  0
  -30.3107  -17.1922   21.2962 H   0  0  0  0  0  0
  -26.3158  -20.5508   20.9458 H   0  0  0  0  0  0
  -27.8226  -21.2711   20.4308 H   0  0  0  0  0  0
  -29.2877  -18.9241   22.9132 H   0  0  0  0  0  0
  -29.2287  -19.2999   21.2147 H   0  0  0  0  0  0
  -28.6761  -16.6225   23.2051 H   0  0  0  0  0  0
  -27.6262  -15.8729   22.0379 H   0  0  0  0  0  0
  -30.9812  -15.3713   22.3086 H   0  0  0  0  0  0
  -25.9353  -22.7726   21.0158 H   0  0  0  0  0  0
  -26.1588  -22.3947   22.5681 H   0  0  0  0  0  0
  -27.3317  -17.9624   20.9654 H   0  0  0  0  0  0
  -26.9461  -18.0295   22.5399 H   0  0  0  0  0  0
  1 25  1  0  0  0
  1 30  2  0  0  0
  1 81  1  0  0  0
  2  3  1  0  0  0
  2 25  1  0  0  0
  2 84  1  0  0  0
  2 85  1  0  0  0
  3  4  1  0  0  0
  3 86  1  0  0  0
  3 87  1  0  0  0
  4  5  1  0  0  0
  4 88  1  0  0  0
  4 89  1  0  0  0
  5  6  1  0  0  0
  5 26  1  0  0  0
  5 90  1  0  0  0
  6 25  1  0  0  0
  6 91  1  0  0  0
  6 92  1  0  0  0
  7  8  2  0  0  0
  7 26  1  0  0  0
  7 29  1  0  0  0
  8  9  1  0  0  0
  8 22  1  0  0  0
  9 10  1  0  0  0
  9 27  2  0  0  0
 10 11  2  0  0  0
 10 15  1  0  0  0
 11 12  1  0  0  0
 11 93  1  0  0  0
 12 13  2  0  0  0
 12 94  1  0  0  0
 13 14  1  0  0  0
 13 31  1  0  0  0
 14 15  2  0  0  0
 14 95  1  0  0  0
 15 96  1  0  0  0
 16 17  2  0  0  0
 16 21  1  0  0  0
 16 31  1  0  0  0
 17 18  1  0  0  0
 17 97  1  0  0  0
 18 19  2  0  0  0
 18 98  1  0  0  0
 19 20  1  0  0  0
 19 24  1  0  0  0
 20 21  2  0  0  0
 20 99  1  0  0  0
 21 23  1  0  0  0
 22 28  1  0  0  0
 22 32  2  0  0  0
 26 27  1  0  0  0
 28100  1  0  0  0
 28101  1  0  0  0
 29102  1  0  0  0
 29103  1  0  0  0
 33 34  1  0  0  0
 33 66  1  0  0  0
 33 70  2  0  0  0
 34 36  1  0  0  0
 34 59  1  0  0  0
 34104  1  0  0  0
 35 44  2  0  0  0
 35 45  1  0  0  0
 35 68  1  0  0  0
 36 56  1  0  0  0
 36105  1  0  0  0
 37 39  1  0  0  0
 37 47  1  0  0  0
 37 66  1  0  0  0
 37106  1  0  0  0
 38 43  2  0  0  0
 38 46  1  0  0  0
 38 47  1  0  0  0
 39 64  1  0  0  0
 39 67  2  0  0  0
 40 52  1  0  0  0
 40 53  2  0  0  0
 40 58  1  0  0  0
 41107  1  0  0  0
 41108  1  0  0  0
 41109  1  0  0  0
 41 48  1  0  0  0
 42 43  1  0  0  0
 42 66  1  0  0  0
 42110  1  0  0  0
 42111  1  0  0  0
 43 44  1  0  0  0
 44112  1  0  0  0
 45 46  2  0  0  0
 45113  1  0  0  0
 46114  1  0  0  0
 47115  1  0  0  0
 47116  1  0  0  0
 48 56  1  0  0  0
 48 65  1  0  0  0
 48117  1  0  0  0
 49 50  1  0  0  0
 49 53  1  0  0  0
 49 64  1  0  0  0
 49118  1  0  0  0
 50 51  1  0  0  0
 50119  1  0  0  0
 50120  1  0  0  0
 51 52  1  0  0  0
 51121  1  0  0  0
 51122  1  0  0  0
 52123  1  0  0  0
 52124  1  0  0  0
 53 54  1  0  0  0
 54 55  2  0  0  0
 54125  1  0  0  0
 55 57  1  0  0  0
 55126  1  0  0  0
 56 69  2  0  0  0
 57 58  2  0  0  0
 57127  1  0  0  0
 58128  1  0  0  0
 59 60  1  0  0  0
 59 61  1  0  0  0
 59 62  1  0  0  0
 60129  1  0  0  0
 60130  1  0  0  0
 60131  1  0  0  0
 61132  1  0  0  0
 61133  1  0  0  0
 61134  1  0  0  0
 62135  1  0  0  0
 62136  1  0  0  0
 62137  1  0  0  0
 63 65  1  0  0  0
 63138  1  0  0  0
 63139  1  0  0  0
 63140  1  0  0  0
 64141  1  0  0  0
 65142  1  0  0  0
 68 75  1  0  0  0
 71 72  1  0  0  0
 71 74  1  0  0  0
 71143  1  0  0  0
 71144  1  0  0  0
 72 75  1  0  0  0
 72145  1  0  0  0
 72146  1  0  0  0
 73 74  1  0  0  0
 73 75  1  0  0  0
 73147  1  0  0  0
 73148  1  0  0  0
 74 82  1  0  0  0
 74149  1  0  0  0
 75150  1  0  0  0
 76 78  1  0  0  0
 76 79  1  0  0  0
 76151  1  0  0  0
 76152  1  0  0  0
 77 80  1  0  0  0
 77 81  1  0  0  0
 77153  1  0  0  0
 77154  1  0  0  0
 78 82  1  0  0  0
 78155  1  0  0  0
 78156  1  0  0  0
 79 83  1  0  0  0
 79157  1  0  0  0
 79158  1  0  0  0
 80 83  1  0  0  0
 80159  1  0  0  0
 80160  1  0  0  0
 81161  1  0  0  0
 82162  1  0  0  0
 82163  1  0  0  0
 83164  1  0  0  0
 83165  1  0  0  0
M  CHG  2  82   1  83   1
M  ISO  4   1 100  68 101  75 101  81 100
M  END
> <chiral flag>
0

> <version>
0

> <s_m_source_file>
/data/baiqing/PycharmProjects/Reinvent-master-3.2/result/LINK_invent/BTK/process_docking_weight1_custom_sum_contain_oxygen_bond_distance_aromatic_linkinvent_7_9_3/rearranged_h_0129.sdf

> <i_m_source_file_index>
48

> <r_mmod_Potential_Energy-OPLS-2005>
-292.015197753906

> <r_mmod_Stretch_Energy-OPLS-2005>
30.6774215698242

> <r_mmod_Bend_Energy-OPLS-2005>
126.527976989746

> <r_mmod_Torsional_Energy-OPLS-2005>
356.45458984375

> <r_mmod_Improper_Torsional_Energy-OPLS-2005>
10.0688056945801

> <r_mmod_Van_der_Waal_Energy-OPLS-2005>
127.573974609375

> <r_mmod_Electrostatic_Energy-OPLS-2005>
70.568717956543

> <r_mmod_Solvation_Energy-OPLS-2005>
-1021.33569335938

> <b_mmod_Minimization_Converged-OPLS-2005>
0

> <r_mmod_RMS_Derivative-OPLS-2005>
2.78635597229004

$$$$
48
                    3D
 Structure written by MMmdl.
162171  0  0  1  0            999 V2000
  -30.7170  -14.5264   20.5494 C   0  0  0  0  0  0
  -30.4129  -12.3434   19.4390 C   0  0  0  0  0  0
  -29.4912  -12.5031   18.2136 C   0  0  0  0  0  0
  -28.0126  -12.3640   18.6247 C   0  0  0  0  0  0
  -27.6510  -13.2207   19.8698 C   0  0  2  0  0  0
  -28.6958  -13.0403   20.9934 C   0  0  0  0  0  0
  -25.2522  -13.8200   20.5700 C   0  0  0  0  0  0
  -24.1800  -13.0448   20.9231 C   0  0  0  0  0  0
  -24.6386  -11.6926   20.8775 C   0  0  0  0  0  0
  -23.9067  -10.4289   21.0422 C   0  0  0  0  0  0
  -24.3636   -9.4199   21.9181 C   0  0  0  0  0  0
  -23.6309   -8.2232   22.0746 C   0  0  0  0  0  0
  -22.4278   -8.0274   21.3547 C   0  0  0  0  0  0
  -21.9918   -9.0247   20.4641 C   0  0  0  0  0  0
  -22.7252  -10.2123   20.3056 C   0  0  0  0  0  0
  -21.6846   -6.0749   22.5297 C   0  0  0  0  0  0
  -21.4013   -6.5651   23.8231 C   0  0  0  0  0  0
  -21.3656   -5.6798   24.9188 C   0  0  0  0  0  0
  -21.6044   -4.3063   24.7235 C   0  0  0  0  0  0
  -21.8823   -3.8162   23.4354 C   0  0  0  0  0  0
  -21.9183   -4.6979   22.3407 C   0  0  0  0  0  0
  -22.7816  -13.5204   21.1870 C   0  0  0  0  0  0
  -22.1633   -4.2170   21.0981 F   0  0  0  0  0  0
  -21.5629   -3.4532   25.7741 F   0  0  0  0  0  0
  -30.0118  -13.3628   20.4276 N   0  0  0  0  0  0
  -26.2970  -12.9393   20.3371 N   0  0  0  0  0  0
  -25.9310  -11.6549   20.5801 N   0  0  0  0  0  0
  -22.0447  -12.8209   22.0435 N   0  0  0  0  0  0
  -25.4230  -15.1914   20.4066 N   0  0  0  0  0  0
  -31.8842  -14.5889   20.1489 O   0  0  0  0  0  0
  -21.6624   -6.8891   21.4252 O   0  0  0  0  0  0
  -22.3492  -14.5494   20.6692 O   0  0  0  0  0  0
  -24.6184  -31.8666   23.2090 C   0  0  0  0  0  0
  -25.9069  -32.4810   23.8387 C   0  0  1  0  0  0
  -27.2153  -27.3947   20.0976 C   0  0  0  0  0  0
  -25.5906  -33.8610   24.2314 N   0  0  0  0  0  0
  -23.4059  -30.4946   21.5500 C   0  0  2  0  0  0
  -24.8471  -28.9634   20.1079 C   0  0  0  0  0  0
  -22.7422  -29.4668   22.4954 C   0  0  0  0  0  0
  -18.0273  -28.1388   22.8477 C   0  0  0  0  0  0
  -24.1484  -36.7333   23.2638 C   0  0  0  0  0  0
  -25.9401  -30.8219   21.3656 C   0  0  0  0  0  0
  -26.0122  -29.4547   20.7105 C   0  0  0  0  0  0
  -27.1995  -28.6790   20.7017 C   0  0  0  0  0  0
  -26.0323  -26.9465   19.4608 C   0  0  0  0  0  0
  -24.8545  -27.7108   19.4772 C   0  0  0  0  0  0
  -23.6143  -29.8363   20.1618 C   0  0  0  0  0  0
  -25.4104  -36.3108   24.0329 C   0  0  1  0  0  0
  -20.5870  -28.3682   23.1295 C   0  0  2  0  0  0
  -20.6759  -26.9414   22.5408 C   0  0  0  0  0  0
  -19.5744  -26.6394   21.5201 C   0  0  0  0  0  0
  -18.1923  -26.7934   22.1614 C   0  0  0  0  0  0
  -19.1524  -28.8848   23.2889 C   0  0  0  0  0  0
  -18.9458  -30.1450   23.8912 C   0  0  0  0  0  0
  -17.6462  -30.6593   24.0570 C   0  0  0  0  0  0
  -25.9035  -34.9472   23.5119 C   0  0  0  0  0  0
  -16.5352  -29.9103   23.6319 C   0  0  0  0  0  0
  -16.7264  -28.6519   23.0334 C   0  0  0  0  0  0
  -26.4486  -31.6598   25.0726 C   0  0  0  0  0  0
  -25.3759  -31.3701   26.1477 C   0  0  0  0  0  0
  -27.0324  -30.3042   24.6111 C   0  0  0  0  0  0
  -27.6055  -32.4322   25.7494 C   0  0  0  0  0  0
  -27.5578  -37.1813   24.8458 C   0  0  0  0  0  0
  -21.4144  -29.3057   22.3701 N   0  0  0  0  0  0
  -26.4289  -37.3794   23.9407 N   0  0  0  0  0  0
  -24.6740  -31.0752   22.1000 N   0  0  0  0  0  0
  -23.4192  -28.8197   23.2992 O   0  0  0  0  0  0
  -28.3506  -26.5958   20.1562 O   0  0  0  0  0  0
  -26.5610  -34.8925   22.4690 O   0  0  0  0  0  0
  -23.5374  -32.1426   23.7477 O   0  0  0  0  0  0
  -30.1483  -19.4653   20.3484 C   0  0  0  0  0  0
  -28.8866  -19.8841   22.3786 C   0  0  0  0  0  0
  -29.9359  -18.0949   20.6199 C   0  0  0  0  0  0
  -29.6187  -20.4008   21.2765 C   0  0  0  0  0  0
  -29.2603  -17.6985   21.7491 C   0  0  0  0  0  0
  -30.4067  -16.8760   19.8692 C   0  0  0  0  0  0
  -29.2830  -16.1837   21.9000 C   0  0  2  0  0  0
  -31.3728  -16.2964   23.4659 C   0  0  0  0  0  0
  -29.9554  -21.9089   21.1921 C   0  0  0  0  0  0
  -29.9476  -15.7563   23.2371 C   0  0  0  0  0  0
  -29.2318  -24.2686   20.6717 C   0  0  0  0  0  0
  -28.1352  -25.1635   20.0330 C   0  0  0  0  0  0
  -28.6974  -18.5586   22.6197 N   0  0  0  0  0  0
  -30.0146  -15.6927   20.6897 N   0  0  0  0  0  0
  -28.9457  -22.7988   20.5490 N   0  3  0  0  0  0
  -31.4565  -12.4331   19.1299 H   0  0  0  0  0  0
  -30.3157  -11.3454   19.8676 H   0  0  0  0  0  0
  -29.7417  -11.7629   17.4524 H   0  0  0  0  0  0
  -29.6517  -13.4797   17.7543 H   0  0  0  0  0  0
  -27.8219  -11.3099   18.8308 H   0  0  0  0  0  0
  -27.3664  -12.6271   17.7864 H   0  0  0  0  0  0
  -27.6802  -14.2644   19.5552 H   0  0  0  0  0  0
  -28.6949  -12.0110   21.3549 H   0  0  0  0  0  0
  -28.4528  -13.6446   21.8634 H   0  0  0  0  0  0
  -25.2775   -9.5666   22.4769 H   0  0  0  0  0  0
  -24.0025   -7.4611   22.7460 H   0  0  0  0  0  0
  -21.0850   -8.8771   19.8930 H   0  0  0  0  0  0
  -22.3719  -10.9669   19.6176 H   0  0  0  0  0  0
  -21.2014   -7.6159   23.9747 H   0  0  0  0  0  0
  -21.1471   -6.0520   25.9095 H   0  0  0  0  0  0
  -22.0611   -2.7622   23.2850 H   0  0  0  0  0  0
  -22.4034  -11.9864   22.4831 H   0  0  0  0  0  0
  -21.1049  -13.1230   22.2584 H   0  0  0  0  0  0
  -24.6580  -15.8495   20.5126 H   0  0  0  0  0  0
  -26.2670  -15.6218   20.0510 H   0  0  0  0  0  0
  -26.7141  -32.5512   23.1148 H   0  0  0  0  0  0
  -25.0019  -33.9758   25.0432 H   0  0  0  0  0  0
  -22.6966  -31.3143   21.4149 H   0  0  0  0  0  0
  -23.3729  -35.9684   23.3295 H   0  0  0  0  0  0
  -24.3584  -36.8967   22.2056 H   0  0  0  0  0  0
  -23.7257  -37.6540   23.6670 H   0  0  0  0  0  0
  -26.0540  -31.5841   20.5942 H   0  0  0  0  0  0
  -26.8282  -30.8758   21.9829 H   0  0  0  0  0  0
  -28.0940  -29.0487   21.1843 H   0  0  0  0  0  0
  -25.9864  -25.9991   18.9450 H   0  0  0  0  0  0
  -23.9630  -27.3320   18.9957 H   0  0  0  0  0  0
  -23.7288  -30.6165   19.4085 H   0  0  0  0  0  0
  -22.7337  -29.2652   19.8594 H   0  0  0  0  0  0
  -25.1280  -36.1963   25.0823 H   0  0  0  0  0  0
  -20.9960  -28.3257   24.1416 H   0  0  0  0  0  0
  -20.5639  -26.2306   23.3601 H   0  0  0  0  0  0
  -21.6630  -26.7439   22.1221 H   0  0  0  0  0  0
  -19.6906  -25.6306   21.1224 H   0  0  0  0  0  0
  -19.6681  -27.3204   20.6730 H   0  0  0  0  0  0
  -17.4185  -26.6664   21.4023 H   0  0  0  0  0  0
  -18.0337  -26.0077   22.9015 H   0  0  0  0  0  0
  -19.7940  -30.7246   24.2294 H   0  0  0  0  0  0
  -17.5031  -31.6266   24.5184 H   0  0  0  0  0  0
  -15.5361  -30.3024   23.7633 H   0  0  0  0  0  0
  -15.8659  -28.0858   22.7037 H   0  0  0  0  0  0
  -24.5910  -30.7070   25.7822 H   0  0  0  0  0  0
  -24.8975  -32.2851   26.4973 H   0  0  0  0  0  0
  -25.8117  -30.8835   27.0211 H   0  0  0  0  0  0
  -26.2865  -29.6785   24.1191 H   0  0  0  0  0  0
  -27.4123  -29.7296   25.4572 H   0  0  0  0  0  0
  -27.8689  -30.4367   23.9246 H   0  0  0  0  0  0
  -27.2658  -33.3595   26.2122 H   0  0  0  0  0  0
  -28.3839  -32.6930   25.0312 H   0  0  0  0  0  0
  -28.0753  -31.8420   26.5369 H   0  0  0  0  0  0
  -28.2588  -38.0117   24.7510 H   0  0  0  0  0  0
  -28.1079  -36.2648   24.6267 H   0  0  0  0  0  0
  -27.2302  -37.1448   25.8862 H   0  0  0  0  0  0
  -20.9301  -29.8834   21.6974 H   0  0  0  0  0  0
  -26.0171  -38.2869   24.1416 H   0  0  0  0  0  0
  -30.7416  -19.7798   19.5015 H   0  0  0  0  0  0
  -28.4754  -20.5539   23.1199 H   0  0  0  0  0  0
  -31.4837  -16.9545   19.7103 H   0  0  0  0  0  0
  -29.9216  -16.8177   18.8938 H   0  0  0  0  0  0
  -28.2485  -15.8400   21.8635 H   0  0  0  0  0  0
  -31.7787  -15.9327   24.4112 H   0  0  0  0  0  0
  -31.3803  -17.3872   23.5094 H   0  0  0  0  0  0
  -32.0571  -15.9941   22.6750 H   0  0  0  0  0  0
  -30.9053  -22.0304   20.6675 H   0  0  0  0  0  0
  -30.1356  -22.2646   22.2083 H   0  0  0  0  0  0
  -29.9537  -14.6708   23.3238 H   0  0  0  0  0  0
  -29.3177  -16.1034   24.0577 H   0  0  0  0  0  0
  -29.3138  -24.5230   21.7297 H   0  0  0  0  0  0
  -30.1959  -24.4947   20.2154 H   0  0  0  0  0  0
  -27.1955  -24.8885   20.5173 H   0  0  0  0  0  0
  -28.0349  -24.9141   18.9760 H   0  0  0  0  0  0
  -28.0451  -22.6131   20.9607 H   0  0  0  0  0  0
  -28.8896  -22.5565   19.5717 H   0  0  0  0  0  0
  1 25  1  0  0  0
  1 30  2  0  0  0
  1 84  1  0  0  0
  2  3  1  0  0  0
  2 25  1  0  0  0
  2 86  1  0  0  0
  2 87  1  0  0  0
  3  4  1  0  0  0
  3 88  1  0  0  0
  3 89  1  0  0  0
  4  5  1  0  0  0
  4 90  1  0  0  0
  4 91  1  0  0  0
  5  6  1  0  0  0
  5 26  1  0  0  0
  5 92  1  0  0  0
  6 25  1  0  0  0
  6 93  1  0  0  0
  6 94  1  0  0  0
  7  8  2  0  0  0
  7 26  1  0  0  0
  7 29  1  0  0  0
  8  9  1  0  0  0
  8 22  1  0  0  0
  9 10  1  0  0  0
  9 27  2  0  0  0
 10 11  2  0  0  0
 10 15  1  0  0  0
 11 12  1  0  0  0
 11 95  1  0  0  0
 12 13  2  0  0  0
 12 96  1  0  0  0
 13 14  1  0  0  0
 13 31  1  0  0  0
 14 15  2  0  0  0
 14 97  1  0  0  0
 15 98  1  0  0  0
 16 17  2  0  0  0
 16 21  1  0  0  0
 16 31  1  0  0  0
 17 18  1  0  0  0
 17 99  1  0  0  0
 18 19  2  0  0  0
 18100  1  0  0  0
 19 20  1  0  0  0
 19 24  1  0  0  0
 20 21  2  0  0  0
 20101  1  0  0  0
 21 23  1  0  0  0
 22 28  1  0  0  0
 22 32  2  0  0  0
 26 27  1  0  0  0
 28102  1  0  0  0
 28103  1  0  0  0
 29104  1  0  0  0
 29105  1  0  0  0
 33 34  1  0  0  0
 33 66  1  0  0  0
 33 70  2  0  0  0
 34 36  1  0  0  0
 34 59  1  0  0  0
 34106  1  0  0  0
 35 44  2  0  0  0
 35 45  1  0  0  0
 35 68  1  0  0  0
 36 56  1  0  0  0
 36107  1  0  0  0
 37 39  1  0  0  0
 37 47  1  0  0  0
 37 66  1  0  0  0
 37108  1  0  0  0
 38 43  2  0  0  0
 38 46  1  0  0  0
 38 47  1  0  0  0
 39 64  1  0  0  0
 39 67  2  0  0  0
 40 52  1  0  0  0
 40 53  2  0  0  0
 40 58  1  0  0  0
 41109  1  0  0  0
 41110  1  0  0  0
 41111  1  0  0  0
 41 48  1  0  0  0
 42 43  1  0  0  0
 42 66  1  0  0  0
 42112  1  0  0  0
 42113  1  0  0  0
 43 44  1  0  0  0
 44114  1  0  0  0
 45 46  2  0  0  0
 45115  1  0  0  0
 46116  1  0  0  0
 47117  1  0  0  0
 47118  1  0  0  0
 48 56  1  0  0  0
 48 65  1  0  0  0
 48119  1  0  0  0
 49 50  1  0  0  0
 49 53  1  0  0  0
 49 64  1  0  0  0
 49120  1  0  0  0
 50 51  1  0  0  0
 50121  1  0  0  0
 50122  1  0  0  0
 51 52  1  0  0  0
 51123  1  0  0  0
 51124  1  0  0  0
 52125  1  0  0  0
 52126  1  0  0  0
 53 54  1  0  0  0
 54 55  2  0  0  0
 54127  1  0  0  0
 55 57  1  0  0  0
 55128  1  0  0  0
 56 69  2  0  0  0
 57 58  2  0  0  0
 57129  1  0  0  0
 58130  1  0  0  0
 59 60  1  0  0  0
 59 61  1  0  0  0
 59 62  1  0  0  0
 60131  1  0  0  0
 60132  1  0  0  0
 60133  1  0  0  0
 61134  1  0  0  0
 61135  1  0  0  0
 61136  1  0  0  0
 62137  1  0  0  0
 62138  1  0  0  0
 62139  1  0  0  0
 63 65  1  0  0  0
 63140  1  0  0  0
 63141  1  0  0  0
 63142  1  0  0  0
 64143  1  0  0  0
 65144  1  0  0  0
 68 82  1  0  0  0
 71 73  2  0  0  0
 71 74  1  0  0  0
 71145  1  0  0  0
 72 74  2  0  0  0
 72 83  1  0  0  0
 72146  1  0  0  0
 73 75  1  0  0  0
 73 76  1  0  0  0
 74 79  1  0  0  0
 75 77  1  0  0  0
 75 83  2  0  0  0
 76 84  1  0  0  0
 76147  1  0  0  0
 76148  1  0  0  0
 77 80  1  0  0  0
 77 84  1  0  0  0
 77149  1  0  0  0
 78 80  1  0  0  0
 78150  1  0  0  0
 78151  1  0  0  0
 78152  1  0  0  0
 79 85  1  0  0  0
 79153  1  0  0  0
 79154  1  0  0  0
 80155  1  0  0  0
 80156  1  0  0  0
 81 82  1  0  0  0
 81 85  1  0  0  0
 81157  1  0  0  0
 81158  1  0  0  0
 82159  1  0  0  0
 82160  1  0  0  0
 85161  1  0  0  0
 85162  1  0  0  0
M  CHG  1  85   1
M  ISO  4   1 100  68 101  82 101  84 100
M  END
> <chiral flag>
0

> <version>
0

> <s_m_source_file>
/data/baiqing/PycharmProjects/Reinvent-master-3.2/result/LINK_invent/BTK/process_docking_weight1_custom_sum_contain_oxygen_bond_distance_aromatic_linkinvent_7_9_3/rearranged_h_0129.sdf

> <i_m_source_file_index>
49

> <r_mmod_Potential_Energy-OPLS-2005>
-157.977493286133

> <r_mmod_Stretch_Energy-OPLS-2005>
52.9158630371094

> <r_mmod_Bend_Energy-OPLS-2005>
153.443206787109

> <r_mmod_Torsional_Energy-OPLS-2005>
250.064727783203

> <r_mmod_Improper_Torsional_Energy-OPLS-2005>
15.6335153579712

> <r_mmod_Van_der_Waal_Energy-OPLS-2005>
151.511810302734

> <r_mmod_Electrostatic_Energy-OPLS-2005>
-355.363861083984

> <r_mmod_Solvation_Energy-OPLS-2005>
-451.750152587891

> <b_mmod_Minimization_Converged-OPLS-2005>
0

> <r_mmod_RMS_Derivative-OPLS-2005>
2.32993197441101

$$$$
49
                    3D
 Structure written by MMmdl.
153161  0  0  1  0            999 V2000
  -30.4500  -15.0776   20.1852 C   0  0  0  0  0  0
  -30.4258  -12.6396   19.4630 C   0  0  0  0  0  0
  -29.5045  -12.4859   18.2348 C   0  0  0  0  0  0
  -28.0411  -12.2770   18.6774 C   0  0  0  0  0  0
  -27.6087  -13.2461   19.8083 C   0  0  2  0  0  0
  -28.6668  -13.3614   20.9183 C   0  0  0  0  0  0
  -25.2448  -13.8217   20.5727 C   0  0  0  0  0  0
  -24.1781  -13.0487   20.9251 C   0  0  0  0  0  0
  -24.6359  -11.6942   20.8788 C   0  0  0  0  0  0
  -23.9045  -10.4322   21.0431 C   0  0  0  0  0  0
  -24.3577   -9.4218   21.9197 C   0  0  0  0  0  0
  -23.6260   -8.2253   22.0793 C   0  0  0  0  0  0
  -22.4247   -8.0277   21.3568 C   0  0  0  0  0  0
  -21.9876   -9.0260   20.4678 C   0  0  0  0  0  0
  -22.7216  -10.2134   20.3081 C   0  0  0  0  0  0
  -21.6854   -6.0727   22.5268 C   0  0  0  0  0  0
  -21.4020   -6.5623   23.8190 C   0  0  0  0  0  0
  -21.3653   -5.6777   24.9161 C   0  0  0  0  0  0
  -21.6048   -4.3041   24.7208 C   0  0  0  0  0  0
  -21.8834   -3.8128   23.4334 C   0  0  0  0  0  0
  -21.9210   -4.6962   22.3386 C   0  0  0  0  0  0
  -22.7764  -13.5260   21.1877 C   0  0  0  0  0  0
  -22.1672   -4.2117   21.0969 F   0  0  0  0  0  0
  -21.5627   -3.4547   25.7727 F   0  0  0  0  0  0
  -29.9010  -13.7912   20.2530 N   0  0  0  0  0  0
  -26.2813  -12.9415   20.3228 N   0  0  0  0  0  0
  -25.9273  -11.6570   20.5773 N   0  0  0  0  0  0
  -22.0391  -12.8262   22.0413 N   0  0  0  0  0  0
  -25.4307  -15.1943   20.4013 N   0  0  0  0  0  0
  -31.6795  -15.1357   20.0662 O   0  0  0  0  0  0
  -21.6662   -6.8862   21.4215 O   0  0  0  0  0  0
  -22.3458  -14.5593   20.6751 O   0  0  0  0  0  0
  -24.6550  -31.8340   23.1872 C   0  0  0  0  0  0
  -25.9256  -32.4675   23.8312 C   0  0  1  0  0  0
  -27.2099  -27.0641   20.0675 C   0  0  0  0  0  0
  -25.5970  -33.8515   24.2181 N   0  0  0  0  0  0
  -23.4604  -30.4461   21.5446 C   0  0  2  0  0  0
  -24.8994  -28.8604   20.1144 C   0  0  0  0  0  0
  -22.7638  -29.4433   22.4981 C   0  0  0  0  0  0
  -18.0300  -28.1356   22.8504 C   0  0  0  0  0  0
  -24.1466  -36.7227   23.2645 C   0  0  0  0  0  0
  -26.0276  -30.6615   21.4009 C   0  0  0  0  0  0
  -26.0874  -29.2708   20.7331 C   0  0  0  0  0  0
  -27.2400  -28.3846   20.6959 C   0  0  0  0  0  0
  -25.9861  -26.7723   19.4268 C   0  0  0  0  0  0
  -24.8619  -27.6252   19.4585 C   0  0  0  0  0  0
  -23.6786  -29.7713   20.1663 C   0  0  0  0  0  0
  -25.4111  -36.3004   24.0287 C   0  0  1  0  0  0
  -20.5921  -28.3664   23.1254 C   0  0  2  0  0  0
  -20.6775  -26.9366   22.5422 C   0  0  0  0  0  0
  -19.5745  -26.6346   21.5234 C   0  0  0  0  0  0
  -18.1918  -26.7920   22.1629 C   0  0  0  0  0  0
  -19.1560  -28.8874   23.2833 C   0  0  0  0  0  0
  -18.9474  -30.1488   23.8825 C   0  0  0  0  0  0
  -17.6465  -30.6577   24.0548 C   0  0  0  0  0  0
  -25.9067  -34.9399   23.5041 C   0  0  0  0  0  0
  -16.5352  -29.9045   23.6364 C   0  0  0  0  0  0
  -16.7284  -28.6457   23.0388 C   0  0  0  0  0  0
  -26.4567  -31.6615   25.0824 C   0  0  0  0  0  0
  -25.3714  -31.3835   26.1503 C   0  0  0  0  0  0
  -27.0473  -30.3010   24.6496 C   0  0  0  0  0  0
  -27.6060  -32.4468   25.7590 C   0  0  0  0  0  0
  -27.5547  -37.1752   24.8461 C   0  0  0  0  0  0
  -21.4335  -29.2977   22.3683 N   0  0  0  0  0  0
  -26.4256  -37.3733   23.9430 N   0  0  0  0  0  0
  -24.7355  -31.0059   22.0967 N   0  0  0  0  0  0
  -23.4245  -28.7962   23.3124 O   0  0  0  0  0  0
  -28.2685  -26.0625   20.0288 O   0  0  0  0  0  0
  -26.5638  -34.8879   22.4621 O   0  0  0  0  0  0
  -23.5627  -32.1324   23.6984 O   0  0  0  0  0  0
  -29.8402  -20.4147   19.7447 C   0  0  0  0  0  0
  -27.8489  -20.8321   18.9923 C   0  0  0  0  0  0
  -28.9204  -21.5654   19.4705 C   0  0  0  0  0  0
  -29.3194  -19.1029   19.5382 C   0  0  0  0  0  0
  -29.7949  -23.6401   18.1566 C   0  0  0  0  0  0
  -27.0546  -18.4941   18.4463 C   0  0  0  0  0  0
  -28.0313  -24.4918   19.9159 C   0  0  0  0  0  0
  -29.1496  -23.2488   19.5111 C   0  0  1  0  0  0
  -28.0502  -19.4145   19.0039 N   0  0  0  0  0  0
  -30.0379  -17.7649   19.6854 N   0  0  0  0  0  0
  -29.6288  -16.2630   20.0091 N   0  0  0  0  0  0
  -31.4579  -12.8042   19.1493 H   0  0  0  0  0  0
  -30.4388  -11.7288   20.0613 H   0  0  0  0  0  0
  -29.8191  -11.6330   17.6291 H   0  0  0  0  0  0
  -29.5832  -13.3677   17.5951 H   0  0  0  0  0  0
  -27.9530  -11.2475   19.0299 H   0  0  0  0  0  0
  -27.3699  -12.3651   17.8184 H   0  0  0  0  0  0
  -27.5428  -14.2190   19.3191 H   0  0  0  0  0  0
  -28.8045  -12.4211   21.4509 H   0  0  0  0  0  0
  -28.3707  -14.0988   21.6663 H   0  0  0  0  0  0
  -25.2691   -9.5685   22.4820 H   0  0  0  0  0  0
  -23.9955   -7.4635   22.7492 H   0  0  0  0  0  0
  -21.0850   -8.8770   19.8933 H   0  0  0  0  0  0
  -22.3682  -10.9686   19.6198 H   0  0  0  0  0  0
  -21.2021   -7.6125   23.9676 H   0  0  0  0  0  0
  -21.1454   -6.0521   25.9053 H   0  0  0  0  0  0
  -22.0631   -2.7592   23.2860 H   0  0  0  0  0  0
  -22.3945  -11.9856   22.4740 H   0  0  0  0  0  0
  -21.1047  -13.1385   22.2683 H   0  0  0  0  0  0
  -24.6928  -15.8838   20.4962 H   0  0  0  0  0  0
  -26.2902  -15.5803   20.0454 H   0  0  0  0  0  0
  -26.7341  -32.5175   23.1038 H   0  0  0  0  0  0
  -25.0243  -33.9722   25.0390 H   0  0  0  0  0  0
  -22.7657  -31.2717   21.3846 H   0  0  0  0  0  0
  -23.3752  -35.9526   23.3309 H   0  0  0  0  0  0
  -24.3509  -36.8892   22.2050 H   0  0  0  0  0  0
  -23.7176  -37.6403   23.6718 H   0  0  0  0  0  0
  -26.1945  -31.4017   20.6181 H   0  0  0  0  0  0
  -26.8984  -30.7099   22.0453 H   0  0  0  0  0  0
  -28.1509  -28.6801   21.1970 H   0  0  0  0  0  0
  -25.8530  -25.8569   18.8752 H   0  0  0  0  0  0
  -23.9469  -27.3147   18.9704 H   0  0  0  0  0  0
  -23.8121  -30.5394   19.4003 H   0  0  0  0  0  0
  -22.7915  -29.2055   19.8700 H   0  0  0  0  0  0
  -25.1274  -36.1874   25.0768 H   0  0  0  0  0  0
  -20.9973  -28.3212   24.1380 H   0  0  0  0  0  0
  -20.5689  -26.2255   23.3615 H   0  0  0  0  0  0
  -21.6611  -26.7354   22.1165 H   0  0  0  0  0  0
  -19.6865  -25.6256   21.1249 H   0  0  0  0  0  0
  -19.6682  -27.3178   20.6772 H   0  0  0  0  0  0
  -17.4191  -26.6725   21.4009 H   0  0  0  0  0  0
  -18.0250  -26.0058   22.9012 H   0  0  0  0  0  0
  -19.7931  -30.7354   24.2122 H   0  0  0  0  0  0
  -17.4980  -31.6258   24.5133 H   0  0  0  0  0  0
  -15.5333  -30.2887   23.7776 H   0  0  0  0  0  0
  -15.8670  -28.0750   22.7145 H   0  0  0  0  0  0
  -24.5878  -30.7226   25.7829 H   0  0  0  0  0  0
  -24.8927  -32.3029   26.4909 H   0  0  0  0  0  0
  -25.7946  -30.9032   27.0344 H   0  0  0  0  0  0
  -26.3173  -29.6745   24.1400 H   0  0  0  0  0  0
  -27.3954  -29.7339   25.5146 H   0  0  0  0  0  0
  -27.9120  -30.4284   23.9973 H   0  0  0  0  0  0
  -27.2647  -33.3843   26.2044 H   0  0  0  0  0  0
  -28.3924  -32.6980   25.0438 H   0  0  0  0  0  0
  -28.0722  -31.8732   26.5633 H   0  0  0  0  0  0
  -28.2537  -38.0065   24.7507 H   0  0  0  0  0  0
  -28.1062  -36.2592   24.6297 H   0  0  0  0  0  0
  -27.2269  -37.1410   25.8861 H   0  0  0  0  0  0
  -20.9651  -29.8708   21.6837 H   0  0  0  0  0  0
  -26.0120  -38.2797   24.1511 H   0  0  0  0  0  0
  -30.8646  -20.5799   20.0405 H   0  0  0  0  0  0
  -26.9320  -21.2229   18.5677 H   0  0  0  0  0  0
  -30.7424  -23.1193   17.9961 H   0  0  0  0  0  0
  -30.0183  -24.7087   18.1047 H   0  0  0  0  0  0
  -29.1529  -23.3977   17.3058 H   0  0  0  0  0  0
  -27.3126  -18.2388   17.4113 H   0  0  0  0  0  0
  -26.0636  -18.9664   18.4428 H   0  0  0  0  0  0
  -26.9743  -17.5765   19.0284 H   0  0  0  0  0  0
  -27.6518  -24.2246   20.9075 H   0  0  0  0  0  0
  -27.1906  -24.3182   19.2456 H   0  0  0  0  0  0
  -29.9496  -23.3732   20.2443 H   0  0  0  0  0  0
  -31.0531  -17.8792   19.6673 H   0  0  0  0  0  0
  -28.6270  -16.1285   20.0470 H   0  0  0  0  0  0
  1 25  1  0  0  0
  1 30  2  0  0  0
  1 81  1  0  0  0
  2  3  1  0  0  0
  2 25  1  0  0  0
  2 82  1  0  0  0
  2 83  1  0  0  0
  3  4  1  0  0  0
  3 84  1  0  0  0
  3 85  1  0  0  0
  4  5  1  0  0  0
  4 86  1  0  0  0
  4 87  1  0  0  0
  5  6  1  0  0  0
  5 26  1  0  0  0
  5 88  1  0  0  0
  6 25  1  0  0  0
  6 89  1  0  0  0
  6 90  1  0  0  0
  7  8  2  0  0  0
  7 26  1  0  0  0
  7 29  1  0  0  0
  8  9  1  0  0  0
  8 22  1  0  0  0
  9 10  1  0  0  0
  9 27  2  0  0  0
 10 11  2  0  0  0
 10 15  1  0  0  0
 11 12  1  0  0  0
 11 91  1  0  0  0
 12 13  2  0  0  0
 12 92  1  0  0  0
 13 14  1  0  0  0
 13 31  1  0  0  0
 14 15  2  0  0  0
 14 93  1  0  0  0
 15 94  1  0  0  0
 16 17  2  0  0  0
 16 21  1  0  0  0
 16 31  1  0  0  0
 17 18  1  0  0  0
 17 95  1  0  0  0
 18 19  2  0  0  0
 18 96  1  0  0  0
 19 20  1  0  0  0
 19 24  1  0  0  0
 20 21  2  0  0  0
 20 97  1  0  0  0
 21 23  1  0  0  0
 22 28  1  0  0  0
 22 32  2  0  0  0
 26 27  1  0  0  0
 28 98  1  0  0  0
 28 99  1  0  0  0
 29100  1  0  0  0
 29101  1  0  0  0
 33 34  1  0  0  0
 33 66  1  0  0  0
 33 70  2  0  0  0
 34 36  1  0  0  0
 34 59  1  0  0  0
 34102  1  0  0  0
 35 44  2  0  0  0
 35 45  1  0  0  0
 35 68  1  0  0  0
 36 56  1  0  0  0
 36103  1  0  0  0
 37 39  1  0  0  0
 37 47  1  0  0  0
 37 66  1  0  0  0
 37104  1  0  0  0
 38 43  2  0  0  0
 38 46  1  0  0  0
 38 47  1  0  0  0
 39 64  1  0  0  0
 39 67  2  0  0  0
 40 52  1  0  0  0
 40 53  2  0  0  0
 40 58  1  0  0  0
 41105  1  0  0  0
 41106  1  0  0  0
 41107  1  0  0  0
 41 48  1  0  0  0
 42 43  1  0  0  0
 42 66  1  0  0  0
 42108  1  0  0  0
 42109  1  0  0  0
 43 44  1  0  0  0
 44110  1  0  0  0
 45 46  2  0  0  0
 45111  1  0  0  0
 46112  1  0  0  0
 47113  1  0  0  0
 47114  1  0  0  0
 48 56  1  0  0  0
 48 65  1  0  0  0
 48115  1  0  0  0
 49 50  1  0  0  0
 49 53  1  0  0  0
 49 64  1  0  0  0
 49116  1  0  0  0
 50 51  1  0  0  0
 50117  1  0  0  0
 50118  1  0  0  0
 51 52  1  0  0  0
 51119  1  0  0  0
 51120  1  0  0  0
 52121  1  0  0  0
 52122  1  0  0  0
 53 54  1  0  0  0
 54 55  2  0  0  0
 54123  1  0  0  0
 55 57  1  0  0  0
 55124  1  0  0  0
 56 69  2  0  0  0
 57 58  2  0  0  0
 57125  1  0  0  0
 58126  1  0  0  0
 59 60  1  0  0  0
 59 61  1  0  0  0
 59 62  1  0  0  0
 60127  1  0  0  0
 60128  1  0  0  0
 60129  1  0  0  0
 61130  1  0  0  0
 61131  1  0  0  0
 61132  1  0  0  0
 62133  1  0  0  0
 62134  1  0  0  0
 62135  1  0  0  0
 63 65  1  0  0  0
 63136  1  0  0  0
 63137  1  0  0  0
 63138  1  0  0  0
 64139  1  0  0  0
 65140  1  0  0  0
 68 77  1  0  0  0
 71 73  1  0  0  0
 71 74  2  0  0  0
 71141  1  0  0  0
 72 73  2  0  0  0
 72 79  1  0  0  0
 72142  1  0  0  0
 73 78  1  0  0  0
 74 79  1  0  0  0
 74 80  1  0  0  0
 75143  1  0  0  0
 75144  1  0  0  0
 75145  1  0  0  0
 75 78  1  0  0  0
 76 79  1  0  0  0
 76146  1  0  0  0
 76147  1  0  0  0
 76148  1  0  0  0
 77 78  1  0  0  0
 77149  1  0  0  0
 77150  1  0  0  0
 78151  1  0  0  0
 80 81  1  0  0  0
 80152  1  0  0  0
 81153  1  0  0  0
M  ISO  4   1 100  68 101  77 101  81 100
M  END
> <chiral flag>
0

> <version>
0

> <s_m_source_file>
/data/baiqing/PycharmProjects/Reinvent-master-3.2/result/LINK_invent/BTK/process_docking_weight1_custom_sum_contain_oxygen_bond_distance_aromatic_linkinvent_7_9_3/rearranged_h_0129.sdf

> <i_m_source_file_index>
50

> <r_mmod_Potential_Energy-OPLS-2005>
726.625793457031

> <r_mmod_Stretch_Energy-OPLS-2005>
346.299957275391

> <r_mmod_Bend_Energy-OPLS-2005>
313.984954833984

> <r_mmod_Torsional_Energy-OPLS-2005>
224.599197387695

> <r_mmod_Improper_Torsional_Energy-OPLS-2005>
7.60622692108154

> <r_mmod_Van_der_Waal_Energy-OPLS-2005>
104.530265808105

> <r_mmod_Electrostatic_Energy-OPLS-2005>
-351.282531738281

> <r_mmod_Solvation_Energy-OPLS-2005>
-217.050598144531

> <b_mmod_Minimization_Converged-OPLS-2005>
0

> <r_mmod_RMS_Derivative-OPLS-2005>
10.3119668960571

$$$$
50
                    3D
 Structure written by MMmdl.
159167  0  0  1  0            999 V2000
  -30.5585  -14.8335   20.4116 C   0  0  0  0  0  0
  -30.4409  -12.5120   19.4702 C   0  0  0  0  0  0
  -29.5060  -12.4979   18.2383 C   0  0  0  0  0  0
  -28.0339  -12.3097   18.6617 C   0  0  0  0  0  0
  -27.6322  -13.2334   19.8434 C   0  0  2  0  0  0
  -28.6817  -13.2052   20.9747 C   0  0  0  0  0  0
  -25.2465  -13.8223   20.5724 C   0  0  0  0  0  0
  -24.1759  -13.0455   20.9261 C   0  0  0  0  0  0
  -24.6371  -11.6937   20.8797 C   0  0  0  0  0  0
  -23.9060  -10.4305   21.0438 C   0  0  0  0  0  0
  -24.3611   -9.4205   21.9208 C   0  0  0  0  0  0
  -23.6287   -8.2249   22.0762 C   0  0  0  0  0  0
  -22.4278   -8.0273   21.3544 C   0  0  0  0  0  0
  -21.9913   -9.0261   20.4652 C   0  0  0  0  0  0
  -22.7250  -10.2137   20.3071 C   0  0  0  0  0  0
  -21.6851   -6.0733   22.5283 C   0  0  0  0  0  0
  -21.4025   -6.5645   23.8212 C   0  0  0  0  0  0
  -21.3651   -5.6799   24.9176 C   0  0  0  0  0  0
  -21.6042   -4.3058   24.7234 C   0  0  0  0  0  0
  -21.8819   -3.8145   23.4357 C   0  0  0  0  0  0
  -21.9201   -4.6968   22.3406 C   0  0  0  0  0  0
  -22.7779  -13.5232   21.1897 C   0  0  0  0  0  0
  -22.1662   -4.2152   21.0982 F   0  0  0  0  0  0
  -21.5619   -3.4537   25.7745 F   0  0  0  0  0  0
  -29.9621  -13.5879   20.3725 N   0  0  0  0  0  0
  -26.2882  -12.9419   20.3282 N   0  0  0  0  0  0
  -25.9293  -11.6566   20.5776 N   0  0  0  0  0  0
  -22.0433  -12.8209   22.0453 N   0  0  0  0  0  0
  -25.4153  -15.1943   20.4122 N   0  0  0  0  0  0
  -31.7608  -14.9203   20.1485 O   0  0  0  0  0  0
  -21.6639   -6.8877   21.4241 O   0  0  0  0  0  0
  -22.3471  -14.5537   20.6749 O   0  0  0  0  0  0
  -24.6366  -31.8478   23.1925 C   0  0  0  0  0  0
  -25.9172  -32.4716   23.8309 C   0  0  1  0  0  0
  -27.2273  -27.2152   20.1319 C   0  0  0  0  0  0
  -25.5926  -33.8531   24.2213 N   0  0  0  0  0  0
  -23.4328  -30.4673   21.5392 C   0  0  2  0  0  0
  -24.8809  -28.9079   20.0998 C   0  0  0  0  0  0
  -22.7524  -29.4548   22.4912 C   0  0  0  0  0  0
  -18.0316  -28.1416   22.8503 C   0  0  0  0  0  0
  -24.1472  -36.7292   23.2642 C   0  0  0  0  0  0
  -25.9784  -30.7457   21.3736 C   0  0  0  0  0  0
  -26.0507  -29.3649   20.7176 C   0  0  0  0  0  0
  -27.2190  -28.5322   20.7201 C   0  0  0  0  0  0
  -26.0313  -26.8328   19.4855 C   0  0  0  0  0  0
  -24.8828  -27.6538   19.4676 C   0  0  0  0  0  0
  -23.6450  -29.7910   20.1557 C   0  0  0  0  0  0
  -25.4101  -36.3074   24.0313 C   0  0  1  0  0  0
  -20.5922  -28.3704   23.1245 C   0  0  2  0  0  0
  -20.6792  -26.9427   22.5405 C   0  0  0  0  0  0
  -19.5729  -26.6405   21.5195 C   0  0  0  0  0  0
  -18.1927  -26.7935   22.1681 C   0  0  0  0  0  0
  -19.1593  -28.8899   23.2831 C   0  0  0  0  0  0
  -18.9559  -30.1516   23.8832 C   0  0  0  0  0  0
  -17.6561  -30.6642   24.0540 C   0  0  0  0  0  0
  -25.9050  -34.9442   23.5063 C   0  0  0  0  0  0
  -16.5428  -29.9122   23.6373 C   0  0  0  0  0  0
  -16.7314  -28.6508   23.0426 C   0  0  0  0  0  0
  -26.4509  -31.6566   25.0736 C   0  0  0  0  0  0
  -25.3718  -31.3715   26.1445 C   0  0  0  0  0  0
  -27.0346  -30.2985   24.6213 C   0  0  0  0  0  0
  -27.6042  -32.4326   25.7516 C   0  0  0  0  0  0
  -27.5563  -37.1797   24.8463 C   0  0  0  0  0  0
  -21.4243  -29.3022   22.3627 N   0  0  0  0  0  0
  -26.4283  -37.3776   23.9399 N   0  0  0  0  0  0
  -24.7030  -31.0407   22.0911 N   0  0  0  0  0  0
  -23.4197  -28.8101   23.3049 O   0  0  0  0  0  0
  -28.3307  -26.3210   20.2466 O   0  0  0  0  0  0
  -26.5659  -34.8934   22.4666 O   0  0  0  0  0  0
  -23.5516  -32.1301   23.7222 O   0  0  0  0  0  0
  -28.0947  -22.3913   19.0149 C   0  0  0  0  0  0
  -29.6643  -22.7222   20.7879 C   0  0  0  0  0  0
  -27.9852  -20.8510   19.3868 C   0  0  0  0  0  0
  -29.5329  -21.1573   21.1757 C   0  0  0  0  0  0
  -28.4009  -23.4339   20.1497 C   0  0  1  0  0  0
  -30.9697  -17.8085   21.7029 C   0  0  0  0  0  0
  -28.4704  -24.9785   19.5502 C   0  0  0  0  0  0
  -28.9318  -18.6642   20.3556 C   0  0  0  0  0  0
  -30.1175  -17.5085   20.4639 C   0  0  2  0  0  0
  -29.7618  -15.9868   20.5297 N   0  0  0  0  0  0
  -29.1713  -20.1985   20.0545 N   0  3  1  0  0  0
  -31.4742  -12.6691   19.1501 H   0  0  0  0  0  0
  -30.4263  -11.5535   19.9874 H   0  0  0  0  0  0
  -29.7970  -11.7016   17.5517 H   0  0  0  0  0  0
  -29.6066  -13.4326   17.6855 H   0  0  0  0  0  0
  -27.9038  -11.2644   18.9478 H   0  0  0  0  0  0
  -27.3715  -12.4738   17.8109 H   0  0  0  0  0  0
  -27.6105  -14.2450   19.4360 H   0  0  0  0  0  0
  -28.4149  -13.8937   21.7796 H   0  0  0  0  0  0
  -28.7511  -12.2132   21.4224 H   0  0  0  0  0  0
  -25.2766   -9.5687   22.4760 H   0  0  0  0  0  0
  -24.0002   -7.4647   22.7482 H   0  0  0  0  0  0
  -21.0837   -8.8793   19.8960 H   0  0  0  0  0  0
  -22.3727  -10.9674   19.6157 H   0  0  0  0  0  0
  -21.2020   -7.6150   23.9715 H   0  0  0  0  0  0
  -21.1461   -6.0526   25.9074 H   0  0  0  0  0  0
  -22.0602   -2.7607   23.2863 H   0  0  0  0  0  0
  -22.4059  -11.9885   22.4860 H   0  0  0  0  0  0
  -21.1057  -13.1214   22.2684 H   0  0  0  0  0  0
  -24.6459  -15.8459   20.5210 H   0  0  0  0  0  0
  -26.2454  -15.6306   20.0355 H   0  0  0  0  0  0
  -26.7235  -32.5325   23.1038 H   0  0  0  0  0  0
  -25.0038  -33.9628   25.0337 H   0  0  0  0  0  0
  -22.7304  -31.2898   21.3970 H   0  0  0  0  0  0
  -23.3740  -35.9620   23.3315 H   0  0  0  0  0  0
  -24.3544  -36.8925   22.2057 H   0  0  0  0  0  0
  -23.7216  -37.6484   23.6683 H   0  0  0  0  0  0
  -26.1124  -31.4916   20.5895 H   0  0  0  0  0  0
  -26.8615  -30.8042   21.9988 H   0  0  0  0  0  0
  -28.1106  -28.8749   21.2231 H   0  0  0  0  0  0
  -25.9390  -25.8591   19.0280 H   0  0  0  0  0  0
  -23.9885  -27.2993   18.9740 H   0  0  0  0  0  0
  -23.7493  -30.5638   19.3950 H   0  0  0  0  0  0
  -22.7625  -29.2120   19.8688 H   0  0  0  0  0  0
  -25.1280  -36.1918   25.0805 H   0  0  0  0  0  0
  -21.0011  -28.3255   24.1373 H   0  0  0  0  0  0
  -20.5677  -26.2300   23.3617 H   0  0  0  0  0  0
  -21.6669  -26.7468   22.1223 H   0  0  0  0  0  0
  -19.6831  -25.6340   21.1136 H   0  0  0  0  0  0
  -19.6581  -27.3234   20.6704 H   0  0  0  0  0  0
  -18.0434  -26.0132   22.9180 H   0  0  0  0  0  0
  -17.4144  -26.6593   21.4150 H   0  0  0  0  0  0
  -19.8046  -30.7377   24.2098 H   0  0  0  0  0  0
  -17.5205  -31.6356   24.5089 H   0  0  0  0  0  0
  -15.5448  -30.3075   23.7735 H   0  0  0  0  0  0
  -15.8709  -28.0779   22.7228 H   0  0  0  0  0  0
  -24.5910  -30.7031   25.7783 H   0  0  0  0  0  0
  -24.8906  -32.2891   26.4858 H   0  0  0  0  0  0
  -25.8052  -30.8920   27.0235 H   0  0  0  0  0  0
  -26.2927  -29.6735   24.1225 H   0  0  0  0  0  0
  -27.4008  -29.7229   25.4726 H   0  0  0  0  0  0
  -27.8818  -30.4255   23.9460 H   0  0  0  0  0  0
  -27.2621  -33.3629   26.2051 H   0  0  0  0  0  0
  -28.3881  -32.6856   25.0372 H   0  0  0  0  0  0
  -28.0670  -31.8487   26.5466 H   0  0  0  0  0  0
  -28.2592  -38.0087   24.7509 H   0  0  0  0  0  0
  -28.1049  -36.2618   24.6297 H   0  0  0  0  0  0
  -27.2290  -37.1463   25.8872 H   0  0  0  0  0  0
  -20.9479  -29.8667   21.6715 H   0  0  0  0  0  0
  -26.0162  -38.2849   24.1418 H   0  0  0  0  0  0
  -27.1531  -22.6808   18.5437 H   0  0  0  0  0  0
  -28.8431  -22.5001   18.2291 H   0  0  0  0  0  0
  -30.5055  -22.8290   20.1007 H   0  0  0  0  0  0
  -29.9670  -23.2744   21.6781 H   0  0  0  0  0  0
  -27.7703  -20.3055   18.4669 H   0  0  0  0  0  0
  -27.1104  -20.7198   20.0260 H   0  0  0  0  0  0
  -28.7860  -21.0637   21.9660 H   0  0  0  0  0  0
  -30.4715  -20.8311   21.6199 H   0  0  0  0  0  0
  -27.5954  -23.4053   20.8840 H   0  0  0  0  0  0
  -30.3537  -17.7635   22.6036 H   0  0  0  0  0  0
  -31.4206  -18.7969   21.6437 H   0  0  0  0  0  0
  -31.7829  -17.0945   21.8295 H   0  0  0  0  0  0
  -27.8041  -25.0070   18.6932 H   0  0  0  0  0  0
  -29.4502  -25.0483   19.0723 H   0  0  0  0  0  0
  -28.2882  -18.5973   21.2337 H   0  0  0  0  0  0
  -28.2957  -18.3172   19.5397 H   0  0  0  0  0  0
  -30.7460  -17.6207   19.5799 H   0  0  0  0  0  0
  -28.7793  -15.7858   20.6330 H   0  0  0  0  0  0
  -29.9294  -20.2335   19.3890 H   0  0  0  0  0  0
  1 25  1  0  0  0
  1 30  2  0  0  0
  1 80  1  0  0  0
  2  3  1  0  0  0
  2 25  1  0  0  0
  2 82  1  0  0  0
  2 83  1  0  0  0
  3  4  1  0  0  0
  3 84  1  0  0  0
  3 85  1  0  0  0
  4  5  1  0  0  0
  4 86  1  0  0  0
  4 87  1  0  0  0
  5  6  1  0  0  0
  5 26  1  0  0  0
  5 88  1  0  0  0
  6 25  1  0  0  0
  6 89  1  0  0  0
  6 90  1  0  0  0
  7  8  2  0  0  0
  7 26  1  0  0  0
  7 29  1  0  0  0
  8  9  1  0  0  0
  8 22  1  0  0  0
  9 10  1  0  0  0
  9 27  2  0  0  0
 10 11  2  0  0  0
 10 15  1  0  0  0
 11 12  1  0  0  0
 11 91  1  0  0  0
 12 13  2  0  0  0
 12 92  1  0  0  0
 13 14  1  0  0  0
 13 31  1  0  0  0
 14 15  2  0  0  0
 14 93  1  0  0  0
 15 94  1  0  0  0
 16 17  2  0  0  0
 16 21  1  0  0  0
 16 31  1  0  0  0
 17 18  1  0  0  0
 17 95  1  0  0  0
 18 19  2  0  0  0
 18 96  1  0  0  0
 19 20  1  0  0  0
 19 24  1  0  0  0
 20 21  2  0  0  0
 20 97  1  0  0  0
 21 23  1  0  0  0
 22 28  1  0  0  0
 22 32  2  0  0  0
 26 27  1  0  0  0
 28 98  1  0  0  0
 28 99  1  0  0  0
 29100  1  0  0  0
 29101  1  0  0  0
 33 34  1  0  0  0
 33 66  1  0  0  0
 33 70  2  0  0  0
 34 36  1  0  0  0
 34 59  1  0  0  0
 34102  1  0  0  0
 35 44  2  0  0  0
 35 45  1  0  0  0
 35 68  1  0  0  0
 36 56  1  0  0  0
 36103  1  0  0  0
 37 39  1  0  0  0
 37 47  1  0  0  0
 37 66  1  0  0  0
 37104  1  0  0  0
 38 43  2  0  0  0
 38 46  1  0  0  0
 38 47  1  0  0  0
 39 64  1  0  0  0
 39 67  2  0  0  0
 40 52  1  0  0  0
 40 53  2  0  0  0
 40 58  1  0  0  0
 41105  1  0  0  0
 41106  1  0  0  0
 41107  1  0  0  0
 41 48  1  0  0  0
 42 43  1  0  0  0
 42 66  1  0  0  0
 42108  1  0  0  0
 42109  1  0  0  0
 43 44  1  0  0  0
 44110  1  0  0  0
 45 46  2  0  0  0
 45111  1  0  0  0
 46112  1  0  0  0
 47113  1  0  0  0
 47114  1  0  0  0
 48 56  1  0  0  0
 48 65  1  0  0  0
 48115  1  0  0  0
 49 50  1  0  0  0
 49 53  1  0  0  0
 49 64  1  0  0  0
 49116  1  0  0  0
 50 51  1  0  0  0
 50117  1  0  0  0
 50118  1  0  0  0
 51 52  1  0  0  0
 51119  1  0  0  0
 51120  1  0  0  0
 52121  1  0  0  0
 52122  1  0  0  0
 53 54  1  0  0  0
 54 55  2  0  0  0
 54123  1  0  0  0
 55 57  1  0  0  0
 55124  1  0  0  0
 56 69  2  0  0  0
 57 58  2  0  0  0
 57125  1  0  0  0
 58126  1  0  0  0
 59 60  1  0  0  0
 59 61  1  0  0  0
 59 62  1  0  0  0
 60127  1  0  0  0
 60128  1  0  0  0
 60129  1  0  0  0
 61130  1  0  0  0
 61131  1  0  0  0
 61132  1  0  0  0
 62133  1  0  0  0
 62134  1  0  0  0
 62135  1  0  0  0
 63 65  1  0  0  0
 63136  1  0  0  0
 63137  1  0  0  0
 63138  1  0  0  0
 64139  1  0  0  0
 65140  1  0  0  0
 68 77  1  0  0  0
 71 73  1  0  0  0
 71 75  1  0  0  0
 71141  1  0  0  0
 71142  1  0  0  0
 72 74  1  0  0  0
 72 75  1  0  0  0
 72143  1  0  0  0
 72144  1  0  0  0
 73 81  1  0  0  0
 73145  1  0  0  0
 73146  1  0  0  0
 74 81  1  0  0  0
 74147  1  0  0  0
 74148  1  0  0  0
 75 77  1  0  0  0
 75149  1  0  0  0
 76150  1  0  0  0
 76151  1  0  0  0
 76152  1  0  0  0
 76 79  1  0  0  0
 77153  1  0  0  0
 77154  1  0  0  0
 78 79  1  0  0  0
 78155  1  0  0  0
 78156  1  0  0  0
 78 81  1  0  0  0
 79 80  1  0  0  0
 79157  1  0  0  0
 80158  1  0  0  0
 81159  1  0  0  0
M  CHG  1  81   1
M  ISO  4   1 100  68 101  77 101  80 100
M  END
> <chiral flag>
0

> <version>
0

> <s_m_source_file>
/data/baiqing/PycharmProjects/Reinvent-master-3.2/result/LINK_invent/BTK/process_docking_weight1_custom_sum_contain_oxygen_bond_distance_aromatic_linkinvent_7_9_3/rearranged_h_0129.sdf

> <i_m_source_file_index>
51

> <r_mmod_Potential_Energy-OPLS-2005>
216.669677734375

> <r_mmod_Stretch_Energy-OPLS-2005>
173.813278198242

> <r_mmod_Bend_Energy-OPLS-2005>
252.601547241211

> <r_mmod_Torsional_Energy-OPLS-2005>
242.412094116211

> <r_mmod_Improper_Torsional_Energy-OPLS-2005>
4.95284938812256

> <r_mmod_Van_der_Waal_Energy-OPLS-2005>
121.527565002441

> <r_mmod_Electrostatic_Energy-OPLS-2005>
-238.348007202148

> <r_mmod_Solvation_Energy-OPLS-2005>
-464.640716552734

> <b_mmod_Minimization_Converged-OPLS-2005>
0

> <r_mmod_RMS_Derivative-OPLS-2005>
5.05363321304321

$$$$
51
                    3D
 Structure written by MMmdl.
168177  0  0  1  0            999 V2000
  -30.6788  -14.4713   20.6037 C   0  0  0  0  0  0
  -30.4391  -12.3129   19.4300 C   0  0  0  0  0  0
  -29.5098  -12.5081   18.2133 C   0  0  0  0  0  0
  -28.0291  -12.3630   18.6226 C   0  0  0  0  0  0
  -27.6697  -13.1997   19.8799 C   0  0  2  0  0  0
  -28.7069  -12.9573   21.0018 C   0  0  0  0  0  0
  -25.2638  -13.8141   20.5665 C   0  0  0  0  0  0
  -24.1882  -13.0440   20.9177 C   0  0  0  0  0  0
  -24.6409  -11.6904   20.8731 C   0  0  0  0  0  0
  -23.9055  -10.4310   21.0413 C   0  0  0  0  0  0
  -24.3608   -9.4231   21.9204 C   0  0  0  0  0  0
  -23.6287   -8.2261   22.0761 C   0  0  0  0  0  0
  -22.4265   -8.0298   21.3544 C   0  0  0  0  0  0
  -21.9895   -9.0266   20.4647 C   0  0  0  0  0  0
  -22.7219  -10.2153   20.3064 C   0  0  0  0  0  0
  -21.6864   -6.0748   22.5275 C   0  0  0  0  0  0
  -21.4020   -6.5644   23.8212 C   0  0  0  0  0  0
  -21.3645   -5.6786   24.9167 C   0  0  0  0  0  0
  -21.6042   -4.3042   24.7223 C   0  0  0  0  0  0
  -21.8804   -3.8148   23.4342 C   0  0  0  0  0  0
  -21.9194   -4.6976   22.3406 C   0  0  0  0  0  0
  -22.7899  -13.5271   21.1827 C   0  0  0  0  0  0
  -22.1660   -4.2154   21.0987 F   0  0  0  0  0  0
  -21.5616   -3.4530   25.7743 F   0  0  0  0  0  0
  -30.0414  -13.2780   20.4637 N   0  0  0  0  0  0
  -26.3066  -12.9287   20.3351 N   0  0  0  0  0  0
  -25.9343  -11.6451   20.5747 N   0  0  0  0  0  0
  -22.0502  -12.8316   22.0364 N   0  0  0  0  0  0
  -25.4390  -15.1858   20.4070 N   0  0  0  0  0  0
  -31.7774  -14.7171   20.0992 O   0  0  0  0  0  0
  -21.6626   -6.8902   21.4241 O   0  0  0  0  0  0
  -22.3625  -14.5602   20.6684 O   0  0  0  0  0  0
  -24.6160  -31.8666   23.2083 C   0  0  0  0  0  0
  -25.9048  -32.4817   23.8374 C   0  0  1  0  0  0
  -27.2397  -27.4198   20.0972 C   0  0  0  0  0  0
  -25.5918  -33.8611   24.2326 N   0  0  0  0  0  0
  -23.4032  -30.4897   21.5486 C   0  0  2  0  0  0
  -24.8478  -28.9488   20.1187 C   0  0  0  0  0  0
  -22.7408  -29.4664   22.4982 C   0  0  0  0  0  0
  -18.0281  -28.1392   22.8505 C   0  0  0  0  0  0
  -24.1492  -36.7320   23.2638 C   0  0  0  0  0  0
  -25.9308  -30.8281   21.3602 C   0  0  0  0  0  0
  -26.0076  -29.4582   20.7137 C   0  0  0  0  0  0
  -27.2008  -28.7000   20.7025 C   0  0  0  0  0  0
  -26.0551  -26.9262   19.4994 C   0  0  0  0  0  0
  -24.8676  -27.6826   19.5122 C   0  0  0  0  0  0
  -23.6108  -29.8168   20.1645 C   0  0  0  0  0  0
  -25.4111  -36.3112   24.0339 C   0  0  1  0  0  0
  -20.5856  -28.3736   23.1320 C   0  0  2  0  0  0
  -20.6775  -26.9459   22.5478 C   0  0  0  0  0  0
  -19.5781  -26.6373   21.5259 C   0  0  0  0  0  0
  -18.1940  -26.7926   22.1643 C   0  0  0  0  0  0
  -19.1511  -28.8887   23.2889 C   0  0  0  0  0  0
  -18.9444  -30.1519   23.8850 C   0  0  0  0  0  0
  -17.6443  -30.6642   24.0508 C   0  0  0  0  0  0
  -25.9044  -34.9470   23.5127 C   0  0  0  0  0  0
  -16.5336  -29.9108   23.6329 C   0  0  0  0  0  0
  -16.7269  -28.6508   23.0365 C   0  0  0  0  0  0
  -26.4477  -31.6578   25.0681 C   0  0  0  0  0  0
  -25.3764  -31.3666   26.1446 C   0  0  0  0  0  0
  -27.0298  -30.3027   24.6017 C   0  0  0  0  0  0
  -27.6051  -32.4291   25.7457 C   0  0  0  0  0  0
  -27.5585  -37.1807   24.8462 C   0  0  0  0  0  0
  -21.4130  -29.3094   22.3729 N   0  0  0  0  0  0
  -26.4296  -37.3798   23.9407 N   0  0  0  0  0  0
  -24.6681  -31.0771   22.0979 N   0  0  0  0  0  0
  -23.4174  -28.8157   23.2990 O   0  0  0  0  0  0
  -28.4408  -26.7296   20.1048 O   0  0  0  0  0  0
  -26.5591  -34.8924   22.4681 O   0  0  0  0  0  0
  -23.5352  -32.1408   23.7489 O   0  0  0  0  0  0
  -28.5649  -19.7978   22.3046 C   0  0  0  0  0  0
  -28.2168  -21.1680   22.3225 C   0  0  0  0  0  0
  -27.9859  -21.8174   21.0785 C   0  0  0  0  0  0
  -28.6404  -19.1032   21.0859 C   0  0  0  0  0  0
  -28.1866  -21.0568   19.8971 C   0  0  0  0  0  0
  -27.7167  -21.1607   24.9252 C   0  0  0  0  0  0
  -26.6875  -22.0483   24.2682 C   0  0  0  0  0  0
  -28.0513  -21.8855   23.6367 C   0  0  0  0  0  0
  -26.5357  -21.4505   18.0077 C   0  0  0  0  0  0
  -27.4047  -23.2480   21.0246 C   0  0  0  0  0  0
  -28.7030  -17.5706   21.0446 C   0  0  0  0  0  0
  -27.9758  -21.6386   18.5071 C   0  0  0  0  0  0
  -28.4027  -24.4320   21.0888 C   0  0  0  0  0  0
  -30.0946  -16.8879   21.1539 C   0  0  0  0  0  0
  -28.4962  -25.3204   19.8142 C   0  0  0  0  0  0
  -28.4954  -19.7396   19.9064 N   0  0  0  0  0  0
  -29.9409  -15.4199   21.2090 N   0  0  0  0  0  0
  -31.4817  -12.4334   19.1307 H   0  0  0  0  0  0
  -30.3555  -11.2972   19.8189 H   0  0  0  0  0  0
  -29.7539  -11.7856   17.4323 H   0  0  0  0  0  0
  -29.6771  -13.4954   17.7782 H   0  0  0  0  0  0
  -27.8417  -11.3076   18.8215 H   0  0  0  0  0  0
  -27.3805  -12.6318   17.7882 H   0  0  0  0  0  0
  -27.7241  -14.2500   19.5923 H   0  0  0  0  0  0
  -28.6851  -11.9130   21.3165 H   0  0  0  0  0  0
  -28.4564  -13.5296   21.8971 H   0  0  0  0  0  0
  -25.2744   -9.5716   22.4789 H   0  0  0  0  0  0
  -23.9971   -7.4653   22.7516 H   0  0  0  0  0  0
  -21.0802   -8.8800   19.8999 H   0  0  0  0  0  0
  -22.3654  -10.9701   19.6176 H   0  0  0  0  0  0
  -21.2014   -7.6145   23.9721 H   0  0  0  0  0  0
  -21.1476   -6.0519   25.9070 H   0  0  0  0  0  0
  -22.0602   -2.7617   23.2842 H   0  0  0  0  0  0
  -22.4002  -11.9944   22.4779 H   0  0  0  0  0  0
  -21.1157  -13.1457   22.2573 H   0  0  0  0  0  0
  -24.6704  -15.8413   20.5015 H   0  0  0  0  0  0
  -26.2784  -15.6136   20.0380 H   0  0  0  0  0  0
  -26.7113  -32.5512   23.1131 H   0  0  0  0  0  0
  -25.0088  -33.9776   25.0481 H   0  0  0  0  0  0
  -22.6927  -31.3065   21.4082 H   0  0  0  0  0  0
  -23.3753  -35.9663   23.3311 H   0  0  0  0  0  0
  -24.3585  -36.8915   22.2052 H   0  0  0  0  0  0
  -23.7253  -37.6525   23.6649 H   0  0  0  0  0  0
  -26.0383  -31.5873   20.5851 H   0  0  0  0  0  0
  -26.8222  -30.8906   21.9709 H   0  0  0  0  0  0
  -28.0962  -29.0930   21.1639 H   0  0  0  0  0  0
  -26.0105  -25.9710   19.0007 H   0  0  0  0  0  0
  -23.9762  -27.2823   19.0512 H   0  0  0  0  0  0
  -23.7184  -30.5876   19.4006 H   0  0  0  0  0  0
  -22.7343  -29.2352   19.8738 H   0  0  0  0  0  0
  -25.1294  -36.1972   25.0837 H   0  0  0  0  0  0
  -20.9964  -28.3364   24.1444 H   0  0  0  0  0  0
  -21.6676  -26.7530   22.1328 H   0  0  0  0  0  0
  -20.5658  -26.2365   23.3699 H   0  0  0  0  0  0
  -19.6951  -25.6262   21.1368 H   0  0  0  0  0  0
  -19.6751  -27.3114   20.6739 H   0  0  0  0  0  0
  -17.4261  -26.6689   21.3991 H   0  0  0  0  0  0
  -18.0315  -26.0070   22.9036 H   0  0  0  0  0  0
  -19.7915  -30.7381   24.2147 H   0  0  0  0  0  0
  -17.4997  -31.6351   24.5032 H   0  0  0  0  0  0
  -15.5333  -30.3031   23.7635 H   0  0  0  0  0  0
  -15.8678  -28.0808   22.7101 H   0  0  0  0  0  0
  -24.5950  -30.6993   25.7793 H   0  0  0  0  0  0
  -24.8946  -32.2816   26.4912 H   0  0  0  0  0  0
  -25.8154  -30.8831   27.0186 H   0  0  0  0  0  0
  -26.2811  -29.6785   24.1122 H   0  0  0  0  0  0
  -27.4150  -29.7261   25.4432 H   0  0  0  0  0  0
  -27.8621  -30.4366   23.9102 H   0  0  0  0  0  0
  -27.2671  -33.3581   26.2076 H   0  0  0  0  0  0
  -28.3859  -32.6861   25.0282 H   0  0  0  0  0  0
  -28.0733  -31.8377   26.5339 H   0  0  0  0  0  0
  -28.2602  -38.0100   24.7509 H   0  0  0  0  0  0
  -28.1074  -36.2625   24.6297 H   0  0  0  0  0  0
  -27.2298  -37.1479   25.8863 H   0  0  0  0  0  0
  -20.9287  -29.8942   21.7060 H   0  0  0  0  0  0
  -26.0183  -38.2877   24.1399 H   0  0  0  0  0  0
  -28.7049  -19.2507   23.2267 H   0  0  0  0  0  0
  -27.5228  -20.0906   24.9047 H   0  0  0  0  0  0
  -28.1763  -21.5249   25.8403 H   0  0  0  0  0  0
  -26.4696  -22.9947   24.7607 H   0  0  0  0  0  0
  -25.8431  -21.5669   23.7770 H   0  0  0  0  0  0
  -28.7351  -22.7300   23.7036 H   0  0  0  0  0  0
  -26.2597  -20.3961   17.9982 H   0  0  0  0  0  0
  -26.4308  -21.8297   16.9930 H   0  0  0  0  0  0
  -25.8200  -21.9740   18.6385 H   0  0  0  0  0  0
  -26.7078  -23.3598   21.8561 H   0  0  0  0  0  0
  -26.7482  -23.3552   20.1652 H   0  0  0  0  0  0
  -28.2249  -17.2451   20.1200 H   0  0  0  0  0  0
  -28.0567  -17.2083   21.8442 H   0  0  0  0  0  0
  -28.2545  -22.6907   18.4898 H   0  0  0  0  0  0
  -28.6627  -21.1500   17.8138 H   0  0  0  0  0  0
  -29.3938  -24.0795   21.3784 H   0  0  0  0  0  0
  -28.0870  -25.0722   21.9118 H   0  0  0  0  0  0
  -30.7208  -17.1825   20.3115 H   0  0  0  0  0  0
  -30.6017  -17.2184   22.0594 H   0  0  0  0  0  0
  -27.8090  -25.0097   19.0312 H   0  0  0  0  0  0
  -29.4774  -25.1493   19.3681 H   0  0  0  0  0  0
  -29.0951  -15.0765   21.6389 H   0  0  0  0  0  0
  1 25  1  0  0  0
  1 30  2  0  0  0
  1 87  1  0  0  0
  2  3  1  0  0  0
  2 25  1  0  0  0
  2 88  1  0  0  0
  2 89  1  0  0  0
  3  4  1  0  0  0
  3 90  1  0  0  0
  3 91  1  0  0  0
  4  5  1  0  0  0
  4 92  1  0  0  0
  4 93  1  0  0  0
  5  6  1  0  0  0
  5 26  1  0  0  0
  5 94  1  0  0  0
  6 25  1  0  0  0
  6 95  1  0  0  0
  6 96  1  0  0  0
  7  8  2  0  0  0
  7 26  1  0  0  0
  7 29  1  0  0  0
  8  9  1  0  0  0
  8 22  1  0  0  0
  9 10  1  0  0  0
  9 27  2  0  0  0
 10 11  2  0  0  0
 10 15  1  0  0  0
 11 12  1  0  0  0
 11 97  1  0  0  0
 12 13  2  0  0  0
 12 98  1  0  0  0
 13 14  1  0  0  0
 13 31  1  0  0  0
 14 15  2  0  0  0
 14 99  1  0  0  0
 15100  1  0  0  0
 16 17  2  0  0  0
 16 21  1  0  0  0
 16 31  1  0  0  0
 17 18  1  0  0  0
 17101  1  0  0  0
 18 19  2  0  0  0
 18102  1  0  0  0
 19 20  1  0  0  0
 19 24  1  0  0  0
 20 21  2  0  0  0
 20103  1  0  0  0
 21 23  1  0  0  0
 22 28  1  0  0  0
 22 32  2  0  0  0
 26 27  1  0  0  0
 28104  1  0  0  0
 28105  1  0  0  0
 29106  1  0  0  0
 29107  1  0  0  0
 33 34  1  0  0  0
 33 66  1  0  0  0
 33 70  2  0  0  0
 34 36  1  0  0  0
 34 59  1  0  0  0
 34108  1  0  0  0
 35 44  2  0  0  0
 35 45  1  0  0  0
 35 68  1  0  0  0
 36 56  1  0  0  0
 36109  1  0  0  0
 37 39  1  0  0  0
 37 47  1  0  0  0
 37 66  1  0  0  0
 37110  1  0  0  0
 38 43  2  0  0  0
 38 46  1  0  0  0
 38 47  1  0  0  0
 39 64  1  0  0  0
 39 67  2  0  0  0
 40 52  1  0  0  0
 40 53  2  0  0  0
 40 58  1  0  0  0
 41111  1  0  0  0
 41112  1  0  0  0
 41113  1  0  0  0
 41 48  1  0  0  0
 42 43  1  0  0  0
 42 66  1  0  0  0
 42114  1  0  0  0
 42115  1  0  0  0
 43 44  1  0  0  0
 44116  1  0  0  0
 45 46  2  0  0  0
 45117  1  0  0  0
 46118  1  0  0  0
 47119  1  0  0  0
 47120  1  0  0  0
 48 56  1  0  0  0
 48 65  1  0  0  0
 48121  1  0  0  0
 49 50  1  0  0  0
 49 53  1  0  0  0
 49 64  1  0  0  0
 49122  1  0  0  0
 50 51  1  0  0  0
 50123  1  0  0  0
 50124  1  0  0  0
 51 52  1  0  0  0
 51125  1  0  0  0
 51126  1  0  0  0
 52127  1  0  0  0
 52128  1  0  0  0
 53 54  1  0  0  0
 54 55  2  0  0  0
 54129  1  0  0  0
 55 57  1  0  0  0
 55130  1  0  0  0
 56 69  2  0  0  0
 57 58  2  0  0  0
 57131  1  0  0  0
 58132  1  0  0  0
 59 60  1  0  0  0
 59 61  1  0  0  0
 59 62  1  0  0  0
 60133  1  0  0  0
 60134  1  0  0  0
 60135  1  0  0  0
 61136  1  0  0  0
 61137  1  0  0  0
 61138  1  0  0  0
 62139  1  0  0  0
 62140  1  0  0  0
 62141  1  0  0  0
 63 65  1  0  0  0
 63142  1  0  0  0
 63143  1  0  0  0
 63144  1  0  0  0
 64145  1  0  0  0
 65146  1  0  0  0
 68 85  1  0  0  0
 71 72  2  0  0  0
 71 74  1  0  0  0
 71147  1  0  0  0
 72 73  1  0  0  0
 72 78  1  0  0  0
 73 75  2  0  0  0
 73 80  1  0  0  0
 74 81  1  0  0  0
 74 86  2  0  0  0
 75 82  1  0  0  0
 75 86  1  0  0  0
 76 77  1  0  0  0
 76 78  1  0  0  0
 76148  1  0  0  0
 76149  1  0  0  0
 77 78  1  0  0  0
 77150  1  0  0  0
 77151  1  0  0  0
 78152  1  0  0  0
 79 82  1  0  0  0
 79153  1  0  0  0
 79154  1  0  0  0
 79155  1  0  0  0
 80 83  1  0  0  0
 80156  1  0  0  0
 80157  1  0  0  0
 81 84  1  0  0  0
 81158  1  0  0  0
 81159  1  0  0  0
 82160  1  0  0  0
 82161  1  0  0  0
 83 85  1  0  0  0
 83162  1  0  0  0
 83163  1  0  0  0
 84 87  1  0  0  0
 84164  1  0  0  0
 84165  1  0  0  0
 85166  1  0  0  0
 85167  1  0  0  0
 87168  1  0  0  0
M  ISO  4   1 100  68 101  85 101  87 100
M  END
> <chiral flag>
0

> <version>
0

> <s_m_source_file>
/data/baiqing/PycharmProjects/Reinvent-master-3.2/result/LINK_invent/BTK/process_docking_weight1_custom_sum_contain_oxygen_bond_distance_aromatic_linkinvent_7_9_3/rearranged_h_0129.sdf

> <i_m_source_file_index>
52

> <r_mmod_Potential_Energy-OPLS-2005>
-188.453643798828

> <r_mmod_Stretch_Energy-OPLS-2005>
40.9451141357422

> <r_mmod_Bend_Energy-OPLS-2005>
112.537803649902

> <r_mmod_Torsional_Energy-OPLS-2005>
239.539215087891

> <r_mmod_Improper_Torsional_Energy-OPLS-2005>
5.27239847183228

> <r_mmod_Van_der_Waal_Energy-OPLS-2005>
149.504364013672

> <r_mmod_Electrostatic_Energy-OPLS-2005>
-528.202453613281

> <r_mmod_Solvation_Energy-OPLS-2005>
-220.867752075195

> <b_mmod_Minimization_Converged-OPLS-2005>
0

> <r_mmod_RMS_Derivative-OPLS-2005>
3.64448666572571

$$$$
52
                    3D
 Structure written by MMmdl.
162170  0  0  1  0            999 V2000
  -30.6679  -14.5420   20.4840 C   0  0  0  0  0  0
  -30.4146  -12.3315   19.4063 C   0  0  0  0  0  0
  -29.4540  -12.4391   18.1971 C   0  0  0  0  0  0
  -27.9791  -12.3679   18.6215 C   0  0  0  0  0  0
  -27.6527  -13.2199   19.8765 C   0  0  2  0  0  0
  -28.7113  -13.0117   20.9831 C   0  0  0  0  0  0
  -25.2507  -13.8195   20.5700 C   0  0  0  0  0  0
  -24.1769  -13.0454   20.9202 C   0  0  0  0  0  0
  -24.6356  -11.6923   20.8781 C   0  0  0  0  0  0
  -23.9034  -10.4296   21.0438 C   0  0  0  0  0  0
  -24.3581   -9.4200   21.9212 C   0  0  0  0  0  0
  -23.6282   -8.2223   22.0749 C   0  0  0  0  0  0
  -22.4260   -8.0256   21.3543 C   0  0  0  0  0  0
  -21.9880   -9.0239   20.4638 C   0  0  0  0  0  0
  -22.7198  -10.2137   20.3080 C   0  0  0  0  0  0
  -21.6839   -6.0729   22.5266 C   0  0  0  0  0  0
  -21.4025   -6.5641   23.8194 C   0  0  0  0  0  0
  -21.3671   -5.6800   24.9170 C   0  0  0  0  0  0
  -21.6025   -4.3062   24.7224 C   0  0  0  0  0  0
  -21.8818   -3.8137   23.4351 C   0  0  0  0  0  0
  -21.9193   -4.6963   22.3389 C   0  0  0  0  0  0
  -22.7799  -13.5242   21.1847 C   0  0  0  0  0  0
  -22.1666   -4.2138   21.0983 F   0  0  0  0  0  0
  -21.5604   -3.4541   25.7744 F   0  0  0  0  0  0
  -30.0223  -13.3378   20.4122 N   0  0  0  0  0  0
  -26.2998  -12.9393   20.3501 N   0  0  0  0  0  0
  -25.9308  -11.6538   20.5918 N   0  0  0  0  0  0
  -22.0484  -12.8244   22.0449 N   0  0  0  0  0  0
  -25.4117  -15.1889   20.3828 N   0  0  0  0  0  0
  -31.8318  -14.6809   20.1036 O   0  0  0  0  0  0
  -21.6629   -6.8868   21.4212 O   0  0  0  0  0  0
  -22.3414  -14.5527   20.6671 O   0  0  0  0  0  0
  -24.6188  -31.8668   23.2138 C   0  0  0  0  0  0
  -25.9073  -32.4815   23.8466 C   0  0  1  0  0  0
  -27.2396  -27.3960   20.1175 C   0  0  0  0  0  0
  -25.5932  -33.8618   24.2382 N   0  0  0  0  0  0
  -23.4103  -30.4924   21.5515 C   0  0  2  0  0  0
  -24.8575  -28.9578   20.1129 C   0  0  0  0  0  0
  -22.7411  -29.4702   22.4994 C   0  0  0  0  0  0
  -18.0266  -28.1335   22.8472 C   0  0  0  0  0  0
  -24.1471  -36.7288   23.2651 C   0  0  0  0  0  0
  -25.9449  -30.8104   21.3862 C   0  0  0  0  0  0
  -26.0171  -29.4487   20.7249 C   0  0  0  0  0  0
  -27.2047  -28.6753   20.7300 C   0  0  0  0  0  0
  -26.0651  -26.9490   19.4610 C   0  0  0  0  0  0
  -24.8813  -27.7086   19.4731 C   0  0  0  0  0  0
  -23.6235  -29.8316   20.1642 C   0  0  0  0  0  0
  -25.4105  -36.3115   24.0357 C   0  0  1  0  0  0
  -20.5871  -28.3668   23.1285 C   0  0  2  0  0  0
  -20.6832  -26.9361   22.5499 C   0  0  0  0  0  0
  -19.5815  -26.6293   21.5281 C   0  0  0  0  0  0
  -18.1919  -26.7851   22.1648 C   0  0  0  0  0  0
  -19.1518  -28.8804   23.2864 C   0  0  0  0  0  0
  -18.9426  -30.1434   23.8874 C   0  0  0  0  0  0
  -17.6426  -30.6563   24.0592 C   0  0  0  0  0  0
  -25.9059  -34.9479   23.5184 C   0  0  0  0  0  0
  -16.5326  -29.9072   23.6319 C   0  0  0  0  0  0
  -16.7232  -28.6477   23.0363 C   0  0  0  0  0  0
  -26.4496  -31.6614   25.0825 C   0  0  0  0  0  0
  -25.3806  -31.3666   26.1607 C   0  0  0  0  0  0
  -27.0357  -30.3065   24.6229 C   0  0  0  0  0  0
  -27.6065  -32.4367   25.7564 C   0  0  0  0  0  0
  -27.5573  -37.1807   24.8484 C   0  0  0  0  0  0
  -21.4128  -29.3081   22.3708 N   0  0  0  0  0  0
  -26.4284  -37.3793   23.9440 N   0  0  0  0  0  0
  -24.6739  -31.0756   22.1047 N   0  0  0  0  0  0
  -23.4125  -28.8268   23.3094 O   0  0  0  0  0  0
  -28.3961  -26.6236   20.1971 O   0  0  0  0  0  0
  -26.5583  -34.8906   22.4725 O   0  0  0  0  0  0
  -23.5386  -32.1456   23.7503 O   0  0  0  0  0  0
  -27.1674  -17.4635   18.7463 C   0  0  0  0  0  0
  -28.2000  -16.8786   17.9923 C   0  0  0  0  0  0
  -27.4596  -17.9589   20.0280 C   0  0  0  0  0  0
  -29.4308  -16.5751   18.6100 C   0  0  0  0  0  0
  -28.7501  -17.7793   20.5825 C   0  0  0  0  0  0
  -29.5823  -16.7698   20.0110 C   0  0  0  0  0  0
  -30.6101  -16.1981   17.7313 C   0  0  0  0  0  0
  -29.3217  -18.9543   21.4168 C   0  0  0  0  0  0
  -28.8754  -20.3458   20.8282 C   0  0  0  0  0  0
  -29.5175  -21.6947   21.2721 C   0  0  0  0  0  0
  -29.2208  -24.2492   20.7927 C   0  0  0  0  0  0
  -28.2833  -25.1935   19.9692 C   0  0  0  0  0  0
  -29.9143  -15.6204   20.8346 N   0  0  0  0  0  0
  -28.8346  -22.8209   20.5536 N   0  3  0  0  0  0
  -31.4445  -12.4491   19.0628 H   0  0  0  0  0  0
  -30.3571  -11.3322   19.8340 H   0  0  0  0  0  0
  -29.6583  -11.6378   17.4829 H   0  0  0  0  0  0
  -29.6053  -13.3656   17.6556 H   0  0  0  0  0  0
  -27.7411  -11.3210   18.8063 H   0  0  0  0  0  0
  -27.3359  -12.6729   17.7973 H   0  0  0  0  0  0
  -27.6908  -14.2657   19.5737 H   0  0  0  0  0  0
  -28.7053  -11.9733   21.3130 H   0  0  0  0  0  0
  -28.4949  -13.5983   21.8747 H   0  0  0  0  0  0
  -25.2731   -9.5661   22.4809 H   0  0  0  0  0  0
  -23.9985   -7.4594   22.7456 H   0  0  0  0  0  0
  -21.0816   -8.8734   19.8968 H   0  0  0  0  0  0
  -22.3626  -10.9671   19.6194 H   0  0  0  0  0  0
  -21.2034   -7.6151   23.9697 H   0  0  0  0  0  0
  -21.1501   -6.0545   25.9077 H   0  0  0  0  0  0
  -22.0594   -2.7596   23.2841 H   0  0  0  0  0  0
  -22.4095  -11.9918   22.4900 H   0  0  0  0  0  0
  -21.1113  -13.1244   22.2710 H   0  0  0  0  0  0
  -24.6143  -15.8175   20.3782 H   0  0  0  0  0  0
  -26.2517  -15.6162   20.0060 H   0  0  0  0  0  0
  -26.7158  -32.5482   23.1244 H   0  0  0  0  0  0
  -25.0169  -33.9791   25.0579 H   0  0  0  0  0  0
  -22.7030  -31.3119   21.4141 H   0  0  0  0  0  0
  -23.3739  -35.9611   23.3346 H   0  0  0  0  0  0
  -24.3549  -36.8863   22.2055 H   0  0  0  0  0  0
  -23.7184  -37.6492   23.6635 H   0  0  0  0  0  0
  -26.0940  -31.5752   20.6216 H   0  0  0  0  0  0
  -26.8189  -30.8430   22.0252 H   0  0  0  0  0  0
  -28.0881  -29.0466   21.2268 H   0  0  0  0  0  0
  -26.0204  -26.0173   18.9196 H   0  0  0  0  0  0
  -23.9988  -27.3256   18.9776 H   0  0  0  0  0  0
  -23.7443  -30.6110   19.4112 H   0  0  0  0  0  0
  -22.7393  -29.2715   19.8575 H   0  0  0  0  0  0
  -25.1254  -36.2005   25.0837 H   0  0  0  0  0  0
  -20.9916  -28.3307   24.1455 H   0  0  0  0  0  0
  -20.5632  -26.2391   23.3813 H   0  0  0  0  0  0
  -21.6769  -26.7322   22.1425 H   0  0  0  0  0  0
  -19.6942  -25.6166   21.1394 H   0  0  0  0  0  0
  -19.6772  -27.2925   20.6631 H   0  0  0  0  0  0
  -17.4291  -26.6606   21.3981 H   0  0  0  0  0  0
  -18.0107  -26.0037   22.9064 H   0  0  0  0  0  0
  -19.7892  -30.7245   24.2261 H   0  0  0  0  0  0
  -17.4971  -31.6195   24.5302 H   0  0  0  0  0  0
  -15.5316  -30.2911   23.7730 H   0  0  0  0  0  0
  -15.8673  -28.0743   22.7119 H   0  0  0  0  0  0
  -24.5969  -30.7008   25.7983 H   0  0  0  0  0  0
  -24.9024  -32.2788   26.5181 H   0  0  0  0  0  0
  -25.8228  -30.8786   27.0305 H   0  0  0  0  0  0
  -26.2925  -29.6826   24.1262 H   0  0  0  0  0  0
  -27.4104  -29.7283   25.4688 H   0  0  0  0  0  0
  -27.8776  -30.4408   23.9433 H   0  0  0  0  0  0
  -27.2660  -33.3634   26.2186 H   0  0  0  0  0  0
  -28.3818  -32.6988   25.0363 H   0  0  0  0  0  0
  -28.0811  -31.8505   26.5441 H   0  0  0  0  0  0
  -28.2617  -38.0077   24.7503 H   0  0  0  0  0  0
  -28.1026  -36.2608   24.6337 H   0  0  0  0  0  0
  -27.2299  -37.1504   25.8886 H   0  0  0  0  0  0
  -20.9403  -29.8759   21.6821 H   0  0  0  0  0  0
  -26.0180  -38.2872   24.1424 H   0  0  0  0  0  0
  -26.2136  -17.6732   18.2790 H   0  0  0  0  0  0
  -28.0424  -16.6897   16.9379 H   0  0  0  0  0  0
  -26.7425  -18.6092   20.5106 H   0  0  0  0  0  0
  -30.5310  -16.6948   16.7608 H   0  0  0  0  0  0
  -30.6946  -15.1319   17.5553 H   0  0  0  0  0  0
  -31.5424  -16.5321   18.1853 H   0  0  0  0  0  0
  -30.4126  -18.8774   21.4068 H   0  0  0  0  0  0
  -29.0189  -18.8619   22.4596 H   0  0  0  0  0  0
  -27.8054  -20.4515   20.9973 H   0  0  0  0  0  0
  -28.9997  -20.3002   19.7417 H   0  0  0  0  0  0
  -30.5916  -21.7117   21.0572 H   0  0  0  0  0  0
  -29.4048  -21.8171   22.3531 H   0  0  0  0  0  0
  -29.1250  -24.4670   21.8606 H   0  0  0  0  0  0
  -30.2682  -24.4159   20.5270 H   0  0  0  0  0  0
  -27.2719  -24.8663   20.2234 H   0  0  0  0  0  0
  -28.4128  -25.0136   18.8989 H   0  0  0  0  0  0
  -29.1568  -15.3739   21.4564 H   0  0  0  0  0  0
  -27.8524  -22.7518   20.7722 H   0  0  0  0  0  0
  -28.9297  -22.6461   19.5674 H   0  0  0  0  0  0
  1 25  1  0  0  0
  1 30  2  0  0  0
  1 83  1  0  0  0
  2  3  1  0  0  0
  2 25  1  0  0  0
  2 85  1  0  0  0
  2 86  1  0  0  0
  3  4  1  0  0  0
  3 87  1  0  0  0
  3 88  1  0  0  0
  4  5  1  0  0  0
  4 89  1  0  0  0
  4 90  1  0  0  0
  5  6  1  0  0  0
  5 26  1  0  0  0
  5 91  1  0  0  0
  6 25  1  0  0  0
  6 92  1  0  0  0
  6 93  1  0  0  0
  7  8  2  0  0  0
  7 26  1  0  0  0
  7 29  1  0  0  0
  8  9  1  0  0  0
  8 22  1  0  0  0
  9 10  1  0  0  0
  9 27  2  0  0  0
 10 11  2  0  0  0
 10 15  1  0  0  0
 11 12  1  0  0  0
 11 94  1  0  0  0
 12 13  2  0  0  0
 12 95  1  0  0  0
 13 14  1  0  0  0
 13 31  1  0  0  0
 14 15  2  0  0  0
 14 96  1  0  0  0
 15 97  1  0  0  0
 16 17  2  0  0  0
 16 21  1  0  0  0
 16 31  1  0  0  0
 17 18  1  0  0  0
 17 98  1  0  0  0
 18 19  2  0  0  0
 18 99  1  0  0  0
 19 20  1  0  0  0
 19 24  1  0  0  0
 20 21  2  0  0  0
 20100  1  0  0  0
 21 23  1  0  0  0
 22 28  1  0  0  0
 22 32  2  0  0  0
 26 27  1  0  0  0
 28101  1  0  0  0
 28102  1  0  0  0
 29103  1  0  0  0
 29104  1  0  0  0
 33 34  1  0  0  0
 33 66  1  0  0  0
 33 70  2  0  0  0
 34 36  1  0  0  0
 34 59  1  0  0  0
 34105  1  0  0  0
 35 44  2  0  0  0
 35 45  1  0  0  0
 35 68  1  0  0  0
 36 56  1  0  0  0
 36106  1  0  0  0
 37 39  1  0  0  0
 37 47  1  0  0  0
 37 66  1  0  0  0
 37107  1  0  0  0
 38 43  2  0  0  0
 38 46  1  0  0  0
 38 47  1  0  0  0
 39 64  1  0  0  0
 39 67  2  0  0  0
 40 52  1  0  0  0
 40 53  2  0  0  0
 40 58  1  0  0  0
 41108  1  0  0  0
 41109  1  0  0  0
 41110  1  0  0  0
 41 48  1  0  0  0
 42 43  1  0  0  0
 42 66  1  0  0  0
 42111  1  0  0  0
 42112  1  0  0  0
 43 44  1  0  0  0
 44113  1  0  0  0
 45 46  2  0  0  0
 45114  1  0  0  0
 46115  1  0  0  0
 47116  1  0  0  0
 47117  1  0  0  0
 48 56  1  0  0  0
 48 65  1  0  0  0
 48118  1  0  0  0
 49 50  1  0  0  0
 49 53  1  0  0  0
 49 64  1  0  0  0
 49119  1  0  0  0
 50 51  1  0  0  0
 50120  1  0  0  0
 50121  1  0  0  0
 51 52  1  0  0  0
 51122  1  0  0  0
 51123  1  0  0  0
 52124  1  0  0  0
 52125  1  0  0  0
 53 54  1  0  0  0
 54 55  2  0  0  0
 54126  1  0  0  0
 55 57  1  0  0  0
 55127  1  0  0  0
 56 69  2  0  0  0
 57 58  2  0  0  0
 57128  1  0  0  0
 58129  1  0  0  0
 59 60  1  0  0  0
 59 61  1  0  0  0
 59 62  1  0  0  0
 60130  1  0  0  0
 60131  1  0  0  0
 60132  1  0  0  0
 61133  1  0  0  0
 61134  1  0  0  0
 61135  1  0  0  0
 62136  1  0  0  0
 62137  1  0  0  0
 62138  1  0  0  0
 63 65  1  0  0  0
 63139  1  0  0  0
 63140  1  0  0  0
 63141  1  0  0  0
 64142  1  0  0  0
 65143  1  0  0  0
 68 82  1  0  0  0
 71 72  2  0  0  0
 71 73  1  0  0  0
 71144  1  0  0  0
 72 74  1  0  0  0
 72145  1  0  0  0
 73 75  2  0  0  0
 73146  1  0  0  0
 74 76  2  0  0  0
 74 77  1  0  0  0
 75 76  1  0  0  0
 75 78  1  0  0  0
 76 83  1  0  0  0
 77147  1  0  0  0
 77148  1  0  0  0
 77149  1  0  0  0
 78 79  1  0  0  0
 78150  1  0  0  0
 78151  1  0  0  0
 79 80  1  0  0  0
 79152  1  0  0  0
 79153  1  0  0  0
 80 84  1  0  0  0
 80154  1  0  0  0
 80155  1  0  0  0
 81 82  1  0  0  0
 81 84  1  0  0  0
 81156  1  0  0  0
 81157  1  0  0  0
 82158  1  0  0  0
 82159  1  0  0  0
 83160  1  0  0  0
 84161  1  0  0  0
 84162  1  0  0  0
M  CHG  1  84   1
M  ISO  4   1 100  68 101  82 101  83 100
M  END
> <chiral flag>
0

> <version>
0

> <s_m_source_file>
/data/baiqing/PycharmProjects/Reinvent-master-3.2/result/LINK_invent/BTK/process_docking_weight1_custom_sum_contain_oxygen_bond_distance_aromatic_linkinvent_7_9_3/rearranged_h_0129.sdf

> <i_m_source_file_index>
53

> <r_mmod_Potential_Energy-OPLS-2005>
58.3819351196289

> <r_mmod_Stretch_Energy-OPLS-2005>
53.7529487609863

> <r_mmod_Bend_Energy-OPLS-2005>
125.307952880859

> <r_mmod_Torsional_Energy-OPLS-2005>
421.75537109375

> <r_mmod_Improper_Torsional_Energy-OPLS-2005>
22.4250717163086

> <r_mmod_Van_der_Waal_Energy-OPLS-2005>
148.539398193359

> <r_mmod_Electrostatic_Energy-OPLS-2005>
-290.675048828125

> <r_mmod_Solvation_Energy-OPLS-2005>
-449.341278076172

> <b_mmod_Minimization_Converged-OPLS-2005>
0

> <r_mmod_RMS_Derivative-OPLS-2005>
8.3381519317627

$$$$
53
                    3D
 Structure written by MMmdl.
162171  0  0  1  0            999 V2000
  -30.5326  -14.5912   20.4936 C   0  0  0  0  0  0
  -30.4247  -12.3659   19.3944 C   0  0  0  0  0  0
  -29.4733  -12.5373   18.1840 C   0  0  0  0  0  0
  -27.9904  -12.4016   18.5953 C   0  0  0  0  0  0
  -27.6445  -13.1999   19.8772 C   0  0  2  0  0  0
  -28.6949  -12.9476   20.9817 C   0  0  0  0  0  0
  -25.2540  -13.8118   20.5773 C   0  0  0  0  0  0
  -24.1762  -13.0413   20.9211 C   0  0  0  0  0  0
  -24.6296  -11.6875   20.8735 C   0  0  0  0  0  0
  -23.8980  -10.4283   21.0442 C   0  0  0  0  0  0
  -24.3563   -9.4221   21.9202 C   0  0  0  0  0  0
  -23.6268   -8.2236   22.0736 C   0  0  0  0  0  0
  -22.4260   -8.0260   21.3519 C   0  0  0  0  0  0
  -21.9872   -9.0229   20.4639 C   0  0  0  0  0  0
  -22.7167  -10.2143   20.3090 C   0  0  0  0  0  0
  -21.6856   -6.0738   22.5253 C   0  0  0  0  0  0
  -21.4018   -6.5644   23.8198 C   0  0  0  0  0  0
  -21.3659   -5.6799   24.9144 C   0  0  0  0  0  0
  -21.6069   -4.3063   24.7215 C   0  0  0  0  0  0
  -21.8807   -3.8152   23.4329 C   0  0  0  0  0  0
  -21.9196   -4.6956   22.3398 C   0  0  0  0  0  0
  -22.7811  -13.5236   21.1866 C   0  0  0  0  0  0
  -22.1675   -4.2143   21.0976 F   0  0  0  0  0  0
  -21.5629   -3.4556   25.7730 F   0  0  0  0  0  0
  -30.0071  -13.3317   20.4288 N   0  0  0  0  0  0
  -26.2901  -12.9243   20.3391 N   0  0  0  0  0  0
  -25.9209  -11.6411   20.5736 N   0  0  0  0  0  0
  -22.0490  -12.8201   22.0443 N   0  0  0  0  0  0
  -25.4379  -15.1835   20.4358 N   0  0  0  0  0  0
  -31.6897  -14.8431   20.1262 O   0  0  0  0  0  0
  -21.6637   -6.8855   21.4212 O   0  0  0  0  0  0
  -22.3511  -14.5570   20.6763 O   0  0  0  0  0  0
  -24.6298  -31.8624   23.2027 C   0  0  0  0  0  0
  -25.9152  -32.4787   23.8335 C   0  0  1  0  0  0
  -27.1993  -27.3198   20.0857 C   0  0  0  0  0  0
  -25.5999  -33.8595   24.2287 N   0  0  0  0  0  0
  -23.4163  -30.4856   21.5543 C   0  0  2  0  0  0
  -24.8493  -28.9352   20.1264 C   0  0  0  0  0  0
  -22.7469  -29.4636   22.5068 C   0  0  0  0  0  0
  -18.0335  -28.1304   22.8504 C   0  0  0  0  0  0
  -24.1481  -36.7244   23.2603 C   0  0  0  0  0  0
  -25.9542  -30.7952   21.3618 C   0  0  0  0  0  0
  -26.0241  -29.4198   20.7073 C   0  0  0  0  0  0
  -27.2049  -28.6215   20.6819 C   0  0  0  0  0  0
  -25.9888  -26.8743   19.5173 C   0  0  0  0  0  0
  -24.8296  -27.6679   19.5303 C   0  0  0  0  0  0
  -23.6194  -29.8124   20.1741 C   0  0  0  0  0  0
  -25.4101  -36.3051   24.0313 C   0  0  1  0  0  0
  -20.5932  -28.3613   23.1318 C   0  0  2  0  0  0
  -20.6841  -26.9378   22.5375 C   0  0  0  0  0  0
  -19.5833  -26.6417   21.5144 C   0  0  0  0  0  0
  -18.1999  -26.7877   22.1584 C   0  0  0  0  0  0
  -19.1589  -28.8766   23.2891 C   0  0  0  0  0  0
  -18.9505  -30.1417   23.8823 C   0  0  0  0  0  0
  -17.6517  -30.6561   24.0497 C   0  0  0  0  0  0
  -25.9068  -34.9444   23.5073 C   0  0  0  0  0  0
  -16.5382  -29.9026   23.6343 C   0  0  0  0  0  0
  -16.7320  -28.6436   23.0392 C   0  0  0  0  0  0
  -26.4492  -31.6615   25.0734 C   0  0  0  0  0  0
  -25.3699  -31.3890   26.1489 C   0  0  0  0  0  0
  -27.0290  -30.2999   24.6201 C   0  0  0  0  0  0
  -27.6054  -32.4326   25.7534 C   0  0  0  0  0  0
  -27.5559  -37.1772   24.8448 C   0  0  0  0  0  0
  -21.4197  -29.2980   22.3705 N   0  0  0  0  0  0
  -26.4242  -37.3761   23.9424 N   0  0  0  0  0  0
  -24.6865  -31.0658   22.0946 N   0  0  0  0  0  0
  -23.4215  -28.8233   23.3157 O   0  0  0  0  0  0
  -28.3285  -26.4926   20.1001 O   0  0  0  0  0  0
  -26.5599  -34.8917   22.4630 O   0  0  0  0  0  0
  -23.5453  -32.1400   23.7389 O   0  0  0  0  0  0
  -29.3291  -19.2315   21.5269 C   0  0  0  0  0  0
  -28.1207  -18.7969   19.4953 C   0  0  0  0  0  0
  -29.8006  -17.8935   21.5654 C   0  0  0  0  0  0
  -28.5881  -17.4397   19.5388 C   0  0  0  0  0  0
  -28.4599  -19.7371   20.5190 C   0  0  0  0  0  0
  -29.4255  -16.9523   20.5856 C   0  0  0  0  0  0
  -28.1231  -23.8929   20.2997 C   0  0  0  0  0  0
  -25.4446  -22.0494   20.6665 C   0  0  0  0  0  0
  -26.5050  -21.2378   21.4366 C   0  0  0  0  0  0
  -25.6030  -21.8027   19.1609 C   0  0  0  0  0  0
  -27.8886  -21.2127   20.7084 C   0  0  2  0  0  0
  -28.0079  -22.4127   19.6403 C   0  0  1  0  0  0
  -28.3358  -25.1786   19.4102 C   0  0  0  0  0  0
  -29.6116  -15.5360   20.8509 N   0  0  0  0  0  0
  -26.8674  -22.4022   18.6673 N   0  3  0  0  0  0
  -28.0788  -24.0539   21.5273 O   0  0  0  0  0  0
  -31.4571  -12.5282   19.0791 H   0  0  0  0  0  0
  -30.3738  -11.3438   19.7745 H   0  0  0  0  0  0
  -29.6956  -11.8121   17.4006 H   0  0  0  0  0  0
  -29.6285  -13.5225   17.7408 H   0  0  0  0  0  0
  -27.7721  -11.3444   18.7413 H   0  0  0  0  0  0
  -27.3463  -12.7391   17.7807 H   0  0  0  0  0  0
  -27.6770  -14.2526   19.6031 H   0  0  0  0  0  0
  -28.6956  -11.8931   21.2712 H   0  0  0  0  0  0
  -28.4517  -13.4961   21.8903 H   0  0  0  0  0  0
  -25.2711   -9.5721   22.4754 H   0  0  0  0  0  0
  -24.0005   -7.4638   22.7440 H   0  0  0  0  0  0
  -21.0797   -8.8739   19.8944 H   0  0  0  0  0  0
  -22.3590  -10.9686   19.6224 H   0  0  0  0  0  0
  -21.2014   -7.6159   23.9681 H   0  0  0  0  0  0
  -21.1489   -6.0540   25.9047 H   0  0  0  0  0  0
  -22.0582   -2.7606   23.2824 H   0  0  0  0  0  0
  -22.4142  -11.9879   22.4824 H   0  0  0  0  0  0
  -21.1109  -13.1189   22.2682 H   0  0  0  0  0  0
  -24.6935  -15.8500   20.6053 H   0  0  0  0  0  0
  -26.2968  -15.6261   20.1326 H   0  0  0  0  0  0
  -26.7247  -32.5432   23.1114 H   0  0  0  0  0  0
  -25.0239  -33.9730   25.0486 H   0  0  0  0  0  0
  -22.7022  -31.3000   21.4107 H   0  0  0  0  0  0
  -23.3747  -35.9567   23.3274 H   0  0  0  0  0  0
  -24.3519  -36.8852   22.1998 H   0  0  0  0  0  0
  -23.7228  -37.6450   23.6618 H   0  0  0  0  0  0
  -26.0654  -31.5516   20.5826 H   0  0  0  0  0  0
  -26.8422  -30.8556   21.9803 H   0  0  0  0  0  0
  -28.1145  -28.9942   21.1307 H   0  0  0  0  0  0
  -25.8806  -25.8958   19.0810 H   0  0  0  0  0  0
  -23.9173  -27.2782   19.1024 H   0  0  0  0  0  0
  -23.7274  -30.5742   19.4027 H   0  0  0  0  0  0
  -22.7436  -29.2271   19.8914 H   0  0  0  0  0  0
  -25.1262  -36.1862   25.0790 H   0  0  0  0  0  0
  -21.0037  -28.3124   24.1432 H   0  0  0  0  0  0
  -20.5749  -26.2218   23.3542 H   0  0  0  0  0  0
  -21.6725  -26.7477   22.1178 H   0  0  0  0  0  0
  -19.7025  -25.6387   21.0994 H   0  0  0  0  0  0
  -19.6743  -27.3387   20.6766 H   0  0  0  0  0  0
  -17.4274  -26.6681   21.3977 H   0  0  0  0  0  0
  -18.0431  -25.9939   22.8931 H   0  0  0  0  0  0
  -19.8015  -30.7223   24.2084 H   0  0  0  0  0  0
  -17.5090  -31.6257   24.5060 H   0  0  0  0  0  0
  -15.5378  -30.2893   23.7715 H   0  0  0  0  0  0
  -15.8722  -28.0764   22.7118 H   0  0  0  0  0  0
  -24.5882  -30.7185   25.7914 H   0  0  0  0  0  0
  -24.8889  -32.3121   26.4721 H   0  0  0  0  0  0
  -25.7998  -30.9259   27.0380 H   0  0  0  0  0  0
  -26.2902  -29.6871   24.1033 H   0  0  0  0  0  0
  -27.3740  -29.7156   25.4746 H   0  0  0  0  0  0
  -27.8866  -30.4247   23.9587 H   0  0  0  0  0  0
  -27.2664  -33.3639   26.2099 H   0  0  0  0  0  0
  -28.3908  -32.6876   25.0406 H   0  0  0  0  0  0
  -28.0673  -31.8455   26.5487 H   0  0  0  0  0  0
  -28.2554  -38.0101   24.7511 H   0  0  0  0  0  0
  -28.1092  -36.2620   24.6250 H   0  0  0  0  0  0
  -27.2282  -37.1387   25.8856 H   0  0  0  0  0  0
  -20.9392  -29.8531   21.6771 H   0  0  0  0  0  0
  -26.0121  -38.2807   24.1527 H   0  0  0  0  0  0
  -29.6093  -19.8654   22.3537 H   0  0  0  0  0  0
  -27.4664  -19.0777   18.6776 H   0  0  0  0  0  0
  -30.3967  -17.5788   22.4113 H   0  0  0  0  0  0
  -28.2475  -16.7442   18.7796 H   0  0  0  0  0  0
  -25.5695  -23.1150   20.8652 H   0  0  0  0  0  0
  -24.4335  -21.8222   21.0026 H   0  0  0  0  0  0
  -26.1325  -20.2225   21.5952 H   0  0  0  0  0  0
  -26.6035  -21.6667   22.4361 H   0  0  0  0  0  0
  -24.7464  -22.1779   18.5978 H   0  0  0  0  0  0
  -25.6321  -20.7302   18.9781 H   0  0  0  0  0  0
  -28.5856  -21.5611   21.4691 H   0  0  0  0  0  0
  -28.9225  -22.2605   19.0683 H   0  0  0  0  0  0
  -27.6797  -25.1550   18.5440 H   0  0  0  0  0  0
  -29.3330  -25.0732   18.9873 H   0  0  0  0  0  0
  -28.7722  -15.0878   21.1863 H   0  0  0  0  0  0
  -26.6663  -23.3333   18.3493 H   0  0  0  0  0  0
  -27.1462  -21.8859   17.8473 H   0  0  0  0  0  0
  1 25  1  0  0  0
  1 30  2  0  0  0
  1 84  1  0  0  0
  2  3  1  0  0  0
  2 25  1  0  0  0
  2 87  1  0  0  0
  2 88  1  0  0  0
  3  4  1  0  0  0
  3 89  1  0  0  0
  3 90  1  0  0  0
  4  5  1  0  0  0
  4 91  1  0  0  0
  4 92  1  0  0  0
  5  6  1  0  0  0
  5 26  1  0  0  0
  5 93  1  0  0  0
  6 25  1  0  0  0
  6 94  1  0  0  0
  6 95  1  0  0  0
  7  8  2  0  0  0
  7 26  1  0  0  0
  7 29  1  0  0  0
  8  9  1  0  0  0
  8 22  1  0  0  0
  9 10  1  0  0  0
  9 27  2  0  0  0
 10 11  2  0  0  0
 10 15  1  0  0  0
 11 12  1  0  0  0
 11 96  1  0  0  0
 12 13  2  0  0  0
 12 97  1  0  0  0
 13 14  1  0  0  0
 13 31  1  0  0  0
 14 15  2  0  0  0
 14 98  1  0  0  0
 15 99  1  0  0  0
 16 17  2  0  0  0
 16 21  1  0  0  0
 16 31  1  0  0  0
 17 18  1  0  0  0
 17100  1  0  0  0
 18 19  2  0  0  0
 18101  1  0  0  0
 19 20  1  0  0  0
 19 24  1  0  0  0
 20 21  2  0  0  0
 20102  1  0  0  0
 21 23  1  0  0  0
 22 28  1  0  0  0
 22 32  2  0  0  0
 26 27  1  0  0  0
 28103  1  0  0  0
 28104  1  0  0  0
 29105  1  0  0  0
 29106  1  0  0  0
 33 34  1  0  0  0
 33 66  1  0  0  0
 33 70  2  0  0  0
 34 36  1  0  0  0
 34 59  1  0  0  0
 34107  1  0  0  0
 35 44  2  0  0  0
 35 45  1  0  0  0
 35 68  1  0  0  0
 36 56  1  0  0  0
 36108  1  0  0  0
 37 39  1  0  0  0
 37 47  1  0  0  0
 37 66  1  0  0  0
 37109  1  0  0  0
 38 43  2  0  0  0
 38 46  1  0  0  0
 38 47  1  0  0  0
 39 64  1  0  0  0
 39 67  2  0  0  0
 40 52  1  0  0  0
 40 53  2  0  0  0
 40 58  1  0  0  0
 41110  1  0  0  0
 41111  1  0  0  0
 41112  1  0  0  0
 41 48  1  0  0  0
 42 43  1  0  0  0
 42 66  1  0  0  0
 42113  1  0  0  0
 42114  1  0  0  0
 43 44  1  0  0  0
 44115  1  0  0  0
 45 46  2  0  0  0
 45116  1  0  0  0
 46117  1  0  0  0
 47118  1  0  0  0
 47119  1  0  0  0
 48 56  1  0  0  0
 48 65  1  0  0  0
 48120  1  0  0  0
 49 50  1  0  0  0
 49 53  1  0  0  0
 49 64  1  0  0  0
 49121  1  0  0  0
 50 51  1  0  0  0
 50122  1  0  0  0
 50123  1  0  0  0
 51 52  1  0  0  0
 51124  1  0  0  0
 51125  1  0  0  0
 52126  1  0  0  0
 52127  1  0  0  0
 53 54  1  0  0  0
 54 55  2  0  0  0
 54128  1  0  0  0
 55 57  1  0  0  0
 55129  1  0  0  0
 56 69  2  0  0  0
 57 58  2  0  0  0
 57130  1  0  0  0
 58131  1  0  0  0
 59 60  1  0  0  0
 59 61  1  0  0  0
 59 62  1  0  0  0
 60132  1  0  0  0
 60133  1  0  0  0
 60134  1  0  0  0
 61135  1  0  0  0
 61136  1  0  0  0
 61137  1  0  0  0
 62138  1  0  0  0
 62139  1  0  0  0
 62140  1  0  0  0
 63 65  1  0  0  0
 63141  1  0  0  0
 63142  1  0  0  0
 63143  1  0  0  0
 64144  1  0  0  0
 65145  1  0  0  0
 68 83  1  0  0  0
 71 73  2  0  0  0
 71 75  1  0  0  0
 71146  1  0  0  0
 72 74  1  0  0  0
 72 75  2  0  0  0
 72147  1  0  0  0
 73 76  1  0  0  0
 73148  1  0  0  0
 74 76  2  0  0  0
 74149  1  0  0  0
 75 81  1  0  0  0
 76 84  1  0  0  0
 77 83  1  0  0  0
 77 86  2  0  0  0
 77 82  1  0  0  0
 78 79  1  0  0  0
 78 80  1  0  0  0
 78150  1  0  0  0
 78151  1  0  0  0
 79 81  1  0  0  0
 79152  1  0  0  0
 79153  1  0  0  0
 80 85  1  0  0  0
 80154  1  0  0  0
 80155  1  0  0  0
 81 82  1  0  0  0
 81156  1  0  0  0
 82 85  1  0  0  0
 82157  1  0  0  0
 83158  1  0  0  0
 83159  1  0  0  0
 84160  1  0  0  0
 85161  1  0  0  0
 85162  1  0  0  0
M  CHG  1  85   1
M  ISO  4   1 100  68 101  83 101  84 100
M  END
> <chiral flag>
0

> <version>
0

> <s_m_source_file>
/data/baiqing/PycharmProjects/Reinvent-master-3.2/result/LINK_invent/BTK/process_docking_weight1_custom_sum_contain_oxygen_bond_distance_aromatic_linkinvent_7_9_3/rearranged_h_0129.sdf

> <i_m_source_file_index>
54

> <r_mmod_Potential_Energy-OPLS-2005>
-33.8087539672852

> <r_mmod_Stretch_Energy-OPLS-2005>
92.2358932495117

> <r_mmod_Bend_Energy-OPLS-2005>
168.478652954102

> <r_mmod_Torsional_Energy-OPLS-2005>
288.852020263672

> <r_mmod_Improper_Torsional_Energy-OPLS-2005>
7.75709915161133

> <r_mmod_Van_der_Waal_Energy-OPLS-2005>
154.523727416992

> <r_mmod_Electrostatic_Energy-OPLS-2005>
-267.480712890625

> <r_mmod_Solvation_Energy-OPLS-2005>
-523.848999023438

> <b_mmod_Minimization_Converged-OPLS-2005>
0

> <r_mmod_RMS_Derivative-OPLS-2005>
8.96700668334961

$$$$
54
                    3D
 Structure written by MMmdl.
160168  0  0  1  0            999 V2000
  -30.5439  -14.8464   20.4836 C   0  0  0  0  0  0
  -30.4520  -12.5343   19.4660 C   0  0  0  0  0  0
  -29.5165  -12.5174   18.2353 C   0  0  0  0  0  0
  -28.0446  -12.3237   18.6546 C   0  0  0  0  0  0
  -27.6378  -13.2311   19.8455 C   0  0  2  0  0  0
  -28.6860  -13.1852   20.9760 C   0  0  0  0  0  0
  -25.2513  -13.8179   20.5708 C   0  0  0  0  0  0
  -24.1815  -13.0424   20.9228 C   0  0  0  0  0  0
  -24.6397  -11.6903   20.8746 C   0  0  0  0  0  0
  -23.9072  -10.4288   21.0403 C   0  0  0  0  0  0
  -24.3617   -9.4203   21.9182 C   0  0  0  0  0  0
  -23.6290   -8.2240   22.0754 C   0  0  0  0  0  0
  -22.4271   -8.0276   21.3545 C   0  0  0  0  0  0
  -21.9913   -9.0250   20.4649 C   0  0  0  0  0  0
  -22.7242  -10.2127   20.3058 C   0  0  0  0  0  0
  -21.6853   -6.0726   22.5274 C   0  0  0  0  0  0
  -21.4009   -6.5632   23.8203 C   0  0  0  0  0  0
  -21.3657   -5.6789   24.9166 C   0  0  0  0  0  0
  -21.6050   -4.3052   24.7220 C   0  0  0  0  0  0
  -21.8826   -3.8139   23.4340 C   0  0  0  0  0  0
  -21.9194   -4.6956   22.3394 C   0  0  0  0  0  0
  -22.7843  -13.5214   21.1866 C   0  0  0  0  0  0
  -22.1667   -4.2140   21.0975 F   0  0  0  0  0  0
  -21.5627   -3.4542   25.7734 F   0  0  0  0  0  0
  -29.9648  -13.5940   20.3827 N   0  0  0  0  0  0
  -26.2924  -12.9377   20.3264 N   0  0  0  0  0  0
  -25.9324  -11.6523   20.5739 N   0  0  0  0  0  0
  -22.0485  -12.8203   22.0413 N   0  0  0  0  0  0
  -25.4193  -15.1911   20.4108 N   0  0  0  0  0  0
  -31.7514  -14.9691   20.2596 O   0  0  0  0  0  0
  -21.6643   -6.8865   21.4232 O   0  0  0  0  0  0
  -22.3547  -14.5522   20.6703 O   0  0  0  0  0  0
  -24.6390  -31.8487   23.1930 C   0  0  0  0  0  0
  -25.9176  -32.4725   23.8296 C   0  0  1  0  0  0
  -27.2138  -27.1788   20.1804 C   0  0  0  0  0  0
  -25.5942  -33.8526   24.2226 N   0  0  0  0  0  0
  -23.4389  -30.4662   21.5428 C   0  0  2  0  0  0
  -24.8838  -28.8857   20.1355 C   0  0  0  0  0  0
  -22.7547  -29.4552   22.4954 C   0  0  0  0  0  0
  -18.0292  -28.1399   22.8463 C   0  0  0  0  0  0
  -24.1483  -36.7256   23.2646 C   0  0  0  0  0  0
  -25.9892  -30.7338   21.3840 C   0  0  0  0  0  0
  -26.0584  -29.3408   20.7483 C   0  0  0  0  0  0
  -27.2293  -28.5043   20.7516 C   0  0  0  0  0  0
  -26.0162  -26.7993   19.5432 C   0  0  0  0  0  0
  -24.8684  -27.6222   19.5228 C   0  0  0  0  0  0
  -23.6636  -29.7920   20.1646 C   0  0  0  0  0  0
  -25.4112  -36.3055   24.0334 C   0  0  1  0  0  0
  -20.5902  -28.3689   23.1288 C   0  0  2  0  0  0
  -20.6796  -26.9410   22.5418 C   0  0  0  0  0  0
  -19.5768  -26.6378   21.5228 C   0  0  0  0  0  0
  -18.1940  -26.7940   22.1620 C   0  0  0  0  0  0
  -19.1549  -28.8865   23.2861 C   0  0  0  0  0  0
  -18.9471  -30.1481   23.8862 C   0  0  0  0  0  0
  -17.6469  -30.6589   24.0557 C   0  0  0  0  0  0
  -25.9059  -34.9426   23.5083 C   0  0  0  0  0  0
  -16.5360  -29.9078   23.6342 C   0  0  0  0  0  0
  -16.7283  -28.6511   23.0336 C   0  0  0  0  0  0
  -26.4512  -31.6574   25.0709 C   0  0  0  0  0  0
  -25.3700  -31.3749   26.1408 C   0  0  0  0  0  0
  -27.0372  -30.2987   24.6232 C   0  0  0  0  0  0
  -27.6058  -32.4329   25.7479 C   0  0  0  0  0  0
  -27.5569  -37.1784   24.8475 C   0  0  0  0  0  0
  -21.4254  -29.3020   22.3673 N   0  0  0  0  0  0
  -26.4277  -37.3764   23.9418 N   0  0  0  0  0  0
  -24.7092  -31.0369   22.0961 N   0  0  0  0  0  0
  -23.4207  -28.8115   23.3102 O   0  0  0  0  0  0
  -28.3247  -26.3124   19.9912 O   0  0  0  0  0  0
  -26.5644  -34.8916   22.4662 O   0  0  0  0  0  0
  -23.5513  -32.1341   23.7172 O   0  0  0  0  0  0
  -26.8054  -22.1403   22.2580 C   0  0  0  0  0  0
  -27.1556  -23.4235   21.8072 C   0  0  0  0  0  0
  -27.4493  -20.9777   21.7717 C   0  0  0  0  0  0
  -28.2007  -23.5979   20.8903 C   0  0  0  0  0  0
  -28.5011  -21.1193   20.8224 C   0  0  0  0  0  0
  -27.3365  -19.3895   23.7576 C   0  0  0  0  0  0
  -28.7867  -25.1134   20.8108 C   0  0  0  0  0  0
  -30.0253  -18.8228   20.4370 C   0  0  0  0  0  0
  -29.8104  -17.3877   21.2346 C   0  0  0  0  0  0
  -26.9430  -19.6152   22.2845 C   0  0  1  0  0  0
  -28.8449  -22.4266   20.4082 N   0  0  0  0  0  0
  -28.9808  -19.9187   20.1322 N   0  0  0  0  0  0
  -29.6944  -15.9531   20.6441 N   0  0  0  0  0  0
  -25.4954  -19.4099   22.0718 N   0  3  0  0  0  0
  -31.4798  -12.7167   19.1482 H   0  0  0  0  0  0
  -30.4582  -11.5639   19.9653 H   0  0  0  0  0  0
  -29.8153  -11.7275   17.5447 H   0  0  0  0  0  0
  -29.6213  -13.4540   17.6855 H   0  0  0  0  0  0
  -27.9179  -11.2764   18.9313 H   0  0  0  0  0  0
  -27.3840  -12.4977   17.8046 H   0  0  0  0  0  0
  -27.6204  -14.2480   19.4535 H   0  0  0  0  0  0
  -28.7579  -12.1844   21.4053 H   0  0  0  0  0  0
  -28.4044  -13.8482   21.7959 H   0  0  0  0  0  0
  -25.2758   -9.5673   22.4764 H   0  0  0  0  0  0
  -23.9990   -7.4633   22.7482 H   0  0  0  0  0  0
  -21.0840   -8.8772   19.8961 H   0  0  0  0  0  0
  -22.3696  -10.9666   19.6174 H   0  0  0  0  0  0
  -21.2004   -7.6144   23.9694 H   0  0  0  0  0  0
  -21.1473   -6.0524   25.9065 H   0  0  0  0  0  0
  -22.0609   -2.7603   23.2846 H   0  0  0  0  0  0
  -22.4103  -11.9859   22.4792 H   0  0  0  0  0  0
  -21.1100  -13.1231   22.2607 H   0  0  0  0  0  0
  -24.6187  -15.8118   20.4449 H   0  0  0  0  0  0
  -26.2261  -15.6106   19.9685 H   0  0  0  0  0  0
  -26.7223  -32.5339   23.1009 H   0  0  0  0  0  0
  -25.0114  -33.9663   25.0391 H   0  0  0  0  0  0
  -22.7397  -31.2904   21.3899 H   0  0  0  0  0  0
  -23.3759  -35.9574   23.3312 H   0  0  0  0  0  0
  -24.3576  -36.8871   22.2060 H   0  0  0  0  0  0
  -23.7220  -37.6450   23.6666 H   0  0  0  0  0  0
  -26.1345  -31.4774   20.5996 H   0  0  0  0  0  0
  -26.8660  -30.7925   22.0171 H   0  0  0  0  0  0
  -28.1425  -28.8696   21.2000 H   0  0  0  0  0  0
  -25.9698  -25.8417   19.0436 H   0  0  0  0  0  0
  -23.9727  -27.2679   19.0327 H   0  0  0  0  0  0
  -23.8093  -30.5640   19.4079 H   0  0  0  0  0  0
  -22.7773  -29.2378   19.8518 H   0  0  0  0  0  0
  -25.1297  -36.1895   25.0825 H   0  0  0  0  0  0
  -20.9959  -28.3248   24.1430 H   0  0  0  0  0  0
  -20.5726  -26.2289   23.3614 H   0  0  0  0  0  0
  -21.6661  -26.7461   22.1195 H   0  0  0  0  0  0
  -19.6936  -25.6294   21.1256 H   0  0  0  0  0  0
  -19.6720  -27.3194   20.6768 H   0  0  0  0  0  0
  -17.4225  -26.6688   21.4008 H   0  0  0  0  0  0
  -18.0316  -26.0102   22.9029 H   0  0  0  0  0  0
  -19.7953  -30.7302   24.2205 H   0  0  0  0  0  0
  -17.5028  -31.6272   24.5158 H   0  0  0  0  0  0
  -15.5361  -30.2962   23.7706 H   0  0  0  0  0  0
  -15.8688  -28.0833   22.7047 H   0  0  0  0  0  0
  -24.5901  -30.7070   25.7727 H   0  0  0  0  0  0
  -24.8854  -32.2929   26.4750 H   0  0  0  0  0  0
  -25.7982  -30.8978   27.0237 H   0  0  0  0  0  0
  -26.2976  -29.6720   24.1230 H   0  0  0  0  0  0
  -27.4036  -29.7258   25.4763 H   0  0  0  0  0  0
  -27.8858  -30.4274   23.9512 H   0  0  0  0  0  0
  -27.2678  -33.3668   26.1980 H   0  0  0  0  0  0
  -28.3893  -32.6823   25.0310 H   0  0  0  0  0  0
  -28.0693  -31.8497   26.5446 H   0  0  0  0  0  0
  -28.2593  -38.0077   24.7524 H   0  0  0  0  0  0
  -28.1064  -36.2610   24.6300 H   0  0  0  0  0  0
  -27.2303  -37.1437   25.8885 H   0  0  0  0  0  0
  -20.9471  -29.8700   21.6820 H   0  0  0  0  0  0
  -26.0154  -38.2835   24.1419 H   0  0  0  0  0  0
  -26.0207  -22.0536   22.9956 H   0  0  0  0  0  0
  -26.6753  -24.2890   22.2449 H   0  0  0  0  0  0
  -28.4182  -19.4441   23.8818 H   0  0  0  0  0  0
  -27.0208  -18.4064   24.1097 H   0  0  0  0  0  0
  -26.8931  -20.1367   24.4180 H   0  0  0  0  0  0
  -29.8315  -24.9863   20.5296 H   0  0  0  0  0  0
  -28.8383  -25.4680   21.8410 H   0  0  0  0  0  0
  -30.4991  -18.5809   19.4850 H   0  0  0  0  0  0
  -30.8026  -19.3591   20.9846 H   0  0  0  0  0  0
  -29.0279  -17.4921   21.9818 H   0  0  0  0  0  0
  -30.7042  -17.2990   21.8556 H   0  0  0  0  0  0
  -27.3887  -18.8221   21.6943 H   0  0  0  0  0  0
  -29.1081  -20.1635   19.1551 H   0  0  0  0  0  0
  -28.7325  -15.6531   20.6102 H   0  0  0  0  0  0
  -24.9315  -20.0319   22.6222 H   0  0  0  0  0  0
  -25.2473  -18.4685   22.3240 H   0  0  0  0  0  0
  -25.2598  -19.5309   21.1023 H   0  0  0  0  0  0
  1 25  1  0  0  0
  1 30  2  0  0  0
  1 83  1  0  0  0
  2  3  1  0  0  0
  2 25  1  0  0  0
  2 85  1  0  0  0
  2 86  1  0  0  0
  3  4  1  0  0  0
  3 87  1  0  0  0
  3 88  1  0  0  0
  4  5  1  0  0  0
  4 89  1  0  0  0
  4 90  1  0  0  0
  5  6  1  0  0  0
  5 26  1  0  0  0
  5 91  1  0  0  0
  6 25  1  0  0  0
  6 92  1  0  0  0
  6 93  1  0  0  0
  7  8  2  0  0  0
  7 26  1  0  0  0
  7 29  1  0  0  0
  8  9  1  0  0  0
  8 22  1  0  0  0
  9 10  1  0  0  0
  9 27  2  0  0  0
 10 11  2  0  0  0
 10 15  1  0  0  0
 11 12  1  0  0  0
 11 94  1  0  0  0
 12 13  2  0  0  0
 12 95  1  0  0  0
 13 14  1  0  0  0
 13 31  1  0  0  0
 14 15  2  0  0  0
 14 96  1  0  0  0
 15 97  1  0  0  0
 16 17  2  0  0  0
 16 21  1  0  0  0
 16 31  1  0  0  0
 17 18  1  0  0  0
 17 98  1  0  0  0
 18 19  2  0  0  0
 18 99  1  0  0  0
 19 20  1  0  0  0
 19 24  1  0  0  0
 20 21  2  0  0  0
 20100  1  0  0  0
 21 23  1  0  0  0
 22 28  1  0  0  0
 22 32  2  0  0  0
 26 27  1  0  0  0
 28101  1  0  0  0
 28102  1  0  0  0
 29103  1  0  0  0
 29104  1  0  0  0
 33 34  1  0  0  0
 33 66  1  0  0  0
 33 70  2  0  0  0
 34 36  1  0  0  0
 34 59  1  0  0  0
 34105  1  0  0  0
 35 44  2  0  0  0
 35 45  1  0  0  0
 35 68  1  0  0  0
 36 56  1  0  0  0
 36106  1  0  0  0
 37 39  1  0  0  0
 37 47  1  0  0  0
 37 66  1  0  0  0
 37107  1  0  0  0
 38 43  2  0  0  0
 38 46  1  0  0  0
 38 47  1  0  0  0
 39 64  1  0  0  0
 39 67  2  0  0  0
 40 52  1  0  0  0
 40 53  2  0  0  0
 40 58  1  0  0  0
 41108  1  0  0  0
 41109  1  0  0  0
 41110  1  0  0  0
 41 48  1  0  0  0
 42 43  1  0  0  0
 42 66  1  0  0  0
 42111  1  0  0  0
 42112  1  0  0  0
 43 44  1  0  0  0
 44113  1  0  0  0
 45 46  2  0  0  0
 45114  1  0  0  0
 46115  1  0  0  0
 47116  1  0  0  0
 47117  1  0  0  0
 48 56  1  0  0  0
 48 65  1  0  0  0
 48118  1  0  0  0
 49 50  1  0  0  0
 49 53  1  0  0  0
 49 64  1  0  0  0
 49119  1  0  0  0
 50 51  1  0  0  0
 50120  1  0  0  0
 50121  1  0  0  0
 51 52  1  0  0  0
 51122  1  0  0  0
 51123  1  0  0  0
 52124  1  0  0  0
 52125  1  0  0  0
 53 54  1  0  0  0
 54 55  2  0  0  0
 54126  1  0  0  0
 55 57  1  0  0  0
 55127  1  0  0  0
 56 69  2  0  0  0
 57 58  2  0  0  0
 57128  1  0  0  0
 58129  1  0  0  0
 59 60  1  0  0  0
 59 61  1  0  0  0
 59 62  1  0  0  0
 60130  1  0  0  0
 60131  1  0  0  0
 60132  1  0  0  0
 61133  1  0  0  0
 61134  1  0  0  0
 61135  1  0  0  0
 62136  1  0  0  0
 62137  1  0  0  0
 62138  1  0  0  0
 63 65  1  0  0  0
 63139  1  0  0  0
 63140  1  0  0  0
 63141  1  0  0  0
 64142  1  0  0  0
 65143  1  0  0  0
 68 77  1  0  0  0
 71 72  2  0  0  0
 71 73  1  0  0  0
 71144  1  0  0  0
 72 74  1  0  0  0
 72145  1  0  0  0
 73 75  2  0  0  0
 73 80  1  0  0  0
 74 77  1  0  0  0
 74 81  2  0  0  0
 75 81  1  0  0  0
 75 82  1  0  0  0
 76146  1  0  0  0
 76147  1  0  0  0
 76148  1  0  0  0
 76 80  1  0  0  0
 77149  1  0  0  0
 77150  1  0  0  0
 78 79  1  0  0  0
 78 82  1  0  0  0
 78151  1  0  0  0
 78152  1  0  0  0
 79 83  1  0  0  0
 79153  1  0  0  0
 79154  1  0  0  0
 80 84  1  0  0  0
 80155  1  0  0  0
 82156  1  0  0  0
 83157  1  0  0  0
 84158  1  0  0  0
 84159  1  0  0  0
 84160  1  0  0  0
M  CHG  1  84   1
M  ISO  4   1 100  68 101  77 101  83 100
M  END
> <chiral flag>
0

> <version>
0

> <s_m_source_file>
/data/baiqing/PycharmProjects/Reinvent-master-3.2/result/LINK_invent/BTK/process_docking_weight1_custom_sum_contain_oxygen_bond_distance_aromatic_linkinvent_7_9_3/rearranged_h_0129.sdf

> <i_m_source_file_index>
55

> <r_mmod_Potential_Energy-OPLS-2005>
39.9299278259277

> <r_mmod_Stretch_Energy-OPLS-2005>
181.451049804688

> <r_mmod_Bend_Energy-OPLS-2005>
335.291259765625

> <r_mmod_Torsional_Energy-OPLS-2005>
278.720520019531

> <r_mmod_Improper_Torsional_Energy-OPLS-2005>
16.0121440887451

> <r_mmod_Van_der_Waal_Energy-OPLS-2005>
126.806739807129

> <r_mmod_Electrostatic_Energy-OPLS-2005>
-506.281402587891

> <r_mmod_Solvation_Energy-OPLS-2005>
-524.193176269531

> <b_mmod_Minimization_Converged-OPLS-2005>
0

> <r_mmod_RMS_Derivative-OPLS-2005>
2.15560436248779

$$$$
55
                    3D
 Structure written by MMmdl.
158166  0  0  1  0            999 V2000
  -30.7055  -14.4757   20.5953 C   0  0  0  0  0  0
  -30.4237  -12.3241   19.4171 C   0  0  0  0  0  0
  -29.4961  -12.5289   18.2030 C   0  0  0  0  0  0
  -28.0170  -12.3828   18.6136 C   0  0  0  0  0  0
  -27.6629  -13.2111   19.8780 C   0  0  2  0  0  0
  -28.7052  -12.9891   20.9962 C   0  0  0  0  0  0
  -25.2591  -13.8159   20.5679 C   0  0  0  0  0  0
  -24.1842  -13.0431   20.9163 C   0  0  0  0  0  0
  -24.6397  -11.6901   20.8711 C   0  0  0  0  0  0
  -23.9057  -10.4288   21.0384 C   0  0  0  0  0  0
  -24.3619   -9.4209   21.9165 C   0  0  0  0  0  0
  -23.6298   -8.2246   22.0746 C   0  0  0  0  0  0
  -22.4274   -8.0286   21.3541 C   0  0  0  0  0  0
  -21.9894   -9.0253   20.4636 C   0  0  0  0  0  0
  -22.7222  -10.2134   20.3039 C   0  0  0  0  0  0
  -21.6858   -6.0724   22.5261 C   0  0  0  0  0  0
  -21.4022   -6.5629   23.8194 C   0  0  0  0  0  0
  -21.3670   -5.6784   24.9159 C   0  0  0  0  0  0
  -21.6055   -4.3047   24.7206 C   0  0  0  0  0  0
  -21.8827   -3.8138   23.4328 C   0  0  0  0  0  0
  -21.9195   -4.6951   22.3383 C   0  0  0  0  0  0
  -22.7865  -13.5233   21.1835 C   0  0  0  0  0  0
  -22.1670   -4.2136   21.0959 F   0  0  0  0  0  0
  -21.5630   -3.4536   25.7724 F   0  0  0  0  0  0
  -30.0319  -13.3038   20.4412 N   0  0  0  0  0  0
  -26.3035  -12.9342   20.3370 N   0  0  0  0  0  0
  -25.9333  -11.6493   20.5746 N   0  0  0  0  0  0
  -22.0526  -12.8225   22.0411 N   0  0  0  0  0  0
  -25.4321  -15.1877   20.4078 N   0  0  0  0  0  0
  -31.8272  -14.6671   20.1207 O   0  0  0  0  0  0
  -21.6655   -6.8872   21.4226 O   0  0  0  0  0  0
  -22.3535  -14.5537   20.6679 O   0  0  0  0  0  0
  -24.6159  -31.8676   23.2075 C   0  0  0  0  0  0
  -25.9055  -32.4815   23.8375 C   0  0  1  0  0  0
  -27.2326  -27.4291   20.0980 C   0  0  0  0  0  0
  -25.5923  -33.8616   24.2317 N   0  0  0  0  0  0
  -23.4021  -30.4902   21.5492 C   0  0  2  0  0  0
  -24.8462  -28.9487   20.1185 C   0  0  0  0  0  0
  -22.7404  -29.4673   22.5005 C   0  0  0  0  0  0
  -18.0272  -28.1374   22.8493 C   0  0  0  0  0  0
  -24.1491  -36.7308   23.2639 C   0  0  0  0  0  0
  -25.9304  -30.8323   21.3557 C   0  0  0  0  0  0
  -26.0071  -29.4640   20.7092 C   0  0  0  0  0  0
  -27.2044  -28.7139   20.6877 C   0  0  0  0  0  0
  -26.0550  -26.9242   19.5072 C   0  0  0  0  0  0
  -24.8657  -27.6788   19.5146 C   0  0  0  0  0  0
  -23.6085  -29.8167   20.1661 C   0  0  0  0  0  0
  -25.4111  -36.3104   24.0337 C   0  0  1  0  0  0
  -20.5860  -28.3666   23.1325 C   0  0  2  0  0  0
  -20.6765  -26.9407   22.5423 C   0  0  0  0  0  0
  -19.5752  -26.6390   21.5215 C   0  0  0  0  0  0
  -18.1924  -26.7927   22.1618 C   0  0  0  0  0  0
  -19.1514  -28.8836   23.2908 C   0  0  0  0  0  0
  -18.9454  -30.1439   23.8922 C   0  0  0  0  0  0
  -17.6454  -30.6587   24.0570 C   0  0  0  0  0  0
  -25.9043  -34.9473   23.5120 C   0  0  0  0  0  0
  -16.5346  -29.9089   23.6330 C   0  0  0  0  0  0
  -16.7257  -28.6502   23.0358 C   0  0  0  0  0  0
  -26.4476  -31.6590   25.0701 C   0  0  0  0  0  0
  -25.3746  -31.3688   26.1454 C   0  0  0  0  0  0
  -27.0288  -30.3040   24.6037 C   0  0  0  0  0  0
  -27.6062  -32.4290   25.7463 C   0  0  0  0  0  0
  -27.5580  -37.1806   24.8466 C   0  0  0  0  0  0
  -21.4130  -29.3037   22.3739 N   0  0  0  0  0  0
  -26.4290  -37.3795   23.9415 N   0  0  0  0  0  0
  -24.6689  -31.0778   22.0965 N   0  0  0  0  0  0
  -23.4176  -28.8217   23.3050 O   0  0  0  0  0  0
  -28.4098  -26.7108   20.0729 O   0  0  0  0  0  0
  -26.5596  -34.8931   22.4674 O   0  0  0  0  0  0
  -23.5353  -32.1419   23.7474 O   0  0  0  0  0  0
  -31.0664  -18.8080   18.3256 C   0  0  0  0  0  0
  -30.0660  -19.7829   18.4855 C   0  0  0  0  0  0
  -31.2084  -17.8215   19.3148 C   0  0  0  0  0  0
  -29.2452  -19.7399   19.6279 C   0  0  0  0  0  0
  -30.3575  -17.8383   20.4317 C   0  0  0  0  0  0
  -28.1026  -20.7499   19.7912 C   0  0  0  0  0  0
  -30.5264  -16.7988   21.5438 C   0  0  0  0  0  0
  -28.4206  -22.0581   20.5681 C   0  0  0  0  0  0
  -28.6075  -24.3162   19.3854 C   0  0  0  0  0  0
  -28.3693  -25.3429   20.5254 C   0  0  0  0  0  0
  -29.3932  -18.7849   20.5859 N   0  0  0  0  0  0
  -30.0323  -15.4529   21.2240 N   0  0  0  0  0  0
  -29.2571  -23.0390   19.8210 N   0  3  0  0  0  0
  -31.4697  -12.4240   19.1194 H   0  0  0  0  0  0
  -30.3221  -11.3113   19.8077 H   0  0  0  0  0  0
  -29.7406  -11.8169   17.4145 H   0  0  0  0  0  0
  -29.6598  -13.5209   17.7781 H   0  0  0  0  0  0
  -27.8244  -11.3243   18.7940 H   0  0  0  0  0  0
  -27.3687  -12.6743   17.7864 H   0  0  0  0  0  0
  -27.7073  -14.2613   19.5876 H   0  0  0  0  0  0
  -28.6882  -11.9504   21.3296 H   0  0  0  0  0  0
  -28.4626  -13.5808   21.8806 H   0  0  0  0  0  0
  -25.2773   -9.5689   22.4730 H   0  0  0  0  0  0
  -24.0012   -7.4630   22.7460 H   0  0  0  0  0  0
  -21.0822   -8.8756   19.8942 H   0  0  0  0  0  0
  -22.3668  -10.9671   19.6145 H   0  0  0  0  0  0
  -21.2028   -7.6138   23.9687 H   0  0  0  0  0  0
  -21.1495   -6.0520   25.9061 H   0  0  0  0  0  0
  -22.0605   -2.7597   23.2825 H   0  0  0  0  0  0
  -22.4171  -11.9889   22.4781 H   0  0  0  0  0  0
  -21.1144  -13.1236   22.2630 H   0  0  0  0  0  0
  -24.6668  -15.8457   20.5095 H   0  0  0  0  0  0
  -26.2908  -15.6255   20.0964 H   0  0  0  0  0  0
  -26.7123  -32.5513   23.1137 H   0  0  0  0  0  0
  -25.0115  -33.9780   25.0487 H   0  0  0  0  0  0
  -22.6915  -31.3080   21.4075 H   0  0  0  0  0  0
  -23.3742  -35.9655   23.3313 H   0  0  0  0  0  0
  -24.3581  -36.8901   22.2051 H   0  0  0  0  0  0
  -23.7247  -37.6523   23.6633 H   0  0  0  0  0  0
  -26.0357  -31.5929   20.5806 H   0  0  0  0  0  0
  -26.8226  -30.8926   21.9670 H   0  0  0  0  0  0
  -28.1044  -29.1126   21.1344 H   0  0  0  0  0  0
  -26.0531  -25.9569   19.0249 H   0  0  0  0  0  0
  -23.9735  -27.2772   19.0541 H   0  0  0  0  0  0
  -23.7147  -30.5884   19.4028 H   0  0  0  0  0  0
  -22.7322  -29.2353   19.8726 H   0  0  0  0  0  0
  -25.1280  -36.1980   25.0826 H   0  0  0  0  0  0
  -20.9943  -28.3231   24.1451 H   0  0  0  0  0  0
  -20.5678  -26.2274   23.3606 H   0  0  0  0  0  0
  -21.6637  -26.7469   22.1213 H   0  0  0  0  0  0
  -19.6926  -25.6307   21.1237 H   0  0  0  0  0  0
  -19.6696  -27.3211   20.6755 H   0  0  0  0  0  0
  -17.4202  -26.6689   21.4010 H   0  0  0  0  0  0
  -18.0313  -26.0055   22.8995 H   0  0  0  0  0  0
  -19.7930  -30.7243   24.2306 H   0  0  0  0  0  0
  -17.5018  -31.6274   24.5161 H   0  0  0  0  0  0
  -15.5349  -30.3009   23.7640 H   0  0  0  0  0  0
  -15.8654  -28.0830   22.7073 H   0  0  0  0  0  0
  -24.5937  -30.7013   25.7795 H   0  0  0  0  0  0
  -24.8917  -32.2831   26.4915 H   0  0  0  0  0  0
  -25.8115  -30.8862   27.0204 H   0  0  0  0  0  0
  -26.2805  -29.6824   24.1109 H   0  0  0  0  0  0
  -27.4087  -29.7259   25.4469 H   0  0  0  0  0  0
  -27.8627  -30.4366   23.9140 H   0  0  0  0  0  0
  -27.2701  -33.3587   26.2064 H   0  0  0  0  0  0
  -28.3860  -32.6849   25.0277 H   0  0  0  0  0  0
  -28.0731  -31.8387   26.5356 H   0  0  0  0  0  0
  -28.2604  -38.0104   24.7518 H   0  0  0  0  0  0
  -28.1067  -36.2630   24.6274 H   0  0  0  0  0  0
  -27.2297  -37.1435   25.8871 H   0  0  0  0  0  0
  -20.9298  -29.8736   21.6938 H   0  0  0  0  0  0
  -26.0179  -38.2876   24.1414 H   0  0  0  0  0  0
  -31.7112  -18.8143   17.4577 H   0  0  0  0  0  0
  -29.9223  -20.5299   17.7166 H   0  0  0  0  0  0
  -31.9753  -17.0650   19.2213 H   0  0  0  0  0  0
  -27.2865  -20.2374   20.3022 H   0  0  0  0  0  0
  -27.7044  -20.9981   18.8066 H   0  0  0  0  0  0
  -30.0113  -17.1470   22.4397 H   0  0  0  0  0  0
  -31.5828  -16.7473   21.8152 H   0  0  0  0  0  0
  -28.9215  -21.8027   21.5019 H   0  0  0  0  0  0
  -27.4833  -22.5346   20.8591 H   0  0  0  0  0  0
  -29.2822  -24.7715   18.6591 H   0  0  0  0  0  0
  -27.6813  -24.1120   18.8484 H   0  0  0  0  0  0
  -29.1709  -25.2582   21.2598 H   0  0  0  0  0  0
  -27.4517  -25.1114   21.0681 H   0  0  0  0  0  0
  -29.0981  -15.2394   21.5344 H   0  0  0  0  0  0
  -29.6151  -22.5777   18.9998 H   0  0  0  0  0  0
  -30.0631  -23.2601   20.3865 H   0  0  0  0  0  0
  1 25  1  0  0  0
  1 30  2  0  0  0
  1 82  1  0  0  0
  2  3  1  0  0  0
  2 25  1  0  0  0
  2 84  1  0  0  0
  2 85  1  0  0  0
  3  4  1  0  0  0
  3 86  1  0  0  0
  3 87  1  0  0  0
  4  5  1  0  0  0
  4 88  1  0  0  0
  4 89  1  0  0  0
  5  6  1  0  0  0
  5 26  1  0  0  0
  5 90  1  0  0  0
  6 25  1  0  0  0
  6 91  1  0  0  0
  6 92  1  0  0  0
  7  8  2  0  0  0
  7 26  1  0  0  0
  7 29  1  0  0  0
  8  9  1  0  0  0
  8 22  1  0  0  0
  9 10  1  0  0  0
  9 27  2  0  0  0
 10 11  2  0  0  0
 10 15  1  0  0  0
 11 12  1  0  0  0
 11 93  1  0  0  0
 12 13  2  0  0  0
 12 94  1  0  0  0
 13 14  1  0  0  0
 13 31  1  0  0  0
 14 15  2  0  0  0
 14 95  1  0  0  0
 15 96  1  0  0  0
 16 17  2  0  0  0
 16 21  1  0  0  0
 16 31  1  0  0  0
 17 18  1  0  0  0
 17 97  1  0  0  0
 18 19  2  0  0  0
 18 98  1  0  0  0
 19 20  1  0  0  0
 19 24  1  0  0  0
 20 21  2  0  0  0
 20 99  1  0  0  0
 21 23  1  0  0  0
 22 28  1  0  0  0
 22 32  2  0  0  0
 26 27  1  0  0  0
 28100  1  0  0  0
 28101  1  0  0  0
 29102  1  0  0  0
 29103  1  0  0  0
 33 34  1  0  0  0
 33 66  1  0  0  0
 33 70  2  0  0  0
 34 36  1  0  0  0
 34 59  1  0  0  0
 34104  1  0  0  0
 35 44  2  0  0  0
 35 45  1  0  0  0
 35 68  1  0  0  0
 36 56  1  0  0  0
 36105  1  0  0  0
 37 39  1  0  0  0
 37 47  1  0  0  0
 37 66  1  0  0  0
 37106  1  0  0  0
 38 43  2  0  0  0
 38 46  1  0  0  0
 38 47  1  0  0  0
 39 64  1  0  0  0
 39 67  2  0  0  0
 40 52  1  0  0  0
 40 53  2  0  0  0
 40 58  1  0  0  0
 41107  1  0  0  0
 41108  1  0  0  0
 41109  1  0  0  0
 41 48  1  0  0  0
 42 43  1  0  0  0
 42 66  1  0  0  0
 42110  1  0  0  0
 42111  1  0  0  0
 43 44  1  0  0  0
 44112  1  0  0  0
 45 46  2  0  0  0
 45113  1  0  0  0
 46114  1  0  0  0
 47115  1  0  0  0
 47116  1  0  0  0
 48 56  1  0  0  0
 48 65  1  0  0  0
 48117  1  0  0  0
 49 50  1  0  0  0
 49 53  1  0  0  0
 49 64  1  0  0  0
 49118  1  0  0  0
 50 51  1  0  0  0
 50119  1  0  0  0
 50120  1  0  0  0
 51 52  1  0  0  0
 51121  1  0  0  0
 51122  1  0  0  0
 52123  1  0  0  0
 52124  1  0  0  0
 53 54  1  0  0  0
 54 55  2  0  0  0
 54125  1  0  0  0
 55 57  1  0  0  0
 55126  1  0  0  0
 56 69  2  0  0  0
 57 58  2  0  0  0
 57127  1  0  0  0
 58128  1  0  0  0
 59 60  1  0  0  0
 59 61  1  0  0  0
 59 62  1  0  0  0
 60129  1  0  0  0
 60130  1  0  0  0
 60131  1  0  0  0
 61132  1  0  0  0
 61133  1  0  0  0
 61134  1  0  0  0
 62135  1  0  0  0
 62136  1  0  0  0
 62137  1  0  0  0
 63 65  1  0  0  0
 63138  1  0  0  0
 63139  1  0  0  0
 63140  1  0  0  0
 64141  1  0  0  0
 65142  1  0  0  0
 68 80  1  0  0  0
 71 72  2  0  0  0
 71 73  1  0  0  0
 71143  1  0  0  0
 72 74  1  0  0  0
 72144  1  0  0  0
 73 75  2  0  0  0
 73145  1  0  0  0
 74 76  1  0  0  0
 74 81  2  0  0  0
 75 77  1  0  0  0
 75 81  1  0  0  0
 76 78  1  0  0  0
 76146  1  0  0  0
 76147  1  0  0  0
 77 82  1  0  0  0
 77148  1  0  0  0
 77149  1  0  0  0
 78 83  1  0  0  0
 78150  1  0  0  0
 78151  1  0  0  0
 79 80  1  0  0  0
 79 83  1  0  0  0
 79152  1  0  0  0
 79153  1  0  0  0
 80154  1  0  0  0
 80155  1  0  0  0
 82156  1  0  0  0
 83157  1  0  0  0
 83158  1  0  0  0
M  CHG  1  83   1
M  ISO  4   1 100  68 101  80 101  82 100
M  END
> <chiral flag>
0

> <version>
0

> <s_m_source_file>
/data/baiqing/PycharmProjects/Reinvent-master-3.2/result/LINK_invent/BTK/process_docking_weight1_custom_sum_contain_oxygen_bond_distance_aromatic_linkinvent_7_9_3/rearranged_h_0129.sdf

> <i_m_source_file_index>
56

> <r_mmod_Potential_Energy-OPLS-2005>
-475.163696289062

> <r_mmod_Stretch_Energy-OPLS-2005>
38.1546669006348

> <r_mmod_Bend_Energy-OPLS-2005>
99.035400390625

> <r_mmod_Torsional_Energy-OPLS-2005>
227.196655273438

> <r_mmod_Improper_Torsional_Energy-OPLS-2005>
2.41603493690491

> <r_mmod_Van_der_Waal_Energy-OPLS-2005>
145.409851074219

> <r_mmod_Electrostatic_Energy-OPLS-2005>
-534.220642089844

> <r_mmod_Solvation_Energy-OPLS-2005>
-465.467712402344

> <b_mmod_Minimization_Converged-OPLS-2005>
0

> <r_mmod_RMS_Derivative-OPLS-2005>
1.76875734329224

$$$$
56
                    3D
 Structure written by MMmdl.
168177  0  0  1  0            999 V2000
  -30.5798  -14.8401   20.4291 C   0  0  0  0  0  0
  -30.4306  -12.5139   19.4893 C   0  0  0  0  0  0
  -29.5133  -12.5141   18.2462 C   0  0  0  0  0  0
  -28.0419  -12.3228   18.6606 C   0  0  0  0  0  0
  -27.6333  -13.2401   19.8444 C   0  0  2  0  0  0
  -28.6763  -13.2244   20.9822 C   0  0  0  0  0  0
  -25.2470  -13.8208   20.5708 C   0  0  0  0  0  0
  -24.1775  -13.0438   20.9226 C   0  0  0  0  0  0
  -24.6385  -11.6924   20.8759 C   0  0  0  0  0  0
  -23.9071  -10.4296   21.0415 C   0  0  0  0  0  0
  -24.3625   -9.4209   21.9187 C   0  0  0  0  0  0
  -23.6301   -8.2244   22.0759 C   0  0  0  0  0  0
  -22.4281   -8.0284   21.3554 C   0  0  0  0  0  0
  -21.9918   -9.0254   20.4650 C   0  0  0  0  0  0
  -22.7248  -10.2133   20.3058 C   0  0  0  0  0  0
  -21.6854   -6.0737   22.5282 C   0  0  0  0  0  0
  -21.4016   -6.5642   23.8214 C   0  0  0  0  0  0
  -21.3660   -5.6797   24.9177 C   0  0  0  0  0  0
  -21.6043   -4.3060   24.7228 C   0  0  0  0  0  0
  -21.8819   -3.8149   23.4351 C   0  0  0  0  0  0
  -21.9195   -4.6963   22.3407 C   0  0  0  0  0  0
  -22.7798  -13.5214   21.1877 C   0  0  0  0  0  0
  -22.1663   -4.2148   21.0987 F   0  0  0  0  0  0
  -21.5624   -3.4547   25.7745 F   0  0  0  0  0  0
  -29.9645  -13.6004   20.3901 N   0  0  0  0  0  0
  -26.2894  -12.9428   20.3267 N   0  0  0  0  0  0
  -25.9314  -11.6564   20.5747 N   0  0  0  0  0  0
  -22.0453  -12.8196   22.0430 N   0  0  0  0  0  0
  -25.4133  -15.1934   20.4123 N   0  0  0  0  0  0
  -31.7762  -14.9106   20.1353 O   0  0  0  0  0  0
  -21.6645   -6.8881   21.4245 O   0  0  0  0  0  0
  -22.3482  -14.5521   20.6728 O   0  0  0  0  0  0
  -24.6369  -31.8490   23.1913 C   0  0  0  0  0  0
  -25.9167  -32.4719   23.8286 C   0  0  1  0  0  0
  -27.2201  -27.1996   20.1466 C   0  0  0  0  0  0
  -25.5937  -33.8523   24.2206 N   0  0  0  0  0  0
  -23.4366  -30.4678   21.5365 C   0  0  2  0  0  0
  -24.8840  -28.8984   20.1124 C   0  0  0  0  0  0
  -22.7528  -29.4568   22.4893 C   0  0  0  0  0  0
  -18.0296  -28.1391   22.8482 C   0  0  0  0  0  0
  -24.1490  -36.7266   23.2642 C   0  0  0  0  0  0
  -25.9860  -30.7440   21.3774 C   0  0  0  0  0  0
  -26.0584  -29.3596   20.7207 C   0  0  0  0  0  0
  -27.2299  -28.5263   20.7162 C   0  0  0  0  0  0
  -26.0210  -26.8137   19.5129 C   0  0  0  0  0  0
  -24.8742  -27.6371   19.4943 C   0  0  0  0  0  0
  -23.6575  -29.7937   20.1560 C   0  0  0  0  0  0
  -25.4121  -36.3046   24.0317 C   0  0  1  0  0  0
  -20.5901  -28.3707   23.1257 C   0  0  2  0  0  0
  -20.6779  -26.9417   22.5409 C   0  0  0  0  0  0
  -19.5755  -26.6381   21.5213 C   0  0  0  0  0  0
  -18.1935  -26.7932   22.1624 C   0  0  0  0  0  0
  -19.1550  -28.8868   23.2862 C   0  0  0  0  0  0
  -18.9469  -30.1467   23.8881 C   0  0  0  0  0  0
  -17.6467  -30.6590   24.0560 C   0  0  0  0  0  0
  -25.9069  -34.9420   23.5071 C   0  0  0  0  0  0
  -16.5358  -29.9083   23.6335 C   0  0  0  0  0  0
  -16.7281  -28.6501   23.0357 C   0  0  0  0  0  0
  -26.4511  -31.6572   25.0709 C   0  0  0  0  0  0
  -25.3711  -31.3740   26.1414 C   0  0  0  0  0  0
  -27.0372  -30.2979   24.6245 C   0  0  0  0  0  0
  -27.6049  -32.4331   25.7493 C   0  0  0  0  0  0
  -27.5578  -37.1787   24.8463 C   0  0  0  0  0  0
  -21.4228  -29.3042   22.3638 N   0  0  0  0  0  0
  -26.4287  -37.3756   23.9409 N   0  0  0  0  0  0
  -24.7061  -31.0401   22.0911 N   0  0  0  0  0  0
  -23.4200  -28.8122   23.3025 O   0  0  0  0  0  0
  -28.3153  -26.2885   20.1869 O   0  0  0  0  0  0
  -26.5654  -34.8911   22.4649 O   0  0  0  0  0  0
  -23.5505  -32.1335   23.7177 O   0  0  0  0  0  0
  -32.4097  -20.1551   18.2674 C   0  0  0  0  0  0
  -32.5219  -19.8339   19.7120 C   0  0  0  0  0  0
  -33.6434  -19.5732   17.6301 C   0  0  0  0  0  0
  -28.3346  -22.2491   19.2218 C   0  0  0  0  0  0
  -29.2172  -22.5317   21.5195 C   0  0  0  0  0  0
  -28.2830  -23.8541   19.0472 C   0  0  0  0  0  0
  -29.1792  -24.1259   21.3473 C   0  0  0  0  0  0
  -34.3304  -18.8826   18.8307 C   0  0  0  0  0  0
  -29.4609  -21.7390   20.1886 C   0  0  1  0  0  0
  -28.1488  -24.7699   20.3364 C   0  0  1  0  0  0
  -31.4633  -20.3083   20.7099 C   0  0  0  0  0  0
  -30.2798  -17.4858   20.3166 C   0  0  0  0  0  0
  -29.3810  -18.8895   20.5131 C   0  0  0  0  0  0
  -33.5424  -19.1525   20.0325 N   0  0  0  0  0  0
  -29.8223  -16.0180   20.5661 N   0  0  0  0  0  0
  -30.0635  -20.2663   20.1733 N   0  3  1  0  0  0
  -31.4784  -20.7170   17.6823 O   0  0  0  0  0  0
  -31.4705  -12.6465   19.1862 H   0  0  0  0  0  0
  -30.3903  -11.5503   19.9999 H   0  0  0  0  0  0
  -29.8132  -11.7269   17.5529 H   0  0  0  0  0  0
  -29.6232  -13.4559   17.7063 H   0  0  0  0  0  0
  -27.9149  -11.2773   18.9435 H   0  0  0  0  0  0
  -27.3831  -12.4886   17.8075 H   0  0  0  0  0  0
  -27.6110  -14.2517   19.4391 H   0  0  0  0  0  0
  -28.7347  -12.2390   21.4471 H   0  0  0  0  0  0
  -28.3973  -13.9232   21.7726 H   0  0  0  0  0  0
  -25.2770   -9.5686   22.4760 H   0  0  0  0  0  0
  -24.0012   -7.4635   22.7480 H   0  0  0  0  0  0
  -21.0848   -8.8772   19.8953 H   0  0  0  0  0  0
  -22.3705  -10.9671   19.6167 H   0  0  0  0  0  0
  -21.2008   -7.6149   23.9716 H   0  0  0  0  0  0
  -21.1480   -6.0529   25.9079 H   0  0  0  0  0  0
  -22.0595   -2.7610   23.2857 H   0  0  0  0  0  0
  -22.4090  -11.9865   22.4812 H   0  0  0  0  0  0
  -21.1065  -13.1203   22.2641 H   0  0  0  0  0  0
  -24.6397  -15.8410   20.5181 H   0  0  0  0  0  0
  -26.2494  -15.6342   20.0526 H   0  0  0  0  0  0
  -26.7234  -32.5346   23.1023 H   0  0  0  0  0  0
  -25.0060  -33.9646   25.0336 H   0  0  0  0  0  0
  -22.7360  -31.2917   21.3844 H   0  0  0  0  0  0
  -23.3759  -35.9590   23.3290 H   0  0  0  0  0  0
  -24.3575  -36.8912   22.2058 H   0  0  0  0  0  0
  -23.7238  -37.6454   23.6688 H   0  0  0  0  0  0
  -26.1318  -31.5016   20.6062 H   0  0  0  0  0  0
  -26.8604  -30.7945   22.0149 H   0  0  0  0  0  0
  -28.1314  -28.8775   21.1985 H   0  0  0  0  0  0
  -25.9553  -25.8450   19.0395 H   0  0  0  0  0  0
  -23.9752  -27.2785   19.0120 H   0  0  0  0  0  0
  -23.7861  -30.5659   19.3967 H   0  0  0  0  0  0
  -22.7738  -29.2300   19.8515 H   0  0  0  0  0  0
  -25.1308  -36.1879   25.0808 H   0  0  0  0  0  0
  -20.9992  -28.3293   24.1378 H   0  0  0  0  0  0
  -20.5673  -26.2319   23.3620 H   0  0  0  0  0  0
  -21.6649  -26.7429   22.1210 H   0  0  0  0  0  0
  -19.6916  -25.6289   21.1250 H   0  0  0  0  0  0
  -19.6690  -27.3183   20.6736 H   0  0  0  0  0  0
  -17.4203  -26.6679   21.4027 H   0  0  0  0  0  0
  -18.0332  -26.0076   22.9021 H   0  0  0  0  0  0
  -19.7944  -30.7289   24.2242 H   0  0  0  0  0  0
  -17.5019  -31.6269   24.5165 H   0  0  0  0  0  0
  -15.5358  -30.2982   23.7666 H   0  0  0  0  0  0
  -15.8681  -28.0815   22.7084 H   0  0  0  0  0  0
  -24.5895  -30.7084   25.7732 H   0  0  0  0  0  0
  -24.8894  -32.2914   26.4804 H   0  0  0  0  0  0
  -25.8008  -30.8935   27.0212 H   0  0  0  0  0  0
  -26.2974  -29.6710   24.1253 H   0  0  0  0  0  0
  -27.4009  -29.7265   25.4796 H   0  0  0  0  0  0
  -27.8869  -30.4234   23.9531 H   0  0  0  0  0  0
  -27.2646  -33.3642   26.2035 H   0  0  0  0  0  0
  -28.3880  -32.6874   25.0338 H   0  0  0  0  0  0
  -28.0697  -31.8481   26.5440 H   0  0  0  0  0  0
  -28.2582  -38.0097   24.7523 H   0  0  0  0  0  0
  -28.1088  -36.2627   24.6275 H   0  0  0  0  0  0
  -27.2296  -37.1417   25.8865 H   0  0  0  0  0  0
  -20.9429  -29.8751   21.6820 H   0  0  0  0  0  0
  -26.0157  -38.2823   24.1421 H   0  0  0  0  0  0
  -34.2593  -20.3663   17.2064 H   0  0  0  0  0  0
  -33.3779  -18.8668   16.8440 H   0  0  0  0  0  0
  -28.4749  -21.7998   18.2383 H   0  0  0  0  0  0
  -27.3672  -21.8914   19.5761 H   0  0  0  0  0  0
  -28.2824  -22.1953   21.9684 H   0  0  0  0  0  0
  -29.9928  -22.2843   22.2439 H   0  0  0  0  0  0
  -27.4716  -24.1004   18.3622 H   0  0  0  0  0  0
  -29.1921  -24.1569   18.5259 H   0  0  0  0  0  0
  -30.1778  -24.4489   21.0494 H   0  0  0  0  0  0
  -29.0191  -24.5747   22.3279 H   0  0  0  0  0  0
  -35.3503  -19.2527   18.9512 H   0  0  0  0  0  0
  -34.4029  -17.8067   18.6591 H   0  0  0  0  0  0
  -30.3056  -22.2724   19.7490 H   0  0  0  0  0  0
  -27.1582  -24.5945   20.7567 H   0  0  0  0  0  0
  -31.7565  -21.3127   21.0145 H   0  0  0  0  0  0
  -31.5324  -19.7255   21.6286 H   0  0  0  0  0  0
  -31.1728  -17.5754   20.9341 H   0  0  0  0  0  0
  -30.6445  -17.4890   19.2887 H   0  0  0  0  0  0
  -29.0409  -18.9416   21.5479 H   0  0  0  0  0  0
  -28.4757  -18.8164   19.9097 H   0  0  0  0  0  0
  -28.8430  -15.8837   20.7700 H   0  0  0  0  0  0
  -30.2281  -20.1714   19.1777 H   0  0  0  0  0  0
  1 25  1  0  0  0
  1 30  2  0  0  0
  1 85  1  0  0  0
  2  3  1  0  0  0
  2 25  1  0  0  0
  2 88  1  0  0  0
  2 89  1  0  0  0
  3  4  1  0  0  0
  3 90  1  0  0  0
  3 91  1  0  0  0
  4  5  1  0  0  0
  4 92  1  0  0  0
  4 93  1  0  0  0
  5  6  1  0  0  0
  5 26  1  0  0  0
  5 94  1  0  0  0
  6 25  1  0  0  0
  6 95  1  0  0  0
  6 96  1  0  0  0
  7  8  2  0  0  0
  7 26  1  0  0  0
  7 29  1  0  0  0
  8  9  1  0  0  0
  8 22  1  0  0  0
  9 10  1  0  0  0
  9 27  2  0  0  0
 10 11  2  0  0  0
 10 15  1  0  0  0
 11 12  1  0  0  0
 11 97  1  0  0  0
 12 13  2  0  0  0
 12 98  1  0  0  0
 13 14  1  0  0  0
 13 31  1  0  0  0
 14 15  2  0  0  0
 14 99  1  0  0  0
 15100  1  0  0  0
 16 17  2  0  0  0
 16 21  1  0  0  0
 16 31  1  0  0  0
 17 18  1  0  0  0
 17101  1  0  0  0
 18 19  2  0  0  0
 18102  1  0  0  0
 19 20  1  0  0  0
 19 24  1  0  0  0
 20 21  2  0  0  0
 20103  1  0  0  0
 21 23  1  0  0  0
 22 28  1  0  0  0
 22 32  2  0  0  0
 26 27  1  0  0  0
 28104  1  0  0  0
 28105  1  0  0  0
 29106  1  0  0  0
 29107  1  0  0  0
 33 34  1  0  0  0
 33 66  1  0  0  0
 33 70  2  0  0  0
 34 36  1  0  0  0
 34 59  1  0  0  0
 34108  1  0  0  0
 35 44  2  0  0  0
 35 45  1  0  0  0
 35 68  1  0  0  0
 36 56  1  0  0  0
 36109  1  0  0  0
 37 39  1  0  0  0
 37 47  1  0  0  0
 37 66  1  0  0  0
 37110  1  0  0  0
 38 43  2  0  0  0
 38 46  1  0  0  0
 38 47  1  0  0  0
 39 64  1  0  0  0
 39 67  2  0  0  0
 40 52  1  0  0  0
 40 53  2  0  0  0
 40 58  1  0  0  0
 41111  1  0  0  0
 41112  1  0  0  0
 41113  1  0  0  0
 41 48  1  0  0  0
 42 43  1  0  0  0
 42 66  1  0  0  0
 42114  1  0  0  0
 42115  1  0  0  0
 43 44  1  0  0  0
 44116  1  0  0  0
 45 46  2  0  0  0
 45117  1  0  0  0
 46118  1  0  0  0
 47119  1  0  0  0
 47120  1  0  0  0
 48 56  1  0  0  0
 48 65  1  0  0  0
 48121  1  0  0  0
 49 50  1  0  0  0
 49 53  1  0  0  0
 49 64  1  0  0  0
 49122  1  0  0  0
 50 51  1  0  0  0
 50123  1  0  0  0
 50124  1  0  0  0
 51 52  1  0  0  0
 51125  1  0  0  0
 51126  1  0  0  0
 52127  1  0  0  0
 52128  1  0  0  0
 53 54  1  0  0  0
 54 55  2  0  0  0
 54129  1  0  0  0
 55 57  1  0  0  0
 55130  1  0  0  0
 56 69  2  0  0  0
 57 58  2  0  0  0
 57131  1  0  0  0
 58132  1  0  0  0
 59 60  1  0  0  0
 59 61  1  0  0  0
 59 62  1  0  0  0
 60133  1  0  0  0
 60134  1  0  0  0
 60135  1  0  0  0
 61136  1  0  0  0
 61137  1  0  0  0
 61138  1  0  0  0
 62139  1  0  0  0
 62140  1  0  0  0
 62141  1  0  0  0
 63 65  1  0  0  0
 63142  1  0  0  0
 63143  1  0  0  0
 63144  1  0  0  0
 64145  1  0  0  0
 65146  1  0  0  0
 68 80  1  0  0  0
 71 72  1  0  0  0
 71 73  1  0  0  0
 71 87  2  0  0  0
 72 81  1  0  0  0
 72 84  2  0  0  0
 73 78  1  0  0  0
 73147  1  0  0  0
 73148  1  0  0  0
 74 76  1  0  0  0
 74149  1  0  0  0
 74150  1  0  0  0
 74 79  1  0  0  0
 75 77  1  0  0  0
 75 79  1  0  0  0
 75151  1  0  0  0
 75152  1  0  0  0
 76 80  1  0  0  0
 76153  1  0  0  0
 76154  1  0  0  0
 77 80  1  0  0  0
 77155  1  0  0  0
 77156  1  0  0  0
 78 84  1  0  0  0
 78157  1  0  0  0
 78158  1  0  0  0
 79 86  1  0  0  0
 79159  1  0  0  0
 80160  1  0  0  0
 81161  1  0  0  0
 81162  1  0  0  0
 81 86  1  0  0  0
 82 83  1  0  0  0
 82 85  1  0  0  0
 82163  1  0  0  0
 82164  1  0  0  0
 83 86  1  0  0  0
 83165  1  0  0  0
 83166  1  0  0  0
 85167  1  0  0  0
 86168  1  0  0  0
M  CHG  1  86   1
M  ISO  4   1 100  68 101  80 101  85 100
M  END
> <chiral flag>
0

> <version>
0

> <s_m_source_file>
/data/baiqing/PycharmProjects/Reinvent-master-3.2/result/LINK_invent/BTK/process_docking_weight1_custom_sum_contain_oxygen_bond_distance_aromatic_linkinvent_7_9_3/rearranged_h_0129.sdf

> <i_m_source_file_index>
57

> <r_mmod_Potential_Energy-OPLS-2005>
246.959945678711

> <r_mmod_Stretch_Energy-OPLS-2005>
190.110076904297

> <r_mmod_Bend_Energy-OPLS-2005>
307.801116943359

> <r_mmod_Torsional_Energy-OPLS-2005>
270.908966064453

> <r_mmod_Improper_Torsional_Energy-OPLS-2005>
5.47461891174316

> <r_mmod_Van_der_Waal_Energy-OPLS-2005>
113.766799926758

> <r_mmod_Electrostatic_Energy-OPLS-2005>
-304.887023925781

> <r_mmod_Solvation_Energy-OPLS-2005>
-464.069213867188

> <b_mmod_Minimization_Converged-OPLS-2005>
0

> <r_mmod_RMS_Derivative-OPLS-2005>
0.620863974094391

$$$$
57
                    3D
 Structure written by MMmdl.
164173  0  0  1  0            999 V2000
  -30.7509  -14.6682   20.4587 C   0  0  0  0  0  0
  -30.4285  -12.4210   19.4420 C   0  0  0  0  0  0
  -29.4994  -12.5232   18.2130 C   0  0  0  0  0  0
  -28.0229  -12.3841   18.6265 C   0  0  0  0  0  0
  -27.6519  -13.2581   19.8545 C   0  0  2  0  0  0
  -28.7202  -13.1764   20.9720 C   0  0  0  0  0  0
  -25.2527  -13.8298   20.5597 C   0  0  0  0  0  0
  -24.1815  -13.0453   20.9179 C   0  0  0  0  0  0
  -24.6449  -11.6949   20.8714 C   0  0  0  0  0  0
  -23.9061  -10.4327   21.0370 C   0  0  0  0  0  0
  -24.3596   -9.4245   21.9168 C   0  0  0  0  0  0
  -23.6277   -8.2270   22.0728 C   0  0  0  0  0  0
  -22.4249   -8.0307   21.3548 C   0  0  0  0  0  0
  -21.9892   -9.0253   20.4610 C   0  0  0  0  0  0
  -22.7205  -10.2153   20.3010 C   0  0  0  0  0  0
  -21.6871   -6.0722   22.5247 C   0  0  0  0  0  0
  -21.4077   -6.5624   23.8188 C   0  0  0  0  0  0
  -21.3644   -5.6777   24.9147 C   0  0  0  0  0  0
  -21.6006   -4.3036   24.7212 C   0  0  0  0  0  0
  -21.8819   -3.8116   23.4344 C   0  0  0  0  0  0
  -21.9215   -4.6940   22.3391 C   0  0  0  0  0  0
  -22.7835  -13.5259   21.1853 C   0  0  0  0  0  0
  -22.1647   -4.2122   21.0971 F   0  0  0  0  0  0
  -21.5601   -3.4486   25.7738 F   0  0  0  0  0  0
  -30.0262  -13.5003   20.3759 N   0  0  0  0  0  0
  -26.3008  -12.9525   20.3291 N   0  0  0  0  0  0
  -25.9410  -11.6635   20.5756 N   0  0  0  0  0  0
  -22.0407  -12.8231   22.0381 N   0  0  0  0  0  0
  -25.4113  -15.2002   20.3891 N   0  0  0  0  0  0
  -31.9333  -14.6912   20.1433 O   0  0  0  0  0  0
  -21.6636   -6.8861   21.4222 O   0  0  0  0  0  0
  -22.3484  -14.5554   20.6719 O   0  0  0  0  0  0
  -24.6267  -31.8549   23.1979 C   0  0  0  0  0  0
  -25.9106  -32.4729   23.8317 C   0  0  1  0  0  0
  -27.2516  -27.2910   20.1123 C   0  0  0  0  0  0
  -25.5927  -33.8532   24.2219 N   0  0  0  0  0  0
  -23.4206  -30.4686   21.5447 C   0  0  2  0  0  0
  -24.8694  -28.9058   20.1142 C   0  0  0  0  0  0
  -22.7499  -29.4590   22.5028 C   0  0  0  0  0  0
  -18.0217  -28.1523   22.8541 C   0  0  0  0  0  0
  -24.1478  -36.7275   23.2633 C   0  0  0  0  0  0
  -25.9601  -30.7692   21.3736 C   0  0  0  0  0  0
  -26.0357  -29.3944   20.7098 C   0  0  0  0  0  0
  -27.2225  -28.5997   20.6958 C   0  0  0  0  0  0
  -26.0598  -26.8544   19.4935 C   0  0  0  0  0  0
  -24.8905  -27.6465   19.4842 C   0  0  0  0  0  0
  -23.6269  -29.7720   20.1702 C   0  0  0  0  0  0
  -25.4121  -36.3058   24.0305 C   0  0  1  0  0  0
  -20.5813  -28.3785   23.1306 C   0  0  2  0  0  0
  -20.6727  -26.9531   22.5501 C   0  0  0  0  0  0
  -19.5644  -26.6480   21.5351 C   0  0  0  0  0  0
  -18.1824  -26.8020   22.1884 C   0  0  0  0  0  0
  -19.1476  -28.9021   23.2821 C   0  0  0  0  0  0
  -18.9417  -30.1642   23.8737 C   0  0  0  0  0  0
  -17.6415  -30.6749   24.0585 C   0  0  0  0  0  0
  -25.9078  -34.9443   23.5088 C   0  0  0  0  0  0
  -16.5275  -29.9271   23.6377 C   0  0  0  0  0  0
  -16.7183  -28.6662   23.0408 C   0  0  0  0  0  0
  -26.4424  -31.6586   25.0741 C   0  0  0  0  0  0
  -25.3613  -31.3763   26.1452 C   0  0  0  0  0  0
  -27.0276  -30.3018   24.6245 C   0  0  0  0  0  0
  -27.5972  -32.4327   25.7491 C   0  0  0  0  0  0
  -27.5585  -37.1800   24.8472 C   0  0  0  0  0  0
  -21.4235  -29.3001   22.3690 N   0  0  0  0  0  0
  -26.4306  -37.3750   23.9390 N   0  0  0  0  0  0
  -24.6868  -31.0550   22.0908 N   0  0  0  0  0  0
  -23.4216  -28.8265   23.3214 O   0  0  0  0  0  0
  -28.3930  -26.4672   20.1970 O   0  0  0  0  0  0
  -26.5665  -34.8926   22.4656 O   0  0  0  0  0  0
  -23.5434  -32.1342   23.7350 O   0  0  0  0  0  0
  -27.4918  -19.2554   21.5074 C   0  0  0  0  0  0
  -28.5517  -18.3339   21.5274 C   0  0  0  0  0  0
  -29.8454  -19.8830   20.1927 C   0  0  0  0  0  0
  -27.5234  -20.4026   20.6818 C   0  0  0  0  0  0
  -29.6867  -18.5345   20.7214 C   0  0  0  0  0  0
  -28.7781  -20.8774   20.2206 C   0  0  0  0  0  0
  -26.2277  -20.8375   20.1112 C   0  0  0  0  0  0
  -25.0482  -20.6737   20.7479 C   0  0  0  0  0  0
  -22.6004  -20.1983   21.2383 C   0  0  0  0  0  0
  -22.4653  -21.5208   20.5308 C   0  0  0  0  0  0
  -23.6490  -20.6280   20.2113 C   0  0  0  0  0  0
  -28.9444  -22.3310   19.6046 C   0  0  0  0  0  0
  -30.6475  -17.2843   20.4880 C   0  0  0  0  0  0
  -28.4272  -23.7174   20.3050 C   0  0  0  0  0  0
  -28.5844  -25.1398   19.5379 C   0  0  0  0  0  0
  -30.0969  -15.8667   20.6694 N   0  0  0  0  0  0
  -31.4729  -12.4924   19.1271 H   0  0  0  0  0  0
  -30.3202  -11.4512   19.9260 H   0  0  0  0  0  0
  -29.7566  -11.7595   17.4731 H   0  0  0  0  0  0
  -29.6461  -13.4869   17.7201 H   0  0  0  0  0  0
  -27.8397  -11.3327   18.8394 H   0  0  0  0  0  0
  -27.3827  -12.6393   17.7825 H   0  0  0  0  0  0
  -27.6404  -14.2848   19.4890 H   0  0  0  0  0  0
  -28.7557  -12.1663   21.3767 H   0  0  0  0  0  0
  -28.4814  -13.8370   21.8045 H   0  0  0  0  0  0
  -25.2747   -9.5684   22.4725 H   0  0  0  0  0  0
  -23.9937   -7.4654   22.7483 H   0  0  0  0  0  0
  -21.0780   -8.8726   19.8972 H   0  0  0  0  0  0
  -22.3611  -10.9643   19.6074 H   0  0  0  0  0  0
  -21.2124   -7.6123   23.9703 H   0  0  0  0  0  0
  -21.1434   -6.0488   25.9055 H   0  0  0  0  0  0
  -22.0640   -2.7566   23.2818 H   0  0  0  0  0  0
  -22.3959  -11.9894   22.4829 H   0  0  0  0  0  0
  -21.1049  -13.1333   22.2608 H   0  0  0  0  0  0
  -24.6148  -15.8280   20.3633 H   0  0  0  0  0  0
  -26.2566  -15.6341   20.0352 H   0  0  0  0  0  0
  -26.7174  -32.5335   23.1052 H   0  0  0  0  0  0
  -24.9979  -33.9597   25.0320 H   0  0  0  0  0  0
  -22.7109  -31.2840   21.4022 H   0  0  0  0  0  0
  -23.3756  -35.9596   23.3311 H   0  0  0  0  0  0
  -24.3540  -36.8909   22.2051 H   0  0  0  0  0  0
  -23.7236  -37.6475   23.6656 H   0  0  0  0  0  0
  -26.1002  -31.5293   20.6033 H   0  0  0  0  0  0
  -26.8309  -30.8044   22.0136 H   0  0  0  0  0  0
  -28.1215  -28.9979   21.1469 H   0  0  0  0  0  0
  -26.0191  -25.8835   19.0285 H   0  0  0  0  0  0
  -23.9944  -27.2760   19.0036 H   0  0  0  0  0  0
  -23.7145  -30.5319   19.3937 H   0  0  0  0  0  0
  -22.7524  -29.1717   19.8973 H   0  0  0  0  0  0
  -25.1311  -36.1870   25.0792 H   0  0  0  0  0  0
  -20.9880  -28.3530   24.1420 H   0  0  0  0  0  0
  -20.5556  -26.2454   23.3727 H   0  0  0  0  0  0
  -21.6592  -26.7549   22.1328 H   0  0  0  0  0  0
  -19.6631  -27.3300   20.6916 H   0  0  0  0  0  0
  -19.6847  -25.6420   21.1221 H   0  0  0  0  0  0
  -17.3898  -26.6772   21.4444 H   0  0  0  0  0  0
  -18.0390  -26.0415   22.9580 H   0  0  0  0  0  0
  -19.7914  -30.7429   24.2111 H   0  0  0  0  0  0
  -17.5000  -31.6399   24.5308 H   0  0  0  0  0  0
  -15.5282  -30.3146   23.7804 H   0  0  0  0  0  0
  -15.8567  -28.0947   22.7211 H   0  0  0  0  0  0
  -24.5796  -30.7077   25.7810 H   0  0  0  0  0  0
  -24.8741  -32.2927   26.4808 H   0  0  0  0  0  0
  -25.7878  -30.9003   27.0293 H   0  0  0  0  0  0
  -26.2889  -29.6812   24.1149 H   0  0  0  0  0  0
  -27.3857  -29.7206   25.4752 H   0  0  0  0  0  0
  -27.8786  -30.4323   23.9547 H   0  0  0  0  0  0
  -27.2612  -33.3662   26.2023 H   0  0  0  0  0  0
  -28.3801  -32.6862   25.0324 H   0  0  0  0  0  0
  -28.0631  -31.8488   26.5456 H   0  0  0  0  0  0
  -28.2628  -38.0079   24.7530 H   0  0  0  0  0  0
  -28.1064  -36.2623   24.6289 H   0  0  0  0  0  0
  -27.2302  -37.1463   25.8876 H   0  0  0  0  0  0
  -20.9591  -29.8315   21.6435 H   0  0  0  0  0  0
  -26.0208  -38.2836   24.1328 H   0  0  0  0  0  0
  -26.5867  -18.9665   22.0175 H   0  0  0  0  0  0
  -28.4167  -17.4264   22.0968 H   0  0  0  0  0  0
  -30.7750  -20.1526   19.7013 H   0  0  0  0  0  0
  -26.2855  -21.1235   19.0669 H   0  0  0  0  0  0
  -25.1053  -20.4539   21.8046 H   0  0  0  0  0  0
  -21.8997  -19.4100   20.9545 H   0  0  0  0  0  0
  -22.8223  -20.2439   22.3120 H   0  0  0  0  0  0
  -22.6561  -22.4645   21.0396 H   0  0  0  0  0  0
  -21.6037  -21.5149   19.8578 H   0  0  0  0  0  0
  -23.6089  -20.1306   19.2437 H   0  0  0  0  0  0
  -28.5184  -22.2246   18.6083 H   0  0  0  0  0  0
  -30.0236  -22.4405   19.5080 H   0  0  0  0  0  0
  -31.5553  -17.3691   21.0908 H   0  0  0  0  0  0
  -31.0010  -17.3819   19.4598 H   0  0  0  0  0  0
  -28.9488  -23.8202   21.2537 H   0  0  0  0  0  0
  -27.3742  -23.6195   20.5553 H   0  0  0  0  0  0
  -28.0502  -25.1182   18.5910 H   0  0  0  0  0  0
  -29.6295  -25.2021   19.2232 H   0  0  0  0  0  0
  -29.1147  -15.8010   20.8571 H   0  0  0  0  0  0
  1 25  1  0  0  0
  1 30  2  0  0  0
  1 86  1  0  0  0
  2  3  1  0  0  0
  2 25  1  0  0  0
  2 87  1  0  0  0
  2 88  1  0  0  0
  3  4  1  0  0  0
  3 89  1  0  0  0
  3 90  1  0  0  0
  4  5  1  0  0  0
  4 91  1  0  0  0
  4 92  1  0  0  0
  5  6  1  0  0  0
  5 26  1  0  0  0
  5 93  1  0  0  0
  6 25  1  0  0  0
  6 94  1  0  0  0
  6 95  1  0  0  0
  7  8  2  0  0  0
  7 26  1  0  0  0
  7 29  1  0  0  0
  8  9  1  0  0  0
  8 22  1  0  0  0
  9 10  1  0  0  0
  9 27  2  0  0  0
 10 11  2  0  0  0
 10 15  1  0  0  0
 11 12  1  0  0  0
 11 96  1  0  0  0
 12 13  2  0  0  0
 12 97  1  0  0  0
 13 14  1  0  0  0
 13 31  1  0  0  0
 14 15  2  0  0  0
 14 98  1  0  0  0
 15 99  1  0  0  0
 16 17  2  0  0  0
 16 21  1  0  0  0
 16 31  1  0  0  0
 17 18  1  0  0  0
 17100  1  0  0  0
 18 19  2  0  0  0
 18101  1  0  0  0
 19 20  1  0  0  0
 19 24  1  0  0  0
 20 21  2  0  0  0
 20102  1  0  0  0
 21 23  1  0  0  0
 22 28  1  0  0  0
 22 32  2  0  0  0
 26 27  1  0  0  0
 28103  1  0  0  0
 28104  1  0  0  0
 29105  1  0  0  0
 29106  1  0  0  0
 33 34  1  0  0  0
 33 66  1  0  0  0
 33 70  2  0  0  0
 34 36  1  0  0  0
 34 59  1  0  0  0
 34107  1  0  0  0
 35 44  2  0  0  0
 35 45  1  0  0  0
 35 68  1  0  0  0
 36 56  1  0  0  0
 36108  1  0  0  0
 37 39  1  0  0  0
 37 47  1  0  0  0
 37 66  1  0  0  0
 37109  1  0  0  0
 38 43  2  0  0  0
 38 46  1  0  0  0
 38 47  1  0  0  0
 39 64  1  0  0  0
 39 67  2  0  0  0
 40 52  1  0  0  0
 40 53  2  0  0  0
 40 58  1  0  0  0
 41110  1  0  0  0
 41111  1  0  0  0
 41112  1  0  0  0
 41 48  1  0  0  0
 42 43  1  0  0  0
 42 66  1  0  0  0
 42113  1  0  0  0
 42114  1  0  0  0
 43 44  1  0  0  0
 44115  1  0  0  0
 45 46  2  0  0  0
 45116  1  0  0  0
 46117  1  0  0  0
 47118  1  0  0  0
 47119  1  0  0  0
 48 56  1  0  0  0
 48 65  1  0  0  0
 48120  1  0  0  0
 49 50  1  0  0  0
 49 53  1  0  0  0
 49 64  1  0  0  0
 49121  1  0  0  0
 50 51  1  0  0  0
 50122  1  0  0  0
 50123  1  0  0  0
 51 52  1  0  0  0
 51124  1  0  0  0
 51125  1  0  0  0
 52126  1  0  0  0
 52127  1  0  0  0
 53 54  1  0  0  0
 54 55  2  0  0  0
 54128  1  0  0  0
 55 57  1  0  0  0
 55129  1  0  0  0
 56 69  2  0  0  0
 57 58  2  0  0  0
 57130  1  0  0  0
 58131  1  0  0  0
 59 60  1  0  0  0
 59 61  1  0  0  0
 59 62  1  0  0  0
 60132  1  0  0  0
 60133  1  0  0  0
 60134  1  0  0  0
 61135  1  0  0  0
 61136  1  0  0  0
 61137  1  0  0  0
 62138  1  0  0  0
 62139  1  0  0  0
 62140  1  0  0  0
 63 65  1  0  0  0
 63141  1  0  0  0
 63142  1  0  0  0
 63143  1  0  0  0
 64144  1  0  0  0
 65145  1  0  0  0
 68 85  1  0  0  0
 71 72  2  0  0  0
 71 74  1  0  0  0
 71146  1  0  0  0
 72 75  1  0  0  0
 72147  1  0  0  0
 73 75  2  0  0  0
 73 76  1  0  0  0
 73148  1  0  0  0
 74 76  2  0  0  0
 74 77  1  0  0  0
 75 83  1  0  0  0
 76 82  1  0  0  0
 77 78  2  0  0  0
 77149  1  0  0  0
 78150  1  0  0  0
 78 81  1  0  0  0
 79 80  1  0  0  0
 79 81  1  0  0  0
 79151  1  0  0  0
 79152  1  0  0  0
 80 81  1  0  0  0
 80153  1  0  0  0
 80154  1  0  0  0
 81155  1  0  0  0
 82 84  1  0  0  0
 82156  1  0  0  0
 82157  1  0  0  0
 83 86  1  0  0  0
 83158  1  0  0  0
 83159  1  0  0  0
 84 85  1  0  0  0
 84160  1  0  0  0
 84161  1  0  0  0
 85162  1  0  0  0
 85163  1  0  0  0
 86164  1  0  0  0
M  ISO  4   1 100  68 101  85 101  86 100
M  END
> <chiral flag>
0

> <version>
0

> <s_m_source_file>
/data/baiqing/PycharmProjects/Reinvent-master-3.2/result/LINK_invent/BTK/process_docking_weight1_custom_sum_contain_oxygen_bond_distance_aromatic_linkinvent_7_9_3/rearranged_h_0129.sdf

> <i_m_source_file_index>
58

> <r_mmod_Potential_Energy-OPLS-2005>
230.065643310547

> <r_mmod_Stretch_Energy-OPLS-2005>
122.794219970703

> <r_mmod_Bend_Energy-OPLS-2005>
202.874420166016

> <r_mmod_Torsional_Energy-OPLS-2005>
306.285888671875

> <r_mmod_Improper_Torsional_Energy-OPLS-2005>
14.6028032302856

> <r_mmod_Van_der_Waal_Energy-OPLS-2005>
134.079208374023

> <r_mmod_Electrostatic_Energy-OPLS-2005>
-414.613067626953

> <r_mmod_Solvation_Energy-OPLS-2005>
-201.442092895508

> <b_mmod_Minimization_Converged-OPLS-2005>
0

> <r_mmod_RMS_Derivative-OPLS-2005>
14.3638191223145

$$$$
58
                    3D
 Structure written by MMmdl.
156164  0  0  1  0            999 V2000
  -30.5893  -14.7898   20.4724 C   0  0  0  0  0  0
  -30.4412  -12.4894   19.4747 C   0  0  0  0  0  0
  -29.5135  -12.5056   18.2393 C   0  0  0  0  0  0
  -28.0424  -12.3172   18.6596 C   0  0  0  0  0  0
  -27.6393  -13.2304   19.8471 C   0  0  2  0  0  0
  -28.6843  -13.1834   20.9820 C   0  0  0  0  0  0
  -25.2505  -13.8190   20.5694 C   0  0  0  0  0  0
  -24.1800  -13.0439   20.9223 C   0  0  0  0  0  0
  -24.6397  -11.6919   20.8768 C   0  0  0  0  0  0
  -23.9079  -10.4294   21.0422 C   0  0  0  0  0  0
  -24.3623   -9.4204   21.9199 C   0  0  0  0  0  0
  -23.6297   -8.2239   22.0763 C   0  0  0  0  0  0
  -22.4278   -8.0282   21.3550 C   0  0  0  0  0  0
  -21.9922   -9.0258   20.4651 C   0  0  0  0  0  0
  -22.7256  -10.2134   20.3066 C   0  0  0  0  0  0
  -21.6851   -6.0737   22.5284 C   0  0  0  0  0  0
  -21.4008   -6.5641   23.8215 C   0  0  0  0  0  0
  -21.3660   -5.6794   24.9180 C   0  0  0  0  0  0
  -21.6041   -4.3057   24.7230 C   0  0  0  0  0  0
  -21.8818   -3.8149   23.4351 C   0  0  0  0  0  0
  -21.9192   -4.6965   22.3409 C   0  0  0  0  0  0
  -22.7820  -13.5221   21.1883 C   0  0  0  0  0  0
  -22.1659   -4.2152   21.0984 F   0  0  0  0  0  0
  -21.5634   -3.4541   25.7741 F   0  0  0  0  0  0
  -29.9775  -13.5555   20.3946 N   0  0  0  0  0  0
  -26.2924  -12.9393   20.3268 N   0  0  0  0  0  0
  -25.9320  -11.6542   20.5761 N   0  0  0  0  0  0
  -22.0462  -12.8201   22.0427 N   0  0  0  0  0  0
  -25.4191  -15.1911   20.4064 N   0  0  0  0  0  0
  -31.7855  -14.8940   20.1881 O   0  0  0  0  0  0
  -21.6638   -6.8879   21.4245 O   0  0  0  0  0  0
  -22.3514  -14.5539   20.6748 O   0  0  0  0  0  0
  -24.6333  -31.8525   23.1948 C   0  0  0  0  0  0
  -25.9147  -32.4742   23.8307 C   0  0  1  0  0  0
  -27.2142  -27.2170   20.1648 C   0  0  0  0  0  0
  -25.5937  -33.8542   24.2240 N   0  0  0  0  0  0
  -23.4315  -30.4708   21.5397 C   0  0  2  0  0  0
  -24.8796  -28.9021   20.1217 C   0  0  0  0  0  0
  -22.7508  -29.4582   22.4923 C   0  0  0  0  0  0
  -18.0287  -28.1394   22.8474 C   0  0  0  0  0  0
  -24.1487  -36.7273   23.2641 C   0  0  0  0  0  0
  -25.9784  -30.7505   21.3813 C   0  0  0  0  0  0
  -26.0491  -29.3626   20.7403 C   0  0  0  0  0  0
  -27.2201  -28.5327   20.7492 C   0  0  0  0  0  0
  -26.0361  -26.8458   19.4880 C   0  0  0  0  0  0
  -24.8783  -27.6506   19.4851 C   0  0  0  0  0  0
  -23.6533  -29.7958   20.1600 C   0  0  0  0  0  0
  -25.4111  -36.3059   24.0330 C   0  0  1  0  0  0
  -20.5889  -28.3697   23.1273 C   0  0  2  0  0  0
  -20.6784  -26.9415   22.5410 C   0  0  0  0  0  0
  -19.5760  -26.6382   21.5215 C   0  0  0  0  0  0
  -18.1933  -26.7935   22.1617 C   0  0  0  0  0  0
  -19.1539  -28.8863   23.2866 C   0  0  0  0  0  0
  -18.9466  -30.1466   23.8884 C   0  0  0  0  0  0
  -17.6467  -30.6593   24.0560 C   0  0  0  0  0  0
  -25.9055  -34.9435   23.5087 C   0  0  0  0  0  0
  -16.5357  -29.9086   23.6342 C   0  0  0  0  0  0
  -16.7276  -28.6509   23.0353 C   0  0  0  0  0  0
  -26.4510  -31.6572   25.0708 C   0  0  0  0  0  0
  -25.3720  -31.3715   26.1415 C   0  0  0  0  0  0
  -27.0368  -30.2989   24.6201 C   0  0  0  0  0  0
  -27.6054  -32.4321   25.7490 C   0  0  0  0  0  0
  -27.5571  -37.1791   24.8469 C   0  0  0  0  0  0
  -21.4215  -29.3039   22.3667 N   0  0  0  0  0  0
  -26.4283  -37.3764   23.9411 N   0  0  0  0  0  0
  -24.7005  -31.0447   22.0950 N   0  0  0  0  0  0
  -23.4195  -28.8135   23.3043 O   0  0  0  0  0  0
  -28.3376  -26.3584   20.0643 O   0  0  0  0  0  0
  -26.5626  -34.8920   22.4653 O   0  0  0  0  0  0
  -23.5475  -32.1367   23.7219 O   0  0  0  0  0  0
  -25.4919  -21.7883   20.7499 C   0  0  0  0  0  0
  -25.2398  -23.1322   21.0316 C   0  0  0  0  0  0
  -26.8035  -21.3717   20.4866 C   0  0  0  0  0  0
  -26.2926  -24.0571   20.9926 C   0  0  0  0  0  0
  -27.9114  -22.2561   20.4786 C   0  0  0  0  0  0
  -27.6243  -23.7147   20.6520 C   0  0  0  0  0  0
  -29.2664  -21.4463   20.2311 C   0  0  0  0  0  0
  -28.5846  -24.9929   20.7067 C   0  0  0  0  0  0
  -30.1672  -17.4005   20.9477 C   0  0  0  0  0  0
  -29.3045  -18.6696   20.3503 C   0  0  0  0  0  0
  -29.8002  -15.9208   20.6879 N   0  0  0  0  0  0
  -29.5536  -20.0871   20.9410 N   0  3  0  0  0  0
  -31.4781  -12.6349   19.1672 H   0  0  0  0  0  0
  -30.4098  -11.5183   19.9717 H   0  0  0  0  0  0
  -29.8046  -11.7209   17.5395 H   0  0  0  0  0  0
  -29.6265  -13.4503   17.7060 H   0  0  0  0  0  0
  -27.9171  -11.2716   18.9442 H   0  0  0  0  0  0
  -27.3796  -12.4829   17.8099 H   0  0  0  0  0  0
  -27.6275  -14.2466   19.4530 H   0  0  0  0  0  0
  -28.7344  -12.1884   21.4262 H   0  0  0  0  0  0
  -28.4107  -13.8648   21.7891 H   0  0  0  0  0  0
  -25.2764   -9.5678   22.4783 H   0  0  0  0  0  0
  -24.0005   -7.4626   22.7480 H   0  0  0  0  0  0
  -21.0858   -8.8785   19.8946 H   0  0  0  0  0  0
  -22.3728  -10.9680   19.6175 H   0  0  0  0  0  0
  -21.1991   -7.6147   23.9725 H   0  0  0  0  0  0
  -21.1481   -6.0521   25.9083 H   0  0  0  0  0  0
  -22.0594   -2.7611   23.2853 H   0  0  0  0  0  0
  -22.4061  -11.9833   22.4777 H   0  0  0  0  0  0
  -21.1081  -13.1231   22.2644 H   0  0  0  0  0  0
  -24.6464  -15.8410   20.5028 H   0  0  0  0  0  0
  -26.2512  -15.6235   20.0274 H   0  0  0  0  0  0
  -26.7203  -32.5395   23.1031 H   0  0  0  0  0  0
  -25.0127  -33.9675   25.0417 H   0  0  0  0  0  0
  -22.7306  -31.2941   21.3868 H   0  0  0  0  0  0
  -23.3759  -35.9600   23.3306 H   0  0  0  0  0  0
  -24.3571  -36.8892   22.2052 H   0  0  0  0  0  0
  -23.7236  -37.6472   23.6661 H   0  0  0  0  0  0
  -26.1141  -31.4996   20.6001 H   0  0  0  0  0  0
  -26.8578  -30.8111   22.0104 H   0  0  0  0  0  0
  -28.1243  -28.8879   21.2227 H   0  0  0  0  0  0
  -26.0073  -25.9019   18.9613 H   0  0  0  0  0  0
  -23.9896  -27.2982   18.9801 H   0  0  0  0  0  0
  -23.7824  -30.5675   19.4003 H   0  0  0  0  0  0
  -22.7713  -29.2297   19.8536 H   0  0  0  0  0  0
  -25.1291  -36.1905   25.0823 H   0  0  0  0  0  0
  -20.9968  -28.3273   24.1398 H   0  0  0  0  0  0
  -20.5700  -26.2303   23.3609 H   0  0  0  0  0  0
  -21.6646  -26.7456   22.1187 H   0  0  0  0  0  0
  -19.6929  -25.6294   21.1247 H   0  0  0  0  0  0
  -19.6705  -27.3195   20.6746 H   0  0  0  0  0  0
  -17.4205  -26.6685   21.4016 H   0  0  0  0  0  0
  -18.0326  -26.0081   22.9013 H   0  0  0  0  0  0
  -19.7946  -30.7281   24.2245 H   0  0  0  0  0  0
  -17.5021  -31.6273   24.5162 H   0  0  0  0  0  0
  -15.5358  -30.2981   23.7682 H   0  0  0  0  0  0
  -15.8673  -28.0828   22.7075 H   0  0  0  0  0  0
  -24.5931  -30.7022   25.7730 H   0  0  0  0  0  0
  -24.8875  -32.2879   26.4795 H   0  0  0  0  0  0
  -25.8031  -30.8927   27.0220 H   0  0  0  0  0  0
  -26.2960  -29.6720   24.1217 H   0  0  0  0  0  0
  -27.4043  -29.7256   25.4727 H   0  0  0  0  0  0
  -27.8839  -30.4268   23.9456 H   0  0  0  0  0  0
  -27.2666  -33.3653   26.1998 H   0  0  0  0  0  0
  -28.3899  -32.6821   25.0333 H   0  0  0  0  0  0
  -28.0672  -31.8484   26.5459 H   0  0  0  0  0  0
  -28.2584  -38.0092   24.7511 H   0  0  0  0  0  0
  -28.1070  -36.2620   24.6302 H   0  0  0  0  0  0
  -27.2284  -37.1439   25.8871 H   0  0  0  0  0  0
  -20.9417  -29.8755   21.6858 H   0  0  0  0  0  0
  -26.0164  -38.2841   24.1409 H   0  0  0  0  0  0
  -24.6839  -21.0687   20.7642 H   0  0  0  0  0  0
  -24.2392  -23.4568   21.2828 H   0  0  0  0  0  0
  -26.9480  -20.3193   20.2964 H   0  0  0  0  0  0
  -26.0556  -25.0727   21.2641 H   0  0  0  0  0  0
  -30.0710  -22.1183   20.5290 H   0  0  0  0  0  0
  -29.3940  -21.3087   19.1568 H   0  0  0  0  0  0
  -29.5508  -24.6602   20.3280 H   0  0  0  0  0  0
  -28.7539  -25.1925   21.7655 H   0  0  0  0  0  0
  -30.1711  -17.4992   22.0337 H   0  0  0  0  0  0
  -31.2091  -17.5370   20.6530 H   0  0  0  0  0  0
  -28.2433  -18.4495   20.4601 H   0  0  0  0  0  0
  -29.4841  -18.7204   19.2764 H   0  0  0  0  0  0
  -28.8241  -15.7032   20.8198 H   0  0  0  0  0  0
  -29.1523  -20.1302   21.8633 H   0  0  0  0  0  0
  -30.5495  -20.1192   21.0852 H   0  0  0  0  0  0
  1 25  1  0  0  0
  1 30  2  0  0  0
  1 81  1  0  0  0
  2  3  1  0  0  0
  2 25  1  0  0  0
  2 83  1  0  0  0
  2 84  1  0  0  0
  3  4  1  0  0  0
  3 85  1  0  0  0
  3 86  1  0  0  0
  4  5  1  0  0  0
  4 87  1  0  0  0
  4 88  1  0  0  0
  5  6  1  0  0  0
  5 26  1  0  0  0
  5 89  1  0  0  0
  6 25  1  0  0  0
  6 90  1  0  0  0
  6 91  1  0  0  0
  7  8  2  0  0  0
  7 26  1  0  0  0
  7 29  1  0  0  0
  8  9  1  0  0  0
  8 22  1  0  0  0
  9 10  1  0  0  0
  9 27  2  0  0  0
 10 11  2  0  0  0
 10 15  1  0  0  0
 11 12  1  0  0  0
 11 92  1  0  0  0
 12 13  2  0  0  0
 12 93  1  0  0  0
 13 14  1  0  0  0
 13 31  1  0  0  0
 14 15  2  0  0  0
 14 94  1  0  0  0
 15 95  1  0  0  0
 16 17  2  0  0  0
 16 21  1  0  0  0
 16 31  1  0  0  0
 17 18  1  0  0  0
 17 96  1  0  0  0
 18 19  2  0  0  0
 18 97  1  0  0  0
 19 20  1  0  0  0
 19 24  1  0  0  0
 20 21  2  0  0  0
 20 98  1  0  0  0
 21 23  1  0  0  0
 22 28  1  0  0  0
 22 32  2  0  0  0
 26 27  1  0  0  0
 28 99  1  0  0  0
 28100  1  0  0  0
 29101  1  0  0  0
 29102  1  0  0  0
 33 34  1  0  0  0
 33 66  1  0  0  0
 33 70  2  0  0  0
 34 36  1  0  0  0
 34 59  1  0  0  0
 34103  1  0  0  0
 35 44  2  0  0  0
 35 45  1  0  0  0
 35 68  1  0  0  0
 36 56  1  0  0  0
 36104  1  0  0  0
 37 39  1  0  0  0
 37 47  1  0  0  0
 37 66  1  0  0  0
 37105  1  0  0  0
 38 43  2  0  0  0
 38 46  1  0  0  0
 38 47  1  0  0  0
 39 64  1  0  0  0
 39 67  2  0  0  0
 40 52  1  0  0  0
 40 53  2  0  0  0
 40 58  1  0  0  0
 41106  1  0  0  0
 41107  1  0  0  0
 41108  1  0  0  0
 41 48  1  0  0  0
 42 43  1  0  0  0
 42 66  1  0  0  0
 42109  1  0  0  0
 42110  1  0  0  0
 43 44  1  0  0  0
 44111  1  0  0  0
 45 46  2  0  0  0
 45112  1  0  0  0
 46113  1  0  0  0
 47114  1  0  0  0
 47115  1  0  0  0
 48 56  1  0  0  0
 48 65  1  0  0  0
 48116  1  0  0  0
 49 50  1  0  0  0
 49 53  1  0  0  0
 49 64  1  0  0  0
 49117  1  0  0  0
 50 51  1  0  0  0
 50118  1  0  0  0
 50119  1  0  0  0
 51 52  1  0  0  0
 51120  1  0  0  0
 51121  1  0  0  0
 52122  1  0  0  0
 52123  1  0  0  0
 53 54  1  0  0  0
 54 55  2  0  0  0
 54124  1  0  0  0
 55 57  1  0  0  0
 55125  1  0  0  0
 56 69  2  0  0  0
 57 58  2  0  0  0
 57126  1  0  0  0
 58127  1  0  0  0
 59 60  1  0  0  0
 59 61  1  0  0  0
 59 62  1  0  0  0
 60128  1  0  0  0
 60129  1  0  0  0
 60130  1  0  0  0
 61131  1  0  0  0
 61132  1  0  0  0
 61133  1  0  0  0
 62134  1  0  0  0
 62135  1  0  0  0
 62136  1  0  0  0
 63 65  1  0  0  0
 63137  1  0  0  0
 63138  1  0  0  0
 63139  1  0  0  0
 64140  1  0  0  0
 65141  1  0  0  0
 68 78  1  0  0  0
 71 72  2  0  0  0
 71 73  1  0  0  0
 71142  1  0  0  0
 72 74  1  0  0  0
 72143  1  0  0  0
 73 75  2  0  0  0
 73144  1  0  0  0
 74 76  2  0  0  0
 74145  1  0  0  0
 75 76  1  0  0  0
 75 77  1  0  0  0
 76 78  1  0  0  0
 77 82  1  0  0  0
 77146  1  0  0  0
 77147  1  0  0  0
 78148  1  0  0  0
 78149  1  0  0  0
 79 80  1  0  0  0
 79 81  1  0  0  0
 79150  1  0  0  0
 79151  1  0  0  0
 80 82  1  0  0  0
 80152  1  0  0  0
 80153  1  0  0  0
 81154  1  0  0  0
 82155  1  0  0  0
 82156  1  0  0  0
M  CHG  1  82   1
M  ISO  4   1 100  68 101  78 101  81 100
M  END
> <chiral flag>
0

> <version>
0

> <s_m_source_file>
/data/baiqing/PycharmProjects/Reinvent-master-3.2/result/LINK_invent/BTK/process_docking_weight1_custom_sum_contain_oxygen_bond_distance_aromatic_linkinvent_7_9_3/rearranged_h_0129.sdf

> <i_m_source_file_index>
59

> <r_mmod_Potential_Energy-OPLS-2005>
85.646598815918

> <r_mmod_Stretch_Energy-OPLS-2005>
164.207061767578

> <r_mmod_Bend_Energy-OPLS-2005>
263.382049560547

> <r_mmod_Torsional_Energy-OPLS-2005>
236.754531860352

> <r_mmod_Improper_Torsional_Energy-OPLS-2005>
5.81558513641357

> <r_mmod_Van_der_Waal_Energy-OPLS-2005>
131.053314208984

> <r_mmod_Electrostatic_Energy-OPLS-2005>
-314.509643554688

> <r_mmod_Solvation_Energy-OPLS-2005>
-502.924285888672

> <b_mmod_Minimization_Converged-OPLS-2005>
0

> <r_mmod_RMS_Derivative-OPLS-2005>
1.15736675262451

$$$$
59
                    3D
 Structure written by MMmdl.
168177  0  0  1  0            999 V2000
  -30.7625  -14.3494   20.6762 C   0  0  0  0  0  0
  -30.4251  -12.2650   19.4038 C   0  0  0  0  0  0
  -29.5047  -12.5097   18.1930 C   0  0  0  0  0  0
  -28.0230  -12.3800   18.5982 C   0  0  0  0  0  0
  -27.6748  -13.1943   19.8788 C   0  0  2  0  0  0
  -28.7062  -12.9168   20.9954 C   0  0  0  0  0  0
  -25.2676  -13.8155   20.5620 C   0  0  0  0  0  0
  -24.1872  -13.0444   20.9104 C   0  0  0  0  0  0
  -24.6400  -11.6915   20.8659 C   0  0  0  0  0  0
  -23.9060  -10.4291   21.0343 C   0  0  0  0  0  0
  -24.3645   -9.4224   21.9127 C   0  0  0  0  0  0
  -23.6328   -8.2249   22.0746 C   0  0  0  0  0  0
  -22.4306   -8.0262   21.3563 C   0  0  0  0  0  0
  -21.9910   -9.0220   20.4652 C   0  0  0  0  0  0
  -22.7213  -10.2098   20.3025 C   0  0  0  0  0  0
  -21.6853   -6.0732   22.5299 C   0  0  0  0  0  0
  -21.4009   -6.5626   23.8219 C   0  0  0  0  0  0
  -21.3673   -5.6778   24.9191 C   0  0  0  0  0  0
  -21.6055   -4.3052   24.7231 C   0  0  0  0  0  0
  -21.8815   -3.8138   23.4359 C   0  0  0  0  0  0
  -21.9213   -4.6961   22.3401 C   0  0  0  0  0  0
  -22.7924  -13.5294   21.1804 C   0  0  0  0  0  0
  -22.1659   -4.2147   21.0977 F   0  0  0  0  0  0
  -21.5666   -3.4534   25.7727 F   0  0  0  0  0  0
  -30.0564  -13.2088   20.4681 N   0  0  0  0  0  0
  -26.3088  -12.9279   20.3310 N   0  0  0  0  0  0
  -25.9334  -11.6463   20.5706 N   0  0  0  0  0  0
  -22.0543  -12.8284   22.0348 N   0  0  0  0  0  0
  -25.4450  -15.1841   20.4076 N   0  0  0  0  0  0
  -31.7766  -14.6536   20.0405 O   0  0  0  0  0  0
  -21.6670   -6.8864   21.4249 O   0  0  0  0  0  0
  -22.3588  -14.5553   20.6595 O   0  0  0  0  0  0
  -24.6178  -31.8614   23.2078 C   0  0  0  0  0  0
  -25.9101  -32.4801   23.8374 C   0  0  1  0  0  0
  -27.2443  -27.4427   20.0953 C   0  0  0  0  0  0
  -25.5990  -33.8592   24.2332 N   0  0  0  0  0  0
  -23.4042  -30.4862   21.5456 C   0  0  2  0  0  0
  -24.8516  -28.9476   20.1186 C   0  0  0  0  0  0
  -22.7408  -29.4621   22.4958 C   0  0  0  0  0  0
  -18.0269  -28.1334   22.8488 C   0  0  0  0  0  0
  -24.1491  -36.7270   23.2612 C   0  0  0  0  0  0
  -25.9273  -30.8420   21.3443 C   0  0  0  0  0  0
  -26.0101  -29.4680   20.7100 C   0  0  0  0  0  0
  -27.2109  -28.7244   20.6945 C   0  0  0  0  0  0
  -26.0730  -26.9347   19.4965 C   0  0  0  0  0  0
  -24.8791  -27.6824   19.5024 C   0  0  0  0  0  0
  -23.6115  -29.8109   20.1612 C   0  0  0  0  0  0
  -25.4104  -36.3082   24.0307 C   0  0  1  0  0  0
  -20.5844  -28.3613   23.1304 C   0  0  2  0  0  0
  -20.6730  -26.9341   22.5398 C   0  0  0  0  0  0
  -19.5695  -26.6350   21.5182 C   0  0  0  0  0  0
  -18.1888  -26.7888   22.1616 C   0  0  0  0  0  0
  -19.1513  -28.8785   23.2915 C   0  0  0  0  0  0
  -18.9438  -30.1403   23.8905 C   0  0  0  0  0  0
  -17.6437  -30.6528   24.0536 C   0  0  0  0  0  0
  -25.9040  -34.9445   23.5095 C   0  0  0  0  0  0
  -16.5325  -29.9034   23.6317 C   0  0  0  0  0  0
  -16.7275  -28.6444   23.0370 C   0  0  0  0  0  0
  -26.4521  -31.6574   25.0686 C   0  0  0  0  0  0
  -25.3801  -31.3714   26.1449 C   0  0  0  0  0  0
  -27.0282  -30.3011   24.5992 C   0  0  0  0  0  0
  -27.6121  -32.4253   25.7456 C   0  0  0  0  0  0
  -27.5570  -37.1780   24.8462 C   0  0  0  0  0  0
  -21.4115  -29.3010   22.3751 N   0  0  0  0  0  0
  -26.4269  -37.3797   23.9429 N   0  0  0  0  0  0
  -24.6691  -31.0762   22.0926 N   0  0  0  0  0  0
  -23.4200  -28.8130   23.2974 O   0  0  0  0  0  0
  -28.4154  -26.7272   20.0170 O   0  0  0  0  0  0
  -26.5527  -34.8859   22.4623 O   0  0  0  0  0  0
  -23.5364  -32.1335   23.7478 O   0  0  0  0  0  0
  -27.7264  -20.2548   19.8123 C   0  0  0  0  0  0
  -28.4239  -19.0398   19.7540 C   0  0  0  0  0  0
  -29.1670  -20.9763   21.6344 C   0  0  0  0  0  0
  -28.0884  -21.2337   20.7526 C   0  0  0  0  0  0
  -29.4892  -18.7564   20.6404 C   0  0  0  0  0  0
  -29.8712  -19.7450   21.5907 C   0  0  0  0  0  0
  -29.6534  -19.1345   24.6926 C   0  0  0  0  0  0
  -31.1120  -18.8129   24.9271 C   0  0  0  0  0  0
  -30.7279  -19.8434   23.8902 C   0  0  0  0  0  0
  -30.1543  -17.3808   20.4842 C   0  0  0  0  0  0
  -27.3019  -22.5370   20.8022 C   0  0  0  0  0  0
  -30.4741  -16.5887   21.7784 C   0  0  0  0  0  0
  -28.9613  -24.3305   20.2439 C   0  0  0  0  0  0
  -28.5703  -25.6585   20.9496 C   0  0  0  0  0  0
  -30.9361  -19.5311   22.4809 N   0  0  0  0  0  0
  -30.2363  -15.1562   21.6017 N   0  0  0  0  0  0
  -27.8029  -23.5124   19.8032 N   0  3  0  0  0  0
  -31.4680  -12.3644   19.1054 H   0  0  0  0  0  0
  -30.3152  -11.2397   19.7589 H   0  0  0  0  0  0
  -29.7427  -11.8138   17.3862 H   0  0  0  0  0  0
  -29.6840  -13.5097   17.7952 H   0  0  0  0  0  0
  -27.8115  -11.3206   18.7572 H   0  0  0  0  0  0
  -27.3840  -12.6980   17.7694 H   0  0  0  0  0  0
  -27.7431  -14.2516   19.6244 H   0  0  0  0  0  0
  -28.6609  -11.8681   21.2872 H   0  0  0  0  0  0
  -28.4463  -13.4667   21.9008 H   0  0  0  0  0  0
  -25.2802   -9.5721   22.4684 H   0  0  0  0  0  0
  -24.0066   -7.4669   22.7467 H   0  0  0  0  0  0
  -21.0846   -8.8718   19.8969 H   0  0  0  0  0  0
  -22.3662  -10.9638   19.6135 H   0  0  0  0  0  0
  -21.1947   -7.6126   23.9706 H   0  0  0  0  0  0
  -21.1524   -6.0518   25.9087 H   0  0  0  0  0  0
  -22.0589   -2.7602   23.2848 H   0  0  0  0  0  0
  -22.4225  -12.0010   22.4809 H   0  0  0  0  0  0
  -21.1149  -13.1276   22.2516 H   0  0  0  0  0  0
  -24.6890  -15.8459   20.5447 H   0  0  0  0  0  0
  -26.3167  -15.6244   20.1381 H   0  0  0  0  0  0
  -26.7216  -32.5502   23.1173 H   0  0  0  0  0  0
  -25.0427  -33.9750   25.0677 H   0  0  0  0  0  0
  -22.6957  -31.3033   21.4071 H   0  0  0  0  0  0
  -23.3735  -35.9632   23.3279 H   0  0  0  0  0  0
  -24.3635  -36.8860   22.2032 H   0  0  0  0  0  0
  -23.7247  -37.6478   23.6609 H   0  0  0  0  0  0
  -26.0195  -31.6014   20.5628 H   0  0  0  0  0  0
  -26.8205  -30.9127   21.9546 H   0  0  0  0  0  0
  -28.1124  -29.1425   21.1214 H   0  0  0  0  0  0
  -26.0935  -25.9758   18.9998 H   0  0  0  0  0  0
  -23.9974  -27.2933   19.0099 H   0  0  0  0  0  0
  -23.7114  -30.5780   19.3931 H   0  0  0  0  0  0
  -22.7400  -29.2170   19.8790 H   0  0  0  0  0  0
  -25.1323  -36.1900   25.0796 H   0  0  0  0  0  0
  -20.9993  -28.3161   24.1398 H   0  0  0  0  0  0
  -20.5541  -26.2258   23.3604 H   0  0  0  0  0  0
  -21.6625  -26.7314   22.1228 H   0  0  0  0  0  0
  -19.6836  -25.6269   21.1181 H   0  0  0  0  0  0
  -19.6606  -27.3196   20.6698 H   0  0  0  0  0  0
  -17.4184  -26.6661   21.3998 H   0  0  0  0  0  0
  -18.0250  -26.0005   22.8959 H   0  0  0  0  0  0
  -19.7924  -30.7228   24.2259 H   0  0  0  0  0  0
  -17.4983  -31.6204   24.5165 H   0  0  0  0  0  0
  -15.5336  -30.2936   23.7560 H   0  0  0  0  0  0
  -15.8683  -28.0723   22.7094 H   0  0  0  0  0  0
  -24.5946  -30.7099   25.7828 H   0  0  0  0  0  0
  -24.9011  -32.2875   26.4883 H   0  0  0  0  0  0
  -25.8112  -30.8900   27.0242 H   0  0  0  0  0  0
  -26.2757  -29.6840   24.1064 H   0  0  0  0  0  0
  -27.4126  -29.7176   25.4381 H   0  0  0  0  0  0
  -27.8595  -30.4342   23.9060 H   0  0  0  0  0  0
  -27.2788  -33.3565   26.2034 H   0  0  0  0  0  0
  -28.3936  -32.6767   25.0292 H   0  0  0  0  0  0
  -28.0794  -31.8371   26.5366 H   0  0  0  0  0  0
  -28.2631  -38.0053   24.7560 H   0  0  0  0  0  0
  -28.1020  -36.2598   24.6242 H   0  0  0  0  0  0
  -27.2292  -37.1390   25.8866 H   0  0  0  0  0  0
  -20.9224  -29.8909   21.7138 H   0  0  0  0  0  0
  -26.0114  -38.2855   24.1505 H   0  0  0  0  0  0
  -26.9153  -20.4292   19.1156 H   0  0  0  0  0  0
  -28.1221  -18.3198   19.0079 H   0  0  0  0  0  0
  -29.4577  -21.7379   22.3429 H   0  0  0  0  0  0
  -29.1469  -19.6785   25.4869 H   0  0  0  0  0  0
  -29.0314  -18.3908   24.1960 H   0  0  0  0  0  0
  -31.4955  -17.8513   24.5812 H   0  0  0  0  0  0
  -31.5536  -19.1797   25.8560 H   0  0  0  0  0  0
  -30.9856  -20.8739   24.1338 H   0  0  0  0  0  0
  -31.0549  -17.4795   19.8792 H   0  0  0  0  0  0
  -29.4704  -16.7766   19.8807 H   0  0  0  0  0  0
  -27.3045  -22.9546   21.8089 H   0  0  0  0  0  0
  -26.2571  -22.2991   20.5908 H   0  0  0  0  0  0
  -31.4933  -16.7618   22.1261 H   0  0  0  0  0  0
  -29.8064  -16.9047   22.5782 H   0  0  0  0  0  0
  -29.5780  -23.7334   20.9203 H   0  0  0  0  0  0
  -29.5951  -24.5294   19.3777 H   0  0  0  0  0  0
  -29.3961  -25.9591   21.5987 H   0  0  0  0  0  0
  -27.7014  -25.5352   21.5986 H   0  0  0  0  0  0
  -31.5650  -18.7602   22.2748 H   0  0  0  0  0  0
  -29.4594  -14.7702   22.1168 H   0  0  0  0  0  0
  -27.0584  -24.1267   19.5090 H   0  0  0  0  0  0
  -28.0706  -22.9850   18.9846 H   0  0  0  0  0  0
  1 25  1  0  0  0
  1 30  2  0  0  0
  1 86  1  0  0  0
  2  3  1  0  0  0
  2 25  1  0  0  0
  2 88  1  0  0  0
  2 89  1  0  0  0
  3  4  1  0  0  0
  3 90  1  0  0  0
  3 91  1  0  0  0
  4  5  1  0  0  0
  4 92  1  0  0  0
  4 93  1  0  0  0
  5  6  1  0  0  0
  5 26  1  0  0  0
  5 94  1  0  0  0
  6 25  1  0  0  0
  6 95  1  0  0  0
  6 96  1  0  0  0
  7  8  2  0  0  0
  7 26  1  0  0  0
  7 29  1  0  0  0
  8  9  1  0  0  0
  8 22  1  0  0  0
  9 10  1  0  0  0
  9 27  2  0  0  0
 10 11  2  0  0  0
 10 15  1  0  0  0
 11 12  1  0  0  0
 11 97  1  0  0  0
 12 13  2  0  0  0
 12 98  1  0  0  0
 13 14  1  0  0  0
 13 31  1  0  0  0
 14 15  2  0  0  0
 14 99  1  0  0  0
 15100  1  0  0  0
 16 17  2  0  0  0
 16 21  1  0  0  0
 16 31  1  0  0  0
 17 18  1  0  0  0
 17101  1  0  0  0
 18 19  2  0  0  0
 18102  1  0  0  0
 19 20  1  0  0  0
 19 24  1  0  0  0
 20 21  2  0  0  0
 20103  1  0  0  0
 21 23  1  0  0  0
 22 28  1  0  0  0
 22 32  2  0  0  0
 26 27  1  0  0  0
 28104  1  0  0  0
 28105  1  0  0  0
 29106  1  0  0  0
 29107  1  0  0  0
 33 34  1  0  0  0
 33 66  1  0  0  0
 33 70  2  0  0  0
 34 36  1  0  0  0
 34 59  1  0  0  0
 34108  1  0  0  0
 35 44  2  0  0  0
 35 45  1  0  0  0
 35 68  1  0  0  0
 36 56  1  0  0  0
 36109  1  0  0  0
 37 39  1  0  0  0
 37 47  1  0  0  0
 37 66  1  0  0  0
 37110  1  0  0  0
 38 43  2  0  0  0
 38 46  1  0  0  0
 38 47  1  0  0  0
 39 64  1  0  0  0
 39 67  2  0  0  0
 40 52  1  0  0  0
 40 53  2  0  0  0
 40 58  1  0  0  0
 41111  1  0  0  0
 41112  1  0  0  0
 41113  1  0  0  0
 41 48  1  0  0  0
 42 43  1  0  0  0
 42 66  1  0  0  0
 42114  1  0  0  0
 42115  1  0  0  0
 43 44  1  0  0  0
 44116  1  0  0  0
 45 46  2  0  0  0
 45117  1  0  0  0
 46118  1  0  0  0
 47119  1  0  0  0
 47120  1  0  0  0
 48 56  1  0  0  0
 48 65  1  0  0  0
 48121  1  0  0  0
 49 50  1  0  0  0
 49 53  1  0  0  0
 49 64  1  0  0  0
 49122  1  0  0  0
 50 51  1  0  0  0
 50123  1  0  0  0
 50124  1  0  0  0
 51 52  1  0  0  0
 51125  1  0  0  0
 51126  1  0  0  0
 52127  1  0  0  0
 52128  1  0  0  0
 53 54  1  0  0  0
 54 55  2  0  0  0
 54129  1  0  0  0
 55 57  1  0  0  0
 55130  1  0  0  0
 56 69  2  0  0  0
 57 58  2  0  0  0
 57131  1  0  0  0
 58132  1  0  0  0
 59 60  1  0  0  0
 59 61  1  0  0  0
 59 62  1  0  0  0
 60133  1  0  0  0
 60134  1  0  0  0
 60135  1  0  0  0
 61136  1  0  0  0
 61137  1  0  0  0
 61138  1  0  0  0
 62139  1  0  0  0
 62140  1  0  0  0
 62141  1  0  0  0
 63 65  1  0  0  0
 63142  1  0  0  0
 63143  1  0  0  0
 63144  1  0  0  0
 64145  1  0  0  0
 65146  1  0  0  0
 68 84  1  0  0  0
 71 72  2  0  0  0
 71 74  1  0  0  0
 71147  1  0  0  0
 72 75  1  0  0  0
 72148  1  0  0  0
 73 74  2  0  0  0
 73 76  1  0  0  0
 73149  1  0  0  0
 74 81  1  0  0  0
 75 76  2  0  0  0
 75 80  1  0  0  0
 76 85  1  0  0  0
 77 78  1  0  0  0
 77 79  1  0  0  0
 77150  1  0  0  0
 77151  1  0  0  0
 78 79  1  0  0  0
 78152  1  0  0  0
 78153  1  0  0  0
 79 85  1  0  0  0
 79154  1  0  0  0
 80 82  1  0  0  0
 80155  1  0  0  0
 80156  1  0  0  0
 81 87  1  0  0  0
 81157  1  0  0  0
 81158  1  0  0  0
 82 86  1  0  0  0
 82159  1  0  0  0
 82160  1  0  0  0
 83 84  1  0  0  0
 83 87  1  0  0  0
 83161  1  0  0  0
 83162  1  0  0  0
 84163  1  0  0  0
 84164  1  0  0  0
 85165  1  0  0  0
 86166  1  0  0  0
 87167  1  0  0  0
 87168  1  0  0  0
M  CHG  1  87   1
M  ISO  4   1 100  68 101  84 101  86 100
M  END
> <chiral flag>
0

> <version>
0

> <s_m_source_file>
/data/baiqing/PycharmProjects/Reinvent-master-3.2/result/LINK_invent/BTK/process_docking_weight1_custom_sum_contain_oxygen_bond_distance_aromatic_linkinvent_7_9_3/rearranged_h_0129.sdf

> <i_m_source_file_index>
60

> <r_mmod_Potential_Energy-OPLS-2005>
-234.516738891602

> <r_mmod_Stretch_Energy-OPLS-2005>
37.3590202331543

> <r_mmod_Bend_Energy-OPLS-2005>
104.462951660156

> <r_mmod_Torsional_Energy-OPLS-2005>
280.154602050781

> <r_mmod_Improper_Torsional_Energy-OPLS-2005>
4.72521734237671

> <r_mmod_Van_der_Waal_Energy-OPLS-2005>
142.120803833008

> <r_mmod_Electrostatic_Energy-OPLS-2005>
-354.463806152344

> <r_mmod_Solvation_Energy-OPLS-2005>
-456.04736328125

> <b_mmod_Minimization_Converged-OPLS-2005>
0

> <r_mmod_RMS_Derivative-OPLS-2005>
7.30858898162842

$$$$
60
                    3D
 Structure written by MMmdl.
168176  0  0  1  0            999 V2000
  -30.8192  -14.3143   20.7288 C   0  0  0  0  0  0
  -30.4063  -12.2875   19.3884 C   0  0  0  0  0  0
  -29.4774  -12.5339   18.1881 C   0  0  0  0  0  0
  -28.0066  -12.3830   18.6105 C   0  0  0  0  0  0
  -27.6663  -13.2071   19.8793 C   0  0  2  0  0  0
  -28.7038  -12.9686   20.9991 C   0  0  0  0  0  0
  -25.2603  -13.8160   20.5693 C   0  0  0  0  0  0
  -24.1846  -13.0450   20.9159 C   0  0  0  0  0  0
  -24.6384  -11.6906   20.8709 C   0  0  0  0  0  0
  -23.9050  -10.4301   21.0384 C   0  0  0  0  0  0
  -24.3604   -9.4219   21.9162 C   0  0  0  0  0  0
  -23.6282   -8.2256   22.0747 C   0  0  0  0  0  0
  -22.4266   -8.0280   21.3544 C   0  0  0  0  0  0
  -21.9896   -9.0256   20.4649 C   0  0  0  0  0  0
  -22.7217  -10.2135   20.3042 C   0  0  0  0  0  0
  -21.6852   -6.0722   22.5272 C   0  0  0  0  0  0
  -21.4022   -6.5631   23.8206 C   0  0  0  0  0  0
  -21.3658   -5.6785   24.9167 C   0  0  0  0  0  0
  -21.6043   -4.3053   24.7226 C   0  0  0  0  0  0
  -21.8813   -3.8137   23.4349 C   0  0  0  0  0  0
  -21.9203   -4.6949   22.3402 C   0  0  0  0  0  0
  -22.7870  -13.5250   21.1853 C   0  0  0  0  0  0
  -22.1658   -4.2131   21.0979 F   0  0  0  0  0  0
  -21.5634   -3.4539   25.7747 F   0  0  0  0  0  0
  -30.0537  -13.2270   20.4641 N   0  0  0  0  0  0
  -26.3052  -12.9341   20.3379 N   0  0  0  0  0  0
  -25.9321  -11.6500   20.5742 N   0  0  0  0  0  0
  -22.0502  -12.8242   22.0397 N   0  0  0  0  0  0
  -25.4332  -15.1886   20.4087 N   0  0  0  0  0  0
  -31.7811  -14.6516   20.0329 O   0  0  0  0  0  0
  -21.6640   -6.8867   21.4236 O   0  0  0  0  0  0
  -22.3559  -14.5563   20.6708 O   0  0  0  0  0  0
  -24.6109  -31.8715   23.2115 C   0  0  0  0  0  0
  -25.9017  -32.4860   23.8409 C   0  0  1  0  0  0
  -27.2411  -27.4762   20.0795 C   0  0  0  0  0  0
  -25.5887  -33.8653   24.2346 N   0  0  0  0  0  0
  -23.3987  -30.4929   21.5525 C   0  0  2  0  0  0
  -24.8469  -28.9598   20.1178 C   0  0  0  0  0  0
  -22.7403  -29.4663   22.5006 C   0  0  0  0  0  0
  -18.0264  -28.1388   22.8491 C   0  0  0  0  0  0
  -24.1480  -36.7332   23.2636 C   0  0  0  0  0  0
  -25.9219  -30.8494   21.3524 C   0  0  0  0  0  0
  -26.0024  -29.4836   20.7065 C   0  0  0  0  0  0
  -27.2055  -28.7452   20.6891 C   0  0  0  0  0  0
  -26.0726  -26.9544   19.4856 C   0  0  0  0  0  0
  -24.8738  -27.6912   19.5099 C   0  0  0  0  0  0
  -23.6038  -29.8195   20.1696 C   0  0  0  0  0  0
  -25.4107  -36.3149   24.0341 C   0  0  1  0  0  0
  -20.5863  -28.3636   23.1365 C   0  0  2  0  0  0
  -20.6777  -26.9385   22.5460 C   0  0  0  0  0  0
  -19.5753  -26.6396   21.5248 C   0  0  0  0  0  0
  -18.1904  -26.7932   22.1628 C   0  0  0  0  0  0
  -19.1523  -28.8828   23.2928 C   0  0  0  0  0  0
  -18.9439  -30.1426   23.8923 C   0  0  0  0  0  0
  -17.6458  -30.6595   24.0561 C   0  0  0  0  0  0
  -25.9039  -34.9495   23.5161 C   0  0  0  0  0  0
  -16.5326  -29.9107   23.6342 C   0  0  0  0  0  0
  -16.7254  -28.6526   23.0343 C   0  0  0  0  0  0
  -26.4445  -31.6619   25.0724 C   0  0  0  0  0  0
  -25.3721  -31.3710   26.1514 C   0  0  0  0  0  0
  -27.0223  -30.3056   24.6032 C   0  0  0  0  0  0
  -27.6052  -32.4303   25.7447 C   0  0  0  0  0  0
  -27.5578  -37.1825   24.8474 C   0  0  0  0  0  0
  -21.4132  -29.3010   22.3755 N   0  0  0  0  0  0
  -26.4300  -37.3821   23.9419 N   0  0  0  0  0  0
  -24.6638  -31.0831   22.0980 N   0  0  0  0  0  0
  -23.4175  -28.8180   23.3026 O   0  0  0  0  0  0
  -28.4169  -26.7700   20.0534 O   0  0  0  0  0  0
  -26.5587  -34.8936   22.4696 O   0  0  0  0  0  0
  -23.5316  -32.1446   23.7533 O   0  0  0  0  0  0
  -28.9442  -21.1948   21.7703 C   0  0  0  0  0  0
  -28.9598  -19.8164   19.7077 C   0  0  0  0  0  0
  -30.3745  -20.7175   22.1275 C   0  0  0  0  0  0
  -30.4323  -19.4163   19.8981 C   0  0  0  0  0  0
  -28.7799  -21.2453   20.2348 C   0  0  1  0  0  0
  -30.8727  -19.4422   21.3800 C   0  0  2  0  0  0
  -27.5148  -21.9519   19.6794 C   0  0  0  0  0  0
  -31.5188  -15.8040   22.5857 C   0  0  0  0  0  0
  -31.7197  -17.1885   21.9273 C   0  0  0  0  0  0
  -28.4056  -24.3247   19.8380 C   0  0  0  0  0  0
  -28.3911  -25.5444   20.7816 C   0  0  0  0  0  0
  -30.5718  -14.9210   21.8990 N   0  0  0  0  0  0
  -30.5894  -18.1476   22.0629 N   0  3  0  0  0  0
  -27.3390  -23.3390   20.1769 N   0  3  0  0  0  0
  -31.4501  -12.3743   19.0820 H   0  0  0  0  0  0
  -30.2924  -11.2619   19.7461 H   0  0  0  0  0  0
  -29.7071  -11.8339   17.3843 H   0  0  0  0  0  0
  -29.6508  -13.5323   17.7821 H   0  0  0  0  0  0
  -27.8218  -11.3245   18.7970 H   0  0  0  0  0  0
  -27.3483  -12.6680   17.7889 H   0  0  0  0  0  0
  -27.7212  -14.2596   19.6004 H   0  0  0  0  0  0
  -28.6519  -11.9386   21.3552 H   0  0  0  0  0  0
  -28.4538  -13.5907   21.8583 H   0  0  0  0  0  0
  -25.2744   -9.5704   22.4733 H   0  0  0  0  0  0
  -23.9995   -7.4647   22.7472 H   0  0  0  0  0  0
  -21.0817   -8.8759   19.8958 H   0  0  0  0  0  0
  -22.3651  -10.9667   19.6153 H   0  0  0  0  0  0
  -21.1998   -7.6139   23.9701 H   0  0  0  0  0  0
  -21.1489   -6.0518   25.9068 H   0  0  0  0  0  0
  -22.0595   -2.7596   23.2855 H   0  0  0  0  0  0
  -22.4111  -11.9899   22.4789 H   0  0  0  0  0  0
  -21.1113  -13.1263   22.2592 H   0  0  0  0  0  0
  -24.6665  -15.8447   20.5066 H   0  0  0  0  0  0
  -26.2903  -15.6243   20.0913 H   0  0  0  0  0  0
  -26.7084  -32.5593   23.1161 H   0  0  0  0  0  0
  -25.0066  -33.9842   25.0516 H   0  0  0  0  0  0
  -22.6872  -31.3087   21.4082 H   0  0  0  0  0  0
  -23.3725  -35.9680   23.3365 H   0  0  0  0  0  0
  -24.3581  -36.8894   22.2048 H   0  0  0  0  0  0
  -23.7249  -37.6557   23.6605 H   0  0  0  0  0  0
  -26.0233  -31.6102   20.5781 H   0  0  0  0  0  0
  -26.8158  -30.9149   21.9584 H   0  0  0  0  0  0
  -28.1023  -29.1445   21.1409 H   0  0  0  0  0  0
  -26.0877  -25.9932   18.9930 H   0  0  0  0  0  0
  -23.9823  -27.2832   19.0540 H   0  0  0  0  0  0
  -23.7036  -30.5933   19.4083 H   0  0  0  0  0  0
  -22.7270  -29.2385   19.8809 H   0  0  0  0  0  0
  -25.1263  -36.2030   25.0830 H   0  0  0  0  0  0
  -20.9947  -28.3217   24.1489 H   0  0  0  0  0  0
  -20.5739  -26.2206   23.3628 H   0  0  0  0  0  0
  -21.6626  -26.7493   22.1172 H   0  0  0  0  0  0
  -19.6929  -25.6327   21.1240 H   0  0  0  0  0  0
  -19.6724  -27.3243   20.6807 H   0  0  0  0  0  0
  -17.4205  -26.6707   21.4020 H   0  0  0  0  0  0
  -18.0254  -26.0098   22.9030 H   0  0  0  0  0  0
  -19.7909  -30.7246   24.2313 H   0  0  0  0  0  0
  -17.4997  -31.6285   24.5139 H   0  0  0  0  0  0
  -15.5329  -30.2993   23.7667 H   0  0  0  0  0  0
  -15.8660  -28.0866   22.7032 H   0  0  0  0  0  0
  -24.5889  -30.7049   25.7879 H   0  0  0  0  0  0
  -24.8881  -32.2831   26.5011 H   0  0  0  0  0  0
  -25.8097  -30.8868   27.0249 H   0  0  0  0  0  0
  -26.2723  -29.6883   24.1061 H   0  0  0  0  0  0
  -27.3991  -29.7256   25.4466 H   0  0  0  0  0  0
  -27.8558  -30.4399   23.9135 H   0  0  0  0  0  0
  -27.2742  -33.3586   26.2087 H   0  0  0  0  0  0
  -28.3790  -32.6912   25.0228 H   0  0  0  0  0  0
  -28.0774  -31.8375   26.5291 H   0  0  0  0  0  0
  -28.2634  -38.0086   24.7503 H   0  0  0  0  0  0
  -28.1027  -36.2626   24.6287 H   0  0  0  0  0  0
  -27.2312  -37.1499   25.8883 H   0  0  0  0  0  0
  -20.9264  -29.8723   21.6983 H   0  0  0  0  0  0
  -26.0203  -38.2900   24.1379 H   0  0  0  0  0  0
  -28.8018  -22.1854   22.2020 H   0  0  0  0  0  0
  -28.1871  -20.5534   22.2279 H   0  0  0  0  0  0
  -28.2944  -19.1276   20.2344 H   0  0  0  0  0  0
  -28.6906  -19.7492   18.6546 H   0  0  0  0  0  0
  -30.5115  -20.6353   23.2093 H   0  0  0  0  0  0
  -31.0427  -21.5296   21.8288 H   0  0  0  0  0  0
  -31.0511  -20.1275   19.3479 H   0  0  0  0  0  0
  -30.6313  -18.4493   19.4386 H   0  0  0  0  0  0
  -29.6217  -21.8131   19.8445 H   0  0  0  0  0  0
  -31.9594  -19.5441   21.3673 H   0  0  0  0  0  0
  -26.6191  -21.3731   19.9114 H   0  0  0  0  0  0
  -27.5681  -21.9857   18.5892 H   0  0  0  0  0  0
  -31.2450  -15.9046   23.6354 H   0  0  0  0  0  0
  -32.4874  -15.2972   22.5944 H   0  0  0  0  0  0
  -31.9759  -17.0727   20.8734 H   0  0  0  0  0  0
  -32.5970  -17.6405   22.3922 H   0  0  0  0  0  0
  -29.3995  -23.8903   19.9054 H   0  0  0  0  0  0
  -28.2995  -24.6359   18.7979 H   0  0  0  0  0  0
  -29.2778  -25.5266   21.4154 H   0  0  0  0  0  0
  -27.5477  -25.5064   21.4767 H   0  0  0  0  0  0
  -29.8213  -14.5321   22.4526 H   0  0  0  0  0  0
  -29.7476  -17.7376   21.6895 H   0  0  0  0  0  0
  -30.4303  -18.3201   23.0424 H   0  0  0  0  0  0
  -27.2186  -23.2905   21.1771 H   0  0  0  0  0  0
  -26.4678  -23.6794   19.7991 H   0  0  0  0  0  0
  1 25  1  0  0  0
  1 30  2  0  0  0
  1 82  1  0  0  0
  2  3  1  0  0  0
  2 25  1  0  0  0
  2 85  1  0  0  0
  2 86  1  0  0  0
  3  4  1  0  0  0
  3 87  1  0  0  0
  3 88  1  0  0  0
  4  5  1  0  0  0
  4 89  1  0  0  0
  4 90  1  0  0  0
  5  6  1  0  0  0
  5 26  1  0  0  0
  5 91  1  0  0  0
  6 25  1  0  0  0
  6 92  1  0  0  0
  6 93  1  0  0  0
  7  8  2  0  0  0
  7 26  1  0  0  0
  7 29  1  0  0  0
  8  9  1  0  0  0
  8 22  1  0  0  0
  9 10  1  0  0  0
  9 27  2  0  0  0
 10 11  2  0  0  0
 10 15  1  0  0  0
 11 12  1  0  0  0
 11 94  1  0  0  0
 12 13  2  0  0  0
 12 95  1  0  0  0
 13 14  1  0  0  0
 13 31  1  0  0  0
 14 15  2  0  0  0
 14 96  1  0  0  0
 15 97  1  0  0  0
 16 17  2  0  0  0
 16 21  1  0  0  0
 16 31  1  0  0  0
 17 18  1  0  0  0
 17 98  1  0  0  0
 18 19  2  0  0  0
 18 99  1  0  0  0
 19 20  1  0  0  0
 19 24  1  0  0  0
 20 21  2  0  0  0
 20100  1  0  0  0
 21 23  1  0  0  0
 22 28  1  0  0  0
 22 32  2  0  0  0
 26 27  1  0  0  0
 28101  1  0  0  0
 28102  1  0  0  0
 29103  1  0  0  0
 29104  1  0  0  0
 33 34  1  0  0  0
 33 66  1  0  0  0
 33 70  2  0  0  0
 34 36  1  0  0  0
 34 59  1  0  0  0
 34105  1  0  0  0
 35 44  2  0  0  0
 35 45  1  0  0  0
 35 68  1  0  0  0
 36 56  1  0  0  0
 36106  1  0  0  0
 37 39  1  0  0  0
 37 47  1  0  0  0
 37 66  1  0  0  0
 37107  1  0  0  0
 38 43  2  0  0  0
 38 46  1  0  0  0
 38 47  1  0  0  0
 39 64  1  0  0  0
 39 67  2  0  0  0
 40 52  1  0  0  0
 40 53  2  0  0  0
 40 58  1  0  0  0
 41108  1  0  0  0
 41109  1  0  0  0
 41110  1  0  0  0
 41 48  1  0  0  0
 42 43  1  0  0  0
 42 66  1  0  0  0
 42111  1  0  0  0
 42112  1  0  0  0
 43 44  1  0  0  0
 44113  1  0  0  0
 45 46  2  0  0  0
 45114  1  0  0  0
 46115  1  0  0  0
 47116  1  0  0  0
 47117  1  0  0  0
 48 56  1  0  0  0
 48 65  1  0  0  0
 48118  1  0  0  0
 49 50  1  0  0  0
 49 53  1  0  0  0
 49 64  1  0  0  0
 49119  1  0  0  0
 50 51  1  0  0  0
 50120  1  0  0  0
 50121  1  0  0  0
 51 52  1  0  0  0
 51122  1  0  0  0
 51123  1  0  0  0
 52124  1  0  0  0
 52125  1  0  0  0
 53 54  1  0  0  0
 54 55  2  0  0  0
 54126  1  0  0  0
 55 57  1  0  0  0
 55127  1  0  0  0
 56 69  2  0  0  0
 57 58  2  0  0  0
 57128  1  0  0  0
 58129  1  0  0  0
 59 60  1  0  0  0
 59 61  1  0  0  0
 59 62  1  0  0  0
 60130  1  0  0  0
 60131  1  0  0  0
 60132  1  0  0  0
 61133  1  0  0  0
 61134  1  0  0  0
 61135  1  0  0  0
 62136  1  0  0  0
 62137  1  0  0  0
 62138  1  0  0  0
 63 65  1  0  0  0
 63139  1  0  0  0
 63140  1  0  0  0
 63141  1  0  0  0
 64142  1  0  0  0
 65143  1  0  0  0
 68 81  1  0  0  0
 71 73  1  0  0  0
 71 75  1  0  0  0
 71144  1  0  0  0
 71145  1  0  0  0
 72 74  1  0  0  0
 72 75  1  0  0  0
 72146  1  0  0  0
 72147  1  0  0  0
 73 76  1  0  0  0
 73148  1  0  0  0
 73149  1  0  0  0
 74 76  1  0  0  0
 74150  1  0  0  0
 74151  1  0  0  0
 75 77  1  0  0  0
 75152  1  0  0  0
 76 83  1  0  0  0
 76153  1  0  0  0
 77 84  1  0  0  0
 77154  1  0  0  0
 77155  1  0  0  0
 78 79  1  0  0  0
 78 82  1  0  0  0
 78156  1  0  0  0
 78157  1  0  0  0
 79 83  1  0  0  0
 79158  1  0  0  0
 79159  1  0  0  0
 80 81  1  0  0  0
 80 84  1  0  0  0
 80160  1  0  0  0
 80161  1  0  0  0
 81162  1  0  0  0
 81163  1  0  0  0
 82164  1  0  0  0
 83165  1  0  0  0
 83166  1  0  0  0
 84167  1  0  0  0
 84168  1  0  0  0
M  CHG  2  83   1  84   1
M  ISO  4   1 100  68 101  81 101  82 100
M  END
> <chiral flag>
0

> <version>
0

> <s_m_source_file>
/data/baiqing/PycharmProjects/Reinvent-master-3.2/result/LINK_invent/BTK/process_docking_weight1_custom_sum_contain_oxygen_bond_distance_aromatic_linkinvent_7_9_3/rearranged_h_0129.sdf

> <i_m_source_file_index>
61

> <r_mmod_Potential_Energy-OPLS-2005>
-288.928100585938

> <r_mmod_Stretch_Energy-OPLS-2005>
34.7244148254395

> <r_mmod_Bend_Energy-OPLS-2005>
109.377220153809

> <r_mmod_Torsional_Energy-OPLS-2005>
320.803039550781

> <r_mmod_Improper_Torsional_Energy-OPLS-2005>
3.97069716453552

> <r_mmod_Van_der_Waal_Energy-OPLS-2005>
140.263702392578

> <r_mmod_Electrostatic_Energy-OPLS-2005>
-3.86079430580139

> <r_mmod_Solvation_Energy-OPLS-2005>
-901.742309570312

> <b_mmod_Minimization_Converged-OPLS-2005>
0

> <r_mmod_RMS_Derivative-OPLS-2005>
4.82654809951782

$$$$
61
                    3D
 Structure written by MMmdl.
169178  0  0  1  0            999 V2000
  -30.6625  -14.5581   20.5824 C   0  0  0  0  0  0
  -30.4331  -12.3676   19.4246 C   0  0  0  0  0  0
  -29.4989  -12.5146   18.2054 C   0  0  0  0  0  0
  -28.0219  -12.3566   18.6201 C   0  0  0  0  0  0
  -27.6556  -13.2100   19.8637 C   0  0  2  0  0  0
  -28.6983  -13.0213   20.9868 C   0  0  0  0  0  0
  -25.2571  -13.8158   20.5688 C   0  0  0  0  0  0
  -24.1829  -13.0432   20.9181 C   0  0  0  0  0  0
  -24.6394  -11.6903   20.8724 C   0  0  0  0  0  0
  -23.9072  -10.4290   21.0389 C   0  0  0  0  0  0
  -24.3622   -9.4213   21.9177 C   0  0  0  0  0  0
  -23.6295   -8.2251   22.0753 C   0  0  0  0  0  0
  -22.4275   -8.0281   21.3549 C   0  0  0  0  0  0
  -21.9919   -9.0252   20.4642 C   0  0  0  0  0  0
  -22.7244  -10.2129   20.3043 C   0  0  0  0  0  0
  -21.6851   -6.0741   22.5281 C   0  0  0  0  0  0
  -21.4014   -6.5642   23.8211 C   0  0  0  0  0  0
  -21.3662   -5.6791   24.9174 C   0  0  0  0  0  0
  -21.6048   -4.3058   24.7226 C   0  0  0  0  0  0
  -21.8822   -3.8153   23.4340 C   0  0  0  0  0  0
  -21.9195   -4.6969   22.3401 C   0  0  0  0  0  0
  -22.7859  -13.5228   21.1858 C   0  0  0  0  0  0
  -22.1665   -4.2163   21.0977 F   0  0  0  0  0  0
  -21.5629   -3.4541   25.7734 F   0  0  0  0  0  0
  -30.0172  -13.3631   20.4277 N   0  0  0  0  0  0
  -26.2991  -12.9331   20.3297 N   0  0  0  0  0  0
  -25.9317  -11.6499   20.5731 N   0  0  0  0  0  0
  -22.0499  -12.8205   22.0398 N   0  0  0  0  0  0
  -25.4289  -15.1881   20.4128 N   0  0  0  0  0  0
  -31.8018  -14.7482   20.1486 O   0  0  0  0  0  0
  -21.6635   -6.8880   21.4241 O   0  0  0  0  0  0
  -22.3559  -14.5544   20.6720 O   0  0  0  0  0  0
  -24.6220  -31.8600   23.2053 C   0  0  0  0  0  0
  -25.9082  -32.4769   23.8351 C   0  0  1  0  0  0
  -27.2423  -27.3630   20.0958 C   0  0  0  0  0  0
  -25.5891  -33.8570   24.2263 N   0  0  0  0  0  0
  -23.4157  -30.4858   21.5425 C   0  0  2  0  0  0
  -24.8660  -28.9445   20.1073 C   0  0  0  0  0  0
  -22.7444  -29.4629   22.4900 C   0  0  0  0  0  0
  -18.0279  -28.1389   22.8499 C   0  0  0  0  0  0
  -24.1453  -36.7304   23.2669 C   0  0  0  0  0  0
  -25.9534  -30.7986   21.3770 C   0  0  0  0  0  0
  -26.0279  -29.4310   20.7175 C   0  0  0  0  0  0
  -27.2130  -28.6456   20.7135 C   0  0  0  0  0  0
  -26.0504  -26.9051   19.4884 C   0  0  0  0  0  0
  -24.8751  -27.6836   19.4889 C   0  0  0  0  0  0
  -23.6322  -29.8233   20.1562 C   0  0  0  0  0  0
  -25.4086  -36.3067   24.0330 C   0  0  1  0  0  0
  -20.5874  -28.3688   23.1275 C   0  0  2  0  0  0
  -20.6761  -26.9409   22.5406 C   0  0  0  0  0  0
  -19.5724  -26.6385   21.5215 C   0  0  0  0  0  0
  -18.1902  -26.7929   22.1624 C   0  0  0  0  0  0
  -19.1537  -28.8849   23.2888 C   0  0  0  0  0  0
  -18.9468  -30.1451   23.8899 C   0  0  0  0  0  0
  -17.6472  -30.6592   24.0568 C   0  0  0  0  0  0
  -25.9019  -34.9439   23.5095 C   0  0  0  0  0  0
  -16.5357  -29.9102   23.6341 C   0  0  0  0  0  0
  -16.7272  -28.6524   23.0354 C   0  0  0  0  0  0
  -26.4513  -31.6611   25.0723 C   0  0  0  0  0  0
  -25.3779  -31.3706   26.1480 C   0  0  0  0  0  0
  -27.0458  -30.3054   24.6237 C   0  0  0  0  0  0
  -27.6032  -32.4436   25.7468 C   0  0  0  0  0  0
  -27.5550  -37.1782   24.8467 C   0  0  0  0  0  0
  -21.4164  -29.3040   22.3646 N   0  0  0  0  0  0
  -26.4254  -37.3765   23.9420 N   0  0  0  0  0  0
  -24.6810  -31.0651   22.0986 N   0  0  0  0  0  0
  -23.4166  -28.8158   23.2973 O   0  0  0  0  0  0
  -28.3986  -26.5792   20.1413 O   0  0  0  0  0  0
  -26.5602  -34.8901   22.4662 O   0  0  0  0  0  0
  -23.5395  -32.1394   23.7408 O   0  0  0  0  0  0
  -29.1198  -23.2222   20.6506 C   0  0  0  0  0  0
  -30.0850  -18.2015   21.0376 C   0  0  0  0  0  0
  -30.2483  -24.2242   17.8772 C   0  0  0  0  0  0
  -29.6426  -20.6946   23.7246 C   0  0  0  0  0  0
  -28.9911  -23.3810   18.1618 C   0  0  0  0  0  0
  -30.0595  -25.5507   18.6354 C   0  0  0  0  0  0
  -30.6539  -21.2342   22.7303 C   0  0  0  0  0  0
  -29.3064  -19.3240   23.1447 C   0  0  0  0  0  0
  -28.3943  -23.9478   19.4705 C   0  0  2  0  0  0
  -28.6312  -25.4946   19.1890 C   0  0  1  0  0  0
  -30.0915  -20.7578   21.3787 C   0  0  2  0  0  0
  -31.6699  -16.7724   22.5097 C   0  0  0  0  0  0
  -28.9021  -21.6680   20.8418 C   0  0  0  0  0  0
  -30.3002  -16.8392   21.7990 C   0  0  2  0  0  0
  -29.7256  -19.3393   21.7292 N   0  0  0  0  0  0
  -29.9295  -15.5361   21.1724 N   0  0  0  0  0  0
  -29.8224  -23.8787   21.4206 O   0  0  0  0  0  0
  -30.3508  -18.2365   19.8332 O   0  0  0  0  0  0
  -31.4740  -12.4905   19.1219 H   0  0  0  0  0  0
  -30.3626  -11.3615   19.8408 H   0  0  0  0  0  0
  -29.7526  -11.7763   17.4436 H   0  0  0  0  0  0
  -29.6490  -13.4923   17.7440 H   0  0  0  0  0  0
  -27.8474  -11.3012   18.8309 H   0  0  0  0  0  0
  -27.3688  -12.6079   17.7840 H   0  0  0  0  0  0
  -27.6878  -14.2530   19.5472 H   0  0  0  0  0  0
  -28.7004  -11.9873   21.3359 H   0  0  0  0  0  0
  -28.4396  -13.6195   21.8622 H   0  0  0  0  0  0
  -25.2765   -9.5700   22.4757 H   0  0  0  0  0  0
  -24.0011   -7.4645   22.7474 H   0  0  0  0  0  0
  -21.0863   -8.8768   19.8935 H   0  0  0  0  0  0
  -22.3707  -10.9671   19.6153 H   0  0  0  0  0  0
  -21.2000   -7.6149   23.9724 H   0  0  0  0  0  0
  -21.1483   -6.0518   25.9080 H   0  0  0  0  0  0
  -22.0599   -2.7618   23.2833 H   0  0  0  0  0  0
  -22.4109  -11.9853   22.4769 H   0  0  0  0  0  0
  -21.1112  -13.1225   22.2591 H   0  0  0  0  0  0
  -24.6601  -15.8398   20.5234 H   0  0  0  0  0  0
  -26.2755  -15.6323   20.0806 H   0  0  0  0  0  0
  -26.7140  -32.5451   23.1094 H   0  0  0  0  0  0
  -25.0008  -33.9708   25.0389 H   0  0  0  0  0  0
  -22.7095  -31.3060   21.3984 H   0  0  0  0  0  0
  -23.3685  -35.9660   23.3350 H   0  0  0  0  0  0
  -24.3563  -36.8942   22.2086 H   0  0  0  0  0  0
  -23.7207  -37.6502   23.6717 H   0  0  0  0  0  0
  -26.0914  -31.5662   20.6143 H   0  0  0  0  0  0
  -26.8289  -30.8382   22.0133 H   0  0  0  0  0  0
  -28.1067  -29.0170   21.1966 H   0  0  0  0  0  0
  -26.0018  -25.9309   19.0279 H   0  0  0  0  0  0
  -23.9817  -27.3021   19.0150 H   0  0  0  0  0  0
  -23.7520  -30.6022   19.4020 H   0  0  0  0  0  0
  -22.7517  -29.2568   19.8507 H   0  0  0  0  0  0
  -25.1254  -36.1919   25.0816 H   0  0  0  0  0  0
  -20.9987  -28.3285   24.1391 H   0  0  0  0  0  0
  -20.5674  -26.2299   23.3610 H   0  0  0  0  0  0
  -21.6626  -26.7452   22.1182 H   0  0  0  0  0  0
  -19.6885  -25.6302   21.1231 H   0  0  0  0  0  0
  -19.6635  -27.3210   20.6747 H   0  0  0  0  0  0
  -17.4165  -26.6692   21.4024 H   0  0  0  0  0  0
  -18.0307  -26.0062   22.9006 H   0  0  0  0  0  0
  -19.7947  -30.7276   24.2249 H   0  0  0  0  0  0
  -17.5034  -31.6280   24.5157 H   0  0  0  0  0  0
  -15.5358  -30.3005   23.7685 H   0  0  0  0  0  0
  -15.8665  -28.0869   22.7045 H   0  0  0  0  0  0
  -24.5888  -30.7139   25.7816 H   0  0  0  0  0  0
  -24.9047  -32.2854   26.5048 H   0  0  0  0  0  0
  -25.8137  -30.8767   27.0170 H   0  0  0  0  0  0
  -26.3069  -29.6632   24.1424 H   0  0  0  0  0  0
  -27.4347  -29.7484   25.4774 H   0  0  0  0  0  0
  -27.8827  -30.4366   23.9369 H   0  0  0  0  0  0
  -27.2598  -33.3738   26.2019 H   0  0  0  0  0  0
  -28.3822  -32.7038   25.0286 H   0  0  0  0  0  0
  -28.0731  -31.8612   26.5408 H   0  0  0  0  0  0
  -28.2556  -38.0087   24.7544 H   0  0  0  0  0  0
  -28.1039  -36.2615   24.6256 H   0  0  0  0  0  0
  -27.2294  -37.1437   25.8876 H   0  0  0  0  0  0
  -20.9311  -29.8793   21.6897 H   0  0  0  0  0  0
  -26.0130  -38.2824   24.1456 H   0  0  0  0  0  0
  -30.3814  -24.3772   16.8052 H   0  0  0  0  0  0
  -31.1431  -23.7164   18.2411 H   0  0  0  0  0  0
  -28.7534  -21.3284   23.7474 H   0  0  0  0  0  0
  -30.0349  -20.6387   24.7412 H   0  0  0  0  0  0
  -29.2369  -22.3186   18.1900 H   0  0  0  0  0  0
  -28.2737  -23.5010   17.3487 H   0  0  0  0  0  0
  -30.2122  -26.4182   17.9925 H   0  0  0  0  0  0
  -30.7784  -25.6191   19.4524 H   0  0  0  0  0  0
  -31.6190  -20.7565   22.9075 H   0  0  0  0  0  0
  -30.8275  -22.2987   22.8464 H   0  0  0  0  0  0
  -28.2404  -19.1040   23.2289 H   0  0  0  0  0  0
  -29.8422  -18.5884   23.7404 H   0  0  0  0  0  0
  -27.3307  -23.7220   19.5503 H   0  0  0  0  0  0
  -28.0225  -25.7265   18.3131 H   0  0  0  0  0  0
  -30.8933  -20.7676   20.6380 H   0  0  0  0  0  0
  -31.8409  -17.6412   23.1467 H   0  0  0  0  0  0
  -32.4859  -16.7486   21.7858 H   0  0  0  0  0  0
  -31.7557  -15.8871   23.1403 H   0  0  0  0  0  0
  -28.5635  -21.2531   19.8952 H   0  0  0  0  0  0
  -28.0475  -21.5595   21.5086 H   0  0  0  0  0  0
  -29.5582  -16.8392   22.5946 H   0  0  0  0  0  0
  -28.9805  -15.2547   21.3661 H   0  0  0  0  0  0
  1 25  1  0  0  0
  1 30  2  0  0  0
  1 86  1  0  0  0
  2  3  1  0  0  0
  2 25  1  0  0  0
  2 89  1  0  0  0
  2 90  1  0  0  0
  3  4  1  0  0  0
  3 91  1  0  0  0
  3 92  1  0  0  0
  4  5  1  0  0  0
  4 93  1  0  0  0
  4 94  1  0  0  0
  5  6  1  0  0  0
  5 26  1  0  0  0
  5 95  1  0  0  0
  6 25  1  0  0  0
  6 96  1  0  0  0
  6 97  1  0  0  0
  7  8  2  0  0  0
  7 26  1  0  0  0
  7 29  1  0  0  0
  8  9  1  0  0  0
  8 22  1  0  0  0
  9 10  1  0  0  0
  9 27  2  0  0  0
 10 11  2  0  0  0
 10 15  1  0  0  0
 11 12  1  0  0  0
 11 98  1  0  0  0
 12 13  2  0  0  0
 12 99  1  0  0  0
 13 14  1  0  0  0
 13 31  1  0  0  0
 14 15  2  0  0  0
 14100  1  0  0  0
 15101  1  0  0  0
 16 17  2  0  0  0
 16 21  1  0  0  0
 16 31  1  0  0  0
 17 18  1  0  0  0
 17102  1  0  0  0
 18 19  2  0  0  0
 18103  1  0  0  0
 19 20  1  0  0  0
 19 24  1  0  0  0
 20 21  2  0  0  0
 20104  1  0  0  0
 21 23  1  0  0  0
 22 28  1  0  0  0
 22 32  2  0  0  0
 26 27  1  0  0  0
 28105  1  0  0  0
 28106  1  0  0  0
 29107  1  0  0  0
 29108  1  0  0  0
 33 34  1  0  0  0
 33 66  1  0  0  0
 33 70  2  0  0  0
 34 36  1  0  0  0
 34 59  1  0  0  0
 34109  1  0  0  0
 35 44  2  0  0  0
 35 45  1  0  0  0
 35 68  1  0  0  0
 36 56  1  0  0  0
 36110  1  0  0  0
 37 39  1  0  0  0
 37 47  1  0  0  0
 37 66  1  0  0  0
 37111  1  0  0  0
 38 43  2  0  0  0
 38 46  1  0  0  0
 38 47  1  0  0  0
 39 64  1  0  0  0
 39 67  2  0  0  0
 40 52  1  0  0  0
 40 53  2  0  0  0
 40 58  1  0  0  0
 41112  1  0  0  0
 41113  1  0  0  0
 41114  1  0  0  0
 41 48  1  0  0  0
 42 43  1  0  0  0
 42 66  1  0  0  0
 42115  1  0  0  0
 42116  1  0  0  0
 43 44  1  0  0  0
 44117  1  0  0  0
 45 46  2  0  0  0
 45118  1  0  0  0
 46119  1  0  0  0
 47120  1  0  0  0
 47121  1  0  0  0
 48 56  1  0  0  0
 48 65  1  0  0  0
 48122  1  0  0  0
 49 50  1  0  0  0
 49 53  1  0  0  0
 49 64  1  0  0  0
 49123  1  0  0  0
 50 51  1  0  0  0
 50124  1  0  0  0
 50125  1  0  0  0
 51 52  1  0  0  0
 51126  1  0  0  0
 51127  1  0  0  0
 52128  1  0  0  0
 52129  1  0  0  0
 53 54  1  0  0  0
 54 55  2  0  0  0
 54130  1  0  0  0
 55 57  1  0  0  0
 55131  1  0  0  0
 56 69  2  0  0  0
 57 58  2  0  0  0
 57132  1  0  0  0
 58133  1  0  0  0
 59 60  1  0  0  0
 59 61  1  0  0  0
 59 62  1  0  0  0
 60134  1  0  0  0
 60135  1  0  0  0
 60136  1  0  0  0
 61137  1  0  0  0
 61138  1  0  0  0
 61139  1  0  0  0
 62140  1  0  0  0
 62141  1  0  0  0
 62142  1  0  0  0
 63 65  1  0  0  0
 63143  1  0  0  0
 63144  1  0  0  0
 63145  1  0  0  0
 64146  1  0  0  0
 65147  1  0  0  0
 68 80  1  0  0  0
 71 83  1  0  0  0
 71 87  2  0  0  0
 71 79  1  0  0  0
 72 84  1  0  0  0
 72 85  1  0  0  0
 72 88  2  0  0  0
 73 75  1  0  0  0
 73 76  1  0  0  0
 73148  1  0  0  0
 73149  1  0  0  0
 74 77  1  0  0  0
 74 78  1  0  0  0
 74150  1  0  0  0
 74151  1  0  0  0
 75 79  1  0  0  0
 75152  1  0  0  0
 75153  1  0  0  0
 76 80  1  0  0  0
 76154  1  0  0  0
 76155  1  0  0  0
 77 81  1  0  0  0
 77156  1  0  0  0
 77157  1  0  0  0
 78 85  1  0  0  0
 78158  1  0  0  0
 78159  1  0  0  0
 79 80  1  0  0  0
 79160  1  0  0  0
 80161  1  0  0  0
 81 83  1  0  0  0
 81 85  1  0  0  0
 81162  1  0  0  0
 82163  1  0  0  0
 82164  1  0  0  0
 82165  1  0  0  0
 82 84  1  0  0  0
 83166  1  0  0  0
 83167  1  0  0  0
 84 86  1  0  0  0
 84168  1  0  0  0
 86169  1  0  0  0
M  ISO  4   1 100  68 101  80 101  86 100
M  END
> <chiral flag>
0

> <version>
0

> <s_m_source_file>
/data/baiqing/PycharmProjects/Reinvent-master-3.2/result/LINK_invent/BTK/process_docking_weight1_custom_sum_contain_oxygen_bond_distance_aromatic_linkinvent_7_9_3/rearranged_h_0129.sdf

> <i_m_source_file_index>
62

> <r_mmod_Potential_Energy-OPLS-2005>
201.405685424805

> <r_mmod_Stretch_Energy-OPLS-2005>
71.5874328613281

> <r_mmod_Bend_Energy-OPLS-2005>
235.655258178711

> <r_mmod_Torsional_Energy-OPLS-2005>
316.255493164062

> <r_mmod_Improper_Torsional_Energy-OPLS-2005>
4.57311630249023

> <r_mmod_Van_der_Waal_Energy-OPLS-2005>
136.107467651367

> <r_mmod_Electrostatic_Energy-OPLS-2005>
-343.031463623047

> <r_mmod_Solvation_Energy-OPLS-2005>
-247.889785766602

> <b_mmod_Minimization_Converged-OPLS-2005>
0

> <r_mmod_RMS_Derivative-OPLS-2005>
2.55284023284912

$$$$
62
                    3D
 Structure written by MMmdl.
169178  0  0  1  0            999 V2000
  -30.6887  -14.5722   20.5032 C   0  0  0  0  0  0
  -30.4217  -12.3523   19.4468 C   0  0  0  0  0  0
  -29.4983  -12.4965   18.2191 C   0  0  0  0  0  0
  -28.0210  -12.3468   18.6335 C   0  0  0  0  0  0
  -27.6520  -13.2099   19.8702 C   0  0  2  0  0  0
  -28.7011  -13.0712   20.9949 C   0  0  0  0  0  0
  -25.2561  -13.8156   20.5719 C   0  0  0  0  0  0
  -24.1817  -13.0428   20.9202 C   0  0  0  0  0  0
  -24.6379  -11.6898   20.8751 C   0  0  0  0  0  0
  -23.9047  -10.4286   21.0405 C   0  0  0  0  0  0
  -24.3604   -9.4206   21.9182 C   0  0  0  0  0  0
  -23.6282   -8.2240   22.0755 C   0  0  0  0  0  0
  -22.4266   -8.0276   21.3544 C   0  0  0  0  0  0
  -21.9897   -9.0246   20.4644 C   0  0  0  0  0  0
  -22.7220  -10.2129   20.3051 C   0  0  0  0  0  0
  -21.6850   -6.0733   22.5281 C   0  0  0  0  0  0
  -21.4009   -6.5638   23.8213 C   0  0  0  0  0  0
  -21.3659   -5.6792   24.9177 C   0  0  0  0  0  0
  -21.6043   -4.3054   24.7225 C   0  0  0  0  0  0
  -21.8819   -3.8145   23.4347 C   0  0  0  0  0  0
  -21.9192   -4.6962   22.3403 C   0  0  0  0  0  0
  -22.7842  -13.5231   21.1857 C   0  0  0  0  0  0
  -22.1664   -4.2148   21.0981 F   0  0  0  0  0  0
  -21.5630   -3.4539   25.7739 F   0  0  0  0  0  0
  -30.0170  -13.3840   20.4188 N   0  0  0  0  0  0
  -26.2986  -12.9322   20.3389 N   0  0  0  0  0  0
  -25.9310  -11.6485   20.5801 N   0  0  0  0  0  0
  -22.0478  -12.8220   22.0407 N   0  0  0  0  0  0
  -25.4282  -15.1874   20.4133 N   0  0  0  0  0  0
  -31.8632  -14.6723   20.1383 O   0  0  0  0  0  0
  -21.6633   -6.8872   21.4241 O   0  0  0  0  0  0
  -22.3534  -14.5540   20.6706 O   0  0  0  0  0  0
  -24.6227  -31.8653   23.2108 C   0  0  0  0  0  0
  -25.9098  -32.4806   23.8406 C   0  0  1  0  0  0
  -27.2138  -27.3553   20.0923 C   0  0  0  0  0  0
  -25.5933  -33.8607   24.2325 N   0  0  0  0  0  0
  -23.4128  -30.4953   21.5537 C   0  0  2  0  0  0
  -24.8557  -28.9691   20.1084 C   0  0  0  0  0  0
  -22.7457  -29.4652   22.4957 C   0  0  0  0  0  0
  -18.0283  -28.1381   22.8491 C   0  0  0  0  0  0
  -24.1489  -36.7307   23.2636 C   0  0  0  0  0  0
  -25.9547  -30.8025   21.3838 C   0  0  0  0  0  0
  -26.0243  -29.4360   20.7224 C   0  0  0  0  0  0
  -27.2028  -28.6353   20.7199 C   0  0  0  0  0  0
  -26.0258  -26.9636   19.4206 C   0  0  0  0  0  0
  -24.8562  -27.7344   19.4529 C   0  0  0  0  0  0
  -23.6241  -29.8443   20.1642 C   0  0  0  0  0  0
  -25.4111  -36.3101   24.0333 C   0  0  1  0  0  0
  -20.5882  -28.3683   23.1292 C   0  0  2  0  0  0
  -20.6774  -26.9412   22.5410 C   0  0  0  0  0  0
  -19.5747  -26.6385   21.5213 C   0  0  0  0  0  0
  -18.1927  -26.7926   22.1626 C   0  0  0  0  0  0
  -19.1536  -28.8848   23.2889 C   0  0  0  0  0  0
  -18.9459  -30.1451   23.8903 C   0  0  0  0  0  0
  -17.6459  -30.6586   24.0564 C   0  0  0  0  0  0
  -25.9048  -34.9466   23.5123 C   0  0  0  0  0  0
  -16.5350  -29.9086   23.6328 C   0  0  0  0  0  0
  -16.7271  -28.6503   23.0351 C   0  0  0  0  0  0
  -26.4496  -31.6597   25.0756 C   0  0  0  0  0  0
  -25.3741  -31.3718   26.1489 C   0  0  0  0  0  0
  -27.0343  -30.3026   24.6191 C   0  0  0  0  0  0
  -27.6061  -32.4328   25.7518 C   0  0  0  0  0  0
  -27.5581  -37.1808   24.8463 C   0  0  0  0  0  0
  -21.4176  -29.3047   22.3694 N   0  0  0  0  0  0
  -26.4292  -37.3790   23.9410 N   0  0  0  0  0  0
  -24.6819  -31.0697   22.1055 N   0  0  0  0  0  0
  -23.4204  -28.8172   23.3003 O   0  0  0  0  0  0
  -28.3239  -26.4995   20.1688 O   0  0  0  0  0  0
  -26.5604  -34.8918   22.4681 O   0  0  0  0  0  0
  -23.5400  -32.1445   23.7451 O   0  0  0  0  0  0
  -30.0201  -23.3727   19.5415 C   0  0  0  0  0  0
  -28.4337  -23.1942   21.3445 C   0  0  0  0  0  0
  -28.9333  -23.9316   20.2480 C   0  0  0  0  0  0
  -30.5769  -22.1111   19.8955 C   0  0  0  0  0  0
  -28.9627  -21.9258   21.7049 C   0  0  0  0  0  0
  -30.0408  -21.3426   20.9755 C   0  0  0  0  0  0
  -29.4560  -16.2939   21.8221 C   0  0  0  0  0  0
  -30.0933  -17.6770   22.1654 C   0  0  0  0  0  0
  -30.5803  -18.0832   19.8217 C   0  0  0  0  0  0
  -29.9548  -16.7035   19.4452 C   0  0  2  0  0  0
  -31.7694  -21.6225   19.0865 C   0  0  0  0  0  0
  -28.3411  -21.2150   22.8977 C   0  0  0  0  0  0
  -28.5647  -16.8645   18.8004 C   0  0  0  0  0  0
  -30.6887  -19.9958   21.4433 C   0  0  0  0  0  0
  -28.1271  -25.1286   19.6840 C   0  0  0  0  0  0
  -29.9186  -15.7068   20.5507 N   0  0  0  0  0  0
  -30.0321  -18.6870   21.0651 N   0  3  2  0  0  0
  -31.4667  -12.4432   19.1454 H   0  0  0  0  0  0
  -30.3242  -11.3590   19.8880 H   0  0  0  0  0  0
  -29.7527  -11.7497   17.4657 H   0  0  0  0  0  0
  -29.6524  -13.4699   17.7504 H   0  0  0  0  0  0
  -27.8485  -11.2931   18.8558 H   0  0  0  0  0  0
  -27.3664  -12.5901   17.7958 H   0  0  0  0  0  0
  -27.6658  -14.2444   19.5417 H   0  0  0  0  0  0
  -28.7001  -12.0577   21.3984 H   0  0  0  0  0  0
  -28.4584  -13.7275   21.8302 H   0  0  0  0  0  0
  -25.2748   -9.5691   22.4752 H   0  0  0  0  0  0
  -23.9997   -7.4634   22.7476 H   0  0  0  0  0  0
  -21.0831   -8.8755   19.8947 H   0  0  0  0  0  0
  -22.3672  -10.9666   19.6159 H   0  0  0  0  0  0
  -21.1997   -7.6145   23.9714 H   0  0  0  0  0  0
  -21.1482   -6.0524   25.9080 H   0  0  0  0  0  0
  -22.0596   -2.7606   23.2849 H   0  0  0  0  0  0
  -22.4092  -11.9875   22.4783 H   0  0  0  0  0  0
  -21.1097  -13.1249   22.2617 H   0  0  0  0  0  0
  -24.6592  -15.8409   20.5141 H   0  0  0  0  0  0
  -26.2804  -15.6218   20.0854 H   0  0  0  0  0  0
  -26.7163  -32.5486   23.1155 H   0  0  0  0  0  0
  -25.0087  -33.9768   25.0472 H   0  0  0  0  0  0
  -22.7043  -31.3155   21.4197 H   0  0  0  0  0  0
  -23.3750  -35.9641   23.3299 H   0  0  0  0  0  0
  -24.3583  -36.8925   22.2050 H   0  0  0  0  0  0
  -23.7241  -37.6510   23.6655 H   0  0  0  0  0  0
  -26.0877  -31.5684   20.6184 H   0  0  0  0  0  0
  -26.8357  -30.8452   22.0122 H   0  0  0  0  0  0
  -28.0926  -28.9828   21.2264 H   0  0  0  0  0  0
  -25.9450  -26.0525   18.8492 H   0  0  0  0  0  0
  -23.9671  -27.3799   18.9495 H   0  0  0  0  0  0
  -23.7420  -30.6274   19.4145 H   0  0  0  0  0  0
  -22.7440  -29.2758   19.8584 H   0  0  0  0  0  0
  -25.1284  -36.1963   25.0826 H   0  0  0  0  0  0
  -20.9974  -28.3255   24.1412 H   0  0  0  0  0  0
  -20.5684  -26.2291   23.3604 H   0  0  0  0  0  0
  -21.6642  -26.7451   22.1196 H   0  0  0  0  0  0
  -19.6909  -25.6300   21.1234 H   0  0  0  0  0  0
  -19.6679  -27.3202   20.6748 H   0  0  0  0  0  0
  -17.4197  -26.6678   21.4027 H   0  0  0  0  0  0
  -18.0325  -26.0067   22.9020 H   0  0  0  0  0  0
  -19.7936  -30.7265   24.2275 H   0  0  0  0  0  0
  -17.5016  -31.6265   24.5169 H   0  0  0  0  0  0
  -15.5352  -30.2989   23.7650 H   0  0  0  0  0  0
  -15.8670  -28.0823   22.7063 H   0  0  0  0  0  0
  -24.5921  -30.7059   25.7822 H   0  0  0  0  0  0
  -24.8926  -32.2878   26.4922 H   0  0  0  0  0  0
  -25.8080  -30.8895   27.0257 H   0  0  0  0  0  0
  -26.2917  -29.6773   24.1219 H   0  0  0  0  0  0
  -27.4058  -29.7277   25.4683 H   0  0  0  0  0  0
  -27.8780  -30.4323   23.9409 H   0  0  0  0  0  0
  -27.2679  -33.3627   26.2101 H   0  0  0  0  0  0
  -28.3867  -32.6889   25.0343 H   0  0  0  0  0  0
  -28.0737  -31.8452   26.5429 H   0  0  0  0  0  0
  -28.2595  -38.0110   24.7522 H   0  0  0  0  0  0
  -28.1085  -36.2642   24.6279 H   0  0  0  0  0  0
  -27.2301  -37.1443   25.8867 H   0  0  0  0  0  0
  -20.9340  -29.8797   21.6937 H   0  0  0  0  0  0
  -26.0179  -38.2865   24.1417 H   0  0  0  0  0  0
  -30.4039  -23.9062   18.6825 H   0  0  0  0  0  0
  -27.5842  -23.5882   21.8857 H   0  0  0  0  0  0
  -28.3711  -16.3932   21.7730 H   0  0  0  0  0  0
  -29.6487  -15.6084   22.6496 H   0  0  0  0  0  0
  -31.1390  -17.5232   22.4374 H   0  0  0  0  0  0
  -29.6058  -18.0792   23.0548 H   0  0  0  0  0  0
  -30.4516  -18.7788   18.9933 H   0  0  0  0  0  0
  -31.6570  -17.9517   19.9417 H   0  0  0  0  0  0
  -30.5869  -16.3109   18.6446 H   0  0  0  0  0  0
  -32.0402  -22.3360   18.3077 H   0  0  0  0  0  0
  -31.5531  -20.6790   18.5902 H   0  0  0  0  0  0
  -32.6476  -21.4957   19.7198 H   0  0  0  0  0  0
  -27.4572  -21.7421   23.2586 H   0  0  0  0  0  0
  -29.0462  -21.1612   23.7277 H   0  0  0  0  0  0
  -28.0264  -20.2051   22.6373 H   0  0  0  0  0  0
  -27.8010  -17.1481   19.5246 H   0  0  0  0  0  0
  -28.2452  -15.9463   18.3102 H   0  0  0  0  0  0
  -28.5782  -17.6316   18.0251 H   0  0  0  0  0  0
  -30.7428  -20.0543   22.5306 H   0  0  0  0  0  0
  -31.7390  -19.9612   21.1578 H   0  0  0  0  0  0
  -27.1169  -24.7895   19.9060 H   0  0  0  0  0  0
  -28.2204  -25.1324   18.5970 H   0  0  0  0  0  0
  -29.0589  -18.8947   20.9020 H   0  0  0  0  0  0
  1 25  1  0  0  0
  1 30  2  0  0  0
  1 86  1  0  0  0
  2  3  1  0  0  0
  2 25  1  0  0  0
  2 88  1  0  0  0
  2 89  1  0  0  0
  3  4  1  0  0  0
  3 90  1  0  0  0
  3 91  1  0  0  0
  4  5  1  0  0  0
  4 92  1  0  0  0
  4 93  1  0  0  0
  5  6  1  0  0  0
  5 26  1  0  0  0
  5 94  1  0  0  0
  6 25  1  0  0  0
  6 95  1  0  0  0
  6 96  1  0  0  0
  7  8  2  0  0  0
  7 26  1  0  0  0
  7 29  1  0  0  0
  8  9  1  0  0  0
  8 22  1  0  0  0
  9 10  1  0  0  0
  9 27  2  0  0  0
 10 11  2  0  0  0
 10 15  1  0  0  0
 11 12  1  0  0  0
 11 97  1  0  0  0
 12 13  2  0  0  0
 12 98  1  0  0  0
 13 14  1  0  0  0
 13 31  1  0  0  0
 14 15  2  0  0  0
 14 99  1  0  0  0
 15100  1  0  0  0
 16 17  2  0  0  0
 16 21  1  0  0  0
 16 31  1  0  0  0
 17 18  1  0  0  0
 17101  1  0  0  0
 18 19  2  0  0  0
 18102  1  0  0  0
 19 20  1  0  0  0
 19 24  1  0  0  0
 20 21  2  0  0  0
 20103  1  0  0  0
 21 23  1  0  0  0
 22 28  1  0  0  0
 22 32  2  0  0  0
 26 27  1  0  0  0
 28104  1  0  0  0
 28105  1  0  0  0
 29106  1  0  0  0
 29107  1  0  0  0
 33 34  1  0  0  0
 33 66  1  0  0  0
 33 70  2  0  0  0
 34 36  1  0  0  0
 34 59  1  0  0  0
 34108  1  0  0  0
 35 44  2  0  0  0
 35 45  1  0  0  0
 35 68  1  0  0  0
 36 56  1  0  0  0
 36109  1  0  0  0
 37 39  1  0  0  0
 37 47  1  0  0  0
 37 66  1  0  0  0
 37110  1  0  0  0
 38 43  2  0  0  0
 38 46  1  0  0  0
 38 47  1  0  0  0
 39 64  1  0  0  0
 39 67  2  0  0  0
 40 52  1  0  0  0
 40 53  2  0  0  0
 40 58  1  0  0  0
 41111  1  0  0  0
 41112  1  0  0  0
 41113  1  0  0  0
 41 48  1  0  0  0
 42 43  1  0  0  0
 42 66  1  0  0  0
 42114  1  0  0  0
 42115  1  0  0  0
 43 44  1  0  0  0
 44116  1  0  0  0
 45 46  2  0  0  0
 45117  1  0  0  0
 46118  1  0  0  0
 47119  1  0  0  0
 47120  1  0  0  0
 48 56  1  0  0  0
 48 65  1  0  0  0
 48121  1  0  0  0
 49 50  1  0  0  0
 49 53  1  0  0  0
 49 64  1  0  0  0
 49122  1  0  0  0
 50 51  1  0  0  0
 50123  1  0  0  0
 50124  1  0  0  0
 51 52  1  0  0  0
 51125  1  0  0  0
 51126  1  0  0  0
 52127  1  0  0  0
 52128  1  0  0  0
 53 54  1  0  0  0
 54 55  2  0  0  0
 54129  1  0  0  0
 55 57  1  0  0  0
 55130  1  0  0  0
 56 69  2  0  0  0
 57 58  2  0  0  0
 57131  1  0  0  0
 58132  1  0  0  0
 59 60  1  0  0  0
 59 61  1  0  0  0
 59 62  1  0  0  0
 60133  1  0  0  0
 60134  1  0  0  0
 60135  1  0  0  0
 61136  1  0  0  0
 61137  1  0  0  0
 61138  1  0  0  0
 62139  1  0  0  0
 62140  1  0  0  0
 62141  1  0  0  0
 63 65  1  0  0  0
 63142  1  0  0  0
 63143  1  0  0  0
 63144  1  0  0  0
 64145  1  0  0  0
 65146  1  0  0  0
 68 85  1  0  0  0
 71 73  2  0  0  0
 71 74  1  0  0  0
 71147  1  0  0  0
 72 73  1  0  0  0
 72 75  2  0  0  0
 72148  1  0  0  0
 73 85  1  0  0  0
 74 76  2  0  0  0
 74 81  1  0  0  0
 75 76  1  0  0  0
 75 82  1  0  0  0
 76 84  1  0  0  0
 77 78  1  0  0  0
 77 86  1  0  0  0
 77149  1  0  0  0
 77150  1  0  0  0
 78 87  1  0  0  0
 78151  1  0  0  0
 78152  1  0  0  0
 79 80  1  0  0  0
 79 87  1  0  0  0
 79153  1  0  0  0
 79154  1  0  0  0
 80 83  1  0  0  0
 80 86  1  0  0  0
 80155  1  0  0  0
 81156  1  0  0  0
 81157  1  0  0  0
 81158  1  0  0  0
 82159  1  0  0  0
 82160  1  0  0  0
 82161  1  0  0  0
 83162  1  0  0  0
 83163  1  0  0  0
 83164  1  0  0  0
 84165  1  0  0  0
 84166  1  0  0  0
 84 87  1  0  0  0
 85167  1  0  0  0
 85168  1  0  0  0
 87169  1  0  0  0
M  CHG  1  87   1
M  ISO  4   1 100  68 101  85 101  86 100
M  END
> <chiral flag>
0

> <version>
0

> <s_m_source_file>
/data/baiqing/PycharmProjects/Reinvent-master-3.2/result/LINK_invent/BTK/process_docking_weight1_custom_sum_contain_oxygen_bond_distance_aromatic_linkinvent_7_9_3/rearranged_h_0129.sdf

> <i_m_source_file_index>
63

> <r_mmod_Potential_Energy-OPLS-2005>
180.573135375977

> <r_mmod_Stretch_Energy-OPLS-2005>
64.2290725708008

> <r_mmod_Bend_Energy-OPLS-2005>
131.751159667969

> <r_mmod_Torsional_Energy-OPLS-2005>
404.195465087891

> <r_mmod_Improper_Torsional_Energy-OPLS-2005>
17.3457412719727

> <r_mmod_Van_der_Waal_Energy-OPLS-2005>
156.855331420898

> <r_mmod_Electrostatic_Energy-OPLS-2005>
-209.50080871582

> <r_mmod_Solvation_Energy-OPLS-2005>
-422.291198730469

> <b_mmod_Minimization_Converged-OPLS-2005>
0

> <r_mmod_RMS_Derivative-OPLS-2005>
0.469164222478867

$$$$
63
                    3D
 Structure written by MMmdl.
172181  0  0  1  0            999 V2000
  -30.6075  -14.6411   20.4933 C   0  0  0  0  0  0
  -30.4288  -12.3900   19.4465 C   0  0  0  0  0  0
  -29.5010  -12.5121   18.2185 C   0  0  0  0  0  0
  -28.0266  -12.3465   18.6301 C   0  0  0  0  0  0
  -27.6480  -13.2147   19.8595 C   0  0  2  0  0  0
  -28.6911  -13.0606   20.9895 C   0  0  0  0  0  0
  -25.2445  -13.8048   20.5507 C   0  0  0  0  0  0
  -24.1771  -13.0363   20.9220 C   0  0  0  0  0  0
  -24.6376  -11.6851   20.8806 C   0  0  0  0  0  0
  -23.9068  -10.4240   21.0423 C   0  0  0  0  0  0
  -24.3615   -9.4162   21.9192 C   0  0  0  0  0  0
  -23.6279   -8.2217   22.0772 C   0  0  0  0  0  0
  -22.4265   -8.0277   21.3556 C   0  0  0  0  0  0
  -21.9892   -9.0244   20.4665 C   0  0  0  0  0  0
  -22.7243  -10.2107   20.3056 C   0  0  0  0  0  0
  -21.6850   -6.0729   22.5272 C   0  0  0  0  0  0
  -21.4007   -6.5618   23.8207 C   0  0  0  0  0  0
  -21.3658   -5.6775   24.9163 C   0  0  0  0  0  0
  -21.6038   -4.3040   24.7207 C   0  0  0  0  0  0
  -21.8827   -3.8147   23.4324 C   0  0  0  0  0  0
  -21.9196   -4.6968   22.3385 C   0  0  0  0  0  0
  -22.7806  -13.5201   21.1849 C   0  0  0  0  0  0
  -22.1675   -4.2162   21.0966 F   0  0  0  0  0  0
  -21.5625   -3.4529   25.7716 F   0  0  0  0  0  0
  -30.0073  -13.4105   20.4287 N   0  0  0  0  0  0
  -26.2942  -12.9297   20.3284 N   0  0  0  0  0  0
  -25.9301  -11.6464   20.5779 N   0  0  0  0  0  0
  -22.0414  -12.8245   22.0414 N   0  0  0  0  0  0
  -25.3943  -15.1693   20.3437 N   0  0  0  0  0  0
  -31.7639  -14.8070   20.0925 O   0  0  0  0  0  0
  -21.6642   -6.8873   21.4234 O   0  0  0  0  0  0
  -22.3531  -14.5517   20.6669 O   0  0  0  0  0  0
  -24.6279  -31.8600   23.1983 C   0  0  0  0  0  0
  -25.9092  -32.4786   23.8336 C   0  0  1  0  0  0
  -27.2307  -27.3290   20.0859 C   0  0  0  0  0  0
  -25.5881  -33.8573   24.2264 N   0  0  0  0  0  0
  -23.4208  -30.4841   21.5432 C   0  0  2  0  0  0
  -24.8662  -28.9357   20.1143 C   0  0  0  0  0  0
  -22.7488  -29.4653   22.4939 C   0  0  0  0  0  0
  -18.0288  -28.1447   22.8481 C   0  0  0  0  0  0
  -24.1482  -36.7307   23.2644 C   0  0  0  0  0  0
  -25.9630  -30.7895   21.3707 C   0  0  0  0  0  0
  -26.0356  -29.4172   20.7140 C   0  0  0  0  0  0
  -27.2221  -28.6226   20.6909 C   0  0  0  0  0  0
  -26.0367  -26.9024   19.4603 C   0  0  0  0  0  0
  -24.8684  -27.6848   19.4798 C   0  0  0  0  0  0
  -23.6358  -29.8170   20.1618 C   0  0  0  0  0  0
  -25.4101  -36.3092   24.0335 C   0  0  1  0  0  0
  -20.5893  -28.3736   23.1269 C   0  0  2  0  0  0
  -20.6751  -26.9451   22.5411 C   0  0  0  0  0  0
  -19.5728  -26.6429   21.5198 C   0  0  0  0  0  0
  -18.1923  -26.7983   22.1625 C   0  0  0  0  0  0
  -19.1545  -28.8904   23.2867 C   0  0  0  0  0  0
  -18.9474  -30.1511   23.8883 C   0  0  0  0  0  0
  -17.6475  -30.6622   24.0602 C   0  0  0  0  0  0
  -25.9050  -34.9462   23.5124 C   0  0  0  0  0  0
  -16.5359  -29.9140   23.6358 C   0  0  0  0  0  0
  -16.7278  -28.6574   23.0336 C   0  0  0  0  0  0
  -26.4428  -31.6589   25.0717 C   0  0  0  0  0  0
  -25.3641  -31.3733   26.1452 C   0  0  0  0  0  0
  -27.0256  -30.3009   24.6185 C   0  0  0  0  0  0
  -27.6043  -32.4277   25.7453 C   0  0  0  0  0  0
  -27.5584  -37.1800   24.8464 C   0  0  0  0  0  0
  -21.4200  -29.3060   22.3652 N   0  0  0  0  0  0
  -26.4280  -37.3795   23.9432 N   0  0  0  0  0  0
  -24.6891  -31.0619   22.0939 N   0  0  0  0  0  0
  -23.4211  -28.8202   23.3025 O   0  0  0  0  0  0
  -28.3680  -26.5000   20.1148 O   0  0  0  0  0  0
  -26.5680  -34.8921   22.4717 O   0  0  0  0  0  0
  -23.5424  -32.1394   23.7291 O   0  0  0  0  0  0
  -30.7837  -19.1990   19.6433 C   0  0  0  0  0  0
  -30.7399  -17.7791   19.7922 C   0  0  0  0  0  0
  -29.1932  -19.4424   21.4206 C   0  0  0  0  0  0
  -30.0193  -20.0745   20.4674 C   0  0  0  0  0  0
  -29.0944  -18.0223   21.5440 C   0  0  0  0  0  0
  -29.9038  -17.1410   20.7498 C   0  0  0  0  0  0
  -25.1672  -21.4926   19.7931 C   0  0  0  0  0  0
  -23.6923  -21.2708   20.0101 C   0  0  0  0  0  0
  -24.6868  -20.7598   21.0313 C   0  0  0  0  0  0
  -28.0859  -17.4942   22.5619 C   0  0  0  0  0  0
  -30.2279  -21.6351   20.4722 C   0  0  0  0  0  0
  -24.9523  -19.2703   21.2004 C   0  0  0  0  0  0
  -26.6299  -17.6402   22.0676 C   0  0  0  0  0  0
  -29.3733  -24.0611   20.2296 C   0  0  0  0  0  0
  -28.2141  -25.0612   19.8001 C   0  0  0  0  0  0
  -29.8007  -15.6814   20.8877 N   0  0  0  0  0  0
  -29.1136  -22.5661   20.0476 N   0  3  0  0  0  0
  -26.1752  -19.0443   21.9996 N   0  3  0  0  0  0
  -31.4718  -12.4998   19.1516 H   0  0  0  0  0  0
  -30.3503  -11.3934   19.8833 H   0  0  0  0  0  0
  -29.7647  -11.7655   17.4690 H   0  0  0  0  0  0
  -29.6420  -13.4817   17.7381 H   0  0  0  0  0  0
  -27.8709  -11.2926   18.8635 H   0  0  0  0  0  0
  -27.3688  -12.5727   17.7908 H   0  0  0  0  0  0
  -27.6678  -14.2515   19.5237 H   0  0  0  0  0  0
  -28.7007  -12.0335   21.3587 H   0  0  0  0  0  0
  -28.4326  -13.6806   21.8490 H   0  0  0  0  0  0
  -25.2753   -9.5648   22.4758 H   0  0  0  0  0  0
  -24.0003   -7.4608   22.7475 H   0  0  0  0  0  0
  -21.0832   -8.8767   19.8952 H   0  0  0  0  0  0
  -22.3722  -10.9646   19.6161 H   0  0  0  0  0  0
  -21.2006   -7.6119   23.9718 H   0  0  0  0  0  0
  -21.1459   -6.0492   25.9073 H   0  0  0  0  0  0
  -22.0604   -2.7612   23.2810 H   0  0  0  0  0  0
  -22.4035  -11.9952   22.4870 H   0  0  0  0  0  0
  -21.1030  -13.1294   22.2579 H   0  0  0  0  0  0
  -24.5366  -15.6978   20.2242 H   0  0  0  0  0  0
  -26.1314  -15.4837   19.7260 H   0  0  0  0  0  0
  -26.7191  -32.5451   23.1104 H   0  0  0  0  0  0
  -24.9857  -33.9687   25.0292 H   0  0  0  0  0  0
  -22.7163  -31.3054   21.3965 H   0  0  0  0  0  0
  -23.3738  -35.9653   23.3298 H   0  0  0  0  0  0
  -24.3579  -36.8928   22.2063 H   0  0  0  0  0  0
  -23.7220  -37.6490   23.6679 H   0  0  0  0  0  0
  -26.0981  -31.5450   20.5955 H   0  0  0  0  0  0
  -26.8427  -30.8411   22.0011 H   0  0  0  0  0  0
  -28.1239  -28.9912   21.1581 H   0  0  0  0  0  0
  -25.9729  -25.9518   18.9495 H   0  0  0  0  0  0
  -23.9748  -27.3150   18.9993 H   0  0  0  0  0  0
  -23.7606  -30.5885   19.4012 H   0  0  0  0  0  0
  -22.7524  -29.2479   19.8620 H   0  0  0  0  0  0
  -25.1259  -36.1951   25.0826 H   0  0  0  0  0  0
  -20.9972  -28.3325   24.1388 H   0  0  0  0  0  0
  -20.5608  -26.2348   23.3615 H   0  0  0  0  0  0
  -21.6632  -26.7467   22.1229 H   0  0  0  0  0  0
  -19.6870  -25.6325   21.1262 H   0  0  0  0  0  0
  -19.6660  -27.3202   20.6695 H   0  0  0  0  0  0
  -17.4163  -26.6727   21.4053 H   0  0  0  0  0  0
  -18.0332  -26.0132   22.9025 H   0  0  0  0  0  0
  -19.7949  -30.7357   24.2202 H   0  0  0  0  0  0
  -17.5038  -31.6282   24.5246 H   0  0  0  0  0  0
  -15.5370  -30.3053   23.7690 H   0  0  0  0  0  0
  -15.8670  -28.0926   22.7025 H   0  0  0  0  0  0
  -24.5834  -30.7044   25.7781 H   0  0  0  0  0  0
  -24.8777  -32.2874   26.4872 H   0  0  0  0  0  0
  -25.7933  -30.8925   27.0256 H   0  0  0  0  0  0
  -26.2817  -29.6767   24.1213 H   0  0  0  0  0  0
  -27.3919  -29.7261   25.4702 H   0  0  0  0  0  0
  -27.8712  -30.4269   23.9421 H   0  0  0  0  0  0
  -27.2749  -33.3605   26.2045 H   0  0  0  0  0  0
  -28.3831  -32.6777   25.0231 H   0  0  0  0  0  0
  -28.0754  -31.8366   26.5318 H   0  0  0  0  0  0
  -28.2613  -38.0099   24.7538 H   0  0  0  0  0  0
  -28.1065  -36.2622   24.6239 H   0  0  0  0  0  0
  -27.2330  -37.1415   25.8879 H   0  0  0  0  0  0
  -20.9381  -29.8782   21.6860 H   0  0  0  0  0  0
  -26.0157  -38.2875   24.1419 H   0  0  0  0  0  0
  -31.4586  -19.6134   18.9061 H   0  0  0  0  0  0
  -31.3661  -17.1755   19.1482 H   0  0  0  0  0  0
  -28.6389  -20.0760   22.0981 H   0  0  0  0  0  0
  -25.5376  -22.5089   19.9138 H   0  0  0  0  0  0
  -25.6450  -20.9123   19.0029 H   0  0  0  0  0  0
  -23.1959  -20.5477   19.3655 H   0  0  0  0  0  0
  -23.0958  -22.1427   20.2748 H   0  0  0  0  0  0
  -24.7006  -21.3198   21.9671 H   0  0  0  0  0  0
  -28.2180  -18.0322   23.5016 H   0  0  0  0  0  0
  -28.2835  -16.4510   22.8071 H   0  0  0  0  0  0
  -31.1034  -21.8664   19.8661 H   0  0  0  0  0  0
  -30.5126  -21.8961   21.4918 H   0  0  0  0  0  0
  -25.0513  -18.8072   20.2161 H   0  0  0  0  0  0
  -24.0941  -18.8001   21.6850 H   0  0  0  0  0  0
  -25.9441  -17.0732   22.6975 H   0  0  0  0  0  0
  -26.5788  -17.2273   21.0653 H   0  0  0  0  0  0
  -29.6069  -24.2438   21.2792 H   0  0  0  0  0  0
  -30.2734  -24.3174   19.6709 H   0  0  0  0  0  0
  -27.2976  -24.6966   20.2682 H   0  0  0  0  0  0
  -28.0683  -24.9694   18.7211 H   0  0  0  0  0  0
  -28.9303  -15.3554   21.2780 H   0  0  0  0  0  0
  -28.2899  -22.3251   20.5719 H   0  0  0  0  0  0
  -28.9258  -22.3733   19.0766 H   0  0  0  0  0  0
  -26.0347  -19.3986   22.9331 H   0  0  0  0  0  0
  -26.9162  -19.5703   21.5688 H   0  0  0  0  0  0
  1 25  1  0  0  0
  1 30  2  0  0  0
  1 86  1  0  0  0
  2  3  1  0  0  0
  2 25  1  0  0  0
  2 89  1  0  0  0
  2 90  1  0  0  0
  3  4  1  0  0  0
  3 91  1  0  0  0
  3 92  1  0  0  0
  4  5  1  0  0  0
  4 93  1  0  0  0
  4 94  1  0  0  0
  5  6  1  0  0  0
  5 26  1  0  0  0
  5 95  1  0  0  0
  6 25  1  0  0  0
  6 96  1  0  0  0
  6 97  1  0  0  0
  7  8  2  0  0  0
  7 26  1  0  0  0
  7 29  1  0  0  0
  8  9  1  0  0  0
  8 22  1  0  0  0
  9 10  1  0  0  0
  9 27  2  0  0  0
 10 11  2  0  0  0
 10 15  1  0  0  0
 11 12  1  0  0  0
 11 98  1  0  0  0
 12 13  2  0  0  0
 12 99  1  0  0  0
 13 14  1  0  0  0
 13 31  1  0  0  0
 14 15  2  0  0  0
 14100  1  0  0  0
 15101  1  0  0  0
 16 17  2  0  0  0
 16 21  1  0  0  0
 16 31  1  0  0  0
 17 18  1  0  0  0
 17102  1  0  0  0
 18 19  2  0  0  0
 18103  1  0  0  0
 19 20  1  0  0  0
 19 24  1  0  0  0
 20 21  2  0  0  0
 20104  1  0  0  0
 21 23  1  0  0  0
 22 28  1  0  0  0
 22 32  2  0  0  0
 26 27  1  0  0  0
 28105  1  0  0  0
 28106  1  0  0  0
 29107  1  0  0  0
 29108  1  0  0  0
 33 34  1  0  0  0
 33 66  1  0  0  0
 33 70  2  0  0  0
 34 36  1  0  0  0
 34 59  1  0  0  0
 34109  1  0  0  0
 35 44  2  0  0  0
 35 45  1  0  0  0
 35 68  1  0  0  0
 36 56  1  0  0  0
 36110  1  0  0  0
 37 39  1  0  0  0
 37 47  1  0  0  0
 37 66  1  0  0  0
 37111  1  0  0  0
 38 43  2  0  0  0
 38 46  1  0  0  0
 38 47  1  0  0  0
 39 64  1  0  0  0
 39 67  2  0  0  0
 40 52  1  0  0  0
 40 53  2  0  0  0
 40 58  1  0  0  0
 41112  1  0  0  0
 41113  1  0  0  0
 41114  1  0  0  0
 41 48  1  0  0  0
 42 43  1  0  0  0
 42 66  1  0  0  0
 42115  1  0  0  0
 42116  1  0  0  0
 43 44  1  0  0  0
 44117  1  0  0  0
 45 46  2  0  0  0
 45118  1  0  0  0
 46119  1  0  0  0
 47120  1  0  0  0
 47121  1  0  0  0
 48 56  1  0  0  0
 48 65  1  0  0  0
 48122  1  0  0  0
 49 50  1  0  0  0
 49 53  1  0  0  0
 49 64  1  0  0  0
 49123  1  0  0  0
 50 51  1  0  0  0
 50124  1  0  0  0
 50125  1  0  0  0
 51 52  1  0  0  0
 51126  1  0  0  0
 51127  1  0  0  0
 52128  1  0  0  0
 52129  1  0  0  0
 53 54  1  0  0  0
 54 55  2  0  0  0
 54130  1  0  0  0
 55 57  1  0  0  0
 55131  1  0  0  0
 56 69  2  0  0  0
 57 58  2  0  0  0
 57132  1  0  0  0
 58133  1  0  0  0
 59 60  1  0  0  0
 59 61  1  0  0  0
 59 62  1  0  0  0
 60134  1  0  0  0
 60135  1  0  0  0
 60136  1  0  0  0
 61137  1  0  0  0
 61138  1  0  0  0
 61139  1  0  0  0
 62140  1  0  0  0
 62141  1  0  0  0
 62142  1  0  0  0
 63 65  1  0  0  0
 63143  1  0  0  0
 63144  1  0  0  0
 63145  1  0  0  0
 64146  1  0  0  0
 65147  1  0  0  0
 68 85  1  0  0  0
 71 72  2  0  0  0
 71 74  1  0  0  0
 71148  1  0  0  0
 72 76  1  0  0  0
 72149  1  0  0  0
 73 74  2  0  0  0
 73 75  1  0  0  0
 73150  1  0  0  0
 74 81  1  0  0  0
 75 76  2  0  0  0
 75 80  1  0  0  0
 76 86  1  0  0  0
 77 78  1  0  0  0
 77 79  1  0  0  0
 77151  1  0  0  0
 77152  1  0  0  0
 78 79  1  0  0  0
 78153  1  0  0  0
 78154  1  0  0  0
 79 82  1  0  0  0
 79155  1  0  0  0
 80 83  1  0  0  0
 80156  1  0  0  0
 80157  1  0  0  0
 81 87  1  0  0  0
 81158  1  0  0  0
 81159  1  0  0  0
 82 88  1  0  0  0
 82160  1  0  0  0
 82161  1  0  0  0
 83 88  1  0  0  0
 83162  1  0  0  0
 83163  1  0  0  0
 84 85  1  0  0  0
 84 87  1  0  0  0
 84164  1  0  0  0
 84165  1  0  0  0
 85166  1  0  0  0
 85167  1  0  0  0
 86168  1  0  0  0
 87169  1  0  0  0
 87170  1  0  0  0
 88171  1  0  0  0
 88172  1  0  0  0
M  CHG  2  87   1  88   1
M  ISO  4   1 100  68 101  85 101  86 100
M  END
> <chiral flag>
0

> <version>
0

> <s_m_source_file>
/data/baiqing/PycharmProjects/Reinvent-master-3.2/result/LINK_invent/BTK/process_docking_weight1_custom_sum_contain_oxygen_bond_distance_aromatic_linkinvent_7_9_3/rearranged_h_0129.sdf

> <i_m_source_file_index>
64

> <r_mmod_Potential_Energy-OPLS-2005>
-258.549194335938

> <r_mmod_Stretch_Energy-OPLS-2005>
80.5842590332031

> <r_mmod_Bend_Energy-OPLS-2005>
132.301330566406

> <r_mmod_Torsional_Energy-OPLS-2005>
265.720977783203

> <r_mmod_Improper_Torsional_Energy-OPLS-2005>
8.30336284637451

> <r_mmod_Van_der_Waal_Energy-OPLS-2005>
136.849685668945

> <r_mmod_Electrostatic_Energy-OPLS-2005>
43.2824440002441

> <r_mmod_Solvation_Energy-OPLS-2005>
-972.128784179688

> <b_mmod_Minimization_Converged-OPLS-2005>
0

> <r_mmod_RMS_Derivative-OPLS-2005>
4.50031471252441

$$$$
64
                    3D
 Structure written by MMmdl.
161169  0  0  1  0            999 V2000
  -30.7588  -14.3968   20.6666 C   0  0  0  0  0  0
  -30.4199  -12.3050   19.4029 C   0  0  0  0  0  0
  -29.4884  -12.5110   18.1950 C   0  0  0  0  0  0
  -28.0134  -12.3612   18.6146 C   0  0  0  0  0  0
  -27.6623  -13.2019   19.8698 C   0  0  2  0  0  0
  -28.6994  -12.9791   20.9929 C   0  0  0  0  0  0
  -25.2607  -13.8155   20.5707 C   0  0  0  0  0  0
  -24.1841  -13.0434   20.9191 C   0  0  0  0  0  0
  -24.6369  -11.6907   20.8686 C   0  0  0  0  0  0
  -23.9050  -10.4291   21.0386 C   0  0  0  0  0  0
  -24.3618   -9.4231   21.9180 C   0  0  0  0  0  0
  -23.6311   -8.2250   22.0747 C   0  0  0  0  0  0
  -22.4300   -8.0269   21.3521 C   0  0  0  0  0  0
  -21.9915   -9.0249   20.4643 C   0  0  0  0  0  0
  -22.7214  -10.2143   20.3058 C   0  0  0  0  0  0
  -21.6862   -6.0755   22.5280 C   0  0  0  0  0  0
  -21.4021   -6.5659   23.8220 C   0  0  0  0  0  0
  -21.3631   -5.6803   24.9169 C   0  0  0  0  0  0
  -21.6040   -4.3064   24.7227 C   0  0  0  0  0  0
  -21.8825   -3.8171   23.4337 C   0  0  0  0  0  0
  -21.9206   -4.6984   22.3404 C   0  0  0  0  0  0
  -22.7873  -13.5269   21.1869 C   0  0  0  0  0  0
  -22.1678   -4.2171   21.0984 F   0  0  0  0  0  0
  -21.5617   -3.4537   25.7732 F   0  0  0  0  0  0
  -30.0412  -13.2657   20.4501 N   0  0  0  0  0  0
  -26.3011  -12.9310   20.3334 N   0  0  0  0  0  0
  -25.9295  -11.6479   20.5730 N   0  0  0  0  0  0
  -22.0524  -12.8238   22.0406 N   0  0  0  0  0  0
  -25.4426  -15.1867   20.4156 N   0  0  0  0  0  0
  -31.8127  -14.6559   20.0756 O   0  0  0  0  0  0
  -21.6646   -6.8870   21.4233 O   0  0  0  0  0  0
  -22.3560  -14.5575   20.6709 O   0  0  0  0  0  0
  -24.6134  -31.8728   23.2165 C   0  0  0  0  0  0
  -25.9047  -32.4848   23.8435 C   0  0  1  0  0  0
  -27.2027  -27.4288   20.1107 C   0  0  0  0  0  0
  -25.5884  -33.8646   24.2358 N   0  0  0  0  0  0
  -23.3957  -30.5089   21.5566 C   0  0  2  0  0  0
  -24.8334  -28.9802   20.1117 C   0  0  0  0  0  0
  -22.7391  -29.4744   22.5007 C   0  0  0  0  0  0
  -18.0315  -28.1362   22.8583 C   0  0  0  0  0  0
  -24.1505  -36.7327   23.2640 C   0  0  0  0  0  0
  -25.9290  -30.8440   21.3682 C   0  0  0  0  0  0
  -25.9956  -29.4797   20.7118 C   0  0  0  0  0  0
  -27.1817  -28.7126   20.7035 C   0  0  0  0  0  0
  -26.0155  -26.9453   19.5091 C   0  0  0  0  0  0
  -24.8379  -27.7164   19.5020 C   0  0  0  0  0  0
  -23.5987  -29.8486   20.1670 C   0  0  0  0  0  0
  -25.4116  -36.3107   24.0334 C   0  0  1  0  0  0
  -20.5891  -28.3693   23.1342 C   0  0  2  0  0  0
  -20.6861  -26.9469   22.5388 C   0  0  0  0  0  0
  -19.5781  -26.6492   21.5244 C   0  0  0  0  0  0
  -18.2024  -26.7883   22.1791 C   0  0  0  0  0  0
  -19.1546  -28.8857   23.2955 C   0  0  0  0  0  0
  -18.9461  -30.1498   23.8878 C   0  0  0  0  0  0
  -17.6453  -30.6618   24.0512 C   0  0  0  0  0  0
  -25.9028  -34.9478   23.5124 C   0  0  0  0  0  0
  -16.5356  -29.9086   23.6329 C   0  0  0  0  0  0
  -16.7296  -28.6482   23.0395 C   0  0  0  0  0  0
  -26.4472  -31.6604   25.0752 C   0  0  0  0  0  0
  -25.3758  -31.3728   26.1512 C   0  0  0  0  0  0
  -27.0291  -30.3047   24.6113 C   0  0  0  0  0  0
  -27.6038  -32.4343   25.7503 C   0  0  0  0  0  0
  -27.5588  -37.1823   24.8448 C   0  0  0  0  0  0
  -21.4112  -29.3100   22.3747 N   0  0  0  0  0  0
  -26.4302  -37.3787   23.9382 N   0  0  0  0  0  0
  -24.6645  -31.0869   22.1052 N   0  0  0  0  0  0
  -23.4225  -28.8274   23.3000 O   0  0  0  0  0  0
  -28.3863  -26.7167   20.1343 O   0  0  0  0  0  0
  -26.5608  -34.8906   22.4704 O   0  0  0  0  0  0
  -23.5320  -32.1464   23.7557 O   0  0  0  0  0  0
  -29.6775  -23.2767   19.7821 C   0  0  0  0  0  0
  -29.7643  -24.7969   19.5898 C   0  0  0  0  0  0
  -27.9924  -24.4275   21.1135 C   0  0  0  0  0  0
  -28.4897  -23.0139   20.7274 C   0  0  1  0  0  0
  -28.3660  -25.2990   19.9008 C   0  0  1  0  0  0
  -31.0245  -16.3426   22.1911 C   0  0  0  0  0  0
  -28.7156  -20.7593   21.6453 C   0  0  0  0  0  0
  -30.9711  -17.6676   21.3938 C   0  0  0  0  0  0
  -30.0358  -19.9583   21.7306 C   0  0  0  0  0  0
  -30.2714  -15.2344   21.5905 N   0  0  0  0  0  0
  -28.8991  -22.1978   21.8778 N   0  0  0  0  0  0
  -29.7898  -18.4953   21.7273 N   0  3  0  0  0  0
  -31.4571  -12.4194   19.0892 H   0  0  0  0  0  0
  -30.3402  -11.2880   19.7859 H   0  0  0  0  0  0
  -29.7240  -11.7907   17.4098 H   0  0  0  0  0  0
  -29.6562  -13.4998   17.7662 H   0  0  0  0  0  0
  -27.8280  -11.3035   18.8153 H   0  0  0  0  0  0
  -27.3613  -12.6364   17.7844 H   0  0  0  0  0  0
  -27.7162  -14.2518   19.5768 H   0  0  0  0  0  0
  -28.6642  -11.9470   21.3479 H   0  0  0  0  0  0
  -28.4430  -13.5964   21.8522 H   0  0  0  0  0  0
  -25.2777   -9.5730   22.4732 H   0  0  0  0  0  0
  -24.0040   -7.4667   22.7485 H   0  0  0  0  0  0
  -21.0841   -8.8775   19.8972 H   0  0  0  0  0  0
  -22.3675  -10.9685   19.6162 H   0  0  0  0  0  0
  -21.2005   -7.6165   23.9712 H   0  0  0  0  0  0
  -21.1446   -6.0537   25.9066 H   0  0  0  0  0  0
  -22.0625   -2.7632   23.2848 H   0  0  0  0  0  0
  -22.4143  -11.9865   22.4747 H   0  0  0  0  0  0
  -21.1144  -13.1252   22.2636 H   0  0  0  0  0  0
  -24.6905  -15.8586   20.5286 H   0  0  0  0  0  0
  -26.3022  -15.6084   20.0858 H   0  0  0  0  0  0
  -26.7138  -32.5561   23.1209 H   0  0  0  0  0  0
  -24.9978  -33.9835   25.0456 H   0  0  0  0  0  0
  -22.6847  -31.3279   21.4224 H   0  0  0  0  0  0
  -23.3746  -35.9681   23.3301 H   0  0  0  0  0  0
  -24.3591  -36.8952   22.2050 H   0  0  0  0  0  0
  -23.7292  -37.6544   23.6670 H   0  0  0  0  0  0
  -26.0383  -31.6174   20.6067 H   0  0  0  0  0  0
  -26.8201  -30.8897   21.9860 H   0  0  0  0  0  0
  -28.0807  -29.0880   21.1695 H   0  0  0  0  0  0
  -25.9600  -25.9788   19.0323 H   0  0  0  0  0  0
  -23.9363  -27.3350   19.0389 H   0  0  0  0  0  0
  -23.7025  -30.6280   19.4106 H   0  0  0  0  0  0
  -22.7209  -29.2687   19.8719 H   0  0  0  0  0  0
  -25.1306  -36.1960   25.0834 H   0  0  0  0  0  0
  -20.9982  -28.3257   24.1457 H   0  0  0  0  0  0
  -21.6715  -26.7646   22.1083 H   0  0  0  0  0  0
  -20.5919  -26.2288   23.3539 H   0  0  0  0  0  0
  -19.7028  -25.6478   21.1175 H   0  0  0  0  0  0
  -19.6638  -27.3399   20.6829 H   0  0  0  0  0  0
  -17.4226  -26.6459   21.4310 H   0  0  0  0  0  0
  -18.0609  -26.0049   22.9273 H   0  0  0  0  0  0
  -19.7913  -30.7374   24.2225 H   0  0  0  0  0  0
  -17.4984  -31.6337   24.5007 H   0  0  0  0  0  0
  -15.5350  -30.2979   23.7575 H   0  0  0  0  0  0
  -15.8738  -28.0766   22.7100 H   0  0  0  0  0  0
  -24.5918  -30.7076   25.7904 H   0  0  0  0  0  0
  -24.8957  -32.2878   26.4970 H   0  0  0  0  0  0
  -25.8108  -30.8922   27.0269 H   0  0  0  0  0  0
  -26.2856  -29.6871   24.1077 H   0  0  0  0  0  0
  -27.3957  -29.7211   25.4558 H   0  0  0  0  0  0
  -27.8715  -30.4375   23.9333 H   0  0  0  0  0  0
  -27.2645  -33.3631   26.2084 H   0  0  0  0  0  0
  -28.3819  -32.6928   25.0327 H   0  0  0  0  0  0
  -28.0729  -31.8484   26.5404 H   0  0  0  0  0  0
  -28.2594  -38.0137   24.7473 H   0  0  0  0  0  0
  -28.1091  -36.2644   24.6283 H   0  0  0  0  0  0
  -27.2283  -37.1488   25.8852 H   0  0  0  0  0  0
  -20.9200  -29.8944   21.7107 H   0  0  0  0  0  0
  -26.0174  -38.2864   24.1371 H   0  0  0  0  0  0
  -30.6181  -22.8871   20.1627 H   0  0  0  0  0  0
  -29.4887  -22.7968   18.8195 H   0  0  0  0  0  0
  -30.0837  -25.0618   18.5822 H   0  0  0  0  0  0
  -30.4669  -25.2274   20.3061 H   0  0  0  0  0  0
  -28.5001  -24.8072   22.0040 H   0  0  0  0  0  0
  -26.9241  -24.4523   21.3203 H   0  0  0  0  0  0
  -27.6837  -22.5220   20.1752 H   0  0  0  0  0  0
  -27.7561  -25.0234   19.0407 H   0  0  0  0  0  0
  -32.0691  -16.0408   22.2735 H   0  0  0  0  0  0
  -30.7038  -16.4876   23.2220 H   0  0  0  0  0  0
  -28.0215  -20.3976   22.4071 H   0  0  0  0  0  0
  -28.2305  -20.5576   20.6888 H   0  0  0  0  0  0
  -31.0002  -17.4845   20.3209 H   0  0  0  0  0  0
  -31.8721  -18.2394   21.6155 H   0  0  0  0  0  0
  -30.5758  -20.2224   22.6428 H   0  0  0  0  0  0
  -30.6846  -20.2219   20.8939 H   0  0  0  0  0  0
  -29.3833  -14.9780   21.9984 H   0  0  0  0  0  0
  -28.3181  -22.4490   22.6733 H   0  0  0  0  0  0
  -29.4722  -18.2346   22.6435 H   0  0  0  0  0  0
  -29.0489  -18.2848   21.0805 H   0  0  0  0  0  0
  1 25  1  0  0  0
  1 30  2  0  0  0
  1 80  1  0  0  0
  2  3  1  0  0  0
  2 25  1  0  0  0
  2 83  1  0  0  0
  2 84  1  0  0  0
  3  4  1  0  0  0
  3 85  1  0  0  0
  3 86  1  0  0  0
  4  5  1  0  0  0
  4 87  1  0  0  0
  4 88  1  0  0  0
  5  6  1  0  0  0
  5 26  1  0  0  0
  5 89  1  0  0  0
  6 25  1  0  0  0
  6 90  1  0  0  0
  6 91  1  0  0  0
  7  8  2  0  0  0
  7 26  1  0  0  0
  7 29  1  0  0  0
  8  9  1  0  0  0
  8 22  1  0  0  0
  9 10  1  0  0  0
  9 27  2  0  0  0
 10 11  2  0  0  0
 10 15  1  0  0  0
 11 12  1  0  0  0
 11 92  1  0  0  0
 12 13  2  0  0  0
 12 93  1  0  0  0
 13 14  1  0  0  0
 13 31  1  0  0  0
 14 15  2  0  0  0
 14 94  1  0  0  0
 15 95  1  0  0  0
 16 17  2  0  0  0
 16 21  1  0  0  0
 16 31  1  0  0  0
 17 18  1  0  0  0
 17 96  1  0  0  0
 18 19  2  0  0  0
 18 97  1  0  0  0
 19 20  1  0  0  0
 19 24  1  0  0  0
 20 21  2  0  0  0
 20 98  1  0  0  0
 21 23  1  0  0  0
 22 28  1  0  0  0
 22 32  2  0  0  0
 26 27  1  0  0  0
 28 99  1  0  0  0
 28100  1  0  0  0
 29101  1  0  0  0
 29102  1  0  0  0
 33 34  1  0  0  0
 33 66  1  0  0  0
 33 70  2  0  0  0
 34 36  1  0  0  0
 34 59  1  0  0  0
 34103  1  0  0  0
 35 44  2  0  0  0
 35 45  1  0  0  0
 35 68  1  0  0  0
 36 56  1  0  0  0
 36104  1  0  0  0
 37 39  1  0  0  0
 37 47  1  0  0  0
 37 66  1  0  0  0
 37105  1  0  0  0
 38 43  2  0  0  0
 38 46  1  0  0  0
 38 47  1  0  0  0
 39 64  1  0  0  0
 39 67  2  0  0  0
 40 52  1  0  0  0
 40 53  2  0  0  0
 40 58  1  0  0  0
 41106  1  0  0  0
 41107  1  0  0  0
 41108  1  0  0  0
 41 48  1  0  0  0
 42 43  1  0  0  0
 42 66  1  0  0  0
 42109  1  0  0  0
 42110  1  0  0  0
 43 44  1  0  0  0
 44111  1  0  0  0
 45 46  2  0  0  0
 45112  1  0  0  0
 46113  1  0  0  0
 47114  1  0  0  0
 47115  1  0  0  0
 48 56  1  0  0  0
 48 65  1  0  0  0
 48116  1  0  0  0
 49 50  1  0  0  0
 49 53  1  0  0  0
 49 64  1  0  0  0
 49117  1  0  0  0
 50 51  1  0  0  0
 50118  1  0  0  0
 50119  1  0  0  0
 51 52  1  0  0  0
 51120  1  0  0  0
 51121  1  0  0  0
 52122  1  0  0  0
 52123  1  0  0  0
 53 54  1  0  0  0
 54 55  2  0  0  0
 54124  1  0  0  0
 55 57  1  0  0  0
 55125  1  0  0  0
 56 69  2  0  0  0
 57 58  2  0  0  0
 57126  1  0  0  0
 58127  1  0  0  0
 59 60  1  0  0  0
 59 61  1  0  0  0
 59 62  1  0  0  0
 60128  1  0  0  0
 60129  1  0  0  0
 60130  1  0  0  0
 61131  1  0  0  0
 61132  1  0  0  0
 61133  1  0  0  0
 62134  1  0  0  0
 62135  1  0  0  0
 62136  1  0  0  0
 63 65  1  0  0  0
 63137  1  0  0  0
 63138  1  0  0  0
 63139  1  0  0  0
 64140  1  0  0  0
 65141  1  0  0  0
 68 75  1  0  0  0
 71 72  1  0  0  0
 71 74  1  0  0  0
 71142  1  0  0  0
 71143  1  0  0  0
 72 75  1  0  0  0
 72144  1  0  0  0
 72145  1  0  0  0
 73 74  1  0  0  0
 73 75  1  0  0  0
 73146  1  0  0  0
 73147  1  0  0  0
 74 81  1  0  0  0
 74148  1  0  0  0
 75149  1  0  0  0
 76 78  1  0  0  0
 76 80  1  0  0  0
 76150  1  0  0  0
 76151  1  0  0  0
 77 79  1  0  0  0
 77 81  1  0  0  0
 77152  1  0  0  0
 77153  1  0  0  0
 78 82  1  0  0  0
 78154  1  0  0  0
 78155  1  0  0  0
 79 82  1  0  0  0
 79156  1  0  0  0
 79157  1  0  0  0
 80158  1  0  0  0
 81159  1  0  0  0
 82160  1  0  0  0
 82161  1  0  0  0
M  CHG  1  82   1
M  ISO  4   1 100  68 101  75 101  80 100
M  END
> <chiral flag>
0

> <version>
0

> <s_m_source_file>
/data/baiqing/PycharmProjects/Reinvent-master-3.2/result/LINK_invent/BTK/process_docking_weight1_custom_sum_contain_oxygen_bond_distance_aromatic_linkinvent_7_9_3/rearranged_h_0129.sdf

> <i_m_source_file_index>
65

> <r_mmod_Potential_Energy-OPLS-2005>
-188.486587524414

> <r_mmod_Stretch_Energy-OPLS-2005>
34.3308944702148

> <r_mmod_Bend_Energy-OPLS-2005>
128.874893188477

> <r_mmod_Torsional_Energy-OPLS-2005>
292.217956542969

> <r_mmod_Improper_Torsional_Energy-OPLS-2005>
1.90908432006836

> <r_mmod_Van_der_Waal_Energy-OPLS-2005>
139.406814575195

> <r_mmod_Electrostatic_Energy-OPLS-2005>
-311.179168701172

> <r_mmod_Solvation_Energy-OPLS-2005>
-484.964904785156

> <b_mmod_Minimization_Converged-OPLS-2005>
0

> <r_mmod_RMS_Derivative-OPLS-2005>
5.85019254684448

$$$$
66
                    3D
 Structure written by MMmdl.
178187  0  0  1  0            999 V2000
  -30.5260  -14.8596   20.4401 C   0  0  0  0  0  0
  -30.4522  -12.5278   19.4782 C   0  0  0  0  0  0
  -29.5199  -12.5232   18.2428 C   0  0  0  0  0  0
  -28.0486  -12.3215   18.6587 C   0  0  0  0  0  0
  -27.6394  -13.2293   19.8474 C   0  0  2  0  0  0
  -28.6866  -13.1850   20.9817 C   0  0  0  0  0  0
  -25.2510  -13.8171   20.5695 C   0  0  0  0  0  0
  -24.1804  -13.0425   20.9220 C   0  0  0  0  0  0
  -24.6393  -11.6902   20.8750 C   0  0  0  0  0  0
  -23.9066  -10.4288   21.0408 C   0  0  0  0  0  0
  -24.3616   -9.4206   21.9189 C   0  0  0  0  0  0
  -23.6291   -8.2242   22.0756 C   0  0  0  0  0  0
  -22.4274   -8.0282   21.3549 C   0  0  0  0  0  0
  -21.9912   -9.0253   20.4648 C   0  0  0  0  0  0
  -22.7237  -10.2132   20.3057 C   0  0  0  0  0  0
  -21.6853   -6.0737   22.5280 C   0  0  0  0  0  0
  -21.4012   -6.5640   23.8215 C   0  0  0  0  0  0
  -21.3660   -5.6793   24.9177 C   0  0  0  0  0  0
  -21.6044   -4.3057   24.7227 C   0  0  0  0  0  0
  -21.8819   -3.8149   23.4350 C   0  0  0  0  0  0
  -21.9193   -4.6965   22.3404 C   0  0  0  0  0  0
  -22.7829  -13.5219   21.1874 C   0  0  0  0  0  0
  -22.1661   -4.2152   21.0982 F   0  0  0  0  0  0
  -21.5632   -3.4537   25.7738 F   0  0  0  0  0  0
  -29.9747  -13.5886   20.3993 N   0  0  0  0  0  0
  -26.2929  -12.9367   20.3266 N   0  0  0  0  0  0
  -25.9324  -11.6515   20.5746 N   0  0  0  0  0  0
  -22.0463  -12.8213   22.0420 N   0  0  0  0  0  0
  -25.4185  -15.1894   20.4097 N   0  0  0  0  0  0
  -31.7197  -15.0069   20.1565 O   0  0  0  0  0  0
  -21.6641   -6.8877   21.4243 O   0  0  0  0  0  0
  -22.3523  -14.5528   20.6718 O   0  0  0  0  0  0
  -24.6385  -31.8486   23.1940 C   0  0  0  0  0  0
  -25.9178  -32.4721   23.8309 C   0  0  1  0  0  0
  -27.2163  -27.1907   20.1484 C   0  0  0  0  0  0
  -25.5949  -33.8528   24.2229 N   0  0  0  0  0  0
  -23.4396  -30.4699   21.5390 C   0  0  2  0  0  0
  -24.8873  -28.9049   20.1146 C   0  0  0  0  0  0
  -22.7538  -29.4573   22.4892 C   0  0  0  0  0  0
  -18.0298  -28.1392   22.8481 C   0  0  0  0  0  0
  -24.1491  -36.7255   23.2646 C   0  0  0  0  0  0
  -25.9921  -30.7393   21.3863 C   0  0  0  0  0  0
  -26.0632  -29.3557   20.7288 C   0  0  0  0  0  0
  -27.2315  -28.5142   20.7286 C   0  0  0  0  0  0
  -26.0186  -26.8305   19.4931 C   0  0  0  0  0  0
  -24.8739  -27.6526   19.4836 C   0  0  0  0  0  0
  -23.6622  -29.8007   20.1576 C   0  0  0  0  0  0
  -25.4124  -36.3047   24.0324 C   0  0  1  0  0  0
  -20.5907  -28.3708   23.1246 C   0  0  2  0  0  0
  -20.6788  -26.9415   22.5406 C   0  0  0  0  0  0
  -19.5760  -26.6382   21.5213 C   0  0  0  0  0  0
  -18.1939  -26.7935   22.1620 C   0  0  0  0  0  0
  -19.1553  -28.8866   23.2859 C   0  0  0  0  0  0
  -18.9473  -30.1467   23.8877 C   0  0  0  0  0  0
  -17.6469  -30.6592   24.0556 C   0  0  0  0  0  0
  -25.9067  -34.9420   23.5078 C   0  0  0  0  0  0
  -16.5360  -29.9081   23.6344 C   0  0  0  0  0  0
  -16.7281  -28.6501   23.0362 C   0  0  0  0  0  0
  -26.4523  -31.6576   25.0730 C   0  0  0  0  0  0
  -25.3721  -31.3739   26.1430 C   0  0  0  0  0  0
  -27.0403  -30.2986   24.6288 C   0  0  0  0  0  0
  -27.6067  -32.4336   25.7500 C   0  0  0  0  0  0
  -27.5577  -37.1783   24.8467 C   0  0  0  0  0  0
  -21.4238  -29.3042   22.3624 N   0  0  0  0  0  0
  -26.4290  -37.3755   23.9408 N   0  0  0  0  0  0
  -24.7097  -31.0383   22.0956 N   0  0  0  0  0  0
  -23.4201  -28.8121   23.3027 O   0  0  0  0  0  0
  -28.2861  -26.2428   20.1737 O   0  0  0  0  0  0
  -26.5644  -34.8903   22.4652 O   0  0  0  0  0  0
  -23.5514  -32.1337   23.7183 O   0  0  0  0  0  0
  -28.1917  -19.4945   19.9767 C   0  0  0  0  0  0
  -28.4310  -18.0752   19.9537 C   0  0  0  0  0  0
  -30.5284  -18.3974   20.9943 C   0  0  0  0  0  0
  -30.2848  -19.8408   21.0558 C   0  0  0  0  0  0
  -29.0738  -20.4571   20.5551 C   0  0  0  0  0  0
  -29.5959  -17.4387   20.4789 C   0  0  0  0  0  0
  -33.0531  -21.0159   23.3740 C   0  0  0  0  0  0
  -31.3350  -20.7207   21.7459 C   0  0  1  0  0  0
  -31.6996  -20.3068   23.1834 C   0  0  2  0  0  0
  -32.6939  -20.7585   21.0135 C   0  0  1  0  0  0
  -32.8889  -23.2385   20.2680 C   0  0  0  0  0  0
  -33.8729  -21.3989   18.8360 C   0  0  0  0  0  0
  -28.5314  -21.9746   20.8605 C   0  0  0  0  0  0
  -30.6165  -20.6743   24.2279 C   0  0  0  0  0  0
  -28.8763  -23.4225   20.1373 C   0  0  0  0  0  0
  -28.0128  -24.7803   20.5557 C   0  0  0  0  0  0
  -32.7592  -21.7627   19.8322 C   0  0  0  0  0  0
  -29.6274  -15.9281   20.5916 N   0  0  0  0  0  0
  -33.7011  -21.0601   22.0484 N   0  3  0  0  0  0
  -30.8441  -20.0609   25.5513 N   0  3  0  0  0  0
  -31.4844  -12.6985   19.1688 H   0  0  0  0  0  0
  -30.4437  -11.5570   19.9758 H   0  0  0  0  0  0
  -29.8212  -11.7411   17.5447 H   0  0  0  0  0  0
  -29.6209  -13.4674   17.7051 H   0  0  0  0  0  0
  -27.9266  -11.2739   18.9367 H   0  0  0  0  0  0
  -27.3865  -12.4888   17.8082 H   0  0  0  0  0  0
  -27.6213  -14.2439   19.4510 H   0  0  0  0  0  0
  -28.7536  -12.1847   21.4114 H   0  0  0  0  0  0
  -28.4031  -13.8492   21.7995 H   0  0  0  0  0  0
  -25.2756   -9.5687   22.4773 H   0  0  0  0  0  0
  -24.0002   -7.4632   22.7473 H   0  0  0  0  0  0
  -21.0849   -8.8767   19.8950 H   0  0  0  0  0  0
  -22.3693  -10.9675   19.6173 H   0  0  0  0  0  0
  -21.1998   -7.6145   23.9721 H   0  0  0  0  0  0
  -21.1481   -6.0520   25.9079 H   0  0  0  0  0  0
  -22.0597   -2.7612   23.2847 H   0  0  0  0  0  0
  -22.4065  -11.9867   22.4805 H   0  0  0  0  0  0
  -21.1084  -13.1251   22.2619 H   0  0  0  0  0  0
  -24.6421  -15.8342   20.5106 H   0  0  0  0  0  0
  -26.2481  -15.6287   20.0356 H   0  0  0  0  0  0
  -26.7242  -32.5342   23.1043 H   0  0  0  0  0  0
  -25.0102  -33.9665   25.0378 H   0  0  0  0  0  0
  -22.7406  -31.2950   21.3876 H   0  0  0  0  0  0
  -23.3768  -35.9571   23.3299 H   0  0  0  0  0  0
  -24.3582  -36.8891   22.2063 H   0  0  0  0  0  0
  -23.7223  -37.6443   23.6680 H   0  0  0  0  0  0
  -26.1435  -31.4977   20.6172 H   0  0  0  0  0  0
  -26.8647  -30.7852   22.0263 H   0  0  0  0  0  0
  -28.1307  -28.8557   21.2213 H   0  0  0  0  0  0
  -25.9476  -25.8805   18.9838 H   0  0  0  0  0  0
  -23.9768  -27.3044   18.9906 H   0  0  0  0  0  0
  -23.7934  -30.5752   19.4011 H   0  0  0  0  0  0
  -22.7785  -29.2387   19.8503 H   0  0  0  0  0  0
  -25.1309  -36.1892   25.0817 H   0  0  0  0  0  0
  -21.0002  -28.3295   24.1365 H   0  0  0  0  0  0
  -20.5692  -26.2315   23.3620 H   0  0  0  0  0  0
  -21.6652  -26.7434   22.1189 H   0  0  0  0  0  0
  -19.6924  -25.6292   21.1248 H   0  0  0  0  0  0
  -19.6702  -27.3189   20.6741 H   0  0  0  0  0  0
  -17.4212  -26.6682   21.4020 H   0  0  0  0  0  0
  -18.0326  -26.0081   22.9015 H   0  0  0  0  0  0
  -19.7948  -30.7289   24.2236 H   0  0  0  0  0  0
  -17.5021  -31.6275   24.5150 H   0  0  0  0  0  0
  -15.5360  -30.2972   23.7688 H   0  0  0  0  0  0
  -15.8681  -28.0813   22.7091 H   0  0  0  0  0  0
  -24.5909  -30.7083   25.7739 H   0  0  0  0  0  0
  -24.8900  -32.2909   26.4828 H   0  0  0  0  0  0
  -25.8015  -30.8925   27.0226 H   0  0  0  0  0  0
  -26.3026  -29.6695   24.1297 H   0  0  0  0  0  0
  -27.4044  -29.7293   25.4852 H   0  0  0  0  0  0
  -27.8911  -30.4252   23.9591 H   0  0  0  0  0  0
  -27.2683  -33.3658   26.2035 H   0  0  0  0  0  0
  -28.3894  -32.6864   25.0335 H   0  0  0  0  0  0
  -28.0719  -31.8490   26.5448 H   0  0  0  0  0  0
  -28.2588  -38.0089   24.7529 H   0  0  0  0  0  0
  -28.1080  -36.2617   24.6283 H   0  0  0  0  0  0
  -27.2284  -37.1413   25.8868 H   0  0  0  0  0  0
  -20.9441  -29.8735   21.6791 H   0  0  0  0  0  0
  -26.0161  -38.2822   24.1428 H   0  0  0  0  0  0
  -27.2380  -19.8390   19.6009 H   0  0  0  0  0  0
  -27.6477  -17.4525   19.5464 H   0  0  0  0  0  0
  -31.4369  -17.9995   21.4227 H   0  0  0  0  0  0
  -33.6871  -20.5193   24.1095 H   0  0  0  0  0  0
  -32.9046  -22.0433   23.7102 H   0  0  0  0  0  0
  -30.9627  -21.7422   21.7942 H   0  0  0  0  0  0
  -31.8817  -19.2327   23.2162 H   0  0  0  0  0  0
  -32.9198  -19.7541   20.6522 H   0  0  0  0  0  0
  -32.1336  -23.5273   20.9980 H   0  0  0  0  0  0
  -32.7726  -23.9034   19.4114 H   0  0  0  0  0  0
  -33.8646  -23.4524   20.7056 H   0  0  0  0  0  0
  -33.7392  -20.3902   18.4432 H   0  0  0  0  0  0
  -34.8609  -21.4496   19.2948 H   0  0  0  0  0  0
  -33.8708  -22.0775   17.9822 H   0  0  0  0  0  0
  -28.6938  -22.1266   21.9272 H   0  0  0  0  0  0
  -27.4465  -21.8875   20.7901 H   0  0  0  0  0  0
  -29.6436  -20.3306   23.8730 H   0  0  0  0  0  0
  -30.5336  -21.7569   24.3365 H   0  0  0  0  0  0
  -28.7712  -23.2900   19.0601 H   0  0  0  0  0  0
  -29.9309  -23.6359   20.2984 H   0  0  0  0  0  0
  -28.0131  -24.8008   21.6458 H   0  0  0  0  0  0
  -26.9804  -24.5411   20.3101 H   0  0  0  0  0  0
  -31.8180  -21.6685   19.2869 H   0  0  0  0  0  0
  -28.7016  -15.5459   20.7016 H   0  0  0  0  0  0
  -34.4438  -20.3808   21.9991 H   0  0  0  0  0  0
  -34.0959  -21.9735   21.8901 H   0  0  0  0  0  0
  -30.8726  -19.0586   25.4863 H   0  0  0  0  0  0
  -30.0873  -20.3010   26.1678 H   0  0  0  0  0  0
  -31.6935  -20.3834   25.9790 H   0  0  0  0  0  0
  1 25  1  0  0  0
  1 30  2  0  0  0
  1 88  1  0  0  0
  2  3  1  0  0  0
  2 25  1  0  0  0
  2 91  1  0  0  0
  2 92  1  0  0  0
  3  4  1  0  0  0
  3 93  1  0  0  0
  3 94  1  0  0  0
  4  5  1  0  0  0
  4 95  1  0  0  0
  4 96  1  0  0  0
  5  6  1  0  0  0
  5 26  1  0  0  0
  5 97  1  0  0  0
  6 25  1  0  0  0
  6 98  1  0  0  0
  6 99  1  0  0  0
  7  8  2  0  0  0
  7 26  1  0  0  0
  7 29  1  0  0  0
  8  9  1  0  0  0
  8 22  1  0  0  0
  9 10  1  0  0  0
  9 27  2  0  0  0
 10 11  2  0  0  0
 10 15  1  0  0  0
 11 12  1  0  0  0
 11100  1  0  0  0
 12 13  2  0  0  0
 12101  1  0  0  0
 13 14  1  0  0  0
 13 31  1  0  0  0
 14 15  2  0  0  0
 14102  1  0  0  0
 15103  1  0  0  0
 16 17  2  0  0  0
 16 21  1  0  0  0
 16 31  1  0  0  0
 17 18  1  0  0  0
 17104  1  0  0  0
 18 19  2  0  0  0
 18105  1  0  0  0
 19 20  1  0  0  0
 19 24  1  0  0  0
 20 21  2  0  0  0
 20106  1  0  0  0
 21 23  1  0  0  0
 22 28  1  0  0  0
 22 32  2  0  0  0
 26 27  1  0  0  0
 28107  1  0  0  0
 28108  1  0  0  0
 29109  1  0  0  0
 29110  1  0  0  0
 33 34  1  0  0  0
 33 66  1  0  0  0
 33 70  2  0  0  0
 34 36  1  0  0  0
 34 59  1  0  0  0
 34111  1  0  0  0
 35 44  2  0  0  0
 35 45  1  0  0  0
 35 68  1  0  0  0
 36 56  1  0  0  0
 36112  1  0  0  0
 37 39  1  0  0  0
 37 47  1  0  0  0
 37 66  1  0  0  0
 37113  1  0  0  0
 38 43  2  0  0  0
 38 46  1  0  0  0
 38 47  1  0  0  0
 39 64  1  0  0  0
 39 67  2  0  0  0
 40 52  1  0  0  0
 40 53  2  0  0  0
 40 58  1  0  0  0
 41114  1  0  0  0
 41115  1  0  0  0
 41116  1  0  0  0
 41 48  1  0  0  0
 42 43  1  0  0  0
 42 66  1  0  0  0
 42117  1  0  0  0
 42118  1  0  0  0
 43 44  1  0  0  0
 44119  1  0  0  0
 45 46  2  0  0  0
 45120  1  0  0  0
 46121  1  0  0  0
 47122  1  0  0  0
 47123  1  0  0  0
 48 56  1  0  0  0
 48 65  1  0  0  0
 48124  1  0  0  0
 49 50  1  0  0  0
 49 53  1  0  0  0
 49 64  1  0  0  0
 49125  1  0  0  0
 50 51  1  0  0  0
 50126  1  0  0  0
 50127  1  0  0  0
 51 52  1  0  0  0
 51128  1  0  0  0
 51129  1  0  0  0
 52130  1  0  0  0
 52131  1  0  0  0
 53 54  1  0  0  0
 54 55  2  0  0  0
 54132  1  0  0  0
 55 57  1  0  0  0
 55133  1  0  0  0
 56 69  2  0  0  0
 57 58  2  0  0  0
 57134  1  0  0  0
 58135  1  0  0  0
 59 60  1  0  0  0
 59 61  1  0  0  0
 59 62  1  0  0  0
 60136  1  0  0  0
 60137  1  0  0  0
 60138  1  0  0  0
 61139  1  0  0  0
 61140  1  0  0  0
 61141  1  0  0  0
 62142  1  0  0  0
 62143  1  0  0  0
 62144  1  0  0  0
 63 65  1  0  0  0
 63145  1  0  0  0
 63146  1  0  0  0
 63147  1  0  0  0
 64148  1  0  0  0
 65149  1  0  0  0
 68 86  1  0  0  0
 71 72  2  0  0  0
 71 75  1  0  0  0
 71150  1  0  0  0
 72 76  1  0  0  0
 72151  1  0  0  0
 73 74  1  0  0  0
 73 76  2  0  0  0
 73152  1  0  0  0
 74 75  2  0  0  0
 74 78  1  0  0  0
 75 83  1  0  0  0
 76 88  1  0  0  0
 77 79  1  0  0  0
 77 89  1  0  0  0
 77153  1  0  0  0
 77154  1  0  0  0
 78 79  1  0  0  0
 78 80  1  0  0  0
 78155  1  0  0  0
 79 84  1  0  0  0
 79156  1  0  0  0
 80 87  1  0  0  0
 80 89  1  0  0  0
 80157  1  0  0  0
 81158  1  0  0  0
 81159  1  0  0  0
 81160  1  0  0  0
 81 87  1  0  0  0
 82 87  1  0  0  0
 82161  1  0  0  0
 82162  1  0  0  0
 82163  1  0  0  0
 83 85  1  0  0  0
 83164  1  0  0  0
 83165  1  0  0  0
 84 90  1  0  0  0
 84166  1  0  0  0
 84167  1  0  0  0
 85 86  1  0  0  0
 85168  1  0  0  0
 85169  1  0  0  0
 86170  1  0  0  0
 86171  1  0  0  0
 87172  1  0  0  0
 88173  1  0  0  0
 89174  1  0  0  0
 89175  1  0  0  0
 90176  1  0  0  0
 90177  1  0  0  0
 90178  1  0  0  0
M  CHG  2  89   1  90   1
M  ISO  4   1 100  68 101  86 101  88 100
M  END
> <chiral flag>
0

> <version>
0

> <s_m_source_file>
/data/baiqing/PycharmProjects/Reinvent-master-3.2/result/LINK_invent/BTK/process_docking_weight1_custom_sum_contain_oxygen_bond_distance_aromatic_linkinvent_7_9_3/rearranged_h_0129.sdf

> <i_m_source_file_index>
66

> <r_mmod_Potential_Energy-OPLS-2005>
48.1402854919434

> <r_mmod_Stretch_Energy-OPLS-2005>
185.602447509766

> <r_mmod_Bend_Energy-OPLS-2005>
268.254241943359

> <r_mmod_Torsional_Energy-OPLS-2005>
344.40185546875

> <r_mmod_Improper_Torsional_Energy-OPLS-2005>
8.38357734680176

> <r_mmod_Van_der_Waal_Energy-OPLS-2005>
121.333892822266

> <r_mmod_Electrostatic_Energy-OPLS-2005>
17.0077266693115

> <r_mmod_Solvation_Energy-OPLS-2005>
-1037.66430664062

> <b_mmod_Minimization_Converged-OPLS-2005>
0

> <r_mmod_RMS_Derivative-OPLS-2005>
0.871434211730957

$$$$
67
                    3D
 Structure written by MMmdl.
166175  0  0  1  0            999 V2000
  -30.5499  -14.8297   20.4253 C   0  0  0  0  0  0
  -30.4440  -12.5090   19.4612 C   0  0  0  0  0  0
  -29.5144  -12.5166   18.2270 C   0  0  0  0  0  0
  -28.0399  -12.3236   18.6417 C   0  0  0  0  0  0
  -27.6346  -13.2292   19.8363 C   0  0  2  0  0  0
  -28.6842  -13.1915   20.9669 C   0  0  0  0  0  0
  -25.2506  -13.8168   20.5700 C   0  0  0  0  0  0
  -24.1804  -13.0413   20.9206 C   0  0  0  0  0  0
  -24.6382  -11.6893   20.8714 C   0  0  0  0  0  0
  -23.9058  -10.4272   21.0366 C   0  0  0  0  0  0
  -24.3612   -9.4203   21.9149 C   0  0  0  0  0  0
  -23.6297   -8.2233   22.0731 C   0  0  0  0  0  0
  -22.4277   -8.0253   21.3533 C   0  0  0  0  0  0
  -21.9906   -9.0215   20.4630 C   0  0  0  0  0  0
  -22.7226  -10.2103   20.3028 C   0  0  0  0  0  0
  -21.6861   -6.0722   22.5273 C   0  0  0  0  0  0
  -21.4012   -6.5628   23.8204 C   0  0  0  0  0  0
  -21.3665   -5.6789   24.9173 C   0  0  0  0  0  0
  -21.6050   -4.3050   24.7222 C   0  0  0  0  0  0
  -21.8828   -3.8141   23.4342 C   0  0  0  0  0  0
  -21.9201   -4.6952   22.3402 C   0  0  0  0  0  0
  -22.7827  -13.5203   21.1880 C   0  0  0  0  0  0
  -22.1670   -4.2133   21.0979 F   0  0  0  0  0  0
  -21.5637   -3.4542   25.7738 F   0  0  0  0  0  0
  -29.9689  -13.5782   20.3700 N   0  0  0  0  0  0
  -26.2908  -12.9367   20.3227 N   0  0  0  0  0  0
  -25.9309  -11.6515   20.5713 N   0  0  0  0  0  0
  -22.0482  -12.8165   22.0423 N   0  0  0  0  0  0
  -25.4204  -15.1901   20.4130 N   0  0  0  0  0  0
  -31.7629  -14.9403   20.2162 O   0  0  0  0  0  0
  -21.6657   -6.8843   21.4226 O   0  0  0  0  0  0
  -22.3503  -14.5515   20.6734 O   0  0  0  0  0  0
  -24.6355  -31.8509   23.1938 C   0  0  0  0  0  0
  -25.9161  -32.4717   23.8307 C   0  0  1  0  0  0
  -27.2169  -27.2049   20.1395 C   0  0  0  0  0  0
  -25.5957  -33.8521   24.2239 N   0  0  0  0  0  0
  -23.4344  -30.4714   21.5387 C   0  0  2  0  0  0
  -24.8831  -28.9057   20.1129 C   0  0  0  0  0  0
  -22.7506  -29.4593   22.4903 C   0  0  0  0  0  0
  -18.0297  -28.1391   22.8495 C   0  0  0  0  0  0
  -24.1492  -36.7256   23.2641 C   0  0  0  0  0  0
  -25.9850  -30.7439   21.3848 C   0  0  0  0  0  0
  -26.0570  -29.3605   20.7278 C   0  0  0  0  0  0
  -27.2284  -28.5249   20.7242 C   0  0  0  0  0  0
  -26.0231  -26.8388   19.4825 C   0  0  0  0  0  0
  -24.8752  -27.6562   19.4758 C   0  0  0  0  0  0
  -23.6552  -29.7977   20.1582 C   0  0  0  0  0  0
  -25.4125  -36.3047   24.0318 C   0  0  1  0  0  0
  -20.5898  -28.3715   23.1256 C   0  0  2  0  0  0
  -20.6780  -26.9425   22.5409 C   0  0  0  0  0  0
  -19.5765  -26.6394   21.5206 C   0  0  0  0  0  0
  -18.1946  -26.7944   22.1614 C   0  0  0  0  0  0
  -19.1553  -28.8866   23.2876 C   0  0  0  0  0  0
  -18.9463  -30.1461   23.8907 C   0  0  0  0  0  0
  -17.6458  -30.6596   24.0558 C   0  0  0  0  0  0
  -25.9064  -34.9407   23.5077 C   0  0  0  0  0  0
  -16.5350  -29.9084   23.6338 C   0  0  0  0  0  0
  -16.7275  -28.6486   23.0389 C   0  0  0  0  0  0
  -26.4535  -31.6553   25.0705 C   0  0  0  0  0  0
  -25.3737  -31.3687   26.1398 C   0  0  0  0  0  0
  -27.0407  -30.2965   24.6248 C   0  0  0  0  0  0
  -27.6098  -32.4297   25.7466 C   0  0  0  0  0  0
  -27.5593  -37.1776   24.8459 C   0  0  0  0  0  0
  -21.4211  -29.3054   22.3626 N   0  0  0  0  0  0
  -26.4299  -37.3753   23.9409 N   0  0  0  0  0  0
  -24.7040  -31.0426   22.0943 N   0  0  0  0  0  0
  -23.4175  -28.8152   23.3036 O   0  0  0  0  0  0
  -28.2912  -26.2653   20.1586 O   0  0  0  0  0  0
  -26.5642  -34.8888   22.4652 O   0  0  0  0  0  0
  -23.5493  -32.1357   23.7209 O   0  0  0  0  0  0
  -30.6491  -19.3596   21.9178 C   0  0  0  0  0  0
  -30.6456  -17.9659   21.6103 C   0  0  0  0  0  0
  -29.1189  -18.4356   19.8153 C   0  0  0  0  0  0
  -29.8849  -20.3294   21.2041 C   0  0  0  0  0  0
  -29.1330  -19.8718   20.0986 C   0  0  0  0  0  0
  -29.8544  -17.4269   20.5664 C   0  0  0  0  0  0
  -29.8425  -21.8179   21.6899 C   0  0  0  0  0  0
  -27.8028  -22.1402   19.7084 C   0  0  1  0  0  0
  -28.7299  -23.4303   19.9598 C   0  0  1  0  0  0
  -25.8955  -23.1435   16.3480 C   0  0  0  0  0  0
  -28.0358  -24.8135   20.5783 C   0  0  0  0  0  0
  -27.0698  -22.7494   17.2620 C   0  0  0  0  0  0
  -26.6423  -22.4289   18.7137 C   0  0  1  0  0  0
  -28.4669  -20.8456   19.2816 N   0  0  0  0  0  0
  -29.6933  -15.9393   20.3953 N   0  0  0  0  0  0
  -29.9583  -22.9312   20.6787 N   0  3  0  0  0  0
  -25.8595  -21.2521   18.7162 O   0  0  0  0  0  0
  -31.4790  -12.6709   19.1527 H   0  0  0  0  0  0
  -30.4226  -11.5395   19.9601 H   0  0  0  0  0  0
  -29.8129  -11.7387   17.5222 H   0  0  0  0  0  0
  -29.6248  -13.4651   17.6981 H   0  0  0  0  0  0
  -27.9093  -11.2742   18.9068 H   0  0  0  0  0  0
  -27.3833  -12.5037   17.7908 H   0  0  0  0  0  0
  -27.6124  -14.2451   19.4393 H   0  0  0  0  0  0
  -28.7482  -12.1971   21.4114 H   0  0  0  0  0  0
  -28.4099  -13.8768   21.7710 H   0  0  0  0  0  0
  -25.2741   -9.5720   22.4732 H   0  0  0  0  0  0
  -24.0025   -7.4643   22.7449 H   0  0  0  0  0  0
  -21.0838   -8.8700   19.8933 H   0  0  0  0  0  0
  -22.3634  -10.9631   19.6143 H   0  0  0  0  0  0
  -21.1988   -7.6131   23.9701 H   0  0  0  0  0  0
  -21.1492   -6.0519   25.9078 H   0  0  0  0  0  0
  -22.0606   -2.7595   23.2859 H   0  0  0  0  0  0
  -22.4133  -11.9838   22.4816 H   0  0  0  0  0  0
  -21.1085  -13.1134   22.2608 H   0  0  0  0  0  0
  -24.6510  -15.8415   20.5230 H   0  0  0  0  0  0
  -26.2634  -15.6350   20.0747 H   0  0  0  0  0  0
  -26.7215  -32.5365   23.1036 H   0  0  0  0  0  0
  -25.0110  -33.9652   25.0396 H   0  0  0  0  0  0
  -22.7346  -31.2960   21.3863 H   0  0  0  0  0  0
  -23.3767  -35.9573   23.3269 H   0  0  0  0  0  0
  -24.3583  -36.8922   22.2062 H   0  0  0  0  0  0
  -23.7210  -37.6429   23.6690 H   0  0  0  0  0  0
  -26.1367  -31.5045   20.6169 H   0  0  0  0  0  0
  -26.8558  -30.7908   22.0251 H   0  0  0  0  0  0
  -28.1286  -28.8685   21.2139 H   0  0  0  0  0  0
  -25.9604  -25.8906   18.9692 H   0  0  0  0  0  0
  -23.9813  -27.3096   18.9755 H   0  0  0  0  0  0
  -23.7769  -30.5685   19.3967 H   0  0  0  0  0  0
  -22.7721  -29.2303   19.8571 H   0  0  0  0  0  0
  -25.1309  -36.1895   25.0815 H   0  0  0  0  0  0
  -21.0017  -28.3304   24.1361 H   0  0  0  0  0  0
  -20.5680  -26.2321   23.3622 H   0  0  0  0  0  0
  -21.6644  -26.7450   22.1195 H   0  0  0  0  0  0
  -19.6923  -25.6299   21.1253 H   0  0  0  0  0  0
  -19.6702  -27.3187   20.6722 H   0  0  0  0  0  0
  -17.4216  -26.6708   21.4015 H   0  0  0  0  0  0
  -18.0340  -26.0071   22.8995 H   0  0  0  0  0  0
  -19.7927  -30.7291   24.2289 H   0  0  0  0  0  0
  -17.4991  -31.6280   24.5151 H   0  0  0  0  0  0
  -15.5345  -30.2984   23.7644 H   0  0  0  0  0  0
  -15.8677  -28.0770   22.7164 H   0  0  0  0  0  0
  -24.5968  -30.6990   25.7697 H   0  0  0  0  0  0
  -24.8864  -32.2830   26.4791 H   0  0  0  0  0  0
  -25.8044  -30.8886   27.0194 H   0  0  0  0  0  0
  -26.3014  -29.6660   24.1297 H   0  0  0  0  0  0
  -27.4090  -29.7290   25.4810 H   0  0  0  0  0  0
  -27.8889  -30.4220   23.9507 H   0  0  0  0  0  0
  -27.2752  -33.3643   26.1981 H   0  0  0  0  0  0
  -28.3934  -32.6784   25.0287 H   0  0  0  0  0  0
  -28.0730  -31.8443   26.5421 H   0  0  0  0  0  0
  -28.2572  -38.0115   24.7569 H   0  0  0  0  0  0
  -28.1138  -36.2649   24.6224 H   0  0  0  0  0  0
  -27.2309  -37.1326   25.8859 H   0  0  0  0  0  0
  -20.9409  -29.8714   21.6768 H   0  0  0  0  0  0
  -26.0171  -38.2818   24.1448 H   0  0  0  0  0  0
  -31.2430  -19.6793   22.7624 H   0  0  0  0  0  0
  -31.2209  -17.2982   22.2362 H   0  0  0  0  0  0
  -28.5052  -18.0930   18.9943 H   0  0  0  0  0  0
  -30.6850  -21.9486   22.3692 H   0  0  0  0  0  0
  -28.9587  -21.9677   22.3091 H   0  0  0  0  0  0
  -27.3237  -21.9214   20.6652 H   0  0  0  0  0  0
  -29.1177  -23.7371   18.9904 H   0  0  0  0  0  0
  -26.2461  -23.3876   15.3450 H   0  0  0  0  0  0
  -25.3705  -24.0199   16.7310 H   0  0  0  0  0  0
  -25.1716  -22.3339   16.2562 H   0  0  0  0  0  0
  -28.2321  -24.7977   21.6505 H   0  0  0  0  0  0
  -26.9608  -24.6547   20.5503 H   0  0  0  0  0  0
  -27.7725  -23.5828   17.2583 H   0  0  0  0  0  0
  -27.6054  -21.9071   16.8216 H   0  0  0  0  0  0
  -26.0183  -23.2419   19.0856 H   0  0  0  0  0  0
  -28.3101  -20.5841   18.3109 H   0  0  0  0  0  0
  -28.7338  -15.6575   20.2650 H   0  0  0  0  0  0
  -30.5942  -22.5915   19.9761 H   0  0  0  0  0  0
  -30.4087  -23.7129   21.1250 H   0  0  0  0  0  0
  -26.4588  -20.5632   18.9983 H   0  0  0  0  0  0
  1 25  1  0  0  0
  1 30  2  0  0  0
  1 85  1  0  0  0
  2  3  1  0  0  0
  2 25  1  0  0  0
  2 88  1  0  0  0
  2 89  1  0  0  0
  3  4  1  0  0  0
  3 90  1  0  0  0
  3 91  1  0  0  0
  4  5  1  0  0  0
  4 92  1  0  0  0
  4 93  1  0  0  0
  5  6  1  0  0  0
  5 26  1  0  0  0
  5 94  1  0  0  0
  6 25  1  0  0  0
  6 95  1  0  0  0
  6 96  1  0  0  0
  7  8  2  0  0  0
  7 26  1  0  0  0
  7 29  1  0  0  0
  8  9  1  0  0  0
  8 22  1  0  0  0
  9 10  1  0  0  0
  9 27  2  0  0  0
 10 11  2  0  0  0
 10 15  1  0  0  0
 11 12  1  0  0  0
 11 97  1  0  0  0
 12 13  2  0  0  0
 12 98  1  0  0  0
 13 14  1  0  0  0
 13 31  1  0  0  0
 14 15  2  0  0  0
 14 99  1  0  0  0
 15100  1  0  0  0
 16 17  2  0  0  0
 16 21  1  0  0  0
 16 31  1  0  0  0
 17 18  1  0  0  0
 17101  1  0  0  0
 18 19  2  0  0  0
 18102  1  0  0  0
 19 20  1  0  0  0
 19 24  1  0  0  0
 20 21  2  0  0  0
 20103  1  0  0  0
 21 23  1  0  0  0
 22 28  1  0  0  0
 22 32  2  0  0  0
 26 27  1  0  0  0
 28104  1  0  0  0
 28105  1  0  0  0
 29106  1  0  0  0
 29107  1  0  0  0
 33 34  1  0  0  0
 33 66  1  0  0  0
 33 70  2  0  0  0
 34 36  1  0  0  0
 34 59  1  0  0  0
 34108  1  0  0  0
 35 44  2  0  0  0
 35 45  1  0  0  0
 35 68  1  0  0  0
 36 56  1  0  0  0
 36109  1  0  0  0
 37 39  1  0  0  0
 37 47  1  0  0  0
 37 66  1  0  0  0
 37110  1  0  0  0
 38 43  2  0  0  0
 38 46  1  0  0  0
 38 47  1  0  0  0
 39 64  1  0  0  0
 39 67  2  0  0  0
 40 52  1  0  0  0
 40 53  2  0  0  0
 40 58  1  0  0  0
 41111  1  0  0  0
 41112  1  0  0  0
 41113  1  0  0  0
 41 48  1  0  0  0
 42 43  1  0  0  0
 42 66  1  0  0  0
 42114  1  0  0  0
 42115  1  0  0  0
 43 44  1  0  0  0
 44116  1  0  0  0
 45 46  2  0  0  0
 45117  1  0  0  0
 46118  1  0  0  0
 47119  1  0  0  0
 47120  1  0  0  0
 48 56  1  0  0  0
 48 65  1  0  0  0
 48121  1  0  0  0
 49 50  1  0  0  0
 49 53  1  0  0  0
 49 64  1  0  0  0
 49122  1  0  0  0
 50 51  1  0  0  0
 50123  1  0  0  0
 50124  1  0  0  0
 51 52  1  0  0  0
 51125  1  0  0  0
 51126  1  0  0  0
 52127  1  0  0  0
 52128  1  0  0  0
 53 54  1  0  0  0
 54 55  2  0  0  0
 54129  1  0  0  0
 55 57  1  0  0  0
 55130  1  0  0  0
 56 69  2  0  0  0
 57 58  2  0  0  0
 57131  1  0  0  0
 58132  1  0  0  0
 59 60  1  0  0  0
 59 61  1  0  0  0
 59 62  1  0  0  0
 60133  1  0  0  0
 60134  1  0  0  0
 60135  1  0  0  0
 61136  1  0  0  0
 61137  1  0  0  0
 61138  1  0  0  0
 62139  1  0  0  0
 62140  1  0  0  0
 62141  1  0  0  0
 63 65  1  0  0  0
 63142  1  0  0  0
 63143  1  0  0  0
 63144  1  0  0  0
 64145  1  0  0  0
 65146  1  0  0  0
 68 81  1  0  0  0
 71 72  2  0  0  0
 71 74  1  0  0  0
 71147  1  0  0  0
 72 76  1  0  0  0
 72148  1  0  0  0
 73 75  1  0  0  0
 73 76  2  0  0  0
 73149  1  0  0  0
 74 75  2  0  0  0
 74 77  1  0  0  0
 75 84  1  0  0  0
 76 85  1  0  0  0
 77 86  1  0  0  0
 77150  1  0  0  0
 77151  1  0  0  0
 78 79  1  0  0  0
 78 83  1  0  0  0
 78 84  1  0  0  0
 78152  1  0  0  0
 79 81  1  0  0  0
 79 86  1  0  0  0
 79153  1  0  0  0
 80 82  1  0  0  0
 80154  1  0  0  0
 80155  1  0  0  0
 80156  1  0  0  0
 81157  1  0  0  0
 81158  1  0  0  0
 82 83  1  0  0  0
 82159  1  0  0  0
 82160  1  0  0  0
 83 87  1  0  0  0
 83161  1  0  0  0
 84162  1  0  0  0
 85163  1  0  0  0
 86164  1  0  0  0
 86165  1  0  0  0
 87166  1  0  0  0
M  CHG  1  86   1
M  ISO  4   1 100  68 101  81 101  85 100
M  END
> <chiral flag>
0

> <version>
0

> <s_m_source_file>
/data/baiqing/PycharmProjects/Reinvent-master-3.2/result/LINK_invent/BTK/process_docking_weight1_custom_sum_contain_oxygen_bond_distance_aromatic_linkinvent_7_9_3/rearranged_h_0129.sdf

> <i_m_source_file_index>
67

> <r_mmod_Potential_Energy-OPLS-2005>
130.982116699219

> <r_mmod_Stretch_Energy-OPLS-2005>
161.715087890625

> <r_mmod_Bend_Energy-OPLS-2005>
220.461547851562

> <r_mmod_Torsional_Energy-OPLS-2005>
338.286926269531

> <r_mmod_Improper_Torsional_Energy-OPLS-2005>
8.93353843688965

> <r_mmod_Van_der_Waal_Energy-OPLS-2005>
140.699737548828

> <r_mmod_Electrostatic_Energy-OPLS-2005>
-385.632598876953

> <r_mmod_Solvation_Energy-OPLS-2005>
-481.366333007812

> <b_mmod_Minimization_Converged-OPLS-2005>
0

> <r_mmod_RMS_Derivative-OPLS-2005>
2.544184923172

$$$$
68
                    3D
 Structure written by MMmdl.
170179  0  0  1  0            999 V2000
  -30.8175  -14.2837   20.7664 C   0  0  0  0  0  0
  -30.4055  -12.2933   19.3722 C   0  0  0  0  0  0
  -29.4715  -12.5490   18.1804 C   0  0  0  0  0  0
  -27.9984  -12.3938   18.5972 C   0  0  0  0  0  0
  -27.6616  -13.2034   19.8762 C   0  0  2  0  0  0
  -28.6970  -12.9483   20.9919 C   0  0  0  0  0  0
  -25.2577  -13.8146   20.5679 C   0  0  0  0  0  0
  -24.1827  -13.0424   20.9172 C   0  0  0  0  0  0
  -24.6370  -11.6890   20.8704 C   0  0  0  0  0  0
  -23.9039  -10.4279   21.0389 C   0  0  0  0  0  0
  -24.3595   -9.4213   21.9186 C   0  0  0  0  0  0
  -23.6290   -8.2240   22.0762 C   0  0  0  0  0  0
  -22.4280   -8.0252   21.3538 C   0  0  0  0  0  0
  -21.9891   -9.0226   20.4653 C   0  0  0  0  0  0
  -22.7201  -10.2117   20.3050 C   0  0  0  0  0  0
  -21.6860   -6.0712   22.5283 C   0  0  0  0  0  0
  -21.4026   -6.5630   23.8204 C   0  0  0  0  0  0
  -21.3655   -5.6792   24.9168 C   0  0  0  0  0  0
  -21.6046   -4.3055   24.7229 C   0  0  0  0  0  0
  -21.8828   -3.8131   23.4356 C   0  0  0  0  0  0
  -21.9211   -4.6940   22.3406 C   0  0  0  0  0  0
  -22.7855  -13.5227   21.1844 C   0  0  0  0  0  0
  -22.1675   -4.2118   21.0991 F   0  0  0  0  0  0
  -21.5624   -3.4543   25.7748 F   0  0  0  0  0  0
  -30.0466  -13.2138   20.4592 N   0  0  0  0  0  0
  -26.3008  -12.9314   20.3350 N   0  0  0  0  0  0
  -25.9298  -11.6472   20.5729 N   0  0  0  0  0  0
  -22.0502  -12.8211   22.0399 N   0  0  0  0  0  0
  -25.4303  -15.1866   20.4119 N   0  0  0  0  0  0
  -31.7500  -14.6783   20.0550 O   0  0  0  0  0  0
  -21.6657   -6.8848   21.4235 O   0  0  0  0  0  0
  -22.3539  -14.5538   20.6691 O   0  0  0  0  0  0
  -24.6122  -31.8709   23.2130 C   0  0  0  0  0  0
  -25.9026  -32.4833   23.8417 C   0  0  1  0  0  0
  -27.2209  -27.4476   20.0621 C   0  0  0  0  0  0
  -25.5910  -33.8630   24.2357 N   0  0  0  0  0  0
  -23.3999  -30.4973   21.5530 C   0  0  2  0  0  0
  -24.8375  -28.9687   20.1134 C   0  0  0  0  0  0
  -22.7397  -29.4664   22.4974 C   0  0  0  0  0  0
  -18.0270  -28.1389   22.8438 C   0  0  0  0  0  0
  -24.1504  -36.7324   23.2632 C   0  0  0  0  0  0
  -25.9320  -30.8307   21.3729 C   0  0  0  0  0  0
  -26.0000  -29.4714   20.7090 C   0  0  0  0  0  0
  -27.1928  -28.7152   20.6826 C   0  0  0  0  0  0
  -26.0353  -26.9619   19.4582 C   0  0  0  0  0  0
  -24.8481  -27.7119   19.4901 C   0  0  0  0  0  0
  -23.6052  -29.8367   20.1653 C   0  0  0  0  0  0
  -25.4126  -36.3132   24.0341 C   0  0  1  0  0  0
  -20.5855  -28.3658   23.1279 C   0  0  2  0  0  0
  -20.6738  -26.9385   22.5400 C   0  0  0  0  0  0
  -19.5733  -26.6367   21.5176 C   0  0  0  0  0  0
  -18.1917  -26.7924   22.1585 C   0  0  0  0  0  0
  -19.1518  -28.8839   23.2864 C   0  0  0  0  0  0
  -18.9456  -30.1449   23.8871 C   0  0  0  0  0  0
  -17.6460  -30.6579   24.0562 C   0  0  0  0  0  0
  -25.9042  -34.9487   23.5150 C   0  0  0  0  0  0
  -16.5350  -29.9079   23.6334 C   0  0  0  0  0  0
  -16.7256  -28.6519   23.0298 C   0  0  0  0  0  0
  -26.4431  -31.6583   25.0738 C   0  0  0  0  0  0
  -25.3699  -31.3694   26.1493 C   0  0  0  0  0  0
  -27.0186  -30.2990   24.6113 C   0  0  0  0  0  0
  -27.6043  -32.4231   25.7510 C   0  0  0  0  0  0
  -27.5620  -37.1831   24.8459 C   0  0  0  0  0  0
  -21.4128  -29.3049   22.3704 N   0  0  0  0  0  0
  -26.4322  -37.3813   23.9409 N   0  0  0  0  0  0
  -24.6656  -31.0804   22.1037 N   0  0  0  0  0  0
  -23.4166  -28.8180   23.3008 O   0  0  0  0  0  0
  -28.4107  -26.7473   20.0646 O   0  0  0  0  0  0
  -26.5610  -34.8928   22.4714 O   0  0  0  0  0  0
  -23.5317  -32.1471   23.7519 O   0  0  0  0  0  0
  -29.9119  -17.1581   23.6782 C   0  0  0  0  0  0
  -32.1251  -17.9531   23.0397 C   0  0  0  0  0  0
  -29.5707  -18.4601   24.0970 C   0  0  0  0  0  0
  -31.7835  -19.2553   23.4527 C   0  0  0  0  0  0
  -31.1983  -16.8972   23.1563 C   0  0  0  0  0  0
  -30.5046  -19.5142   23.9857 C   0  0  0  0  0  0
  -29.0470  -22.9649   18.5544 C   0  0  0  0  0  0
  -29.6479  -24.7465   20.2827 C   0  0  0  0  0  0
  -29.1077  -24.2051   17.6574 C   0  0  0  0  0  0
  -29.7336  -23.2439   19.9049 C   0  0  1  0  0  0
  -28.4053  -25.4088   19.6545 C   0  0  2  0  0  0
  -31.6246  -15.4865   22.7832 C   0  0  0  0  0  0
  -30.1218  -20.9201   24.4222 C   0  0  0  0  0  0
  -29.1989  -22.3005   21.0066 C   0  0  0  0  0  0
  -30.0681  -22.1993   22.2757 C   0  0  0  0  0  0
  -30.6392  -14.7336   22.0131 N   0  0  0  0  0  0
  -29.3103  -21.5774   23.3829 N   0  3  0  0  0  0
  -28.4339  -25.3214   18.2504 O   0  0  0  0  0  0
  -31.4486  -12.3970   19.0650 H   0  0  0  0  0  0
  -30.3010  -11.2639   19.7184 H   0  0  0  0  0  0
  -29.7074  -11.8674   17.3625 H   0  0  0  0  0  0
  -29.6376  -13.5556   17.7963 H   0  0  0  0  0  0
  -27.8004  -11.3335   18.7604 H   0  0  0  0  0  0
  -27.3433  -12.7018   17.7821 H   0  0  0  0  0  0
  -27.7189  -14.2586   19.6090 H   0  0  0  0  0  0
  -28.6470  -11.9109   21.3281 H   0  0  0  0  0  0
  -28.4426  -13.5530   21.8623 H   0  0  0  0  0  0
  -25.2724   -9.5717   22.4770 H   0  0  0  0  0  0
  -24.0012   -7.4633   22.7471 H   0  0  0  0  0  0
  -21.0827   -8.8714   19.8958 H   0  0  0  0  0  0
  -22.3635  -10.9643   19.6163 H   0  0  0  0  0  0
  -21.2032   -7.6144   23.9698 H   0  0  0  0  0  0
  -21.1464   -6.0528   25.9071 H   0  0  0  0  0  0
  -22.0623   -2.7595   23.2873 H   0  0  0  0  0  0
  -22.4121  -11.9887   22.4793 H   0  0  0  0  0  0
  -21.1100  -13.1204   22.2568 H   0  0  0  0  0  0
  -24.6697  -15.8444   20.5449 H   0  0  0  0  0  0
  -26.2897  -15.6271   20.1071 H   0  0  0  0  0  0
  -26.7089  -32.5514   23.1170 H   0  0  0  0  0  0
  -25.0032  -33.9798   25.0482 H   0  0  0  0  0  0
  -22.6925  -31.3176   21.4177 H   0  0  0  0  0  0
  -23.3785  -35.9634   23.3264 H   0  0  0  0  0  0
  -24.3606  -36.8958   22.2052 H   0  0  0  0  0  0
  -23.7214  -37.6506   23.6645 H   0  0  0  0  0  0
  -26.0687  -31.6049   20.6174 H   0  0  0  0  0  0
  -26.8112  -30.8603   22.0048 H   0  0  0  0  0  0
  -28.0942  -29.0993   21.1389 H   0  0  0  0  0  0
  -26.0012  -26.0172   18.9360 H   0  0  0  0  0  0
  -23.9538  -27.3258   19.0197 H   0  0  0  0  0  0
  -23.7220  -30.6122   19.4077 H   0  0  0  0  0  0
  -22.7276  -29.2617   19.8655 H   0  0  0  0  0  0
  -25.1313  -36.1996   25.0836 H   0  0  0  0  0  0
  -20.9967  -28.3218   24.1384 H   0  0  0  0  0  0
  -20.5564  -26.2290   23.3604 H   0  0  0  0  0  0
  -21.6617  -26.7377   22.1248 H   0  0  0  0  0  0
  -19.6879  -25.6271   21.1219 H   0  0  0  0  0  0
  -19.6672  -27.3158   20.6691 H   0  0  0  0  0  0
  -17.4184  -26.6631   21.4008 H   0  0  0  0  0  0
  -18.0347  -26.0097   22.9013 H   0  0  0  0  0  0
  -19.7948  -30.7274   24.2209 H   0  0  0  0  0  0
  -17.5022  -31.6246   24.5184 H   0  0  0  0  0  0
  -15.5354  -30.2977   23.7683 H   0  0  0  0  0  0
  -15.8654  -28.0868   22.6966 H   0  0  0  0  0  0
  -24.5868  -30.7049   25.7841 H   0  0  0  0  0  0
  -24.8905  -32.2847   26.4973 H   0  0  0  0  0  0
  -25.8065  -30.8841   27.0233 H   0  0  0  0  0  0
  -26.2718  -29.6844   24.1073 H   0  0  0  0  0  0
  -27.3801  -29.7133   25.4578 H   0  0  0  0  0  0
  -27.8652  -30.4264   23.9359 H   0  0  0  0  0  0
  -27.2716  -33.3513   26.2161 H   0  0  0  0  0  0
  -28.3848  -32.6774   25.0336 H   0  0  0  0  0  0
  -28.0697  -31.8265   26.5369 H   0  0  0  0  0  0
  -28.2619  -38.0155   24.7563 H   0  0  0  0  0  0
  -28.1155  -36.2697   24.6227 H   0  0  0  0  0  0
  -27.2355  -37.1402   25.8865 H   0  0  0  0  0  0
  -20.9283  -29.8817   21.6973 H   0  0  0  0  0  0
  -26.0220  -38.2896   24.1390 H   0  0  0  0  0  0
  -29.1894  -16.3594   23.7833 H   0  0  0  0  0  0
  -33.1149  -17.7652   22.6467 H   0  0  0  0  0  0
  -28.5880  -18.6427   24.5116 H   0  0  0  0  0  0
  -32.5122  -20.0497   23.3643 H   0  0  0  0  0  0
  -29.5219  -22.1150   18.0594 H   0  0  0  0  0  0
  -28.0034  -22.6828   18.7019 H   0  0  0  0  0  0
  -30.5274  -25.2877   19.9293 H   0  0  0  0  0  0
  -29.6040  -24.8916   21.3617 H   0  0  0  0  0  0
  -28.6678  -23.9994   16.6814 H   0  0  0  0  0  0
  -30.1492  -24.4781   17.4794 H   0  0  0  0  0  0
  -30.7943  -23.0193   19.7732 H   0  0  0  0  0  0
  -27.5216  -24.8900   20.0325 H   0  0  0  0  0  0
  -31.8016  -14.9377   23.7088 H   0  0  0  0  0  0
  -32.5904  -15.5129   22.2750 H   0  0  0  0  0  0
  -31.0012  -21.5172   24.6703 H   0  0  0  0  0  0
  -29.5288  -20.8503   25.3351 H   0  0  0  0  0  0
  -29.1084  -21.2948   20.5921 H   0  0  0  0  0  0
  -28.1860  -22.6057   21.2669 H   0  0  0  0  0  0
  -30.4168  -23.1774   22.6071 H   0  0  0  0  0  0
  -30.9635  -21.6216   22.0477 H   0  0  0  0  0  0
  -29.8711  -14.3305   22.5290 H   0  0  0  0  0  0
  -28.7491  -22.2862   23.8256 H   0  0  0  0  0  0
  -28.6863  -20.8805   23.0124 H   0  0  0  0  0  0
  1 25  1  0  0  0
  1 30  2  0  0  0
  1 86  1  0  0  0
  2  3  1  0  0  0
  2 25  1  0  0  0
  2 89  1  0  0  0
  2 90  1  0  0  0
  3  4  1  0  0  0
  3 91  1  0  0  0
  3 92  1  0  0  0
  4  5  1  0  0  0
  4 93  1  0  0  0
  4 94  1  0  0  0
  5  6  1  0  0  0
  5 26  1  0  0  0
  5 95  1  0  0  0
  6 25  1  0  0  0
  6 96  1  0  0  0
  6 97  1  0  0  0
  7  8  2  0  0  0
  7 26  1  0  0  0
  7 29  1  0  0  0
  8  9  1  0  0  0
  8 22  1  0  0  0
  9 10  1  0  0  0
  9 27  2  0  0  0
 10 11  2  0  0  0
 10 15  1  0  0  0
 11 12  1  0  0  0
 11 98  1  0  0  0
 12 13  2  0  0  0
 12 99  1  0  0  0
 13 14  1  0  0  0
 13 31  1  0  0  0
 14 15  2  0  0  0
 14100  1  0  0  0
 15101  1  0  0  0
 16 17  2  0  0  0
 16 21  1  0  0  0
 16 31  1  0  0  0
 17 18  1  0  0  0
 17102  1  0  0  0
 18 19  2  0  0  0
 18103  1  0  0  0
 19 20  1  0  0  0
 19 24  1  0  0  0
 20 21  2  0  0  0
 20104  1  0  0  0
 21 23  1  0  0  0
 22 28  1  0  0  0
 22 32  2  0  0  0
 26 27  1  0  0  0
 28105  1  0  0  0
 28106  1  0  0  0
 29107  1  0  0  0
 29108  1  0  0  0
 33 34  1  0  0  0
 33 66  1  0  0  0
 33 70  2  0  0  0
 34 36  1  0  0  0
 34 59  1  0  0  0
 34109  1  0  0  0
 35 44  2  0  0  0
 35 45  1  0  0  0
 35 68  1  0  0  0
 36 56  1  0  0  0
 36110  1  0  0  0
 37 39  1  0  0  0
 37 47  1  0  0  0
 37 66  1  0  0  0
 37111  1  0  0  0
 38 43  2  0  0  0
 38 46  1  0  0  0
 38 47  1  0  0  0
 39 64  1  0  0  0
 39 67  2  0  0  0
 40 52  1  0  0  0
 40 53  2  0  0  0
 40 58  1  0  0  0
 41112  1  0  0  0
 41113  1  0  0  0
 41114  1  0  0  0
 41 48  1  0  0  0
 42 43  1  0  0  0
 42 66  1  0  0  0
 42115  1  0  0  0
 42116  1  0  0  0
 43 44  1  0  0  0
 44117  1  0  0  0
 45 46  2  0  0  0
 45118  1  0  0  0
 46119  1  0  0  0
 47120  1  0  0  0
 47121  1  0  0  0
 48 56  1  0  0  0
 48 65  1  0  0  0
 48122  1  0  0  0
 49 50  1  0  0  0
 49 53  1  0  0  0
 49 64  1  0  0  0
 49123  1  0  0  0
 50 51  1  0  0  0
 50124  1  0  0  0
 50125  1  0  0  0
 51 52  1  0  0  0
 51126  1  0  0  0
 51127  1  0  0  0
 52128  1  0  0  0
 52129  1  0  0  0
 53 54  1  0  0  0
 54 55  2  0  0  0
 54130  1  0  0  0
 55 57  1  0  0  0
 55131  1  0  0  0
 56 69  2  0  0  0
 57 58  2  0  0  0
 57132  1  0  0  0
 58133  1  0  0  0
 59 60  1  0  0  0
 59 61  1  0  0  0
 59 62  1  0  0  0
 60134  1  0  0  0
 60135  1  0  0  0
 60136  1  0  0  0
 61137  1  0  0  0
 61138  1  0  0  0
 61139  1  0  0  0
 62140  1  0  0  0
 62141  1  0  0  0
 62142  1  0  0  0
 63 65  1  0  0  0
 63143  1  0  0  0
 63144  1  0  0  0
 63145  1  0  0  0
 64146  1  0  0  0
 65147  1  0  0  0
 68 81  1  0  0  0
 71 73  2  0  0  0
 71 75  1  0  0  0
 71148  1  0  0  0
 72 74  1  0  0  0
 72 75  2  0  0  0
 72149  1  0  0  0
 73 76  1  0  0  0
 73150  1  0  0  0
 74 76  2  0  0  0
 74151  1  0  0  0
 75 82  1  0  0  0
 76 83  1  0  0  0
 77 79  1  0  0  0
 77 80  1  0  0  0
 77152  1  0  0  0
 77153  1  0  0  0
 78 80  1  0  0  0
 78 81  1  0  0  0
 78154  1  0  0  0
 78155  1  0  0  0
 79 88  1  0  0  0
 79156  1  0  0  0
 79157  1  0  0  0
 80 84  1  0  0  0
 80158  1  0  0  0
 81 88  1  0  0  0
 81159  1  0  0  0
 82 86  1  0  0  0
 82160  1  0  0  0
 82161  1  0  0  0
 83 87  1  0  0  0
 83162  1  0  0  0
 83163  1  0  0  0
 84 85  1  0  0  0
 84164  1  0  0  0
 84165  1  0  0  0
 85 87  1  0  0  0
 85166  1  0  0  0
 85167  1  0  0  0
 86168  1  0  0  0
 87169  1  0  0  0
 87170  1  0  0  0
M  CHG  1  87   1
M  ISO  4   1 100  68 101  81 101  86 100
M  END
> <chiral flag>
0

> <version>
0

> <s_m_source_file>
/data/baiqing/PycharmProjects/Reinvent-master-3.2/result/LINK_invent/BTK/process_docking_weight1_custom_sum_contain_oxygen_bond_distance_aromatic_linkinvent_7_9_3/rearranged_h_0129.sdf

> <i_m_source_file_index>
68

> <r_mmod_Potential_Energy-OPLS-2005>
-226.901504516602

> <r_mmod_Stretch_Energy-OPLS-2005>
34.1928863525391

> <r_mmod_Bend_Energy-OPLS-2005>
99.1943511962891

> <r_mmod_Torsional_Energy-OPLS-2005>
264.649780273438

> <r_mmod_Improper_Torsional_Energy-OPLS-2005>
5.25770378112793

> <r_mmod_Van_der_Waal_Energy-OPLS-2005>
167.769668579102

> <r_mmod_Electrostatic_Energy-OPLS-2005>
-325.784576416016

> <r_mmod_Solvation_Energy-OPLS-2005>
-482.841644287109

> <b_mmod_Minimization_Converged-OPLS-2005>
0

> <r_mmod_RMS_Derivative-OPLS-2005>
2.90351223945618

$$$$
69
                    3D
 Structure written by MMmdl.
170179  0  0  1  0            999 V2000
  -30.7408  -14.4231   20.6378 C   0  0  0  0  0  0
  -30.4209  -12.3024   19.4133 C   0  0  0  0  0  0
  -29.4949  -12.5226   18.1992 C   0  0  0  0  0  0
  -28.0120  -12.3885   18.6014 C   0  0  0  0  0  0
  -27.6650  -13.2012   19.8769 C   0  0  2  0  0  0
  -28.7009  -12.9105   20.9810 C   0  0  0  0  0  0
  -25.2600  -13.8153   20.5655 C   0  0  0  0  0  0
  -24.1842  -13.0435   20.9156 C   0  0  0  0  0  0
  -24.6382  -11.6897   20.8710 C   0  0  0  0  0  0
  -23.9049  -10.4287   21.0394 C   0  0  0  0  0  0
  -24.3601   -9.4216   21.9179 C   0  0  0  0  0  0
  -23.6281   -8.2248   22.0754 C   0  0  0  0  0  0
  -22.4267   -8.0284   21.3545 C   0  0  0  0  0  0
  -21.9895   -9.0258   20.4644 C   0  0  0  0  0  0
  -22.7212  -10.2132   20.3049 C   0  0  0  0  0  0
  -21.6856   -6.0739   22.5287 C   0  0  0  0  0  0
  -21.4006   -6.5641   23.8216 C   0  0  0  0  0  0
  -21.3651   -5.6786   24.9176 C   0  0  0  0  0  0
  -21.6043   -4.3054   24.7222 C   0  0  0  0  0  0
  -21.8822   -3.8144   23.4345 C   0  0  0  0  0  0
  -21.9187   -4.6961   22.3405 C   0  0  0  0  0  0
  -22.7860  -13.5255   21.1818 C   0  0  0  0  0  0
  -22.1661   -4.2150   21.0980 F   0  0  0  0  0  0
  -21.5625   -3.4536   25.7735 F   0  0  0  0  0  0
  -30.0328  -13.2679   20.4614 N   0  0  0  0  0  0
  -26.3026  -12.9315   20.3339 N   0  0  0  0  0  0
  -25.9304  -11.6474   20.5722 N   0  0  0  0  0  0
  -22.0481  -12.8273   22.0376 N   0  0  0  0  0  0
  -25.4347  -15.1878   20.4089 N   0  0  0  0  0  0
  -31.8312  -14.5878   20.0759 O   0  0  0  0  0  0
  -21.6636   -6.8877   21.4245 O   0  0  0  0  0  0
  -22.3552  -14.5551   20.6648 O   0  0  0  0  0  0
  -24.6120  -31.8681   23.2119 C   0  0  0  0  0  0
  -25.9019  -32.4841   23.8411 C   0  0  1  0  0  0
  -27.2342  -27.4576   20.0928 C   0  0  0  0  0  0
  -25.5892  -33.8634   24.2349 N   0  0  0  0  0  0
  -23.4012  -30.4901   21.5495 C   0  0  2  0  0  0
  -24.8498  -28.9592   20.1129 C   0  0  0  0  0  0
  -22.7413  -29.4635   22.4992 C   0  0  0  0  0  0
  -18.0256  -28.1389   22.8469 C   0  0  0  0  0  0
  -24.1490  -36.7306   23.2649 C   0  0  0  0  0  0
  -25.9263  -30.8433   21.3575 C   0  0  0  0  0  0
  -26.0068  -29.4785   20.7055 C   0  0  0  0  0  0
  -27.2064  -28.7347   20.6918 C   0  0  0  0  0  0
  -26.0658  -26.9439   19.4943 C   0  0  0  0  0  0
  -24.8721  -27.6897   19.5060 C   0  0  0  0  0  0
  -23.6095  -29.8220   20.1638 C   0  0  0  0  0  0
  -25.4111  -36.3119   24.0342 C   0  0  1  0  0  0
  -20.5850  -28.3656   23.1322 C   0  0  2  0  0  0
  -20.6763  -26.9394   22.5416 C   0  0  0  0  0  0
  -19.5746  -26.6364   21.5219 C   0  0  0  0  0  0
  -18.1914  -26.7932   22.1603 C   0  0  0  0  0  0
  -19.1505  -28.8835   23.2902 C   0  0  0  0  0  0
  -18.9446  -30.1455   23.8908 C   0  0  0  0  0  0
  -17.6444  -30.6592   24.0559 C   0  0  0  0  0  0
  -25.9018  -34.9489   23.5136 C   0  0  0  0  0  0
  -16.5336  -29.9096   23.6326 C   0  0  0  0  0  0
  -16.7246  -28.6522   23.0320 C   0  0  0  0  0  0
  -26.4448  -31.6629   25.0737 C   0  0  0  0  0  0
  -25.3733  -31.3714   26.1510 C   0  0  0  0  0  0
  -27.0306  -30.3105   24.6066 C   0  0  0  0  0  0
  -27.6039  -32.4345   25.7480 C   0  0  0  0  0  0
  -27.5584  -37.1807   24.8470 C   0  0  0  0  0  0
  -21.4134  -29.3034   22.3751 N   0  0  0  0  0  0
  -26.4306  -37.3791   23.9411 N   0  0  0  0  0  0
  -24.6649  -31.0796   22.1001 N   0  0  0  0  0  0
  -23.4196  -28.8145   23.3003 O   0  0  0  0  0  0
  -28.3917  -26.7197   20.0949 O   0  0  0  0  0  0
  -26.5562  -34.8930   22.4688 O   0  0  0  0  0  0
  -23.5324  -32.1382   23.7539 O   0  0  0  0  0  0
  -32.4853  -21.3459   22.7589 C   0  0  0  0  0  0
  -31.2617  -21.4820   22.0900 C   0  0  0  0  0  0
  -32.9499  -20.0734   23.1139 C   0  0  0  0  0  0
  -30.8998  -19.0587   22.2141 C   0  0  0  0  0  0
  -30.4633  -20.3548   21.7864 C   0  0  0  0  0  0
  -32.1794  -18.9208   22.8334 C   0  0  0  0  0  0
  -29.7589  -16.8836   23.1631 C   0  0  0  0  0  0
  -29.4490  -15.5304   22.5152 C   0  0  0  0  0  0
  -30.5859  -16.8607   20.8952 C   0  0  0  0  0  0
  -30.0312  -17.8016   21.9687 C   0  0  2  0  0  0
  -33.9515  -17.4893   23.6503 C   0  0  0  0  0  0
  -29.1775  -20.5441   20.9611 C   0  0  0  0  0  0
  -29.0683  -21.8227   20.0848 C   0  0  0  0  0  0
  -28.6079  -24.2726   20.0080 C   0  0  0  0  0  0
  -28.3177  -25.5167   20.8674 C   0  0  0  0  0  0
  -30.1246  -15.4963   21.2110 N   0  0  0  0  0  0
  -28.6027  -23.0239   20.8180 N   0  3  0  0  0  0
  -32.6452  -17.6526   23.1135 O   0  0  0  0  0  0
  -31.4652  -12.3948   19.1098 H   0  0  0  0  0  0
  -30.3245  -11.2805   19.7849 H   0  0  0  0  0  0
  -29.7356  -11.8096   17.4092 H   0  0  0  0  0  0
  -29.6731  -13.5134   17.7796 H   0  0  0  0  0  0
  -27.8082  -11.3301   18.7702 H   0  0  0  0  0  0
  -27.3706  -12.6911   17.7727 H   0  0  0  0  0  0
  -27.7278  -14.2592   19.6214 H   0  0  0  0  0  0
  -28.6861  -11.8451   21.2169 H   0  0  0  0  0  0
  -28.4252  -13.3742   21.9190 H   0  0  0  0  0  0
  -25.2754   -9.5696   22.4744 H   0  0  0  0  0  0
  -23.9995   -7.4641   22.7478 H   0  0  0  0  0  0
  -21.0822   -8.8764   19.8955 H   0  0  0  0  0  0
  -22.3676  -10.9666   19.6150 H   0  0  0  0  0  0
  -21.2001   -7.6148   23.9721 H   0  0  0  0  0  0
  -21.1464   -6.0520   25.9078 H   0  0  0  0  0  0
  -22.0605   -2.7613   23.2850 H   0  0  0  0  0  0
  -22.4072  -11.9965   22.4833 H   0  0  0  0  0  0
  -21.1092  -13.1322   22.2521 H   0  0  0  0  0  0
  -24.6721  -15.8476   20.5168 H   0  0  0  0  0  0
  -26.2993  -15.6261   20.1158 H   0  0  0  0  0  0
  -26.7100  -32.5538   23.1186 H   0  0  0  0  0  0
  -25.0173  -33.9822   25.0589 H   0  0  0  0  0  0
  -22.6893  -31.3065   21.4082 H   0  0  0  0  0  0
  -23.3771  -35.9625   23.3315 H   0  0  0  0  0  0
  -24.3596  -36.8903   22.2068 H   0  0  0  0  0  0
  -23.7225  -37.6508   23.6645 H   0  0  0  0  0  0
  -26.0276  -31.6082   20.5872 H   0  0  0  0  0  0
  -26.8205  -30.9024   21.9675 H   0  0  0  0  0  0
  -28.1028  -29.1314   21.1470 H   0  0  0  0  0  0
  -26.0759  -25.9717   19.0204 H   0  0  0  0  0  0
  -23.9825  -27.2844   19.0472 H   0  0  0  0  0  0
  -23.7137  -30.5952   19.4012 H   0  0  0  0  0  0
  -22.7369  -29.2378   19.8675 H   0  0  0  0  0  0
  -25.1288  -36.1994   25.0832 H   0  0  0  0  0  0
  -20.9932  -28.3211   24.1446 H   0  0  0  0  0  0
  -20.5684  -26.2266   23.3602 H   0  0  0  0  0  0
  -21.6632  -26.7436   22.1197 H   0  0  0  0  0  0
  -19.6922  -25.6271   21.1258 H   0  0  0  0  0  0
  -19.6720  -27.3179   20.6761 H   0  0  0  0  0  0
  -17.4196  -26.6684   21.3995 H   0  0  0  0  0  0
  -18.0283  -26.0081   22.8992 H   0  0  0  0  0  0
  -19.7937  -30.7260   24.2291 H   0  0  0  0  0  0
  -17.5010  -31.6282   24.5154 H   0  0  0  0  0  0
  -15.5350  -30.3006   23.7681 H   0  0  0  0  0  0
  -15.8629  -28.0877   22.7007 H   0  0  0  0  0  0
  -24.5922  -30.7015   25.7871 H   0  0  0  0  0  0
  -24.8900  -32.2867   26.4944 H   0  0  0  0  0  0
  -25.8108  -30.8921   27.0280 H   0  0  0  0  0  0
  -26.2839  -29.6855   24.1149 H   0  0  0  0  0  0
  -27.4182  -29.7325   25.4470 H   0  0  0  0  0  0
  -27.8604  -30.4500   23.9135 H   0  0  0  0  0  0
  -27.2676  -33.3657   26.2045 H   0  0  0  0  0  0
  -28.3837  -32.6880   25.0286 H   0  0  0  0  0  0
  -28.0717  -31.8481   26.5400 H   0  0  0  0  0  0
  -28.2596  -38.0109   24.7514 H   0  0  0  0  0  0
  -28.1075  -36.2634   24.6287 H   0  0  0  0  0  0
  -27.2299  -37.1443   25.8873 H   0  0  0  0  0  0
  -20.9303  -29.8822   21.7023 H   0  0  0  0  0  0
  -26.0197  -38.2869   24.1416 H   0  0  0  0  0  0
  -33.0859  -22.2186   22.9751 H   0  0  0  0  0  0
  -30.9731  -22.4795   21.8006 H   0  0  0  0  0  0
  -33.9165  -20.0147   23.5925 H   0  0  0  0  0  0
  -30.6207  -16.7579   23.8124 H   0  0  0  0  0  0
  -28.9453  -17.2439   23.7962 H   0  0  0  0  0  0
  -28.3725  -15.4695   22.3498 H   0  0  0  0  0  0
  -29.7510  -14.7071   23.1655 H   0  0  0  0  0  0
  -31.6768  -16.8958   20.9099 H   0  0  0  0  0  0
  -30.2715  -17.1692   19.8972 H   0  0  0  0  0  0
  -29.0348  -18.0932   21.6464 H   0  0  0  0  0  0
  -34.1678  -16.4244   23.7385 H   0  0  0  0  0  0
  -34.0312  -17.9246   24.6477 H   0  0  0  0  0  0
  -34.7132  -17.9240   23.0016 H   0  0  0  0  0  0
  -28.3126  -20.4555   21.6198 H   0  0  0  0  0  0
  -29.1101  -19.7151   20.2579 H   0  0  0  0  0  0
  -28.3473  -21.6392   19.2862 H   0  0  0  0  0  0
  -30.0216  -22.0154   19.5883 H   0  0  0  0  0  0
  -29.5816  -24.3924   19.5280 H   0  0  0  0  0  0
  -27.8686  -24.1904   19.2095 H   0  0  0  0  0  0
  -29.0635  -25.5942   21.6571 H   0  0  0  0  0  0
  -27.3558  -25.4058   21.3739 H   0  0  0  0  0  0
  -29.1751  -23.1544   21.6378 H   0  0  0  0  0  0
  -27.6599  -22.8489   21.1331 H   0  0  0  0  0  0
  1 25  1  0  0  0
  1 30  2  0  0  0
  1 86  1  0  0  0
  2  3  1  0  0  0
  2 25  1  0  0  0
  2 89  1  0  0  0
  2 90  1  0  0  0
  3  4  1  0  0  0
  3 91  1  0  0  0
  3 92  1  0  0  0
  4  5  1  0  0  0
  4 93  1  0  0  0
  4 94  1  0  0  0
  5  6  1  0  0  0
  5 26  1  0  0  0
  5 95  1  0  0  0
  6 25  1  0  0  0
  6 96  1  0  0  0
  6 97  1  0  0  0
  7  8  2  0  0  0
  7 26  1  0  0  0
  7 29  1  0  0  0
  8  9  1  0  0  0
  8 22  1  0  0  0
  9 10  1  0  0  0
  9 27  2  0  0  0
 10 11  2  0  0  0
 10 15  1  0  0  0
 11 12  1  0  0  0
 11 98  1  0  0  0
 12 13  2  0  0  0
 12 99  1  0  0  0
 13 14  1  0  0  0
 13 31  1  0  0  0
 14 15  2  0  0  0
 14100  1  0  0  0
 15101  1  0  0  0
 16 17  2  0  0  0
 16 21  1  0  0  0
 16 31  1  0  0  0
 17 18  1  0  0  0
 17102  1  0  0  0
 18 19  2  0  0  0
 18103  1  0  0  0
 19 20  1  0  0  0
 19 24  1  0  0  0
 20 21  2  0  0  0
 20104  1  0  0  0
 21 23  1  0  0  0
 22 28  1  0  0  0
 22 32  2  0  0  0
 26 27  1  0  0  0
 28105  1  0  0  0
 28106  1  0  0  0
 29107  1  0  0  0
 29108  1  0  0  0
 33 34  1  0  0  0
 33 66  1  0  0  0
 33 70  2  0  0  0
 34 36  1  0  0  0
 34 59  1  0  0  0
 34109  1  0  0  0
 35 44  2  0  0  0
 35 45  1  0  0  0
 35 68  1  0  0  0
 36 56  1  0  0  0
 36110  1  0  0  0
 37 39  1  0  0  0
 37 47  1  0  0  0
 37 66  1  0  0  0
 37111  1  0  0  0
 38 43  2  0  0  0
 38 46  1  0  0  0
 38 47  1  0  0  0
 39 64  1  0  0  0
 39 67  2  0  0  0
 40 52  1  0  0  0
 40 53  2  0  0  0
 40 58  1  0  0  0
 41112  1  0  0  0
 41113  1  0  0  0
 41114  1  0  0  0
 41 48  1  0  0  0
 42 43  1  0  0  0
 42 66  1  0  0  0
 42115  1  0  0  0
 42116  1  0  0  0
 43 44  1  0  0  0
 44117  1  0  0  0
 45 46  2  0  0  0
 45118  1  0  0  0
 46119  1  0  0  0
 47120  1  0  0  0
 47121  1  0  0  0
 48 56  1  0  0  0
 48 65  1  0  0  0
 48122  1  0  0  0
 49 50  1  0  0  0
 49 53  1  0  0  0
 49 64  1  0  0  0
 49123  1  0  0  0
 50 51  1  0  0  0
 50124  1  0  0  0
 50125  1  0  0  0
 51 52  1  0  0  0
 51126  1  0  0  0
 51127  1  0  0  0
 52128  1  0  0  0
 52129  1  0  0  0
 53 54  1  0  0  0
 54 55  2  0  0  0
 54130  1  0  0  0
 55 57  1  0  0  0
 55131  1  0  0  0
 56 69  2  0  0  0
 57 58  2  0  0  0
 57132  1  0  0  0
 58133  1  0  0  0
 59 60  1  0  0  0
 59 61  1  0  0  0
 59 62  1  0  0  0
 60134  1  0  0  0
 60135  1  0  0  0
 60136  1  0  0  0
 61137  1  0  0  0
 61138  1  0  0  0
 61139  1  0  0  0
 62140  1  0  0  0
 62141  1  0  0  0
 62142  1  0  0  0
 63 65  1  0  0  0
 63143  1  0  0  0
 63144  1  0  0  0
 63145  1  0  0  0
 64146  1  0  0  0
 65147  1  0  0  0
 68 85  1  0  0  0
 71 72  2  0  0  0
 71 73  1  0  0  0
 71148  1  0  0  0
 72 75  1  0  0  0
 72149  1  0  0  0
 73 76  2  0  0  0
 73150  1  0  0  0
 74 75  2  0  0  0
 74 76  1  0  0  0
 74 80  1  0  0  0
 75 82  1  0  0  0
 76 88  1  0  0  0
 77 78  1  0  0  0
 77 80  1  0  0  0
 77151  1  0  0  0
 77152  1  0  0  0
 78 86  1  0  0  0
 78153  1  0  0  0
 78154  1  0  0  0
 79 80  1  0  0  0
 79 86  1  0  0  0
 79155  1  0  0  0
 79156  1  0  0  0
 80157  1  0  0  0
 81 88  1  0  0  0
 81158  1  0  0  0
 81159  1  0  0  0
 81160  1  0  0  0
 82 83  1  0  0  0
 82161  1  0  0  0
 82162  1  0  0  0
 83 87  1  0  0  0
 83163  1  0  0  0
 83164  1  0  0  0
 84 85  1  0  0  0
 84 87  1  0  0  0
 84165  1  0  0  0
 84166  1  0  0  0
 85167  1  0  0  0
 85168  1  0  0  0
 87169  1  0  0  0
 87170  1  0  0  0
M  CHG  1  87   1
M  ISO  4   1 100  68 101  85 101  86 100
M  END
> <chiral flag>
0

> <version>
0

> <s_m_source_file>
/data/baiqing/PycharmProjects/Reinvent-master-3.2/result/LINK_invent/BTK/process_docking_weight1_custom_sum_contain_oxygen_bond_distance_aromatic_linkinvent_7_9_3/rearranged_h_0129.sdf

> <i_m_source_file_index>
69

> <r_mmod_Potential_Energy-OPLS-2005>
70.2148742675781

> <r_mmod_Stretch_Energy-OPLS-2005>
43.9086303710938

> <r_mmod_Bend_Energy-OPLS-2005>
136.867797851562

> <r_mmod_Torsional_Energy-OPLS-2005>
345.963623046875

> <r_mmod_Improper_Torsional_Energy-OPLS-2005>
8.12956047058105

> <r_mmod_Van_der_Waal_Energy-OPLS-2005>
170.245071411133

> <r_mmod_Electrostatic_Energy-OPLS-2005>
-193.308395385742

> <r_mmod_Solvation_Energy-OPLS-2005>
-451.178375244141

> <b_mmod_Minimization_Converged-OPLS-2005>
0

> <r_mmod_RMS_Derivative-OPLS-2005>
2.76225590705872

$$$$
70
                    3D
 Structure written by MMmdl.
166174  0  0  1  0            999 V2000
  -30.6523  -14.5715   20.5519 C   0  0  0  0  0  0
  -30.4370  -12.3665   19.4323 C   0  0  0  0  0  0
  -29.5012  -12.5069   18.2121 C   0  0  0  0  0  0
  -28.0236  -12.3507   18.6260 C   0  0  0  0  0  0
  -27.6557  -13.2084   19.8656 C   0  0  2  0  0  0
  -28.7003  -13.0311   20.9893 C   0  0  0  0  0  0
  -25.2573  -13.8148   20.5671 C   0  0  0  0  0  0
  -24.1831  -13.0432   20.9183 C   0  0  0  0  0  0
  -24.6387  -11.6896   20.8729 C   0  0  0  0  0  0
  -23.9053  -10.4286   21.0400 C   0  0  0  0  0  0
  -24.3606   -9.4204   21.9179 C   0  0  0  0  0  0
  -23.6283   -8.2239   22.0753 C   0  0  0  0  0  0
  -22.4266   -8.0274   21.3542 C   0  0  0  0  0  0
  -21.9903   -9.0246   20.4644 C   0  0  0  0  0  0
  -22.7226  -10.2125   20.3051 C   0  0  0  0  0  0
  -21.6852   -6.0728   22.5276 C   0  0  0  0  0  0
  -21.4014   -6.5636   23.8207 C   0  0  0  0  0  0
  -21.3658   -5.6793   24.9171 C   0  0  0  0  0  0
  -21.6042   -4.3056   24.7228 C   0  0  0  0  0  0
  -21.8820   -3.8144   23.4351 C   0  0  0  0  0  0
  -21.9194   -4.6956   22.3403 C   0  0  0  0  0  0
  -22.7856  -13.5231   21.1849 C   0  0  0  0  0  0
  -22.1663   -4.2142   21.0980 F   0  0  0  0  0  0
  -21.5630   -3.4539   25.7742 F   0  0  0  0  0  0
  -30.0190  -13.3681   20.4283 N   0  0  0  0  0  0
  -26.2997  -12.9318   20.3325 N   0  0  0  0  0  0
  -25.9313  -11.6478   20.5750 N   0  0  0  0  0  0
  -22.0504  -12.8216   22.0403 N   0  0  0  0  0  0
  -25.4307  -15.1868   20.4077 N   0  0  0  0  0  0
  -31.8046  -14.7580   20.1532 O   0  0  0  0  0  0
  -21.6638   -6.8867   21.4236 O   0  0  0  0  0  0
  -22.3549  -14.5543   20.6705 O   0  0  0  0  0  0
  -24.6210  -31.8637   23.2064 C   0  0  0  0  0  0
  -25.9078  -32.4806   23.8384 C   0  0  1  0  0  0
  -27.2334  -27.3745   20.1181 C   0  0  0  0  0  0
  -25.5911  -33.8606   24.2312 N   0  0  0  0  0  0
  -23.4135  -30.4845   21.5478 C   0  0  2  0  0  0
  -24.8633  -28.9395   20.1211 C   0  0  0  0  0  0
  -22.7452  -29.4632   22.4977 C   0  0  0  0  0  0
  -18.0278  -28.1382   22.8493 C   0  0  0  0  0  0
  -24.1491  -36.7304   23.2637 C   0  0  0  0  0  0
  -25.9478  -30.8108   21.3690 C   0  0  0  0  0  0
  -26.0264  -29.4377   20.7227 C   0  0  0  0  0  0
  -27.2170  -28.6625   20.7184 C   0  0  0  0  0  0
  -26.0563  -26.9083   19.5012 C   0  0  0  0  0  0
  -24.8751  -27.6752   19.5072 C   0  0  0  0  0  0
  -23.6284  -29.8143   20.1654 C   0  0  0  0  0  0
  -25.4116  -36.3099   24.0331 C   0  0  1  0  0  0
  -20.5877  -28.3676   23.1304 C   0  0  2  0  0  0
  -20.6771  -26.9406   22.5418 C   0  0  0  0  0  0
  -19.5747  -26.6383   21.5221 C   0  0  0  0  0  0
  -18.1922  -26.7926   22.1622 C   0  0  0  0  0  0
  -19.1528  -28.8846   23.2892 C   0  0  0  0  0  0
  -18.9454  -30.1451   23.8904 C   0  0  0  0  0  0
  -17.6456  -30.6594   24.0560 C   0  0  0  0  0  0
  -25.9043  -34.9465   23.5118 C   0  0  0  0  0  0
  -16.5349  -29.9092   23.6331 C   0  0  0  0  0  0
  -16.7266  -28.6507   23.0354 C   0  0  0  0  0  0
  -26.4486  -31.6591   25.0731 C   0  0  0  0  0  0
  -25.3732  -31.3693   26.1465 C   0  0  0  0  0  0
  -27.0334  -30.3037   24.6121 C   0  0  0  0  0  0
  -27.6069  -32.4312   25.7488 C   0  0  0  0  0  0
  -27.5581  -37.1805   24.8465 C   0  0  0  0  0  0
  -21.4173  -29.3032   22.3712 N   0  0  0  0  0  0
  -26.4298  -37.3787   23.9405 N   0  0  0  0  0  0
  -24.6793  -31.0687   22.0992 N   0  0  0  0  0  0
  -23.4195  -28.8171   23.3039 O   0  0  0  0  0  0
  -28.3667  -26.5753   20.0695 O   0  0  0  0  0  0
  -26.5612  -34.8915   22.4686 O   0  0  0  0  0  0
  -23.5386  -32.1418   23.7414 O   0  0  0  0  0  0
  -27.6141  -22.1208   19.7714 C   0  0  0  0  0  0
  -27.2800  -23.4738   20.0642 C   0  0  0  0  0  0
  -28.9285  -21.9040   20.0824 C   0  0  0  0  0  0
  -28.3839  -24.1129   20.5575 C   0  0  0  0  0  0
  -32.4834  -25.1771   20.6363 C   0  0  0  0  0  0
  -31.2107  -24.2344   18.6652 C   0  0  0  0  0  0
  -29.7586  -20.6305   19.8192 C   0  0  0  0  0  0
  -28.4969  -25.5543   21.0968 C   0  0  0  0  0  0
  -30.7637  -23.3496   21.0943 C   0  0  0  0  0  0
  -30.2176  -17.0131   21.3144 C   0  0  0  0  0  0
  -29.7200  -18.1083   20.2963 C   0  0  0  0  0  0
  -31.7739  -23.9372   20.0685 C   0  0  0  0  0  0
  -29.4075  -23.1325   20.5913 N   0  0  0  0  0  0
  -29.8782  -15.5944   20.9980 N   0  0  0  0  0  0
  -29.6975  -19.5216   20.8278 N   0  3  0  0  0  0
  -31.4773  -12.4959   19.1280 H   0  0  0  0  0  0
  -30.3716  -11.3630   19.8566 H   0  0  0  0  0  0
  -29.7566  -11.7650   17.4547 H   0  0  0  0  0  0
  -29.6484  -13.4824   17.7460 H   0  0  0  0  0  0
  -27.8508  -11.2962   18.8426 H   0  0  0  0  0  0
  -27.3696  -12.5993   17.7894 H   0  0  0  0  0  0
  -27.6846  -14.2489   19.5421 H   0  0  0  0  0  0
  -28.7025  -12.0010   21.3489 H   0  0  0  0  0  0
  -28.4507  -13.6429   21.8575 H   0  0  0  0  0  0
  -25.2748   -9.5685   22.4753 H   0  0  0  0  0  0
  -23.9996   -7.4633   22.7471 H   0  0  0  0  0  0
  -21.0836   -8.8752   19.8949 H   0  0  0  0  0  0
  -22.3675  -10.9660   19.6161 H   0  0  0  0  0  0
  -21.2005   -7.6144   23.9707 H   0  0  0  0  0  0
  -21.1481   -6.0525   25.9071 H   0  0  0  0  0  0
  -22.0601   -2.7607   23.2852 H   0  0  0  0  0  0
  -22.4120  -11.9866   22.4769 H   0  0  0  0  0  0
  -21.1122  -13.1235   22.2618 H   0  0  0  0  0  0
  -24.6621  -15.8412   20.5052 H   0  0  0  0  0  0
  -26.2757  -15.6197   20.0584 H   0  0  0  0  0  0
  -26.7147  -32.5511   23.1139 H   0  0  0  0  0  0
  -25.0081  -33.9761   25.0474 H   0  0  0  0  0  0
  -22.7050  -31.3023   21.4019 H   0  0  0  0  0  0
  -23.3752  -35.9637   23.3314 H   0  0  0  0  0  0
  -24.3578  -36.8920   22.2049 H   0  0  0  0  0  0
  -23.7241  -37.6507   23.6656 H   0  0  0  0  0  0
  -26.0660  -31.5691   20.5938 H   0  0  0  0  0  0
  -26.8333  -30.8689   21.9898 H   0  0  0  0  0  0
  -28.1163  -29.0429   21.1811 H   0  0  0  0  0  0
  -26.0550  -25.9467   19.0102 H   0  0  0  0  0  0
  -23.9836  -27.2876   19.0348 H   0  0  0  0  0  0
  -23.7435  -30.5866   19.4044 H   0  0  0  0  0  0
  -22.7513  -29.2381   19.8663 H   0  0  0  0  0  0
  -25.1285  -36.1967   25.0821 H   0  0  0  0  0  0
  -20.9960  -28.3250   24.1426 H   0  0  0  0  0  0
  -20.5692  -26.2280   23.3608 H   0  0  0  0  0  0
  -21.6636  -26.7459   22.1191 H   0  0  0  0  0  0
  -19.6916  -25.6299   21.1241 H   0  0  0  0  0  0
  -19.6690  -27.3199   20.6756 H   0  0  0  0  0  0
  -17.4194  -26.6689   21.4018 H   0  0  0  0  0  0
  -18.0313  -26.0070   22.9015 H   0  0  0  0  0  0
  -19.7933  -30.7261   24.2280 H   0  0  0  0  0  0
  -17.5013  -31.6271   24.5157 H   0  0  0  0  0  0
  -15.5350  -30.2985   23.7654 H   0  0  0  0  0  0
  -15.8668  -28.0820   22.7068 H   0  0  0  0  0  0
  -24.5921  -30.7026   25.7788 H   0  0  0  0  0  0
  -24.8894  -32.2834   26.4919 H   0  0  0  0  0  0
  -25.8066  -30.8858   27.0229 H   0  0  0  0  0  0
  -26.2886  -29.6782   24.1179 H   0  0  0  0  0  0
  -27.4115  -29.7287   25.4583 H   0  0  0  0  0  0
  -27.8711  -30.4372   23.9273 H   0  0  0  0  0  0
  -27.2718  -33.3627   26.2062 H   0  0  0  0  0  0
  -28.3873  -32.6848   25.0300 H   0  0  0  0  0  0
  -28.0732  -31.8429   26.5398 H   0  0  0  0  0  0
  -28.2598  -38.0104   24.7519 H   0  0  0  0  0  0
  -28.1075  -36.2631   24.6286 H   0  0  0  0  0  0
  -27.2289  -37.1452   25.8866 H   0  0  0  0  0  0
  -20.9359  -29.8759   21.6924 H   0  0  0  0  0  0
  -26.0187  -38.2865   24.1412 H   0  0  0  0  0  0
  -26.9500  -21.3779   19.3493 H   0  0  0  0  0  0
  -26.3085  -23.9298   19.9359 H   0  0  0  0  0  0
  -33.2718  -25.5227   19.9670 H   0  0  0  0  0  0
  -32.9469  -24.9626   21.5998 H   0  0  0  0  0  0
  -31.7870  -26.0041   20.7809 H   0  0  0  0  0  0
  -31.9941  -24.5924   17.9964 H   0  0  0  0  0  0
  -30.4341  -24.9989   18.6975 H   0  0  0  0  0  0
  -30.7844  -23.3416   18.2069 H   0  0  0  0  0  0
  -30.8050  -20.8860   19.6508 H   0  0  0  0  0  0
  -29.4216  -20.2252   18.8644 H   0  0  0  0  0  0
  -29.4544  -25.7165   21.5870 H   0  0  0  0  0  0
  -27.7470  -25.7014   21.8754 H   0  0  0  0  0  0
  -30.7061  -23.9716   21.9870 H   0  0  0  0  0  0
  -31.1486  -22.4021   21.4721 H   0  0  0  0  0  0
  -29.7777  -17.2180   22.2911 H   0  0  0  0  0  0
  -31.2963  -17.1068   21.4519 H   0  0  0  0  0  0
  -28.7161  -17.8668   19.9455 H   0  0  0  0  0  0
  -30.3659  -18.0681   19.4177 H   0  0  0  0  0  0
  -32.5456  -23.1782   19.9296 H   0  0  0  0  0  0
  -28.9372  -15.3178   21.2363 H   0  0  0  0  0  0
  -28.8537  -19.6403   21.3642 H   0  0  0  0  0  0
  -30.4715  -19.6480   21.4582 H   0  0  0  0  0  0
  1 25  1  0  0  0
  1 30  2  0  0  0
  1 84  1  0  0  0
  2  3  1  0  0  0
  2 25  1  0  0  0
  2 86  1  0  0  0
  2 87  1  0  0  0
  3  4  1  0  0  0
  3 88  1  0  0  0
  3 89  1  0  0  0
  4  5  1  0  0  0
  4 90  1  0  0  0
  4 91  1  0  0  0
  5  6  1  0  0  0
  5 26  1  0  0  0
  5 92  1  0  0  0
  6 25  1  0  0  0
  6 93  1  0  0  0
  6 94  1  0  0  0
  7  8  2  0  0  0
  7 26  1  0  0  0
  7 29  1  0  0  0
  8  9  1  0  0  0
  8 22  1  0  0  0
  9 10  1  0  0  0
  9 27  2  0  0  0
 10 11  2  0  0  0
 10 15  1  0  0  0
 11 12  1  0  0  0
 11 95  1  0  0  0
 12 13  2  0  0  0
 12 96  1  0  0  0
 13 14  1  0  0  0
 13 31  1  0  0  0
 14 15  2  0  0  0
 14 97  1  0  0  0
 15 98  1  0  0  0
 16 17  2  0  0  0
 16 21  1  0  0  0
 16 31  1  0  0  0
 17 18  1  0  0  0
 17 99  1  0  0  0
 18 19  2  0  0  0
 18100  1  0  0  0
 19 20  1  0  0  0
 19 24  1  0  0  0
 20 21  2  0  0  0
 20101  1  0  0  0
 21 23  1  0  0  0
 22 28  1  0  0  0
 22 32  2  0  0  0
 26 27  1  0  0  0
 28102  1  0  0  0
 28103  1  0  0  0
 29104  1  0  0  0
 29105  1  0  0  0
 33 34  1  0  0  0
 33 66  1  0  0  0
 33 70  2  0  0  0
 34 36  1  0  0  0
 34 59  1  0  0  0
 34106  1  0  0  0
 35 44  2  0  0  0
 35 45  1  0  0  0
 35 68  1  0  0  0
 36 56  1  0  0  0
 36107  1  0  0  0
 37 39  1  0  0  0
 37 47  1  0  0  0
 37 66  1  0  0  0
 37108  1  0  0  0
 38 43  2  0  0  0
 38 46  1  0  0  0
 38 47  1  0  0  0
 39 64  1  0  0  0
 39 67  2  0  0  0
 40 52  1  0  0  0
 40 53  2  0  0  0
 40 58  1  0  0  0
 41109  1  0  0  0
 41110  1  0  0  0
 41111  1  0  0  0
 41 48  1  0  0  0
 42 43  1  0  0  0
 42 66  1  0  0  0
 42112  1  0  0  0
 42113  1  0  0  0
 43 44  1  0  0  0
 44114  1  0  0  0
 45 46  2  0  0  0
 45115  1  0  0  0
 46116  1  0  0  0
 47117  1  0  0  0
 47118  1  0  0  0
 48 56  1  0  0  0
 48 65  1  0  0  0
 48119  1  0  0  0
 49 50  1  0  0  0
 49 53  1  0  0  0
 49 64  1  0  0  0
 49120  1  0  0  0
 50 51  1  0  0  0
 50121  1  0  0  0
 50122  1  0  0  0
 51 52  1  0  0  0
 51123  1  0  0  0
 51124  1  0  0  0
 52125  1  0  0  0
 52126  1  0  0  0
 53 54  1  0  0  0
 54 55  2  0  0  0
 54127  1  0  0  0
 55 57  1  0  0  0
 55128  1  0  0  0
 56 69  2  0  0  0
 57 58  2  0  0  0
 57129  1  0  0  0
 58130  1  0  0  0
 59 60  1  0  0  0
 59 61  1  0  0  0
 59 62  1  0  0  0
 60131  1  0  0  0
 60132  1  0  0  0
 60133  1  0  0  0
 61134  1  0  0  0
 61135  1  0  0  0
 61136  1  0  0  0
 62137  1  0  0  0
 62138  1  0  0  0
 62139  1  0  0  0
 63 65  1  0  0  0
 63140  1  0  0  0
 63141  1  0  0  0
 63142  1  0  0  0
 64143  1  0  0  0
 65144  1  0  0  0
 68 78  1  0  0  0
 71 72  1  0  0  0
 71 73  2  0  0  0
 71145  1  0  0  0
 72 74  2  0  0  0
 72146  1  0  0  0
 73 77  1  0  0  0
 73 83  1  0  0  0
 74 78  1  0  0  0
 74 83  1  0  0  0
 75147  1  0  0  0
 75148  1  0  0  0
 75149  1  0  0  0
 75 82  1  0  0  0
 76 82  1  0  0  0
 76150  1  0  0  0
 76151  1  0  0  0
 76152  1  0  0  0
 77 85  1  0  0  0
 77153  1  0  0  0
 77154  1  0  0  0
 78155  1  0  0  0
 78156  1  0  0  0
 79 82  1  0  0  0
 79 83  1  0  0  0
 79157  1  0  0  0
 79158  1  0  0  0
 80 81  1  0  0  0
 80 84  1  0  0  0
 80159  1  0  0  0
 80160  1  0  0  0
 81 85  1  0  0  0
 81161  1  0  0  0
 81162  1  0  0  0
 82163  1  0  0  0
 84164  1  0  0  0
 85165  1  0  0  0
 85166  1  0  0  0
M  CHG  1  85   1
M  ISO  4   1 100  68 101  78 101  84 100
M  END
> <chiral flag>
0

> <version>
0

> <s_m_source_file>
/data/baiqing/PycharmProjects/Reinvent-master-3.2/result/LINK_invent/BTK/process_docking_weight1_custom_sum_contain_oxygen_bond_distance_aromatic_linkinvent_7_9_3/rearranged_h_0129.sdf

> <i_m_source_file_index>
70

> <r_mmod_Potential_Energy-OPLS-2005>
-202.216766357422

> <r_mmod_Stretch_Energy-OPLS-2005>
57.8642272949219

> <r_mmod_Bend_Energy-OPLS-2005>
124.843269348145

> <r_mmod_Torsional_Energy-OPLS-2005>
258.639984130859

> <r_mmod_Improper_Torsional_Energy-OPLS-2005>
4.060950756073

> <r_mmod_Van_der_Waal_Energy-OPLS-2005>
114.066780090332

> <r_mmod_Electrostatic_Energy-OPLS-2005>
-307.854400634766

> <r_mmod_Solvation_Energy-OPLS-2005>
-481.269500732422

> <b_mmod_Minimization_Converged-OPLS-2005>
0

> <r_mmod_RMS_Derivative-OPLS-2005>
1.08920323848724

$$$$
71
                    3D
 Structure written by MMmdl.
165174  0  0  1  0            999 V2000
  -30.7209  -14.6206   20.4598 C   0  0  0  0  0  0
  -30.4163  -12.3819   19.4535 C   0  0  0  0  0  0
  -29.4978  -12.4874   18.2205 C   0  0  0  0  0  0
  -28.0216  -12.3470   18.6343 C   0  0  0  0  0  0
  -27.6472  -13.2352   19.8524 C   0  0  2  0  0  0
  -28.6996  -13.1514   20.9807 C   0  0  0  0  0  0
  -25.2516  -13.8215   20.5706 C   0  0  0  0  0  0
  -24.1808  -13.0449   20.9206 C   0  0  0  0  0  0
  -24.6411  -11.6932   20.8766 C   0  0  0  0  0  0
  -23.9088  -10.4312   21.0420 C   0  0  0  0  0  0
  -24.3632   -9.4213   21.9181 C   0  0  0  0  0  0
  -23.6310   -8.2247   22.0749 C   0  0  0  0  0  0
  -22.4294   -8.0289   21.3542 C   0  0  0  0  0  0
  -21.9930   -9.0258   20.4639 C   0  0  0  0  0  0
  -22.7264  -10.2140   20.3059 C   0  0  0  0  0  0
  -21.6855   -6.0745   22.5284 C   0  0  0  0  0  0
  -21.4011   -6.5643   23.8215 C   0  0  0  0  0  0
  -21.3654   -5.6795   24.9175 C   0  0  0  0  0  0
  -21.6056   -4.3060   24.7223 C   0  0  0  0  0  0
  -21.8811   -3.8156   23.4343 C   0  0  0  0  0  0
  -21.9186   -4.6977   22.3408 C   0  0  0  0  0  0
  -22.7830  -13.5221   21.1879 C   0  0  0  0  0  0
  -22.1659   -4.2161   21.0989 F   0  0  0  0  0  0
  -21.5627   -3.4549   25.7734 F   0  0  0  0  0  0
  -30.0075  -13.4534   20.3843 N   0  0  0  0  0  0
  -26.2977  -12.9438   20.3333 N   0  0  0  0  0  0
  -25.9354  -11.6567   20.5784 N   0  0  0  0  0  0
  -22.0476  -12.8193   22.0419 N   0  0  0  0  0  0
  -25.4199  -15.1943   20.4114 N   0  0  0  0  0  0
  -31.9285  -14.6228   20.2306 O   0  0  0  0  0  0
  -21.6651   -6.8895   21.4249 O   0  0  0  0  0  0
  -22.3511  -14.5523   20.6730 O   0  0  0  0  0  0
  -24.6219  -31.8624   23.2031 C   0  0  0  0  0  0
  -25.9068  -32.4803   23.8339 C   0  0  1  0  0  0
  -27.2206  -27.3569   20.1104 C   0  0  0  0  0  0
  -25.5910  -33.8606   24.2278 N   0  0  0  0  0  0
  -23.4157  -30.4870   21.5435 C   0  0  2  0  0  0
  -24.8667  -28.9513   20.1045 C   0  0  0  0  0  0
  -22.7491  -29.4609   22.4917 C   0  0  0  0  0  0
  -18.0286  -28.1393   22.8459 C   0  0  0  0  0  0
  -24.1496  -36.7277   23.2635 C   0  0  0  0  0  0
  -25.9563  -30.8081   21.3697 C   0  0  0  0  0  0
  -26.0340  -29.4401   20.7077 C   0  0  0  0  0  0
  -27.2196  -28.6544   20.7025 C   0  0  0  0  0  0
  -26.0408  -26.9164   19.4768 C   0  0  0  0  0  0
  -24.8701  -27.6940   19.4788 C   0  0  0  0  0  0
  -23.6299  -29.8231   20.1575 C   0  0  0  0  0  0
  -25.4117  -36.3099   24.0345 C   0  0  1  0  0  0
  -20.5909  -28.3653   23.1298 C   0  0  2  0  0  0
  -20.6799  -26.9370   22.5432 C   0  0  0  0  0  0
  -19.5767  -26.6383   21.5233 C   0  0  0  0  0  0
  -18.1923  -26.7927   22.1613 C   0  0  0  0  0  0
  -19.1559  -28.8821   23.2865 C   0  0  0  0  0  0
  -18.9470  -30.1427   23.8880 C   0  0  0  0  0  0
  -17.6488  -30.6578   24.0540 C   0  0  0  0  0  0
  -25.9067  -34.9476   23.5112 C   0  0  0  0  0  0
  -16.5353  -29.9077   23.6363 C   0  0  0  0  0  0
  -16.7273  -28.6517   23.0352 C   0  0  0  0  0  0
  -26.4473  -31.6587   25.0704 C   0  0  0  0  0  0
  -25.3705  -31.3760   26.1430 C   0  0  0  0  0  0
  -27.0306  -30.3024   24.6107 C   0  0  0  0  0  0
  -27.6033  -32.4314   25.7474 C   0  0  0  0  0  0
  -27.5600  -37.1773   24.8466 C   0  0  0  0  0  0
  -21.4201  -29.3012   22.3682 N   0  0  0  0  0  0
  -26.4285  -37.3796   23.9465 N   0  0  0  0  0  0
  -24.6830  -31.0695   22.0945 N   0  0  0  0  0  0
  -23.4265  -28.8128   23.2931 O   0  0  0  0  0  0
  -28.2995  -26.4754   20.1654 O   0  0  0  0  0  0
  -26.5633  -34.8936   22.4686 O   0  0  0  0  0  0
  -23.5393  -32.1367   23.7382 O   0  0  0  0  0  0
  -29.9390  -21.9846   21.7311 C   0  0  0  0  0  0
  -29.0943  -21.8494   19.4755 C   0  0  0  0  0  0
  -29.4176  -23.3030   21.8386 C   0  0  0  0  0  0
  -28.5730  -23.1725   19.5852 C   0  0  0  0  0  0
  -29.8063  -21.2262   20.5424 C   0  0  0  0  0  0
  -28.7347  -23.9354   20.7680 C   0  0  0  0  0  0
  -32.4115  -21.0856   18.9885 C   0  0  0  0  0  0
  -32.2387  -18.5814   18.8897 C   0  0  0  0  0  0
  -31.3408  -17.3394   18.9442 C   0  0  0  0  0  0
  -29.7886  -18.4929   20.5477 C   0  0  0  0  0  0
  -30.5842  -19.8694   20.3718 C   0  0  1  0  0  0
  -31.4374  -19.8862   19.0613 C   0  0  1  0  0  0
  -30.6802  -17.1888   20.3368 C   0  0  1  0  0  0
  -32.2213  -22.1100   17.8712 C   0  0  0  0  0  0
  -28.0262  -25.3050   21.0098 C   0  0  0  0  0  0
  -30.0531  -15.8200   20.5263 N   0  0  0  0  0  0
  -33.3382  -21.2131   19.7942 O   0  0  0  0  0  0
  -31.4623  -12.4599   19.1477 H   0  0  0  0  0  0
  -30.3196  -11.4044   19.9285 H   0  0  0  0  0  0
  -29.7554  -11.7161   17.4936 H   0  0  0  0  0  0
  -29.6585  -13.4455   17.7215 H   0  0  0  0  0  0
  -27.8467  -11.2974   18.8684 H   0  0  0  0  0  0
  -27.3742  -12.5808   17.7896 H   0  0  0  0  0  0
  -27.6476  -14.2645   19.4894 H   0  0  0  0  0  0
  -28.7079  -12.1566   21.4274 H   0  0  0  0  0  0
  -28.4656  -13.8518   21.7851 H   0  0  0  0  0  0
  -25.2768   -9.5687   22.4757 H   0  0  0  0  0  0
  -24.0020   -7.4636   22.7465 H   0  0  0  0  0  0
  -21.0860   -8.8768   19.8940 H   0  0  0  0  0  0
  -22.3714  -10.9672   19.6172 H   0  0  0  0  0  0
  -21.2002   -7.6152   23.9719 H   0  0  0  0  0  0
  -21.1486   -6.0532   25.9076 H   0  0  0  0  0  0
  -22.0598   -2.7621   23.2839 H   0  0  0  0  0  0
  -22.4103  -11.9862   22.4807 H   0  0  0  0  0  0
  -21.1085  -13.1190   22.2623 H   0  0  0  0  0  0
  -24.6544  -15.8503   20.5228 H   0  0  0  0  0  0
  -26.2682  -15.6312   20.0721 H   0  0  0  0  0  0
  -26.7109  -32.5473   23.1067 H   0  0  0  0  0  0
  -25.0072  -33.9724   25.0432 H   0  0  0  0  0  0
  -22.7010  -31.3012   21.4036 H   0  0  0  0  0  0
  -23.3792  -35.9580   23.3292 H   0  0  0  0  0  0
  -24.3587  -36.8919   22.2053 H   0  0  0  0  0  0
  -23.7228  -37.6471   23.6657 H   0  0  0  0  0  0
  -26.0909  -31.5760   20.6056 H   0  0  0  0  0  0
  -26.8352  -30.8466   22.0019 H   0  0  0  0  0  0
  -28.1171  -29.0203   21.1809 H   0  0  0  0  0  0
  -26.0157  -25.9449   19.0054 H   0  0  0  0  0  0
  -23.9748  -27.3149   19.0082 H   0  0  0  0  0  0
  -23.7398  -30.6009   19.4013 H   0  0  0  0  0  0
  -22.7563  -29.2466   19.8536 H   0  0  0  0  0  0
  -25.1282  -36.1934   25.0830 H   0  0  0  0  0  0
  -20.9934  -28.3201   24.1450 H   0  0  0  0  0  0
  -20.5721  -26.2205   23.3590 H   0  0  0  0  0  0
  -21.6635  -26.7405   22.1162 H   0  0  0  0  0  0
  -19.6915  -25.6301   21.1229 H   0  0  0  0  0  0
  -19.6762  -27.3205   20.6776 H   0  0  0  0  0  0
  -17.4206  -26.6676   21.4008 H   0  0  0  0  0  0
  -18.0273  -26.0087   22.9019 H   0  0  0  0  0  0
  -19.7955  -30.7251   24.2224 H   0  0  0  0  0  0
  -17.5053  -31.6266   24.5113 H   0  0  0  0  0  0
  -15.5362  -30.2984   23.7716 H   0  0  0  0  0  0
  -15.8666  -28.0849   22.7074 H   0  0  0  0  0  0
  -24.5886  -30.7098   25.7779 H   0  0  0  0  0  0
  -24.8849  -32.2929   26.4796 H   0  0  0  0  0  0
  -25.7993  -30.9002   27.0237 H   0  0  0  0  0  0
  -26.2841  -29.6821   24.1147 H   0  0  0  0  0  0
  -27.4078  -29.7285   25.4569 H   0  0  0  0  0  0
  -27.8683  -30.4386   23.9269 H   0  0  0  0  0  0
  -27.2664  -33.3672   26.1945 H   0  0  0  0  0  0
  -28.3872  -32.6772   25.0295 H   0  0  0  0  0  0
  -28.0634  -31.8493   26.5460 H   0  0  0  0  0  0
  -28.2527  -38.0146   24.7590 H   0  0  0  0  0  0
  -28.1151  -36.2678   24.6148 H   0  0  0  0  0  0
  -27.2315  -37.1248   25.8854 H   0  0  0  0  0  0
  -20.9351  -29.8729   21.6901 H   0  0  0  0  0  0
  -26.0181  -38.2861   24.1540 H   0  0  0  0  0  0
  -30.4693  -21.5699   22.5780 H   0  0  0  0  0  0
  -28.9669  -21.3257   18.5395 H   0  0  0  0  0  0
  -29.5298  -23.8281   22.7782 H   0  0  0  0  0  0
  -28.0242  -23.5997   18.7557 H   0  0  0  0  0  0
  -32.7683  -18.5980   17.9347 H   0  0  0  0  0  0
  -33.0111  -18.5070   19.6585 H   0  0  0  0  0  0
  -31.9607  -16.4856   18.6794 H   0  0  0  0  0  0
  -30.5772  -17.3969   18.1698 H   0  0  0  0  0  0
  -28.9599  -18.4771   19.8404 H   0  0  0  0  0  0
  -29.3417  -18.4677   21.5434 H   0  0  0  0  0  0
  -31.3059  -19.8620   21.1909 H   0  0  0  0  0  0
  -30.7571  -19.9642   18.2165 H   0  0  0  0  0  0
  -31.4778  -17.2296   21.0828 H   0  0  0  0  0  0
  -31.4596  -21.7895   17.1622 H   0  0  0  0  0  0
  -33.1579  -22.2494   17.3293 H   0  0  0  0  0  0
  -31.9236  -23.0730   18.2843 H   0  0  0  0  0  0
  -28.2484  -25.6115   22.0323 H   0  0  0  0  0  0
  -26.9608  -25.0742   21.0269 H   0  0  0  0  0  0
  -29.0535  -15.7765   20.6568 H   0  0  0  0  0  0
  1 25  1  0  0  0
  1 30  2  0  0  0
  1 86  1  0  0  0
  2  3  1  0  0  0
  2 25  1  0  0  0
  2 88  1  0  0  0
  2 89  1  0  0  0
  3  4  1  0  0  0
  3 90  1  0  0  0
  3 91  1  0  0  0
  4  5  1  0  0  0
  4 92  1  0  0  0
  4 93  1  0  0  0
  5  6  1  0  0  0
  5 26  1  0  0  0
  5 94  1  0  0  0
  6 25  1  0  0  0
  6 95  1  0  0  0
  6 96  1  0  0  0
  7  8  2  0  0  0
  7 26  1  0  0  0
  7 29  1  0  0  0
  8  9  1  0  0  0
  8 22  1  0  0  0
  9 10  1  0  0  0
  9 27  2  0  0  0
 10 11  2  0  0  0
 10 15  1  0  0  0
 11 12  1  0  0  0
 11 97  1  0  0  0
 12 13  2  0  0  0
 12 98  1  0  0  0
 13 14  1  0  0  0
 13 31  1  0  0  0
 14 15  2  0  0  0
 14 99  1  0  0  0
 15100  1  0  0  0
 16 17  2  0  0  0
 16 21  1  0  0  0
 16 31  1  0  0  0
 17 18  1  0  0  0
 17101  1  0  0  0
 18 19  2  0  0  0
 18102  1  0  0  0
 19 20  1  0  0  0
 19 24  1  0  0  0
 20 21  2  0  0  0
 20103  1  0  0  0
 21 23  1  0  0  0
 22 28  1  0  0  0
 22 32  2  0  0  0
 26 27  1  0  0  0
 28104  1  0  0  0
 28105  1  0  0  0
 29106  1  0  0  0
 29107  1  0  0  0
 33 34  1  0  0  0
 33 66  1  0  0  0
 33 70  2  0  0  0
 34 36  1  0  0  0
 34 59  1  0  0  0
 34108  1  0  0  0
 35 44  2  0  0  0
 35 45  1  0  0  0
 35 68  1  0  0  0
 36 56  1  0  0  0
 36109  1  0  0  0
 37 39  1  0  0  0
 37 47  1  0  0  0
 37 66  1  0  0  0
 37110  1  0  0  0
 38 43  2  0  0  0
 38 46  1  0  0  0
 38 47  1  0  0  0
 39 64  1  0  0  0
 39 67  2  0  0  0
 40 52  1  0  0  0
 40 53  2  0  0  0
 40 58  1  0  0  0
 41111  1  0  0  0
 41112  1  0  0  0
 41113  1  0  0  0
 41 48  1  0  0  0
 42 43  1  0  0  0
 42 66  1  0  0  0
 42114  1  0  0  0
 42115  1  0  0  0
 43 44  1  0  0  0
 44116  1  0  0  0
 45 46  2  0  0  0
 45117  1  0  0  0
 46118  1  0  0  0
 47119  1  0  0  0
 47120  1  0  0  0
 48 56  1  0  0  0
 48 65  1  0  0  0
 48121  1  0  0  0
 49 50  1  0  0  0
 49 53  1  0  0  0
 49 64  1  0  0  0
 49122  1  0  0  0
 50 51  1  0  0  0
 50123  1  0  0  0
 50124  1  0  0  0
 51 52  1  0  0  0
 51125  1  0  0  0
 51126  1  0  0  0
 52127  1  0  0  0
 52128  1  0  0  0
 53 54  1  0  0  0
 54 55  2  0  0  0
 54129  1  0  0  0
 55 57  1  0  0  0
 55130  1  0  0  0
 56 69  2  0  0  0
 57 58  2  0  0  0
 57131  1  0  0  0
 58132  1  0  0  0
 59 60  1  0  0  0
 59 61  1  0  0  0
 59 62  1  0  0  0
 60133  1  0  0  0
 60134  1  0  0  0
 60135  1  0  0  0
 61136  1  0  0  0
 61137  1  0  0  0
 61138  1  0  0  0
 62139  1  0  0  0
 62140  1  0  0  0
 62141  1  0  0  0
 63 65  1  0  0  0
 63142  1  0  0  0
 63143  1  0  0  0
 63144  1  0  0  0
 64145  1  0  0  0
 65146  1  0  0  0
 68 85  1  0  0  0
 71 73  2  0  0  0
 71 75  1  0  0  0
 71147  1  0  0  0
 72 74  1  0  0  0
 72 75  2  0  0  0
 72148  1  0  0  0
 73 76  1  0  0  0
 73149  1  0  0  0
 74 76  2  0  0  0
 74150  1  0  0  0
 75 81  1  0  0  0
 76 85  1  0  0  0
 77 84  1  0  0  0
 77 87  2  0  0  0
 77 82  1  0  0  0
 78 79  1  0  0  0
 78 82  1  0  0  0
 78151  1  0  0  0
 78152  1  0  0  0
 79 83  1  0  0  0
 79153  1  0  0  0
 79154  1  0  0  0
 80 81  1  0  0  0
 80 83  1  0  0  0
 80155  1  0  0  0
 80156  1  0  0  0
 81 82  1  0  0  0
 81157  1  0  0  0
 82158  1  0  0  0
 83 86  1  0  0  0
 83159  1  0  0  0
 84160  1  0  0  0
 84161  1  0  0  0
 84162  1  0  0  0
 85163  1  0  0  0
 85164  1  0  0  0
 86165  1  0  0  0
M  ISO  4   1 100  68 101  85 101  86 100
M  END
> <chiral flag>
0

> <version>
0

> <s_m_source_file>
/data/baiqing/PycharmProjects/Reinvent-master-3.2/result/LINK_invent/BTK/process_docking_weight1_custom_sum_contain_oxygen_bond_distance_aromatic_linkinvent_7_9_3/rearranged_h_0129.sdf

> <i_m_source_file_index>
71

> <r_mmod_Potential_Energy-OPLS-2005>
110.838729858398

> <r_mmod_Stretch_Energy-OPLS-2005>
76.452880859375

> <r_mmod_Bend_Energy-OPLS-2005>
134.116180419922

> <r_mmod_Torsional_Energy-OPLS-2005>
274.529296875

> <r_mmod_Improper_Torsional_Energy-OPLS-2005>
7.78361129760742

> <r_mmod_Van_der_Waal_Energy-OPLS-2005>
147.644332885742

> <r_mmod_Electrostatic_Energy-OPLS-2005>
-365.262542724609

> <r_mmod_Solvation_Energy-OPLS-2005>
-216.955841064453

> <b_mmod_Minimization_Converged-OPLS-2005>
0

> <r_mmod_RMS_Derivative-OPLS-2005>
4.41026735305786

$$$$
72
                    3D
 Structure written by MMmdl.
165174  0  0  1  0            999 V2000
  -30.6417  -14.6377   20.5150 C   0  0  0  0  0  0
  -30.4374  -12.3981   19.4575 C   0  0  0  0  0  0
  -29.5146  -12.5093   18.2240 C   0  0  0  0  0  0
  -28.0363  -12.3486   18.6340 C   0  0  0  0  0  0
  -27.6523  -13.2216   19.8586 C   0  0  2  0  0  0
  -28.6949  -13.0987   20.9919 C   0  0  0  0  0  0
  -25.2558  -13.8165   20.5677 C   0  0  0  0  0  0
  -24.1827  -13.0439   20.9189 C   0  0  0  0  0  0
  -24.6401  -11.6917   20.8715 C   0  0  0  0  0  0
  -23.9067  -10.4294   21.0384 C   0  0  0  0  0  0
  -24.3616   -9.4217   21.9175 C   0  0  0  0  0  0
  -23.6297   -8.2250   22.0757 C   0  0  0  0  0  0
  -22.4288   -8.0270   21.3533 C   0  0  0  0  0  0
  -21.9909   -9.0242   20.4635 C   0  0  0  0  0  0
  -22.7232  -10.2128   20.3037 C   0  0  0  0  0  0
  -21.6855   -6.0731   22.5283 C   0  0  0  0  0  0
  -21.3999   -6.5637   23.8210 C   0  0  0  0  0  0
  -21.3661   -5.6793   24.9171 C   0  0  0  0  0  0
  -21.6052   -4.3056   24.7222 C   0  0  0  0  0  0
  -21.8818   -3.8144   23.4340 C   0  0  0  0  0  0
  -21.9195   -4.6960   22.3395 C   0  0  0  0  0  0
  -22.7844  -13.5222   21.1860 C   0  0  0  0  0  0
  -22.1664   -4.2145   21.0968 F   0  0  0  0  0  0
  -21.5639   -3.4537   25.7728 F   0  0  0  0  0  0
  -30.0102  -13.4270   20.4239 N   0  0  0  0  0  0
  -26.2986  -12.9369   20.3277 N   0  0  0  0  0  0
  -25.9329  -11.6530   20.5719 N   0  0  0  0  0  0
  -22.0483  -12.8189   22.0394 N   0  0  0  0  0  0
  -25.4254  -15.1877   20.4079 N   0  0  0  0  0  0
  -31.8098  -14.7856   20.1475 O   0  0  0  0  0  0
  -21.6650   -6.8868   21.4245 O   0  0  0  0  0  0
  -22.3546  -14.5554   20.6737 O   0  0  0  0  0  0
  -24.6314  -31.8567   23.2042 C   0  0  0  0  0  0
  -25.9172  -32.4759   23.8358 C   0  0  1  0  0  0
  -27.2193  -27.3113   20.1063 C   0  0  0  0  0  0
  -25.5991  -33.8560   24.2322 N   0  0  0  0  0  0
  -23.4219  -30.4871   21.5426 C   0  0  2  0  0  0
  -24.8624  -28.9348   20.1107 C   0  0  0  0  0  0
  -22.7482  -29.4674   22.4935 C   0  0  0  0  0  0
  -18.0264  -28.1412   22.8486 C   0  0  0  0  0  0
  -24.1487  -36.7259   23.2657 C   0  0  0  0  0  0
  -25.9633  -30.7833   21.3780 C   0  0  0  0  0  0
  -26.0272  -29.4077   20.7273 C   0  0  0  0  0  0
  -27.2015  -28.5982   20.7267 C   0  0  0  0  0  0
  -26.0472  -26.9172   19.4242 C   0  0  0  0  0  0
  -24.8744  -27.6939   19.4543 C   0  0  0  0  0  0
  -23.6363  -29.8211   20.1584 C   0  0  0  0  0  0
  -25.4115  -36.3065   24.0348 C   0  0  1  0  0  0
  -20.5887  -28.3725   23.1267 C   0  0  2  0  0  0
  -20.6770  -26.9453   22.5401 C   0  0  0  0  0  0
  -19.5751  -26.6416   21.5200 C   0  0  0  0  0  0
  -18.1926  -26.7965   22.1599 C   0  0  0  0  0  0
  -19.1523  -28.8872   23.2868 C   0  0  0  0  0  0
  -18.9476  -30.1483   23.8892 C   0  0  0  0  0  0
  -17.6479  -30.6598   24.0599 C   0  0  0  0  0  0
  -25.9057  -34.9432   23.5124 C   0  0  0  0  0  0
  -16.5362  -29.9118   23.6346 C   0  0  0  0  0  0
  -16.7251  -28.6529   23.0347 C   0  0  0  0  0  0
  -26.4529  -31.6550   25.0726 C   0  0  0  0  0  0
  -25.3768  -31.3626   26.1461 C   0  0  0  0  0  0
  -27.0423  -30.3015   24.6179 C   0  0  0  0  0  0
  -27.6103  -32.4283   25.7470 C   0  0  0  0  0  0
  -27.5559  -37.1777   24.8483 C   0  0  0  0  0  0
  -21.4187  -29.3069   22.3669 N   0  0  0  0  0  0
  -26.4268  -37.3790   23.9437 N   0  0  0  0  0  0
  -24.6906  -31.0618   22.0978 N   0  0  0  0  0  0
  -23.4179  -28.8197   23.3029 O   0  0  0  0  0  0
  -28.3723  -26.5077   20.1226 O   0  0  0  0  0  0
  -26.5601  -34.8898   22.4665 O   0  0  0  0  0  0
  -23.5473  -32.1364   23.7377 O   0  0  0  0  0  0
  -27.3512  -24.1709   20.1323 C   0  0  0  0  0  0
  -29.9002  -23.2250   19.9436 C   0  0  0  0  0  0
  -27.5597  -22.7707   19.9553 C   0  0  0  0  0  0
  -28.8788  -22.2397   19.8779 C   0  0  0  0  0  0
  -28.4322  -25.0874   20.1074 C   0  0  0  0  0  0
  -25.8779  -20.3792   17.5782 C   0  0  0  0  0  0
  -26.0784  -21.7441   18.2169 C   0  0  1  0  0  0
  -24.7071  -21.3219   17.7326 C   0  0  1  0  0  0
  -26.3351  -21.9007   19.7113 C   0  0  0  0  0  0
  -29.1926  -20.7264   19.5245 C   0  0  0  0  0  0
  -30.2279  -17.1677   21.0192 C   0  0  0  0  0  0
  -29.3399  -18.2355   20.2379 C   0  0  0  0  0  0
  -29.6903  -24.5748   20.0333 N   0  0  0  0  0  0
  -29.8654  -15.7119   20.8566 N   0  0  0  0  0  0
  -24.2644  -21.9775   16.4836 N   0  3  0  0  0  0
  -29.5139  -19.7046   20.5997 N   0  3  0  0  0  0
  -31.4816  -12.5161   19.1600 H   0  0  0  0  0  0
  -30.3650  -11.4061   19.9049 H   0  0  0  0  0  0
  -29.7819  -11.7527   17.4842 H   0  0  0  0  0  0
  -29.6614  -13.4753   17.7383 H   0  0  0  0  0  0
  -27.8765  -11.2955   18.8688 H   0  0  0  0  0  0
  -27.3842  -12.5731   17.7891 H   0  0  0  0  0  0
  -27.6641  -14.2542   19.5107 H   0  0  0  0  0  0
  -28.7063  -12.0914   21.4086 H   0  0  0  0  0  0
  -28.4401  -13.7590   21.8218 H   0  0  0  0  0  0
  -25.2755   -9.5722   22.4752 H   0  0  0  0  0  0
  -24.0019   -7.4647   22.7473 H   0  0  0  0  0  0
  -21.0847   -8.8729   19.8928 H   0  0  0  0  0  0
  -22.3672  -10.9652   19.6133 H   0  0  0  0  0  0
  -21.1975   -7.6142   23.9707 H   0  0  0  0  0  0
  -21.1486   -6.0517   25.9071 H   0  0  0  0  0  0
  -22.0596   -2.7604   23.2834 H   0  0  0  0  0  0
  -22.4095  -11.9830   22.4746 H   0  0  0  0  0  0
  -21.1086  -13.1178   22.2586 H   0  0  0  0  0  0
  -24.6490  -15.8332   20.4961 H   0  0  0  0  0  0
  -26.2626  -15.6247   20.0482 H   0  0  0  0  0  0
  -26.7250  -32.5425   23.1106 H   0  0  0  0  0  0
  -25.0201  -33.9724   25.0511 H   0  0  0  0  0  0
  -22.7173  -31.3086   21.3972 H   0  0  0  0  0  0
  -23.3737  -35.9600   23.3317 H   0  0  0  0  0  0
  -24.3576  -36.8865   22.2072 H   0  0  0  0  0  0
  -23.7229  -37.6463   23.6658 H   0  0  0  0  0  0
  -26.1063  -31.5410   20.6059 H   0  0  0  0  0  0
  -26.8485  -30.8324   22.0016 H   0  0  0  0  0  0
  -28.0986  -28.9529   21.2103 H   0  0  0  0  0  0
  -26.0171  -26.0051   18.8459 H   0  0  0  0  0  0
  -23.9868  -27.3382   18.9475 H   0  0  0  0  0  0
  -23.7596  -30.5980   19.4016 H   0  0  0  0  0  0
  -22.7563  -29.2514   19.8551 H   0  0  0  0  0  0
  -25.1287  -36.1896   25.0837 H   0  0  0  0  0  0
  -20.9963  -28.3282   24.1399 H   0  0  0  0  0  0
  -20.5728  -26.2331   23.3586 H   0  0  0  0  0  0
  -21.6624  -26.7543   22.1165 H   0  0  0  0  0  0
  -19.6955  -25.6338   21.1195 H   0  0  0  0  0  0
  -19.6679  -27.3250   20.6755 H   0  0  0  0  0  0
  -17.4207  -26.6717   21.3979 H   0  0  0  0  0  0
  -18.0323  -26.0113   22.8993 H   0  0  0  0  0  0
  -19.7951  -30.7300   24.2246 H   0  0  0  0  0  0
  -17.5022  -31.6280   24.5221 H   0  0  0  0  0  0
  -15.5360  -30.3025   23.7686 H   0  0  0  0  0  0
  -15.8635  -28.0867   22.7073 H   0  0  0  0  0  0
  -24.6019  -30.6904   25.7747 H   0  0  0  0  0  0
  -24.8873  -32.2743   26.4873 H   0  0  0  0  0  0
  -25.8116  -30.8801   27.0227 H   0  0  0  0  0  0
  -26.3011  -29.6672   24.1310 H   0  0  0  0  0  0
  -27.4285  -29.7357   25.4656 H   0  0  0  0  0  0
  -27.8775  -30.4339   23.9304 H   0  0  0  0  0  0
  -27.2786  -33.3646   26.1945 H   0  0  0  0  0  0
  -28.3922  -32.6726   25.0269 H   0  0  0  0  0  0
  -28.0744  -31.8445   26.5429 H   0  0  0  0  0  0
  -28.2583  -38.0075   24.7534 H   0  0  0  0  0  0
  -28.1021  -36.2598   24.6260 H   0  0  0  0  0  0
  -27.2266  -37.1357   25.8885 H   0  0  0  0  0  0
  -20.9397  -29.8732   21.6826 H   0  0  0  0  0  0
  -26.0112  -38.2852   24.1438 H   0  0  0  0  0  0
  -26.3379  -24.5243   20.2321 H   0  0  0  0  0  0
  -30.9346  -22.9227   19.8539 H   0  0  0  0  0  0
  -25.9041  -19.5049   18.2280 H   0  0  0  0  0  0
  -26.3113  -20.2268   16.5917 H   0  0  0  0  0  0
  -26.5861  -22.4851   17.6011 H   0  0  0  0  0  0
  -23.9198  -21.1063   18.4534 H   0  0  0  0  0  0
  -25.4651  -22.3833   20.1585 H   0  0  0  0  0  0
  -26.4233  -20.9292   20.1995 H   0  0  0  0  0  0
  -30.0227  -20.7170   18.8152 H   0  0  0  0  0  0
  -28.3585  -20.3318   18.9457 H   0  0  0  0  0  0
  -30.1860  -17.3824   22.0881 H   0  0  0  0  0  0
  -31.2732  -17.3074   20.7396 H   0  0  0  0  0  0
  -28.2844  -17.9961   20.3683 H   0  0  0  0  0  0
  -29.5411  -18.1134   19.1724 H   0  0  0  0  0  0
  -28.9173  -15.4709   21.1075 H   0  0  0  0  0  0
  -25.0026  -22.0717   15.8088 H   0  0  0  0  0  0
  -23.8999  -22.8927   16.6777 H   0  0  0  0  0  0
  -23.5222  -21.4516   16.0597 H   0  0  0  0  0  0
  -28.9232  -19.8837   21.3955 H   0  0  0  0  0  0
  -30.4647  -19.8536   20.8954 H   0  0  0  0  0  0
  1 25  1  0  0  0
  1 30  2  0  0  0
  1 84  1  0  0  0
  2  3  1  0  0  0
  2 25  1  0  0  0
  2 87  1  0  0  0
  2 88  1  0  0  0
  3  4  1  0  0  0
  3 89  1  0  0  0
  3 90  1  0  0  0
  4  5  1  0  0  0
  4 91  1  0  0  0
  4 92  1  0  0  0
  5  6  1  0  0  0
  5 26  1  0  0  0
  5 93  1  0  0  0
  6 25  1  0  0  0
  6 94  1  0  0  0
  6 95  1  0  0  0
  7  8  2  0  0  0
  7 26  1  0  0  0
  7 29  1  0  0  0
  8  9  1  0  0  0
  8 22  1  0  0  0
  9 10  1  0  0  0
  9 27  2  0  0  0
 10 11  2  0  0  0
 10 15  1  0  0  0
 11 12  1  0  0  0
 11 96  1  0  0  0
 12 13  2  0  0  0
 12 97  1  0  0  0
 13 14  1  0  0  0
 13 31  1  0  0  0
 14 15  2  0  0  0
 14 98  1  0  0  0
 15 99  1  0  0  0
 16 17  2  0  0  0
 16 21  1  0  0  0
 16 31  1  0  0  0
 17 18  1  0  0  0
 17100  1  0  0  0
 18 19  2  0  0  0
 18101  1  0  0  0
 19 20  1  0  0  0
 19 24  1  0  0  0
 20 21  2  0  0  0
 20102  1  0  0  0
 21 23  1  0  0  0
 22 28  1  0  0  0
 22 32  2  0  0  0
 26 27  1  0  0  0
 28103  1  0  0  0
 28104  1  0  0  0
 29105  1  0  0  0
 29106  1  0  0  0
 33 34  1  0  0  0
 33 66  1  0  0  0
 33 70  2  0  0  0
 34 36  1  0  0  0
 34 59  1  0  0  0
 34107  1  0  0  0
 35 44  2  0  0  0
 35 45  1  0  0  0
 35 68  1  0  0  0
 36 56  1  0  0  0
 36108  1  0  0  0
 37 39  1  0  0  0
 37 47  1  0  0  0
 37 66  1  0  0  0
 37109  1  0  0  0
 38 43  2  0  0  0
 38 46  1  0  0  0
 38 47  1  0  0  0
 39 64  1  0  0  0
 39 67  2  0  0  0
 40 52  1  0  0  0
 40 53  2  0  0  0
 40 58  1  0  0  0
 41110  1  0  0  0
 41111  1  0  0  0
 41112  1  0  0  0
 41 48  1  0  0  0
 42 43  1  0  0  0
 42 66  1  0  0  0
 42113  1  0  0  0
 42114  1  0  0  0
 43 44  1  0  0  0
 44115  1  0  0  0
 45 46  2  0  0  0
 45116  1  0  0  0
 46117  1  0  0  0
 47118  1  0  0  0
 47119  1  0  0  0
 48 56  1  0  0  0
 48 65  1  0  0  0
 48120  1  0  0  0
 49 50  1  0  0  0
 49 53  1  0  0  0
 49 64  1  0  0  0
 49121  1  0  0  0
 50 51  1  0  0  0
 50122  1  0  0  0
 50123  1  0  0  0
 51 52  1  0  0  0
 51124  1  0  0  0
 51125  1  0  0  0
 52126  1  0  0  0
 52127  1  0  0  0
 53 54  1  0  0  0
 54 55  2  0  0  0
 54128  1  0  0  0
 55 57  1  0  0  0
 55129  1  0  0  0
 56 69  2  0  0  0
 57 58  2  0  0  0
 57130  1  0  0  0
 58131  1  0  0  0
 59 60  1  0  0  0
 59 61  1  0  0  0
 59 62  1  0  0  0
 60132  1  0  0  0
 60133  1  0  0  0
 60134  1  0  0  0
 61135  1  0  0  0
 61136  1  0  0  0
 61137  1  0  0  0
 62138  1  0  0  0
 62139  1  0  0  0
 62140  1  0  0  0
 63 65  1  0  0  0
 63141  1  0  0  0
 63142  1  0  0  0
 63143  1  0  0  0
 64144  1  0  0  0
 65145  1  0  0  0
 68 75  1  0  0  0
 71 73  2  0  0  0
 71 75  1  0  0  0
 71146  1  0  0  0
 72 74  2  0  0  0
 72 83  1  0  0  0
 72147  1  0  0  0
 73 74  1  0  0  0
 73 79  1  0  0  0
 74 80  1  0  0  0
 75 83  2  0  0  0
 76 77  1  0  0  0
 76 78  1  0  0  0
 76148  1  0  0  0
 76149  1  0  0  0
 77 78  1  0  0  0
 77 79  1  0  0  0
 77150  1  0  0  0
 78 85  1  0  0  0
 78151  1  0  0  0
 79152  1  0  0  0
 79153  1  0  0  0
 80 86  1  0  0  0
 80154  1  0  0  0
 80155  1  0  0  0
 81 82  1  0  0  0
 81 84  1  0  0  0
 81156  1  0  0  0
 81157  1  0  0  0
 82 86  1  0  0  0
 82158  1  0  0  0
 82159  1  0  0  0
 84160  1  0  0  0
 85161  1  0  0  0
 85162  1  0  0  0
 85163  1  0  0  0
 86164  1  0  0  0
 86165  1  0  0  0
M  CHG  2  85   1  86   1
M  ISO  4   1 100  68 101  75 101  84 100
M  END
> <chiral flag>
0

> <version>
0

> <s_m_source_file>
/data/baiqing/PycharmProjects/Reinvent-master-3.2/result/LINK_invent/BTK/process_docking_weight1_custom_sum_contain_oxygen_bond_distance_aromatic_linkinvent_7_9_3/rearranged_h_0129.sdf

> <i_m_source_file_index>
72

> <r_mmod_Potential_Energy-OPLS-2005>
-492.461730957031

> <r_mmod_Stretch_Energy-OPLS-2005>
77.9852828979492

> <r_mmod_Bend_Energy-OPLS-2005>
153.325073242188

> <r_mmod_Torsional_Energy-OPLS-2005>
252.649047851562

> <r_mmod_Improper_Torsional_Energy-OPLS-2005>
5.65855550765991

> <r_mmod_Van_der_Waal_Energy-OPLS-2005>
143.382125854492

> <r_mmod_Electrostatic_Energy-OPLS-2005>
-132.601013183594

> <r_mmod_Solvation_Energy-OPLS-2005>
-1040.79711914062

> <b_mmod_Minimization_Converged-OPLS-2005>
0

> <r_mmod_RMS_Derivative-OPLS-2005>
4.6098256111145

$$$$
73
                    3D
 Structure written by MMmdl.
168176  0  0  1  0            999 V2000
  -30.6907  -14.4395   20.5886 C   0  0  0  0  0  0
  -30.4202  -12.2963   19.4113 C   0  0  0  0  0  0
  -29.4914  -12.5087   18.1972 C   0  0  0  0  0  0
  -28.0068  -12.3795   18.6028 C   0  0  0  0  0  0
  -27.6579  -13.2006   19.8710 C   0  0  2  0  0  0
  -28.6942  -12.9363   20.9819 C   0  0  0  0  0  0
  -25.2559  -13.8147   20.5629 C   0  0  0  0  0  0
  -24.1819  -13.0429   20.9232 C   0  0  0  0  0  0
  -24.6362  -11.6895   20.8772 C   0  0  0  0  0  0
  -23.9032  -10.4292   21.0427 C   0  0  0  0  0  0
  -24.3601   -9.4205   21.9189 C   0  0  0  0  0  0
  -23.6276   -8.2242   22.0759 C   0  0  0  0  0  0
  -22.4252   -8.0273   21.3557 C   0  0  0  0  0  0
  -21.9881   -9.0249   20.4656 C   0  0  0  0  0  0
  -22.7214  -10.2125   20.3069 C   0  0  0  0  0  0
  -21.6851   -6.0730   22.5294 C   0  0  0  0  0  0
  -21.4015   -6.5635   23.8219 C   0  0  0  0  0  0
  -21.3651   -5.6786   24.9188 C   0  0  0  0  0  0
  -21.6036   -4.3046   24.7238 C   0  0  0  0  0  0
  -21.8822   -3.8136   23.4366 C   0  0  0  0  0  0
  -21.9186   -4.6960   22.3416 C   0  0  0  0  0  0
  -22.7851  -13.5259   21.1860 C   0  0  0  0  0  0
  -22.1660   -4.2142   21.0992 F   0  0  0  0  0  0
  -21.5624   -3.4520   25.7747 F   0  0  0  0  0  0
  -30.0249  -13.2616   20.4460 N   0  0  0  0  0  0
  -26.2982  -12.9303   20.3314 N   0  0  0  0  0  0
  -25.9280  -11.6472   20.5752 N   0  0  0  0  0  0
  -22.0450  -12.8285   22.0435 N   0  0  0  0  0  0
  -25.4242  -15.1829   20.3872 N   0  0  0  0  0  0
  -31.8143  -14.6397   20.1249 O   0  0  0  0  0  0
  -21.6632   -6.8868   21.4244 O   0  0  0  0  0  0
  -22.3570  -14.5555   20.6663 O   0  0  0  0  0  0
  -24.6075  -31.8728   23.2129 C   0  0  0  0  0  0
  -25.8991  -32.4843   23.8401 C   0  0  1  0  0  0
  -27.2433  -27.4684   20.0883 C   0  0  0  0  0  0
  -25.5867  -33.8651   24.2336 N   0  0  0  0  0  0
  -23.3910  -30.4967   21.5530 C   0  0  2  0  0  0
  -24.8413  -28.9625   20.1157 C   0  0  0  0  0  0
  -22.7345  -29.4715   22.5034 C   0  0  0  0  0  0
  -18.0268  -28.1297   22.8521 C   0  0  0  0  0  0
  -24.1461  -36.7309   23.2646 C   0  0  0  0  0  0
  -25.9163  -30.8412   21.3660 C   0  0  0  0  0  0
  -25.9933  -29.4756   20.7203 C   0  0  0  0  0  0
  -27.1883  -28.7280   20.7223 C   0  0  0  0  0  0
  -26.0729  -26.9712   19.4632 C   0  0  0  0  0  0
  -24.8745  -27.7052   19.4894 C   0  0  0  0  0  0
  -23.5956  -29.8175   20.1713 C   0  0  0  0  0  0
  -25.4090  -36.3141   24.0353 C   0  0  1  0  0  0
  -20.5842  -28.3666   23.1302 C   0  0  2  0  0  0
  -20.6819  -26.9399   22.5393 C   0  0  0  0  0  0
  -19.5742  -26.6243   21.5280 C   0  0  0  0  0  0
  -18.1950  -26.7786   22.1760 C   0  0  0  0  0  0
  -19.1500  -28.8804   23.2888 C   0  0  0  0  0  0
  -18.9449  -30.1449   23.8829 C   0  0  0  0  0  0
  -17.6455  -30.6576   24.0469 C   0  0  0  0  0  0
  -25.9029  -34.9506   23.5145 C   0  0  0  0  0  0
  -16.5349  -29.9033   23.6304 C   0  0  0  0  0  0
  -16.7253  -28.6414   23.0383 C   0  0  0  0  0  0
  -26.4418  -31.6635   25.0735 C   0  0  0  0  0  0
  -25.3673  -31.3793   26.1494 C   0  0  0  0  0  0
  -27.0241  -30.3070   24.6121 C   0  0  0  0  0  0
  -27.5979  -32.4372   25.7497 C   0  0  0  0  0  0
  -27.5566  -37.1819   24.8471 C   0  0  0  0  0  0
  -21.4076  -29.3099   22.3787 N   0  0  0  0  0  0
  -26.4272  -37.3817   23.9424 N   0  0  0  0  0  0
  -24.6559  -31.0846   22.1023 N   0  0  0  0  0  0
  -23.4142  -28.8224   23.3029 O   0  0  0  0  0  0
  -28.4492  -26.8023   20.1098 O   0  0  0  0  0  0
  -26.5598  -34.8941   22.4723 O   0  0  0  0  0  0
  -23.5292  -32.1486   23.7551 O   0  0  0  0  0  0
  -25.6782  -22.0997   21.1490 C   0  0  0  0  0  0
  -26.7886  -23.2413   22.9904 C   0  0  0  0  0  0
  -25.3386  -21.0341   22.0079 C   0  0  0  0  0  0
  -26.4170  -22.1932   23.8554 C   0  0  0  0  0  0
  -26.4302  -23.1930   21.6266 C   0  0  0  0  0  0
  -25.7226  -21.0692   23.3662 C   0  0  0  0  0  0
  -28.9741  -23.0894   20.1352 C   0  0  0  0  0  0
  -29.5373  -15.8992   22.2469 C   0  0  0  0  0  0
  -28.3007  -16.8262   22.1974 C   0  0  0  0  0  0
  -27.3500  -18.5785   23.7549 C   0  0  0  0  0  0
  -25.8137  -18.7232   23.8552 C   0  0  0  0  0  0
  -28.5835  -25.5001   19.5479 C   0  0  0  0  0  0
  -28.2748  -24.3859   20.5725 C   0  0  2  0  0  0
  -26.8326  -24.1850   20.7253 N   0  0  0  0  0  0
  -29.9298  -15.4992   20.8951 N   0  0  0  0  0  0
  -27.8097  -17.1783   23.5507 N   0  3  0  0  0  0
  -25.4404  -20.0505   24.2440 O   0  0  0  0  0  0
  -31.4631  -12.4076   19.1143 H   0  0  0  0  0  0
  -30.3269  -11.2772   19.7883 H   0  0  0  0  0  0
  -29.7243  -11.7873   17.4127 H   0  0  0  0  0  0
  -29.6712  -13.4966   17.7698 H   0  0  0  0  0  0
  -27.7992  -11.3216   18.7756 H   0  0  0  0  0  0
  -27.3638  -12.6856   17.7770 H   0  0  0  0  0  0
  -27.7152  -14.2578   19.6066 H   0  0  0  0  0  0
  -28.6661  -11.8861   21.2791 H   0  0  0  0  0  0
  -28.4331  -13.4883   21.8785 H   0  0  0  0  0  0
  -25.2732   -9.5685   22.4777 H   0  0  0  0  0  0
  -23.9982   -7.4627   22.7470 H   0  0  0  0  0  0
  -21.0816   -8.8771   19.8969 H   0  0  0  0  0  0
  -22.3660  -10.9676   19.6188 H   0  0  0  0  0  0
  -21.2019   -7.6130   23.9730 H   0  0  0  0  0  0
  -21.1464   -6.0514   25.9092 H   0  0  0  0  0  0
  -22.0602   -2.7597   23.2876 H   0  0  0  0  0  0
  -22.3979  -11.9939   22.4892 H   0  0  0  0  0  0
  -21.1080  -13.1401   22.2566 H   0  0  0  0  0  0
  -24.6118  -15.7906   20.3683 H   0  0  0  0  0  0
  -26.1942  -15.5458   19.8382 H   0  0  0  0  0  0
  -26.7085  -32.5578   23.1191 H   0  0  0  0  0  0
  -25.0001  -33.9812   25.0472 H   0  0  0  0  0  0
  -22.6754  -31.3100   21.4097 H   0  0  0  0  0  0
  -23.3730  -35.9635   23.3349 H   0  0  0  0  0  0
  -24.3534  -36.8879   22.2050 H   0  0  0  0  0  0
  -23.7189  -37.6521   23.6621 H   0  0  0  0  0  0
  -26.0190  -31.5993   20.5881 H   0  0  0  0  0  0
  -26.8072  -30.9052   21.9788 H   0  0  0  0  0  0
  -28.0688  -29.1157   21.2182 H   0  0  0  0  0  0
  -26.0578  -26.0217   18.9516 H   0  0  0  0  0  0
  -23.9933  -27.3019   19.0108 H   0  0  0  0  0  0
  -23.6732  -30.5814   19.3976 H   0  0  0  0  0  0
  -22.7260  -29.2148   19.8999 H   0  0  0  0  0  0
  -25.1256  -36.2014   25.0841 H   0  0  0  0  0  0
  -20.9936  -28.3254   24.1416 H   0  0  0  0  0  0
  -20.5864  -26.2267   23.3601 H   0  0  0  0  0  0
  -21.6681  -26.7523   22.1126 H   0  0  0  0  0  0
  -19.6889  -25.6085   21.1460 H   0  0  0  0  0  0
  -19.6588  -27.2917   20.6703 H   0  0  0  0  0  0
  -17.4162  -26.6368   21.4243 H   0  0  0  0  0  0
  -18.0494  -25.9998   22.9267 H   0  0  0  0  0  0
  -19.7955  -30.7282   24.2093 H   0  0  0  0  0  0
  -17.5023  -31.6303   24.4979 H   0  0  0  0  0  0
  -15.5340  -30.2943   23.7611 H   0  0  0  0  0  0
  -15.8647  -28.0707   22.7182 H   0  0  0  0  0  0
  -24.5809  -30.7154   25.7876 H   0  0  0  0  0  0
  -24.8888  -32.2985   26.4899 H   0  0  0  0  0  0
  -25.8009  -30.9012   27.0289 H   0  0  0  0  0  0
  -26.2842  -29.6892   24.1013 H   0  0  0  0  0  0
  -27.3856  -29.7235   25.4604 H   0  0  0  0  0  0
  -27.8717  -30.4388   23.9381 H   0  0  0  0  0  0
  -27.2555  -33.3660   26.2081 H   0  0  0  0  0  0
  -28.3772  -32.6980   25.0317 H   0  0  0  0  0  0
  -28.0649  -31.8510   26.5421 H   0  0  0  0  0  0
  -28.2617  -38.0089   24.7503 H   0  0  0  0  0  0
  -28.1024  -36.2627   24.6305 H   0  0  0  0  0  0
  -27.2280  -37.1470   25.8871 H   0  0  0  0  0  0
  -20.9207  -29.8926   21.7136 H   0  0  0  0  0  0
  -26.0181  -38.2900   24.1425 H   0  0  0  0  0  0
  -25.3785  -22.0662   20.1117 H   0  0  0  0  0  0
  -27.3631  -24.0669   23.3855 H   0  0  0  0  0  0
  -24.7705  -20.2015   21.6207 H   0  0  0  0  0  0
  -26.6955  -22.2331   24.8984 H   0  0  0  0  0  0
  -30.0429  -23.2557   20.0006 H   0  0  0  0  0  0
  -28.5724  -22.7310   19.1877 H   0  0  0  0  0  0
  -28.8638  -22.2985   20.8774 H   0  0  0  0  0  0
  -29.3684  -15.0406   22.8940 H   0  0  0  0  0  0
  -30.3789  -16.4312   22.6922 H   0  0  0  0  0  0
  -27.4901  -16.3564   21.6400 H   0  0  0  0  0  0
  -28.5699  -17.7233   21.6384 H   0  0  0  0  0  0
  -27.7776  -18.9182   24.6998 H   0  0  0  0  0  0
  -27.7522  -19.2447   22.9910 H   0  0  0  0  0  0
  -25.4472  -18.0759   24.6514 H   0  0  0  0  0  0
  -25.3131  -18.3989   22.9427 H   0  0  0  0  0  0
  -28.0450  -25.3607   18.6112 H   0  0  0  0  0  0
  -29.6381  -25.4389   19.2765 H   0  0  0  0  0  0
  -28.7013  -24.6879   21.5323 H   0  0  0  0  0  0
  -26.3626  -25.0744   20.8771 H   0  0  0  0  0  0
  -30.2167  -16.3035   20.3560 H   0  0  0  0  0  0
  -27.0771  -16.5356   23.8120 H   0  0  0  0  0  0
  -28.5706  -17.0184   24.1911 H   0  0  0  0  0  0
  1 25  1  0  0  0
  1 30  2  0  0  0
  1 85  1  0  0  0
  2  3  1  0  0  0
  2 25  1  0  0  0
  2 88  1  0  0  0
  2 89  1  0  0  0
  3  4  1  0  0  0
  3 90  1  0  0  0
  3 91  1  0  0  0
  4  5  1  0  0  0
  4 92  1  0  0  0
  4 93  1  0  0  0
  5  6  1  0  0  0
  5 26  1  0  0  0
  5 94  1  0  0  0
  6 25  1  0  0  0
  6 95  1  0  0  0
  6 96  1  0  0  0
  7  8  2  0  0  0
  7 26  1  0  0  0
  7 29  1  0  0  0
  8  9  1  0  0  0
  8 22  1  0  0  0
  9 10  1  0  0  0
  9 27  2  0  0  0
 10 11  2  0  0  0
 10 15  1  0  0  0
 11 12  1  0  0  0
 11 97  1  0  0  0
 12 13  2  0  0  0
 12 98  1  0  0  0
 13 14  1  0  0  0
 13 31  1  0  0  0
 14 15  2  0  0  0
 14 99  1  0  0  0
 15100  1  0  0  0
 16 17  2  0  0  0
 16 21  1  0  0  0
 16 31  1  0  0  0
 17 18  1  0  0  0
 17101  1  0  0  0
 18 19  2  0  0  0
 18102  1  0  0  0
 19 20  1  0  0  0
 19 24  1  0  0  0
 20 21  2  0  0  0
 20103  1  0  0  0
 21 23  1  0  0  0
 22 28  1  0  0  0
 22 32  2  0  0  0
 26 27  1  0  0  0
 28104  1  0  0  0
 28105  1  0  0  0
 29106  1  0  0  0
 29107  1  0  0  0
 33 34  1  0  0  0
 33 66  1  0  0  0
 33 70  2  0  0  0
 34 36  1  0  0  0
 34 59  1  0  0  0
 34108  1  0  0  0
 35 44  2  0  0  0
 35 45  1  0  0  0
 35 68  1  0  0  0
 36 56  1  0  0  0
 36109  1  0  0  0
 37 39  1  0  0  0
 37 47  1  0  0  0
 37 66  1  0  0  0
 37110  1  0  0  0
 38 43  2  0  0  0
 38 46  1  0  0  0
 38 47  1  0  0  0
 39 64  1  0  0  0
 39 67  2  0  0  0
 40 52  1  0  0  0
 40 53  2  0  0  0
 40 58  1  0  0  0
 41111  1  0  0  0
 41112  1  0  0  0
 41113  1  0  0  0
 41 48  1  0  0  0
 42 43  1  0  0  0
 42 66  1  0  0  0
 42114  1  0  0  0
 42115  1  0  0  0
 43 44  1  0  0  0
 44116  1  0  0  0
 45 46  2  0  0  0
 45117  1  0  0  0
 46118  1  0  0  0
 47119  1  0  0  0
 47120  1  0  0  0
 48 56  1  0  0  0
 48 65  1  0  0  0
 48121  1  0  0  0
 49 50  1  0  0  0
 49 53  1  0  0  0
 49 64  1  0  0  0
 49122  1  0  0  0
 50 51  1  0  0  0
 50123  1  0  0  0
 50124  1  0  0  0
 51 52  1  0  0  0
 51125  1  0  0  0
 51126  1  0  0  0
 52127  1  0  0  0
 52128  1  0  0  0
 53 54  1  0  0  0
 54 55  2  0  0  0
 54129  1  0  0  0
 55 57  1  0  0  0
 55130  1  0  0  0
 56 69  2  0  0  0
 57 58  2  0  0  0
 57131  1  0  0  0
 58132  1  0  0  0
 59 60  1  0  0  0
 59 61  1  0  0  0
 59 62  1  0  0  0
 60133  1  0  0  0
 60134  1  0  0  0
 60135  1  0  0  0
 61136  1  0  0  0
 61137  1  0  0  0
 61138  1  0  0  0
 62139  1  0  0  0
 62140  1  0  0  0
 62141  1  0  0  0
 63 65  1  0  0  0
 63142  1  0  0  0
 63143  1  0  0  0
 63144  1  0  0  0
 64145  1  0  0  0
 65146  1  0  0  0
 68 82  1  0  0  0
 71 73  2  0  0  0
 71 75  1  0  0  0
 71147  1  0  0  0
 72 74  1  0  0  0
 72 75  2  0  0  0
 72148  1  0  0  0
 73 76  1  0  0  0
 73149  1  0  0  0
 74 76  2  0  0  0
 74150  1  0  0  0
 75 84  1  0  0  0
 76 87  1  0  0  0
 77151  1  0  0  0
 77152  1  0  0  0
 77153  1  0  0  0
 77 83  1  0  0  0
 78 79  1  0  0  0
 78 85  1  0  0  0
 78154  1  0  0  0
 78155  1  0  0  0
 79 86  1  0  0  0
 79156  1  0  0  0
 79157  1  0  0  0
 80 81  1  0  0  0
 80 86  1  0  0  0
 80158  1  0  0  0
 80159  1  0  0  0
 81 87  1  0  0  0
 81160  1  0  0  0
 81161  1  0  0  0
 82 83  1  0  0  0
 82162  1  0  0  0
 82163  1  0  0  0
 83 84  1  0  0  0
 83164  1  0  0  0
 84165  1  0  0  0
 85166  1  0  0  0
 86167  1  0  0  0
 86168  1  0  0  0
M  CHG  1  86   1
M  ISO  4   1 100  68 101  82 101  85 100
M  END
> <chiral flag>
0

> <version>
0

> <s_m_source_file>
/data/baiqing/PycharmProjects/Reinvent-master-3.2/result/LINK_invent/BTK/process_docking_weight1_custom_sum_contain_oxygen_bond_distance_aromatic_linkinvent_7_9_3/rearranged_h_0129.sdf

> <i_m_source_file_index>
73

> <r_mmod_Potential_Energy-OPLS-2005>
-175.907287597656

> <r_mmod_Stretch_Energy-OPLS-2005>
33.305965423584

> <r_mmod_Bend_Energy-OPLS-2005>
117.574150085449

> <r_mmod_Torsional_Energy-OPLS-2005>
308.141571044922

> <r_mmod_Improper_Torsional_Energy-OPLS-2005>
22.1713790893555

> <r_mmod_Van_der_Waal_Energy-OPLS-2005>
152.371551513672

> <r_mmod_Electrostatic_Energy-OPLS-2005>
-341.439758300781

> <r_mmod_Solvation_Energy-OPLS-2005>
-479.354614257812

> <b_mmod_Minimization_Converged-OPLS-2005>
0

> <r_mmod_RMS_Derivative-OPLS-2005>
4.31185722351074

$$$$
74
                    3D
 Structure written by MMmdl.
156164  0  0  1  0            999 V2000
  -30.7024  -14.4524   20.6056 C   0  0  0  0  0  0
  -30.4268  -12.3087   19.4106 C   0  0  0  0  0  0
  -29.4915  -12.5142   18.2014 C   0  0  0  0  0  0
  -28.0137  -12.3699   18.6160 C   0  0  0  0  0  0
  -27.6647  -13.1999   19.8796 C   0  0  2  0  0  0
  -28.7060  -12.9597   20.9960 C   0  0  0  0  0  0
  -25.2616  -13.8138   20.5659 C   0  0  0  0  0  0
  -24.1855  -13.0433   20.9155 C   0  0  0  0  0  0
  -24.6384  -11.6895   20.8715 C   0  0  0  0  0  0
  -23.9037  -10.4290   21.0387 C   0  0  0  0  0  0
  -24.3600   -9.4213   21.9166 C   0  0  0  0  0  0
  -23.6285   -8.2245   22.0746 C   0  0  0  0  0  0
  -22.4265   -8.0277   21.3540 C   0  0  0  0  0  0
  -21.9891   -9.0248   20.4645 C   0  0  0  0  0  0
  -22.7204  -10.2130   20.3045 C   0  0  0  0  0  0
  -21.6858   -6.0723   22.5272 C   0  0  0  0  0  0
  -21.4018   -6.5629   23.8203 C   0  0  0  0  0  0
  -21.3668   -5.6788   24.9167 C   0  0  0  0  0  0
  -21.6050   -4.3048   24.7219 C   0  0  0  0  0  0
  -21.8825   -3.8134   23.4340 C   0  0  0  0  0  0
  -21.9197   -4.6951   22.3395 C   0  0  0  0  0  0
  -22.7882  -13.5242   21.1834 C   0  0  0  0  0  0
  -22.1661   -4.2137   21.0970 F   0  0  0  0  0  0
  -21.5640   -3.4536   25.7731 F   0  0  0  0  0  0
  -30.0388  -13.2752   20.4491 N   0  0  0  0  0  0
  -26.3043  -12.9290   20.3375 N   0  0  0  0  0  0
  -25.9314  -11.6454   20.5763 N   0  0  0  0  0  0
  -22.0521  -12.8241   22.0399 N   0  0  0  0  0  0
  -25.4356  -15.1855   20.4058 N   0  0  0  0  0  0
  -31.8009  -14.6817   20.0910 O   0  0  0  0  0  0
  -21.6641   -6.8867   21.4234 O   0  0  0  0  0  0
  -22.3565  -14.5548   20.6689 O   0  0  0  0  0  0
  -24.6152  -31.8686   23.2111 C   0  0  0  0  0  0
  -25.9048  -32.4823   23.8402 C   0  0  1  0  0  0
  -27.2352  -27.4324   20.0888 C   0  0  0  0  0  0
  -25.5905  -33.8623   24.2330 N   0  0  0  0  0  0
  -23.4025  -30.4936   21.5513 C   0  0  2  0  0  0
  -24.8470  -28.9609   20.1152 C   0  0  0  0  0  0
  -22.7408  -29.4665   22.4988 C   0  0  0  0  0  0
  -18.0273  -28.1366   22.8494 C   0  0  0  0  0  0
  -24.1485  -36.7309   23.2638 C   0  0  0  0  0  0
  -25.9328  -30.8316   21.3672 C   0  0  0  0  0  0
  -26.0074  -29.4668   20.7125 C   0  0  0  0  0  0
  -27.2005  -28.7086   20.6995 C   0  0  0  0  0  0
  -26.0518  -26.9472   19.4801 C   0  0  0  0  0  0
  -24.8635  -27.6994   19.5004 C   0  0  0  0  0  0
  -23.6102  -29.8277   20.1654 C   0  0  0  0  0  0
  -25.4108  -36.3111   24.0338 C   0  0  1  0  0  0
  -20.5862  -28.3659   23.1309 C   0  0  2  0  0  0
  -20.6758  -26.9393   22.5415 C   0  0  0  0  0  0
  -19.5741  -26.6377   21.5207 C   0  0  0  0  0  0
  -18.1917  -26.7915   22.1618 C   0  0  0  0  0  0
  -19.1522  -28.8830   23.2901 C   0  0  0  0  0  0
  -18.9452  -30.1432   23.8915 C   0  0  0  0  0  0
  -17.6454  -30.6579   24.0561 C   0  0  0  0  0  0
  -25.9035  -34.9476   23.5129 C   0  0  0  0  0  0
  -16.5344  -29.9080   23.6324 C   0  0  0  0  0  0
  -16.7260  -28.6492   23.0355 C   0  0  0  0  0  0
  -26.4471  -31.6611   25.0738 C   0  0  0  0  0  0
  -25.3735  -31.3735   26.1491 C   0  0  0  0  0  0
  -27.0299  -30.3047   24.6135 C   0  0  0  0  0  0
  -27.6046  -32.4335   25.7497 C   0  0  0  0  0  0
  -27.5581  -37.1810   24.8465 C   0  0  0  0  0  0
  -21.4138  -29.3033   22.3723 N   0  0  0  0  0  0
  -26.4294  -37.3795   23.9408 N   0  0  0  0  0  0
  -24.6679  -31.0789   22.1011 N   0  0  0  0  0  0
  -23.4180  -28.8209   23.3028 O   0  0  0  0  0  0
  -28.4159  -26.7105   20.1194 O   0  0  0  0  0  0
  -26.5591  -34.8927   22.4688 O   0  0  0  0  0  0
  -23.5342  -32.1439   23.7508 O   0  0  0  0  0  0
  -27.5866  -20.8926   18.3861 C   0  0  0  0  0  0
  -28.1191  -19.8755   19.1967 C   0  0  0  0  0  0
  -28.2251  -22.1438   18.3627 C   0  0  0  0  0  0
  -29.2633  -20.1465   19.9732 C   0  0  0  0  0  0
  -29.3559  -22.3380   19.1701 C   0  0  0  0  0  0
  -29.5918  -17.7453   20.5406 C   0  0  0  0  0  0
  -30.4106  -16.8066   21.4565 C   0  0  0  0  0  0
  -29.6783  -24.5946   20.0359 C   0  0  0  0  0  0
  -28.4215  -25.3771   19.5910 C   0  0  0  0  0  0
  -29.8531  -21.3669   19.9744 N   0  0  0  0  0  0
  -29.8713  -19.1654   20.7726 N   0  0  0  0  0  0
  -30.0616  -23.5418   19.0939 N   0  0  0  0  0  0
  -30.0284  -15.4007   21.2766 N   0  0  0  0  0  0
  -31.4679  -12.4221   19.1038 H   0  0  0  0  0  0
  -30.3407  -11.2920   19.7955 H   0  0  0  0  0  0
  -29.7310  -11.7970   17.4155 H   0  0  0  0  0  0
  -29.6551  -13.5040   17.7723 H   0  0  0  0  0  0
  -27.8223  -11.3123   18.8023 H   0  0  0  0  0  0
  -27.3601  -12.6525   17.7900 H   0  0  0  0  0  0
  -27.7159  -14.2511   19.5964 H   0  0  0  0  0  0
  -28.6835  -11.9165   21.3150 H   0  0  0  0  0  0
  -28.4607  -13.5354   21.8899 H   0  0  0  0  0  0
  -25.2743   -9.5703   22.4737 H   0  0  0  0  0  0
  -24.0008   -7.4636   22.7461 H   0  0  0  0  0  0
  -21.0826   -8.8745   19.8950 H   0  0  0  0  0  0
  -22.3644  -10.9665   19.6155 H   0  0  0  0  0  0
  -21.2000   -7.6137   23.9704 H   0  0  0  0  0  0
  -21.1494   -6.0511   25.9074 H   0  0  0  0  0  0
  -22.0600   -2.7598   23.2835 H   0  0  0  0  0  0
  -22.4143  -11.9900   22.4774 H   0  0  0  0  0  0
  -21.1152  -13.1284   22.2623 H   0  0  0  0  0  0
  -24.6701  -15.8424   20.5108 H   0  0  0  0  0  0
  -26.2908  -15.6227   20.0863 H   0  0  0  0  0  0
  -26.7123  -32.5528   23.1166 H   0  0  0  0  0  0
  -25.0077  -33.9788   25.0490 H   0  0  0  0  0  0
  -22.6917  -31.3109   21.4131 H   0  0  0  0  0  0
  -23.3747  -35.9642   23.3315 H   0  0  0  0  0  0
  -24.3580  -36.8909   22.2049 H   0  0  0  0  0  0
  -23.7236  -37.6520   23.6640 H   0  0  0  0  0  0
  -26.0514  -31.6001   20.6020 H   0  0  0  0  0  0
  -26.8181  -30.8786   21.9898 H   0  0  0  0  0  0
  -28.0955  -29.0978   21.1653 H   0  0  0  0  0  0
  -26.0145  -25.9907   18.9811 H   0  0  0  0  0  0
  -23.9710  -27.3029   19.0361 H   0  0  0  0  0  0
  -23.7191  -30.6022   19.4056 H   0  0  0  0  0  0
  -22.7345  -29.2474   19.8698 H   0  0  0  0  0  0
  -25.1286  -36.1977   25.0831 H   0  0  0  0  0  0
  -20.9955  -28.3217   24.1428 H   0  0  0  0  0  0
  -20.5641  -26.2267   23.3602 H   0  0  0  0  0  0
  -21.6631  -26.7422   22.1218 H   0  0  0  0  0  0
  -19.6899  -25.6289   21.1230 H   0  0  0  0  0  0
  -19.6681  -27.3190   20.6739 H   0  0  0  0  0  0
  -17.4189  -26.6667   21.4016 H   0  0  0  0  0  0
  -18.0319  -26.0047   22.9004 H   0  0  0  0  0  0
  -19.7930  -30.7238   24.2290 H   0  0  0  0  0  0
  -17.5015  -31.6262   24.5155 H   0  0  0  0  0  0
  -15.5346  -30.2989   23.7641 H   0  0  0  0  0  0
  -15.8657  -28.0812   22.7073 H   0  0  0  0  0  0
  -24.5899  -30.7087   25.7840 H   0  0  0  0  0  0
  -24.8937  -32.2901   26.4936 H   0  0  0  0  0  0
  -25.8088  -30.8912   27.0252 H   0  0  0  0  0  0
  -26.2852  -29.6819   24.1165 H   0  0  0  0  0  0
  -27.4030  -29.7280   25.4608 H   0  0  0  0  0  0
  -27.8705  -30.4356   23.9316 H   0  0  0  0  0  0
  -27.2659  -33.3619   26.2109 H   0  0  0  0  0  0
  -28.3835  -32.6926   25.0314 H   0  0  0  0  0  0
  -28.0738  -31.8444   26.5388 H   0  0  0  0  0  0
  -28.2610  -38.0095   24.7508 H   0  0  0  0  0  0
  -28.1064  -36.2631   24.6294 H   0  0  0  0  0  0
  -27.2300  -37.1466   25.8867 H   0  0  0  0  0  0
  -20.9293  -29.8769   21.6962 H   0  0  0  0  0  0
  -26.0185  -38.2875   24.1412 H   0  0  0  0  0  0
  -26.7148  -20.7073   17.7750 H   0  0  0  0  0  0
  -27.6349  -18.9097   19.1978 H   0  0  0  0  0  0
  -27.8458  -22.9263   17.7189 H   0  0  0  0  0  0
  -28.5297  -17.5664   20.7125 H   0  0  0  0  0  0
  -29.7883  -17.5092   19.4930 H   0  0  0  0  0  0
  -30.2244  -17.0633   22.5007 H   0  0  0  0  0  0
  -31.4814  -16.9443   21.2942 H   0  0  0  0  0  0
  -29.5378  -24.1876   21.0391 H   0  0  0  0  0  0
  -30.5204  -25.2839   20.1012 H   0  0  0  0  0  0
  -27.5507  -24.8084   19.9192 H   0  0  0  0  0  0
  -28.3833  -25.4537   18.5033 H   0  0  0  0  0  0
  -30.7443  -19.4095   21.2283 H   0  0  0  0  0  0
  -30.0281  -23.9215   18.1535 H   0  0  0  0  0  0
  -29.1395  -15.1171   21.6624 H   0  0  0  0  0  0
  1 25  1  0  0  0
  1 30  2  0  0  0
  1 83  1  0  0  0
  2  3  1  0  0  0
  2 25  1  0  0  0
  2 84  1  0  0  0
  2 85  1  0  0  0
  3  4  1  0  0  0
  3 86  1  0  0  0
  3 87  1  0  0  0
  4  5  1  0  0  0
  4 88  1  0  0  0
  4 89  1  0  0  0
  5  6  1  0  0  0
  5 26  1  0  0  0
  5 90  1  0  0  0
  6 25  1  0  0  0
  6 91  1  0  0  0
  6 92  1  0  0  0
  7  8  2  0  0  0
  7 26  1  0  0  0
  7 29  1  0  0  0
  8  9  1  0  0  0
  8 22  1  0  0  0
  9 10  1  0  0  0
  9 27  2  0  0  0
 10 11  2  0  0  0
 10 15  1  0  0  0
 11 12  1  0  0  0
 11 93  1  0  0  0
 12 13  2  0  0  0
 12 94  1  0  0  0
 13 14  1  0  0  0
 13 31  1  0  0  0
 14 15  2  0  0  0
 14 95  1  0  0  0
 15 96  1  0  0  0
 16 17  2  0  0  0
 16 21  1  0  0  0
 16 31  1  0  0  0
 17 18  1  0  0  0
 17 97  1  0  0  0
 18 19  2  0  0  0
 18 98  1  0  0  0
 19 20  1  0  0  0
 19 24  1  0  0  0
 20 21  2  0  0  0
 20 99  1  0  0  0
 21 23  1  0  0  0
 22 28  1  0  0  0
 22 32  2  0  0  0
 26 27  1  0  0  0
 28100  1  0  0  0
 28101  1  0  0  0
 29102  1  0  0  0
 29103  1  0  0  0
 33 34  1  0  0  0
 33 66  1  0  0  0
 33 70  2  0  0  0
 34 36  1  0  0  0
 34 59  1  0  0  0
 34104  1  0  0  0
 35 44  2  0  0  0
 35 45  1  0  0  0
 35 68  1  0  0  0
 36 56  1  0  0  0
 36105  1  0  0  0
 37 39  1  0  0  0
 37 47  1  0  0  0
 37 66  1  0  0  0
 37106  1  0  0  0
 38 43  2  0  0  0
 38 46  1  0  0  0
 38 47  1  0  0  0
 39 64  1  0  0  0
 39 67  2  0  0  0
 40 52  1  0  0  0
 40 53  2  0  0  0
 40 58  1  0  0  0
 41107  1  0  0  0
 41108  1  0  0  0
 41109  1  0  0  0
 41 48  1  0  0  0
 42 43  1  0  0  0
 42 66  1  0  0  0
 42110  1  0  0  0
 42111  1  0  0  0
 43 44  1  0  0  0
 44112  1  0  0  0
 45 46  2  0  0  0
 45113  1  0  0  0
 46114  1  0  0  0
 47115  1  0  0  0
 47116  1  0  0  0
 48 56  1  0  0  0
 48 65  1  0  0  0
 48117  1  0  0  0
 49 50  1  0  0  0
 49 53  1  0  0  0
 49 64  1  0  0  0
 49118  1  0  0  0
 50 51  1  0  0  0
 50119  1  0  0  0
 50120  1  0  0  0
 51 52  1  0  0  0
 51121  1  0  0  0
 51122  1  0  0  0
 52123  1  0  0  0
 52124  1  0  0  0
 53 54  1  0  0  0
 54 55  2  0  0  0
 54125  1  0  0  0
 55 57  1  0  0  0
 55126  1  0  0  0
 56 69  2  0  0  0
 57 58  2  0  0  0
 57127  1  0  0  0
 58128  1  0  0  0
 59 60  1  0  0  0
 59 61  1  0  0  0
 59 62  1  0  0  0
 60129  1  0  0  0
 60130  1  0  0  0
 60131  1  0  0  0
 61132  1  0  0  0
 61133  1  0  0  0
 61134  1  0  0  0
 62135  1  0  0  0
 62136  1  0  0  0
 62137  1  0  0  0
 63 65  1  0  0  0
 63138  1  0  0  0
 63139  1  0  0  0
 63140  1  0  0  0
 64141  1  0  0  0
 65142  1  0  0  0
 68 79  1  0  0  0
 71 72  2  0  0  0
 71 73  1  0  0  0
 71143  1  0  0  0
 72 74  1  0  0  0
 72144  1  0  0  0
 73 75  2  0  0  0
 73145  1  0  0  0
 74 80  2  0  0  0
 74 81  1  0  0  0
 75 80  1  0  0  0
 75 82  1  0  0  0
 76 77  1  0  0  0
 76 81  1  0  0  0
 76146  1  0  0  0
 76147  1  0  0  0
 77 83  1  0  0  0
 77148  1  0  0  0
 77149  1  0  0  0
 78 79  1  0  0  0
 78 82  1  0  0  0
 78150  1  0  0  0
 78151  1  0  0  0
 79152  1  0  0  0
 79153  1  0  0  0
 81154  1  0  0  0
 82155  1  0  0  0
 83156  1  0  0  0
M  ISO  4   1 100  68 101  79 101  83 100
M  END
> <chiral flag>
0

> <version>
0

> <s_m_source_file>
/data/baiqing/PycharmProjects/Reinvent-master-3.2/result/LINK_invent/BTK/process_docking_weight1_custom_sum_contain_oxygen_bond_distance_aromatic_linkinvent_7_9_3/rearranged_h_0129.sdf

> <i_m_source_file_index>
74

> <r_mmod_Potential_Energy-OPLS-2005>
-447.363372802734

> <r_mmod_Stretch_Energy-OPLS-2005>
34.8113594055176

> <r_mmod_Bend_Energy-OPLS-2005>
103.578536987305

> <r_mmod_Torsional_Energy-OPLS-2005>
200.207397460938

> <r_mmod_Improper_Torsional_Energy-OPLS-2005>
9.72660636901855

> <r_mmod_Van_der_Waal_Energy-OPLS-2005>
159.577301025391

> <r_mmod_Electrostatic_Energy-OPLS-2005>
-701.853088378906

> <r_mmod_Solvation_Energy-OPLS-2005>
-264.809478759766

> <b_mmod_Minimization_Converged-OPLS-2005>
0

> <r_mmod_RMS_Derivative-OPLS-2005>
1.25888061523438

$$$$
75
                    3D
 Structure written by MMmdl.
176184  0  0  1  0            999 V2000
  -30.8072  -14.4071   20.6626 C   0  0  0  0  0  0
  -30.4096  -12.2980   19.4178 C   0  0  0  0  0  0
  -29.4846  -12.5227   18.2067 C   0  0  0  0  0  0
  -28.0129  -12.3697   18.6288 C   0  0  0  0  0  0
  -27.6674  -13.2142   19.8824 C   0  0  2  0  0  0
  -28.7149  -13.0063   21.0047 C   0  0  0  0  0  0
  -25.2601  -13.8195   20.5725 C   0  0  0  0  0  0
  -24.1835  -13.0437   20.9181 C   0  0  0  0  0  0
  -24.6417  -11.6932   20.8746 C   0  0  0  0  0  0
  -23.9085  -10.4299   21.0428 C   0  0  0  0  0  0
  -24.3617   -9.4207   21.9205 C   0  0  0  0  0  0
  -23.6277   -8.2250   22.0757 C   0  0  0  0  0  0
  -22.4269   -8.0296   21.3541 C   0  0  0  0  0  0
  -21.9933   -9.0274   20.4632 C   0  0  0  0  0  0
  -22.7274  -10.2147   20.3052 C   0  0  0  0  0  0
  -21.6842   -6.0747   22.5273 C   0  0  0  0  0  0
  -21.4022   -6.5639   23.8220 C   0  0  0  0  0  0
  -21.3655   -5.6787   24.9171 C   0  0  0  0  0  0
  -21.6038   -4.3044   24.7217 C   0  0  0  0  0  0
  -21.8819   -3.8157   23.4338 C   0  0  0  0  0  0
  -21.9189   -4.6985   22.3395 C   0  0  0  0  0  0
  -22.7864  -13.5235   21.1844 C   0  0  0  0  0  0
  -22.1652   -4.2177   21.0967 F   0  0  0  0  0  0
  -21.5631   -3.4525   25.7727 F   0  0  0  0  0  0
  -30.0628  -13.2806   20.4609 N   0  0  0  0  0  0
  -26.3061  -12.9392   20.3451 N   0  0  0  0  0  0
  -25.9355  -11.6529   20.5821 N   0  0  0  0  0  0
  -22.0504  -12.8171   22.0378 N   0  0  0  0  0  0
  -25.4288  -15.1896   20.4142 N   0  0  0  0  0  0
  -31.8234  -14.6733   20.0194 O   0  0  0  0  0  0
  -21.6614   -6.8905   21.4240 O   0  0  0  0  0  0
  -22.3539  -14.5552   20.6736 O   0  0  0  0  0  0
  -24.6062  -31.8721   23.2140 C   0  0  0  0  0  0
  -25.8981  -32.4856   23.8410 C   0  0  1  0  0  0
  -27.2060  -27.4636   20.1063 C   0  0  0  0  0  0
  -25.5863  -33.8629   24.2369 N   0  0  0  0  0  0
  -23.3885  -30.5040   21.5535 C   0  0  2  0  0  0
  -24.8335  -28.9817   20.1040 C   0  0  0  0  0  0
  -22.7332  -29.4716   22.4984 C   0  0  0  0  0  0
  -18.0243  -28.1403   22.8502 C   0  0  0  0  0  0
  -24.1454  -36.7283   23.2640 C   0  0  0  0  0  0
  -25.9080  -30.8561   21.3517 C   0  0  0  0  0  0
  -25.9898  -29.4862   20.7169 C   0  0  0  0  0  0
  -27.1804  -28.7304   20.7309 C   0  0  0  0  0  0
  -26.0556  -26.9940   19.4451 C   0  0  0  0  0  0
  -24.8608  -27.7348   19.4617 C   0  0  0  0  0  0
  -23.5909  -29.8455   20.1631 C   0  0  0  0  0  0
  -25.4040  -36.3089   24.0387 C   0  0  1  0  0  0
  -20.5814  -28.3667   23.1334 C   0  0  2  0  0  0
  -20.6732  -26.9428   22.5394 C   0  0  0  0  0  0
  -19.5707  -26.6415   21.5197 C   0  0  0  0  0  0
  -18.1893  -26.7972   22.1610 C   0  0  0  0  0  0
  -19.1485  -28.8840   23.2931 C   0  0  0  0  0  0
  -18.9417  -30.1473   23.8927 C   0  0  0  0  0  0
  -17.6422  -30.6618   24.0582 C   0  0  0  0  0  0
  -25.8988  -34.9476   23.5178 C   0  0  0  0  0  0
  -16.5306  -29.9099   23.6360 C   0  0  0  0  0  0
  -16.7234  -28.6531   23.0365 C   0  0  0  0  0  0
  -26.4445  -31.6570   25.0674 C   0  0  0  0  0  0
  -25.3738  -31.3466   26.1408 C   0  0  0  0  0  0
  -27.0435  -30.3135   24.5948 C   0  0  0  0  0  0
  -27.6078  -32.4257   25.7363 C   0  0  0  0  0  0
  -27.5563  -37.1729   24.8465 C   0  0  0  0  0  0
  -21.4065  -29.3042   22.3732 N   0  0  0  0  0  0
  -26.4205  -37.3792   23.9524 N   0  0  0  0  0  0
  -24.6530  -31.0906   22.1005 N   0  0  0  0  0  0
  -23.4152  -28.8273   23.2993 O   0  0  0  0  0  0
  -28.3357  -26.6898   20.1315 O   0  0  0  0  0  0
  -26.5495  -34.8947   22.4708 O   0  0  0  0  0  0
  -23.5299  -32.1444   23.7629 O   0  0  0  0  0  0
  -30.3258  -24.5790   19.6988 C   0  0  0  0  0  0
  -29.0087  -23.8178   19.9431 C   0  0  0  0  0  0
  -29.9672  -25.9817   21.7835 C   0  0  0  0  0  0
  -30.9499  -25.0187   21.0340 C   0  0  1  0  0  0
  -28.1370  -24.3959   21.0884 C   0  0  1  0  0  0
  -28.4856  -25.8944   21.3203 C   0  0  2  0  0  0
  -26.5522  -22.4185   20.8633 C   0  0  0  0  0  0
  -25.7610  -24.4328   22.1282 C   0  0  0  0  0  0
  -31.3549  -23.7899   21.9076 C   0  0  0  0  0  0
  -30.9729  -16.4607   22.1955 C   0  0  0  0  0  0
  -31.4937  -21.3856   21.8342 C   0  0  0  0  0  0
  -31.4779  -17.5689   21.2148 C   0  0  0  0  0  0
  -32.0585  -20.0797   21.1967 C   0  0  0  0  0  0
  -26.6524  -23.9515   20.9663 C   0  0  0  0  0  0
  -30.3860  -15.2193   21.6423 N   0  0  0  0  0  0
  -31.8401  -22.6293   21.1415 N   0  0  0  0  0  0
  -31.4947  -18.8970   21.9028 N   0  3  0  0  0  0
  -31.4571  -12.3536   19.1204 H   0  0  0  0  0  0
  -30.2694  -11.2885   19.8074 H   0  0  0  0  0  0
  -29.7171  -11.8119   17.4117 H   0  0  0  0  0  0
  -29.6493  -13.5178   17.7919 H   0  0  0  0  0  0
  -27.8384  -11.3129   18.8406 H   0  0  0  0  0  0
  -27.3492  -12.6283   17.8020 H   0  0  0  0  0  0
  -27.7109  -14.2612   19.5793 H   0  0  0  0  0  0
  -28.6758  -11.9796   21.3707 H   0  0  0  0  0  0
  -28.4643  -13.6277   21.8641 H   0  0  0  0  0  0
  -25.2770   -9.5663   22.4786 H   0  0  0  0  0  0
  -23.9966   -7.4647   22.7496 H   0  0  0  0  0  0
  -21.0875   -8.8808   19.8938 H   0  0  0  0  0  0
  -22.3767  -10.9679   19.6138 H   0  0  0  0  0  0
  -21.2022   -7.6146   23.9738 H   0  0  0  0  0  0
  -21.1471   -6.0505   25.9075 H   0  0  0  0  0  0
  -22.0604   -2.7624   23.2822 H   0  0  0  0  0  0
  -22.4085  -11.9752   22.4637 H   0  0  0  0  0  0
  -21.1159  -13.1225   22.2680 H   0  0  0  0  0  0
  -24.6709  -15.8515   20.5375 H   0  0  0  0  0  0
  -26.2919  -15.6330   20.1215 H   0  0  0  0  0  0
  -26.7027  -32.5645   23.1161 H   0  0  0  0  0  0
  -25.0216  -33.9803   25.0652 H   0  0  0  0  0  0
  -22.6792  -31.3255   21.4237 H   0  0  0  0  0  0
  -23.3788  -35.9542   23.3162 H   0  0  0  0  0  0
  -24.3625  -36.9036   22.2089 H   0  0  0  0  0  0
  -23.7106  -37.6403   23.6737 H   0  0  0  0  0  0
  -25.9960  -31.6157   20.5705 H   0  0  0  0  0  0
  -26.8051  -30.9322   21.9530 H   0  0  0  0  0  0
  -28.0664  -29.1028   21.2230 H   0  0  0  0  0  0
  -26.0754  -26.0572   18.9134 H   0  0  0  0  0  0
  -23.9782  -27.3584   18.9612 H   0  0  0  0  0  0
  -23.6840  -30.6276   19.4088 H   0  0  0  0  0  0
  -22.7087  -29.2728   19.8713 H   0  0  0  0  0  0
  -25.1177  -36.1938   25.0870 H   0  0  0  0  0  0
  -20.9922  -28.3254   24.1437 H   0  0  0  0  0  0
  -20.5708  -26.2270   23.3562 H   0  0  0  0  0  0
  -21.6607  -26.7528   22.1142 H   0  0  0  0  0  0
  -19.6899  -25.6321   21.1241 H   0  0  0  0  0  0
  -19.6678  -27.3205   20.6706 H   0  0  0  0  0  0
  -17.4155  -26.6755   21.4013 H   0  0  0  0  0  0
  -18.0297  -26.0104   22.8996 H   0  0  0  0  0  0
  -19.7876  -30.7312   24.2321 H   0  0  0  0  0  0
  -17.4935  -31.6288   24.5181 H   0  0  0  0  0  0
  -15.5320  -30.2976   23.7675 H   0  0  0  0  0  0
  -15.8648  -28.0844   22.7064 H   0  0  0  0  0  0
  -24.5990  -30.6770   25.7628 H   0  0  0  0  0  0
  -24.8763  -32.2483   26.4977 H   0  0  0  0  0  0
  -25.8062  -30.8502   27.0099 H   0  0  0  0  0  0
  -26.3052  -29.6716   24.1139 H   0  0  0  0  0  0
  -27.4560  -29.7501   25.4317 H   0  0  0  0  0  0
  -27.8625  -30.4658   23.8916 H   0  0  0  0  0  0
  -27.2884  -33.3719   26.1739 H   0  0  0  0  0  0
  -28.3898  -32.6514   25.0092 H   0  0  0  0  0  0
  -28.0698  -31.8439   26.5351 H   0  0  0  0  0  0
  -28.2387  -38.0193   24.7767 H   0  0  0  0  0  0
  -28.1234  -36.2763   24.5950 H   0  0  0  0  0  0
  -27.2377  -37.0941   25.8864 H   0  0  0  0  0  0
  -20.9241  -29.8739   21.6931 H   0  0  0  0  0  0
  -26.0110  -38.2850   24.1645 H   0  0  0  0  0  0
  -30.1545  -25.4504   19.0631 H   0  0  0  0  0  0
  -31.0082  -23.9520   19.1265 H   0  0  0  0  0  0
  -29.2640  -22.7977   20.2228 H   0  0  0  0  0  0
  -28.4445  -23.7512   19.0103 H   0  0  0  0  0  0
  -30.2972  -27.0190   21.6924 H   0  0  0  0  0  0
  -30.0090  -25.7698   22.8522 H   0  0  0  0  0  0
  -31.8570  -25.5901   20.8180 H   0  0  0  0  0  0
  -28.4498  -23.9079   22.0107 H   0  0  0  0  0  0
  -27.8641  -26.3070   22.1204 H   0  0  0  0  0  0
  -27.0747  -22.0335   19.9850 H   0  0  0  0  0  0
  -25.5176  -22.0784   20.7806 H   0  0  0  0  0  0
  -26.9832  -21.9408   21.7443 H   0  0  0  0  0  0
  -25.7126  -25.5180   22.2015 H   0  0  0  0  0  0
  -26.1134  -24.0468   23.0861 H   0  0  0  0  0  0
  -24.7389  -24.0739   21.9978 H   0  0  0  0  0  0
  -30.4808  -23.4788   22.4767 H   0  0  0  0  0  0
  -32.0992  -24.0741   22.6520 H   0  0  0  0  0  0
  -30.1884  -16.8841   22.8216 H   0  0  0  0  0  0
  -31.7739  -16.1904   22.8867 H   0  0  0  0  0  0
  -31.7915  -21.4565   22.8814 H   0  0  0  0  0  0
  -30.4056  -21.3189   21.8303 H   0  0  0  0  0  0
  -30.8265  -17.6304   20.3441 H   0  0  0  0  0  0
  -32.4806  -17.3205   20.8527 H   0  0  0  0  0  0
  -33.1474  -20.0697   21.2604 H   0  0  0  0  0  0
  -31.8045  -20.0461   20.1358 H   0  0  0  0  0  0
  -26.2444  -24.3460   20.0435 H   0  0  0  0  0  0
  -29.5740  -14.8763   22.1354 H   0  0  0  0  0  0
  -32.8334  -22.7101   20.9306 H   0  0  0  0  0  0
  -31.9562  -18.8167   22.7944 H   0  0  0  0  0  0
  -30.5278  -19.1209   22.0831 H   0  0  0  0  0  0
  1 25  1  0  0  0
  1 30  2  0  0  0
  1 85  1  0  0  0
  2  3  1  0  0  0
  2 25  1  0  0  0
  2 88  1  0  0  0
  2 89  1  0  0  0
  3  4  1  0  0  0
  3 90  1  0  0  0
  3 91  1  0  0  0
  4  5  1  0  0  0
  4 92  1  0  0  0
  4 93  1  0  0  0
  5  6  1  0  0  0
  5 26  1  0  0  0
  5 94  1  0  0  0
  6 25  1  0  0  0
  6 95  1  0  0  0
  6 96  1  0  0  0
  7  8  2  0  0  0
  7 26  1  0  0  0
  7 29  1  0  0  0
  8  9  1  0  0  0
  8 22  1  0  0  0
  9 10  1  0  0  0
  9 27  2  0  0  0
 10 11  2  0  0  0
 10 15  1  0  0  0
 11 12  1  0  0  0
 11 97  1  0  0  0
 12 13  2  0  0  0
 12 98  1  0  0  0
 13 14  1  0  0  0
 13 31  1  0  0  0
 14 15  2  0  0  0
 14 99  1  0  0  0
 15100  1  0  0  0
 16 17  2  0  0  0
 16 21  1  0  0  0
 16 31  1  0  0  0
 17 18  1  0  0  0
 17101  1  0  0  0
 18 19  2  0  0  0
 18102  1  0  0  0
 19 20  1  0  0  0
 19 24  1  0  0  0
 20 21  2  0  0  0
 20103  1  0  0  0
 21 23  1  0  0  0
 22 28  1  0  0  0
 22 32  2  0  0  0
 26 27  1  0  0  0
 28104  1  0  0  0
 28105  1  0  0  0
 29106  1  0  0  0
 29107  1  0  0  0
 33 34  1  0  0  0
 33 66  1  0  0  0
 33 70  2  0  0  0
 34 36  1  0  0  0
 34 59  1  0  0  0
 34108  1  0  0  0
 35 44  2  0  0  0
 35 45  1  0  0  0
 35 68  1  0  0  0
 36 56  1  0  0  0
 36109  1  0  0  0
 37 39  1  0  0  0
 37 47  1  0  0  0
 37 66  1  0  0  0
 37110  1  0  0  0
 38 43  2  0  0  0
 38 46  1  0  0  0
 38 47  1  0  0  0
 39 64  1  0  0  0
 39 67  2  0  0  0
 40 52  1  0  0  0
 40 53  2  0  0  0
 40 58  1  0  0  0
 41111  1  0  0  0
 41112  1  0  0  0
 41113  1  0  0  0
 41 48  1  0  0  0
 42 43  1  0  0  0
 42 66  1  0  0  0
 42114  1  0  0  0
 42115  1  0  0  0
 43 44  1  0  0  0
 44116  1  0  0  0
 45 46  2  0  0  0
 45117  1  0  0  0
 46118  1  0  0  0
 47119  1  0  0  0
 47120  1  0  0  0
 48 56  1  0  0  0
 48 65  1  0  0  0
 48121  1  0  0  0
 49 50  1  0  0  0
 49 53  1  0  0  0
 49 64  1  0  0  0
 49122  1  0  0  0
 50 51  1  0  0  0
 50123  1  0  0  0
 50124  1  0  0  0
 51 52  1  0  0  0
 51125  1  0  0  0
 51126  1  0  0  0
 52127  1  0  0  0
 52128  1  0  0  0
 53 54  1  0  0  0
 54 55  2  0  0  0
 54129  1  0  0  0
 55 57  1  0  0  0
 55130  1  0  0  0
 56 69  2  0  0  0
 57 58  2  0  0  0
 57131  1  0  0  0
 58132  1  0  0  0
 59 60  1  0  0  0
 59 61  1  0  0  0
 59 62  1  0  0  0
 60133  1  0  0  0
 60134  1  0  0  0
 60135  1  0  0  0
 61136  1  0  0  0
 61137  1  0  0  0
 61138  1  0  0  0
 62139  1  0  0  0
 62140  1  0  0  0
 62141  1  0  0  0
 63 65  1  0  0  0
 63142  1  0  0  0
 63143  1  0  0  0
 63144  1  0  0  0
 64145  1  0  0  0
 65146  1  0  0  0
 68 76  1  0  0  0
 71 72  1  0  0  0
 71 74  1  0  0  0
 71147  1  0  0  0
 71148  1  0  0  0
 72149  1  0  0  0
 72150  1  0  0  0
 72 75  1  0  0  0
 73 74  1  0  0  0
 73 76  1  0  0  0
 73151  1  0  0  0
 73152  1  0  0  0
 74 79  1  0  0  0
 74153  1  0  0  0
 75 76  1  0  0  0
 75 84  1  0  0  0
 75154  1  0  0  0
 76155  1  0  0  0
 77156  1  0  0  0
 77157  1  0  0  0
 77158  1  0  0  0
 77 84  1  0  0  0
 78 84  1  0  0  0
 78159  1  0  0  0
 78160  1  0  0  0
 78161  1  0  0  0
 79 86  1  0  0  0
 79162  1  0  0  0
 79163  1  0  0  0
 80 82  1  0  0  0
 80 85  1  0  0  0
 80164  1  0  0  0
 80165  1  0  0  0
 81 83  1  0  0  0
 81 86  1  0  0  0
 81166  1  0  0  0
 81167  1  0  0  0
 82 87  1  0  0  0
 82168  1  0  0  0
 82169  1  0  0  0
 83 87  1  0  0  0
 83170  1  0  0  0
 83171  1  0  0  0
 84172  1  0  0  0
 85173  1  0  0  0
 86174  1  0  0  0
 87175  1  0  0  0
 87176  1  0  0  0
M  CHG  1  87   1
M  ISO  4   1 100  68 101  76 101  85 100
M  END
> <chiral flag>
0

> <version>
0

> <s_m_source_file>
/data/baiqing/PycharmProjects/Reinvent-master-3.2/result/LINK_invent/BTK/process_docking_weight1_custom_sum_contain_oxygen_bond_distance_aromatic_linkinvent_7_9_3/rearranged_h_0129.sdf

> <i_m_source_file_index>
75

> <r_mmod_Potential_Energy-OPLS-2005>
-135.057891845703

> <r_mmod_Stretch_Energy-OPLS-2005>
42.9737319946289

> <r_mmod_Bend_Energy-OPLS-2005>
131.366485595703

> <r_mmod_Torsional_Energy-OPLS-2005>
303.768829345703

> <r_mmod_Improper_Torsional_Energy-OPLS-2005>
1.62385880947113

> <r_mmod_Van_der_Waal_Energy-OPLS-2005>
147.591934204102

> <r_mmod_Electrostatic_Energy-OPLS-2005>
-305.012878417969

> <r_mmod_Solvation_Energy-OPLS-2005>
-468.748382568359

> <b_mmod_Minimization_Converged-OPLS-2005>
0

> <r_mmod_RMS_Derivative-OPLS-2005>
7.2020115852356

$$$$
76
                    3D
 Structure written by MMmdl.
174183  0  0  1  0            999 V2000
  -30.7890  -14.3099   20.7299 C   0  0  0  0  0  0
  -30.4252  -12.2811   19.3696 C   0  0  0  0  0  0
  -29.4854  -12.5453   18.1796 C   0  0  0  0  0  0
  -28.0110  -12.3910   18.5983 C   0  0  0  0  0  0
  -27.6742  -13.1978   19.8784 C   0  0  2  0  0  0
  -28.7115  -12.9084   20.9847 C   0  0  0  0  0  0
  -25.2654  -13.8147   20.5653 C   0  0  0  0  0  0
  -24.1885  -13.0442   20.9157 C   0  0  0  0  0  0
  -24.6419  -11.6903   20.8715 C   0  0  0  0  0  0
  -23.9072  -10.4299   21.0399 C   0  0  0  0  0  0
  -24.3622   -9.4212   21.9178 C   0  0  0  0  0  0
  -23.6299   -8.2245   22.0751 C   0  0  0  0  0  0
  -22.4274   -8.0287   21.3544 C   0  0  0  0  0  0
  -21.9913   -9.0261   20.4645 C   0  0  0  0  0  0
  -22.7247  -10.2138   20.3046 C   0  0  0  0  0  0
  -21.6851   -6.0738   22.5290 C   0  0  0  0  0  0
  -21.4011   -6.5637   23.8226 C   0  0  0  0  0  0
  -21.3662   -5.6783   24.9184 C   0  0  0  0  0  0
  -21.6046   -4.3047   24.7231 C   0  0  0  0  0  0
  -21.8820   -3.8140   23.4350 C   0  0  0  0  0  0
  -21.9194   -4.6965   22.3413 C   0  0  0  0  0  0
  -22.7908  -13.5255   21.1832 C   0  0  0  0  0  0
  -22.1664   -4.2155   21.0988 F   0  0  0  0  0  0
  -21.5633   -3.4524   25.7739 F   0  0  0  0  0  0
  -30.0658  -13.1928   20.4621 N   0  0  0  0  0  0
  -26.3096  -12.9307   20.3349 N   0  0  0  0  0  0
  -25.9341  -11.6472   20.5719 N   0  0  0  0  0  0
  -22.0527  -12.8252   22.0379 N   0  0  0  0  0  0
  -25.4376  -15.1871   20.4095 N   0  0  0  0  0  0
  -31.7515  -14.6881   20.0535 O   0  0  0  0  0  0
  -21.6636   -6.8885   21.4250 O   0  0  0  0  0  0
  -22.3601  -14.5565   20.6687 O   0  0  0  0  0  0
  -24.6098  -31.8710   23.2128 C   0  0  0  0  0  0
  -25.8998  -32.4833   23.8419 C   0  0  1  0  0  0
  -27.2378  -27.4784   20.0827 C   0  0  0  0  0  0
  -25.5866  -33.8627   24.2359 N   0  0  0  0  0  0
  -23.3955  -30.4981   21.5509 C   0  0  2  0  0  0
  -24.8419  -28.9675   20.1164 C   0  0  0  0  0  0
  -22.7387  -29.4685   22.4987 C   0  0  0  0  0  0
  -18.0263  -28.1391   22.8492 C   0  0  0  0  0  0
  -24.1477  -36.7315   23.2636 C   0  0  0  0  0  0
  -25.9230  -30.8488   21.3608 C   0  0  0  0  0  0
  -26.0013  -29.4878   20.7066 C   0  0  0  0  0  0
  -27.2035  -28.7527   20.6838 C   0  0  0  0  0  0
  -26.0635  -26.9633   19.4872 C   0  0  0  0  0  0
  -24.8661  -27.7020   19.5051 C   0  0  0  0  0  0
  -23.6021  -29.8282   20.1664 C   0  0  0  0  0  0
  -25.4098  -36.3116   24.0348 C   0  0  1  0  0  0
  -20.5860  -28.3661   23.1324 C   0  0  2  0  0  0
  -20.6761  -26.9401   22.5411 C   0  0  0  0  0  0
  -19.5741  -26.6399   21.5205 C   0  0  0  0  0  0
  -18.1915  -26.7937   22.1616 C   0  0  0  0  0  0
  -19.1522  -28.8846   23.2902 C   0  0  0  0  0  0
  -18.9445  -30.1448   23.8918 C   0  0  0  0  0  0
  -17.6457  -30.6593   24.0575 C   0  0  0  0  0  0
  -25.9033  -34.9481   23.5164 C   0  0  0  0  0  0
  -16.5347  -29.9101   23.6327 C   0  0  0  0  0  0
  -16.7256  -28.6516   23.0352 C   0  0  0  0  0  0
  -26.4446  -31.6597   25.0727 C   0  0  0  0  0  0
  -25.3719  -31.3709   26.1487 C   0  0  0  0  0  0
  -27.0281  -30.3049   24.6078 C   0  0  0  0  0  0
  -27.6047  -32.4307   25.7462 C   0  0  0  0  0  0
  -27.5593  -37.1804   24.8458 C   0  0  0  0  0  0
  -21.4121  -29.3039   22.3741 N   0  0  0  0  0  0
  -26.4286  -37.3795   23.9424 N   0  0  0  0  0  0
  -24.6605  -31.0870   22.0988 N   0  0  0  0  0  0
  -23.4197  -28.8214   23.2984 O   0  0  0  0  0  0
  -28.4206  -26.7779   20.0820 O   0  0  0  0  0  0
  -26.5594  -34.8921   22.4727 O   0  0  0  0  0  0
  -23.5301  -32.1426   23.7564 O   0  0  0  0  0  0
  -29.2636  -16.8945   22.4303 C   0  0  0  0  0  0
  -29.2358  -18.2585   22.7513 C   0  0  0  0  0  0
  -31.6931  -16.9891   22.2617 C   0  0  0  0  0  0
  -31.6732  -18.3581   22.6138 C   0  0  0  0  0  0
  -30.4879  -16.2611   22.1652 C   0  0  0  0  0  0
  -30.4305  -19.0108   22.8357 C   0  0  0  0  0  0
  -28.3609  -21.3690   22.1065 C   0  0  0  0  0  0
  -29.4217  -22.4343   24.1363 C   0  0  0  0  0  0
  -28.9767  -22.4859   21.2489 C   0  0  0  0  0  0
  -29.9725  -23.5425   23.2170 C   0  0  0  0  0  0
  -29.1677  -21.1060   23.3989 C   0  0  2  0  0  0
  -34.7734  -20.6305   21.8051 C   0  0  0  0  0  0
  -33.0026  -19.0855   22.7982 C   0  0  0  0  0  0
  -33.4626  -19.8693   21.5576 C   0  0  0  0  0  0
  -29.4619  -24.9262   21.2227 C   0  0  0  0  0  0
  -28.3077  -25.3774   20.3118 C   0  0  0  0  0  0
  -30.4540  -14.8808   21.8894 N   0  0  0  0  0  0
  -30.4117  -20.3822   23.1417 N   0  0  0  0  0  0
  -29.0939  -23.7387   22.0362 N   0  3  1  0  0  0
  -31.4667  -12.3957   19.0622 H   0  0  0  0  0  0
  -30.3298  -11.2481   19.7090 H   0  0  0  0  0  0
  -29.7174  -11.8644   17.3599 H   0  0  0  0  0  0
  -29.6554  -13.5532   17.7964 H   0  0  0  0  0  0
  -27.8169  -11.3305   18.7646 H   0  0  0  0  0  0
  -27.3553  -12.6950   17.7815 H   0  0  0  0  0  0
  -27.7425  -14.2560   19.6258 H   0  0  0  0  0  0
  -28.6613  -11.8586   21.2783 H   0  0  0  0  0  0
  -28.4490  -13.4659   21.8833 H   0  0  0  0  0  0
  -25.2778   -9.5678   22.4741 H   0  0  0  0  0  0
  -24.0018   -7.4627   22.7457 H   0  0  0  0  0  0
  -21.0844   -8.8778   19.8946 H   0  0  0  0  0  0
  -22.3721  -10.9668   19.6138 H   0  0  0  0  0  0
  -21.1991   -7.6144   23.9735 H   0  0  0  0  0  0
  -21.1486   -6.0507   25.9092 H   0  0  0  0  0  0
  -22.0594   -2.7600   23.2845 H   0  0  0  0  0  0
  -22.4125  -11.9913   22.4779 H   0  0  0  0  0  0
  -21.1145  -13.1288   22.2561 H   0  0  0  0  0  0
  -24.6684  -15.8407   20.5143 H   0  0  0  0  0  0
  -26.2958  -15.6274   20.1005 H   0  0  0  0  0  0
  -26.7081  -32.5568   23.1208 H   0  0  0  0  0  0
  -24.9978  -33.9787   25.0482 H   0  0  0  0  0  0
  -22.6792  -31.3116   21.4141 H   0  0  0  0  0  0
  -23.3738  -35.9646   23.3285 H   0  0  0  0  0  0
  -24.3581  -36.8929   22.2055 H   0  0  0  0  0  0
  -23.7227  -37.6521   23.6649 H   0  0  0  0  0  0
  -26.0401  -31.6136   20.5931 H   0  0  0  0  0  0
  -26.8100  -30.8993   21.9803 H   0  0  0  0  0  0
  -28.1025  -29.1584   21.1306 H   0  0  0  0  0  0
  -26.0658  -26.0013   18.9956 H   0  0  0  0  0  0
  -23.9753  -27.2972   19.0433 H   0  0  0  0  0  0
  -23.7082  -30.6006   19.4031 H   0  0  0  0  0  0
  -22.7273  -29.2445   19.8730 H   0  0  0  0  0  0
  -25.1279  -36.1980   25.0842 H   0  0  0  0  0  0
  -20.9975  -28.3230   24.1437 H   0  0  0  0  0  0
  -20.5667  -26.2262   23.3594 H   0  0  0  0  0  0
  -21.6629  -26.7446   22.1208 H   0  0  0  0  0  0
  -19.6885  -25.6312   21.1223 H   0  0  0  0  0  0
  -19.6694  -27.3227   20.6755 H   0  0  0  0  0  0
  -17.4192  -26.6680   21.4009 H   0  0  0  0  0  0
  -18.0317  -26.0084   22.9027 H   0  0  0  0  0  0
  -19.7923  -30.7253   24.2302 H   0  0  0  0  0  0
  -17.5013  -31.6272   24.5180 H   0  0  0  0  0  0
  -15.5353  -30.3026   23.7636 H   0  0  0  0  0  0
  -15.8644  -28.0850   22.7067 H   0  0  0  0  0  0
  -24.5864  -30.7086   25.7825 H   0  0  0  0  0  0
  -24.8941  -32.2873   26.4963 H   0  0  0  0  0  0
  -25.8074  -30.8847   27.0223 H   0  0  0  0  0  0
  -26.2828  -29.6810   24.1132 H   0  0  0  0  0  0
  -27.4073  -29.7277   25.4516 H   0  0  0  0  0  0
  -27.8644  -30.4375   23.9215 H   0  0  0  0  0  0
  -27.2687  -33.3592   26.2091 H   0  0  0  0  0  0
  -28.3824  -32.6892   25.0262 H   0  0  0  0  0  0
  -28.0750  -31.8391   26.5327 H   0  0  0  0  0  0
  -28.2596  -38.0121   24.7559 H   0  0  0  0  0  0
  -28.1121  -36.2662   24.6232 H   0  0  0  0  0  0
  -27.2324  -37.1392   25.8862 H   0  0  0  0  0  0
  -20.9277  -29.8763   21.6977 H   0  0  0  0  0  0
  -26.0179  -38.2870   24.1443 H   0  0  0  0  0  0
  -28.3346  -16.3442   22.3798 H   0  0  0  0  0  0
  -28.2675  -18.6961   22.9334 H   0  0  0  0  0  0
  -32.6380  -16.4911   22.0938 H   0  0  0  0  0  0
  -28.2628  -20.4676   21.5019 H   0  0  0  0  0  0
  -27.3416  -21.6503   22.3745 H   0  0  0  0  0  0
  -28.4817  -22.7775   24.5716 H   0  0  0  0  0  0
  -30.0949  -22.2790   24.9802 H   0  0  0  0  0  0
  -28.3551  -22.6358   20.3661 H   0  0  0  0  0  0
  -29.9613  -22.1821   20.8866 H   0  0  0  0  0  0
  -30.9795  -23.2914   22.8815 H   0  0  0  0  0  0
  -30.0506  -24.4696   23.7875 H   0  0  0  0  0  0
  -28.5658  -20.4929   24.0717 H   0  0  0  0  0  0
  -35.0987  -21.1553   20.9065 H   0  0  0  0  0  0
  -35.5763  -19.9531   22.0990 H   0  0  0  0  0  0
  -34.6578  -21.3721   22.5970 H   0  0  0  0  0  0
  -33.7671  -18.3543   23.0658 H   0  0  0  0  0  0
  -32.9313  -19.7506   23.6599 H   0  0  0  0  0  0
  -33.5955  -19.1832   20.7203 H   0  0  0  0  0  0
  -32.6900  -20.5775   21.2558 H   0  0  0  0  0  0
  -29.6882  -25.7471   21.9044 H   0  0  0  0  0  0
  -30.3679  -24.7452   20.6436 H   0  0  0  0  0  0
  -27.3661  -25.1413   20.8115 H   0  0  0  0  0  0
  -28.3149  -24.8404   19.3623 H   0  0  0  0  0  0
  -29.7266  -14.3671   22.3633 H   0  0  0  0  0  0
  -31.2985  -20.8551   23.2808 H   0  0  0  0  0  0
  -28.1754  -23.9373   22.4085 H   0  0  0  0  0  0
  1 25  1  0  0  0
  1 30  2  0  0  0
  1 87  1  0  0  0
  2  3  1  0  0  0
  2 25  1  0  0  0
  2 90  1  0  0  0
  2 91  1  0  0  0
  3  4  1  0  0  0
  3 92  1  0  0  0
  3 93  1  0  0  0
  4  5  1  0  0  0
  4 94  1  0  0  0
  4 95  1  0  0  0
  5  6  1  0  0  0
  5 26  1  0  0  0
  5 96  1  0  0  0
  6 25  1  0  0  0
  6 97  1  0  0  0
  6 98  1  0  0  0
  7  8  2  0  0  0
  7 26  1  0  0  0
  7 29  1  0  0  0
  8  9  1  0  0  0
  8 22  1  0  0  0
  9 10  1  0  0  0
  9 27  2  0  0  0
 10 11  2  0  0  0
 10 15  1  0  0  0
 11 12  1  0  0  0
 11 99  1  0  0  0
 12 13  2  0  0  0
 12100  1  0  0  0
 13 14  1  0  0  0
 13 31  1  0  0  0
 14 15  2  0  0  0
 14101  1  0  0  0
 15102  1  0  0  0
 16 17  2  0  0  0
 16 21  1  0  0  0
 16 31  1  0  0  0
 17 18  1  0  0  0
 17103  1  0  0  0
 18 19  2  0  0  0
 18104  1  0  0  0
 19 20  1  0  0  0
 19 24  1  0  0  0
 20 21  2  0  0  0
 20105  1  0  0  0
 21 23  1  0  0  0
 22 28  1  0  0  0
 22 32  2  0  0  0
 26 27  1  0  0  0
 28106  1  0  0  0
 28107  1  0  0  0
 29108  1  0  0  0
 29109  1  0  0  0
 33 34  1  0  0  0
 33 66  1  0  0  0
 33 70  2  0  0  0
 34 36  1  0  0  0
 34 59  1  0  0  0
 34110  1  0  0  0
 35 44  2  0  0  0
 35 45  1  0  0  0
 35 68  1  0  0  0
 36 56  1  0  0  0
 36111  1  0  0  0
 37 39  1  0  0  0
 37 47  1  0  0  0
 37 66  1  0  0  0
 37112  1  0  0  0
 38 43  2  0  0  0
 38 46  1  0  0  0
 38 47  1  0  0  0
 39 64  1  0  0  0
 39 67  2  0  0  0
 40 52  1  0  0  0
 40 53  2  0  0  0
 40 58  1  0  0  0
 41113  1  0  0  0
 41114  1  0  0  0
 41115  1  0  0  0
 41 48  1  0  0  0
 42 43  1  0  0  0
 42 66  1  0  0  0
 42116  1  0  0  0
 42117  1  0  0  0
 43 44  1  0  0  0
 44118  1  0  0  0
 45 46  2  0  0  0
 45119  1  0  0  0
 46120  1  0  0  0
 47121  1  0  0  0
 47122  1  0  0  0
 48 56  1  0  0  0
 48 65  1  0  0  0
 48123  1  0  0  0
 49 50  1  0  0  0
 49 53  1  0  0  0
 49 64  1  0  0  0
 49124  1  0  0  0
 50 51  1  0  0  0
 50125  1  0  0  0
 50126  1  0  0  0
 51 52  1  0  0  0
 51127  1  0  0  0
 51128  1  0  0  0
 52129  1  0  0  0
 52130  1  0  0  0
 53 54  1  0  0  0
 54 55  2  0  0  0
 54131  1  0  0  0
 55 57  1  0  0  0
 55132  1  0  0  0
 56 69  2  0  0  0
 57 58  2  0  0  0
 57133  1  0  0  0
 58134  1  0  0  0
 59 60  1  0  0  0
 59 61  1  0  0  0
 59 62  1  0  0  0
 60135  1  0  0  0
 60136  1  0  0  0
 60137  1  0  0  0
 61138  1  0  0  0
 61139  1  0  0  0
 61140  1  0  0  0
 62141  1  0  0  0
 62142  1  0  0  0
 62143  1  0  0  0
 63 65  1  0  0  0
 63144  1  0  0  0
 63145  1  0  0  0
 63146  1  0  0  0
 64147  1  0  0  0
 65148  1  0  0  0
 68 86  1  0  0  0
 71 72  2  0  0  0
 71 75  1  0  0  0
 71149  1  0  0  0
 72 76  1  0  0  0
 72150  1  0  0  0
 73 74  1  0  0  0
 73 75  2  0  0  0
 73151  1  0  0  0
 74 76  2  0  0  0
 74 83  1  0  0  0
 75 87  1  0  0  0
 76 88  1  0  0  0
 77 79  1  0  0  0
 77 81  1  0  0  0
 77152  1  0  0  0
 77153  1  0  0  0
 78 80  1  0  0  0
 78 81  1  0  0  0
 78154  1  0  0  0
 78155  1  0  0  0
 79 89  1  0  0  0
 79156  1  0  0  0
 79157  1  0  0  0
 80 89  1  0  0  0
 80158  1  0  0  0
 80159  1  0  0  0
 81 88  1  0  0  0
 81160  1  0  0  0
 82 84  1  0  0  0
 82161  1  0  0  0
 82162  1  0  0  0
 82163  1  0  0  0
 83 84  1  0  0  0
 83164  1  0  0  0
 83165  1  0  0  0
 84166  1  0  0  0
 84167  1  0  0  0
 85 86  1  0  0  0
 85168  1  0  0  0
 85169  1  0  0  0
 85 89  1  0  0  0
 86170  1  0  0  0
 86171  1  0  0  0
 87172  1  0  0  0
 88173  1  0  0  0
 89174  1  0  0  0
M  CHG  1  89   1
M  ISO  4   1 100  68 101  86 101  87 100
M  END
> <chiral flag>
0

> <version>
0

> <s_m_source_file>
/data/baiqing/PycharmProjects/Reinvent-master-3.2/result/LINK_invent/BTK/process_docking_weight1_custom_sum_contain_oxygen_bond_distance_aromatic_linkinvent_7_9_3/rearranged_h_0129.sdf

> <i_m_source_file_index>
76

> <r_mmod_Potential_Energy-OPLS-2005>
-113.796157836914

> <r_mmod_Stretch_Energy-OPLS-2005>
33.8325347900391

> <r_mmod_Bend_Energy-OPLS-2005>
104.57007598877

> <r_mmod_Torsional_Energy-OPLS-2005>
272.845886230469

> <r_mmod_Improper_Torsional_Energy-OPLS-2005>
5.71488666534424

> <r_mmod_Van_der_Waal_Energy-OPLS-2005>
164.146896362305

> <r_mmod_Electrostatic_Energy-OPLS-2005>
-288.423736572266

> <r_mmod_Solvation_Energy-OPLS-2005>
-414.658477783203

> <b_mmod_Minimization_Converged-OPLS-2005>
0

> <r_mmod_RMS_Derivative-OPLS-2005>
2.15366840362549

$$$$
77
                    3D
 Structure written by MMmdl.
160169  0  0  1  0            999 V2000
  -30.5370  -14.8802   20.4439 C   0  0  0  0  0  0
  -30.4462  -12.5416   19.4949 C   0  0  0  0  0  0
  -29.5224  -12.5387   18.2527 C   0  0  0  0  0  0
  -28.0510  -12.3342   18.6647 C   0  0  0  0  0  0
  -27.6403  -13.2430   19.8545 C   0  0  2  0  0  0
  -28.6819  -13.2097   20.9935 C   0  0  0  0  0  0
  -25.2503  -13.8211   20.5728 C   0  0  0  0  0  0
  -24.1802  -13.0443   20.9213 C   0  0  0  0  0  0
  -24.6408  -11.6922   20.8742 C   0  0  0  0  0  0
  -23.9089  -10.4293   21.0408 C   0  0  0  0  0  0
  -24.3636   -9.4210   21.9183 C   0  0  0  0  0  0
  -23.6301   -8.2247   22.0752 C   0  0  0  0  0  0
  -22.4276   -8.0294   21.3548 C   0  0  0  0  0  0
  -21.9926   -9.0265   20.4647 C   0  0  0  0  0  0
  -22.7263  -10.2139   20.3052 C   0  0  0  0  0  0
  -21.6856   -6.0749   22.5286 C   0  0  0  0  0  0
  -21.4012   -6.5649   23.8221 C   0  0  0  0  0  0
  -21.3655   -5.6790   24.9179 C   0  0  0  0  0  0
  -21.6034   -4.3056   24.7218 C   0  0  0  0  0  0
  -21.8819   -3.8156   23.4340 C   0  0  0  0  0  0
  -21.9192   -4.6976   22.3404 C   0  0  0  0  0  0
  -22.7816  -13.5212   21.1867 C   0  0  0  0  0  0
  -22.1661   -4.2166   21.0976 F   0  0  0  0  0  0
  -21.5623   -3.4531   25.7732 F   0  0  0  0  0  0
  -29.9735  -13.6107   20.4176 N   0  0  0  0  0  0
  -26.2935  -12.9437   20.3306 N   0  0  0  0  0  0
  -25.9345  -11.6564   20.5752 N   0  0  0  0  0  0
  -22.0461  -12.8203   22.0422 N   0  0  0  0  0  0
  -25.4175  -15.1942   20.4196 N   0  0  0  0  0  0
  -31.7098  -15.0074   20.0753 O   0  0  0  0  0  0
  -21.6640   -6.8893   21.4245 O   0  0  0  0  0  0
  -22.3503  -14.5532   20.6728 O   0  0  0  0  0  0
  -24.6367  -31.8482   23.1871 C   0  0  0  0  0  0
  -25.9166  -32.4705   23.8257 C   0  0  1  0  0  0
  -27.2240  -27.1758   20.1421 C   0  0  0  0  0  0
  -25.5936  -33.8517   24.2174 N   0  0  0  0  0  0
  -23.4409  -30.4652   21.5301 C   0  0  2  0  0  0
  -24.8919  -28.8963   20.1000 C   0  0  0  0  0  0
  -22.7552  -29.4566   22.4834 C   0  0  0  0  0  0
  -18.0309  -28.1388   22.8508 C   0  0  0  0  0  0
  -24.1485  -36.7230   23.2660 C   0  0  0  0  0  0
  -25.9935  -30.7277   21.3871 C   0  0  0  0  0  0
  -26.0623  -29.3433   20.7255 C   0  0  0  0  0  0
  -27.2223  -28.4943   20.7390 C   0  0  0  0  0  0
  -26.0367  -26.8211   19.4662 C   0  0  0  0  0  0
  -24.8899  -27.6464   19.4585 C   0  0  0  0  0  0
  -23.6655  -29.7937   20.1467 C   0  0  0  0  0  0
  -25.4119  -36.3028   24.0330 C   0  0  1  0  0  0
  -20.5935  -28.3718   23.1240 C   0  0  2  0  0  0
  -20.6796  -26.9413   22.5416 C   0  0  0  0  0  0
  -19.5755  -26.6377   21.5238 C   0  0  0  0  0  0
  -18.1935  -26.7940   22.1636 C   0  0  0  0  0  0
  -19.1577  -28.8868   23.2869 C   0  0  0  0  0  0
  -18.9499  -30.1472   23.8882 C   0  0  0  0  0  0
  -17.6494  -30.6592   24.0582 C   0  0  0  0  0  0
  -25.9076  -34.9411   23.5054 C   0  0  0  0  0  0
  -16.5381  -29.9096   23.6339 C   0  0  0  0  0  0
  -16.7299  -28.6515   23.0362 C   0  0  0  0  0  0
  -26.4500  -31.6577   25.0703 C   0  0  0  0  0  0
  -25.3703  -31.3772   26.1409 C   0  0  0  0  0  0
  -27.0411  -30.2995   24.6278 C   0  0  0  0  0  0
  -27.6028  -32.4382   25.7476 C   0  0  0  0  0  0
  -27.5564  -37.1757   24.8466 C   0  0  0  0  0  0
  -21.4253  -29.3056   22.3612 N   0  0  0  0  0  0
  -26.4265  -37.3752   23.9433 N   0  0  0  0  0  0
  -24.7091  -31.0367   22.0880 N   0  0  0  0  0  0
  -23.4212  -28.8129   23.2984 O   0  0  0  0  0  0
  -28.2955  -26.2372   20.2786 O   0  0  0  0  0  0
  -26.5675  -34.8924   22.4639 O   0  0  0  0  0  0
  -23.5489  -32.1343   23.7093 O   0  0  0  0  0  0
  -30.0988  -19.5936   19.2114 C   0  0  0  0  0  0
  -30.2349  -18.1678   19.4241 C   0  0  0  0  0  0
  -28.9870  -19.8540   21.2704 C   0  0  0  0  0  0
  -29.4993  -20.5351   20.1208 C   0  0  0  0  0  0
  -29.0759  -18.4112   21.4755 C   0  0  0  0  0  0
  -29.7312  -17.4899   20.5724 C   0  0  0  0  0  0
  -27.2795  -23.8038   19.9744 C   0  0  0  0  0  0
  -28.6649  -23.3913   20.4359 C   0  0  2  0  0  0
  -28.3636  -24.8229   19.6761 C   0  0  2  0  0  0
  -28.4277  -17.8438   22.7259 C   0  0  0  0  0  0
  -32.0296  -22.1211   18.9335 C   0  0  0  0  0  0
  -31.0143  -22.6533   19.9559 C   0  0  0  0  0  0
  -29.5503  -22.1583   19.8087 C   0  0  1  0  0  0
  -29.7225  -15.9799   20.7815 N   0  0  0  0  0  0
  -31.4833  -12.6948   19.1905 H   0  0  0  0  0  0
  -30.4232  -11.5707   19.9920 H   0  0  0  0  0  0
  -29.8286  -11.7589   17.5538 H   0  0  0  0  0  0
  -29.6234  -13.4846   17.7180 H   0  0  0  0  0  0
  -27.9284  -11.2861   18.9392 H   0  0  0  0  0  0
  -27.3903  -12.5021   17.8130 H   0  0  0  0  0  0
  -27.6208  -14.2600   19.4620 H   0  0  0  0  0  0
  -28.7457  -12.2134   21.4329 H   0  0  0  0  0  0
  -28.3874  -13.8771   21.8048 H   0  0  0  0  0  0
  -25.2783   -9.5681   22.4760 H   0  0  0  0  0  0
  -24.0009   -7.4637   22.7468 H   0  0  0  0  0  0
  -21.0860   -8.8790   19.8948 H   0  0  0  0  0  0
  -22.3731  -10.9679   19.6161 H   0  0  0  0  0  0
  -21.2004   -7.6157   23.9737 H   0  0  0  0  0  0
  -21.1467   -6.0515   25.9085 H   0  0  0  0  0  0
  -22.0596   -2.7614   23.2831 H   0  0  0  0  0  0
  -22.4064  -11.9855   22.4803 H   0  0  0  0  0  0
  -21.1076  -13.1230   22.2615 H   0  0  0  0  0  0
  -24.6410  -15.8397   20.5196 H   0  0  0  0  0  0
  -26.2655  -15.6443   20.0995 H   0  0  0  0  0  0
  -26.7237  -32.5316   23.0992 H   0  0  0  0  0  0
  -25.0097  -33.9653   25.0335 H   0  0  0  0  0  0
  -22.7424  -31.2900   21.3747 H   0  0  0  0  0  0
  -23.3785  -35.9519   23.3268 H   0  0  0  0  0  0
  -24.3588  -36.8891   22.2081 H   0  0  0  0  0  0
  -23.7177  -37.6387   23.6725 H   0  0  0  0  0  0
  -26.1608  -31.4846   20.6183 H   0  0  0  0  0  0
  -26.8595  -30.7676   22.0340 H   0  0  0  0  0  0
  -28.1088  -28.8232   21.2626 H   0  0  0  0  0  0
  -25.9641  -25.8654   18.9709 H   0  0  0  0  0  0
  -23.9963  -27.2980   18.9589 H   0  0  0  0  0  0
  -23.8001  -30.5704   19.3933 H   0  0  0  0  0  0
  -22.7818  -29.2343   19.8335 H   0  0  0  0  0  0
  -25.1296  -36.1840   25.0820 H   0  0  0  0  0  0
  -21.0047  -28.3302   24.1348 H   0  0  0  0  0  0
  -20.5717  -26.2327   23.3644 H   0  0  0  0  0  0
  -21.6650  -26.7422   22.1177 H   0  0  0  0  0  0
  -19.6921  -25.6292   21.1245 H   0  0  0  0  0  0
  -19.6676  -27.3221   20.6799 H   0  0  0  0  0  0
  -17.4213  -26.6737   21.4019 H   0  0  0  0  0  0
  -18.0274  -26.0063   22.9001 H   0  0  0  0  0  0
  -19.7980  -30.7299   24.2207 H   0  0  0  0  0  0
  -17.5057  -31.6267   24.5191 H   0  0  0  0  0  0
  -15.5383  -30.2999   23.7685 H   0  0  0  0  0  0
  -15.8690  -28.0839   22.7064 H   0  0  0  0  0  0
  -24.5841  -30.7171   25.7715 H   0  0  0  0  0  0
  -24.8970  -32.2986   26.4838 H   0  0  0  0  0  0
  -25.7994  -30.8913   27.0189 H   0  0  0  0  0  0
  -26.3048  -29.6683   24.1289 H   0  0  0  0  0  0
  -27.4070  -29.7304   25.4839 H   0  0  0  0  0  0
  -27.8919  -30.4263   23.9576 H   0  0  0  0  0  0
  -27.2604  -33.3745   26.1901 H   0  0  0  0  0  0
  -28.3895  -32.6835   25.0330 H   0  0  0  0  0  0
  -28.0619  -31.8613   26.5503 H   0  0  0  0  0  0
  -28.2524  -38.0109   24.7565 H   0  0  0  0  0  0
  -28.1093  -36.2633   24.6198 H   0  0  0  0  0  0
  -27.2297  -37.1269   25.8870 H   0  0  0  0  0  0
  -20.9445  -29.8773   21.6815 H   0  0  0  0  0  0
  -26.0106  -38.2797   24.1503 H   0  0  0  0  0  0
  -30.5083  -19.9805   18.2898 H   0  0  0  0  0  0
  -30.7166  -17.5839   18.6521 H   0  0  0  0  0  0
  -28.5043  -20.4561   22.0286 H   0  0  0  0  0  0
  -26.5559  -24.0480   20.7479 H   0  0  0  0  0  0
  -26.8639  -23.2746   19.1193 H   0  0  0  0  0  0
  -28.8190  -23.4789   21.5094 H   0  0  0  0  0  0
  -28.6873  -24.8948   18.6404 H   0  0  0  0  0  0
  -28.0018  -18.6269   23.3526 H   0  0  0  0  0  0
  -29.1590  -17.2979   23.3231 H   0  0  0  0  0  0
  -27.6205  -17.1622   22.4549 H   0  0  0  0  0  0
  -32.9450  -22.7114   18.9594 H   0  0  0  0  0  0
  -31.6348  -22.1734   17.9186 H   0  0  0  0  0  0
  -32.3151  -21.0908   19.1445 H   0  0  0  0  0  0
  -31.0269  -23.7407   19.8572 H   0  0  0  0  0  0
  -31.3708  -22.4539   20.9672 H   0  0  0  0  0  0
  -29.3188  -22.2032   18.7436 H   0  0  0  0  0  0
  -28.8800  -15.6593   21.2336 H   0  0  0  0  0  0
  1 25  1  0  0  0
  1 30  2  0  0  0
  1 84  1  0  0  0
  2  3  1  0  0  0
  2 25  1  0  0  0
  2 85  1  0  0  0
  2 86  1  0  0  0
  3  4  1  0  0  0
  3 87  1  0  0  0
  3 88  1  0  0  0
  4  5  1  0  0  0
  4 89  1  0  0  0
  4 90  1  0  0  0
  5  6  1  0  0  0
  5 26  1  0  0  0
  5 91  1  0  0  0
  6 25  1  0  0  0
  6 92  1  0  0  0
  6 93  1  0  0  0
  7  8  2  0  0  0
  7 26  1  0  0  0
  7 29  1  0  0  0
  8  9  1  0  0  0
  8 22  1  0  0  0
  9 10  1  0  0  0
  9 27  2  0  0  0
 10 11  2  0  0  0
 10 15  1  0  0  0
 11 12  1  0  0  0
 11 94  1  0  0  0
 12 13  2  0  0  0
 12 95  1  0  0  0
 13 14  1  0  0  0
 13 31  1  0  0  0
 14 15  2  0  0  0
 14 96  1  0  0  0
 15 97  1  0  0  0
 16 17  2  0  0  0
 16 21  1  0  0  0
 16 31  1  0  0  0
 17 18  1  0  0  0
 17 98  1  0  0  0
 18 19  2  0  0  0
 18 99  1  0  0  0
 19 20  1  0  0  0
 19 24  1  0  0  0
 20 21  2  0  0  0
 20100  1  0  0  0
 21 23  1  0  0  0
 22 28  1  0  0  0
 22 32  2  0  0  0
 26 27  1  0  0  0
 28101  1  0  0  0
 28102  1  0  0  0
 29103  1  0  0  0
 29104  1  0  0  0
 33 34  1  0  0  0
 33 66  1  0  0  0
 33 70  2  0  0  0
 34 36  1  0  0  0
 34 59  1  0  0  0
 34105  1  0  0  0
 35 44  2  0  0  0
 35 45  1  0  0  0
 35 68  1  0  0  0
 36 56  1  0  0  0
 36106  1  0  0  0
 37 39  1  0  0  0
 37 47  1  0  0  0
 37 66  1  0  0  0
 37107  1  0  0  0
 38 43  2  0  0  0
 38 46  1  0  0  0
 38 47  1  0  0  0
 39 64  1  0  0  0
 39 67  2  0  0  0
 40 52  1  0  0  0
 40 53  2  0  0  0
 40 58  1  0  0  0
 41108  1  0  0  0
 41109  1  0  0  0
 41110  1  0  0  0
 41 48  1  0  0  0
 42 43  1  0  0  0
 42 66  1  0  0  0
 42111  1  0  0  0
 42112  1  0  0  0
 43 44  1  0  0  0
 44113  1  0  0  0
 45 46  2  0  0  0
 45114  1  0  0  0
 46115  1  0  0  0
 47116  1  0  0  0
 47117  1  0  0  0
 48 56  1  0  0  0
 48 65  1  0  0  0
 48118  1  0  0  0
 49 50  1  0  0  0
 49 53  1  0  0  0
 49 64  1  0  0  0
 49119  1  0  0  0
 50 51  1  0  0  0
 50120  1  0  0  0
 50121  1  0  0  0
 51 52  1  0  0  0
 51122  1  0  0  0
 51123  1  0  0  0
 52124  1  0  0  0
 52125  1  0  0  0
 53 54  1  0  0  0
 54 55  2  0  0  0
 54126  1  0  0  0
 55 57  1  0  0  0
 55127  1  0  0  0
 56 69  2  0  0  0
 57 58  2  0  0  0
 57128  1  0  0  0
 58129  1  0  0  0
 59 60  1  0  0  0
 59 61  1  0  0  0
 59 62  1  0  0  0
 60130  1  0  0  0
 60131  1  0  0  0
 60132  1  0  0  0
 61133  1  0  0  0
 61134  1  0  0  0
 61135  1  0  0  0
 62136  1  0  0  0
 62137  1  0  0  0
 62138  1  0  0  0
 63 65  1  0  0  0
 63139  1  0  0  0
 63140  1  0  0  0
 63141  1  0  0  0
 64142  1  0  0  0
 65143  1  0  0  0
 68 79  1  0  0  0
 71 72  2  0  0  0
 71 74  1  0  0  0
 71144  1  0  0  0
 72 76  1  0  0  0
 72145  1  0  0  0
 73 74  2  0  0  0
 73 75  1  0  0  0
 73146  1  0  0  0
 74 83  1  0  0  0
 75 76  2  0  0  0
 75 80  1  0  0  0
 76 84  1  0  0  0
 77 79  1  0  0  0
 77147  1  0  0  0
 77148  1  0  0  0
 77 78  1  0  0  0
 78 79  1  0  0  0
 78 83  1  0  0  0
 78149  1  0  0  0
 79150  1  0  0  0
 80151  1  0  0  0
 80152  1  0  0  0
 80153  1  0  0  0
 81 82  1  0  0  0
 81154  1  0  0  0
 81155  1  0  0  0
 81156  1  0  0  0
 82157  1  0  0  0
 82158  1  0  0  0
 82 83  1  0  0  0
 83159  1  0  0  0
 84160  1  0  0  0
M  ISO  4   1 100  68 101  79 101  84 100
M  END
> <chiral flag>
0

> <version>
0

> <s_m_source_file>
/data/baiqing/PycharmProjects/Reinvent-master-3.2/result/LINK_invent/BTK/process_docking_weight1_custom_sum_contain_oxygen_bond_distance_aromatic_linkinvent_7_9_3/rearranged_h_0129.sdf

> <i_m_source_file_index>
77

> <r_mmod_Potential_Energy-OPLS-2005>
420.363433837891

> <r_mmod_Stretch_Energy-OPLS-2005>
201.595367431641

> <r_mmod_Bend_Energy-OPLS-2005>
262.695770263672

> <r_mmod_Torsional_Energy-OPLS-2005>
257.490020751953

> <r_mmod_Improper_Torsional_Energy-OPLS-2005>
3.68902540206909

> <r_mmod_Van_der_Waal_Energy-OPLS-2005>
129.260055541992

> <r_mmod_Electrostatic_Energy-OPLS-2005>
-386.209381103516

> <r_mmod_Solvation_Energy-OPLS-2005>
-202.172424316406

> <b_mmod_Minimization_Converged-OPLS-2005>
0

> <r_mmod_RMS_Derivative-OPLS-2005>
2.55483675003052

$$$$
78
                    3D
 Structure written by MMmdl.
170178  0  0  1  0            999 V2000
  -30.5649  -14.6375   20.4083 C   0  0  0  0  0  0
  -30.4108  -12.3761   19.4447 C   0  0  0  0  0  0
  -29.4779  -12.4564   18.2146 C   0  0  0  0  0  0
  -28.0036  -12.2991   18.6363 C   0  0  0  0  0  0
  -27.6169  -13.1923   19.8418 C   0  0  2  0  0  0
  -28.6538  -13.0777   20.9718 C   0  0  0  0  0  0
  -25.2336  -13.7997   20.5624 C   0  0  0  0  0  0
  -24.1700  -13.0455   20.9274 C   0  0  0  0  0  0
  -24.6218  -11.6795   20.8809 C   0  0  0  0  0  0
  -23.8910  -10.4280   21.0466 C   0  0  0  0  0  0
  -24.3464   -9.4159   21.9220 C   0  0  0  0  0  0
  -23.6207   -8.2148   22.0755 C   0  0  0  0  0  0
  -22.4170   -8.0204   21.3531 C   0  0  0  0  0  0
  -21.9797   -9.0163   20.4628 C   0  0  0  0  0  0
  -22.7083  -10.2074   20.3096 C   0  0  0  0  0  0
  -21.6821   -6.0673   22.5271 C   0  0  0  0  0  0
  -21.3992   -6.5610   23.8198 C   0  0  0  0  0  0
  -21.3648   -5.6779   24.9176 C   0  0  0  0  0  0
  -21.6047   -4.3043   24.7232 C   0  0  0  0  0  0
  -21.8809   -3.8108   23.4368 C   0  0  0  0  0  0
  -21.9179   -4.6914   22.3409 C   0  0  0  0  0  0
  -22.7688  -13.5191   21.1910 C   0  0  0  0  0  0
  -22.1650   -4.2102   21.0992 F   0  0  0  0  0  0
  -21.5636   -3.4526   25.7760 F   0  0  0  0  0  0
  -29.9558  -13.4151   20.3801 N   0  0  0  0  0  0
  -26.2749  -12.9194   20.3146 N   0  0  0  0  0  0
  -25.9104  -11.6394   20.5708 N   0  0  0  0  0  0
  -22.0309  -12.8288   22.0458 N   0  0  0  0  0  0
  -25.4331  -15.1792   20.4006 N   0  0  0  0  0  0
  -31.7476  -14.7789   20.0856 O   0  0  0  0  0  0
  -21.6576   -6.8750   21.4217 O   0  0  0  0  0  0
  -22.3429  -14.5553   20.6702 O   0  0  0  0  0  0
  -24.6418  -31.8819   23.2273 C   0  0  0  0  0  0
  -25.9328  -32.4821   23.8396 C   0  0  1  0  0  0
  -26.9781  -27.2399   20.0344 C   0  0  0  0  0  0
  -25.6067  -33.8611   24.2283 N   0  0  0  0  0  0
  -23.4098  -30.5357   21.6255 C   0  0  2  0  0  0
  -24.8022  -29.0586   20.0995 C   0  0  0  0  0  0
  -22.7399  -29.4891   22.5407 C   0  0  0  0  0  0
  -18.0189  -28.2009   22.7928 C   0  0  0  0  0  0
  -24.1505  -36.7294   23.2637 C   0  0  0  0  0  0
  -25.9634  -30.7364   21.4540 C   0  0  0  0  0  0
  -25.9785  -29.3844   20.7797 C   0  0  0  0  0  0
  -27.0755  -28.4548   20.7979 C   0  0  0  0  0  0
  -25.9090  -27.1446   19.1651 C   0  0  0  0  0  0
  -24.7775  -27.9479   19.2693 C   0  0  0  0  0  0
  -23.6082  -29.9858   20.2034 C   0  0  0  0  0  0
  -25.4149  -36.3083   24.0294 C   0  0  1  0  0  0
  -20.5963  -28.3801   23.1130 C   0  0  2  0  0  0
  -20.7604  -26.9991   22.4398 C   0  0  0  0  0  0
  -19.4806  -26.2490   22.0882 C   0  0  0  0  0  0
  -18.1434  -26.9591   21.9304 C   0  0  0  0  0  0
  -19.1514  -28.8972   23.2772 C   0  0  0  0  0  0
  -18.9251  -30.1380   23.9435 C   0  0  0  0  0  0
  -17.6247  -30.6390   24.1283 C   0  0  0  0  0  0
  -25.9163  -34.9457   23.5068 C   0  0  0  0  0  0
  -16.5103  -29.9140   23.6863 C   0  0  0  0  0  0
  -16.7151  -28.7063   23.0051 C   0  0  0  0  0  0
  -26.4644  -31.6578   25.0724 C   0  0  0  0  0  0
  -25.3777  -31.3704   26.1378 C   0  0  0  0  0  0
  -27.0333  -30.2882   24.6287 C   0  0  0  0  0  0
  -27.6228  -32.4206   25.7514 C   0  0  0  0  0  0
  -27.5538  -37.1808   24.8453 C   0  0  0  0  0  0
  -21.4105  -29.3426   22.4090 N   0  0  0  0  0  0
  -26.4253  -37.3797   23.9400 N   0  0  0  0  0  0
  -24.6911  -31.0623   22.1505 N   0  0  0  0  0  0
  -23.4098  -28.8404   23.3546 O   0  0  0  0  0  0
  -27.6359  -26.0011   20.1455 O   0  0  0  0  0  0
  -26.5784  -34.8978   22.4676 O   0  0  0  0  0  0
  -23.5632  -32.1833   23.7659 O   0  0  0  0  0  0
  -26.7812  -22.3522   19.8901 C   0  0  0  0  0  0
  -26.1027  -23.6112   19.6797 C   0  0  0  0  0  0
  -24.7864  -23.4644   19.0529 C   0  0  0  0  0  0
  -26.1630  -21.0843   19.6126 C   0  0  0  0  0  0
  -24.2379  -22.1426   18.8753 C   0  0  0  0  0  0
  -22.7986  -21.7956   18.4998 C   0  0  0  0  0  0
  -21.6894  -25.9473   18.7640 C   0  0  0  0  0  0
  -22.5391  -24.8590   16.6020 C   0  0  0  0  0  0
  -23.9565  -24.7381   18.7550 C   0  0  0  0  0  0
  -26.6342  -24.8893   20.5348 C   0  0  0  0  0  0
  -26.6782  -19.6894   20.1058 C   0  0  0  0  0  0
  -29.1653  -16.6582   19.5533 C   0  0  0  0  0  0
  -28.4476  -17.9010   20.2302 C   0  0  0  0  0  0
  -22.5168  -24.8018   18.1420 C   0  0  0  0  0  0
  -24.9292  -21.0161   19.1153 N   0  0  0  0  0  0
  -29.7568  -15.7258   20.5948 N   0  0  0  0  0  0
  -27.7637  -18.9559   19.3924 N   0  3  0  0  0  0
  -31.4522  -12.5219   19.1401 H   0  0  0  0  0  0
  -30.3645  -11.3963   19.9220 H   0  0  0  0  0  0
  -29.7454  -11.6806   17.5034 H   0  0  0  0  0  0
  -29.6171  -13.4076   17.6996 H   0  0  0  0  0  0
  -27.8547  -11.2474   18.8905 H   0  0  0  0  0  0
  -27.3427  -12.5005   17.7925 H   0  0  0  0  0  0
  -27.6177  -14.2062   19.4601 H   0  0  0  0  0  0
  -28.6542  -12.0626   21.3801 H   0  0  0  0  0  0
  -28.3902  -13.7419   21.8004 H   0  0  0  0  0  0
  -25.2575   -9.5644   22.4821 H   0  0  0  0  0  0
  -23.9919   -7.4520   22.7494 H   0  0  0  0  0  0
  -21.0687   -8.8608   19.8950 H   0  0  0  0  0  0
  -22.3471  -10.9582   19.6218 H   0  0  0  0  0  0
  -21.1982   -7.6112   23.9685 H   0  0  0  0  0  0
  -21.1499   -6.0520   25.9075 H   0  0  0  0  0  0
  -22.0615   -2.7572   23.2879 H   0  0  0  0  0  0
  -22.3869  -11.9935   22.4836 H   0  0  0  0  0  0
  -21.0985  -13.1372   22.2695 H   0  0  0  0  0  0
  -24.6724  -15.8500   20.4431 H   0  0  0  0  0  0
  -26.2784  -15.5391   19.9836 H   0  0  0  0  0  0
  -26.7390  -32.5509   23.1148 H   0  0  0  0  0  0
  -24.9663  -33.9775   25.0002 H   0  0  0  0  0  0
  -22.7072  -31.3626   21.5620 H   0  0  0  0  0  0
  -23.3710  -35.9660   23.3368 H   0  0  0  0  0  0
  -24.3515  -36.8886   22.2007 H   0  0  0  0  0  0
  -23.7323  -37.6530   23.6672 H   0  0  0  0  0  0
  -26.1425  -31.4814   20.6804 H   0  0  0  0  0  0
  -26.8320  -30.7396   22.1016 H   0  0  0  0  0  0
  -27.9137  -28.6279   21.4535 H   0  0  0  0  0  0
  -25.9825  -26.4253   18.3754 H   0  0  0  0  0  0
  -23.9392  -27.7812   18.6178 H   0  0  0  0  0  0
  -23.7997  -30.8455   19.5552 H   0  0  0  0  0  0
  -22.6829  -29.5046   19.8476 H   0  0  0  0  0  0
  -25.1357  -36.1845   25.0756 H   0  0  0  0  0  0
  -20.9609  -28.3245   24.1533 H   0  0  0  0  0  0
  -21.3739  -26.3412   23.0580 H   0  0  0  0  0  0
  -21.3268  -27.0989   21.5118 H   0  0  0  0  0  0
  -19.3253  -25.6553   22.9936 H   0  0  0  0  0  0
  -19.6623  -25.5045   21.3256 H   0  0  0  0  0  0
  -18.0106  -27.2560   20.8812 H   0  0  0  0  0  0
  -17.3052  -26.2781   22.1316 H   0  0  0  0  0  0
  -19.7481  -30.7025   24.3636 H   0  0  0  0  0  0
  -17.4757  -31.5456   24.6797 H   0  0  0  0  0  0
  -15.4981  -30.2677   23.8950 H   0  0  0  0  0  0
  -15.8677  -28.1584   22.6157 H   0  0  0  0  0  0
  -24.5787  -30.7305   25.7514 H   0  0  0  0  0  0
  -24.9153  -32.2903   26.5002 H   0  0  0  0  0  0
  -25.7910  -30.8467   27.0062 H   0  0  0  0  0  0
  -26.2763  -29.6713   24.1365 H   0  0  0  0  0  0
  -27.3891  -29.7081   25.4853 H   0  0  0  0  0  0
  -27.8849  -30.3962   23.9572 H   0  0  0  0  0  0
  -27.2884  -33.3578   26.2019 H   0  0  0  0  0  0
  -28.4026  -32.6641   25.0274 H   0  0  0  0  0  0
  -28.0876  -31.8299   26.5456 H   0  0  0  0  0  0
  -28.2662  -38.0035   24.7503 H   0  0  0  0  0  0
  -28.0995  -36.2573   24.6327 H   0  0  0  0  0  0
  -27.2270  -37.1478   25.8876 H   0  0  0  0  0  0
  -20.9185  -29.8682   21.7071 H   0  0  0  0  0  0
  -26.0151  -38.2886   24.1303 H   0  0  0  0  0  0
  -27.7248  -22.3739   20.3938 H   0  0  0  0  0  0
  -22.0622  -22.0326   19.2894 H   0  0  0  0  0  0
  -22.5452  -22.2714   17.5540 H   0  0  0  0  0  0
  -22.6342  -20.7370   18.2795 H   0  0  0  0  0  0
  -20.9483  -26.3576   18.0694 H   0  0  0  0  0  0
  -22.2799  -26.7900   19.1031 H   0  0  0  0  0  0
  -21.1680  -25.5777   19.6488 H   0  0  0  0  0  0
  -23.0119  -25.7944   16.2544 H   0  0  0  0  0  0
  -21.5303  -24.7889   16.1880 H   0  0  0  0  0  0
  -23.1042  -24.0186   16.1810 H   0  0  0  0  0  0
  -24.4831  -25.3292   18.0435 H   0  0  0  0  0  0
  -23.9664  -25.2421   19.7050 H   0  0  0  0  0  0
  -25.7506  -25.3823   20.9320 H   0  0  0  0  0  0
  -26.9857  -24.4333   21.4764 H   0  0  0  0  0  0
  -25.8508  -18.9851   20.0807 H   0  0  0  0  0  0
  -26.9070  -19.8187   21.1489 H   0  0  0  0  0  0
  -29.9590  -17.0040   18.8767 H   0  0  0  0  0  0
  -28.4524  -16.1149   18.9246 H   0  0  0  0  0  0
  -29.1861  -18.4113   20.8413 H   0  0  0  0  0  0
  -27.7028  -17.4998   20.9080 H   0  0  0  0  0  0
  -21.9307  -23.9630   18.4458 H   0  0  0  0  0  0
  -30.2504  -16.3213   21.2527 H   0  0  0  0  0  0
  -28.4380  -19.6050   19.0445 H   0  0  0  0  0  0
  -27.3071  -18.5716   18.5932 H   0  0  0  0  0  0
  1 25  1  0  0  0
  1 30  2  0  0  0
  1 86  1  0  0  0
  2  3  1  0  0  0
  2 25  1  0  0  0
  2 88  1  0  0  0
  2 89  1  0  0  0
  3  4  1  0  0  0
  3 90  1  0  0  0
  3 91  1  0  0  0
  4  5  1  0  0  0
  4 92  1  0  0  0
  4 93  1  0  0  0
  5  6  1  0  0  0
  5 26  1  0  0  0
  5 94  1  0  0  0
  6 25  1  0  0  0
  6 95  1  0  0  0
  6 96  1  0  0  0
  7  8  2  0  0  0
  7 26  1  0  0  0
  7 29  1  0  0  0
  8  9  1  0  0  0
  8 22  1  0  0  0
  9 10  1  0  0  0
  9 27  2  0  0  0
 10 11  2  0  0  0
 10 15  1  0  0  0
 11 12  1  0  0  0
 11 97  1  0  0  0
 12 13  2  0  0  0
 12 98  1  0  0  0
 13 14  1  0  0  0
 13 31  1  0  0  0
 14 15  2  0  0  0
 14 99  1  0  0  0
 15100  1  0  0  0
 16 17  2  0  0  0
 16 21  1  0  0  0
 16 31  1  0  0  0
 17 18  1  0  0  0
 17101  1  0  0  0
 18 19  2  0  0  0
 18102  1  0  0  0
 19 20  1  0  0  0
 19 24  1  0  0  0
 20 21  2  0  0  0
 20103  1  0  0  0
 21 23  1  0  0  0
 22 28  1  0  0  0
 22 32  2  0  0  0
 26 27  1  0  0  0
 28104  1  0  0  0
 28105  1  0  0  0
 29106  1  0  0  0
 29107  1  0  0  0
 33 34  1  0  0  0
 33 66  1  0  0  0
 33 70  2  0  0  0
 34 36  1  0  0  0
 34 59  1  0  0  0
 34108  1  0  0  0
 35 44  2  0  0  0
 35 45  1  0  0  0
 35 68  1  0  0  0
 36 56  1  0  0  0
 36109  1  0  0  0
 37 39  1  0  0  0
 37 47  1  0  0  0
 37 66  1  0  0  0
 37110  1  0  0  0
 38 43  2  0  0  0
 38 46  1  0  0  0
 38 47  1  0  0  0
 39 64  1  0  0  0
 39 67  2  0  0  0
 40 52  1  0  0  0
 40 53  2  0  0  0
 40 58  1  0  0  0
 41111  1  0  0  0
 41112  1  0  0  0
 41113  1  0  0  0
 41 48  1  0  0  0
 42 43  1  0  0  0
 42 66  1  0  0  0
 42114  1  0  0  0
 42115  1  0  0  0
 43 44  1  0  0  0
 44116  1  0  0  0
 45 46  2  0  0  0
 45117  1  0  0  0
 46118  1  0  0  0
 47119  1  0  0  0
 47120  1  0  0  0
 48 56  1  0  0  0
 48 65  1  0  0  0
 48121  1  0  0  0
 49 50  1  0  0  0
 49 53  1  0  0  0
 49 64  1  0  0  0
 49122  1  0  0  0
 50 51  1  0  0  0
 50123  1  0  0  0
 50124  1  0  0  0
 51 52  1  0  0  0
 51125  1  0  0  0
 51126  1  0  0  0
 52127  1  0  0  0
 52128  1  0  0  0
 53 54  1  0  0  0
 54 55  2  0  0  0
 54129  1  0  0  0
 55 57  1  0  0  0
 55130  1  0  0  0
 56 69  2  0  0  0
 57 58  2  0  0  0
 57131  1  0  0  0
 58132  1  0  0  0
 59 60  1  0  0  0
 59 61  1  0  0  0
 59 62  1  0  0  0
 60133  1  0  0  0
 60134  1  0  0  0
 60135  1  0  0  0
 61136  1  0  0  0
 61137  1  0  0  0
 61138  1  0  0  0
 62139  1  0  0  0
 62140  1  0  0  0
 62141  1  0  0  0
 63 65  1  0  0  0
 63142  1  0  0  0
 63143  1  0  0  0
 63144  1  0  0  0
 64145  1  0  0  0
 65146  1  0  0  0
 68 80  1  0  0  0
 71 72  2  0  0  0
 71 74  1  0  0  0
 71147  1  0  0  0
 72 73  1  0  0  0
 72 80  1  0  0  0
 73 75  2  0  0  0
 73 79  1  0  0  0
 74 81  1  0  0  0
 74 85  2  0  0  0
 75 76  1  0  0  0
 75 85  1  0  0  0
 76148  1  0  0  0
 76149  1  0  0  0
 76150  1  0  0  0
 77151  1  0  0  0
 77152  1  0  0  0
 77153  1  0  0  0
 77 84  1  0  0  0
 78 84  1  0  0  0
 78154  1  0  0  0
 78155  1  0  0  0
 78156  1  0  0  0
 79 84  1  0  0  0
 79157  1  0  0  0
 79158  1  0  0  0
 80159  1  0  0  0
 80160  1  0  0  0
 81 87  1  0  0  0
 81161  1  0  0  0
 81162  1  0  0  0
 82 83  1  0  0  0
 82 86  1  0  0  0
 82163  1  0  0  0
 82164  1  0  0  0
 83 87  1  0  0  0
 83165  1  0  0  0
 83166  1  0  0  0
 84167  1  0  0  0
 86168  1  0  0  0
 87169  1  0  0  0
 87170  1  0  0  0
M  CHG  1  87   1
M  ISO  4   1 100  68 101  80 101  86 100
M  END
> <chiral flag>
0

> <version>
0

> <s_m_source_file>
/data/baiqing/PycharmProjects/Reinvent-master-3.2/result/LINK_invent/BTK/process_docking_weight1_custom_sum_contain_oxygen_bond_distance_aromatic_linkinvent_7_9_3/rearranged_h_0129.sdf

> <i_m_source_file_index>
78

> <r_mmod_Potential_Energy-OPLS-2005>
235.821334838867

> <r_mmod_Stretch_Energy-OPLS-2005>
129.078369140625

> <r_mmod_Bend_Energy-OPLS-2005>
280.916717529297

> <r_mmod_Torsional_Energy-OPLS-2005>
386.887664794922

> <r_mmod_Improper_Torsional_Energy-OPLS-2005>
20.0790348052979

> <r_mmod_Van_der_Waal_Energy-OPLS-2005>
195.222473144531

> <r_mmod_Electrostatic_Energy-OPLS-2005>
-562.061340332031

> <r_mmod_Solvation_Energy-OPLS-2005>
-500.786926269531

> <b_mmod_Minimization_Converged-OPLS-2005>
0

> <r_mmod_RMS_Derivative-OPLS-2005>
29.7804336547852

$$$$
79
                    3D
 Structure written by MMmdl.
161170  0  0  1  0            999 V2000
  -30.5561  -14.6803   20.5160 C   0  0  0  0  0  0
  -30.4523  -12.4208   19.4541 C   0  0  0  0  0  0
  -29.5121  -12.5133   18.2287 C   0  0  0  0  0  0
  -28.0368  -12.3373   18.6417 C   0  0  0  0  0  0
  -27.6559  -13.2064   19.8687 C   0  0  2  0  0  0
  -28.6977  -13.0408   20.9983 C   0  0  0  0  0  0
  -25.2582  -13.8134   20.5678 C   0  0  0  0  0  0
  -24.1845  -13.0416   20.9197 C   0  0  0  0  0  0
  -24.6394  -11.6889   20.8739 C   0  0  0  0  0  0
  -23.9061  -10.4285   21.0422 C   0  0  0  0  0  0
  -24.3615   -9.4204   21.9201 C   0  0  0  0  0  0
  -23.6297   -8.2232   22.0759 C   0  0  0  0  0  0
  -22.4275   -8.0276   21.3544 C   0  0  0  0  0  0
  -21.9914   -9.0250   20.4647 C   0  0  0  0  0  0
  -22.7236  -10.2133   20.3073 C   0  0  0  0  0  0
  -21.6843   -6.0741   22.5284 C   0  0  0  0  0  0
  -21.4008   -6.5645   23.8217 C   0  0  0  0  0  0
  -21.3659   -5.6793   24.9175 C   0  0  0  0  0  0
  -21.6049   -4.3058   24.7221 C   0  0  0  0  0  0
  -21.8815   -3.8153   23.4341 C   0  0  0  0  0  0
  -21.9196   -4.6974   22.3403 C   0  0  0  0  0  0
  -22.7875  -13.5234   21.1849 C   0  0  0  0  0  0
  -22.1662   -4.2161   21.0980 F   0  0  0  0  0  0
  -21.5636   -3.4544   25.7735 F   0  0  0  0  0  0
  -30.0069  -13.4237   20.4458 N   0  0  0  0  0  0
  -26.2995  -12.9290   20.3324 N   0  0  0  0  0  0
  -25.9326  -11.6459   20.5776 N   0  0  0  0  0  0
  -22.0512  -12.8232   22.0406 N   0  0  0  0  0  0
  -25.4295  -15.1842   20.4019 N   0  0  0  0  0  0
  -31.7028  -14.8952   20.1041 O   0  0  0  0  0  0
  -21.6636   -6.8878   21.4243 O   0  0  0  0  0  0
  -22.3573  -14.5543   20.6701 O   0  0  0  0  0  0
  -24.6216  -31.8546   23.1972 C   0  0  0  0  0  0
  -25.9067  -32.4753   23.8297 C   0  0  1  0  0  0
  -27.2287  -27.3092   20.1444 C   0  0  0  0  0  0
  -25.5876  -33.8550   24.2232 N   0  0  0  0  0  0
  -23.4160  -30.4779   21.5367 C   0  0  2  0  0  0
  -24.8617  -28.9136   20.1160 C   0  0  0  0  0  0
  -22.7426  -29.4621   22.4888 C   0  0  0  0  0  0
  -18.0278  -28.1417   22.8475 C   0  0  0  0  0  0
  -24.1486  -36.7269   23.2660 C   0  0  0  0  0  0
  -25.9515  -30.7865   21.3644 C   0  0  0  0  0  0
  -26.0231  -29.4070   20.7200 C   0  0  0  0  0  0
  -27.2021  -28.6155   20.7202 C   0  0  0  0  0  0
  -26.0467  -26.8475   19.5302 C   0  0  0  0  0  0
  -24.8759  -27.6389   19.5166 C   0  0  0  0  0  0
  -23.6323  -29.8015   20.1548 C   0  0  0  0  0  0
  -25.4098  -36.3038   24.0338 C   0  0  1  0  0  0
  -20.5881  -28.3686   23.1288 C   0  0  2  0  0  0
  -20.6766  -26.9410   22.5422 C   0  0  0  0  0  0
  -19.5751  -26.6386   21.5223 C   0  0  0  0  0  0
  -18.1925  -26.7955   22.1631 C   0  0  0  0  0  0
  -19.1537  -28.8863   23.2883 C   0  0  0  0  0  0
  -18.9490  -30.1477   23.8871 C   0  0  0  0  0  0
  -17.6496  -30.6602   24.0594 C   0  0  0  0  0  0
  -25.9028  -34.9426   23.5081 C   0  0  0  0  0  0
  -16.5376  -29.9120   23.6367 C   0  0  0  0  0  0
  -16.7286  -28.6559   23.0323 C   0  0  0  0  0  0
  -26.4464  -31.6593   25.0683 C   0  0  0  0  0  0
  -25.3718  -31.3767   26.1432 C   0  0  0  0  0  0
  -27.0337  -30.3036   24.6117 C   0  0  0  0  0  0
  -27.5976  -32.4370   25.7460 C   0  0  0  0  0  0
  -27.5550  -37.1783   24.8469 C   0  0  0  0  0  0
  -21.4145  -29.3046   22.3661 N   0  0  0  0  0  0
  -26.4252  -37.3743   23.9421 N   0  0  0  0  0  0
  -24.6819  -31.0566   22.0908 N   0  0  0  0  0  0
  -23.4162  -28.8166   23.2947 O   0  0  0  0  0  0
  -28.4253  -26.5907   20.1421 O   0  0  0  0  0  0
  -26.5612  -34.8914   22.4667 O   0  0  0  0  0  0
  -23.5391  -32.1357   23.7319 O   0  0  0  0  0  0
  -28.0245  -19.1038   20.8019 C   0  0  0  0  0  0
  -30.2514  -19.3899   19.9627 C   0  0  0  0  0  0
  -28.3049  -17.7233   21.0374 C   0  0  0  0  0  0
  -30.5303  -17.9996   20.1901 C   0  0  0  0  0  0
  -28.9843  -19.9878   20.2406 C   0  0  0  0  0  0
  -29.5524  -17.1121   20.7208 C   0  0  0  0  0  0
  -29.6605  -23.1921   21.2289 C   0  0  0  0  0  0
  -27.7101  -23.8819   20.0317 C   0  0  0  0  0  0
  -29.4474  -24.7163   21.4327 C   0  0  1  0  0  0
  -28.6718  -25.1210   20.1694 C   0  0  2  0  0  0
  -28.5873  -21.4359   19.7147 C   0  0  0  0  0  0
  -28.6639  -25.0549   22.7257 C   0  0  0  0  0  0
  -29.7045  -15.6663   20.9613 N   0  0  0  0  0  0
  -28.4181  -22.6558   20.6167 N   0  3  1  0  0  0
  -29.4501  -24.8406   23.8878 O   0  0  0  0  0  0
  -31.4884  -12.5802   19.1485 H   0  0  0  0  0  0
  -30.4216  -11.4197   19.8868 H   0  0  0  0  0  0
  -29.7827  -11.7591   17.4880 H   0  0  0  0  0  0
  -29.6420  -13.4810   17.7410 H   0  0  0  0  0  0
  -27.8865  -11.2838   18.8782 H   0  0  0  0  0  0
  -27.3770  -12.5560   17.8021 H   0  0  0  0  0  0
  -27.6781  -14.2442   19.5354 H   0  0  0  0  0  0
  -28.7259  -12.0054   21.3415 H   0  0  0  0  0  0
  -28.4302  -13.6297   21.8772 H   0  0  0  0  0  0
  -25.2754   -9.5681   22.4777 H   0  0  0  0  0  0
  -24.0005   -7.4624   22.7477 H   0  0  0  0  0  0
  -21.0844   -8.8762   19.8951 H   0  0  0  0  0  0
  -22.3689  -10.9676   19.6187 H   0  0  0  0  0  0
  -21.1985   -7.6152   23.9718 H   0  0  0  0  0  0
  -21.1490   -6.0528   25.9077 H   0  0  0  0  0  0
  -22.0597   -2.7620   23.2836 H   0  0  0  0  0  0
  -22.4114  -11.9874   22.4773 H   0  0  0  0  0  0
  -21.1147  -13.1275   22.2629 H   0  0  0  0  0  0
  -24.6463  -15.8249   20.4691 H   0  0  0  0  0  0
  -26.2534  -15.6078   19.9940 H   0  0  0  0  0  0
  -26.7115  -32.5407   23.1020 H   0  0  0  0  0  0
  -25.0006  -33.9695   25.0353 H   0  0  0  0  0  0
  -22.7118  -31.2987   21.3870 H   0  0  0  0  0  0
  -23.3728  -35.9623   23.3314 H   0  0  0  0  0  0
  -24.3577  -36.8896   22.2084 H   0  0  0  0  0  0
  -23.7286  -37.6489   23.6685 H   0  0  0  0  0  0
  -26.0727  -31.5430   20.5864 H   0  0  0  0  0  0
  -26.8363  -30.8429   21.9861 H   0  0  0  0  0  0
  -28.1003  -28.9979   21.1855 H   0  0  0  0  0  0
  -26.0266  -25.8817   19.0482 H   0  0  0  0  0  0
  -23.9821  -27.2528   19.0432 H   0  0  0  0  0  0
  -23.7623  -30.5747   19.3964 H   0  0  0  0  0  0
  -22.7498  -29.2357   19.8486 H   0  0  0  0  0  0
  -25.1298  -36.1848   25.0831 H   0  0  0  0  0  0
  -21.0004  -28.3261   24.1404 H   0  0  0  0  0  0
  -20.5686  -26.2289   23.3604 H   0  0  0  0  0  0
  -21.6634  -26.7434   22.1209 H   0  0  0  0  0  0
  -19.6908  -25.6297   21.1261 H   0  0  0  0  0  0
  -19.6715  -27.3183   20.6743 H   0  0  0  0  0  0
  -17.4202  -26.6709   21.4028 H   0  0  0  0  0  0
  -18.0315  -26.0104   22.9027 H   0  0  0  0  0  0
  -19.7969  -30.7309   24.2192 H   0  0  0  0  0  0
  -17.5071  -31.6288   24.5194 H   0  0  0  0  0  0
  -15.5391  -30.3042   23.7708 H   0  0  0  0  0  0
  -15.8672  -28.0932   22.6998 H   0  0  0  0  0  0
  -24.5817  -30.7179   25.7783 H   0  0  0  0  0  0
  -24.8994  -32.2989   26.4854 H   0  0  0  0  0  0
  -25.8050  -30.8940   27.0202 H   0  0  0  0  0  0
  -26.2929  -29.6759   24.1144 H   0  0  0  0  0  0
  -27.4116  -29.7291   25.4582 H   0  0  0  0  0  0
  -27.8728  -30.4379   23.9280 H   0  0  0  0  0  0
  -27.2505  -33.3648   26.2020 H   0  0  0  0  0  0
  -28.3781  -32.6993   25.0303 H   0  0  0  0  0  0
  -28.0638  -31.8537   26.5409 H   0  0  0  0  0  0
  -28.2554  -38.0086   24.7468 H   0  0  0  0  0  0
  -28.1063  -36.2612   24.6324 H   0  0  0  0  0  0
  -27.2273  -37.1464   25.8875 H   0  0  0  0  0  0
  -20.9273  -29.8787   21.6923 H   0  0  0  0  0  0
  -26.0119  -38.2799   24.1441 H   0  0  0  0  0  0
  -27.0248  -19.4672   21.0053 H   0  0  0  0  0  0
  -31.0259  -19.9925   19.5062 H   0  0  0  0  0  0
  -27.5058  -17.1157   21.4399 H   0  0  0  0  0  0
  -31.5053  -17.6156   19.9232 H   0  0  0  0  0  0
  -29.9208  -22.6785   22.1535 H   0  0  0  0  0  0
  -30.4945  -23.0435   20.5408 H   0  0  0  0  0  0
  -27.3980  -23.7267   18.9986 H   0  0  0  0  0  0
  -26.8068  -24.0601   20.6150 H   0  0  0  0  0  0
  -30.4065  -25.2375   21.4598 H   0  0  0  0  0  0
  -29.3696  -25.0097   19.3388 H   0  0  0  0  0  0
  -27.6189  -21.3024   19.2290 H   0  0  0  0  0  0
  -29.2714  -21.7034   18.9085 H   0  0  0  0  0  0
  -27.7501  -24.4625   22.8024 H   0  0  0  0  0  0
  -28.3473  -26.0996   22.7148 H   0  0  0  0  0  0
  -28.8887  -15.2510   21.3854 H   0  0  0  0  0  0
  -27.8442  -22.3325   21.3811 H   0  0  0  0  0  0
  -28.9517  -25.1565   24.6368 H   0  0  0  0  0  0
  1 25  1  0  0  0
  1 30  2  0  0  0
  1 83  1  0  0  0
  2  3  1  0  0  0
  2 25  1  0  0  0
  2 86  1  0  0  0
  2 87  1  0  0  0
  3  4  1  0  0  0
  3 88  1  0  0  0
  3 89  1  0  0  0
  4  5  1  0  0  0
  4 90  1  0  0  0
  4 91  1  0  0  0
  5  6  1  0  0  0
  5 26  1  0  0  0
  5 92  1  0  0  0
  6 25  1  0  0  0
  6 93  1  0  0  0
  6 94  1  0  0  0
  7  8  2  0  0  0
  7 26  1  0  0  0
  7 29  1  0  0  0
  8  9  1  0  0  0
  8 22  1  0  0  0
  9 10  1  0  0  0
  9 27  2  0  0  0
 10 11  2  0  0  0
 10 15  1  0  0  0
 11 12  1  0  0  0
 11 95  1  0  0  0
 12 13  2  0  0  0
 12 96  1  0  0  0
 13 14  1  0  0  0
 13 31  1  0  0  0
 14 15  2  0  0  0
 14 97  1  0  0  0
 15 98  1  0  0  0
 16 17  2  0  0  0
 16 21  1  0  0  0
 16 31  1  0  0  0
 17 18  1  0  0  0
 17 99  1  0  0  0
 18 19  2  0  0  0
 18100  1  0  0  0
 19 20  1  0  0  0
 19 24  1  0  0  0
 20 21  2  0  0  0
 20101  1  0  0  0
 21 23  1  0  0  0
 22 28  1  0  0  0
 22 32  2  0  0  0
 26 27  1  0  0  0
 28102  1  0  0  0
 28103  1  0  0  0
 29104  1  0  0  0
 29105  1  0  0  0
 33 34  1  0  0  0
 33 66  1  0  0  0
 33 70  2  0  0  0
 34 36  1  0  0  0
 34 59  1  0  0  0
 34106  1  0  0  0
 35 44  2  0  0  0
 35 45  1  0  0  0
 35 68  1  0  0  0
 36 56  1  0  0  0
 36107  1  0  0  0
 37 39  1  0  0  0
 37 47  1  0  0  0
 37 66  1  0  0  0
 37108  1  0  0  0
 38 43  2  0  0  0
 38 46  1  0  0  0
 38 47  1  0  0  0
 39 64  1  0  0  0
 39 67  2  0  0  0
 40 52  1  0  0  0
 40 53  2  0  0  0
 40 58  1  0  0  0
 41109  1  0  0  0
 41110  1  0  0  0
 41111  1  0  0  0
 41 48  1  0  0  0
 42 43  1  0  0  0
 42 66  1  0  0  0
 42112  1  0  0  0
 42113  1  0  0  0
 43 44  1  0  0  0
 44114  1  0  0  0
 45 46  2  0  0  0
 45115  1  0  0  0
 46116  1  0  0  0
 47117  1  0  0  0
 47118  1  0  0  0
 48 56  1  0  0  0
 48 65  1  0  0  0
 48119  1  0  0  0
 49 50  1  0  0  0
 49 53  1  0  0  0
 49 64  1  0  0  0
 49120  1  0  0  0
 50 51  1  0  0  0
 50121  1  0  0  0
 50122  1  0  0  0
 51 52  1  0  0  0
 51123  1  0  0  0
 51124  1  0  0  0
 52125  1  0  0  0
 52126  1  0  0  0
 53 54  1  0  0  0
 54 55  2  0  0  0
 54127  1  0  0  0
 55 57  1  0  0  0
 55128  1  0  0  0
 56 69  2  0  0  0
 57 58  2  0  0  0
 57129  1  0  0  0
 58130  1  0  0  0
 59 60  1  0  0  0
 59 61  1  0  0  0
 59 62  1  0  0  0
 60131  1  0  0  0
 60132  1  0  0  0
 60133  1  0  0  0
 61134  1  0  0  0
 61135  1  0  0  0
 61136  1  0  0  0
 62137  1  0  0  0
 62138  1  0  0  0
 62139  1  0  0  0
 63 65  1  0  0  0
 63140  1  0  0  0
 63141  1  0  0  0
 63142  1  0  0  0
 64143  1  0  0  0
 65144  1  0  0  0
 68 80  1  0  0  0
 71 73  2  0  0  0
 71 75  1  0  0  0
 71145  1  0  0  0
 72 74  1  0  0  0
 72 75  2  0  0  0
 72146  1  0  0  0
 73 76  1  0  0  0
 73147  1  0  0  0
 74 76  2  0  0  0
 74148  1  0  0  0
 75 81  1  0  0  0
 76 83  1  0  0  0
 77 79  1  0  0  0
 77 84  1  0  0  0
 77149  1  0  0  0
 77150  1  0  0  0
 78 80  1  0  0  0
 78 84  1  0  0  0
 78151  1  0  0  0
 78152  1  0  0  0
 79 80  1  0  0  0
 79 82  1  0  0  0
 79153  1  0  0  0
 80154  1  0  0  0
 81155  1  0  0  0
 81156  1  0  0  0
 81 84  1  0  0  0
 82 85  1  0  0  0
 82157  1  0  0  0
 82158  1  0  0  0
 83159  1  0  0  0
 84160  1  0  0  0
 85161  1  0  0  0
M  CHG  1  84   1
M  ISO  4   1 100  68 101  80 101  83 100
M  END
> <chiral flag>
0

> <version>
0

> <s_m_source_file>
/data/baiqing/PycharmProjects/Reinvent-master-3.2/result/LINK_invent/BTK/process_docking_weight1_custom_sum_contain_oxygen_bond_distance_aromatic_linkinvent_7_9_3/rearranged_h_0129.sdf

> <i_m_source_file_index>
79

> <r_mmod_Potential_Energy-OPLS-2005>
98.6167831420898

> <r_mmod_Stretch_Energy-OPLS-2005>
87.491455078125

> <r_mmod_Bend_Energy-OPLS-2005>
244.708541870117

> <r_mmod_Torsional_Energy-OPLS-2005>
281.201324462891

> <r_mmod_Improper_Torsional_Energy-OPLS-2005>
5.80291080474854

> <r_mmod_Van_der_Waal_Energy-OPLS-2005>
125.953010559082

> <r_mmod_Electrostatic_Energy-OPLS-2005>
-247.250457763672

> <r_mmod_Solvation_Energy-OPLS-2005>
-452.711578369141

> <b_mmod_Minimization_Converged-OPLS-2005>
0

> <r_mmod_RMS_Derivative-OPLS-2005>
3.51920294761658

$$$$
80
                    3D
 Structure written by MMmdl.
163171  0  0  1  0            999 V2000
  -30.6135  -14.7434   20.4610 C   0  0  0  0  0  0
  -30.4520  -12.4618   19.4502 C   0  0  0  0  0  0
  -29.5189  -12.4916   18.2261 C   0  0  0  0  0  0
  -28.0463  -12.3161   18.6505 C   0  0  0  0  0  0
  -27.6431  -13.2251   19.8421 C   0  0  2  0  0  0
  -28.6913  -13.1819   20.9686 C   0  0  0  0  0  0
  -25.2528  -13.8203   20.5700 C   0  0  0  0  0  0
  -24.1763  -13.0418   20.9172 C   0  0  0  0  0  0
  -24.6359  -11.6925   20.8716 C   0  0  0  0  0  0
  -23.8983  -10.4313   21.0361 C   0  0  0  0  0  0
  -24.3553   -9.4256   21.9165 C   0  0  0  0  0  0
  -23.6259   -8.2263   22.0731 C   0  0  0  0  0  0
  -22.4260   -8.0235   21.3500 C   0  0  0  0  0  0
  -21.9860   -9.0187   20.4620 C   0  0  0  0  0  0
  -22.7126  -10.2128   20.3033 C   0  0  0  0  0  0
  -21.6880   -6.0693   22.5239 C   0  0  0  0  0  0
  -21.4017   -6.5611   23.8162 C   0  0  0  0  0  0
  -21.3688   -5.6770   24.9133 C   0  0  0  0  0  0
  -21.6066   -4.3017   24.7212 C   0  0  0  0  0  0
  -21.8835   -3.8090   23.4340 C   0  0  0  0  0  0
  -21.9206   -4.6907   22.3394 C   0  0  0  0  0  0
  -22.7788  -13.5209   21.1835 C   0  0  0  0  0  0
  -22.1654   -4.2090   21.0973 F   0  0  0  0  0  0
  -21.5668   -3.4522   25.7740 F   0  0  0  0  0  0
  -29.9845  -13.5256   20.3656 N   0  0  0  0  0  0
  -26.2935  -12.9398   20.3239 N   0  0  0  0  0  0
  -25.9288  -11.6531   20.5713 N   0  0  0  0  0  0
  -22.0390  -12.8208   22.0435 N   0  0  0  0  0  0
  -25.4240  -15.1935   20.4170 N   0  0  0  0  0  0
  -31.8332  -14.8151   20.2953 O   0  0  0  0  0  0
  -21.6653   -6.8820   21.4188 O   0  0  0  0  0  0
  -22.3480  -14.5503   20.6722 O   0  0  0  0  0  0
  -24.6311  -31.8574   23.1996 C   0  0  0  0  0  0
  -25.9134  -32.4807   23.8372 C   0  0  1  0  0  0
  -27.2217  -27.2243   20.1789 C   0  0  0  0  0  0
  -25.5919  -33.8597   24.2308 N   0  0  0  0  0  0
  -23.4348  -30.4769   21.5377 C   0  0  2  0  0  0
  -24.8874  -28.9195   20.1123 C   0  0  0  0  0  0
  -22.7559  -29.4563   22.4852 C   0  0  0  0  0  0
  -18.0334  -28.1387   22.8472 C   0  0  0  0  0  0
  -24.1485  -36.7313   23.2638 C   0  0  0  0  0  0
  -25.9754  -30.7593   21.3824 C   0  0  0  0  0  0
  -26.0499  -29.3727   20.7437 C   0  0  0  0  0  0
  -27.2091  -28.5345   20.7729 C   0  0  0  0  0  0
  -26.0279  -26.8380   19.5179 C   0  0  0  0  0  0
  -24.8805  -27.6608   19.4978 C   0  0  0  0  0  0
  -23.6646  -29.8178   20.1498 C   0  0  0  0  0  0
  -25.4102  -36.3127   24.0325 C   0  0  1  0  0  0
  -20.5933  -28.3687   23.1274 C   0  0  2  0  0  0
  -20.6788  -26.9385   22.5432 C   0  0  0  0  0  0
  -19.5763  -26.6359   21.5260 C   0  0  0  0  0  0
  -18.1951  -26.7935   22.1637 C   0  0  0  0  0  0
  -19.1582  -28.8853   23.2877 C   0  0  0  0  0  0
  -18.9484  -30.1457   23.8887 C   0  0  0  0  0  0
  -17.6471  -30.6564   24.0568 C   0  0  0  0  0  0
  -25.9018  -34.9463   23.5124 C   0  0  0  0  0  0
  -16.5362  -29.9061   23.6341 C   0  0  0  0  0  0
  -16.7321  -28.6512   23.0305 C   0  0  0  0  0  0
  -26.4494  -31.6633   25.0754 C   0  0  0  0  0  0
  -25.3710  -31.3780   26.1481 C   0  0  0  0  0  0
  -27.0332  -30.3079   24.6180 C   0  0  0  0  0  0
  -27.6072  -32.4340   25.7528 C   0  0  0  0  0  0
  -27.5579  -37.1823   24.8464 C   0  0  0  0  0  0
  -21.4243  -29.3056   22.3658 N   0  0  0  0  0  0
  -26.4305  -37.3808   23.9409 N   0  0  0  0  0  0
  -24.7020  -31.0491   22.0989 N   0  0  0  0  0  0
  -23.4263  -28.8096   23.2941 O   0  0  0  0  0  0
  -28.3415  -26.3578   20.2798 O   0  0  0  0  0  0
  -26.5570  -34.8926   22.4679 O   0  0  0  0  0  0
  -23.5457  -32.1380   23.7237 O   0  0  0  0  0  0
  -32.5064  -19.4364   20.7896 C   0  0  0  0  0  0
  -31.8408  -18.2134   20.5791 C   0  0  0  0  0  0
  -31.5627  -20.4003   20.9790 C   0  0  0  0  0  0
  -30.4925  -18.4066   20.7015 C   0  0  0  0  0  0
  -31.8051  -21.8266   21.3703 C   0  0  0  0  0  0
  -26.0452  -22.9913   20.7951 C   0  0  0  0  0  0
  -29.5120  -17.1991   20.8158 C   0  0  0  0  0  0
  -27.2241  -23.5200   21.6152 C   0  0  0  0  0  0
  -28.9805  -22.1831   20.1222 C   0  0  0  0  0  0
  -29.0388  -20.7341   20.8919 C   0  0  0  0  0  0
  -28.3878  -24.9182   19.8100 C   0  0  0  0  0  0
  -28.5283  -23.6219   20.7925 C   0  0  1  0  0  0
  -30.2829  -19.8504   20.7928 N   0  0  0  0  0  0
  -29.8459  -15.8533   20.1602 N   0  0  0  0  0  0
  -31.4834  -12.6264   19.1272 H   0  0  0  0  0  0
  -30.4247  -11.4830   19.9351 H   0  0  0  0  0  0
  -29.7999  -11.7069   17.5214 H   0  0  0  0  0  0
  -29.6495  -13.4358   17.6992 H   0  0  0  0  0  0
  -27.9082  -11.2688   18.9203 H   0  0  0  0  0  0
  -27.3897  -12.4960   17.8011 H   0  0  0  0  0  0
  -27.6360  -14.2436   19.4585 H   0  0  0  0  0  0
  -28.7244  -12.2004   21.4442 H   0  0  0  0  0  0
  -28.4275  -13.9010   21.7461 H   0  0  0  0  0  0
  -25.2702   -9.5834   22.4711 H   0  0  0  0  0  0
  -24.0013   -7.4720   22.7493 H   0  0  0  0  0  0
  -21.0769   -8.8633   19.8952 H   0  0  0  0  0  0
  -22.3450  -10.9633   19.6170 H   0  0  0  0  0  0
  -21.1958   -7.6112   23.9642 H   0  0  0  0  0  0
  -21.1515   -6.0506   25.9054 H   0  0  0  0  0  0
  -22.0598   -2.7538   23.2855 H   0  0  0  0  0  0
  -22.3944  -11.9911   22.4987 H   0  0  0  0  0  0
  -21.0985  -13.1226   22.2517 H   0  0  0  0  0  0
  -24.6670  -15.8519   20.5573 H   0  0  0  0  0  0
  -26.2858  -15.6365   20.1217 H   0  0  0  0  0  0
  -26.7153  -32.5520   23.1077 H   0  0  0  0  0  0
  -25.0215  -33.9772   25.0569 H   0  0  0  0  0  0
  -22.7330  -31.2981   21.3904 H   0  0  0  0  0  0
  -23.3798  -35.9610   23.3297 H   0  0  0  0  0  0
  -24.3640  -36.8963   22.2077 H   0  0  0  0  0  0
  -23.7174  -37.6486   23.6645 H   0  0  0  0  0  0
  -26.0737  -31.5034   20.5923 H   0  0  0  0  0  0
  -26.8658  -30.8481   21.9953 H   0  0  0  0  0  0
  -28.0893  -28.8628   21.3084 H   0  0  0  0  0  0
  -25.9203  -25.8823   19.0353 H   0  0  0  0  0  0
  -23.9774  -27.3056   19.0264 H   0  0  0  0  0  0
  -23.8041  -30.5989   19.4003 H   0  0  0  0  0  0
  -22.7859  -29.2508   19.8412 H   0  0  0  0  0  0
  -25.1272  -36.2003   25.0817 H   0  0  0  0  0  0
  -20.9995  -28.3207   24.1414 H   0  0  0  0  0  0
  -20.5724  -26.2260   23.3619 H   0  0  0  0  0  0
  -21.6633  -26.7383   22.1201 H   0  0  0  0  0  0
  -19.6891  -25.6290   21.1281 H   0  0  0  0  0  0
  -19.6709  -27.3163   20.6793 H   0  0  0  0  0  0
  -17.4222  -26.6725   21.4030 H   0  0  0  0  0  0
  -18.0251  -26.0082   22.9012 H   0  0  0  0  0  0
  -19.7955  -30.7298   24.2185 H   0  0  0  0  0  0
  -17.5027  -31.6241   24.5165 H   0  0  0  0  0  0
  -15.5369  -30.2924   23.7685 H   0  0  0  0  0  0
  -15.8745  -28.0875   22.6898 H   0  0  0  0  0  0
  -24.5909  -30.7082   25.7823 H   0  0  0  0  0  0
  -24.8861  -32.2951   26.4858 H   0  0  0  0  0  0
  -25.8033  -30.9028   27.0310 H   0  0  0  0  0  0
  -26.2891  -29.6874   24.1171 H   0  0  0  0  0  0
  -27.4052  -29.7295   25.4663 H   0  0  0  0  0  0
  -27.8733  -30.4473   23.9362 H   0  0  0  0  0  0
  -27.2731  -33.3671   26.2094 H   0  0  0  0  0  0
  -28.3891  -32.6872   25.0337 H   0  0  0  0  0  0
  -28.0695  -31.8456   26.5488 H   0  0  0  0  0  0
  -28.2569  -38.0145   24.7538 H   0  0  0  0  0  0
  -28.1074  -36.2683   24.6207 H   0  0  0  0  0  0
  -27.2305  -37.1366   25.8868 H   0  0  0  0  0  0
  -20.9331  -29.8968   21.7097 H   0  0  0  0  0  0
  -26.0202  -38.2886   24.1493 H   0  0  0  0  0  0
  -33.5795  -19.5750   20.8390 H   0  0  0  0  0  0
  -32.3335  -17.2630   20.4394 H   0  0  0  0  0  0
  -32.6500  -21.8935   22.0533 H   0  0  0  0  0  0
  -30.9600  -22.2548   21.9086 H   0  0  0  0  0  0
  -32.0306  -22.4442   20.5003 H   0  0  0  0  0  0
  -25.0860  -23.2721   21.2353 H   0  0  0  0  0  0
  -26.0996  -21.9068   20.7129 H   0  0  0  0  0  0
  -26.0685  -23.3881   19.7850 H   0  0  0  0  0  0
  -28.5563  -17.5043   20.3912 H   0  0  0  0  0  0
  -29.2907  -17.0228   21.8712 H   0  0  0  0  0  0
  -27.3660  -22.8882   22.4930 H   0  0  0  0  0  0
  -26.9595  -24.5109   21.9960 H   0  0  0  0  0  0
  -28.3388  -22.0155   19.2588 H   0  0  0  0  0  0
  -29.9484  -22.3336   19.6511 H   0  0  0  0  0  0
  -28.2007  -20.1192   20.5578 H   0  0  0  0  0  0
  -28.8555  -20.9032   21.9500 H   0  0  0  0  0  0
  -27.5558  -24.7363   19.1493 H   0  0  0  0  0  0
  -29.2150  -24.8490   19.1030 H   0  0  0  0  0  0
  -29.3101  -23.8742   21.5094 H   0  0  0  0  0  0
  -29.6391  -15.8711   19.1656 H   0  0  0  0  0  0
  1 25  1  0  0  0
  1 30  2  0  0  0
  1 84  1  0  0  0
  2  3  1  0  0  0
  2 25  1  0  0  0
  2 85  1  0  0  0
  2 86  1  0  0  0
  3  4  1  0  0  0
  3 87  1  0  0  0
  3 88  1  0  0  0
  4  5  1  0  0  0
  4 89  1  0  0  0
  4 90  1  0  0  0
  5  6  1  0  0  0
  5 26  1  0  0  0
  5 91  1  0  0  0
  6 25  1  0  0  0
  6 92  1  0  0  0
  6 93  1  0  0  0
  7  8  2  0  0  0
  7 26  1  0  0  0
  7 29  1  0  0  0
  8  9  1  0  0  0
  8 22  1  0  0  0
  9 10  1  0  0  0
  9 27  2  0  0  0
 10 11  2  0  0  0
 10 15  1  0  0  0
 11 12  1  0  0  0
 11 94  1  0  0  0
 12 13  2  0  0  0
 12 95  1  0  0  0
 13 14  1  0  0  0
 13 31  1  0  0  0
 14 15  2  0  0  0
 14 96  1  0  0  0
 15 97  1  0  0  0
 16 17  2  0  0  0
 16 21  1  0  0  0
 16 31  1  0  0  0
 17 18  1  0  0  0
 17 98  1  0  0  0
 18 19  2  0  0  0
 18 99  1  0  0  0
 19 20  1  0  0  0
 19 24  1  0  0  0
 20 21  2  0  0  0
 20100  1  0  0  0
 21 23  1  0  0  0
 22 28  1  0  0  0
 22 32  2  0  0  0
 26 27  1  0  0  0
 28101  1  0  0  0
 28102  1  0  0  0
 29103  1  0  0  0
 29104  1  0  0  0
 33 34  1  0  0  0
 33 66  1  0  0  0
 33 70  2  0  0  0
 34 36  1  0  0  0
 34 59  1  0  0  0
 34105  1  0  0  0
 35 44  2  0  0  0
 35 45  1  0  0  0
 35 68  1  0  0  0
 36 56  1  0  0  0
 36106  1  0  0  0
 37 39  1  0  0  0
 37 47  1  0  0  0
 37 66  1  0  0  0
 37107  1  0  0  0
 38 43  2  0  0  0
 38 46  1  0  0  0
 38 47  1  0  0  0
 39 64  1  0  0  0
 39 67  2  0  0  0
 40 52  1  0  0  0
 40 53  2  0  0  0
 40 58  1  0  0  0
 41108  1  0  0  0
 41109  1  0  0  0
 41110  1  0  0  0
 41 48  1  0  0  0
 42 43  1  0  0  0
 42 66  1  0  0  0
 42111  1  0  0  0
 42112  1  0  0  0
 43 44  1  0  0  0
 44113  1  0  0  0
 45 46  2  0  0  0
 45114  1  0  0  0
 46115  1  0  0  0
 47116  1  0  0  0
 47117  1  0  0  0
 48 56  1  0  0  0
 48 65  1  0  0  0
 48118  1  0  0  0
 49 50  1  0  0  0
 49 53  1  0  0  0
 49 64  1  0  0  0
 49119  1  0  0  0
 50 51  1  0  0  0
 50120  1  0  0  0
 50121  1  0  0  0
 51 52  1  0  0  0
 51122  1  0  0  0
 51123  1  0  0  0
 52124  1  0  0  0
 52125  1  0  0  0
 53 54  1  0  0  0
 54 55  2  0  0  0
 54126  1  0  0  0
 55 57  1  0  0  0
 55127  1  0  0  0
 56 69  2  0  0  0
 57 58  2  0  0  0
 57128  1  0  0  0
 58129  1  0  0  0
 59 60  1  0  0  0
 59 61  1  0  0  0
 59 62  1  0  0  0
 60130  1  0  0  0
 60131  1  0  0  0
 60132  1  0  0  0
 61133  1  0  0  0
 61134  1  0  0  0
 61135  1  0  0  0
 62136  1  0  0  0
 62137  1  0  0  0
 62138  1  0  0  0
 63 65  1  0  0  0
 63139  1  0  0  0
 63140  1  0  0  0
 63141  1  0  0  0
 64142  1  0  0  0
 65143  1  0  0  0
 68 81  1  0  0  0
 71 72  1  0  0  0
 71 73  2  0  0  0
 71144  1  0  0  0
 72 74  2  0  0  0
 72145  1  0  0  0
 73 75  1  0  0  0
 73 83  1  0  0  0
 74 77  1  0  0  0
 74 83  1  0  0  0
 75146  1  0  0  0
 75147  1  0  0  0
 75148  1  0  0  0
 76 78  1  0  0  0
 76149  1  0  0  0
 76150  1  0  0  0
 76151  1  0  0  0
 77 84  1  0  0  0
 77152  1  0  0  0
 77153  1  0  0  0
 78154  1  0  0  0
 78155  1  0  0  0
 78 82  1  0  0  0
 79 80  1  0  0  0
 79 82  1  0  0  0
 79156  1  0  0  0
 79157  1  0  0  0
 80 83  1  0  0  0
 80158  1  0  0  0
 80159  1  0  0  0
 81 82  1  0  0  0
 81160  1  0  0  0
 81161  1  0  0  0
 82162  1  0  0  0
 84163  1  0  0  0
M  ISO  4   1 100  68 101  81 101  84 100
M  END
> <chiral flag>
0

> <version>
0

> <s_m_source_file>
/data/baiqing/PycharmProjects/Reinvent-master-3.2/result/LINK_invent/BTK/process_docking_weight1_custom_sum_contain_oxygen_bond_distance_aromatic_linkinvent_7_9_3/rearranged_h_0129.sdf

> <i_m_source_file_index>
80

> <r_mmod_Potential_Energy-OPLS-2005>
303.969512939453

> <r_mmod_Stretch_Energy-OPLS-2005>
146.591522216797

> <r_mmod_Bend_Energy-OPLS-2005>
225.04670715332

> <r_mmod_Torsional_Energy-OPLS-2005>
315.067718505859

> <r_mmod_Improper_Torsional_Energy-OPLS-2005>
21.6160259246826

> <r_mmod_Van_der_Waal_Energy-OPLS-2005>
116.608200073242

> <r_mmod_Electrostatic_Energy-OPLS-2005>
-410.06884765625

> <r_mmod_Solvation_Energy-OPLS-2005>
-213.469573974609

> <b_mmod_Minimization_Converged-OPLS-2005>
0

> <r_mmod_RMS_Derivative-OPLS-2005>
8.95745277404785

$$$$
81
                    3D
 Structure written by MMmdl.
161169  0  0  1  0            999 V2000
  -30.7602  -14.3755   20.6757 C   0  0  0  0  0  0
  -30.4189  -12.2935   19.3957 C   0  0  0  0  0  0
  -29.4849  -12.5240   18.1928 C   0  0  0  0  0  0
  -28.0092  -12.3779   18.6099 C   0  0  0  0  0  0
  -27.6656  -13.2012   19.8790 C   0  0  2  0  0  0
  -28.7044  -12.9451   20.9939 C   0  0  0  0  0  0
  -25.2599  -13.8149   20.5667 C   0  0  0  0  0  0
  -24.1842  -13.0435   20.9164 C   0  0  0  0  0  0
  -24.6388  -11.6900   20.8726 C   0  0  0  0  0  0
  -23.9052  -10.4289   21.0402 C   0  0  0  0  0  0
  -24.3608   -9.4207   21.9179 C   0  0  0  0  0  0
  -23.6287   -8.2242   22.0751 C   0  0  0  0  0  0
  -22.4269   -8.0279   21.3544 C   0  0  0  0  0  0
  -21.9900   -9.0249   20.4646 C   0  0  0  0  0  0
  -22.7226  -10.2130   20.3051 C   0  0  0  0  0  0
  -21.6852   -6.0733   22.5279 C   0  0  0  0  0  0
  -21.4012   -6.5637   23.8212 C   0  0  0  0  0  0
  -21.3658   -5.6789   24.9174 C   0  0  0  0  0  0
  -21.6044   -4.3052   24.7224 C   0  0  0  0  0  0
  -21.8820   -3.8143   23.4346 C   0  0  0  0  0  0
  -21.9193   -4.6961   22.3403 C   0  0  0  0  0  0
  -22.7866  -13.5242   21.1835 C   0  0  0  0  0  0
  -22.1661   -4.2146   21.0981 F   0  0  0  0  0  0
  -21.5629   -3.4535   25.7737 F   0  0  0  0  0  0
  -30.0471  -13.2402   20.4572 N   0  0  0  0  0  0
  -26.3037  -12.9312   20.3371 N   0  0  0  0  0  0
  -25.9313  -11.6475   20.5757 N   0  0  0  0  0  0
  -22.0504  -12.8235   22.0392 N   0  0  0  0  0  0
  -25.4337  -15.1865   20.4080 N   0  0  0  0  0  0
  -31.7907  -14.6623   20.0593 O   0  0  0  0  0  0
  -21.6637   -6.8874   21.4240 O   0  0  0  0  0  0
  -22.3557  -14.5554   20.6694 O   0  0  0  0  0  0
  -24.6123  -31.8696   23.2123 C   0  0  0  0  0  0
  -25.9028  -32.4828   23.8404 C   0  0  1  0  0  0
  -27.2417  -27.4615   20.0682 C   0  0  0  0  0  0
  -25.5901  -33.8628   24.2335 N   0  0  0  0  0  0
  -23.3986  -30.4937   21.5524 C   0  0  2  0  0  0
  -24.8438  -28.9623   20.1149 C   0  0  0  0  0  0
  -22.7396  -29.4667   22.5003 C   0  0  0  0  0  0
  -18.0271  -28.1373   22.8491 C   0  0  0  0  0  0
  -24.1487  -36.7314   23.2638 C   0  0  0  0  0  0
  -25.9261  -30.8386   21.3643 C   0  0  0  0  0  0
  -26.0021  -29.4749   20.7109 C   0  0  0  0  0  0
  -27.1986  -28.7257   20.6963 C   0  0  0  0  0  0
  -26.0549  -26.9463   19.4957 C   0  0  0  0  0  0
  -24.8625  -27.6932   19.5122 C   0  0  0  0  0  0
  -23.6052  -29.8265   20.1664 C   0  0  0  0  0  0
  -25.4107  -36.3115   24.0340 C   0  0  1  0  0  0
  -20.5858  -28.3654   23.1329 C   0  0  2  0  0  0
  -20.6757  -26.9392   22.5429 C   0  0  0  0  0  0
  -19.5746  -26.6382   21.5213 C   0  0  0  0  0  0
  -18.1918  -26.7927   22.1609 C   0  0  0  0  0  0
  -19.1519  -28.8830   23.2908 C   0  0  0  0  0  0
  -18.9448  -30.1437   23.8915 C   0  0  0  0  0  0
  -17.6452  -30.6580   24.0565 C   0  0  0  0  0  0
  -25.9033  -34.9480   23.5131 C   0  0  0  0  0  0
  -16.5341  -29.9084   23.6326 C   0  0  0  0  0  0
  -16.7260  -28.6501   23.0345 C   0  0  0  0  0  0
  -26.4466  -31.6606   25.0726 C   0  0  0  0  0  0
  -25.3742  -31.3726   26.1487 C   0  0  0  0  0  0
  -27.0280  -30.3044   24.6093 C   0  0  0  0  0  0
  -27.6056  -32.4321   25.7472 C   0  0  0  0  0  0
  -27.5584  -37.1809   24.8460 C   0  0  0  0  0  0
  -21.4128  -29.3024   22.3738 N   0  0  0  0  0  0
  -26.4295  -37.3796   23.9410 N   0  0  0  0  0  0
  -24.6637  -31.0812   22.1016 N   0  0  0  0  0  0
  -23.4180  -28.8213   23.3040 O   0  0  0  0  0  0
  -28.4286  -26.7610   20.0793 O   0  0  0  0  0  0
  -26.5589  -34.8930   22.4688 O   0  0  0  0  0  0
  -23.5323  -32.1442   23.7532 O   0  0  0  0  0  0
  -29.4425  -20.7410   22.1267 C   0  0  0  0  0  0
  -28.9046  -21.9561   21.6619 C   0  0  0  0  0  0
  -30.6857  -22.1125   20.0181 C   0  0  0  0  0  0
  -30.6056  -20.1939   21.5428 C   0  0  0  0  0  0
  -31.2285  -20.8877   20.4722 C   0  0  0  0  0  0
  -29.5203  -22.6566   20.6070 C   0  0  0  0  0  0
  -32.4841  -20.3538   19.7994 C   0  0  0  0  0  0
  -31.1570  -18.8834   22.1058 C   0  0  0  0  0  0
  -29.6733  -24.8117   19.3548 C   0  0  0  0  0  0
  -28.7818  -25.9892   18.9285 C   0  0  0  0  0  0
  -30.8978  -16.4153   22.1132 C   0  0  0  0  0  0
  -28.9377  -23.8607   20.1834 N   0  0  0  0  0  0
  -30.2723  -15.1827   21.6258 N   0  0  0  0  0  0
  -30.5045  -17.7056   21.4970 N   0  3  0  0  0  0
  -31.4618  -12.3964   19.0902 H   0  0  0  0  0  0
  -30.3201  -11.2707   19.7631 H   0  0  0  0  0  0
  -29.7188  -11.8192   17.3937 H   0  0  0  0  0  0
  -29.6533  -13.5204   17.7811 H   0  0  0  0  0  0
  -27.8176  -11.3195   18.7916 H   0  0  0  0  0  0
  -27.3550  -12.6662   17.7862 H   0  0  0  0  0  0
  -27.7227  -14.2549   19.6048 H   0  0  0  0  0  0
  -28.6676  -11.9006   21.3077 H   0  0  0  0  0  0
  -28.4499  -13.5178   21.8858 H   0  0  0  0  0  0
  -25.2757   -9.5683   22.4747 H   0  0  0  0  0  0
  -24.0000   -7.4632   22.7468 H   0  0  0  0  0  0
  -21.0831   -8.8764   19.8954 H   0  0  0  0  0  0
  -22.3684  -10.9664   19.6156 H   0  0  0  0  0  0
  -21.2002   -7.6146   23.9714 H   0  0  0  0  0  0
  -21.1477   -6.0519   25.9077 H   0  0  0  0  0  0
  -22.0601   -2.7605   23.2845 H   0  0  0  0  0  0
  -22.4105  -11.9886   22.4769 H   0  0  0  0  0  0
  -21.1124  -13.1269   22.2599 H   0  0  0  0  0  0
  -24.6686  -15.8444   20.5120 H   0  0  0  0  0  0
  -26.2890  -15.6222   20.0861 H   0  0  0  0  0  0
  -26.7098  -32.5543   23.1170 H   0  0  0  0  0  0
  -25.0083  -33.9796   25.0501 H   0  0  0  0  0  0
  -22.6863  -31.3101   21.4153 H   0  0  0  0  0  0
  -23.3747  -35.9649   23.3315 H   0  0  0  0  0  0
  -24.3580  -36.8908   22.2048 H   0  0  0  0  0  0
  -23.7240  -37.6527   23.6636 H   0  0  0  0  0  0
  -26.0383  -31.6064   20.5976 H   0  0  0  0  0  0
  -26.8143  -30.8892   21.9823 H   0  0  0  0  0  0
  -28.0940  -29.1198   21.1562 H   0  0  0  0  0  0
  -26.0197  -25.9624   19.0533 H   0  0  0  0  0  0
  -23.9664  -27.2837   19.0663 H   0  0  0  0  0  0
  -23.7107  -30.6013   19.4061 H   0  0  0  0  0  0
  -22.7298  -29.2443   19.8726 H   0  0  0  0  0  0
  -25.1285  -36.1981   25.0834 H   0  0  0  0  0  0
  -20.9949  -28.3215   24.1450 H   0  0  0  0  0  0
  -20.5646  -26.2264   23.3613 H   0  0  0  0  0  0
  -21.6632  -26.7432   22.1230 H   0  0  0  0  0  0
  -19.6908  -25.6298   21.1230 H   0  0  0  0  0  0
  -19.6700  -27.3202   20.6752 H   0  0  0  0  0  0
  -17.4203  -26.6700   21.3991 H   0  0  0  0  0  0
  -18.0296  -26.0053   22.8984 H   0  0  0  0  0  0
  -19.7927  -30.7247   24.2290 H   0  0  0  0  0  0
  -17.5010  -31.6261   24.5165 H   0  0  0  0  0  0
  -15.5343  -30.2990   23.7643 H   0  0  0  0  0  0
  -15.8659  -28.0828   22.7046 H   0  0  0  0  0  0
  -24.5928  -30.7042   25.7854 H   0  0  0  0  0  0
  -24.8915  -32.2883   26.4909 H   0  0  0  0  0  0
  -25.8111  -30.8939   27.0259 H   0  0  0  0  0  0
  -26.2810  -29.6817   24.1154 H   0  0  0  0  0  0
  -27.4056  -29.7271   25.4543 H   0  0  0  0  0  0
  -27.8649  -30.4358   23.9228 H   0  0  0  0  0  0
  -27.2683  -33.3610   26.2085 H   0  0  0  0  0  0
  -28.3839  -32.6897   25.0276 H   0  0  0  0  0  0
  -28.0753  -31.8423   26.5355 H   0  0  0  0  0  0
  -28.2617  -38.0093   24.7496 H   0  0  0  0  0  0
  -28.1065  -36.2626   24.6291 H   0  0  0  0  0  0
  -27.2310  -37.1468   25.8867 H   0  0  0  0  0  0
  -20.9284  -29.8751   21.6968 H   0  0  0  0  0  0
  -26.0188  -38.2878   24.1409 H   0  0  0  0  0  0
  -28.9526  -20.2335   22.9465 H   0  0  0  0  0  0
  -28.0124  -22.3459   22.1319 H   0  0  0  0  0  0
  -31.1807  -22.6252   19.2064 H   0  0  0  0  0  0
  -32.7362  -20.9312   18.9091 H   0  0  0  0  0  0
  -32.3543  -19.3181   19.4857 H   0  0  0  0  0  0
  -33.3363  -20.4083   20.4776 H   0  0  0  0  0  0
  -30.9908  -18.8739   23.1842 H   0  0  0  0  0  0
  -32.2375  -18.8245   21.9724 H   0  0  0  0  0  0
  -30.5494  -25.1768   19.8930 H   0  0  0  0  0  0
  -30.0329  -24.3142   18.4533 H   0  0  0  0  0  0
  -27.9433  -25.6074   18.3502 H   0  0  0  0  0  0
  -29.3392  -26.6379   18.2518 H   0  0  0  0  0  0
  -31.9842  -16.3182   22.0531 H   0  0  0  0  0  0
  -30.6759  -16.4712   23.1802 H   0  0  0  0  0  0
  -28.1782  -24.2497   20.7367 H   0  0  0  0  0  0
  -29.4477  -14.8585   22.1084 H   0  0  0  0  0  0
  -30.7286  -17.6966   20.5163 H   0  0  0  0  0  0
  -29.5102  -17.8298   21.5880 H   0  0  0  0  0  0
  1 25  1  0  0  0
  1 30  2  0  0  0
  1 83  1  0  0  0
  2  3  1  0  0  0
  2 25  1  0  0  0
  2 85  1  0  0  0
  2 86  1  0  0  0
  3  4  1  0  0  0
  3 87  1  0  0  0
  3 88  1  0  0  0
  4  5  1  0  0  0
  4 89  1  0  0  0
  4 90  1  0  0  0
  5  6  1  0  0  0
  5 26  1  0  0  0
  5 91  1  0  0  0
  6 25  1  0  0  0
  6 92  1  0  0  0
  6 93  1  0  0  0
  7  8  2  0  0  0
  7 26  1  0  0  0
  7 29  1  0  0  0
  8  9  1  0  0  0
  8 22  1  0  0  0
  9 10  1  0  0  0
  9 27  2  0  0  0
 10 11  2  0  0  0
 10 15  1  0  0  0
 11 12  1  0  0  0
 11 94  1  0  0  0
 12 13  2  0  0  0
 12 95  1  0  0  0
 13 14  1  0  0  0
 13 31  1  0  0  0
 14 15  2  0  0  0
 14 96  1  0  0  0
 15 97  1  0  0  0
 16 17  2  0  0  0
 16 21  1  0  0  0
 16 31  1  0  0  0
 17 18  1  0  0  0
 17 98  1  0  0  0
 18 19  2  0  0  0
 18 99  1  0  0  0
 19 20  1  0  0  0
 19 24  1  0  0  0
 20 21  2  0  0  0
 20100  1  0  0  0
 21 23  1  0  0  0
 22 28  1  0  0  0
 22 32  2  0  0  0
 26 27  1  0  0  0
 28101  1  0  0  0
 28102  1  0  0  0
 29103  1  0  0  0
 29104  1  0  0  0
 33 34  1  0  0  0
 33 66  1  0  0  0
 33 70  2  0  0  0
 34 36  1  0  0  0
 34 59  1  0  0  0
 34105  1  0  0  0
 35 44  2  0  0  0
 35 45  1  0  0  0
 35 68  1  0  0  0
 36 56  1  0  0  0
 36106  1  0  0  0
 37 39  1  0  0  0
 37 47  1  0  0  0
 37 66  1  0  0  0
 37107  1  0  0  0
 38 43  2  0  0  0
 38 46  1  0  0  0
 38 47  1  0  0  0
 39 64  1  0  0  0
 39 67  2  0  0  0
 40 52  1  0  0  0
 40 53  2  0  0  0
 40 58  1  0  0  0
 41108  1  0  0  0
 41109  1  0  0  0
 41110  1  0  0  0
 41 48  1  0  0  0
 42 43  1  0  0  0
 42 66  1  0  0  0
 42111  1  0  0  0
 42112  1  0  0  0
 43 44  1  0  0  0
 44113  1  0  0  0
 45 46  2  0  0  0
 45114  1  0  0  0
 46115  1  0  0  0
 47116  1  0  0  0
 47117  1  0  0  0
 48 56  1  0  0  0
 48 65  1  0  0  0
 48118  1  0  0  0
 49 50  1  0  0  0
 49 53  1  0  0  0
 49 64  1  0  0  0
 49119  1  0  0  0
 50 51  1  0  0  0
 50120  1  0  0  0
 50121  1  0  0  0
 51 52  1  0  0  0
 51122  1  0  0  0
 51123  1  0  0  0
 52124  1  0  0  0
 52125  1  0  0  0
 53 54  1  0  0  0
 54 55  2  0  0  0
 54126  1  0  0  0
 55 57  1  0  0  0
 55127  1  0  0  0
 56 69  2  0  0  0
 57 58  2  0  0  0
 57128  1  0  0  0
 58129  1  0  0  0
 59 60  1  0  0  0
 59 61  1  0  0  0
 59 62  1  0  0  0
 60130  1  0  0  0
 60131  1  0  0  0
 60132  1  0  0  0
 61133  1  0  0  0
 61134  1  0  0  0
 61135  1  0  0  0
 62136  1  0  0  0
 62137  1  0  0  0
 62138  1  0  0  0
 63 65  1  0  0  0
 63139  1  0  0  0
 63140  1  0  0  0
 63141  1  0  0  0
 64142  1  0  0  0
 65143  1  0  0  0
 68 80  1  0  0  0
 71 72  2  0  0  0
 71 74  1  0  0  0
 71144  1  0  0  0
 72 76  1  0  0  0
 72145  1  0  0  0
 73 75  1  0  0  0
 73 76  2  0  0  0
 73146  1  0  0  0
 74 75  2  0  0  0
 74 78  1  0  0  0
 75 77  1  0  0  0
 76 82  1  0  0  0
 77147  1  0  0  0
 77148  1  0  0  0
 77149  1  0  0  0
 78 84  1  0  0  0
 78150  1  0  0  0
 78151  1  0  0  0
 79 80  1  0  0  0
 79 82  1  0  0  0
 79152  1  0  0  0
 79153  1  0  0  0
 80154  1  0  0  0
 80155  1  0  0  0
 81 83  1  0  0  0
 81 84  1  0  0  0
 81156  1  0  0  0
 81157  1  0  0  0
 82158  1  0  0  0
 83159  1  0  0  0
 84160  1  0  0  0
 84161  1  0  0  0
M  CHG  1  84   1
M  ISO  4   1 100  68 101  80 101  83 100
M  END
> <chiral flag>
0

> <version>
0

> <s_m_source_file>
/data/baiqing/PycharmProjects/Reinvent-master-3.2/result/LINK_invent/BTK/process_docking_weight1_custom_sum_contain_oxygen_bond_distance_aromatic_linkinvent_7_9_3/rearranged_h_0129.sdf

> <i_m_source_file_index>
81

> <r_mmod_Potential_Energy-OPLS-2005>
-330.630981445312

> <r_mmod_Stretch_Energy-OPLS-2005>
33.6296806335449

> <r_mmod_Bend_Energy-OPLS-2005>
101.740089416504

> <r_mmod_Torsional_Energy-OPLS-2005>
188.26887512207

> <r_mmod_Improper_Torsional_Energy-OPLS-2005>
3.3366277217865

> <r_mmod_Van_der_Waal_Energy-OPLS-2005>
157.859725952148

> <r_mmod_Electrostatic_Energy-OPLS-2005>
-340.700500488281

> <r_mmod_Solvation_Energy-OPLS-2005>
-482.330749511719

> <b_mmod_Minimization_Converged-OPLS-2005>
0

> <r_mmod_RMS_Derivative-OPLS-2005>
0.425285875797272

$$$$
82
                    3D
 Structure written by MMmdl.
156164  0  0  1  0            999 V2000
  -30.6662  -14.6846   20.4357 C   0  0  0  0  0  0
  -30.4202  -12.4175   19.4528 C   0  0  0  0  0  0
  -29.4952  -12.4874   18.2201 C   0  0  0  0  0  0
  -28.0247  -12.3206   18.6478 C   0  0  0  0  0  0
  -27.6404  -13.2306   19.8464 C   0  0  2  0  0  0
  -28.6935  -13.1820   20.9741 C   0  0  0  0  0  0
  -25.2528  -13.8199   20.5727 C   0  0  0  0  0  0
  -24.1812  -13.0444   20.9219 C   0  0  0  0  0  0
  -24.6401  -11.6920   20.8762 C   0  0  0  0  0  0
  -23.9080  -10.4294   21.0410 C   0  0  0  0  0  0
  -24.3631   -9.4209   21.9191 C   0  0  0  0  0  0
  -23.6307   -8.2242   22.0757 C   0  0  0  0  0  0
  -22.4291   -8.0283   21.3542 C   0  0  0  0  0  0
  -21.9925   -9.0256   20.4641 C   0  0  0  0  0  0
  -22.7250  -10.2140   20.3056 C   0  0  0  0  0  0
  -21.6850   -6.0742   22.5276 C   0  0  0  0  0  0
  -21.4011   -6.5647   23.8209 C   0  0  0  0  0  0
  -21.3665   -5.6800   24.9172 C   0  0  0  0  0  0
  -21.6043   -4.3061   24.7220 C   0  0  0  0  0  0
  -21.8823   -3.8154   23.4342 C   0  0  0  0  0  0
  -21.9193   -4.6969   22.3398 C   0  0  0  0  0  0
  -22.7830  -13.5224   21.1866 C   0  0  0  0  0  0
  -22.1663   -4.2156   21.0974 F   0  0  0  0  0  0
  -21.5633   -3.4544   25.7733 F   0  0  0  0  0  0
  -29.9906  -13.4943   20.3668 N   0  0  0  0  0  0
  -26.2946  -12.9402   20.3315 N   0  0  0  0  0  0
  -25.9329  -11.6545   20.5786 N   0  0  0  0  0  0
  -22.0489  -12.8193   22.0412 N   0  0  0  0  0  0
  -25.4241  -15.1916   20.4137 N   0  0  0  0  0  0
  -31.8785  -14.7179   20.2305 O   0  0  0  0  0  0
  -21.6648   -6.8886   21.4238 O   0  0  0  0  0  0
  -22.3507  -14.5528   20.6717 O   0  0  0  0  0  0
  -24.6292  -31.8592   23.2007 C   0  0  0  0  0  0
  -25.9130  -32.4768   23.8353 C   0  0  1  0  0  0
  -27.2145  -27.2862   20.1122 C   0  0  0  0  0  0
  -25.5928  -33.8572   24.2273 N   0  0  0  0  0  0
  -23.4238  -30.4856   21.5447 C   0  0  2  0  0  0
  -24.8672  -28.9393   20.1114 C   0  0  0  0  0  0
  -22.7489  -29.4641   22.4918 C   0  0  0  0  0  0
  -18.0294  -28.1404   22.8490 C   0  0  0  0  0  0
  -24.1494  -36.7299   23.2639 C   0  0  0  0  0  0
  -25.9702  -30.7773   21.3778 C   0  0  0  0  0  0
  -26.0407  -29.4037   20.7176 C   0  0  0  0  0  0
  -27.2183  -28.5910   20.7068 C   0  0  0  0  0  0
  -26.0116  -26.8879   19.4812 C   0  0  0  0  0  0
  -24.8558  -27.6866   19.4842 C   0  0  0  0  0  0
  -23.6386  -29.8243   20.1592 C   0  0  0  0  0  0
  -25.4118  -36.3084   24.0327 C   0  0  1  0  0  0
  -20.5891  -28.3734   23.1261 C   0  0  2  0  0  0
  -20.6785  -26.9447   22.5411 C   0  0  0  0  0  0
  -19.5741  -26.6378   21.5256 C   0  0  0  0  0  0
  -18.1929  -26.7923   22.1682 C   0  0  0  0  0  0
  -19.1540  -28.8892   23.2862 C   0  0  0  0  0  0
  -18.9455  -30.1493   23.8867 C   0  0  0  0  0  0
  -17.6440  -30.6598   24.0548 C   0  0  0  0  0  0
  -25.9061  -34.9448   23.5100 C   0  0  0  0  0  0
  -16.5341  -29.9085   23.6318 C   0  0  0  0  0  0
  -16.7273  -28.6505   23.0340 C   0  0  0  0  0  0
  -26.4493  -31.6576   25.0738 C   0  0  0  0  0  0
  -25.3716  -31.3716   26.1455 C   0  0  0  0  0  0
  -27.0335  -30.2993   24.6213 C   0  0  0  0  0  0
  -27.6042  -32.4318   25.7518 C   0  0  0  0  0  0
  -27.5583  -37.1807   24.8464 C   0  0  0  0  0  0
  -21.4194  -29.3086   22.3649 N   0  0  0  0  0  0
  -26.4295  -37.3775   23.9404 N   0  0  0  0  0  0
  -24.6938  -31.0589   22.0966 N   0  0  0  0  0  0
  -23.4197  -28.8189   23.3019 O   0  0  0  0  0  0
  -28.3104  -26.3948   20.1648 O   0  0  0  0  0  0
  -26.5644  -34.8913   22.4682 O   0  0  0  0  0  0
  -23.5446  -32.1403   23.7315 O   0  0  0  0  0  0
  -31.6451  -19.9816   20.1991 C   0  0  0  0  0  0
  -30.7893  -21.1012   20.2114 C   0  0  0  0  0  0
  -31.1469  -18.6728   20.3592 C   0  0  0  0  0  0
  -29.3952  -20.9553   20.3643 C   0  0  0  0  0  0
  -29.7690  -18.4283   20.5387 C   0  0  0  0  0  0
  -28.8942  -19.5945   20.5291 C   0  0  0  0  0  0
  -27.3935  -19.3713   20.6731 C   0  0  0  0  0  0
  -28.4824  -22.2556   20.3059 C   0  0  0  0  0  0
  -29.3199  -16.9252   20.8075 C   0  0  0  0  0  0
  -29.0683  -23.7596   20.3114 C   0  0  0  0  0  0
  -28.0222  -24.9355   19.9954 C   0  0  0  0  0  0
  -29.9879  -15.8118   20.0465 N   0  0  0  0  0  0
  -31.4614  -12.5226   19.1429 H   0  0  0  0  0  0
  -30.3444  -11.4458   19.9434 H   0  0  0  0  0  0
  -29.7626  -11.7143   17.4989 H   0  0  0  0  0  0
  -29.6240  -13.4434   17.7102 H   0  0  0  0  0  0
  -27.8840  -11.2736   18.9222 H   0  0  0  0  0  0
  -27.3609  -12.5063   17.8033 H   0  0  0  0  0  0
  -27.6303  -14.2500   19.4582 H   0  0  0  0  0  0
  -28.7198  -12.2003   21.4502 H   0  0  0  0  0  0
  -28.4520  -13.9068   21.7529 H   0  0  0  0  0  0
  -25.2776   -9.5686   22.4769 H   0  0  0  0  0  0
  -24.0013   -7.4631   22.7480 H   0  0  0  0  0  0
  -21.0860   -8.8780   19.8938 H   0  0  0  0  0  0
  -22.3713  -10.9690   19.6172 H   0  0  0  0  0  0
  -21.2001   -7.6155   23.9708 H   0  0  0  0  0  0
  -21.1483   -6.0534   25.9077 H   0  0  0  0  0  0
  -22.0598   -2.7616   23.2835 H   0  0  0  0  0  0
  -22.4138  -11.9848   22.4763 H   0  0  0  0  0  0
  -21.1107  -13.1194   22.2647 H   0  0  0  0  0  0
  -24.6583  -15.8487   20.5153 H   0  0  0  0  0  0
  -26.2759  -15.6207   20.0763 H   0  0  0  0  0  0
  -26.7207  -32.5413   23.1102 H   0  0  0  0  0  0
  -25.0039  -33.9710   25.0393 H   0  0  0  0  0  0
  -22.7200  -31.3084   21.4017 H   0  0  0  0  0  0
  -23.3746  -35.9642   23.3306 H   0  0  0  0  0  0
  -24.3580  -36.8921   22.2052 H   0  0  0  0  0  0
  -23.7257  -37.6502   23.6669 H   0  0  0  0  0  0
  -26.1105  -31.5383   20.6084 H   0  0  0  0  0  0
  -26.8474  -30.8214   22.0117 H   0  0  0  0  0  0
  -28.1154  -28.9428   21.1956 H   0  0  0  0  0  0
  -25.9209  -25.9333   18.9872 H   0  0  0  0  0  0
  -23.9563  -27.3247   19.0059 H   0  0  0  0  0  0
  -23.7631  -30.6021   19.4050 H   0  0  0  0  0  0
  -22.7562  -29.2583   19.8538 H   0  0  0  0  0  0
  -25.1296  -36.1936   25.0820 H   0  0  0  0  0  0
  -20.9975  -28.3336   24.1387 H   0  0  0  0  0  0
  -20.5749  -26.2350   23.3625 H   0  0  0  0  0  0
  -21.6632  -26.7494   22.1145 H   0  0  0  0  0  0
  -19.6904  -25.6273   21.1325 H   0  0  0  0  0  0
  -19.6645  -27.3168   20.6773 H   0  0  0  0  0  0
  -17.4180  -26.6634   21.4116 H   0  0  0  0  0  0
  -18.0338  -26.0108   22.9119 H   0  0  0  0  0  0
  -19.7922  -30.7330   24.2215 H   0  0  0  0  0  0
  -17.4979  -31.6276   24.5156 H   0  0  0  0  0  0
  -15.5336  -30.2971   23.7634 H   0  0  0  0  0  0
  -15.8685  -28.0812   22.7058 H   0  0  0  0  0  0
  -24.5909  -30.7041   25.7784 H   0  0  0  0  0  0
  -24.8887  -32.2879   26.4861 H   0  0  0  0  0  0
  -25.8034  -30.8916   27.0248 H   0  0  0  0  0  0
  -26.2914  -29.6749   24.1223 H   0  0  0  0  0  0
  -27.3994  -29.7240   25.4728 H   0  0  0  0  0  0
  -27.8806  -30.4260   23.9468 H   0  0  0  0  0  0
  -27.2642  -33.3621   26.2083 H   0  0  0  0  0  0
  -28.3861  -32.6871   25.0355 H   0  0  0  0  0  0
  -28.0705  -31.8457   26.5445 H   0  0  0  0  0  0
  -28.2594  -38.0105   24.7499 H   0  0  0  0  0  0
  -28.1079  -36.2633   24.6303 H   0  0  0  0  0  0
  -27.2302  -37.1474   25.8866 H   0  0  0  0  0  0
  -20.9380  -29.8802   21.6843 H   0  0  0  0  0  0
  -26.0175  -38.2853   24.1388 H   0  0  0  0  0  0
  -32.7093  -20.1323   20.0739 H   0  0  0  0  0  0
  -31.2246  -22.0823   20.0884 H   0  0  0  0  0  0
  -31.8451  -17.8476   20.3643 H   0  0  0  0  0  0
  -26.9694  -19.0799   19.7112 H   0  0  0  0  0  0
  -26.8598  -20.2556   21.0122 H   0  0  0  0  0  0
  -27.1713  -18.5890   21.3980 H   0  0  0  0  0  0
  -27.7960  -22.2066   21.1513 H   0  0  0  0  0  0
  -27.8635  -22.1441   19.4158 H   0  0  0  0  0  0
  -29.4340  -16.7294   21.8756 H   0  0  0  0  0  0
  -28.2560  -16.8217   20.6015 H   0  0  0  0  0  0
  -29.8712  -23.8392   19.5798 H   0  0  0  0  0  0
  -29.5238  -23.9429   21.2853 H   0  0  0  0  0  0
  -27.1356  -24.7100   20.5886 H   0  0  0  0  0  0
  -27.7365  -24.7906   18.9523 H   0  0  0  0  0  0
  -30.4976  -16.2250   19.2807 H   0  0  0  0  0  0
  1 25  1  0  0  0
  1 30  2  0  0  0
  1 82  1  0  0  0
  2  3  1  0  0  0
  2 25  1  0  0  0
  2 83  1  0  0  0
  2 84  1  0  0  0
  3  4  1  0  0  0
  3 85  1  0  0  0
  3 86  1  0  0  0
  4  5  1  0  0  0
  4 87  1  0  0  0
  4 88  1  0  0  0
  5  6  1  0  0  0
  5 26  1  0  0  0
  5 89  1  0  0  0
  6 25  1  0  0  0
  6 90  1  0  0  0
  6 91  1  0  0  0
  7  8  2  0  0  0
  7 26  1  0  0  0
  7 29  1  0  0  0
  8  9  1  0  0  0
  8 22  1  0  0  0
  9 10  1  0  0  0
  9 27  2  0  0  0
 10 11  2  0  0  0
 10 15  1  0  0  0
 11 12  1  0  0  0
 11 92  1  0  0  0
 12 13  2  0  0  0
 12 93  1  0  0  0
 13 14  1  0  0  0
 13 31  1  0  0  0
 14 15  2  0  0  0
 14 94  1  0  0  0
 15 95  1  0  0  0
 16 17  2  0  0  0
 16 21  1  0  0  0
 16 31  1  0  0  0
 17 18  1  0  0  0
 17 96  1  0  0  0
 18 19  2  0  0  0
 18 97  1  0  0  0
 19 20  1  0  0  0
 19 24  1  0  0  0
 20 21  2  0  0  0
 20 98  1  0  0  0
 21 23  1  0  0  0
 22 28  1  0  0  0
 22 32  2  0  0  0
 26 27  1  0  0  0
 28 99  1  0  0  0
 28100  1  0  0  0
 29101  1  0  0  0
 29102  1  0  0  0
 33 34  1  0  0  0
 33 66  1  0  0  0
 33 70  2  0  0  0
 34 36  1  0  0  0
 34 59  1  0  0  0
 34103  1  0  0  0
 35 44  2  0  0  0
 35 45  1  0  0  0
 35 68  1  0  0  0
 36 56  1  0  0  0
 36104  1  0  0  0
 37 39  1  0  0  0
 37 47  1  0  0  0
 37 66  1  0  0  0
 37105  1  0  0  0
 38 43  2  0  0  0
 38 46  1  0  0  0
 38 47  1  0  0  0
 39 64  1  0  0  0
 39 67  2  0  0  0
 40 52  1  0  0  0
 40 53  2  0  0  0
 40 58  1  0  0  0
 41106  1  0  0  0
 41107  1  0  0  0
 41108  1  0  0  0
 41 48  1  0  0  0
 42 43  1  0  0  0
 42 66  1  0  0  0
 42109  1  0  0  0
 42110  1  0  0  0
 43 44  1  0  0  0
 44111  1  0  0  0
 45 46  2  0  0  0
 45112  1  0  0  0
 46113  1  0  0  0
 47114  1  0  0  0
 47115  1  0  0  0
 48 56  1  0  0  0
 48 65  1  0  0  0
 48116  1  0  0  0
 49 50  1  0  0  0
 49 53  1  0  0  0
 49 64  1  0  0  0
 49117  1  0  0  0
 50 51  1  0  0  0
 50118  1  0  0  0
 50119  1  0  0  0
 51 52  1  0  0  0
 51120  1  0  0  0
 51121  1  0  0  0
 52122  1  0  0  0
 52123  1  0  0  0
 53 54  1  0  0  0
 54 55  2  0  0  0
 54124  1  0  0  0
 55 57  1  0  0  0
 55125  1  0  0  0
 56 69  2  0  0  0
 57 58  2  0  0  0
 57126  1  0  0  0
 58127  1  0  0  0
 59 60  1  0  0  0
 59 61  1  0  0  0
 59 62  1  0  0  0
 60128  1  0  0  0
 60129  1  0  0  0
 60130  1  0  0  0
 61131  1  0  0  0
 61132  1  0  0  0
 61133  1  0  0  0
 62134  1  0  0  0
 62135  1  0  0  0
 62136  1  0  0  0
 63 65  1  0  0  0
 63137  1  0  0  0
 63138  1  0  0  0
 63139  1  0  0  0
 64140  1  0  0  0
 65141  1  0  0  0
 68 81  1  0  0  0
 71 72  2  0  0  0
 71 73  1  0  0  0
 71142  1  0  0  0
 72 74  1  0  0  0
 72143  1  0  0  0
 73 75  2  0  0  0
 73144  1  0  0  0
 74 76  2  0  0  0
 74 78  1  0  0  0
 75 76  1  0  0  0
 75 79  1  0  0  0
 76 77  1  0  0  0
 77145  1  0  0  0
 77146  1  0  0  0
 77147  1  0  0  0
 78 80  1  0  0  0
 78148  1  0  0  0
 78149  1  0  0  0
 79 82  1  0  0  0
 79150  1  0  0  0
 79151  1  0  0  0
 80 81  1  0  0  0
 80152  1  0  0  0
 80153  1  0  0  0
 81154  1  0  0  0
 81155  1  0  0  0
 82156  1  0  0  0
M  ISO  4   1 100  68 101  81 101  82 100
M  END
> <chiral flag>
0

> <version>
0

> <s_m_source_file>
/data/baiqing/PycharmProjects/Reinvent-master-3.2/result/LINK_invent/BTK/process_docking_weight1_custom_sum_contain_oxygen_bond_distance_aromatic_linkinvent_7_9_3/rearranged_h_0129.sdf

> <i_m_source_file_index>
82

> <r_mmod_Potential_Energy-OPLS-2005>
149.485687255859

> <r_mmod_Stretch_Energy-OPLS-2005>
103.794082641602

> <r_mmod_Bend_Energy-OPLS-2005>
165.6103515625

> <r_mmod_Torsional_Energy-OPLS-2005>
265.608947753906

> <r_mmod_Improper_Torsional_Energy-OPLS-2005>
29.2348709106445

> <r_mmod_Van_der_Waal_Energy-OPLS-2005>
140.82942199707

> <r_mmod_Electrostatic_Energy-OPLS-2005>
-428.038696289062

> <r_mmod_Solvation_Energy-OPLS-2005>
-201.494522094727

> <b_mmod_Minimization_Converged-OPLS-2005>
0

> <r_mmod_RMS_Derivative-OPLS-2005>
1.96790480613708

$$$$
83
                    3D
 Structure written by MMmdl.
169178  0  0  1  0            999 V2000
  -30.6319  -14.5495   20.4599 C   0  0  0  0  0  0
  -30.4164  -12.3221   19.4351 C   0  0  0  0  0  0
  -29.4915  -12.4819   18.2085 C   0  0  0  0  0  0
  -28.0105  -12.3404   18.6185 C   0  0  0  0  0  0
  -27.6464  -13.2008   19.8581 C   0  0  2  0  0  0
  -28.6913  -13.0362   20.9882 C   0  0  0  0  0  0
  -25.2557  -13.8154   20.5619 C   0  0  0  0  0  0
  -24.1821  -13.0440   20.9148 C   0  0  0  0  0  0
  -24.6362  -11.6885   20.8720 C   0  0  0  0  0  0
  -23.9011  -10.4290   21.0395 C   0  0  0  0  0  0
  -24.3589   -9.4224   21.9185 C   0  0  0  0  0  0
  -23.6279   -8.2252   22.0800 C   0  0  0  0  0  0
  -22.4265   -8.0281   21.3574 C   0  0  0  0  0  0
  -21.9847   -9.0230   20.4660 C   0  0  0  0  0  0
  -22.7166  -10.2119   20.3055 C   0  0  0  0  0  0
  -21.6873   -6.0708   22.5246 C   0  0  0  0  0  0
  -21.4003   -6.5615   23.8162 C   0  0  0  0  0  0
  -21.3675   -5.6778   24.9136 C   0  0  0  0  0  0
  -21.6059   -4.3047   24.7203 C   0  0  0  0  0  0
  -21.8836   -3.8121   23.4336 C   0  0  0  0  0  0
  -21.9206   -4.6933   22.3377 C   0  0  0  0  0  0
  -22.7858  -13.5224   21.1821 C   0  0  0  0  0  0
  -22.1687   -4.2109   21.0967 F   0  0  0  0  0  0
  -21.5641   -3.4543   25.7724 F   0  0  0  0  0  0
  -30.0123  -13.3382   20.4218 N   0  0  0  0  0  0
  -26.2935  -12.9286   20.3271 N   0  0  0  0  0  0
  -25.9277  -11.6464   20.5736 N   0  0  0  0  0  0
  -22.0538  -12.8239   22.0409 N   0  0  0  0  0  0
  -25.4343  -15.1875   20.3976 N   0  0  0  0  0  0
  -31.8185  -14.6805   20.1537 O   0  0  0  0  0  0
  -21.6684   -6.8855   21.4210 O   0  0  0  0  0  0
  -22.3534  -14.5520   20.6632 O   0  0  0  0  0  0
  -24.6223  -31.8649   23.2067 C   0  0  0  0  0  0
  -25.9092  -32.4805   23.8384 C   0  0  1  0  0  0
  -27.2210  -27.3767   20.1053 C   0  0  0  0  0  0
  -25.5922  -33.8598   24.2313 N   0  0  0  0  0  0
  -23.4115  -30.4921   21.5488 C   0  0  2  0  0  0
  -24.8550  -28.9571   20.1106 C   0  0  0  0  0  0
  -22.7443  -29.4662   22.4953 C   0  0  0  0  0  0
  -18.0279  -28.1384   22.8493 C   0  0  0  0  0  0
  -24.1491  -36.7308   23.2640 C   0  0  0  0  0  0
  -25.9481  -30.8152   21.3685 C   0  0  0  0  0  0
  -26.0225  -29.4473   20.7101 C   0  0  0  0  0  0
  -27.2096  -28.6677   20.6982 C   0  0  0  0  0  0
  -26.0313  -26.9255   19.4858 C   0  0  0  0  0  0
  -24.8596  -27.7003   19.4910 C   0  0  0  0  0  0
  -23.6218  -29.8301   20.1623 C   0  0  0  0  0  0
  -25.4110  -36.3105   24.0337 C   0  0  1  0  0  0
  -20.5877  -28.3686   23.1294 C   0  0  2  0  0  0
  -20.6775  -26.9413   22.5412 C   0  0  0  0  0  0
  -19.5750  -26.6390   21.5215 C   0  0  0  0  0  0
  -18.1928  -26.7931   22.1627 C   0  0  0  0  0  0
  -19.1531  -28.8851   23.2895 C   0  0  0  0  0  0
  -18.9450  -30.1451   23.8913 C   0  0  0  0  0  0
  -17.6453  -30.6588   24.0573 C   0  0  0  0  0  0
  -25.9040  -34.9467   23.5123 C   0  0  0  0  0  0
  -16.5344  -29.9090   23.6323 C   0  0  0  0  0  0
  -16.7270  -28.6508   23.0342 C   0  0  0  0  0  0
  -26.4493  -31.6570   25.0713 C   0  0  0  0  0  0
  -25.3739  -31.3690   26.1449 C   0  0  0  0  0  0
  -27.0329  -30.3002   24.6114 C   0  0  0  0  0  0
  -27.6059  -32.4297   25.7481 C   0  0  0  0  0  0
  -27.5580  -37.1813   24.8466 C   0  0  0  0  0  0
  -21.4167  -29.3059   22.3699 N   0  0  0  0  0  0
  -26.4299  -37.3787   23.9411 N   0  0  0  0  0  0
  -24.6790  -31.0718   22.0990 N   0  0  0  0  0  0
  -23.4196  -28.8194   23.3010 O   0  0  0  0  0  0
  -28.3632  -26.5811   20.1329 O   0  0  0  0  0  0
  -26.5599  -34.8929   22.4684 O   0  0  0  0  0  0
  -23.5398  -32.1421   23.7428 O   0  0  0  0  0  0
  -31.7669  -24.0187   19.6380 C   0  0  0  0  0  0
  -30.6203  -24.8143   19.7428 C   0  0  0  0  0  0
  -29.3819  -22.8659   20.5463 C   0  0  0  0  0  0
  -31.7381  -22.6530   19.9850 C   0  0  0  0  0  0
  -30.5361  -22.0243   20.4355 C   0  0  0  0  0  0
  -29.4148  -24.2567   20.2026 C   0  0  0  0  0  0
  -33.0592  -21.9111   19.8985 C   0  0  0  0  0  0
  -33.1317  -20.7509   20.8806 C   0  0  0  0  0  0
  -31.9376  -19.8461   20.6205 C   0  0  0  0  0  0
  -30.5606  -20.5130   20.8894 C   0  0  2  0  0  0
  -31.0481  -17.1848   19.0033 C   0  0  0  0  0  0
  -28.9181  -19.8265   19.0753 C   0  0  0  0  0  0
  -28.1557  -25.1389   20.2387 C   0  0  0  0  0  0
  -29.5088  -18.1525   20.9271 C   0  0  0  0  0  0
  -29.8175  -16.9733   19.9122 C   0  0  2  0  0  0
  -29.7829  -15.6133   20.5566 N   0  0  0  0  0  0
  -29.4397  -19.5989   20.4465 N   0  3  1  0  0  0
  -31.4617  -12.4211   19.1334 H   0  0  0  0  0  0
  -30.3258  -11.3196   19.8556 H   0  0  0  0  0  0
  -29.7320  -11.7338   17.4521 H   0  0  0  0  0  0
  -29.6634  -13.4543   17.7444 H   0  0  0  0  0  0
  -27.8275  -11.2853   18.8262 H   0  0  0  0  0  0
  -27.3572  -12.5939   17.7806 H   0  0  0  0  0  0
  -27.6612  -14.2334   19.5125 H   0  0  0  0  0  0
  -28.6789  -12.0155   21.3690 H   0  0  0  0  0  0
  -28.4621  -13.6748   21.8427 H   0  0  0  0  0  0
  -25.2763   -9.5706   22.4706 H   0  0  0  0  0  0
  -24.0021   -7.4641   22.7507 H   0  0  0  0  0  0
  -21.0797   -8.8672   19.8928 H   0  0  0  0  0  0
  -22.3615  -10.9635   19.6122 H   0  0  0  0  0  0
  -21.1994   -7.6118   23.9620 H   0  0  0  0  0  0
  -21.1491   -6.0541   25.9025 H   0  0  0  0  0  0
  -22.0617   -2.7584   23.2831 H   0  0  0  0  0  0
  -22.4186  -11.9885   22.4726 H   0  0  0  0  0  0
  -21.1123  -13.1197   22.2591 H   0  0  0  0  0  0
  -24.6637  -15.8411   20.4810 H   0  0  0  0  0  0
  -26.2758  -15.6140   20.0310 H   0  0  0  0  0  0
  -26.7164  -32.5503   23.1144 H   0  0  0  0  0  0
  -25.0092  -33.9752   25.0476 H   0  0  0  0  0  0
  -22.7038  -31.3121   21.4096 H   0  0  0  0  0  0
  -23.3745  -35.9647   23.3307 H   0  0  0  0  0  0
  -24.3593  -36.8915   22.2053 H   0  0  0  0  0  0
  -23.7240  -37.6518   23.6642 H   0  0  0  0  0  0
  -26.0678  -31.5822   20.6030 H   0  0  0  0  0  0
  -26.8339  -30.8659   21.9895 H   0  0  0  0  0  0
  -28.1095  -29.0398   21.1682 H   0  0  0  0  0  0
  -25.9724  -25.9753   18.9787 H   0  0  0  0  0  0
  -23.9657  -27.3220   19.0122 H   0  0  0  0  0  0
  -23.7361  -30.6078   19.4066 H   0  0  0  0  0  0
  -22.7438  -29.2557   19.8623 H   0  0  0  0  0  0
  -25.1284  -36.1974   25.0827 H   0  0  0  0  0  0
  -20.9971  -28.3262   24.1415 H   0  0  0  0  0  0
  -20.5693  -26.2294   23.3607 H   0  0  0  0  0  0
  -21.6643  -26.7466   22.1196 H   0  0  0  0  0  0
  -19.6914  -25.6302   21.1241 H   0  0  0  0  0  0
  -19.6685  -27.3205   20.6747 H   0  0  0  0  0  0
  -17.4199  -26.6681   21.4027 H   0  0  0  0  0  0
  -18.0327  -26.0066   22.9017 H   0  0  0  0  0  0
  -19.7920  -30.7264   24.2297 H   0  0  0  0  0  0
  -17.5001  -31.6271   24.5164 H   0  0  0  0  0  0
  -15.5345  -30.3003   23.7625 H   0  0  0  0  0  0
  -15.8669  -28.0839   22.7035 H   0  0  0  0  0  0
  -24.5920  -30.7031   25.7777 H   0  0  0  0  0  0
  -24.8929  -32.2850   26.4889 H   0  0  0  0  0  0
  -25.8089  -30.8862   27.0209 H   0  0  0  0  0  0
  -26.2886  -29.6752   24.1165 H   0  0  0  0  0  0
  -27.4076  -29.7254   25.4594 H   0  0  0  0  0  0
  -27.8733  -30.4304   23.9290 H   0  0  0  0  0  0
  -27.2665  -33.3591   26.2071 H   0  0  0  0  0  0
  -28.3864  -32.6863   25.0301 H   0  0  0  0  0  0
  -28.0725  -31.8405   26.5389 H   0  0  0  0  0  0
  -28.2605  -38.0106   24.7512 H   0  0  0  0  0  0
  -28.1076  -36.2637   24.6293 H   0  0  0  0  0  0
  -27.2306  -37.1464   25.8874 H   0  0  0  0  0  0
  -20.9315  -29.8801   21.6938 H   0  0  0  0  0  0
  -26.0187  -38.2874   24.1386 H   0  0  0  0  0  0
  -32.6854  -24.4759   19.2973 H   0  0  0  0  0  0
  -30.6715  -25.8562   19.4597 H   0  0  0  0  0  0
  -28.4493  -22.4502   20.8962 H   0  0  0  0  0  0
  -33.8871  -22.5990   20.0776 H   0  0  0  0  0  0
  -33.1764  -21.5482   18.8755 H   0  0  0  0  0  0
  -33.1305  -21.0958   21.9158 H   0  0  0  0  0  0
  -34.0670  -20.2065   20.7367 H   0  0  0  0  0  0
  -32.0743  -18.9279   21.1886 H   0  0  0  0  0  0
  -31.9909  -19.5830   19.5676 H   0  0  0  0  0  0
  -30.4623  -20.5638   21.9752 H   0  0  0  0  0  0
  -30.9663  -18.0775   18.3893 H   0  0  0  0  0  0
  -31.1628  -16.3680   18.2919 H   0  0  0  0  0  0
  -31.9721  -17.2421   19.5780 H   0  0  0  0  0  0
  -28.4322  -20.7995   19.0155 H   0  0  0  0  0  0
  -28.1604  -19.0916   18.8030 H   0  0  0  0  0  0
  -29.7019  -19.8210   18.3199 H   0  0  0  0  0  0
  -27.6002  -24.9204   21.1521 H   0  0  0  0  0  0
  -27.5671  -24.7678   19.4024 H   0  0  0  0  0  0
  -28.5272  -17.9397   21.3502 H   0  0  0  0  0  0
  -30.1663  -18.0862   21.7913 H   0  0  0  0  0  0
  -28.9678  -16.9394   19.2271 H   0  0  0  0  0  0
  -28.8740  -15.3452   20.9044 H   0  0  0  0  0  0
  -28.6778  -19.9497   21.0091 H   0  0  0  0  0  0
  1 25  1  0  0  0
  1 30  2  0  0  0
  1 86  1  0  0  0
  2  3  1  0  0  0
  2 25  1  0  0  0
  2 88  1  0  0  0
  2 89  1  0  0  0
  3  4  1  0  0  0
  3 90  1  0  0  0
  3 91  1  0  0  0
  4  5  1  0  0  0
  4 92  1  0  0  0
  4 93  1  0  0  0
  5  6  1  0  0  0
  5 26  1  0  0  0
  5 94  1  0  0  0
  6 25  1  0  0  0
  6 95  1  0  0  0
  6 96  1  0  0  0
  7  8  2  0  0  0
  7 26  1  0  0  0
  7 29  1  0  0  0
  8  9  1  0  0  0
  8 22  1  0  0  0
  9 10  1  0  0  0
  9 27  2  0  0  0
 10 11  2  0  0  0
 10 15  1  0  0  0
 11 12  1  0  0  0
 11 97  1  0  0  0
 12 13  2  0  0  0
 12 98  1  0  0  0
 13 14  1  0  0  0
 13 31  1  0  0  0
 14 15  2  0  0  0
 14 99  1  0  0  0
 15100  1  0  0  0
 16 17  2  0  0  0
 16 21  1  0  0  0
 16 31  1  0  0  0
 17 18  1  0  0  0
 17101  1  0  0  0
 18 19  2  0  0  0
 18102  1  0  0  0
 19 20  1  0  0  0
 19 24  1  0  0  0
 20 21  2  0  0  0
 20103  1  0  0  0
 21 23  1  0  0  0
 22 28  1  0  0  0
 22 32  2  0  0  0
 26 27  1  0  0  0
 28104  1  0  0  0
 28105  1  0  0  0
 29106  1  0  0  0
 29107  1  0  0  0
 33 34  1  0  0  0
 33 66  1  0  0  0
 33 70  2  0  0  0
 34 36  1  0  0  0
 34 59  1  0  0  0
 34108  1  0  0  0
 35 44  2  0  0  0
 35 45  1  0  0  0
 35 68  1  0  0  0
 36 56  1  0  0  0
 36109  1  0  0  0
 37 39  1  0  0  0
 37 47  1  0  0  0
 37 66  1  0  0  0
 37110  1  0  0  0
 38 43  2  0  0  0
 38 46  1  0  0  0
 38 47  1  0  0  0
 39 64  1  0  0  0
 39 67  2  0  0  0
 40 52  1  0  0  0
 40 53  2  0  0  0
 40 58  1  0  0  0
 41111  1  0  0  0
 41112  1  0  0  0
 41113  1  0  0  0
 41 48  1  0  0  0
 42 43  1  0  0  0
 42 66  1  0  0  0
 42114  1  0  0  0
 42115  1  0  0  0
 43 44  1  0  0  0
 44116  1  0  0  0
 45 46  2  0  0  0
 45117  1  0  0  0
 46118  1  0  0  0
 47119  1  0  0  0
 47120  1  0  0  0
 48 56  1  0  0  0
 48 65  1  0  0  0
 48121  1  0  0  0
 49 50  1  0  0  0
 49 53  1  0  0  0
 49 64  1  0  0  0
 49122  1  0  0  0
 50 51  1  0  0  0
 50123  1  0  0  0
 50124  1  0  0  0
 51 52  1  0  0  0
 51125  1  0  0  0
 51126  1  0  0  0
 52127  1  0  0  0
 52128  1  0  0  0
 53 54  1  0  0  0
 54 55  2  0  0  0
 54129  1  0  0  0
 55 57  1  0  0  0
 55130  1  0  0  0
 56 69  2  0  0  0
 57 58  2  0  0  0
 57131  1  0  0  0
 58132  1  0  0  0
 59 60  1  0  0  0
 59 61  1  0  0  0
 59 62  1  0  0  0
 60133  1  0  0  0
 60134  1  0  0  0
 60135  1  0  0  0
 61136  1  0  0  0
 61137  1  0  0  0
 61138  1  0  0  0
 62139  1  0  0  0
 62140  1  0  0  0
 62141  1  0  0  0
 63 65  1  0  0  0
 63142  1  0  0  0
 63143  1  0  0  0
 63144  1  0  0  0
 64145  1  0  0  0
 65146  1  0  0  0
 68 83  1  0  0  0
 71 72  2  0  0  0
 71 74  1  0  0  0
 71147  1  0  0  0
 72 76  1  0  0  0
 72148  1  0  0  0
 73 75  1  0  0  0
 73 76  2  0  0  0
 73149  1  0  0  0
 74 75  2  0  0  0
 74 77  1  0  0  0
 75 80  1  0  0  0
 76 83  1  0  0  0
 77 78  1  0  0  0
 77150  1  0  0  0
 77151  1  0  0  0
 78 79  1  0  0  0
 78152  1  0  0  0
 78153  1  0  0  0
 79154  1  0  0  0
 79155  1  0  0  0
 79 80  1  0  0  0
 80 87  1  0  0  0
 80156  1  0  0  0
 81157  1  0  0  0
 81158  1  0  0  0
 81159  1  0  0  0
 81 85  1  0  0  0
 82160  1  0  0  0
 82161  1  0  0  0
 82162  1  0  0  0
 82 87  1  0  0  0
 83163  1  0  0  0
 83164  1  0  0  0
 84 85  1  0  0  0
 84 87  1  0  0  0
 84165  1  0  0  0
 84166  1  0  0  0
 85 86  1  0  0  0
 85167  1  0  0  0
 86168  1  0  0  0
 87169  1  0  0  0
M  CHG  1  87   1
M  ISO  4   1 100  68 101  83 101  86 100
M  END
> <chiral flag>
0

> <version>
0

> <s_m_source_file>
/data/baiqing/PycharmProjects/Reinvent-master-3.2/result/LINK_invent/BTK/process_docking_weight1_custom_sum_contain_oxygen_bond_distance_aromatic_linkinvent_7_9_3/rearranged_h_0129.sdf

> <i_m_source_file_index>
83

> <r_mmod_Potential_Energy-OPLS-2005>
-45.3278503417969

> <r_mmod_Stretch_Energy-OPLS-2005>
67.4903411865234

> <r_mmod_Bend_Energy-OPLS-2005>
146.17301940918

> <r_mmod_Torsional_Energy-OPLS-2005>
253.898193359375

> <r_mmod_Improper_Torsional_Energy-OPLS-2005>
9.19571781158447

> <r_mmod_Van_der_Waal_Energy-OPLS-2005>
166.993743896484

> <r_mmod_Electrostatic_Energy-OPLS-2005>
-261.953216552734

> <r_mmod_Solvation_Energy-OPLS-2005>
-456.334442138672

> <b_mmod_Minimization_Converged-OPLS-2005>
0

> <r_mmod_RMS_Derivative-OPLS-2005>
3.78413724899292

$$$$
84
                    3D
 Structure written by MMmdl.
160169  0  0  1  0            999 V2000
  -30.4721  -15.1992   20.3782 C   0  0  0  0  0  0
  -30.4368  -12.7624   19.5207 C   0  0  0  0  0  0
  -29.5309  -12.5645   18.2806 C   0  0  0  0  0  0
  -28.0761  -12.3026   18.7074 C   0  0  0  0  0  0
  -27.6142  -13.2713   19.8254 C   0  0  2  0  0  0
  -28.6504  -13.4230   20.9593 C   0  0  0  0  0  0
  -25.2399  -13.8247   20.5745 C   0  0  0  0  0  0
  -24.1747  -13.0439   20.9256 C   0  0  0  0  0  0
  -24.6398  -11.6934   20.8766 C   0  0  0  0  0  0
  -23.9092  -10.4294   21.0408 C   0  0  0  0  0  0
  -24.3637   -9.4207   21.9186 C   0  0  0  0  0  0
  -23.6305   -8.2245   22.0755 C   0  0  0  0  0  0
  -22.4286   -8.0285   21.3545 C   0  0  0  0  0  0
  -21.9928   -9.0260   20.4646 C   0  0  0  0  0  0
  -22.7264  -10.2136   20.3056 C   0  0  0  0  0  0
  -21.6855   -6.0740   22.5279 C   0  0  0  0  0  0
  -21.4016   -6.5642   23.8214 C   0  0  0  0  0  0
  -21.3659   -5.6793   24.9174 C   0  0  0  0  0  0
  -21.6043   -4.3056   24.7224 C   0  0  0  0  0  0
  -21.8819   -3.8149   23.4344 C   0  0  0  0  0  0
  -21.9194   -4.6967   22.3401 C   0  0  0  0  0  0
  -22.7764  -13.5192   21.1902 C   0  0  0  0  0  0
  -22.1662   -4.2152   21.0979 F   0  0  0  0  0  0
  -21.5627   -3.4540   25.7736 F   0  0  0  0  0  0
  -29.8910  -13.9062   20.3347 N   0  0  0  0  0  0
  -26.2825  -12.9516   20.3230 N   0  0  0  0  0  0
  -25.9334  -11.6623   20.5733 N   0  0  0  0  0  0
  -22.0422  -12.8172   22.0455 N   0  0  0  0  0  0
  -25.4031  -15.1980   20.4172 N   0  0  0  0  0  0
  -31.6914  -15.1958   20.1616 O   0  0  0  0  0  0
  -21.6646   -6.8885   21.4242 O   0  0  0  0  0  0
  -22.3442  -14.5493   20.6742 O   0  0  0  0  0  0
  -24.6599  -31.8277   23.1753 C   0  0  0  0  0  0
  -25.9297  -32.4609   23.8200 C   0  0  1  0  0  0
  -27.2122  -26.9622   20.1804 C   0  0  0  0  0  0
  -25.5983  -33.8422   24.2108 N   0  0  0  0  0  0
  -23.4728  -30.4421   21.5239 C   0  0  2  0  0  0
  -24.9258  -28.8402   20.1124 C   0  0  0  0  0  0
  -22.7656  -29.4460   22.4797 C   0  0  0  0  0  0
  -18.0322  -28.1408   22.8471 C   0  0  0  0  0  0
  -24.1488  -36.7208   23.2647 C   0  0  0  0  0  0
  -26.0412  -30.6450   21.4024 C   0  0  0  0  0  0
  -26.1093  -29.2389   20.7467 C   0  0  0  0  0  0
  -27.2501  -28.3206   20.7584 C   0  0  0  0  0  0
  -26.0063  -26.7199   19.4831 C   0  0  0  0  0  0
  -24.8978  -27.5996   19.4604 C   0  0  0  0  0  0
  -23.7107  -29.7635   20.1481 C   0  0  0  0  0  0
  -25.4128  -36.2977   24.0306 C   0  0  1  0  0  0
  -20.5947  -28.3745   23.1196 C   0  0  2  0  0  0
  -20.6802  -26.9431   22.5401 C   0  0  0  0  0  0
  -19.5773  -26.6376   21.5215 C   0  0  0  0  0  0
  -18.1954  -26.7943   22.1622 C   0  0  0  0  0  0
  -19.1584  -28.8898   23.2822 C   0  0  0  0  0  0
  -18.9495  -30.1490   23.8855 C   0  0  0  0  0  0
  -17.6488  -30.6599   24.0555 C   0  0  0  0  0  0
  -25.9093  -34.9359   23.5022 C   0  0  0  0  0  0
  -16.5377  -29.9087   23.6344 C   0  0  0  0  0  0
  -16.7304  -28.6506   23.0366 C   0  0  0  0  0  0
  -26.4559  -31.6539   25.0711 C   0  0  0  0  0  0
  -25.3694  -31.3782   26.1374 C   0  0  0  0  0  0
  -27.0453  -30.2910   24.6422 C   0  0  0  0  0  0
  -27.6060  -32.4340   25.7508 C   0  0  0  0  0  0
  -27.5566  -37.1762   24.8469 C   0  0  0  0  0  0
  -21.4329  -29.3044   22.3551 N   0  0  0  0  0  0
  -26.4274  -37.3712   23.9414 N   0  0  0  0  0  0
  -24.7457  -30.9976   22.0873 N   0  0  0  0  0  0
  -23.4221  -28.8024   23.3022 O   0  0  0  0  0  0
  -28.2006  -25.8529   20.2425 O   0  0  0  0  0  0
  -26.5692  -34.8888   22.4611 O   0  0  0  0  0  0
  -23.5675  -32.1230   23.6863 O   0  0  0  0  0  0
  -29.3327  -22.0664   19.2198 C   0  0  0  0  0  0
  -29.7183  -20.6338   19.2639 C   0  0  0  0  0  0
  -28.6038  -22.7680   20.2529 C   0  0  0  0  0  0
  -28.2947  -21.8039   21.2650 C   0  0  0  0  0  0
  -29.4307  -19.6381   20.2976 C   0  0  0  0  0  0
  -28.6701  -20.3561   21.3230 C   0  0  0  0  0  0
  -27.4356  -22.5316   22.2835 C   0  0  0  0  0  0
  -27.8068  -24.2734   20.4068 C   0  0  1  0  0  0
  -27.2853  -24.0455   21.8658 C   0  0  1  0  0  0
  -25.8528  -24.5474   22.1200 C   0  0  0  0  0  0
  -29.3135  -19.6257   23.6625 C   0  0  0  0  0  0
  -28.2625  -19.5536   22.5487 C   0  0  0  0  0  0
  -30.1663  -18.0562   20.3294 C   0  0  0  0  0  0
  -29.7322  -16.4712   20.4573 N   0  0  0  0  0  0
  -31.4597  -12.9516   19.1926 H   0  0  0  0  0  0
  -30.4851  -11.8494   20.1164 H   0  0  0  0  0  0
  -29.8974  -11.7397   17.6679 H   0  0  0  0  0  0
  -29.5730  -13.4563   17.6535 H   0  0  0  0  0  0
  -28.0199  -11.2748   19.0681 H   0  0  0  0  0  0
  -27.4078  -12.3619   17.8474 H   0  0  0  0  0  0
  -27.5373  -14.2444   19.3388 H   0  0  0  0  0  0
  -28.8023  -12.4831   21.4921 H   0  0  0  0  0  0
  -28.3030  -14.1478   21.6972 H   0  0  0  0  0  0
  -25.2778   -9.5681   22.4767 H   0  0  0  0  0  0
  -24.0009   -7.4636   22.7477 H   0  0  0  0  0  0
  -21.0860   -8.8784   19.8951 H   0  0  0  0  0  0
  -22.3725  -10.9676   19.6167 H   0  0  0  0  0  0
  -21.2010   -7.6150   23.9716 H   0  0  0  0  0  0
  -21.1479   -6.0524   25.9076 H   0  0  0  0  0  0
  -22.0598   -2.7611   23.2843 H   0  0  0  0  0  0
  -22.4054  -11.9840   22.4842 H   0  0  0  0  0  0
  -21.1033  -13.1177   22.2659 H   0  0  0  0  0  0
  -24.6306  -15.8460   20.5275 H   0  0  0  0  0  0
  -26.2408  -15.6399   20.0625 H   0  0  0  0  0  0
  -26.7366  -32.5158   23.0918 H   0  0  0  0  0  0
  -25.0107  -33.9510   25.0242 H   0  0  0  0  0  0
  -22.7839  -31.2731   21.3574 H   0  0  0  0  0  0
  -23.3764  -35.9524   23.3283 H   0  0  0  0  0  0
  -24.3567  -36.8873   22.2067 H   0  0  0  0  0  0
  -23.7227  -37.6384   23.6712 H   0  0  0  0  0  0
  -26.2184  -31.3880   20.6235 H   0  0  0  0  0  0
  -26.9028  -30.7005   22.0556 H   0  0  0  0  0  0
  -28.1445  -28.6217   21.2852 H   0  0  0  0  0  0
  -25.8793  -25.7820   18.9652 H   0  0  0  0  0  0
  -24.0018  -27.2918   18.9392 H   0  0  0  0  0  0
  -23.8643  -30.5344   19.3922 H   0  0  0  0  0  0
  -22.8211  -29.2172   19.8299 H   0  0  0  0  0  0
  -25.1323  -36.1778   25.0797 H   0  0  0  0  0  0
  -21.0036  -28.3344   24.1318 H   0  0  0  0  0  0
  -20.5687  -26.2361   23.3637 H   0  0  0  0  0  0
  -21.6666  -26.7411   22.1206 H   0  0  0  0  0  0
  -19.6929  -25.6276   21.1273 H   0  0  0  0  0  0
  -19.6712  -27.3164   20.6728 H   0  0  0  0  0  0
  -17.4224  -26.6690   21.4024 H   0  0  0  0  0  0
  -18.0346  -26.0097   22.9028 H   0  0  0  0  0  0
  -19.7970  -30.7320   24.2204 H   0  0  0  0  0  0
  -17.5038  -31.6276   24.5165 H   0  0  0  0  0  0
  -15.5376  -30.2975   23.7696 H   0  0  0  0  0  0
  -15.8702  -28.0809   22.7110 H   0  0  0  0  0  0
  -24.5899  -30.7102   25.7691 H   0  0  0  0  0  0
  -24.8858  -32.2980   26.4672 H   0  0  0  0  0  0
  -25.7939  -30.9041   27.0233 H   0  0  0  0  0  0
  -26.3119  -29.6595   24.1398 H   0  0  0  0  0  0
  -27.3970  -29.7262   25.5065 H   0  0  0  0  0  0
  -27.9065  -30.4105   23.9845 H   0  0  0  0  0  0
  -27.2643  -33.3691   26.1957 H   0  0  0  0  0  0
  -28.3942  -32.6817   25.0385 H   0  0  0  0  0  0
  -28.0650  -31.8547   26.5531 H   0  0  0  0  0  0
  -28.2570  -38.0072   24.7519 H   0  0  0  0  0  0
  -28.1076  -36.2600   24.6291 H   0  0  0  0  0  0
  -27.2285  -37.1398   25.8872 H   0  0  0  0  0  0
  -20.9575  -29.8736   21.6688 H   0  0  0  0  0  0
  -26.0122  -38.2768   24.1429 H   0  0  0  0  0  0
  -29.6025  -22.6289   18.3370 H   0  0  0  0  0  0
  -30.3022  -20.2840   18.4240 H   0  0  0  0  0  0
  -27.8668  -22.4438   23.2813 H   0  0  0  0  0  0
  -26.4603  -22.0441   22.3082 H   0  0  0  0  0  0
  -26.9739  -24.1197   19.7237 H   0  0  0  0  0  0
  -27.9633  -24.5993   22.5165 H   0  0  0  0  0  0
  -25.1444  -24.1048   21.4192 H   0  0  0  0  0  0
  -25.7803  -25.6300   22.0339 H   0  0  0  0  0  0
  -25.5259  -24.2919   23.1282 H   0  0  0  0  0  0
  -28.9974  -19.0486   24.5316 H   0  0  0  0  0  0
  -29.4778  -20.6531   23.9879 H   0  0  0  0  0  0
  -30.2706  -19.2246   23.3291 H   0  0  0  0  0  0
  -28.1042  -18.5131   22.2623 H   0  0  0  0  0  0
  -27.2987  -19.8991   22.9222 H   0  0  0  0  0  0
  -30.9090  -18.1600   21.1209 H   0  0  0  0  0  0
  -30.7712  -18.0546   19.4221 H   0  0  0  0  0  0
  -28.7406  -16.3375   20.5866 H   0  0  0  0  0  0
  1 25  1  0  0  0
  1 30  2  0  0  0
  1 84  1  0  0  0
  2  3  1  0  0  0
  2 25  1  0  0  0
  2 85  1  0  0  0
  2 86  1  0  0  0
  3  4  1  0  0  0
  3 87  1  0  0  0
  3 88  1  0  0  0
  4  5  1  0  0  0
  4 89  1  0  0  0
  4 90  1  0  0  0
  5  6  1  0  0  0
  5 26  1  0  0  0
  5 91  1  0  0  0
  6 25  1  0  0  0
  6 92  1  0  0  0
  6 93  1  0  0  0
  7  8  2  0  0  0
  7 26  1  0  0  0
  7 29  1  0  0  0
  8  9  1  0  0  0
  8 22  1  0  0  0
  9 10  1  0  0  0
  9 27  2  0  0  0
 10 11  2  0  0  0
 10 15  1  0  0  0
 11 12  1  0  0  0
 11 94  1  0  0  0
 12 13  2  0  0  0
 12 95  1  0  0  0
 13 14  1  0  0  0
 13 31  1  0  0  0
 14 15  2  0  0  0
 14 96  1  0  0  0
 15 97  1  0  0  0
 16 17  2  0  0  0
 16 21  1  0  0  0
 16 31  1  0  0  0
 17 18  1  0  0  0
 17 98  1  0  0  0
 18 19  2  0  0  0
 18 99  1  0  0  0
 19 20  1  0  0  0
 19 24  1  0  0  0
 20 21  2  0  0  0
 20100  1  0  0  0
 21 23  1  0  0  0
 22 28  1  0  0  0
 22 32  2  0  0  0
 26 27  1  0  0  0
 28101  1  0  0  0
 28102  1  0  0  0
 29103  1  0  0  0
 29104  1  0  0  0
 33 34  1  0  0  0
 33 66  1  0  0  0
 33 70  2  0  0  0
 34 36  1  0  0  0
 34 59  1  0  0  0
 34105  1  0  0  0
 35 44  2  0  0  0
 35 45  1  0  0  0
 35 68  1  0  0  0
 36 56  1  0  0  0
 36106  1  0  0  0
 37 39  1  0  0  0
 37 47  1  0  0  0
 37 66  1  0  0  0
 37107  1  0  0  0
 38 43  2  0  0  0
 38 46  1  0  0  0
 38 47  1  0  0  0
 39 64  1  0  0  0
 39 67  2  0  0  0
 40 52  1  0  0  0
 40 53  2  0  0  0
 40 58  1  0  0  0
 41108  1  0  0  0
 41109  1  0  0  0
 41110  1  0  0  0
 41 48  1  0  0  0
 42 43  1  0  0  0
 42 66  1  0  0  0
 42111  1  0  0  0
 42112  1  0  0  0
 43 44  1  0  0  0
 44113  1  0  0  0
 45 46  2  0  0  0
 45114  1  0  0  0
 46115  1  0  0  0
 47116  1  0  0  0
 47117  1  0  0  0
 48 56  1  0  0  0
 48 65  1  0  0  0
 48118  1  0  0  0
 49 50  1  0  0  0
 49 53  1  0  0  0
 49 64  1  0  0  0
 49119  1  0  0  0
 50 51  1  0  0  0
 50120  1  0  0  0
 50121  1  0  0  0
 51 52  1  0  0  0
 51122  1  0  0  0
 51123  1  0  0  0
 52124  1  0  0  0
 52125  1  0  0  0
 53 54  1  0  0  0
 54 55  2  0  0  0
 54126  1  0  0  0
 55 57  1  0  0  0
 55127  1  0  0  0
 56 69  2  0  0  0
 57 58  2  0  0  0
 57128  1  0  0  0
 58129  1  0  0  0
 59 60  1  0  0  0
 59 61  1  0  0  0
 59 62  1  0  0  0
 60130  1  0  0  0
 60131  1  0  0  0
 60132  1  0  0  0
 61133  1  0  0  0
 61134  1  0  0  0
 61135  1  0  0  0
 62136  1  0  0  0
 62137  1  0  0  0
 62138  1  0  0  0
 63 65  1  0  0  0
 63139  1  0  0  0
 63140  1  0  0  0
 63141  1  0  0  0
 64142  1  0  0  0
 65143  1  0  0  0
 68 78  1  0  0  0
 71 72  2  0  0  0
 71 73  1  0  0  0
 71144  1  0  0  0
 72 75  1  0  0  0
 72145  1  0  0  0
 73 74  2  0  0  0
 73 78  1  0  0  0
 74 76  1  0  0  0
 74 77  1  0  0  0
 75 76  2  0  0  0
 75 83  1  0  0  0
 76 82  1  0  0  0
 77 79  1  0  0  0
 77146  1  0  0  0
 77147  1  0  0  0
 78 79  1  0  0  0
 78148  1  0  0  0
 79 80  1  0  0  0
 79149  1  0  0  0
 80150  1  0  0  0
 80151  1  0  0  0
 80152  1  0  0  0
 81 82  1  0  0  0
 81153  1  0  0  0
 81154  1  0  0  0
 81155  1  0  0  0
 82156  1  0  0  0
 82157  1  0  0  0
 83 84  1  0  0  0
 83158  1  0  0  0
 83159  1  0  0  0
 84160  1  0  0  0
M  ISO  4   1 100  68 101  78 101  84 100
M  END
> <chiral flag>
0

> <version>
0

> <s_m_source_file>
/data/baiqing/PycharmProjects/Reinvent-master-3.2/result/LINK_invent/BTK/process_docking_weight1_custom_sum_contain_oxygen_bond_distance_aromatic_linkinvent_7_9_3/rearranged_h_0129.sdf

> <i_m_source_file_index>
84

> <r_mmod_Potential_Energy-OPLS-2005>
1072.04113769531

> <r_mmod_Stretch_Energy-OPLS-2005>
451.354797363281

> <r_mmod_Bend_Energy-OPLS-2005>
463.765594482422

> <r_mmod_Torsional_Energy-OPLS-2005>
231.512771606445

> <r_mmod_Improper_Torsional_Energy-OPLS-2005>
8.28345966339111

> <r_mmod_Van_der_Waal_Energy-OPLS-2005>
121.098098754883

> <r_mmod_Electrostatic_Energy-OPLS-2005>
-400.479187011719

> <r_mmod_Solvation_Energy-OPLS-2005>
-204.600677490234

> <b_mmod_Minimization_Converged-OPLS-2005>
0

> <r_mmod_RMS_Derivative-OPLS-2005>
0.361159980297089

$$$$
85
                    3D
 Structure written by MMmdl.
178187  0  0  1  0            999 V2000
  -30.8712  -14.2536   20.7553 C   0  0  0  0  0  0
  -30.4113  -12.2799   19.3673 C   0  0  0  0  0  0
  -29.4699  -12.5159   18.1771 C   0  0  0  0  0  0
  -28.0032  -12.3676   18.6125 C   0  0  0  0  0  0
  -27.6701  -13.2069   19.8723 C   0  0  2  0  0  0
  -28.7146  -12.9824   20.9920 C   0  0  0  0  0  0
  -25.2636  -13.8178   20.5693 C   0  0  0  0  0  0
  -24.1891  -13.0442   20.9184 C   0  0  0  0  0  0
  -24.6437  -11.6917   20.8750 C   0  0  0  0  0  0
  -23.9092  -10.4299   21.0410 C   0  0  0  0  0  0
  -24.3627   -9.4213   21.9197 C   0  0  0  0  0  0
  -23.6292   -8.2252   22.0775 C   0  0  0  0  0  0
  -22.4276   -8.0294   21.3562 C   0  0  0  0  0  0
  -21.9933   -9.0267   20.4650 C   0  0  0  0  0  0
  -22.7272  -10.2143   20.3060 C   0  0  0  0  0  0
  -21.6846   -6.0748   22.5273 C   0  0  0  0  0  0
  -21.4021   -6.5642   23.8218 C   0  0  0  0  0  0
  -21.3649   -5.6795   24.9170 C   0  0  0  0  0  0
  -21.6036   -4.3055   24.7230 C   0  0  0  0  0  0
  -21.8820   -3.8152   23.4343 C   0  0  0  0  0  0
  -21.9196   -4.6967   22.3412 C   0  0  0  0  0  0
  -22.7882  -13.5234   21.1824 C   0  0  0  0  0  0
  -22.1662   -4.2159   21.0979 F   0  0  0  0  0  0
  -21.5618   -3.4540   25.7736 F   0  0  0  0  0  0
  -30.0669  -13.2080   20.4502 N   0  0  0  0  0  0
  -26.3091  -12.9354   20.3370 N   0  0  0  0  0  0
  -25.9378  -11.6516   20.5785 N   0  0  0  0  0  0
  -22.0509  -12.8235   22.0365 N   0  0  0  0  0  0
  -25.4363  -15.1900   20.4081 N   0  0  0  0  0  0
  -31.7549  -14.6861   20.0136 O   0  0  0  0  0  0
  -21.6636   -6.8887   21.4243 O   0  0  0  0  0  0
  -22.3597  -14.5544   20.6677 O   0  0  0  0  0  0
  -24.6071  -31.8693   23.2157 C   0  0  0  0  0  0
  -25.8986  -32.4847   23.8427 C   0  0  1  0  0  0
  -27.2466  -27.5139   20.0912 C   0  0  0  0  0  0
  -25.5883  -33.8646   24.2341 N   0  0  0  0  0  0
  -23.3901  -30.4950   21.5515 C   0  0  2  0  0  0
  -24.8387  -28.9782   20.0979 C   0  0  0  0  0  0
  -22.7376  -29.4663   22.5019 C   0  0  0  0  0  0
  -18.0259  -28.1404   22.8465 C   0  0  0  0  0  0
  -24.1483  -36.7341   23.2644 C   0  0  0  0  0  0
  -25.9014  -30.8777   21.3380 C   0  0  0  0  0  0
  -25.9893  -29.5215   20.6780 C   0  0  0  0  0  0
  -27.1979  -28.8104   20.6518 C   0  0  0  0  0  0
  -26.0893  -26.9816   19.4868 C   0  0  0  0  0  0
  -24.8819  -27.7098   19.4883 C   0  0  0  0  0  0
  -23.5912  -29.8284   20.1619 C   0  0  0  0  0  0
  -25.4106  -36.3130   24.0349 C   0  0  1  0  0  0
  -20.5836  -28.3667   23.1354 C   0  0  2  0  0  0
  -20.6757  -26.9419   22.5433 C   0  0  0  0  0  0
  -19.5763  -26.6377   21.5211 C   0  0  0  0  0  0
  -18.1911  -26.7961   22.1573 C   0  0  0  0  0  0
  -19.1506  -28.8848   23.2900 C   0  0  0  0  0  0
  -18.9447  -30.1437   23.8932 C   0  0  0  0  0  0
  -17.6465  -30.6587   24.0579 C   0  0  0  0  0  0
  -25.9028  -34.9497   23.5136 C   0  0  0  0  0  0
  -16.5349  -29.9097   23.6336 C   0  0  0  0  0  0
  -16.7258  -28.6526   23.0336 C   0  0  0  0  0  0
  -26.4414  -31.6655   25.0763 C   0  0  0  0  0  0
  -25.3684  -31.3798   26.1531 C   0  0  0  0  0  0
  -27.0284  -30.3151   24.6064 C   0  0  0  0  0  0
  -27.5949  -32.4420   25.7560 C   0  0  0  0  0  0
  -27.5578  -37.1816   24.8457 C   0  0  0  0  0  0
  -21.4108  -29.3048   22.3785 N   0  0  0  0  0  0
  -26.4293  -37.3805   23.9413 N   0  0  0  0  0  0
  -24.6523  -31.0903   22.0984 N   0  0  0  0  0  0
  -23.4188  -28.8184   23.3017 O   0  0  0  0  0  0
  -28.3657  -26.7212   20.1894 O   0  0  0  0  0  0
  -26.5541  -34.8936   22.4669 O   0  0  0  0  0  0
  -23.5289  -32.1351   23.7639 O   0  0  0  0  0  0
  -27.3863  -25.2031   22.5449 C   0  0  0  0  0  0
  -28.4275  -24.0880   22.5714 C   0  0  0  0  0  0
  -31.5368  -21.0389   21.0198 C   0  0  0  0  0  0
  -29.8596  -21.1726   22.9195 C   0  0  0  0  0  0
  -31.3392  -19.5073   20.9908 C   0  0  0  0  0  0
  -29.6775  -19.6507   22.8357 C   0  0  0  0  0  0
  -28.0740  -26.5600   22.6591 C   0  0  0  0  0  0
  -30.1567  -25.7007   21.4855 C   0  0  1  0  0  0
  -30.3054  -21.8021   21.5708 C   0  0  1  0  0  0
  -30.9830  -18.9737   22.3961 C   0  0  1  0  0  0
  -29.5650  -24.2509   21.5291 C   0  0  1  0  0  0
  -29.0416  -26.7735   21.4611 C   0  0  1  0  0  0
  -31.1792  -26.0032   22.6063 C   0  0  0  0  0  0
  -31.9319  -15.2592   22.7537 C   0  0  0  0  0  0
  -32.1243  -16.7529   22.4214 C   0  0  0  0  0  0
  -30.8241  -14.6134   22.0416 N   0  0  0  0  0  0
  -30.6427  -23.2417   21.7242 N   0  3  0  0  0  0
  -30.8501  -17.5007   22.4545 N   0  3  0  0  0  0
  -31.4514  -12.3790   19.0484 H   0  0  0  0  0  0
  -30.3111  -11.2561   19.7306 H   0  0  0  0  0  0
  -29.6913  -11.8012   17.3834 H   0  0  0  0  0  0
  -29.6384  -13.5087   17.7554 H   0  0  0  0  0  0
  -27.8174  -11.3113   18.8088 H   0  0  0  0  0  0
  -27.3410  -12.6428   17.7914 H   0  0  0  0  0  0
  -27.7226  -14.2562   19.5778 H   0  0  0  0  0  0
  -28.6547  -11.9629   21.3748 H   0  0  0  0  0  0
  -28.4829  -13.6399   21.8313 H   0  0  0  0  0  0
  -25.2768   -9.5663   22.4795 H   0  0  0  0  0  0
  -23.9965   -7.4651   22.7521 H   0  0  0  0  0  0
  -21.0857   -8.8793   19.8961 H   0  0  0  0  0  0
  -22.3737  -10.9680   19.6176 H   0  0  0  0  0  0
  -21.2020   -7.6150   23.9724 H   0  0  0  0  0  0
  -21.1464   -6.0523   25.9074 H   0  0  0  0  0  0
  -22.0608   -2.7619   23.2848 H   0  0  0  0  0  0
  -22.4066  -11.9856   22.4706 H   0  0  0  0  0  0
  -21.1151  -13.1311   22.2563 H   0  0  0  0  0  0
  -24.6724  -15.8473   20.5233 H   0  0  0  0  0  0
  -26.2868  -15.6249   20.0702 H   0  0  0  0  0  0
  -26.7091  -32.5577   23.1241 H   0  0  0  0  0  0
  -25.0177  -33.9835   25.0583 H   0  0  0  0  0  0
  -22.6763  -31.3089   21.4163 H   0  0  0  0  0  0
  -23.3739  -35.9678   23.3323 H   0  0  0  0  0  0
  -24.3572  -36.8947   22.2054 H   0  0  0  0  0  0
  -23.7228  -37.6553   23.6641 H   0  0  0  0  0  0
  -25.9766  -31.6491   20.5699 H   0  0  0  0  0  0
  -26.7989  -30.9478   21.9381 H   0  0  0  0  0  0
  -28.0730  -29.2586   21.0987 H   0  0  0  0  0  0
  -26.1177  -25.9939   19.0527 H   0  0  0  0  0  0
  -23.9964  -27.2866   19.0337 H   0  0  0  0  0  0
  -23.6822  -30.6003   19.3974 H   0  0  0  0  0  0
  -22.7176  -29.2408   19.8742 H   0  0  0  0  0  0
  -25.1280  -36.2000   25.0837 H   0  0  0  0  0  0
  -20.9888  -28.3202   24.1496 H   0  0  0  0  0  0
  -20.5686  -26.2285   23.3626 H   0  0  0  0  0  0
  -21.6631  -26.7474   22.1234 H   0  0  0  0  0  0
  -19.6961  -25.6265   21.1297 H   0  0  0  0  0  0
  -19.6774  -27.3144   20.6718 H   0  0  0  0  0  0
  -17.4231  -26.6767   21.3910 H   0  0  0  0  0  0
  -18.0240  -26.0067   22.8925 H   0  0  0  0  0  0
  -19.7919  -30.7202   24.2364 H   0  0  0  0  0  0
  -17.5030  -31.6289   24.5148 H   0  0  0  0  0  0
  -15.5356  -30.3032   23.7656 H   0  0  0  0  0  0
  -15.8646  -28.0866   22.7065 H   0  0  0  0  0  0
  -24.5933  -30.7014   25.7968 H   0  0  0  0  0  0
  -24.8767  -32.2966   26.4797 H   0  0  0  0  0  0
  -25.8041  -30.9186   27.0399 H   0  0  0  0  0  0
  -26.2851  -29.6996   24.0990 H   0  0  0  0  0  0
  -27.4027  -29.7310   25.4481 H   0  0  0  0  0  0
  -27.8666  -30.4633   23.9251 H   0  0  0  0  0  0
  -27.2491  -33.3705   26.2131 H   0  0  0  0  0  0
  -28.3741  -32.7031   25.0392 H   0  0  0  0  0  0
  -28.0626  -31.8582   26.5497 H   0  0  0  0  0  0
  -28.2567  -38.0128   24.7465 H   0  0  0  0  0  0
  -28.1066  -36.2638   24.6284 H   0  0  0  0  0  0
  -27.2285  -37.1494   25.8854 H   0  0  0  0  0  0
  -20.9268  -29.8859   21.7087 H   0  0  0  0  0  0
  -26.0195  -38.2890   24.1391 H   0  0  0  0  0  0
  -26.6716  -25.0602   23.3547 H   0  0  0  0  0  0
  -26.8087  -25.1514   21.6236 H   0  0  0  0  0  0
  -27.8790  -23.1686   22.3784 H   0  0  0  0  0  0
  -28.8381  -24.0191   23.5792 H   0  0  0  0  0  0
  -31.7705  -21.3907   20.0130 H   0  0  0  0  0  0
  -32.4150  -21.2618   21.6290 H   0  0  0  0  0  0
  -30.5910  -21.3971   23.6967 H   0  0  0  0  0  0
  -28.9198  -21.5865   23.2710 H   0  0  0  0  0  0
  -32.2440  -19.0366   20.6085 H   0  0  0  0  0  0
  -30.5424  -19.2595   20.2864 H   0  0  0  0  0  0
  -28.8810  -19.4120   22.1291 H   0  0  0  0  0  0
  -29.3521  -19.2705   23.8053 H   0  0  0  0  0  0
  -28.6137  -26.6200   23.6043 H   0  0  0  0  0  0
  -27.3178  -27.3398   22.7361 H   0  0  0  0  0  0
  -30.7085  -25.8151   20.5506 H   0  0  0  0  0  0
  -29.5001  -21.7014   20.8395 H   0  0  0  0  0  0
  -31.7672  -19.2640   23.0973 H   0  0  0  0  0  0
  -29.1246  -24.0768   20.5465 H   0  0  0  0  0  0
  -29.5211  -27.7486   21.5540 H   0  0  0  0  0  0
  -30.7992  -25.7506   23.5949 H   0  0  0  0  0  0
  -31.4469  -27.0619   22.6239 H   0  0  0  0  0  0
  -32.1107  -25.4579   22.4575 H   0  0  0  0  0  0
  -31.7562  -15.1446   23.8233 H   0  0  0  0  0  0
  -32.8593  -14.7180   22.5518 H   0  0  0  0  0  0
  -32.5872  -16.8625   21.4400 H   0  0  0  0  0  0
  -32.8249  -17.1823   23.1406 H   0  0  0  0  0  0
  -30.1330  -14.1377   22.6038 H   0  0  0  0  0  0
  -31.3524  -23.4478   21.0394 H   0  0  0  0  0  0
  -31.0667  -23.3826   22.6272 H   0  0  0  0  0  0
  -30.2476  -17.1693   21.7190 H   0  0  0  0  0  0
  -30.4091  -17.2770   23.3322 H   0  0  0  0  0  0
  1 25  1  0  0  0
  1 30  2  0  0  0
  1 86  1  0  0  0
  2  3  1  0  0  0
  2 25  1  0  0  0
  2 89  1  0  0  0
  2 90  1  0  0  0
  3  4  1  0  0  0
  3 91  1  0  0  0
  3 92  1  0  0  0
  4  5  1  0  0  0
  4 93  1  0  0  0
  4 94  1  0  0  0
  5  6  1  0  0  0
  5 26  1  0  0  0
  5 95  1  0  0  0
  6 25  1  0  0  0
  6 96  1  0  0  0
  6 97  1  0  0  0
  7  8  2  0  0  0
  7 26  1  0  0  0
  7 29  1  0  0  0
  8  9  1  0  0  0
  8 22  1  0  0  0
  9 10  1  0  0  0
  9 27  2  0  0  0
 10 11  2  0  0  0
 10 15  1  0  0  0
 11 12  1  0  0  0
 11 98  1  0  0  0
 12 13  2  0  0  0
 12 99  1  0  0  0
 13 14  1  0  0  0
 13 31  1  0  0  0
 14 15  2  0  0  0
 14100  1  0  0  0
 15101  1  0  0  0
 16 17  2  0  0  0
 16 21  1  0  0  0
 16 31  1  0  0  0
 17 18  1  0  0  0
 17102  1  0  0  0
 18 19  2  0  0  0
 18103  1  0  0  0
 19 20  1  0  0  0
 19 24  1  0  0  0
 20 21  2  0  0  0
 20104  1  0  0  0
 21 23  1  0  0  0
 22 28  1  0  0  0
 22 32  2  0  0  0
 26 27  1  0  0  0
 28105  1  0  0  0
 28106  1  0  0  0
 29107  1  0  0  0
 29108  1  0  0  0
 33 34  1  0  0  0
 33 66  1  0  0  0
 33 70  2  0  0  0
 34 36  1  0  0  0
 34 59  1  0  0  0
 34109  1  0  0  0
 35 44  2  0  0  0
 35 45  1  0  0  0
 35 68  1  0  0  0
 36 56  1  0  0  0
 36110  1  0  0  0
 37 39  1  0  0  0
 37 47  1  0  0  0
 37 66  1  0  0  0
 37111  1  0  0  0
 38 43  2  0  0  0
 38 46  1  0  0  0
 38 47  1  0  0  0
 39 64  1  0  0  0
 39 67  2  0  0  0
 40 52  1  0  0  0
 40 53  2  0  0  0
 40 58  1  0  0  0
 41112  1  0  0  0
 41113  1  0  0  0
 41114  1  0  0  0
 41 48  1  0  0  0
 42 43  1  0  0  0
 42 66  1  0  0  0
 42115  1  0  0  0
 42116  1  0  0  0
 43 44  1  0  0  0
 44117  1  0  0  0
 45 46  2  0  0  0
 45118  1  0  0  0
 46119  1  0  0  0
 47120  1  0  0  0
 47121  1  0  0  0
 48 56  1  0  0  0
 48 65  1  0  0  0
 48122  1  0  0  0
 49 50  1  0  0  0
 49 53  1  0  0  0
 49 64  1  0  0  0
 49123  1  0  0  0
 50 51  1  0  0  0
 50124  1  0  0  0
 50125  1  0  0  0
 51 52  1  0  0  0
 51126  1  0  0  0
 51127  1  0  0  0
 52128  1  0  0  0
 52129  1  0  0  0
 53 54  1  0  0  0
 54 55  2  0  0  0
 54130  1  0  0  0
 55 57  1  0  0  0
 55131  1  0  0  0
 56 69  2  0  0  0
 57 58  2  0  0  0
 57132  1  0  0  0
 58133  1  0  0  0
 59 60  1  0  0  0
 59 61  1  0  0  0
 59 62  1  0  0  0
 60134  1  0  0  0
 60135  1  0  0  0
 60136  1  0  0  0
 61137  1  0  0  0
 61138  1  0  0  0
 61139  1  0  0  0
 62140  1  0  0  0
 62141  1  0  0  0
 62142  1  0  0  0
 63 65  1  0  0  0
 63143  1  0  0  0
 63144  1  0  0  0
 63145  1  0  0  0
 64146  1  0  0  0
 65147  1  0  0  0
 68 82  1  0  0  0
 71 72  1  0  0  0
 71 77  1  0  0  0
 71148  1  0  0  0
 71149  1  0  0  0
 72 81  1  0  0  0
 72150  1  0  0  0
 72151  1  0  0  0
 73 75  1  0  0  0
 73 79  1  0  0  0
 73152  1  0  0  0
 73153  1  0  0  0
 74 76  1  0  0  0
 74 79  1  0  0  0
 74154  1  0  0  0
 74155  1  0  0  0
 75 80  1  0  0  0
 75156  1  0  0  0
 75157  1  0  0  0
 76 80  1  0  0  0
 76158  1  0  0  0
 76159  1  0  0  0
 77 82  1  0  0  0
 77160  1  0  0  0
 77161  1  0  0  0
 78 81  1  0  0  0
 78 82  1  0  0  0
 78 83  1  0  0  0
 78162  1  0  0  0
 79 87  1  0  0  0
 79163  1  0  0  0
 80 88  1  0  0  0
 80164  1  0  0  0
 81 87  1  0  0  0
 81165  1  0  0  0
 82166  1  0  0  0
 83167  1  0  0  0
 83168  1  0  0  0
 83169  1  0  0  0
 84 85  1  0  0  0
 84 86  1  0  0  0
 84170  1  0  0  0
 84171  1  0  0  0
 85 88  1  0  0  0
 85172  1  0  0  0
 85173  1  0  0  0
 86174  1  0  0  0
 87175  1  0  0  0
 87176  1  0  0  0
 88177  1  0  0  0
 88178  1  0  0  0
M  CHG  2  87   1  88   1
M  ISO  4   1 100  68 101  82 101  86 100
M  END
> <chiral flag>
0

> <version>
0

> <s_m_source_file>
/data/baiqing/PycharmProjects/Reinvent-master-3.2/result/LINK_invent/BTK/process_docking_weight1_custom_sum_contain_oxygen_bond_distance_aromatic_linkinvent_7_9_3/rearranged_h_0129.sdf

> <i_m_source_file_index>
85

> <r_mmod_Potential_Energy-OPLS-2005>
-300.770874023438

> <r_mmod_Stretch_Energy-OPLS-2005>
36.0831604003906

> <r_mmod_Bend_Energy-OPLS-2005>
102.418174743652

> <r_mmod_Torsional_Energy-OPLS-2005>
316.672180175781

> <r_mmod_Improper_Torsional_Energy-OPLS-2005>
7.0274543762207

> <r_mmod_Van_der_Waal_Energy-OPLS-2005>
149.821624755859

> <r_mmod_Electrostatic_Energy-OPLS-2005>
-18.813009262085

> <r_mmod_Solvation_Energy-OPLS-2005>
-907.63232421875

> <b_mmod_Minimization_Converged-OPLS-2005>
0

> <r_mmod_RMS_Derivative-OPLS-2005>
3.67647910118103

$$$$
86
                    3D
 Structure written by MMmdl.
162170  0  0  1  0            999 V2000
  -30.6161  -14.6728   20.4896 C   0  0  0  0  0  0
  -30.4365  -12.4134   19.4506 C   0  0  0  0  0  0
  -29.5028  -12.4981   18.2229 C   0  0  0  0  0  0
  -28.0286  -12.3273   18.6412 C   0  0  0  0  0  0
  -27.6465  -13.2173   19.8540 C   0  0  2  0  0  0
  -28.6924  -13.1022   20.9832 C   0  0  0  0  0  0
  -25.2524  -13.8159   20.5663 C   0  0  0  0  0  0
  -24.1797  -13.0426   20.9188 C   0  0  0  0  0  0
  -24.6379  -11.6903   20.8749 C   0  0  0  0  0  0
  -23.9056  -10.4275   21.0416 C   0  0  0  0  0  0
  -24.3610   -9.4194   21.9199 C   0  0  0  0  0  0
  -23.6288   -8.2228   22.0754 C   0  0  0  0  0  0
  -22.4267   -8.0262   21.3551 C   0  0  0  0  0  0
  -21.9915   -9.0239   20.4648 C   0  0  0  0  0  0
  -22.7238  -10.2117   20.3066 C   0  0  0  0  0  0
  -21.6855   -6.0736   22.5289 C   0  0  0  0  0  0
  -21.4004   -6.5646   23.8220 C   0  0  0  0  0  0
  -21.3651   -5.6804   24.9187 C   0  0  0  0  0  0
  -21.6040   -4.3061   24.7244 C   0  0  0  0  0  0
  -21.8817   -3.8150   23.4361 C   0  0  0  0  0  0
  -21.9193   -4.6962   22.3414 C   0  0  0  0  0  0
  -22.7821  -13.5218   21.1879 C   0  0  0  0  0  0
  -22.1665   -4.2138   21.0987 F   0  0  0  0  0  0
  -21.5630   -3.4544   25.7763 F   0  0  0  0  0  0
  -29.9979  -13.4512   20.4056 N   0  0  0  0  0  0
  -26.2947  -12.9351   20.3279 N   0  0  0  0  0  0
  -25.9308  -11.6513   20.5759 N   0  0  0  0  0  0
  -22.0494  -12.8183   22.0427 N   0  0  0  0  0  0
  -25.4238  -15.1873   20.4038 N   0  0  0  0  0  0
  -31.7988  -14.8115   20.1671 O   0  0  0  0  0  0
  -21.6634   -6.8860   21.4239 O   0  0  0  0  0  0
  -22.3520  -14.5544   20.6746 O   0  0  0  0  0  0
  -24.6301  -31.8558   23.1991 C   0  0  0  0  0  0
  -25.9134  -32.4773   23.8331 C   0  0  1  0  0  0
  -27.2198  -27.2954   20.1149 C   0  0  0  0  0  0
  -25.5934  -33.8560   24.2263 N   0  0  0  0  0  0
  -23.4255  -30.4787   21.5422 C   0  0  2  0  0  0
  -24.8681  -28.9266   20.1127 C   0  0  0  0  0  0
  -22.7497  -29.4612   22.4927 C   0  0  0  0  0  0
  -18.0290  -28.1399   22.8487 C   0  0  0  0  0  0
  -24.1477  -36.7264   23.2646 C   0  0  0  0  0  0
  -25.9682  -30.7786   21.3712 C   0  0  0  0  0  0
  -26.0395  -29.4024   20.7186 C   0  0  0  0  0  0
  -27.2189  -28.5974   20.7087 C   0  0  0  0  0  0
  -26.0310  -26.8776   19.4866 C   0  0  0  0  0  0
  -24.8678  -27.6702   19.4849 C   0  0  0  0  0  0
  -23.6379  -29.8094   20.1594 C   0  0  0  0  0  0
  -25.4102  -36.3067   24.0332 C   0  0  1  0  0  0
  -20.5904  -28.3697   23.1277 C   0  0  2  0  0  0
  -20.6776  -26.9410   22.5414 C   0  0  0  0  0  0
  -19.5750  -26.6382   21.5229 C   0  0  0  0  0  0
  -18.1926  -26.7947   22.1618 C   0  0  0  0  0  0
  -19.1555  -28.8859   23.2889 C   0  0  0  0  0  0
  -18.9470  -30.1458   23.8915 C   0  0  0  0  0  0
  -17.6471  -30.6596   24.0562 C   0  0  0  0  0  0
  -25.9046  -34.9445   23.5096 C   0  0  0  0  0  0
  -16.5356  -29.9095   23.6342 C   0  0  0  0  0  0
  -16.7279  -28.6514   23.0358 C   0  0  0  0  0  0
  -26.4505  -31.6591   25.0710 C   0  0  0  0  0  0
  -25.3722  -31.3730   26.1431 C   0  0  0  0  0  0
  -27.0348  -30.3027   24.6139 C   0  0  0  0  0  0
  -27.6084  -32.4330   25.7466 C   0  0  0  0  0  0
  -27.5570  -37.1786   24.8468 C   0  0  0  0  0  0
  -21.4203  -29.3050   22.3676 N   0  0  0  0  0  0
  -26.4274  -37.3782   23.9431 N   0  0  0  0  0  0
  -24.6947  -31.0557   22.0954 N   0  0  0  0  0  0
  -23.4217  -28.8151   23.3009 O   0  0  0  0  0  0
  -28.3293  -26.4379   20.0874 O   0  0  0  0  0  0
  -26.5617  -34.8924   22.4670 O   0  0  0  0  0  0
  -23.5448  -32.1355   23.7314 O   0  0  0  0  0  0
  -27.8248  -22.0945   17.9788 C   0  0  0  0  0  0
  -28.1039  -20.8439   18.8505 C   0  0  0  0  0  0
  -28.8884  -22.4039   20.6433 C   0  0  0  0  0  0
  -27.3772  -23.3288   18.7954 C   0  0  2  0  0  0
  -28.5026  -23.7167   19.7927 C   0  0  1  0  0  0
  -25.9886  -23.0840   19.4362 C   0  0  0  0  0  0
  -28.1896  -25.0599   20.6361 C   0  0  0  0  0  0
  -29.5413  -18.3869   20.1405 C   0  0  0  0  0  0
  -30.1623  -17.2112   21.0466 C   0  0  0  0  0  0
  -29.4256  -19.8681   20.7751 C   0  0  0  0  0  0
  -29.8192  -15.7591   20.7684 N   0  0  0  0  0  0
  -29.1398  -21.0917   19.8887 N   0  3  1  0  0  0
  -31.4762  -12.5458   19.1449 H   0  0  0  0  0  0
  -30.3802  -11.4258   19.9111 H   0  0  0  0  0  0
  -29.7745  -11.7368   17.4897 H   0  0  0  0  0  0
  -29.6313  -13.4609   17.7257 H   0  0  0  0  0  0
  -27.8804  -11.2768   18.8939 H   0  0  0  0  0  0
  -27.3694  -12.5315   17.7959 H   0  0  0  0  0  0
  -27.6544  -14.2445   19.4919 H   0  0  0  0  0  0
  -28.7114  -12.0874   21.3844 H   0  0  0  0  0  0
  -28.4344  -13.7525   21.8210 H   0  0  0  0  0  0
  -25.2761   -9.5679   22.4763 H   0  0  0  0  0  0
  -24.0012   -7.4622   22.7476 H   0  0  0  0  0  0
  -21.0854   -8.8753   19.8955 H   0  0  0  0  0  0
  -22.3711  -10.9650   19.6162 H   0  0  0  0  0  0
  -21.1979   -7.6159   23.9719 H   0  0  0  0  0  0
  -21.1476   -6.0539   25.9087 H   0  0  0  0  0  0
  -22.0596   -2.7609   23.2880 H   0  0  0  0  0  0
  -22.4130  -11.9828   22.4765 H   0  0  0  0  0  0
  -21.1109  -13.1176   22.2648 H   0  0  0  0  0  0
  -24.6517  -15.8381   20.4885 H   0  0  0  0  0  0
  -26.2619  -15.6216   20.0396 H   0  0  0  0  0  0
  -26.7194  -32.5440   23.1063 H   0  0  0  0  0  0
  -25.0118  -33.9709   25.0432 H   0  0  0  0  0  0
  -22.7224  -31.3023   21.3938 H   0  0  0  0  0  0
  -23.3769  -35.9571   23.3295 H   0  0  0  0  0  0
  -24.3567  -36.8888   22.2064 H   0  0  0  0  0  0
  -23.7204  -37.6451   23.6669 H   0  0  0  0  0  0
  -26.0967  -31.5338   20.5952 H   0  0  0  0  0  0
  -26.8523  -30.8330   21.9947 H   0  0  0  0  0  0
  -28.1212  -28.9560   21.1851 H   0  0  0  0  0  0
  -25.9999  -25.9231   18.9852 H   0  0  0  0  0  0
  -23.9750  -27.3031   18.9962 H   0  0  0  0  0  0
  -23.7540  -30.5818   19.3990 H   0  0  0  0  0  0
  -22.7578  -29.2362   19.8599 H   0  0  0  0  0  0
  -25.1286  -36.1906   25.0825 H   0  0  0  0  0  0
  -20.9992  -28.3257   24.1401 H   0  0  0  0  0  0
  -20.5696  -26.2300   23.3614 H   0  0  0  0  0  0
  -21.6630  -26.7432   22.1183 H   0  0  0  0  0  0
  -19.6913  -25.6308   21.1231 H   0  0  0  0  0  0
  -19.6695  -27.3205   20.6781 H   0  0  0  0  0  0
  -17.4197  -26.6733   21.4005 H   0  0  0  0  0  0
  -18.0278  -26.0090   22.9005 H   0  0  0  0  0  0
  -19.7948  -30.7262   24.2289 H   0  0  0  0  0  0
  -17.5022  -31.6283   24.5149 H   0  0  0  0  0  0
  -15.5363  -30.2990   23.7677 H   0  0  0  0  0  0
  -15.8673  -28.0824   22.7090 H   0  0  0  0  0  0
  -24.5927  -30.7044   25.7750 H   0  0  0  0  0  0
  -24.8879  -32.2890   26.4824 H   0  0  0  0  0  0
  -25.8036  -30.8935   27.0226 H   0  0  0  0  0  0
  -26.2894  -29.6778   24.1195 H   0  0  0  0  0  0
  -27.4121  -29.7285   25.4615 H   0  0  0  0  0  0
  -27.8731  -30.4350   23.9300 H   0  0  0  0  0  0
  -27.2720  -33.3673   26.1964 H   0  0  0  0  0  0
  -28.3915  -32.6806   25.0291 H   0  0  0  0  0  0
  -28.0698  -31.8487   26.5430 H   0  0  0  0  0  0
  -28.2584  -38.0092   24.7525 H   0  0  0  0  0  0
  -28.1077  -36.2627   24.6268 H   0  0  0  0  0  0
  -27.2283  -37.1353   25.8870 H   0  0  0  0  0  0
  -20.9394  -29.8781   21.6878 H   0  0  0  0  0  0
  -26.0148  -38.2856   24.1472 H   0  0  0  0  0  0
  -27.0682  -21.8484   17.2314 H   0  0  0  0  0  0
  -28.7204  -22.3432   17.4073 H   0  0  0  0  0  0
  -28.4396  -20.0350   18.1986 H   0  0  0  0  0  0
  -27.1869  -20.4867   19.3201 H   0  0  0  0  0  0
  -28.0991  -22.2223   21.3726 H   0  0  0  0  0  0
  -29.7817  -22.6230   21.2288 H   0  0  0  0  0  0
  -27.2635  -24.1566   18.0925 H   0  0  0  0  0  0
  -29.3870  -23.9514   19.1951 H   0  0  0  0  0  0
  -25.9971  -22.2678   20.1586 H   0  0  0  0  0  0
  -25.2515  -22.8283   18.6734 H   0  0  0  0  0  0
  -25.6063  -23.9590   19.9589 H   0  0  0  0  0  0
  -28.9067  -25.0527   21.4572 H   0  0  0  0  0  0
  -27.2285  -24.9590   21.1419 H   0  0  0  0  0  0
  -28.5454  -18.0794   19.8207 H   0  0  0  0  0  0
  -30.1379  -18.4453   19.2291 H   0  0  0  0  0  0
  -29.8398  -17.3883   22.0737 H   0  0  0  0  0  0
  -31.2483  -17.3201   21.0776 H   0  0  0  0  0  0
  -30.3403  -20.0832   21.3282 H   0  0  0  0  0  0
  -28.6371  -19.8264   21.5280 H   0  0  0  0  0  0
  -28.8595  -15.5071   20.9574 H   0  0  0  0  0  0
  -29.9917  -21.2480   19.3693 H   0  0  0  0  0  0
  1 25  1  0  0  0
  1 30  2  0  0  0
  1 81  1  0  0  0
  2  3  1  0  0  0
  2 25  1  0  0  0
  2 83  1  0  0  0
  2 84  1  0  0  0
  3  4  1  0  0  0
  3 85  1  0  0  0
  3 86  1  0  0  0
  4  5  1  0  0  0
  4 87  1  0  0  0
  4 88  1  0  0  0
  5  6  1  0  0  0
  5 26  1  0  0  0
  5 89  1  0  0  0
  6 25  1  0  0  0
  6 90  1  0  0  0
  6 91  1  0  0  0
  7  8  2  0  0  0
  7 26  1  0  0  0
  7 29  1  0  0  0
  8  9  1  0  0  0
  8 22  1  0  0  0
  9 10  1  0  0  0
  9 27  2  0  0  0
 10 11  2  0  0  0
 10 15  1  0  0  0
 11 12  1  0  0  0
 11 92  1  0  0  0
 12 13  2  0  0  0
 12 93  1  0  0  0
 13 14  1  0  0  0
 13 31  1  0  0  0
 14 15  2  0  0  0
 14 94  1  0  0  0
 15 95  1  0  0  0
 16 17  2  0  0  0
 16 21  1  0  0  0
 16 31  1  0  0  0
 17 18  1  0  0  0
 17 96  1  0  0  0
 18 19  2  0  0  0
 18 97  1  0  0  0
 19 20  1  0  0  0
 19 24  1  0  0  0
 20 21  2  0  0  0
 20 98  1  0  0  0
 21 23  1  0  0  0
 22 28  1  0  0  0
 22 32  2  0  0  0
 26 27  1  0  0  0
 28 99  1  0  0  0
 28100  1  0  0  0
 29101  1  0  0  0
 29102  1  0  0  0
 33 34  1  0  0  0
 33 66  1  0  0  0
 33 70  2  0  0  0
 34 36  1  0  0  0
 34 59  1  0  0  0
 34103  1  0  0  0
 35 44  2  0  0  0
 35 45  1  0  0  0
 35 68  1  0  0  0
 36 56  1  0  0  0
 36104  1  0  0  0
 37 39  1  0  0  0
 37 47  1  0  0  0
 37 66  1  0  0  0
 37105  1  0  0  0
 38 43  2  0  0  0
 38 46  1  0  0  0
 38 47  1  0  0  0
 39 64  1  0  0  0
 39 67  2  0  0  0
 40 52  1  0  0  0
 40 53  2  0  0  0
 40 58  1  0  0  0
 41106  1  0  0  0
 41107  1  0  0  0
 41108  1  0  0  0
 41 48  1  0  0  0
 42 43  1  0  0  0
 42 66  1  0  0  0
 42109  1  0  0  0
 42110  1  0  0  0
 43 44  1  0  0  0
 44111  1  0  0  0
 45 46  2  0  0  0
 45112  1  0  0  0
 46113  1  0  0  0
 47114  1  0  0  0
 47115  1  0  0  0
 48 56  1  0  0  0
 48 65  1  0  0  0
 48116  1  0  0  0
 49 50  1  0  0  0
 49 53  1  0  0  0
 49 64  1  0  0  0
 49117  1  0  0  0
 50 51  1  0  0  0
 50118  1  0  0  0
 50119  1  0  0  0
 51 52  1  0  0  0
 51120  1  0  0  0
 51121  1  0  0  0
 52122  1  0  0  0
 52123  1  0  0  0
 53 54  1  0  0  0
 54 55  2  0  0  0
 54124  1  0  0  0
 55 57  1  0  0  0
 55125  1  0  0  0
 56 69  2  0  0  0
 57 58  2  0  0  0
 57126  1  0  0  0
 58127  1  0  0  0
 59 60  1  0  0  0
 59 61  1  0  0  0
 59 62  1  0  0  0
 60128  1  0  0  0
 60129  1  0  0  0
 60130  1  0  0  0
 61131  1  0  0  0
 61132  1  0  0  0
 61133  1  0  0  0
 62134  1  0  0  0
 62135  1  0  0  0
 62136  1  0  0  0
 63 65  1  0  0  0
 63137  1  0  0  0
 63138  1  0  0  0
 63139  1  0  0  0
 64140  1  0  0  0
 65141  1  0  0  0
 68 77  1  0  0  0
 71 72  1  0  0  0
 71 74  1  0  0  0
 71142  1  0  0  0
 71143  1  0  0  0
 72 82  1  0  0  0
 72144  1  0  0  0
 72145  1  0  0  0
 73 75  1  0  0  0
 73 82  1  0  0  0
 73146  1  0  0  0
 73147  1  0  0  0
 74 75  1  0  0  0
 74 76  1  0  0  0
 74148  1  0  0  0
 75 77  1  0  0  0
 75149  1  0  0  0
 76150  1  0  0  0
 76151  1  0  0  0
 76152  1  0  0  0
 77153  1  0  0  0
 77154  1  0  0  0
 78 79  1  0  0  0
 78 80  1  0  0  0
 78155  1  0  0  0
 78156  1  0  0  0
 79 81  1  0  0  0
 79157  1  0  0  0
 79158  1  0  0  0
 80159  1  0  0  0
 80160  1  0  0  0
 80 82  1  0  0  0
 81161  1  0  0  0
 82162  1  0  0  0
M  CHG  1  82   1
M  ISO  4   1 100  68 101  77 101  81 100
M  END
> <chiral flag>
0

> <version>
0

> <s_m_source_file>
/data/baiqing/PycharmProjects/Reinvent-master-3.2/result/LINK_invent/BTK/process_docking_weight1_custom_sum_contain_oxygen_bond_distance_aromatic_linkinvent_7_9_3/rearranged_h_0129.sdf

> <i_m_source_file_index>
86

> <r_mmod_Potential_Energy-OPLS-2005>
54.6648063659668

> <r_mmod_Stretch_Energy-OPLS-2005>
103.633186340332

> <r_mmod_Bend_Energy-OPLS-2005>
161.490615844727

> <r_mmod_Torsional_Energy-OPLS-2005>
269.445983886719

> <r_mmod_Improper_Torsional_Energy-OPLS-2005>
4.26088380813599

> <r_mmod_Van_der_Waal_Energy-OPLS-2005>
119.474899291992

> <r_mmod_Electrostatic_Energy-OPLS-2005>
-210.304733276367

> <r_mmod_Solvation_Energy-OPLS-2005>
-452.571563720703

> <b_mmod_Minimization_Converged-OPLS-2005>
0

> <r_mmod_RMS_Derivative-OPLS-2005>
3.438809633255

$$$$
87
                    3D
 Structure written by MMmdl.
177186  0  0  1  0            999 V2000
  -30.6670  -14.4766   20.5696 C   0  0  0  0  0  0
  -30.4298  -12.3114   19.4046 C   0  0  0  0  0  0
  -29.4921  -12.5047   18.1944 C   0  0  0  0  0  0
  -28.0121  -12.3650   18.6088 C   0  0  0  0  0  0
  -27.6602  -13.1968   19.8704 C   0  0  2  0  0  0
  -28.7030  -12.9563   20.9834 C   0  0  0  0  0  0
  -25.2606  -13.8124   20.5665 C   0  0  0  0  0  0
  -24.1844  -13.0422   20.9172 C   0  0  0  0  0  0
  -24.6382  -11.6886   20.8719 C   0  0  0  0  0  0
  -23.9036  -10.4278   21.0394 C   0  0  0  0  0  0
  -24.3595   -9.4203   21.9176 C   0  0  0  0  0  0
  -23.6277   -8.2236   22.0754 C   0  0  0  0  0  0
  -22.4263   -8.0266   21.3537 C   0  0  0  0  0  0
  -21.9887   -9.0235   20.4641 C   0  0  0  0  0  0
  -22.7209  -10.2119   20.3044 C   0  0  0  0  0  0
  -21.6853   -6.0726   22.5279 C   0  0  0  0  0  0
  -21.4011   -6.5633   23.8210 C   0  0  0  0  0  0
  -21.3655   -5.6788   24.9169 C   0  0  0  0  0  0
  -21.6051   -4.3052   24.7223 C   0  0  0  0  0  0
  -21.8820   -3.8138   23.4346 C   0  0  0  0  0  0
  -21.9193   -4.6952   22.3403 C   0  0  0  0  0  0
  -22.7871  -13.5236   21.1848 C   0  0  0  0  0  0
  -22.1664   -4.2136   21.0979 F   0  0  0  0  0  0
  -21.5631   -3.4539   25.7737 F   0  0  0  0  0  0
  -30.0279  -13.2840   20.4297 N   0  0  0  0  0  0
  -26.3015  -12.9276   20.3326 N   0  0  0  0  0  0
  -25.9300  -11.6445   20.5730 N   0  0  0  0  0  0
  -22.0509  -12.8213   22.0394 N   0  0  0  0  0  0
  -25.4359  -15.1841   20.4088 N   0  0  0  0  0  0
  -31.8060  -14.6909   20.1445 O   0  0  0  0  0  0
  -21.6637   -6.8862   21.4237 O   0  0  0  0  0  0
  -22.3560  -14.5555   20.6720 O   0  0  0  0  0  0
  -24.6149  -31.8674   23.2093 C   0  0  0  0  0  0
  -25.9031  -32.4824   23.8394 C   0  0  1  0  0  0
  -27.2385  -27.4357   20.0956 C   0  0  0  0  0  0
  -25.5903  -33.8626   24.2346 N   0  0  0  0  0  0
  -23.4046  -30.4898   21.5485 C   0  0  2  0  0  0
  -24.8530  -28.9494   20.1196 C   0  0  0  0  0  0
  -22.7421  -29.4658   22.4989 C   0  0  0  0  0  0
  -18.0269  -28.1373   22.8486 C   0  0  0  0  0  0
  -24.1471  -36.7284   23.2646 C   0  0  0  0  0  0
  -25.9333  -30.8321   21.3626 C   0  0  0  0  0  0
  -26.0118  -29.4621   20.7164 C   0  0  0  0  0  0
  -27.2096  -28.7116   20.7061 C   0  0  0  0  0  0
  -26.0676  -26.9367   19.4929 C   0  0  0  0  0  0
  -24.8743  -27.6837   19.5064 C   0  0  0  0  0  0
  -23.6157  -29.8170   20.1652 C   0  0  0  0  0  0
  -25.4096  -36.3120   24.0353 C   0  0  1  0  0  0
  -20.5865  -28.3645   23.1315 C   0  0  2  0  0  0
  -20.6766  -26.9383   22.5419 C   0  0  0  0  0  0
  -19.5748  -26.6383   21.5216 C   0  0  0  0  0  0
  -18.1911  -26.7927   22.1611 C   0  0  0  0  0  0
  -19.1522  -28.8825   23.2897 C   0  0  0  0  0  0
  -18.9462  -30.1435   23.8908 C   0  0  0  0  0  0
  -17.6467  -30.6585   24.0545 C   0  0  0  0  0  0
  -25.9039  -34.9480   23.5152 C   0  0  0  0  0  0
  -16.5349  -29.9084   23.6320 C   0  0  0  0  0  0
  -16.7260  -28.6490   23.0360 C   0  0  0  0  0  0
  -26.4462  -31.6602   25.0715 C   0  0  0  0  0  0
  -25.3738  -31.3688   26.1469 C   0  0  0  0  0  0
  -27.0304  -30.3062   24.6066 C   0  0  0  0  0  0
  -27.6056  -32.4321   25.7469 C   0  0  0  0  0  0
  -27.5567  -37.1797   24.8481 C   0  0  0  0  0  0
  -21.4144  -29.3024   22.3722 N   0  0  0  0  0  0
  -26.4275  -37.3810   23.9432 N   0  0  0  0  0  0
  -24.6687  -31.0783   22.0977 N   0  0  0  0  0  0
  -23.4190  -28.8196   23.3027 O   0  0  0  0  0  0
  -28.3865  -26.6812   20.0381 O   0  0  0  0  0  0
  -26.5594  -34.8928   22.4711 O   0  0  0  0  0  0
  -23.5331  -32.1406   23.7486 O   0  0  0  0  0  0
  -30.0720  -23.9989   20.1238 C   0  0  0  0  0  0
  -30.4264  -22.6817   19.7626 C   0  0  0  0  0  0
  -28.2534  -21.9133   20.4982 C   0  0  0  0  0  0
  -27.8762  -23.2339   20.8696 C   0  0  0  0  0  0
  -28.8107  -24.3018   20.6905 C   0  0  0  0  0  0
  -29.5223  -21.6203   19.9625 C   0  0  0  0  0  0
  -24.7427  -22.0130   20.4631 C   0  0  0  0  0  0
  -25.3964  -23.3805   20.3157 C   0  0  0  0  0  0
  -24.8432  -21.7502   21.9635 C   0  0  0  0  0  0
  -26.4599  -23.4370   21.4276 C   0  0  1  0  0  0
  -27.5698  -23.2644   24.2599 C   0  0  0  0  0  0
  -25.8137  -21.5494   24.7673 C   0  0  0  0  0  0
  -28.5652  -25.7622   21.1222 C   0  0  0  0  0  0
  -29.8439  -17.8643   20.2563 C   0  0  0  0  0  0
  -30.0013  -19.3419   20.7054 C   0  0  0  0  0  0
  -30.2545  -16.8554   21.3630 C   0  0  0  0  0  0
  -26.1804  -22.7359   23.8505 C   0  0  0  0  0  0
  -29.8724  -20.3049   19.6054 N   0  0  0  0  0  0
  -29.8985  -15.4581   21.0781 N   0  0  0  0  0  0
  -26.1214  -22.3622   22.4044 N   0  3  1  0  0  0
  -31.4717  -12.4331   19.1030 H   0  0  0  0  0  0
  -30.3486  -11.2964   19.7966 H   0  0  0  0  0  0
  -29.7304  -11.7818   17.4139 H   0  0  0  0  0  0
  -29.6567  -13.4900   17.7563 H   0  0  0  0  0  0
  -27.8192  -11.3084   18.7972 H   0  0  0  0  0  0
  -27.3623  -12.6459   17.7787 H   0  0  0  0  0  0
  -27.7079  -14.2459   19.5794 H   0  0  0  0  0  0
  -28.6888  -11.9102   21.2951 H   0  0  0  0  0  0
  -28.4666  -13.5257   21.8828 H   0  0  0  0  0  0
  -25.2736   -9.5691   22.4749 H   0  0  0  0  0  0
  -23.9993   -7.4628   22.7476 H   0  0  0  0  0  0
  -21.0817   -8.8733   19.8946 H   0  0  0  0  0  0
  -22.3651  -10.9648   19.6149 H   0  0  0  0  0  0
  -21.2001   -7.6139   23.9703 H   0  0  0  0  0  0
  -21.1481   -6.0521   25.9071 H   0  0  0  0  0  0
  -22.0605   -2.7599   23.2849 H   0  0  0  0  0  0
  -22.4114  -11.9851   22.4741 H   0  0  0  0  0  0
  -21.1136  -13.1246   22.2627 H   0  0  0  0  0  0
  -24.6717  -15.8420   20.5194 H   0  0  0  0  0  0
  -26.2868  -15.6183   20.0746 H   0  0  0  0  0  0
  -26.7096  -32.5524   23.1152 H   0  0  0  0  0  0
  -25.0102  -33.9805   25.0524 H   0  0  0  0  0  0
  -22.6941  -31.3057   21.4054 H   0  0  0  0  0  0
  -23.3765  -35.9591   23.3332 H   0  0  0  0  0  0
  -24.3561  -36.8867   22.2058 H   0  0  0  0  0  0
  -23.7190  -37.6484   23.6631 H   0  0  0  0  0  0
  -26.0483  -31.5946   20.5894 H   0  0  0  0  0  0
  -26.8222  -30.8896   21.9792 H   0  0  0  0  0  0
  -28.1091  -29.1058   21.1590 H   0  0  0  0  0  0
  -26.0846  -25.9718   19.0067 H   0  0  0  0  0  0
  -23.9841  -27.2835   19.0418 H   0  0  0  0  0  0
  -23.7241  -30.5905   19.4039 H   0  0  0  0  0  0
  -22.7397  -29.2379   19.8691 H   0  0  0  0  0  0
  -25.1277  -36.1985   25.0849 H   0  0  0  0  0  0
  -20.9945  -28.3197   24.1438 H   0  0  0  0  0  0
  -20.5665  -26.2254   23.3599 H   0  0  0  0  0  0
  -21.6630  -26.7431   22.1207 H   0  0  0  0  0  0
  -19.6900  -25.6307   21.1217 H   0  0  0  0  0  0
  -19.6684  -27.3213   20.6768 H   0  0  0  0  0  0
  -17.4191  -26.6687   21.3997 H   0  0  0  0  0  0
  -18.0270  -26.0074   22.9006 H   0  0  0  0  0  0
  -19.7949  -30.7233   24.2283 H   0  0  0  0  0  0
  -17.5033  -31.6270   24.5153 H   0  0  0  0  0  0
  -15.5357  -30.2993   23.7666 H   0  0  0  0  0  0
  -15.8651  -28.0814   22.7096 H   0  0  0  0  0  0
  -24.5948  -30.6987   25.7814 H   0  0  0  0  0  0
  -24.8882  -32.2835   26.4897 H   0  0  0  0  0  0
  -25.8117  -30.8898   27.0239 H   0  0  0  0  0  0
  -26.2840  -29.6811   24.1155 H   0  0  0  0  0  0
  -27.4159  -29.7300   25.4490 H   0  0  0  0  0  0
  -27.8627  -30.4439   23.9160 H   0  0  0  0  0  0
  -27.2710  -33.3638   26.2040 H   0  0  0  0  0  0
  -28.3863  -32.6847   25.0283 H   0  0  0  0  0  0
  -28.0711  -31.8436   26.5388 H   0  0  0  0  0  0
  -28.2619  -38.0062   24.7541 H   0  0  0  0  0  0
  -28.1028  -36.2613   24.6301 H   0  0  0  0  0  0
  -27.2289  -37.1445   25.8882 H   0  0  0  0  0  0
  -20.9290  -29.8732   21.6937 H   0  0  0  0  0  0
  -26.0165  -38.2886   24.1457 H   0  0  0  0  0  0
  -30.7926  -24.7904   19.9784 H   0  0  0  0  0  0
  -31.4047  -22.4965   19.3391 H   0  0  0  0  0  0
  -27.5564  -21.0959   20.6005 H   0  0  0  0  0  0
  -25.3112  -21.2657   19.9096 H   0  0  0  0  0  0
  -23.7164  -21.9889   20.0966 H   0  0  0  0  0  0
  -24.6430  -24.1487   20.4981 H   0  0  0  0  0  0
  -25.8003  -23.5581   19.3183 H   0  0  0  0  0  0
  -24.8013  -20.6850   22.1964 H   0  0  0  0  0  0
  -24.0058  -22.2347   22.4676 H   0  0  0  0  0  0
  -26.3486  -24.3979   21.9221 H   0  0  0  0  0  0
  -27.5868  -23.5115   25.3216 H   0  0  0  0  0  0
  -27.8454  -24.1737   23.7276 H   0  0  0  0  0  0
  -28.3501  -22.5229   24.0858 H   0  0  0  0  0  0
  -25.8724  -21.8397   25.8164 H   0  0  0  0  0  0
  -26.4947  -20.7098   24.6217 H   0  0  0  0  0  0
  -24.7972  -21.1913   24.6033 H   0  0  0  0  0  0
  -29.4658  -26.0889   21.6441 H   0  0  0  0  0  0
  -27.7871  -25.8633   21.8761 H   0  0  0  0  0  0
  -30.4507  -17.6759   19.3701 H   0  0  0  0  0  0
  -28.8068  -17.6932   19.9604 H   0  0  0  0  0  0
  -30.9879  -19.4753   21.1518 H   0  0  0  0  0  0
  -29.2810  -19.5573   21.4968 H   0  0  0  0  0  0
  -29.7486  -17.1237   22.2917 H   0  0  0  0  0  0
  -31.3217  -16.9361   21.5721 H   0  0  0  0  0  0
  -25.4543  -23.5330   24.0220 H   0  0  0  0  0  0
  -30.6735  -20.2726   18.9791 H   0  0  0  0  0  0
  -28.9618  -15.1768   21.3274 H   0  0  0  0  0  0
  -26.8337  -21.6625   22.2564 H   0  0  0  0  0  0
  1 25  1  0  0  0
  1 30  2  0  0  0
  1 89  1  0  0  0
  2  3  1  0  0  0
  2 25  1  0  0  0
  2 91  1  0  0  0
  2 92  1  0  0  0
  3  4  1  0  0  0
  3 93  1  0  0  0
  3 94  1  0  0  0
  4  5  1  0  0  0
  4 95  1  0  0  0
  4 96  1  0  0  0
  5  6  1  0  0  0
  5 26  1  0  0  0
  5 97  1  0  0  0
  6 25  1  0  0  0
  6 98  1  0  0  0
  6 99  1  0  0  0
  7  8  2  0  0  0
  7 26  1  0  0  0
  7 29  1  0  0  0
  8  9  1  0  0  0
  8 22  1  0  0  0
  9 10  1  0  0  0
  9 27  2  0  0  0
 10 11  2  0  0  0
 10 15  1  0  0  0
 11 12  1  0  0  0
 11100  1  0  0  0
 12 13  2  0  0  0
 12101  1  0  0  0
 13 14  1  0  0  0
 13 31  1  0  0  0
 14 15  2  0  0  0
 14102  1  0  0  0
 15103  1  0  0  0
 16 17  2  0  0  0
 16 21  1  0  0  0
 16 31  1  0  0  0
 17 18  1  0  0  0
 17104  1  0  0  0
 18 19  2  0  0  0
 18105  1  0  0  0
 19 20  1  0  0  0
 19 24  1  0  0  0
 20 21  2  0  0  0
 20106  1  0  0  0
 21 23  1  0  0  0
 22 28  1  0  0  0
 22 32  2  0  0  0
 26 27  1  0  0  0
 28107  1  0  0  0
 28108  1  0  0  0
 29109  1  0  0  0
 29110  1  0  0  0
 33 34  1  0  0  0
 33 66  1  0  0  0
 33 70  2  0  0  0
 34 36  1  0  0  0
 34 59  1  0  0  0
 34111  1  0  0  0
 35 44  2  0  0  0
 35 45  1  0  0  0
 35 68  1  0  0  0
 36 56  1  0  0  0
 36112  1  0  0  0
 37 39  1  0  0  0
 37 47  1  0  0  0
 37 66  1  0  0  0
 37113  1  0  0  0
 38 43  2  0  0  0
 38 46  1  0  0  0
 38 47  1  0  0  0
 39 64  1  0  0  0
 39 67  2  0  0  0
 40 52  1  0  0  0
 40 53  2  0  0  0
 40 58  1  0  0  0
 41114  1  0  0  0
 41115  1  0  0  0
 41116  1  0  0  0
 41 48  1  0  0  0
 42 43  1  0  0  0
 42 66  1  0  0  0
 42117  1  0  0  0
 42118  1  0  0  0
 43 44  1  0  0  0
 44119  1  0  0  0
 45 46  2  0  0  0
 45120  1  0  0  0
 46121  1  0  0  0
 47122  1  0  0  0
 47123  1  0  0  0
 48 56  1  0  0  0
 48 65  1  0  0  0
 48124  1  0  0  0
 49 50  1  0  0  0
 49 53  1  0  0  0
 49 64  1  0  0  0
 49125  1  0  0  0
 50 51  1  0  0  0
 50126  1  0  0  0
 50127  1  0  0  0
 51 52  1  0  0  0
 51128  1  0  0  0
 51129  1  0  0  0
 52130  1  0  0  0
 52131  1  0  0  0
 53 54  1  0  0  0
 54 55  2  0  0  0
 54132  1  0  0  0
 55 57  1  0  0  0
 55133  1  0  0  0
 56 69  2  0  0  0
 57 58  2  0  0  0
 57134  1  0  0  0
 58135  1  0  0  0
 59 60  1  0  0  0
 59 61  1  0  0  0
 59 62  1  0  0  0
 60136  1  0  0  0
 60137  1  0  0  0
 60138  1  0  0  0
 61139  1  0  0  0
 61140  1  0  0  0
 61141  1  0  0  0
 62142  1  0  0  0
 62143  1  0  0  0
 62144  1  0  0  0
 63 65  1  0  0  0
 63145  1  0  0  0
 63146  1  0  0  0
 63147  1  0  0  0
 64148  1  0  0  0
 65149  1  0  0  0
 68 83  1  0  0  0
 71 72  2  0  0  0
 71 75  1  0  0  0
 71150  1  0  0  0
 72 76  1  0  0  0
 72151  1  0  0  0
 73 74  1  0  0  0
 73 76  2  0  0  0
 73152  1  0  0  0
 74 75  2  0  0  0
 74 80  1  0  0  0
 75 83  1  0  0  0
 76 88  1  0  0  0
 77 78  1  0  0  0
 77 79  1  0  0  0
 77153  1  0  0  0
 77154  1  0  0  0
 78 80  1  0  0  0
 78155  1  0  0  0
 78156  1  0  0  0
 79157  1  0  0  0
 79158  1  0  0  0
 79 90  1  0  0  0
 80 90  1  0  0  0
 80159  1  0  0  0
 81160  1  0  0  0
 81161  1  0  0  0
 81162  1  0  0  0
 81 87  1  0  0  0
 82 87  1  0  0  0
 82163  1  0  0  0
 82164  1  0  0  0
 82165  1  0  0  0
 83166  1  0  0  0
 83167  1  0  0  0
 84 85  1  0  0  0
 84 86  1  0  0  0
 84168  1  0  0  0
 84169  1  0  0  0
 85 88  1  0  0  0
 85170  1  0  0  0
 85171  1  0  0  0
 86 89  1  0  0  0
 86172  1  0  0  0
 86173  1  0  0  0
 87 90  1  0  0  0
 87174  1  0  0  0
 88175  1  0  0  0
 89176  1  0  0  0
 90177  1  0  0  0
M  CHG  1  90   1
M  ISO  4   1 100  68 101  83 101  89 100
M  END
> <chiral flag>
0

> <version>
0

> <s_m_source_file>
/data/baiqing/PycharmProjects/Reinvent-master-3.2/result/LINK_invent/BTK/process_docking_weight1_custom_sum_contain_oxygen_bond_distance_aromatic_linkinvent_7_9_3/rearranged_h_0129.sdf

> <i_m_source_file_index>
87

> <r_mmod_Potential_Energy-OPLS-2005>
-70.1854934692383

> <r_mmod_Stretch_Energy-OPLS-2005>
41.5960273742676

> <r_mmod_Bend_Energy-OPLS-2005>
125.537536621094

> <r_mmod_Torsional_Energy-OPLS-2005>
312.857025146484

> <r_mmod_Improper_Torsional_Energy-OPLS-2005>
8.18641185760498

> <r_mmod_Van_der_Waal_Energy-OPLS-2005>
136.817672729492

> <r_mmod_Electrostatic_Energy-OPLS-2005>
-273.453643798828

> <r_mmod_Solvation_Energy-OPLS-2005>
-434.533111572266

> <b_mmod_Minimization_Converged-OPLS-2005>
0

> <r_mmod_RMS_Derivative-OPLS-2005>
2.38958716392517

$$$$
88
                    3D
 Structure written by MMmdl.
156164  0  0  1  0            999 V2000
  -30.4778  -15.1837   20.3832 C   0  0  0  0  0  0
  -30.4375  -12.7515   19.5225 C   0  0  0  0  0  0
  -29.5320  -12.5615   18.2812 C   0  0  0  0  0  0
  -28.0768  -12.3011   18.7071 C   0  0  0  0  0  0
  -27.6152  -13.2692   19.8257 C   0  0  2  0  0  0
  -28.6505  -13.4152   20.9610 C   0  0  0  0  0  0
  -25.2401  -13.8242   20.5734 C   0  0  0  0  0  0
  -24.1746  -13.0439   20.9248 C   0  0  0  0  0  0
  -24.6395  -11.6934   20.8758 C   0  0  0  0  0  0
  -23.9089  -10.4295   21.0409 C   0  0  0  0  0  0
  -24.3635   -9.4210   21.9189 C   0  0  0  0  0  0
  -23.6302   -8.2248   22.0759 C   0  0  0  0  0  0
  -22.4281   -8.0287   21.3550 C   0  0  0  0  0  0
  -21.9921   -9.0262   20.4651 C   0  0  0  0  0  0
  -22.7258  -10.2136   20.3060 C   0  0  0  0  0  0
  -21.6854   -6.0740   22.5280 C   0  0  0  0  0  0
  -21.4018   -6.5643   23.8215 C   0  0  0  0  0  0
  -21.3661   -5.6794   24.9175 C   0  0  0  0  0  0
  -21.6042   -4.3057   24.7225 C   0  0  0  0  0  0
  -21.8818   -3.8151   23.4344 C   0  0  0  0  0  0
  -21.9192   -4.6967   22.3401 C   0  0  0  0  0  0
  -22.7763  -13.5197   21.1895 C   0  0  0  0  0  0
  -22.1660   -4.2155   21.0976 F   0  0  0  0  0  0
  -21.5628   -3.4540   25.7738 F   0  0  0  0  0  0
  -29.8944  -13.8933   20.3394 N   0  0  0  0  0  0
  -26.2827  -12.9507   20.3220 N   0  0  0  0  0  0
  -25.9329  -11.6618   20.5728 N   0  0  0  0  0  0
  -22.0414  -12.8187   22.0448 N   0  0  0  0  0  0
  -25.4038  -15.1976   20.4164 N   0  0  0  0  0  0
  -31.6953  -15.1836   20.1603 O   0  0  0  0  0  0
  -21.6641   -6.8884   21.4243 O   0  0  0  0  0  0
  -22.3444  -14.5495   20.6730 O   0  0  0  0  0  0
  -24.6590  -31.8288   23.1753 C   0  0  0  0  0  0
  -25.9289  -32.4612   23.8205 C   0  0  1  0  0  0
  -27.2144  -26.9740   20.1747 C   0  0  0  0  0  0
  -25.5977  -33.8426   24.2110 N   0  0  0  0  0  0
  -23.4710  -30.4438   21.5239 C   0  0  2  0  0  0
  -24.9242  -28.8445   20.1106 C   0  0  0  0  0  0
  -22.7644  -29.4470   22.4793 C   0  0  0  0  0  0
  -18.0320  -28.1401   22.8463 C   0  0  0  0  0  0
  -24.1499  -36.7222   23.2645 C   0  0  0  0  0  0
  -26.0389  -30.6500   21.4005 C   0  0  0  0  0  0
  -26.1077  -29.2458   20.7428 C   0  0  0  0  0  0
  -27.2500  -28.3310   20.7530 C   0  0  0  0  0  0
  -26.0030  -26.7210   19.4903 C   0  0  0  0  0  0
  -24.8952  -27.6010   19.4640 C   0  0  0  0  0  0
  -23.7082  -29.7661   20.1477 C   0  0  0  0  0  0
  -25.4135  -36.2980   24.0302 C   0  0  1  0  0  0
  -20.5943  -28.3747   23.1191 C   0  0  2  0  0  0
  -20.6798  -26.9431   22.5397 C   0  0  0  0  0  0
  -19.5771  -26.6373   21.5209 C   0  0  0  0  0  0
  -18.1954  -26.7933   22.1620 C   0  0  0  0  0  0
  -19.1581  -28.8893   23.2814 C   0  0  0  0  0  0
  -18.9490  -30.1483   23.8850 C   0  0  0  0  0  0
  -17.6484  -30.6590   24.0554 C   0  0  0  0  0  0
  -25.9097  -34.9361   23.5023 C   0  0  0  0  0  0
  -16.5375  -29.9078   23.6340 C   0  0  0  0  0  0
  -16.7303  -28.6498   23.0357 C   0  0  0  0  0  0
  -26.4556  -31.6535   25.0712 C   0  0  0  0  0  0
  -25.3695  -31.3772   26.1374 C   0  0  0  0  0  0
  -27.0444  -30.2904   24.6419 C   0  0  0  0  0  0
  -27.6057  -32.4336   25.7509 C   0  0  0  0  0  0
  -27.5574  -37.1766   24.8462 C   0  0  0  0  0  0
  -21.4319  -29.3046   22.3543 N   0  0  0  0  0  0
  -26.4285  -37.3710   23.9403 N   0  0  0  0  0  0
  -24.7439  -30.9996   22.0871 N   0  0  0  0  0  0
  -23.4212  -28.8034   23.3017 O   0  0  0  0  0  0
  -28.2035  -25.8705   20.2579 O   0  0  0  0  0  0
  -26.5699  -34.8885   22.4613 O   0  0  0  0  0  0
  -23.5668  -32.1246   23.6869 O   0  0  0  0  0  0
  -29.1007  -21.9471   19.1560 C   0  0  0  0  0  0
  -29.4971  -20.5212   19.2045 C   0  0  0  0  0  0
  -28.4974  -21.8411   21.3693 C   0  0  0  0  0  0
  -28.5719  -22.7595   20.2372 C   0  0  0  0  0  0
  -29.4270  -19.6017   20.3313 C   0  0  0  0  0  0
  -28.8943  -20.4014   21.4358 C   0  0  0  0  0  0
  -27.3006  -19.6992   23.2851 C   0  0  0  0  0  0
  -29.7074  -20.3149   23.8310 C   0  0  0  0  0  0
  -30.1753  -18.0315   20.3503 C   0  0  0  0  0  0
  -27.8025  -24.3072   20.0744 C   0  0  0  0  0  0
  -28.7552  -19.7084   22.7894 C   0  0  0  0  0  0
  -29.7382  -16.4515   20.4700 N   0  0  0  0  0  0
  -31.4620  -12.9380   19.1973 H   0  0  0  0  0  0
  -30.4812  -11.8363   20.1156 H   0  0  0  0  0  0
  -29.8969  -11.7384   17.6653 H   0  0  0  0  0  0
  -29.5772  -13.4556   17.6576 H   0  0  0  0  0  0
  -28.0199  -11.2731   19.0671 H   0  0  0  0  0  0
  -27.4092  -12.3614   17.8469 H   0  0  0  0  0  0
  -27.5408  -14.2434   19.3415 H   0  0  0  0  0  0
  -28.7965  -12.4735   21.4922 H   0  0  0  0  0  0
  -28.3050  -14.1400   21.6997 H   0  0  0  0  0  0
  -25.2779   -9.5686   22.4769 H   0  0  0  0  0  0
  -24.0009   -7.4638   22.7479 H   0  0  0  0  0  0
  -21.0854   -8.8786   19.8956 H   0  0  0  0  0  0
  -22.3719  -10.9678   19.6174 H   0  0  0  0  0  0
  -21.2014   -7.6153   23.9720 H   0  0  0  0  0  0
  -21.1482   -6.0525   25.9079 H   0  0  0  0  0  0
  -22.0594   -2.7613   23.2841 H   0  0  0  0  0  0
  -22.4036  -11.9866   22.4861 H   0  0  0  0  0  0
  -21.1029  -13.1211   22.2644 H   0  0  0  0  0  0
  -24.6330  -15.8467   20.5314 H   0  0  0  0  0  0
  -26.2423  -15.6402   20.0642 H   0  0  0  0  0  0
  -26.7354  -32.5165   23.0920 H   0  0  0  0  0  0
  -25.0071  -33.9521   25.0223 H   0  0  0  0  0  0
  -22.7811  -31.2738   21.3578 H   0  0  0  0  0  0
  -23.3767  -35.9547   23.3279 H   0  0  0  0  0  0
  -24.3580  -36.8894   22.2065 H   0  0  0  0  0  0
  -23.7256  -37.6404   23.6717 H   0  0  0  0  0  0
  -26.2156  -31.3952   20.6240 H   0  0  0  0  0  0
  -26.9002  -30.7036   22.0545 H   0  0  0  0  0  0
  -28.1443  -28.6333   21.2796 H   0  0  0  0  0  0
  -25.8651  -25.7758   18.9883 H   0  0  0  0  0  0
  -23.9969  -27.2887   18.9490 H   0  0  0  0  0  0
  -23.8593  -30.5380   19.3923 H   0  0  0  0  0  0
  -22.8191  -29.2183   19.8302 H   0  0  0  0  0  0
  -25.1333  -36.1783   25.0794 H   0  0  0  0  0  0
  -21.0034  -28.3352   24.1314 H   0  0  0  0  0  0
  -20.5675  -26.2367   23.3636 H   0  0  0  0  0  0
  -21.6662  -26.7406   22.1207 H   0  0  0  0  0  0
  -19.6933  -25.6273   21.1266 H   0  0  0  0  0  0
  -19.6706  -27.3158   20.6718 H   0  0  0  0  0  0
  -17.4221  -26.6671   21.4026 H   0  0  0  0  0  0
  -18.0353  -26.0086   22.9028 H   0  0  0  0  0  0
  -19.7966  -30.7310   24.2199 H   0  0  0  0  0  0
  -17.5036  -31.6265   24.5162 H   0  0  0  0  0  0
  -15.5373  -30.2963   23.7687 H   0  0  0  0  0  0
  -15.8705  -28.0799   22.7100 H   0  0  0  0  0  0
  -24.5893  -30.7104   25.7687 H   0  0  0  0  0  0
  -24.8868  -32.2967   26.4692 H   0  0  0  0  0  0
  -25.7940  -30.9012   27.0223 H   0  0  0  0  0  0
  -26.3102  -29.6584   24.1410 H   0  0  0  0  0  0
  -27.3967  -29.7259   25.5064 H   0  0  0  0  0  0
  -27.9050  -30.4085   23.9832 H   0  0  0  0  0  0
  -27.2630  -33.3673   26.1979 H   0  0  0  0  0  0
  -28.3922  -32.6836   25.0376 H   0  0  0  0  0  0
  -28.0664  -31.8532   26.5514 H   0  0  0  0  0  0
  -28.2570  -38.0082   24.7506 H   0  0  0  0  0  0
  -28.1091  -36.2608   24.6291 H   0  0  0  0  0  0
  -27.2288  -37.1408   25.8864 H   0  0  0  0  0  0
  -20.9563  -29.8752   21.6693 H   0  0  0  0  0  0
  -26.0136  -38.2770   24.1404 H   0  0  0  0  0  0
  -29.1867  -22.4333   18.1942 H   0  0  0  0  0  0
  -29.9064  -20.1170   18.2891 H   0  0  0  0  0  0
  -28.0756  -22.2674   22.2680 H   0  0  0  0  0  0
  -26.6420  -19.2311   22.5524 H   0  0  0  0  0  0
  -26.9233  -20.7034   23.4773 H   0  0  0  0  0  0
  -27.2088  -19.1358   24.2142 H   0  0  0  0  0  0
  -30.7424  -20.2632   23.4906 H   0  0  0  0  0  0
  -29.6471  -19.7776   24.7780 H   0  0  0  0  0  0
  -29.4772  -21.3612   24.0326 H   0  0  0  0  0  0
  -30.9221  -18.1324   21.1387 H   0  0  0  0  0  0
  -30.7759  -18.0388   19.4402 H   0  0  0  0  0  0
  -26.9030  -24.1991   20.6814 H   0  0  0  0  0  0
  -27.4425  -24.2607   19.0472 H   0  0  0  0  0  0
  -29.0423  -18.6633   22.6720 H   0  0  0  0  0  0
  -28.7465  -16.3193   20.6013 H   0  0  0  0  0  0
  1 25  1  0  0  0
  1 30  2  0  0  0
  1 82  1  0  0  0
  2  3  1  0  0  0
  2 25  1  0  0  0
  2 83  1  0  0  0
  2 84  1  0  0  0
  3  4  1  0  0  0
  3 85  1  0  0  0
  3 86  1  0  0  0
  4  5  1  0  0  0
  4 87  1  0  0  0
  4 88  1  0  0  0
  5  6  1  0  0  0
  5 26  1  0  0  0
  5 89  1  0  0  0
  6 25  1  0  0  0
  6 90  1  0  0  0
  6 91  1  0  0  0
  7  8  2  0  0  0
  7 26  1  0  0  0
  7 29  1  0  0  0
  8  9  1  0  0  0
  8 22  1  0  0  0
  9 10  1  0  0  0
  9 27  2  0  0  0
 10 11  2  0  0  0
 10 15  1  0  0  0
 11 12  1  0  0  0
 11 92  1  0  0  0
 12 13  2  0  0  0
 12 93  1  0  0  0
 13 14  1  0  0  0
 13 31  1  0  0  0
 14 15  2  0  0  0
 14 94  1  0  0  0
 15 95  1  0  0  0
 16 17  2  0  0  0
 16 21  1  0  0  0
 16 31  1  0  0  0
 17 18  1  0  0  0
 17 96  1  0  0  0
 18 19  2  0  0  0
 18 97  1  0  0  0
 19 20  1  0  0  0
 19 24  1  0  0  0
 20 21  2  0  0  0
 20 98  1  0  0  0
 21 23  1  0  0  0
 22 28  1  0  0  0
 22 32  2  0  0  0
 26 27  1  0  0  0
 28 99  1  0  0  0
 28100  1  0  0  0
 29101  1  0  0  0
 29102  1  0  0  0
 33 34  1  0  0  0
 33 66  1  0  0  0
 33 70  2  0  0  0
 34 36  1  0  0  0
 34 59  1  0  0  0
 34103  1  0  0  0
 35 44  2  0  0  0
 35 45  1  0  0  0
 35 68  1  0  0  0
 36 56  1  0  0  0
 36104  1  0  0  0
 37 39  1  0  0  0
 37 47  1  0  0  0
 37 66  1  0  0  0
 37105  1  0  0  0
 38 43  2  0  0  0
 38 46  1  0  0  0
 38 47  1  0  0  0
 39 64  1  0  0  0
 39 67  2  0  0  0
 40 52  1  0  0  0
 40 53  2  0  0  0
 40 58  1  0  0  0
 41106  1  0  0  0
 41107  1  0  0  0
 41108  1  0  0  0
 41 48  1  0  0  0
 42 43  1  0  0  0
 42 66  1  0  0  0
 42109  1  0  0  0
 42110  1  0  0  0
 43 44  1  0  0  0
 44111  1  0  0  0
 45 46  2  0  0  0
 45112  1  0  0  0
 46113  1  0  0  0
 47114  1  0  0  0
 47115  1  0  0  0
 48 56  1  0  0  0
 48 65  1  0  0  0
 48116  1  0  0  0
 49 50  1  0  0  0
 49 53  1  0  0  0
 49 64  1  0  0  0
 49117  1  0  0  0
 50 51  1  0  0  0
 50118  1  0  0  0
 50119  1  0  0  0
 51 52  1  0  0  0
 51120  1  0  0  0
 51121  1  0  0  0
 52122  1  0  0  0
 52123  1  0  0  0
 53 54  1  0  0  0
 54 55  2  0  0  0
 54124  1  0  0  0
 55 57  1  0  0  0
 55125  1  0  0  0
 56 69  2  0  0  0
 57 58  2  0  0  0
 57126  1  0  0  0
 58127  1  0  0  0
 59 60  1  0  0  0
 59 61  1  0  0  0
 59 62  1  0  0  0
 60128  1  0  0  0
 60129  1  0  0  0
 60130  1  0  0  0
 61131  1  0  0  0
 61132  1  0  0  0
 61133  1  0  0  0
 62134  1  0  0  0
 62135  1  0  0  0
 62136  1  0  0  0
 63 65  1  0  0  0
 63137  1  0  0  0
 63138  1  0  0  0
 63139  1  0  0  0
 64140  1  0  0  0
 65141  1  0  0  0
 68 80  1  0  0  0
 71 72  2  0  0  0
 71 74  1  0  0  0
 71142  1  0  0  0
 72 75  1  0  0  0
 72143  1  0  0  0
 73 74  2  0  0  0
 73 76  1  0  0  0
 73144  1  0  0  0
 74 80  1  0  0  0
 75 76  2  0  0  0
 75 79  1  0  0  0
 76 81  1  0  0  0
 77145  1  0  0  0
 77146  1  0  0  0
 77147  1  0  0  0
 77 81  1  0  0  0
 78 81  1  0  0  0
 78148  1  0  0  0
 78149  1  0  0  0
 78150  1  0  0  0
 79 82  1  0  0  0
 79151  1  0  0  0
 79152  1  0  0  0
 80153  1  0  0  0
 80154  1  0  0  0
 81155  1  0  0  0
 82156  1  0  0  0
M  ISO  4   1 100  68 101  80 101  82 100
M  END
> <chiral flag>
0

> <version>
0

> <s_m_source_file>
/data/baiqing/PycharmProjects/Reinvent-master-3.2/result/LINK_invent/BTK/process_docking_weight1_custom_sum_contain_oxygen_bond_distance_aromatic_linkinvent_7_9_3/rearranged_h_0129.sdf

> <i_m_source_file_index>
88

> <r_mmod_Potential_Energy-OPLS-2005>
1004.16168212891

> <r_mmod_Stretch_Energy-OPLS-2005>
446.647705078125

> <r_mmod_Bend_Energy-OPLS-2005>
409.326324462891

> <r_mmod_Torsional_Energy-OPLS-2005>
229.932266235352

> <r_mmod_Improper_Torsional_Energy-OPLS-2005>
9.9353723526001

> <r_mmod_Van_der_Waal_Energy-OPLS-2005>
131.665344238281

> <r_mmod_Electrostatic_Energy-OPLS-2005>
-403.331939697266

> <r_mmod_Solvation_Energy-OPLS-2005>
-206.770065307617

> <b_mmod_Minimization_Converged-OPLS-2005>
0

> <r_mmod_RMS_Derivative-OPLS-2005>
0.605719923973083

$$$$
89
                    3D
 Structure written by MMmdl.
170178  0  0  1  0            999 V2000
  -30.6958  -14.4819   20.5494 C   0  0  0  0  0  0
  -30.4226  -12.3033   19.4358 C   0  0  0  0  0  0
  -29.5003  -12.4873   18.2126 C   0  0  0  0  0  0
  -28.0180  -12.3609   18.6191 C   0  0  0  0  0  0
  -27.6601  -13.2076   19.8710 C   0  0  2  0  0  0
  -28.7000  -13.0012   20.9970 C   0  0  0  0  0  0
  -25.2577  -13.8156   20.5667 C   0  0  0  0  0  0
  -24.1835  -13.0428   20.9190 C   0  0  0  0  0  0
  -24.6386  -11.6899   20.8747 C   0  0  0  0  0  0
  -23.9056  -10.4283   21.0406 C   0  0  0  0  0  0
  -24.3614   -9.4212   21.9187 C   0  0  0  0  0  0
  -23.6285   -8.2246   22.0742 C   0  0  0  0  0  0
  -22.4258   -8.0269   21.3545 C   0  0  0  0  0  0
  -21.9904   -9.0241   20.4628 C   0  0  0  0  0  0
  -22.7230  -10.2124   20.3046 C   0  0  0  0  0  0
  -21.6848   -6.0730   22.5290 C   0  0  0  0  0  0
  -21.4018   -6.5637   23.8224 C   0  0  0  0  0  0
  -21.3664   -5.6786   24.9183 C   0  0  0  0  0  0
  -21.6038   -4.3051   24.7230 C   0  0  0  0  0  0
  -21.8829   -3.8144   23.4352 C   0  0  0  0  0  0
  -21.9187   -4.6959   22.3410 C   0  0  0  0  0  0
  -22.7853  -13.5221   21.1841 C   0  0  0  0  0  0
  -22.1649   -4.2150   21.0988 F   0  0  0  0  0  0
  -21.5628   -3.4535   25.7748 F   0  0  0  0  0  0
  -30.0320  -13.2988   20.4462 N   0  0  0  0  0  0
  -26.3005  -12.9332   20.3325 N   0  0  0  0  0  0
  -25.9317  -11.6493   20.5757 N   0  0  0  0  0  0
  -22.0448  -12.8211   22.0356 N   0  0  0  0  0  0
  -25.4308  -15.1870   20.4061 N   0  0  0  0  0  0
  -31.8231  -14.6629   20.0834 O   0  0  0  0  0  0
  -21.6628   -6.8861   21.4243 O   0  0  0  0  0  0
  -22.3572  -14.5545   20.6695 O   0  0  0  0  0  0
  -24.6127  -31.8710   23.2111 C   0  0  0  0  0  0
  -25.9020  -32.4848   23.8420 C   0  0  1  0  0  0
  -27.2446  -27.4402   20.1053 C   0  0  0  0  0  0
  -25.5889  -33.8642   24.2361 N   0  0  0  0  0  0
  -23.4031  -30.4929   21.5494 C   0  0  2  0  0  0
  -24.8549  -28.9536   20.1235 C   0  0  0  0  0  0
  -22.7409  -29.4673   22.4972 C   0  0  0  0  0  0
  -18.0281  -28.1377   22.8486 C   0  0  0  0  0  0
  -24.1484  -36.7325   23.2644 C   0  0  0  0  0  0
  -25.9309  -30.8350   21.3659 C   0  0  0  0  0  0
  -26.0121  -29.4627   20.7289 C   0  0  0  0  0  0
  -27.2105  -28.7106   20.7295 C   0  0  0  0  0  0
  -26.0783  -26.9534   19.4842 C   0  0  0  0  0  0
  -24.8822  -27.6934   19.5002 C   0  0  0  0  0  0
  -23.6175  -29.8223   20.1647 C   0  0  0  0  0  0
  -25.4100  -36.3133   24.0348 C   0  0  1  0  0  0
  -20.5877  -28.3659   23.1306 C   0  0  2  0  0  0
  -20.6765  -26.9395   22.5396 C   0  0  0  0  0  0
  -19.5744  -26.6388   21.5201 C   0  0  0  0  0  0
  -18.1932  -26.7925   22.1619 C   0  0  0  0  0  0
  -19.1534  -28.8828   23.2905 C   0  0  0  0  0  0
  -18.9461  -30.1436   23.8909 C   0  0  0  0  0  0
  -17.6462  -30.6577   24.0567 C   0  0  0  0  0  0
  -25.9017  -34.9493   23.5150 C   0  0  0  0  0  0
  -16.5355  -29.9077   23.6322 C   0  0  0  0  0  0
  -16.7273  -28.6499   23.0341 C   0  0  0  0  0  0
  -26.4459  -31.6602   25.0718 C   0  0  0  0  0  0
  -25.3747  -31.3678   26.1478 C   0  0  0  0  0  0
  -27.0282  -30.3056   24.6046 C   0  0  0  0  0  0
  -27.6050  -32.4296   25.7475 C   0  0  0  0  0  0
  -27.5579  -37.1821   24.8469 C   0  0  0  0  0  0
  -21.4131  -29.3043   22.3711 N   0  0  0  0  0  0
  -26.4292  -37.3816   23.9414 N   0  0  0  0  0  0
  -24.6675  -31.0805   22.1020 N   0  0  0  0  0  0
  -23.4198  -28.8173   23.2973 O   0  0  0  0  0  0
  -28.3728  -26.6537   20.0177 O   0  0  0  0  0  0
  -26.5584  -34.8939   22.4714 O   0  0  0  0  0  0
  -23.5311  -32.1439   23.7494 O   0  0  0  0  0  0
  -25.6877  -22.9455   23.2934 C   0  0  0  0  0  0
  -26.4121  -22.2406   22.1425 C   0  0  0  0  0  0
  -25.7357  -24.4562   23.0922 C   0  0  0  0  0  0
  -27.8147  -24.1481   21.7648 C   0  0  1  0  0  0
  -30.2309  -24.5608   22.5968 C   0  0  0  0  0  0
  -28.5952  -21.7776   21.2144 C   0  0  0  0  0  0
  -30.2993  -16.9385   20.7443 C   0  0  0  0  0  0
  -28.7637  -20.3422   21.8300 C   0  0  0  0  0  0
  -29.3161  -17.9397   21.4098 C   0  0  0  0  0  0
  -29.0956  -26.3667   21.2148 C   0  0  0  0  0  0
  -29.1954  -24.8262   21.4844 C   0  0  2  0  0  0
  -27.8200  -22.6853   22.0954 N   0  0  0  0  0  0
  -29.9728  -15.5220   21.0087 N   0  0  0  0  0  0
  -27.1305  -24.8735   22.8677 N   0  3  0  0  0  0
  -29.5092  -19.3621   20.9923 N   0  3  0  0  0  0
  -31.4692  -12.3969   19.1412 H   0  0  0  0  0  0
  -30.3182  -11.2973   19.8459 H   0  0  0  0  0  0
  -29.7422  -11.7442   17.4521 H   0  0  0  0  0  0
  -29.6799  -13.4606   17.7555 H   0  0  0  0  0  0
  -27.8225  -11.3066   18.8162 H   0  0  0  0  0  0
  -27.3718  -12.6334   17.7837 H   0  0  0  0  0  0
  -27.6987  -14.2542   19.5659 H   0  0  0  0  0  0
  -28.6720  -11.9698   21.3520 H   0  0  0  0  0  0
  -28.4644  -13.6178   21.8666 H   0  0  0  0  0  0
  -25.2768   -9.5691   22.4769 H   0  0  0  0  0  0
  -23.9991   -7.4638   22.7470 H   0  0  0  0  0  0
  -21.0832   -8.8748   19.8933 H   0  0  0  0  0  0
  -22.3676  -10.9661   19.6146 H   0  0  0  0  0  0
  -21.2006   -7.6146   23.9734 H   0  0  0  0  0  0
  -21.1475   -6.0508   25.9081 H   0  0  0  0  0  0
  -22.0595   -2.7606   23.2850 H   0  0  0  0  0  0
  -22.4004  -11.9858   22.4785 H   0  0  0  0  0  0
  -21.1040  -13.1257   22.2470 H   0  0  0  0  0  0
  -24.6589  -15.8358   20.5067 H   0  0  0  0  0  0
  -26.2674  -15.6178   20.0349 H   0  0  0  0  0  0
  -26.7089  -32.5571   23.1189 H   0  0  0  0  0  0
  -25.0063  -33.9826   25.0518 H   0  0  0  0  0  0
  -22.6918  -31.3079   21.4035 H   0  0  0  0  0  0
  -23.3755  -35.9657   23.3315 H   0  0  0  0  0  0
  -24.3586  -36.8920   22.2060 H   0  0  0  0  0  0
  -23.7218  -37.6527   23.6631 H   0  0  0  0  0  0
  -26.0333  -31.5894   20.5840 H   0  0  0  0  0  0
  -26.8230  -30.9054   21.9748 H   0  0  0  0  0  0
  -28.1038  -29.1138   21.1875 H   0  0  0  0  0  0
  -26.1010  -25.9968   18.9836 H   0  0  0  0  0  0
  -23.9992  -27.2967   19.0190 H   0  0  0  0  0  0
  -23.7316  -30.5946   19.4024 H   0  0  0  0  0  0
  -22.7436  -29.2404   19.8652 H   0  0  0  0  0  0
  -25.1274  -36.2024   25.0842 H   0  0  0  0  0  0
  -20.9990  -28.3235   24.1423 H   0  0  0  0  0  0
  -20.5653  -26.2287   23.3600 H   0  0  0  0  0  0
  -21.6644  -26.7425   22.1211 H   0  0  0  0  0  0
  -19.6904  -25.6308   21.1217 H   0  0  0  0  0  0
  -19.6682  -27.3212   20.6750 H   0  0  0  0  0  0
  -17.4202  -26.6685   21.4021 H   0  0  0  0  0  0
  -18.0321  -26.0057   22.9002 H   0  0  0  0  0  0
  -19.7942  -30.7251   24.2290 H   0  0  0  0  0  0
  -17.5021  -31.6259   24.5174 H   0  0  0  0  0  0
  -15.5361  -30.2993   23.7621 H   0  0  0  0  0  0
  -15.8682  -28.0824   22.7040 H   0  0  0  0  0  0
  -24.5939  -30.6999   25.7822 H   0  0  0  0  0  0
  -24.8913  -32.2816   26.4937 H   0  0  0  0  0  0
  -25.8130  -30.8854   27.0226 H   0  0  0  0  0  0
  -26.2801  -29.6829   24.1126 H   0  0  0  0  0  0
  -27.4112  -29.7270   25.4463 H   0  0  0  0  0  0
  -27.8612  -30.4407   23.9147 H   0  0  0  0  0  0
  -27.2702  -33.3596   26.2079 H   0  0  0  0  0  0
  -28.3856  -32.6851   25.0299 H   0  0  0  0  0  0
  -28.0724  -31.8398   26.5368 H   0  0  0  0  0  0
  -28.2615  -38.0106   24.7526 H   0  0  0  0  0  0
  -28.1064  -36.2641   24.6287 H   0  0  0  0  0  0
  -27.2305  -37.1468   25.8877 H   0  0  0  0  0  0
  -20.9273  -29.8829   21.6991 H   0  0  0  0  0  0
  -26.0194  -38.2902   24.1409 H   0  0  0  0  0  0
  -26.1479  -22.6693   24.2434 H   0  0  0  0  0  0
  -24.6519  -22.6080   23.3467 H   0  0  0  0  0  0
  -25.9132  -22.4460   21.1924 H   0  0  0  0  0  0
  -26.2953  -21.1752   22.3143 H   0  0  0  0  0  0
  -25.3255  -24.9735   23.9594 H   0  0  0  0  0  0
  -25.1297  -24.7433   22.2327 H   0  0  0  0  0  0
  -27.2177  -24.2849   20.8598 H   0  0  0  0  0  0
  -30.3594  -23.4972   22.8012 H   0  0  0  0  0  0
  -29.9577  -25.0451   23.5343 H   0  0  0  0  0  0
  -31.2094  -24.9469   22.3084 H   0  0  0  0  0  0
  -28.1240  -21.7255   20.2318 H   0  0  0  0  0  0
  -29.5931  -22.1863   21.0540 H   0  0  0  0  0  0
  -31.3167  -17.1443   21.0833 H   0  0  0  0  0  0
  -30.2977  -17.0857   19.6623 H   0  0  0  0  0  0
  -27.7963  -19.8821   22.0192 H   0  0  0  0  0  0
  -29.2568  -20.4141   22.8015 H   0  0  0  0  0  0
  -29.4287  -17.8707   22.4924 H   0  0  0  0  0  0
  -28.2885  -17.6526   21.1827 H   0  0  0  0  0  0
  -30.0986  -26.7732   21.0830 H   0  0  0  0  0  0
  -28.6854  -26.8839   22.0851 H   0  0  0  0  0  0
  -29.5935  -24.3867   20.5694 H   0  0  0  0  0  0
  -29.0613  -15.3101   21.3871 H   0  0  0  0  0  0
  -27.6502  -24.7372   23.7204 H   0  0  0  0  0  0
  -27.1278  -25.8610   22.6652 H   0  0  0  0  0  0
  -30.4886  -19.5929   21.0149 H   0  0  0  0  0  0
  -29.1964  -19.4500   20.0386 H   0  0  0  0  0  0
  1 25  1  0  0  0
  1 30  2  0  0  0
  1 83  1  0  0  0
  2  3  1  0  0  0
  2 25  1  0  0  0
  2 86  1  0  0  0
  2 87  1  0  0  0
  3  4  1  0  0  0
  3 88  1  0  0  0
  3 89  1  0  0  0
  4  5  1  0  0  0
  4 90  1  0  0  0
  4 91  1  0  0  0
  5  6  1  0  0  0
  5 26  1  0  0  0
  5 92  1  0  0  0
  6 25  1  0  0  0
  6 93  1  0  0  0
  6 94  1  0  0  0
  7  8  2  0  0  0
  7 26  1  0  0  0
  7 29  1  0  0  0
  8  9  1  0  0  0
  8 22  1  0  0  0
  9 10  1  0  0  0
  9 27  2  0  0  0
 10 11  2  0  0  0
 10 15  1  0  0  0
 11 12  1  0  0  0
 11 95  1  0  0  0
 12 13  2  0  0  0
 12 96  1  0  0  0
 13 14  1  0  0  0
 13 31  1  0  0  0
 14 15  2  0  0  0
 14 97  1  0  0  0
 15 98  1  0  0  0
 16 17  2  0  0  0
 16 21  1  0  0  0
 16 31  1  0  0  0
 17 18  1  0  0  0
 17 99  1  0  0  0
 18 19  2  0  0  0
 18100  1  0  0  0
 19 20  1  0  0  0
 19 24  1  0  0  0
 20 21  2  0  0  0
 20101  1  0  0  0
 21 23  1  0  0  0
 22 28  1  0  0  0
 22 32  2  0  0  0
 26 27  1  0  0  0
 28102  1  0  0  0
 28103  1  0  0  0
 29104  1  0  0  0
 29105  1  0  0  0
 33 34  1  0  0  0
 33 66  1  0  0  0
 33 70  2  0  0  0
 34 36  1  0  0  0
 34 59  1  0  0  0
 34106  1  0  0  0
 35 44  2  0  0  0
 35 45  1  0  0  0
 35 68  1  0  0  0
 36 56  1  0  0  0
 36107  1  0  0  0
 37 39  1  0  0  0
 37 47  1  0  0  0
 37 66  1  0  0  0
 37108  1  0  0  0
 38 43  2  0  0  0
 38 46  1  0  0  0
 38 47  1  0  0  0
 39 64  1  0  0  0
 39 67  2  0  0  0
 40 52  1  0  0  0
 40 53  2  0  0  0
 40 58  1  0  0  0
 41109  1  0  0  0
 41110  1  0  0  0
 41111  1  0  0  0
 41 48  1  0  0  0
 42 43  1  0  0  0
 42 66  1  0  0  0
 42112  1  0  0  0
 42113  1  0  0  0
 43 44  1  0  0  0
 44114  1  0  0  0
 45 46  2  0  0  0
 45115  1  0  0  0
 46116  1  0  0  0
 47117  1  0  0  0
 47118  1  0  0  0
 48 56  1  0  0  0
 48 65  1  0  0  0
 48119  1  0  0  0
 49 50  1  0  0  0
 49 53  1  0  0  0
 49 64  1  0  0  0
 49120  1  0  0  0
 50 51  1  0  0  0
 50121  1  0  0  0
 50122  1  0  0  0
 51 52  1  0  0  0
 51123  1  0  0  0
 51124  1  0  0  0
 52125  1  0  0  0
 52126  1  0  0  0
 53 54  1  0  0  0
 54 55  2  0  0  0
 54127  1  0  0  0
 55 57  1  0  0  0
 55128  1  0  0  0
 56 69  2  0  0  0
 57 58  2  0  0  0
 57129  1  0  0  0
 58130  1  0  0  0
 59 60  1  0  0  0
 59 61  1  0  0  0
 59 62  1  0  0  0
 60131  1  0  0  0
 60132  1  0  0  0
 60133  1  0  0  0
 61134  1  0  0  0
 61135  1  0  0  0
 61136  1  0  0  0
 62137  1  0  0  0
 62138  1  0  0  0
 62139  1  0  0  0
 63 65  1  0  0  0
 63140  1  0  0  0
 63141  1  0  0  0
 63142  1  0  0  0
 64143  1  0  0  0
 65144  1  0  0  0
 68 80  1  0  0  0
 71 72  1  0  0  0
 71 73  1  0  0  0
 71145  1  0  0  0
 71146  1  0  0  0
 72 82  1  0  0  0
 72147  1  0  0  0
 72148  1  0  0  0
 73 84  1  0  0  0
 73149  1  0  0  0
 73150  1  0  0  0
 74 81  1  0  0  0
 74 82  1  0  0  0
 74 84  1  0  0  0
 74151  1  0  0  0
 75152  1  0  0  0
 75153  1  0  0  0
 75154  1  0  0  0
 75 81  1  0  0  0
 76 78  1  0  0  0
 76 82  1  0  0  0
 76155  1  0  0  0
 76156  1  0  0  0
 77 79  1  0  0  0
 77 83  1  0  0  0
 77157  1  0  0  0
 77158  1  0  0  0
 78 85  1  0  0  0
 78159  1  0  0  0
 78160  1  0  0  0
 79 85  1  0  0  0
 79161  1  0  0  0
 79162  1  0  0  0
 80 81  1  0  0  0
 80163  1  0  0  0
 80164  1  0  0  0
 81165  1  0  0  0
 83166  1  0  0  0
 84167  1  0  0  0
 84168  1  0  0  0
 85169  1  0  0  0
 85170  1  0  0  0
M  CHG  2  84   1  85   1
M  ISO  4   1 100  68 101  80 101  83 100
M  END
> <chiral flag>
0

> <version>
0

> <s_m_source_file>
/data/baiqing/PycharmProjects/Reinvent-master-3.2/result/LINK_invent/BTK/process_docking_weight1_custom_sum_contain_oxygen_bond_distance_aromatic_linkinvent_7_9_3/rearranged_h_0129.sdf

> <i_m_source_file_index>
89

> <r_mmod_Potential_Energy-OPLS-2005>
-366.707580566406

> <r_mmod_Stretch_Energy-OPLS-2005>
46.9192352294922

> <r_mmod_Bend_Energy-OPLS-2005>
114.169059753418

> <r_mmod_Torsional_Energy-OPLS-2005>
276.154205322266

> <r_mmod_Improper_Torsional_Energy-OPLS-2005>
5.2194299697876

> <r_mmod_Van_der_Waal_Energy-OPLS-2005>
137.949584960938

> <r_mmod_Electrostatic_Energy-OPLS-2005>
-44.070743560791

> <r_mmod_Solvation_Energy-OPLS-2005>
-915.830322265625

> <b_mmod_Minimization_Converged-OPLS-2005>
0

> <r_mmod_RMS_Derivative-OPLS-2005>
2.76321244239807

$$$$
90
                    3D
 Structure written by MMmdl.
172180  0  0  1  0            999 V2000
  -30.7921  -14.2450   20.5189 C   0  0  0  0  0  0
  -30.3925  -12.1539   19.3545 C   0  0  0  0  0  0
  -29.4724  -12.4841   18.1598 C   0  0  0  0  0  0
  -27.9879  -12.4051   18.5740 C   0  0  0  0  0  0
  -27.6761  -13.1970   19.8692 C   0  0  2  0  0  0
  -28.7215  -12.8895   20.9675 C   0  0  0  0  0  0
  -25.2787  -13.8315   20.5791 C   0  0  0  0  0  0
  -24.1909  -13.0584   20.9119 C   0  0  0  0  0  0
  -24.6376  -11.7042   20.8542 C   0  0  0  0  0  0
  -23.8988  -10.4437   21.0284 C   0  0  0  0  0  0
  -24.3562   -9.4425   21.9153 C   0  0  0  0  0  0
  -23.6303   -8.2442   22.0743 C   0  0  0  0  0  0
  -22.4296   -8.0394   21.3527 C   0  0  0  0  0  0
  -21.9846   -9.0342   20.4637 C   0  0  0  0  0  0
  -22.7114  -10.2266   20.3018 C   0  0  0  0  0  0
  -21.6931   -6.0789   22.5250 C   0  0  0  0  0  0
  -21.4067   -6.5691   23.8158 C   0  0  0  0  0  0
  -21.3611   -5.6813   24.9111 C   0  0  0  0  0  0
  -21.6041   -4.3096   24.7142 C   0  0  0  0  0  0
  -21.8825   -3.8175   23.4287 C   0  0  0  0  0  0
  -21.9216   -4.7021   22.3341 C   0  0  0  0  0  0
  -22.7993  -13.5495   21.1867 C   0  0  0  0  0  0
  -22.1703   -4.2186   21.0944 F   0  0  0  0  0  0
  -21.5578   -3.4594   25.7680 F   0  0  0  0  0  0
  -30.0744  -13.1106   20.4135 N   0  0  0  0  0  0
  -26.3109  -12.9387   20.3248 N   0  0  0  0  0  0
  -25.9296  -11.6541   20.5490 N   0  0  0  0  0  0
  -22.0611  -12.8401   22.0365 N   0  0  0  0  0  0
  -25.4788  -15.2021   20.4684 N   0  0  0  0  0  0
  -31.9401  -14.4279   20.1316 O   0  0  0  0  0  0
  -21.6750   -6.8958   21.4212 O   0  0  0  0  0  0
  -22.3645  -14.5747   20.6687 O   0  0  0  0  0  0
  -24.6032  -31.8767   23.2270 C   0  0  0  0  0  0
  -25.8950  -32.4851   23.8518 C   0  0  1  0  0  0
  -27.1931  -27.4927   20.0561 C   0  0  0  0  0  0
  -25.5826  -33.8684   24.2424 N   0  0  0  0  0  0
  -23.3873  -30.5057   21.5717 C   0  0  2  0  0  0
  -24.8303  -28.9981   20.1148 C   0  0  0  0  0  0
  -22.7359  -29.4677   22.5089 C   0  0  0  0  0  0
  -18.0350  -28.1496   22.8458 C   0  0  0  0  0  0
  -24.1506  -36.7307   23.2643 C   0  0  0  0  0  0
  -25.9150  -30.8444   21.3877 C   0  0  0  0  0  0
  -25.9870  -29.4913   20.7303 C   0  0  0  0  0  0
  -27.1725  -28.7255   20.7372 C   0  0  0  0  0  0
  -26.0650  -27.0918   19.3261 C   0  0  0  0  0  0
  -24.8522  -27.7797   19.4338 C   0  0  0  0  0  0
  -23.5930  -29.8585   20.1791 C   0  0  0  0  0  0
  -25.4113  -36.3143   24.0356 C   0  0  1  0  0  0
  -20.5917  -28.3641   23.1479 C   0  0  2  0  0  0
  -20.6771  -26.9259   22.5855 C   0  0  0  0  0  0
  -19.5894  -26.6046   21.5526 C   0  0  0  0  0  0
  -18.1931  -26.8007   22.1603 C   0  0  0  0  0  0
  -19.1603  -28.8853   23.3040 C   0  0  0  0  0  0
  -18.9594  -30.1387   23.9202 C   0  0  0  0  0  0
  -17.6650  -30.6622   24.0768 C   0  0  0  0  0  0
  -25.8997  -34.9496   23.5183 C   0  0  0  0  0  0
  -16.5496  -29.9289   23.6377 C   0  0  0  0  0  0
  -16.7359  -28.6724   23.0357 C   0  0  0  0  0  0
  -26.4372  -31.6545   25.0780 C   0  0  0  0  0  0
  -25.3725  -31.3646   26.1621 C   0  0  0  0  0  0
  -27.0251  -30.3052   24.6032 C   0  0  0  0  0  0
  -27.6008  -32.4239   25.7454 C   0  0  0  0  0  0
  -27.5576  -37.1809   24.8459 C   0  0  0  0  0  0
  -21.4165  -29.2887   22.3735 N   0  0  0  0  0  0
  -26.4314  -37.3789   23.9377 N   0  0  0  0  0  0
  -24.6522  -31.0891   22.1184 N   0  0  0  0  0  0
  -23.4149  -28.8231   23.3124 O   0  0  0  0  0  0
  -28.2525  -26.6307   20.1422 O   0  0  0  0  0  0
  -26.5570  -34.8920   22.4765 O   0  0  0  0  0  0
  -23.5246  -32.1500   23.7715 O   0  0  0  0  0  0
  -26.7448  -21.4668   20.0710 C   0  0  0  0  0  0
  -28.0887  -21.8437   20.7671 C   0  0  2  0  0  0
  -27.6612  -24.1819   20.5203 C   0  0  1  0  0  0
  -26.2072  -23.8565   20.0369 C   0  0  2  0  0  0
  -24.7970  -22.9308   22.1436 C   0  0  0  0  0  0
  -28.5063  -20.8154   21.8307 C   0  0  0  0  0  0
  -27.9990  -25.5927   21.1132 C   0  0  0  0  0  0
  -29.9152  -16.1453   21.6509 C   0  0  0  0  0  0
  -28.1436  -19.3883   21.4253 C   0  0  0  0  0  0
  -29.2515  -17.3305   21.0208 C   0  0  0  0  0  0
  -25.0082  -24.0213   21.0365 C   0  0  2  0  0  0
  -28.0019  -23.1292   21.4726 N   0  0  0  0  0  0
  -23.7956  -24.2056   20.2273 N   0  0  0  0  0  0
  -30.0027  -15.2813   20.5181 N   0  0  0  0  0  0
  -26.1747  -22.5809   19.3091 N   0  3  0  0  0  0
  -29.1216  -18.4361   21.9438 N   0  3  0  0  0  0
  -31.4444  -12.1862   19.0592 H   0  0  0  0  0  0
  -30.2193  -11.1348   19.7072 H   0  0  0  0  0  0
  -29.6557  -11.8053   17.3249 H   0  0  0  0  0  0
  -29.7042  -13.4801   17.7817 H   0  0  0  0  0  0
  -27.7379  -11.3564   18.7090 H   0  0  0  0  0  0
  -27.3581  -12.7682   17.7614 H   0  0  0  0  0  0
  -27.7565  -14.2513   19.6065 H   0  0  0  0  0  0
  -28.6342  -11.8452   21.2678 H   0  0  0  0  0  0
  -28.5366  -13.4814   21.8633 H   0  0  0  0  0  0
  -25.2723   -9.5981   22.4702 H   0  0  0  0  0  0
  -24.0035   -7.4883   22.7491 H   0  0  0  0  0  0
  -21.0752   -8.8809   19.8989 H   0  0  0  0  0  0
  -22.3534  -10.9765   19.6074 H   0  0  0  0  0  0
  -21.2150   -7.6220   23.9671 H   0  0  0  0  0  0
  -21.1377   -6.0566   25.8989 H   0  0  0  0  0  0
  -22.0644   -2.7660   23.2742 H   0  0  0  0  0  0
  -22.4151  -11.9971   22.4506 H   0  0  0  0  0  0
  -21.1162  -13.1260   22.2478 H   0  0  0  0  0  0
  -24.7905  -15.8922   20.7476 H   0  0  0  0  0  0
  -26.3969  -15.6036   20.3158 H   0  0  0  0  0  0
  -26.7028  -32.5549   23.1275 H   0  0  0  0  0  0
  -24.9966  -33.9927   25.0551 H   0  0  0  0  0  0
  -22.6691  -31.3207   21.4429 H   0  0  0  0  0  0
  -23.3802  -35.9603   23.3336 H   0  0  0  0  0  0
  -24.3589  -36.8888   22.2050 H   0  0  0  0  0  0
  -23.7259  -37.6521   23.6626 H   0  0  0  0  0  0
  -26.0199  -31.6159   20.6236 H   0  0  0  0  0  0
  -26.8034  -30.8871   22.0028 H   0  0  0  0  0  0
  -28.0523  -29.0814   21.2575 H   0  0  0  0  0  0
  -26.1136  -26.2899   18.6216 H   0  0  0  0  0  0
  -23.9657  -27.4271   18.9373 H   0  0  0  0  0  0
  -23.6983  -30.6415   19.4293 H   0  0  0  0  0  0
  -22.7158  -29.2732   19.8950 H   0  0  0  0  0  0
  -25.1307  -36.2018   25.0848 H   0  0  0  0  0  0
  -21.0046  -28.3504   24.1598 H   0  0  0  0  0  0
  -20.5324  -26.2362   23.4197 H   0  0  0  0  0  0
  -21.6734  -26.7114   22.2005 H   0  0  0  0  0  0
  -19.6983  -25.5729   21.2128 H   0  0  0  0  0  0
  -19.7237  -27.2304   20.6655 H   0  0  0  0  0  0
  -17.4237  -26.6763   21.3950 H   0  0  0  0  0  0
  -17.9968  -26.0260   22.9033 H   0  0  0  0  0  0
  -19.8067  -30.7049   24.2876 H   0  0  0  0  0  0
  -17.5290  -31.6278   24.5489 H   0  0  0  0  0  0
  -15.5591  -30.3349   23.7598 H   0  0  0  0  0  0
  -15.8713  -28.1197   22.6946 H   0  0  0  0  0  0
  -24.5866  -30.6914   25.8100 H   0  0  0  0  0  0
  -24.8906  -32.2804   26.5101 H   0  0  0  0  0  0
  -25.8202  -30.8878   27.0370 H   0  0  0  0  0  0
  -26.2859  -29.6774   24.1016 H   0  0  0  0  0  0
  -27.4120  -29.7201   25.4382 H   0  0  0  0  0  0
  -27.8578  -30.4510   23.9156 H   0  0  0  0  0  0
  -27.2667  -33.3572   26.2014 H   0  0  0  0  0  0
  -28.3735  -32.6726   25.0160 H   0  0  0  0  0  0
  -28.0670  -31.8317   26.5329 H   0  0  0  0  0  0
  -28.2634  -38.0077   24.7495 H   0  0  0  0  0  0
  -28.1064  -36.2628   24.6326 H   0  0  0  0  0  0
  -27.2264  -37.1456   25.8855 H   0  0  0  0  0  0
  -20.9291  -29.8272   21.6673 H   0  0  0  0  0  0
  -26.0236  -38.2878   24.1375 H   0  0  0  0  0  0
  -26.0204  -21.0964   20.7879 H   0  0  0  0  0  0
  -26.8722  -20.6451   19.3673 H   0  0  0  0  0  0
  -28.8532  -21.9109   19.9927 H   0  0  0  0  0  0
  -28.3369  -24.0798   19.6704 H   0  0  0  0  0  0
  -26.0192  -24.5022   19.2026 H   0  0  0  0  0  0
  -25.7226  -22.6385   22.6514 H   0  0  0  0  0  0
  -24.3347  -22.0105   21.7660 H   0  0  0  0  0  0
  -24.1576  -23.2889   22.9501 H   0  0  0  0  0  0
  -28.0480  -21.0298   22.7980 H   0  0  0  0  0  0
  -29.5846  -20.9016   21.9829 H   0  0  0  0  0  0
  -28.9246  -25.5236   21.6852 H   0  0  0  0  0  0
  -27.2520  -25.8956   21.8457 H   0  0  0  0  0  0
  -29.2969  -15.7105   22.4386 H   0  0  0  0  0  0
  -30.8995  -16.3915   22.0538 H   0  0  0  0  0  0
  -28.1522  -19.3131   20.3356 H   0  0  0  0  0  0
  -27.1383  -19.1014   21.7477 H   0  0  0  0  0  0
  -28.2665  -17.0292   20.6578 H   0  0  0  0  0  0
  -29.8091  -17.6793   20.1478 H   0  0  0  0  0  0
  -25.1885  -24.9716   21.5485 H   0  0  0  0  0  0
  -28.8566  -23.3468   21.9745 H   0  0  0  0  0  0
  -23.2778  -23.3608   19.9873 H   0  0  0  0  0  0
  -23.1393  -24.7960   20.7241 H   0  0  0  0  0  0
  -30.1648  -15.8127   19.6734 H   0  0  0  0  0  0
  -25.2262  -22.3749   19.0497 H   0  0  0  0  0  0
  -26.6783  -22.6932   18.4464 H   0  0  0  0  0  0
  -28.8616  -18.1084   22.8571 H   0  0  0  0  0  0
  -30.0240  -18.8715   22.0073 H   0  0  0  0  0  0
  1 25  1  0  0  0
  1 30  2  0  0  0
  1 84  1  0  0  0
  2  3  1  0  0  0
  2 25  1  0  0  0
  2 87  1  0  0  0
  2 88  1  0  0  0
  3  4  1  0  0  0
  3 89  1  0  0  0
  3 90  1  0  0  0
  4  5  1  0  0  0
  4 91  1  0  0  0
  4 92  1  0  0  0
  5  6  1  0  0  0
  5 26  1  0  0  0
  5 93  1  0  0  0
  6 25  1  0  0  0
  6 94  1  0  0  0
  6 95  1  0  0  0
  7  8  2  0  0  0
  7 26  1  0  0  0
  7 29  1  0  0  0
  8  9  1  0  0  0
  8 22  1  0  0  0
  9 10  1  0  0  0
  9 27  2  0  0  0
 10 11  2  0  0  0
 10 15  1  0  0  0
 11 12  1  0  0  0
 11 96  1  0  0  0
 12 13  2  0  0  0
 12 97  1  0  0  0
 13 14  1  0  0  0
 13 31  1  0  0  0
 14 15  2  0  0  0
 14 98  1  0  0  0
 15 99  1  0  0  0
 16 17  2  0  0  0
 16 21  1  0  0  0
 16 31  1  0  0  0
 17 18  1  0  0  0
 17100  1  0  0  0
 18 19  2  0  0  0
 18101  1  0  0  0
 19 20  1  0  0  0
 19 24  1  0  0  0
 20 21  2  0  0  0
 20102  1  0  0  0
 21 23  1  0  0  0
 22 28  1  0  0  0
 22 32  2  0  0  0
 26 27  1  0  0  0
 28103  1  0  0  0
 28104  1  0  0  0
 29105  1  0  0  0
 29106  1  0  0  0
 33 34  1  0  0  0
 33 66  1  0  0  0
 33 70  2  0  0  0
 34 36  1  0  0  0
 34 59  1  0  0  0
 34107  1  0  0  0
 35 44  2  0  0  0
 35 45  1  0  0  0
 35 68  1  0  0  0
 36 56  1  0  0  0
 36108  1  0  0  0
 37 39  1  0  0  0
 37 47  1  0  0  0
 37 66  1  0  0  0
 37109  1  0  0  0
 38 43  2  0  0  0
 38 46  1  0  0  0
 38 47  1  0  0  0
 39 64  1  0  0  0
 39 67  2  0  0  0
 40 52  1  0  0  0
 40 53  2  0  0  0
 40 58  1  0  0  0
 41110  1  0  0  0
 41111  1  0  0  0
 41112  1  0  0  0
 41 48  1  0  0  0
 42 43  1  0  0  0
 42 66  1  0  0  0
 42113  1  0  0  0
 42114  1  0  0  0
 43 44  1  0  0  0
 44115  1  0  0  0
 45 46  2  0  0  0
 45116  1  0  0  0
 46117  1  0  0  0
 47118  1  0  0  0
 47119  1  0  0  0
 48 56  1  0  0  0
 48 65  1  0  0  0
 48120  1  0  0  0
 49 50  1  0  0  0
 49 53  1  0  0  0
 49 64  1  0  0  0
 49121  1  0  0  0
 50 51  1  0  0  0
 50122  1  0  0  0
 50123  1  0  0  0
 51 52  1  0  0  0
 51124  1  0  0  0
 51125  1  0  0  0
 52126  1  0  0  0
 52127  1  0  0  0
 53 54  1  0  0  0
 54 55  2  0  0  0
 54128  1  0  0  0
 55 57  1  0  0  0
 55129  1  0  0  0
 56 69  2  0  0  0
 57 58  2  0  0  0
 57130  1  0  0  0
 58131  1  0  0  0
 59 60  1  0  0  0
 59 61  1  0  0  0
 59 62  1  0  0  0
 60132  1  0  0  0
 60133  1  0  0  0
 60134  1  0  0  0
 61135  1  0  0  0
 61136  1  0  0  0
 61137  1  0  0  0
 62138  1  0  0  0
 62139  1  0  0  0
 62140  1  0  0  0
 63 65  1  0  0  0
 63141  1  0  0  0
 63142  1  0  0  0
 63143  1  0  0  0
 64144  1  0  0  0
 65145  1  0  0  0
 68 77  1  0  0  0
 71 72  1  0  0  0
 71 85  1  0  0  0
 71146  1  0  0  0
 71147  1  0  0  0
 72 76  1  0  0  0
 72 82  1  0  0  0
 72148  1  0  0  0
 73 74  1  0  0  0
 73 77  1  0  0  0
 73 82  1  0  0  0
 73149  1  0  0  0
 74 81  1  0  0  0
 74 85  1  0  0  0
 74150  1  0  0  0
 75151  1  0  0  0
 75152  1  0  0  0
 75153  1  0  0  0
 75 81  1  0  0  0
 76 79  1  0  0  0
 76154  1  0  0  0
 76155  1  0  0  0
 77156  1  0  0  0
 77157  1  0  0  0
 78 80  1  0  0  0
 78 84  1  0  0  0
 78158  1  0  0  0
 78159  1  0  0  0
 79 86  1  0  0  0
 79160  1  0  0  0
 79161  1  0  0  0
 80 86  1  0  0  0
 80162  1  0  0  0
 80163  1  0  0  0
 81 83  1  0  0  0
 81164  1  0  0  0
 82165  1  0  0  0
 83166  1  0  0  0
 83167  1  0  0  0
 84168  1  0  0  0
 85169  1  0  0  0
 85170  1  0  0  0
 86171  1  0  0  0
 86172  1  0  0  0
M  CHG  2  85   1  86   1
M  ISO  4   1 100  68 101  77 101  84 100
M  END
> <chiral flag>
0

> <version>
0

> <s_m_source_file>
/data/baiqing/PycharmProjects/Reinvent-master-3.2/result/LINK_invent/BTK/process_docking_weight1_custom_sum_contain_oxygen_bond_distance_aromatic_linkinvent_7_9_3/rearranged_h_0129.sdf

> <i_m_source_file_index>
90

> <r_mmod_Potential_Energy-OPLS-2005>
-122.063446044922

> <r_mmod_Stretch_Energy-OPLS-2005>
43.6139755249023

> <r_mmod_Bend_Energy-OPLS-2005>
142.728805541992

> <r_mmod_Torsional_Energy-OPLS-2005>
360.770141601562

> <r_mmod_Improper_Torsional_Energy-OPLS-2005>
23.9971332550049

> <r_mmod_Van_der_Waal_Energy-OPLS-2005>
169.446105957031

> <r_mmod_Electrostatic_Energy-OPLS-2005>
86.6608657836914

> <r_mmod_Solvation_Energy-OPLS-2005>
-986.388427734375

> <b_mmod_Minimization_Converged-OPLS-2005>
0

> <r_mmod_RMS_Derivative-OPLS-2005>
13.2706670761108

$$$$
91
                    3D
 Structure written by MMmdl.
161169  0  0  1  0            999 V2000
  -30.7222  -14.4508   20.6027 C   0  0  0  0  0  0
  -30.4218  -12.3078   19.4149 C   0  0  0  0  0  0
  -29.4895  -12.4993   18.2022 C   0  0  0  0  0  0
  -28.0112  -12.3634   18.6185 C   0  0  0  0  0  0
  -27.6604  -13.2054   19.8745 C   0  0  2  0  0  0
  -28.7020  -12.9857   20.9936 C   0  0  0  0  0  0
  -25.2575  -13.8158   20.5689 C   0  0  0  0  0  0
  -24.1826  -13.0433   20.9190 C   0  0  0  0  0  0
  -24.6379  -11.6900   20.8743 C   0  0  0  0  0  0
  -23.9052  -10.4282   21.0414 C   0  0  0  0  0  0
  -24.3608   -9.4198   21.9191 C   0  0  0  0  0  0
  -23.6278   -8.2238   22.0757 C   0  0  0  0  0  0
  -22.4259   -8.0281   21.3551 C   0  0  0  0  0  0
  -21.9891   -9.0262   20.4657 C   0  0  0  0  0  0
  -22.7225  -10.2135   20.3066 C   0  0  0  0  0  0
  -21.6845   -6.0737   22.5288 C   0  0  0  0  0  0
  -21.4016   -6.5642   23.8226 C   0  0  0  0  0  0
  -21.3653   -5.6795   24.9186 C   0  0  0  0  0  0
  -21.6036   -4.3061   24.7232 C   0  0  0  0  0  0
  -21.8816   -3.8148   23.4356 C   0  0  0  0  0  0
  -21.9189   -4.6964   22.3409 C   0  0  0  0  0  0
  -22.7847  -13.5236   21.1851 C   0  0  0  0  0  0
  -22.1658   -4.2152   21.0988 F   0  0  0  0  0  0
  -21.5620   -3.4543   25.7743 F   0  0  0  0  0  0
  -30.0336  -13.2899   20.4393 N   0  0  0  0  0  0
  -26.3014  -12.9326   20.3369 N   0  0  0  0  0  0
  -25.9305  -11.6485   20.5768 N   0  0  0  0  0  0
  -22.0472  -12.8254   22.0414 N   0  0  0  0  0  0
  -25.4290  -15.1880   20.4112 N   0  0  0  0  0  0
  -31.8274  -14.6523   20.0931 O   0  0  0  0  0  0
  -21.6631   -6.8877   21.4247 O   0  0  0  0  0  0
  -22.3538  -14.5540   20.6684 O   0  0  0  0  0  0
  -24.6161  -31.8675   23.2090 C   0  0  0  0  0  0
  -25.9047  -32.4821   23.8395 C   0  0  1  0  0  0
  -27.2296  -27.4137   20.0940 C   0  0  0  0  0  0
  -25.5887  -33.8621   24.2324 N   0  0  0  0  0  0
  -23.4051  -30.4918   21.5504 C   0  0  2  0  0  0
  -24.8481  -28.9542   20.1184 C   0  0  0  0  0  0
  -22.7416  -29.4657   22.4977 C   0  0  0  0  0  0
  -18.0274  -28.1383   22.8489 C   0  0  0  0  0  0
  -24.1483  -36.7321   23.2642 C   0  0  0  0  0  0
  -25.9367  -30.8256   21.3656 C   0  0  0  0  0  0
  -26.0109  -29.4589   20.7117 C   0  0  0  0  0  0
  -27.2050  -28.6980   20.6919 C   0  0  0  0  0  0
  -26.0425  -26.9271   19.4988 C   0  0  0  0  0  0
  -24.8592  -27.6875   19.5105 C   0  0  0  0  0  0
  -23.6146  -29.8272   20.1643 C   0  0  0  0  0  0
  -25.4102  -36.3117   24.0341 C   0  0  1  0  0  0
  -20.5867  -28.3671   23.1311 C   0  0  2  0  0  0
  -20.6762  -26.9403   22.5420 C   0  0  0  0  0  0
  -19.5742  -26.6389   21.5215 C   0  0  0  0  0  0
  -18.1922  -26.7926   22.1627 C   0  0  0  0  0  0
  -19.1526  -28.8841   23.2901 C   0  0  0  0  0  0
  -18.9455  -30.1445   23.8916 C   0  0  0  0  0  0
  -17.6459  -30.6582   24.0575 C   0  0  0  0  0  0
  -25.9032  -34.9481   23.5134 C   0  0  0  0  0  0
  -16.5347  -29.9092   23.6323 C   0  0  0  0  0  0
  -16.7267  -28.6512   23.0335 C   0  0  0  0  0  0
  -26.4466  -31.6603   25.0730 C   0  0  0  0  0  0
  -25.3734  -31.3733   26.1487 C   0  0  0  0  0  0
  -27.0288  -30.3035   24.6123 C   0  0  0  0  0  0
  -27.6050  -32.4320   25.7478 C   0  0  0  0  0  0
  -27.5579  -37.1812   24.8463 C   0  0  0  0  0  0
  -21.4144  -29.3039   22.3717 N   0  0  0  0  0  0
  -26.4293  -37.3796   23.9411 N   0  0  0  0  0  0
  -24.6710  -31.0761   22.0998 N   0  0  0  0  0  0
  -23.4182  -28.8191   23.3021 O   0  0  0  0  0  0
  -28.4112  -26.6941   20.0768 O   0  0  0  0  0  0
  -26.5606  -34.8931   22.4704 O   0  0  0  0  0  0
  -23.5350  -32.1439   23.7471 O   0  0  0  0  0  0
  -29.1108  -22.1463   19.8907 C   0  0  0  0  0  0
  -29.3835  -20.7938   20.2166 C   0  0  0  0  0  0
  -31.0715  -22.8382   21.1364 C   0  0  0  0  0  0
  -29.9558  -23.1869   20.3469 C   0  0  0  0  0  0
  -31.3500  -21.4935   21.4650 C   0  0  0  0  0  0
  -30.5060  -20.4515   21.0082 C   0  0  0  0  0  0
  -32.5869  -21.1870   22.2972 C   0  0  0  0  0  0
  -30.2283  -24.8515   18.4816 C   0  0  0  0  0  0
  -30.1894  -17.9131   20.8802 C   0  0  0  0  0  0
  -30.6705  -16.6974   21.7114 C   0  0  0  0  0  0
  -28.3519  -25.2519   20.1477 C   0  0  0  0  0  0
  -29.7687  -24.6586   19.9346 C   0  0  1  0  0  0
  -30.8330  -19.1300   21.3739 N   0  0  0  0  0  0
  -30.0953  -15.4109   21.3039 N   0  0  0  0  0  0
  -31.4652  -12.4097   19.1091 H   0  0  0  0  0  0
  -30.3294  -11.2968   19.8154 H   0  0  0  0  0  0
  -29.7252  -11.7667   17.4289 H   0  0  0  0  0  0
  -29.6614  -13.4798   17.7560 H   0  0  0  0  0  0
  -27.8186  -11.3080   18.8170 H   0  0  0  0  0  0
  -27.3598  -12.6412   17.7889 H   0  0  0  0  0  0
  -27.7069  -14.2531   19.5777 H   0  0  0  0  0  0
  -28.6779  -11.9495   21.3346 H   0  0  0  0  0  0
  -28.4588  -13.5838   21.8724 H   0  0  0  0  0  0
  -25.2753   -9.5672   22.4766 H   0  0  0  0  0  0
  -23.9995   -7.4621   22.7455 H   0  0  0  0  0  0
  -21.0832   -8.8779   19.8955 H   0  0  0  0  0  0
  -22.3688  -10.9681   19.6178 H   0  0  0  0  0  0
  -21.2025   -7.6153   23.9736 H   0  0  0  0  0  0
  -21.1467   -6.0525   25.9093 H   0  0  0  0  0  0
  -22.0596   -2.7611   23.2860 H   0  0  0  0  0  0
  -22.4070  -11.9936   22.4860 H   0  0  0  0  0  0
  -21.1080  -13.1286   22.2568 H   0  0  0  0  0  0
  -24.6623  -15.8421   20.5259 H   0  0  0  0  0  0
  -26.2828  -15.6301   20.0931 H   0  0  0  0  0  0
  -26.7113  -32.5518   23.1154 H   0  0  0  0  0  0
  -25.0009  -33.9785   25.0447 H   0  0  0  0  0  0
  -22.6946  -31.3092   21.4118 H   0  0  0  0  0  0
  -23.3741  -35.9656   23.3314 H   0  0  0  0  0  0
  -24.3577  -36.8928   22.2053 H   0  0  0  0  0  0
  -23.7237  -37.6530   23.6652 H   0  0  0  0  0  0
  -26.0551  -31.5906   20.5976 H   0  0  0  0  0  0
  -26.8223  -30.8755   21.9870 H   0  0  0  0  0  0
  -28.1050  -29.0887   21.1449 H   0  0  0  0  0  0
  -26.0068  -25.9714   18.9999 H   0  0  0  0  0  0
  -23.9653  -27.2940   19.0466 H   0  0  0  0  0  0
  -23.7321  -30.6054   19.4089 H   0  0  0  0  0  0
  -22.7359  -29.2548   19.8622 H   0  0  0  0  0  0
  -25.1276  -36.1989   25.0833 H   0  0  0  0  0  0
  -20.9965  -28.3241   24.1429 H   0  0  0  0  0  0
  -20.5653  -26.2283   23.3611 H   0  0  0  0  0  0
  -21.6634  -26.7431   22.1223 H   0  0  0  0  0  0
  -19.6905  -25.6306   21.1227 H   0  0  0  0  0  0
  -19.6679  -27.3213   20.6756 H   0  0  0  0  0  0
  -17.4189  -26.6667   21.4035 H   0  0  0  0  0  0
  -18.0326  -26.0069   22.9025 H   0  0  0  0  0  0
  -19.7935  -30.7257   24.2289 H   0  0  0  0  0  0
  -17.5016  -31.6259   24.5184 H   0  0  0  0  0  0
  -15.5352  -30.3003   23.7638 H   0  0  0  0  0  0
  -15.8663  -28.0846   22.7025 H   0  0  0  0  0  0
  -24.5885  -30.7098   25.7838 H   0  0  0  0  0  0
  -24.8954  -32.2902   26.4946 H   0  0  0  0  0  0
  -25.8085  -30.8895   27.0241 H   0  0  0  0  0  0
  -26.2835  -29.6803   24.1164 H   0  0  0  0  0  0
  -27.4028  -29.7266   25.4592 H   0  0  0  0  0  0
  -27.8687  -30.4337   23.9296 H   0  0  0  0  0  0
  -27.2678  -33.3613   26.2079 H   0  0  0  0  0  0
  -28.3838  -32.6888   25.0285 H   0  0  0  0  0  0
  -28.0741  -31.8432   26.5370 H   0  0  0  0  0  0
  -28.2610  -38.0096   24.7500 H   0  0  0  0  0  0
  -28.1064  -36.2632   24.6296 H   0  0  0  0  0  0
  -27.2308  -37.1475   25.8870 H   0  0  0  0  0  0
  -20.9299  -29.8788   21.6964 H   0  0  0  0  0  0
  -26.0189  -38.2880   24.1403 H   0  0  0  0  0  0
  -28.2601  -22.3762   19.2648 H   0  0  0  0  0  0
  -28.7217  -20.0266   19.8417 H   0  0  0  0  0  0
  -31.7431  -23.6141   21.4761 H   0  0  0  0  0  0
  -33.1112  -22.0970   22.5882 H   0  0  0  0  0  0
  -33.2823  -20.5690   21.7280 H   0  0  0  0  0  0
  -32.3176  -20.6543   23.2093 H   0  0  0  0  0  0
  -31.2659  -24.5414   18.3542 H   0  0  0  0  0  0
  -30.1582  -25.8960   18.1771 H   0  0  0  0  0  0
  -29.6191  -24.2639   17.7939 H   0  0  0  0  0  0
  -29.1047  -18.0071   20.9438 H   0  0  0  0  0  0
  -30.4453  -17.7726   19.8282 H   0  0  0  0  0  0
  -30.4025  -16.8501   22.7577 H   0  0  0  0  0  0
  -31.7614  -16.6387   21.6916 H   0  0  0  0  0  0
  -27.9732  -24.9748   21.1326 H   0  0  0  0  0  0
  -27.6851  -24.8130   19.4086 H   0  0  0  0  0  0
  -30.4371  -25.2461   20.5660 H   0  0  0  0  0  0
  -31.6614  -19.0034   21.9465 H   0  0  0  0  0  0
  -29.1746  -15.1881   21.6528 H   0  0  0  0  0  0
  1 25  1  0  0  0
  1 30  2  0  0  0
  1 84  1  0  0  0
  2  3  1  0  0  0
  2 25  1  0  0  0
  2 85  1  0  0  0
  2 86  1  0  0  0
  3  4  1  0  0  0
  3 87  1  0  0  0
  3 88  1  0  0  0
  4  5  1  0  0  0
  4 89  1  0  0  0
  4 90  1  0  0  0
  5  6  1  0  0  0
  5 26  1  0  0  0
  5 91  1  0  0  0
  6 25  1  0  0  0
  6 92  1  0  0  0
  6 93  1  0  0  0
  7  8  2  0  0  0
  7 26  1  0  0  0
  7 29  1  0  0  0
  8  9  1  0  0  0
  8 22  1  0  0  0
  9 10  1  0  0  0
  9 27  2  0  0  0
 10 11  2  0  0  0
 10 15  1  0  0  0
 11 12  1  0  0  0
 11 94  1  0  0  0
 12 13  2  0  0  0
 12 95  1  0  0  0
 13 14  1  0  0  0
 13 31  1  0  0  0
 14 15  2  0  0  0
 14 96  1  0  0  0
 15 97  1  0  0  0
 16 17  2  0  0  0
 16 21  1  0  0  0
 16 31  1  0  0  0
 17 18  1  0  0  0
 17 98  1  0  0  0
 18 19  2  0  0  0
 18 99  1  0  0  0
 19 20  1  0  0  0
 19 24  1  0  0  0
 20 21  2  0  0  0
 20100  1  0  0  0
 21 23  1  0  0  0
 22 28  1  0  0  0
 22 32  2  0  0  0
 26 27  1  0  0  0
 28101  1  0  0  0
 28102  1  0  0  0
 29103  1  0  0  0
 29104  1  0  0  0
 33 34  1  0  0  0
 33 66  1  0  0  0
 33 70  2  0  0  0
 34 36  1  0  0  0
 34 59  1  0  0  0
 34105  1  0  0  0
 35 44  2  0  0  0
 35 45  1  0  0  0
 35 68  1  0  0  0
 36 56  1  0  0  0
 36106  1  0  0  0
 37 39  1  0  0  0
 37 47  1  0  0  0
 37 66  1  0  0  0
 37107  1  0  0  0
 38 43  2  0  0  0
 38 46  1  0  0  0
 38 47  1  0  0  0
 39 64  1  0  0  0
 39 67  2  0  0  0
 40 52  1  0  0  0
 40 53  2  0  0  0
 40 58  1  0  0  0
 41108  1  0  0  0
 41109  1  0  0  0
 41110  1  0  0  0
 41 48  1  0  0  0
 42 43  1  0  0  0
 42 66  1  0  0  0
 42111  1  0  0  0
 42112  1  0  0  0
 43 44  1  0  0  0
 44113  1  0  0  0
 45 46  2  0  0  0
 45114  1  0  0  0
 46115  1  0  0  0
 47116  1  0  0  0
 47117  1  0  0  0
 48 56  1  0  0  0
 48 65  1  0  0  0
 48118  1  0  0  0
 49 50  1  0  0  0
 49 53  1  0  0  0
 49 64  1  0  0  0
 49119  1  0  0  0
 50 51  1  0  0  0
 50120  1  0  0  0
 50121  1  0  0  0
 51 52  1  0  0  0
 51122  1  0  0  0
 51123  1  0  0  0
 52124  1  0  0  0
 52125  1  0  0  0
 53 54  1  0  0  0
 54 55  2  0  0  0
 54126  1  0  0  0
 55 57  1  0  0  0
 55127  1  0  0  0
 56 69  2  0  0  0
 57 58  2  0  0  0
 57128  1  0  0  0
 58129  1  0  0  0
 59 60  1  0  0  0
 59 61  1  0  0  0
 59 62  1  0  0  0
 60130  1  0  0  0
 60131  1  0  0  0
 60132  1  0  0  0
 61133  1  0  0  0
 61134  1  0  0  0
 61135  1  0  0  0
 62136  1  0  0  0
 62137  1  0  0  0
 62138  1  0  0  0
 63 65  1  0  0  0
 63139  1  0  0  0
 63140  1  0  0  0
 63141  1  0  0  0
 64142  1  0  0  0
 65143  1  0  0  0
 68 81  1  0  0  0
 71 72  2  0  0  0
 71 74  1  0  0  0
 71144  1  0  0  0
 72 76  1  0  0  0
 72145  1  0  0  0
 73 74  2  0  0  0
 73 75  1  0  0  0
 73146  1  0  0  0
 74 82  1  0  0  0
 75 76  2  0  0  0
 75 77  1  0  0  0
 76 83  1  0  0  0
 77147  1  0  0  0
 77148  1  0  0  0
 77149  1  0  0  0
 78150  1  0  0  0
 78151  1  0  0  0
 78152  1  0  0  0
 78 82  1  0  0  0
 79 80  1  0  0  0
 79 83  1  0  0  0
 79153  1  0  0  0
 79154  1  0  0  0
 80 84  1  0  0  0
 80155  1  0  0  0
 80156  1  0  0  0
 81 82  1  0  0  0
 81157  1  0  0  0
 81158  1  0  0  0
 82159  1  0  0  0
 83160  1  0  0  0
 84161  1  0  0  0
M  ISO  4   1 100  68 101  81 101  84 100
M  END
> <chiral flag>
0

> <version>
0

> <s_m_source_file>
/data/baiqing/PycharmProjects/Reinvent-master-3.2/result/LINK_invent/BTK/process_docking_weight1_custom_sum_contain_oxygen_bond_distance_aromatic_linkinvent_7_9_3/rearranged_h_0129.sdf

> <i_m_source_file_index>
91

> <r_mmod_Potential_Energy-OPLS-2005>
-158.621963500977

> <r_mmod_Stretch_Energy-OPLS-2005>
38.5680847167969

> <r_mmod_Bend_Energy-OPLS-2005>
114.874938964844

> <r_mmod_Torsional_Energy-OPLS-2005>
188.02604675293

> <r_mmod_Improper_Torsional_Energy-OPLS-2005>
2.5037157535553

> <r_mmod_Van_der_Waal_Energy-OPLS-2005>
155.280029296875

> <r_mmod_Electrostatic_Energy-OPLS-2005>
-456.438415527344

> <r_mmod_Solvation_Energy-OPLS-2005>
-213.502517700195

> <b_mmod_Minimization_Converged-OPLS-2005>
0

> <r_mmod_RMS_Derivative-OPLS-2005>
1.54857671260834

$$$$
92
                    3D
 Structure written by MMmdl.
167176  0  0  1  0            999 V2000
  -30.6880  -14.5882   20.5219 C   0  0  0  0  0  0
  -30.4160  -12.3708   19.4444 C   0  0  0  0  0  0
  -29.4948  -12.5022   18.2154 C   0  0  0  0  0  0
  -28.0193  -12.3522   18.6270 C   0  0  0  0  0  0
  -27.6488  -13.2216   19.8583 C   0  0  2  0  0  0
  -28.6915  -13.0932   20.9888 C   0  0  0  0  0  0
  -25.2525  -13.8171   20.5643 C   0  0  0  0  0  0
  -24.1813  -13.0430   20.9176 C   0  0  0  0  0  0
  -24.6398  -11.6911   20.8736 C   0  0  0  0  0  0
  -23.9080  -10.4286   21.0408 C   0  0  0  0  0  0
  -24.3640   -9.4203   21.9180 C   0  0  0  0  0  0
  -23.6320   -8.2241   22.0754 C   0  0  0  0  0  0
  -22.4297   -8.0286   21.3552 C   0  0  0  0  0  0
  -21.9938   -9.0244   20.4640 C   0  0  0  0  0  0
  -22.7259  -10.2123   20.3055 C   0  0  0  0  0  0
  -21.6854   -6.0750   22.5277 C   0  0  0  0  0  0
  -21.4017   -6.5654   23.8216 C   0  0  0  0  0  0
  -21.3656   -5.6801   24.9177 C   0  0  0  0  0  0
  -21.6042   -4.3063   24.7220 C   0  0  0  0  0  0
  -21.8824   -3.8163   23.4337 C   0  0  0  0  0  0
  -21.9196   -4.6979   22.3393 C   0  0  0  0  0  0
  -22.7832  -13.5211   21.1837 C   0  0  0  0  0  0
  -22.1662   -4.2163   21.0970 F   0  0  0  0  0  0
  -21.5631   -3.4552   25.7740 F   0  0  0  0  0  0
  -30.0073  -13.4066   20.4151 N   0  0  0  0  0  0
  -26.2963  -12.9371   20.3297 N   0  0  0  0  0  0
  -25.9326  -11.6520   20.5769 N   0  0  0  0  0  0
  -22.0486  -12.8198   22.0396 N   0  0  0  0  0  0
  -25.4200  -15.1888   20.3997 N   0  0  0  0  0  0
  -31.8570  -14.6862   20.1461 O   0  0  0  0  0  0
  -21.6647   -6.8899   21.4246 O   0  0  0  0  0  0
  -22.3512  -14.5525   20.6709 O   0  0  0  0  0  0
  -24.6253  -31.8629   23.2116 C   0  0  0  0  0  0
  -25.9107  -32.4804   23.8417 C   0  0  1  0  0  0
  -27.2078  -27.3270   20.0959 C   0  0  0  0  0  0
  -25.5939  -33.8609   24.2325 N   0  0  0  0  0  0
  -23.4168  -30.4956   21.5552 C   0  0  2  0  0  0
  -24.8614  -28.9690   20.1078 C   0  0  0  0  0  0
  -22.7448  -29.4662   22.4959 C   0  0  0  0  0  0
  -18.0281  -28.1394   22.8503 C   0  0  0  0  0  0
  -24.1488  -36.7296   23.2646 C   0  0  0  0  0  0
  -25.9622  -30.7925   21.3905 C   0  0  0  0  0  0
  -26.0333  -29.4256   20.7250 C   0  0  0  0  0  0
  -27.2076  -28.6123   20.7237 C   0  0  0  0  0  0
  -26.0164  -26.9574   19.4185 C   0  0  0  0  0  0
  -24.8539  -27.7370   19.4516 C   0  0  0  0  0  0
  -23.6301  -29.8451   20.1657 C   0  0  0  0  0  0
  -25.4114  -36.3096   24.0340 C   0  0  1  0  0  0
  -20.5877  -28.3705   23.1289 C   0  0  2  0  0  0
  -20.6759  -26.9428   22.5439 C   0  0  0  0  0  0
  -19.5748  -26.6396   21.5225 C   0  0  0  0  0  0
  -18.1913  -26.7961   22.1600 C   0  0  0  0  0  0
  -19.1532  -28.8865   23.2893 C   0  0  0  0  0  0
  -18.9459  -30.1475   23.8906 C   0  0  0  0  0  0
  -17.6455  -30.6606   24.0579 C   0  0  0  0  0  0
  -25.9054  -34.9462   23.5120 C   0  0  0  0  0  0
  -16.5341  -29.9108   23.6352 C   0  0  0  0  0  0
  -16.7270  -28.6525   23.0372 C   0  0  0  0  0  0
  -26.4515  -31.6611   25.0776 C   0  0  0  0  0  0
  -25.3760  -31.3707   26.1501 C   0  0  0  0  0  0
  -27.0396  -30.3044   24.6257 C   0  0  0  0  0  0
  -27.6083  -32.4367   25.7516 C   0  0  0  0  0  0
  -27.5606  -37.1775   24.8453 C   0  0  0  0  0  0
  -21.4171  -29.3055   22.3673 N   0  0  0  0  0  0
  -26.4287  -37.3794   23.9445 N   0  0  0  0  0  0
  -24.6867  -31.0650   22.1085 N   0  0  0  0  0  0
  -23.4177  -28.8181   23.3014 O   0  0  0  0  0  0
  -28.2887  -26.4239   20.1759 O   0  0  0  0  0  0
  -26.5598  -34.8915   22.4672 O   0  0  0  0  0  0
  -23.5418  -32.1432   23.7432 O   0  0  0  0  0  0
  -30.3611  -21.9389   19.6983 C   0  0  0  0  0  0
  -28.7468  -21.6011   21.4572 C   0  0  0  0  0  0
  -29.8496  -23.2486   19.4648 C   0  0  0  0  0  0
  -28.2417  -22.9135   21.2294 C   0  0  0  0  0  0
  -29.8212  -21.0793   20.6930 C   0  0  0  0  0  0
  -28.7716  -23.7674   20.2227 C   0  0  0  0  0  0
  -31.8704  -18.4348   22.8199 C   0  0  0  0  0  0
  -31.0348  -17.1702   22.5890 C   0  0  0  0  0  0
  -29.7274  -18.3562   20.7711 C   0  0  0  0  0  0
  -30.5125  -19.7141   21.0462 C   0  0  2  0  0  0
  -31.0873  -19.7336   22.5011 C   0  0  2  0  0  0
  -30.5833  -17.0669   21.1247 C   0  0  2  0  0  0
  -32.1869  -21.2050   24.3395 C   0  0  0  0  0  0
  -27.9785  -25.0337   19.7678 C   0  0  0  0  0  0
  -31.9258  -21.0051   22.8380 C   0  0  1  0  0  0
  -29.9920  -15.7036   20.8976 N   0  0  0  0  0  0
  -33.1737  -20.9804   22.1650 O   0  0  0  0  0  0
  -31.4588  -12.4676   19.1390 H   0  0  0  0  0  0
  -30.3249  -11.3795   19.8923 H   0  0  0  0  0  0
  -29.7471  -11.7507   17.4664 H   0  0  0  0  0  0
  -29.6465  -13.4721   17.7405 H   0  0  0  0  0  0
  -27.8479  -11.2980   18.8512 H   0  0  0  0  0  0
  -27.3680  -12.5944   17.7865 H   0  0  0  0  0  0
  -27.6642  -14.2563   19.5161 H   0  0  0  0  0  0
  -28.6924  -12.0855   21.4036 H   0  0  0  0  0  0
  -28.4452  -13.7606   21.8144 H   0  0  0  0  0  0
  -25.2787   -9.5666   22.4752 H   0  0  0  0  0  0
  -24.0024   -7.4628   22.7475 H   0  0  0  0  0  0
  -21.0881   -8.8754   19.8939 H   0  0  0  0  0  0
  -22.3718  -10.9666   19.6168 H   0  0  0  0  0  0
  -21.2019   -7.6160   23.9722 H   0  0  0  0  0  0
  -21.1470   -6.0535   25.9078 H   0  0  0  0  0  0
  -22.0610   -2.7622   23.2839 H   0  0  0  0  0  0
  -22.4178  -11.9883   22.4777 H   0  0  0  0  0  0
  -21.1086  -13.1167   22.2609 H   0  0  0  0  0  0
  -24.6479  -15.8395   20.4961 H   0  0  0  0  0  0
  -26.2647  -15.6258   20.0534 H   0  0  0  0  0  0
  -26.7176  -32.5480   23.1168 H   0  0  0  0  0  0
  -25.0080  -33.9770   25.0465 H   0  0  0  0  0  0
  -22.7118  -31.3178   21.4190 H   0  0  0  0  0  0
  -23.3785  -35.9590   23.3255 H   0  0  0  0  0  0
  -24.3561  -36.8976   22.2073 H   0  0  0  0  0  0
  -23.7197  -37.6459   23.6704 H   0  0  0  0  0  0
  -26.0965  -31.5609   20.6270 H   0  0  0  0  0  0
  -26.8404  -30.8335   22.0243 H   0  0  0  0  0  0
  -28.0955  -28.9468   21.2415 H   0  0  0  0  0  0
  -25.9221  -26.0441   18.8517 H   0  0  0  0  0  0
  -23.9594  -27.3899   18.9516 H   0  0  0  0  0  0
  -23.7459  -30.6290   19.4166 H   0  0  0  0  0  0
  -22.7505  -29.2763   19.8613 H   0  0  0  0  0  0
  -25.1285  -36.1948   25.0827 H   0  0  0  0  0  0
  -20.9969  -28.3308   24.1406 H   0  0  0  0  0  0
  -20.5651  -26.2320   23.3639 H   0  0  0  0  0  0
  -21.6632  -26.7438   22.1249 H   0  0  0  0  0  0
  -19.6894  -25.6308   21.1255 H   0  0  0  0  0  0
  -19.6706  -27.3204   20.6759 H   0  0  0  0  0  0
  -17.4200  -26.6790   21.3968 H   0  0  0  0  0  0
  -18.0245  -26.0085   22.8958 H   0  0  0  0  0  0
  -19.7927  -30.7303   24.2279 H   0  0  0  0  0  0
  -17.5003  -31.6280   24.5201 H   0  0  0  0  0  0
  -15.5344  -30.2999   23.7685 H   0  0  0  0  0  0
  -15.8674  -28.0847   22.7074 H   0  0  0  0  0  0
  -24.6012  -30.6959   25.7840 H   0  0  0  0  0  0
  -24.8852  -32.2840   26.4884 H   0  0  0  0  0  0
  -25.8114  -30.8959   27.0307 H   0  0  0  0  0  0
  -26.2994  -29.6754   24.1307 H   0  0  0  0  0  0
  -27.4127  -29.7345   25.4778 H   0  0  0  0  0  0
  -27.8839  -30.4351   23.9480 H   0  0  0  0  0  0
  -27.2714  -33.3679   26.2094 H   0  0  0  0  0  0
  -28.3864  -32.6923   25.0306 H   0  0  0  0  0  0
  -28.0800  -31.8509   26.5422 H   0  0  0  0  0  0
  -28.2566  -38.0129   24.7591 H   0  0  0  0  0  0
  -28.1157  -36.2662   24.6160 H   0  0  0  0  0  0
  -27.2326  -37.1304   25.8849 H   0  0  0  0  0  0
  -20.9332  -29.8810   21.6922 H   0  0  0  0  0  0
  -26.0176  -38.2853   24.1523 H   0  0  0  0  0  0
  -31.1949  -21.5994   19.0999 H   0  0  0  0  0  0
  -28.3060  -20.9982   22.2399 H   0  0  0  0  0  0
  -30.2632  -23.8404   18.6595 H   0  0  0  0  0  0
  -27.3915  -23.2429   21.8114 H   0  0  0  0  0  0
  -32.7696  -18.3699   22.2062 H   0  0  0  0  0  0
  -32.2062  -18.4419   23.8566 H   0  0  0  0  0  0
  -30.1697  -17.1682   23.2532 H   0  0  0  0  0  0
  -31.6346  -16.3013   22.8619 H   0  0  0  0  0  0
  -29.4390  -18.3177   19.7199 H   0  0  0  0  0  0
  -28.7983  -18.3517   21.3414 H   0  0  0  0  0  0
  -31.3831  -19.6696   20.3886 H   0  0  0  0  0  0
  -30.2231  -19.7538   23.1671 H   0  0  0  0  0  0
  -31.4785  -17.1324   20.5022 H   0  0  0  0  0  0
  -31.2523  -21.2047   24.9030 H   0  0  0  0  0  0
  -32.6689  -22.1654   24.5243 H   0  0  0  0  0  0
  -32.8273  -20.4321   24.7639 H   0  0  0  0  0  0
  -26.9790  -24.7788   20.1191 H   0  0  0  0  0  0
  -27.9444  -25.0097   18.6766 H   0  0  0  0  0  0
  -31.3983  -21.9010   22.5105 H   0  0  0  0  0  0
  -29.0133  -15.5763   21.1069 H   0  0  0  0  0  0
  -33.6212  -20.1763   22.4088 H   0  0  0  0  0  0
  1 25  1  0  0  0
  1 30  2  0  0  0
  1 86  1  0  0  0
  2  3  1  0  0  0
  2 25  1  0  0  0
  2 88  1  0  0  0
  2 89  1  0  0  0
  3  4  1  0  0  0
  3 90  1  0  0  0
  3 91  1  0  0  0
  4  5  1  0  0  0
  4 92  1  0  0  0
  4 93  1  0  0  0
  5  6  1  0  0  0
  5 26  1  0  0  0
  5 94  1  0  0  0
  6 25  1  0  0  0
  6 95  1  0  0  0
  6 96  1  0  0  0
  7  8  2  0  0  0
  7 26  1  0  0  0
  7 29  1  0  0  0
  8  9  1  0  0  0
  8 22  1  0  0  0
  9 10  1  0  0  0
  9 27  2  0  0  0
 10 11  2  0  0  0
 10 15  1  0  0  0
 11 12  1  0  0  0
 11 97  1  0  0  0
 12 13  2  0  0  0
 12 98  1  0  0  0
 13 14  1  0  0  0
 13 31  1  0  0  0
 14 15  2  0  0  0
 14 99  1  0  0  0
 15100  1  0  0  0
 16 17  2  0  0  0
 16 21  1  0  0  0
 16 31  1  0  0  0
 17 18  1  0  0  0
 17101  1  0  0  0
 18 19  2  0  0  0
 18102  1  0  0  0
 19 20  1  0  0  0
 19 24  1  0  0  0
 20 21  2  0  0  0
 20103  1  0  0  0
 21 23  1  0  0  0
 22 28  1  0  0  0
 22 32  2  0  0  0
 26 27  1  0  0  0
 28104  1  0  0  0
 28105  1  0  0  0
 29106  1  0  0  0
 29107  1  0  0  0
 33 34  1  0  0  0
 33 66  1  0  0  0
 33 70  2  0  0  0
 34 36  1  0  0  0
 34 59  1  0  0  0
 34108  1  0  0  0
 35 44  2  0  0  0
 35 45  1  0  0  0
 35 68  1  0  0  0
 36 56  1  0  0  0
 36109  1  0  0  0
 37 39  1  0  0  0
 37 47  1  0  0  0
 37 66  1  0  0  0
 37110  1  0  0  0
 38 43  2  0  0  0
 38 46  1  0  0  0
 38 47  1  0  0  0
 39 64  1  0  0  0
 39 67  2  0  0  0
 40 52  1  0  0  0
 40 53  2  0  0  0
 40 58  1  0  0  0
 41111  1  0  0  0
 41112  1  0  0  0
 41113  1  0  0  0
 41 48  1  0  0  0
 42 43  1  0  0  0
 42 66  1  0  0  0
 42114  1  0  0  0
 42115  1  0  0  0
 43 44  1  0  0  0
 44116  1  0  0  0
 45 46  2  0  0  0
 45117  1  0  0  0
 46118  1  0  0  0
 47119  1  0  0  0
 47120  1  0  0  0
 48 56  1  0  0  0
 48 65  1  0  0  0
 48121  1  0  0  0
 49 50  1  0  0  0
 49 53  1  0  0  0
 49 64  1  0  0  0
 49122  1  0  0  0
 50 51  1  0  0  0
 50123  1  0  0  0
 50124  1  0  0  0
 51 52  1  0  0  0
 51125  1  0  0  0
 51126  1  0  0  0
 52127  1  0  0  0
 52128  1  0  0  0
 53 54  1  0  0  0
 54 55  2  0  0  0
 54129  1  0  0  0
 55 57  1  0  0  0
 55130  1  0  0  0
 56 69  2  0  0  0
 57 58  2  0  0  0
 57131  1  0  0  0
 58132  1  0  0  0
 59 60  1  0  0  0
 59 61  1  0  0  0
 59 62  1  0  0  0
 60133  1  0  0  0
 60134  1  0  0  0
 60135  1  0  0  0
 61136  1  0  0  0
 61137  1  0  0  0
 61138  1  0  0  0
 62139  1  0  0  0
 62140  1  0  0  0
 62141  1  0  0  0
 63 65  1  0  0  0
 63142  1  0  0  0
 63143  1  0  0  0
 63144  1  0  0  0
 64145  1  0  0  0
 65146  1  0  0  0
 68 84  1  0  0  0
 71 73  2  0  0  0
 71 75  1  0  0  0
 71147  1  0  0  0
 72 74  1  0  0  0
 72 75  2  0  0  0
 72148  1  0  0  0
 73 76  1  0  0  0
 73149  1  0  0  0
 74 76  2  0  0  0
 74150  1  0  0  0
 75 80  1  0  0  0
 76 84  1  0  0  0
 77 78  1  0  0  0
 77151  1  0  0  0
 77152  1  0  0  0
 77 81  1  0  0  0
 78 82  1  0  0  0
 78153  1  0  0  0
 78154  1  0  0  0
 79 80  1  0  0  0
 79 82  1  0  0  0
 79155  1  0  0  0
 79156  1  0  0  0
 80 81  1  0  0  0
 80157  1  0  0  0
 81 85  1  0  0  0
 81158  1  0  0  0
 82 86  1  0  0  0
 82159  1  0  0  0
 83160  1  0  0  0
 83161  1  0  0  0
 83162  1  0  0  0
 83 85  1  0  0  0
 84163  1  0  0  0
 84164  1  0  0  0
 85 87  1  0  0  0
 85165  1  0  0  0
 86166  1  0  0  0
 87167  1  0  0  0
M  ISO  4   1 100  68 101  84 101  86 100
M  END
> <chiral flag>
0

> <version>
0

> <s_m_source_file>
/data/baiqing/PycharmProjects/Reinvent-master-3.2/result/LINK_invent/BTK/process_docking_weight1_custom_sum_contain_oxygen_bond_distance_aromatic_linkinvent_7_9_3/rearranged_h_0129.sdf

> <i_m_source_file_index>
92

> <r_mmod_Potential_Energy-OPLS-2005>
95.5132675170898

> <r_mmod_Stretch_Energy-OPLS-2005>
76.1328964233398

> <r_mmod_Bend_Energy-OPLS-2005>
142.094497680664

> <r_mmod_Torsional_Energy-OPLS-2005>
243.05419921875

> <r_mmod_Improper_Torsional_Energy-OPLS-2005>
6.7811975479126

> <r_mmod_Van_der_Waal_Energy-OPLS-2005>
164.032913208008

> <r_mmod_Electrostatic_Energy-OPLS-2005>
-364.619171142578

> <r_mmod_Solvation_Energy-OPLS-2005>
-219.634521484375

> <b_mmod_Minimization_Converged-OPLS-2005>
0

> <r_mmod_RMS_Derivative-OPLS-2005>
2.71398282051086

$$$$
93
                    3D
 Structure written by MMmdl.
160168  0  0  1  0            999 V2000
  -30.7865  -14.3034   20.7370 C   0  0  0  0  0  0
  -30.4175  -12.2910   19.3575 C   0  0  0  0  0  0
  -29.4634  -12.5316   18.1737 C   0  0  0  0  0  0
  -27.9969  -12.3662   18.6066 C   0  0  0  0  0  0
  -27.6652  -13.1894   19.8749 C   0  0  2  0  0  0
  -28.7043  -12.9076   20.9815 C   0  0  0  0  0  0
  -25.2599  -13.8129   20.5681 C   0  0  0  0  0  0
  -24.1833  -13.0427   20.9143 C   0  0  0  0  0  0
  -24.6358  -11.6887   20.8717 C   0  0  0  0  0  0
  -23.9007  -10.4298   21.0409 C   0  0  0  0  0  0
  -24.3603   -9.4206   21.9153 C   0  0  0  0  0  0
  -23.6333   -8.2207   22.0662 C   0  0  0  0  0  0
  -22.4274   -8.0250   21.3522 C   0  0  0  0  0  0
  -21.9868   -9.0232   20.4674 C   0  0  0  0  0  0
  -22.7161  -10.2131   20.3094 C   0  0  0  0  0  0
  -21.6856   -6.0736   22.5280 C   0  0  0  0  0  0
  -21.4014   -6.5634   23.8222 C   0  0  0  0  0  0
  -21.3653   -5.6762   24.9177 C   0  0  0  0  0  0
  -21.6035   -4.3030   24.7189 C   0  0  0  0  0  0
  -21.8816   -3.8137   23.4302 C   0  0  0  0  0  0
  -21.9192   -4.6969   22.3380 C   0  0  0  0  0  0
  -22.7846  -13.5225   21.1804 C   0  0  0  0  0  0
  -22.1661   -4.2183   21.0950 F   0  0  0  0  0  0
  -21.5641   -3.4491   25.7680 F   0  0  0  0  0  0
  -30.0543  -13.1996   20.4518 N   0  0  0  0  0  0
  -26.3025  -12.9279   20.3356 N   0  0  0  0  0  0
  -25.9290  -11.6457   20.5765 N   0  0  0  0  0  0
  -22.0486  -12.8194   22.0325 N   0  0  0  0  0  0
  -25.4372  -15.1855   20.4166 N   0  0  0  0  0  0
  -31.7495  -14.6922   20.0674 O   0  0  0  0  0  0
  -21.6646   -6.8852   21.4226 O   0  0  0  0  0  0
  -22.3518  -14.5545   20.6657 O   0  0  0  0  0  0
  -24.6094  -31.8713   23.2117 C   0  0  0  0  0  0
  -25.9023  -32.4844   23.8373 C   0  0  1  0  0  0
  -27.2316  -27.4712   20.0857 C   0  0  0  0  0  0
  -25.5901  -33.8643   24.2323 N   0  0  0  0  0  0
  -23.3924  -30.4993   21.5511 C   0  0  2  0  0  0
  -24.8356  -28.9675   20.1159 C   0  0  0  0  0  0
  -22.7357  -29.4705   22.4982 C   0  0  0  0  0  0
  -18.0275  -28.1391   22.8492 C   0  0  0  0  0  0
  -24.1491  -36.7326   23.2634 C   0  0  0  0  0  0
  -25.9167  -30.8505   21.3554 C   0  0  0  0  0  0
  -25.9929  -29.4867   20.7065 C   0  0  0  0  0  0
  -27.1915  -28.7455   20.6906 C   0  0  0  0  0  0
  -26.0538  -26.9583   19.4907 C   0  0  0  0  0  0
  -24.8576  -27.6992   19.5094 C   0  0  0  0  0  0
  -23.5986  -29.8338   20.1637 C   0  0  0  0  0  0
  -25.4111  -36.3126   24.0328 C   0  0  1  0  0  0
  -20.5854  -28.3681   23.1323 C   0  0  2  0  0  0
  -20.6785  -26.9425   22.5417 C   0  0  0  0  0  0
  -19.5769  -26.6403   21.5209 C   0  0  0  0  0  0
  -18.1943  -26.7939   22.1613 C   0  0  0  0  0  0
  -19.1521  -28.8849   23.2912 C   0  0  0  0  0  0
  -18.9449  -30.1459   23.8920 C   0  0  0  0  0  0
  -17.6454  -30.6599   24.0586 C   0  0  0  0  0  0
  -25.9031  -34.9495   23.5120 C   0  0  0  0  0  0
  -16.5345  -29.9114   23.6320 C   0  0  0  0  0  0
  -16.7264  -28.6532   23.0330 C   0  0  0  0  0  0
  -26.4471  -31.6588   25.0665 C   0  0  0  0  0  0
  -25.3750  -31.3667   26.1413 C   0  0  0  0  0  0
  -27.0257  -30.3032   24.5981 C   0  0  0  0  0  0
  -27.6081  -32.4249   25.7436 C   0  0  0  0  0  0
  -27.5581  -37.1822   24.8453 C   0  0  0  0  0  0
  -21.4096  -29.3051   22.3718 N   0  0  0  0  0  0
  -26.4296  -37.3806   23.9394 N   0  0  0  0  0  0
  -24.6581  -31.0862   22.0990 N   0  0  0  0  0  0
  -23.4168  -28.8252   23.2999 O   0  0  0  0  0  0
  -28.4350  -26.8004   20.1010 O   0  0  0  0  0  0
  -26.5592  -34.8942   22.4684 O   0  0  0  0  0  0
  -23.5302  -32.1454   23.7547 O   0  0  0  0  0  0
  -29.0757  -21.3677   23.7323 C   0  0  0  0  0  0
  -28.8393  -22.4433   22.8531 C   0  0  0  0  0  0
  -27.9914  -19.9330   22.1253 C   0  0  0  0  0  0
  -28.6604  -20.0744   23.3557 C   0  0  0  0  0  0
  -28.1859  -22.1899   21.6300 C   0  0  0  0  0  0
  -28.8945  -18.8757   24.2732 C   0  0  0  0  0  0
  -30.9141  -16.1171   22.4852 C   0  0  0  0  0  0
  -27.8322  -24.5792   20.9535 C   0  0  0  0  0  0
  -29.6994  -16.8987   23.0146 C   0  0  0  0  0  0
  -28.4669  -25.4061   19.8192 C   0  0  0  0  0  0
  -27.7743  -20.9618   21.2783 N   0  0  0  0  0  0
  -27.9180  -23.1537   20.6599 N   0  0  0  0  0  0
  -30.4258  -14.8855   21.8820 N   0  0  0  0  0  0
  -30.0549  -18.0508   23.8675 N   0  3  0  0  0  0
  -31.4522  -12.4264   19.0375 H   0  0  0  0  0  0
  -30.3450  -11.2561   19.6963 H   0  0  0  0  0  0
  -29.6879  -11.8434   17.3578 H   0  0  0  0  0  0
  -29.6107  -13.5374   17.7787 H   0  0  0  0  0  0
  -27.8208  -11.3064   18.7945 H   0  0  0  0  0  0
  -27.3237  -12.6451   17.7949 H   0  0  0  0  0  0
  -27.7340  -14.2436   19.6066 H   0  0  0  0  0  0
  -28.6647  -11.8588   21.2816 H   0  0  0  0  0  0
  -28.4380  -13.4740   21.8737 H   0  0  0  0  0  0
  -25.2741   -9.5721   22.4742 H   0  0  0  0  0  0
  -24.0116   -7.4540   22.7265 H   0  0  0  0  0  0
  -21.0811   -8.8728   19.8981 H   0  0  0  0  0  0
  -22.3558  -10.9672   19.6239 H   0  0  0  0  0  0
  -21.2005   -7.6139   23.9756 H   0  0  0  0  0  0
  -21.1477   -6.0462   25.9102 H   0  0  0  0  0  0
  -22.0595   -2.7601   23.2741 H   0  0  0  0  0  0
  -22.4111  -11.9824   22.4642 H   0  0  0  0  0  0
  -21.1026  -13.1064   22.2400 H   0  0  0  0  0  0
  -24.6765  -15.8464   20.5329 H   0  0  0  0  0  0
  -26.2971  -15.6210   20.1096 H   0  0  0  0  0  0
  -26.7099  -32.5568   23.1146 H   0  0  0  0  0  0
  -25.0061  -33.9814   25.0473 H   0  0  0  0  0  0
  -22.6784  -31.3149   21.4155 H   0  0  0  0  0  0
  -23.3756  -35.9658   23.3300 H   0  0  0  0  0  0
  -24.3587  -36.8936   22.2046 H   0  0  0  0  0  0
  -23.7238  -37.6529   23.6652 H   0  0  0  0  0  0
  -26.0104  -31.6128   20.5818 H   0  0  0  0  0  0
  -26.8130  -30.9112   21.9598 H   0  0  0  0  0  0
  -28.0872  -29.1494   21.1422 H   0  0  0  0  0  0
  -26.0343  -25.9954   19.0030 H   0  0  0  0  0  0
  -23.9664  -27.2929   19.0508 H   0  0  0  0  0  0
  -23.7128  -30.6113   19.4066 H   0  0  0  0  0  0
  -22.7212  -29.2596   19.8616 H   0  0  0  0  0  0
  -25.1298  -36.1985   25.0820 H   0  0  0  0  0  0
  -20.9962  -28.3273   24.1438 H   0  0  0  0  0  0
  -20.5697  -26.2302   23.3604 H   0  0  0  0  0  0
  -21.6664  -26.7493   22.1207 H   0  0  0  0  0  0
  -19.6934  -25.6312   21.1237 H   0  0  0  0  0  0
  -19.6718  -27.3234   20.6747 H   0  0  0  0  0  0
  -17.4217  -26.6691   21.4016 H   0  0  0  0  0  0
  -18.0355  -26.0079   22.9002 H   0  0  0  0  0  0
  -19.7923  -30.7284   24.2291 H   0  0  0  0  0  0
  -17.5007  -31.6275   24.5202 H   0  0  0  0  0  0
  -15.5351  -30.3037   23.7617 H   0  0  0  0  0  0
  -15.8661  -28.0878   22.6998 H   0  0  0  0  0  0
  -24.5973  -30.6961   25.7745 H   0  0  0  0  0  0
  -24.8887  -32.2808   26.4826 H   0  0  0  0  0  0
  -25.8118  -30.8865   27.0175 H   0  0  0  0  0  0
  -26.2750  -29.6829   24.1072 H   0  0  0  0  0  0
  -27.4081  -29.7228   25.4388 H   0  0  0  0  0  0
  -27.8576  -30.4351   23.9057 H   0  0  0  0  0  0
  -27.2758  -33.3561   26.2036 H   0  0  0  0  0  0
  -28.3916  -32.6755   25.0271 H   0  0  0  0  0  0
  -28.0723  -31.8315   26.5327 H   0  0  0  0  0  0
  -28.2603  -38.0114   24.7518 H   0  0  0  0  0  0
  -28.1074  -36.2655   24.6275 H   0  0  0  0  0  0
  -27.2304  -37.1468   25.8854 H   0  0  0  0  0  0
  -20.9231  -29.8758   21.6943 H   0  0  0  0  0  0
  -26.0186  -38.2877   24.1425 H   0  0  0  0  0  0
  -29.5678  -21.5331   24.6810 H   0  0  0  0  0  0
  -29.1820  -23.4260   23.1431 H   0  0  0  0  0  0
  -27.6346  -18.9690   21.7970 H   0  0  0  0  0  0
  -27.9901  -18.2674   24.3297 H   0  0  0  0  0  0
  -29.0667  -19.2369   25.2873 H   0  0  0  0  0  0
  -31.6031  -15.8631   23.2919 H   0  0  0  0  0  0
  -31.4674  -16.7157   21.7579 H   0  0  0  0  0  0
  -26.7768  -24.8322   21.0578 H   0  0  0  0  0  0
  -28.3025  -24.8471   21.8983 H   0  0  0  0  0  0
  -29.0538  -16.2380   23.5963 H   0  0  0  0  0  0
  -29.1040  -17.2380   22.1663 H   0  0  0  0  0  0
  -28.0323  -25.1813   18.8442 H   0  0  0  0  0  0
  -29.5173  -25.1278   19.7354 H   0  0  0  0  0  0
  -27.3845  -22.8338   19.8605 H   0  0  0  0  0  0
  -29.6849  -14.4071   22.3736 H   0  0  0  0  0  0
  -30.7498  -18.6266   23.4234 H   0  0  0  0  0  0
  -30.4690  -17.6789   24.7096 H   0  0  0  0  0  0
  1 25  1  0  0  0
  1 30  2  0  0  0
  1 83  1  0  0  0
  2  3  1  0  0  0
  2 25  1  0  0  0
  2 85  1  0  0  0
  2 86  1  0  0  0
  3  4  1  0  0  0
  3 87  1  0  0  0
  3 88  1  0  0  0
  4  5  1  0  0  0
  4 89  1  0  0  0
  4 90  1  0  0  0
  5  6  1  0  0  0
  5 26  1  0  0  0
  5 91  1  0  0  0
  6 25  1  0  0  0
  6 92  1  0  0  0
  6 93  1  0  0  0
  7  8  2  0  0  0
  7 26  1  0  0  0
  7 29  1  0  0  0
  8  9  1  0  0  0
  8 22  1  0  0  0
  9 10  1  0  0  0
  9 27  2  0  0  0
 10 11  2  0  0  0
 10 15  1  0  0  0
 11 12  1  0  0  0
 11 94  1  0  0  0
 12 13  2  0  0  0
 12 95  1  0  0  0
 13 14  1  0  0  0
 13 31  1  0  0  0
 14 15  2  0  0  0
 14 96  1  0  0  0
 15 97  1  0  0  0
 16 17  2  0  0  0
 16 21  1  0  0  0
 16 31  1  0  0  0
 17 18  1  0  0  0
 17 98  1  0  0  0
 18 19  2  0  0  0
 18 99  1  0  0  0
 19 20  1  0  0  0
 19 24  1  0  0  0
 20 21  2  0  0  0
 20100  1  0  0  0
 21 23  1  0  0  0
 22 28  1  0  0  0
 22 32  2  0  0  0
 26 27  1  0  0  0
 28101  1  0  0  0
 28102  1  0  0  0
 29103  1  0  0  0
 29104  1  0  0  0
 33 34  1  0  0  0
 33 66  1  0  0  0
 33 70  2  0  0  0
 34 36  1  0  0  0
 34 59  1  0  0  0
 34105  1  0  0  0
 35 44  2  0  0  0
 35 45  1  0  0  0
 35 68  1  0  0  0
 36 56  1  0  0  0
 36106  1  0  0  0
 37 39  1  0  0  0
 37 47  1  0  0  0
 37 66  1  0  0  0
 37107  1  0  0  0
 38 43  2  0  0  0
 38 46  1  0  0  0
 38 47  1  0  0  0
 39 64  1  0  0  0
 39 67  2  0  0  0
 40 52  1  0  0  0
 40 53  2  0  0  0
 40 58  1  0  0  0
 41108  1  0  0  0
 41109  1  0  0  0
 41110  1  0  0  0
 41 48  1  0  0  0
 42 43  1  0  0  0
 42 66  1  0  0  0
 42111  1  0  0  0
 42112  1  0  0  0
 43 44  1  0  0  0
 44113  1  0  0  0
 45 46  2  0  0  0
 45114  1  0  0  0
 46115  1  0  0  0
 47116  1  0  0  0
 47117  1  0  0  0
 48 56  1  0  0  0
 48 65  1  0  0  0
 48118  1  0  0  0
 49 50  1  0  0  0
 49 53  1  0  0  0
 49 64  1  0  0  0
 49119  1  0  0  0
 50 51  1  0  0  0
 50120  1  0  0  0
 50121  1  0  0  0
 51 52  1  0  0  0
 51122  1  0  0  0
 51123  1  0  0  0
 52124  1  0  0  0
 52125  1  0  0  0
 53 54  1  0  0  0
 54 55  2  0  0  0
 54126  1  0  0  0
 55 57  1  0  0  0
 55127  1  0  0  0
 56 69  2  0  0  0
 57 58  2  0  0  0
 57128  1  0  0  0
 58129  1  0  0  0
 59 60  1  0  0  0
 59 61  1  0  0  0
 59 62  1  0  0  0
 60130  1  0  0  0
 60131  1  0  0  0
 60132  1  0  0  0
 61133  1  0  0  0
 61134  1  0  0  0
 61135  1  0  0  0
 62136  1  0  0  0
 62137  1  0  0  0
 62138  1  0  0  0
 63 65  1  0  0  0
 63139  1  0  0  0
 63140  1  0  0  0
 63141  1  0  0  0
 64142  1  0  0  0
 65143  1  0  0  0
 68 80  1  0  0  0
 71 72  2  0  0  0
 71 74  1  0  0  0
 71144  1  0  0  0
 72 75  1  0  0  0
 72145  1  0  0  0
 73 74  2  0  0  0
 73 81  1  0  0  0
 73146  1  0  0  0
 74 76  1  0  0  0
 75 81  2  0  0  0
 75 82  1  0  0  0
 76 84  1  0  0  0
 76147  1  0  0  0
 76148  1  0  0  0
 77 79  1  0  0  0
 77 83  1  0  0  0
 77149  1  0  0  0
 77150  1  0  0  0
 78 80  1  0  0  0
 78 82  1  0  0  0
 78151  1  0  0  0
 78152  1  0  0  0
 79 84  1  0  0  0
 79153  1  0  0  0
 79154  1  0  0  0
 80155  1  0  0  0
 80156  1  0  0  0
 82157  1  0  0  0
 83158  1  0  0  0
 84159  1  0  0  0
 84160  1  0  0  0
M  CHG  1  84   1
M  ISO  4   1 100  68 101  80 101  83 100
M  END
> <chiral flag>
0

> <version>
0

> <s_m_source_file>
/data/baiqing/PycharmProjects/Reinvent-master-3.2/result/LINK_invent/BTK/process_docking_weight1_custom_sum_contain_oxygen_bond_distance_aromatic_linkinvent_7_9_3/rearranged_h_0129.sdf

> <i_m_source_file_index>
93

> <r_mmod_Potential_Energy-OPLS-2005>
-544.665283203125

> <r_mmod_Stretch_Energy-OPLS-2005>
30.5056991577148

> <r_mmod_Bend_Energy-OPLS-2005>
111.98600769043

> <r_mmod_Torsional_Energy-OPLS-2005>
177.839202880859

> <r_mmod_Improper_Torsional_Energy-OPLS-2005>
3.87671208381653

> <r_mmod_Van_der_Waal_Energy-OPLS-2005>
160.468185424805

> <r_mmod_Electrostatic_Energy-OPLS-2005>
-518.684509277344

> <r_mmod_Solvation_Energy-OPLS-2005>
-519.936828613281

> <b_mmod_Minimization_Converged-OPLS-2005>
0

> <r_mmod_RMS_Derivative-OPLS-2005>
3.07924461364746

$$$$
94
                    3D
 Structure written by MMmdl.
159167  0  0  1  0            999 V2000
  -30.7742  -14.3474   20.6911 C   0  0  0  0  0  0
  -30.4140  -12.2840   19.3891 C   0  0  0  0  0  0
  -29.4812  -12.5266   18.1889 C   0  0  0  0  0  0
  -28.0062  -12.3819   18.6070 C   0  0  0  0  0  0
  -27.6662  -13.2019   19.8790 C   0  0  2  0  0  0
  -28.7029  -12.9381   20.9925 C   0  0  0  0  0  0
  -25.2604  -13.8158   20.5666 C   0  0  0  0  0  0
  -24.1845  -13.0441   20.9158 C   0  0  0  0  0  0
  -24.6390  -11.6906   20.8721 C   0  0  0  0  0  0
  -23.9054  -10.4294   21.0399 C   0  0  0  0  0  0
  -24.3609   -9.4212   21.9179 C   0  0  0  0  0  0
  -23.6287   -8.2247   22.0753 C   0  0  0  0  0  0
  -22.4270   -8.0281   21.3544 C   0  0  0  0  0  0
  -21.9901   -9.0253   20.4646 C   0  0  0  0  0  0
  -22.7226  -10.2134   20.3052 C   0  0  0  0  0  0
  -21.6852   -6.0734   22.5279 C   0  0  0  0  0  0
  -21.4014   -6.5638   23.8212 C   0  0  0  0  0  0
  -21.3659   -5.6792   24.9174 C   0  0  0  0  0  0
  -21.6044   -4.3055   24.7226 C   0  0  0  0  0  0
  -21.8819   -3.8146   23.4347 C   0  0  0  0  0  0
  -21.9193   -4.6962   22.3403 C   0  0  0  0  0  0
  -22.7870  -13.5245   21.1832 C   0  0  0  0  0  0
  -22.1661   -4.2148   21.0980 F   0  0  0  0  0  0
  -21.5629   -3.4539   25.7739 F   0  0  0  0  0  0
  -30.0476  -13.2253   20.4567 N   0  0  0  0  0  0
  -26.3042  -12.9321   20.3371 N   0  0  0  0  0  0
  -25.9313  -11.6482   20.5748 N   0  0  0  0  0  0
  -22.0510  -12.8240   22.0392 N   0  0  0  0  0  0
  -25.4345  -15.1871   20.4080 N   0  0  0  0  0  0
  -31.7942  -14.6413   20.0594 O   0  0  0  0  0  0
  -21.6637   -6.8877   21.4241 O   0  0  0  0  0  0
  -22.3556  -14.5554   20.6688 O   0  0  0  0  0  0
  -24.6114  -31.8698   23.2119 C   0  0  0  0  0  0
  -25.9022  -32.4830   23.8403 C   0  0  1  0  0  0
  -27.2380  -27.4642   20.0815 C   0  0  0  0  0  0
  -25.5892  -33.8629   24.2336 N   0  0  0  0  0  0
  -23.3963  -30.4936   21.5527 C   0  0  2  0  0  0
  -24.8398  -28.9599   20.1175 C   0  0  0  0  0  0
  -22.7384  -29.4670   22.5017 C   0  0  0  0  0  0
  -18.0264  -28.1373   22.8501 C   0  0  0  0  0  0
  -24.1487  -36.7319   23.2639 C   0  0  0  0  0  0
  -25.9214  -30.8443   21.3583 C   0  0  0  0  0  0
  -25.9980  -29.4805   20.7057 C   0  0  0  0  0  0
  -27.1975  -28.7401   20.6822 C   0  0  0  0  0  0
  -26.0561  -26.9434   19.5043 C   0  0  0  0  0  0
  -24.8619  -27.6888   19.5174 C   0  0  0  0  0  0
  -23.6011  -29.8238   20.1675 C   0  0  0  0  0  0
  -25.4108  -36.3117   24.0339 C   0  0  1  0  0  0
  -20.5850  -28.3652   23.1336 C   0  0  2  0  0  0
  -20.6756  -26.9395   22.5422 C   0  0  0  0  0  0
  -19.5735  -26.6387   21.5217 C   0  0  0  0  0  0
  -18.1912  -26.7922   22.1627 C   0  0  0  0  0  0
  -19.1512  -28.8829   23.2916 C   0  0  0  0  0  0
  -18.9443  -30.1439   23.8921 C   0  0  0  0  0  0
  -17.6447  -30.6583   24.0569 C   0  0  0  0  0  0
  -25.9031  -34.9481   23.5134 C   0  0  0  0  0  0
  -16.5339  -29.9088   23.6326 C   0  0  0  0  0  0
  -16.7255  -28.6502   23.0351 C   0  0  0  0  0  0
  -26.4464  -31.6603   25.0720 C   0  0  0  0  0  0
  -25.3747  -31.3691   26.1481 C   0  0  0  0  0  0
  -27.0293  -30.3055   24.6068 C   0  0  0  0  0  0
  -27.6048  -32.4316   25.7477 C   0  0  0  0  0  0
  -27.5581  -37.1814   24.8467 C   0  0  0  0  0  0
  -21.4117  -29.3028   22.3752 N   0  0  0  0  0  0
  -26.4297  -37.3798   23.9407 N   0  0  0  0  0  0
  -24.6614  -31.0826   22.1001 N   0  0  0  0  0  0
  -23.4173  -28.8215   23.3048 O   0  0  0  0  0  0
  -28.4446  -26.8010   20.0785 O   0  0  0  0  0  0
  -26.5592  -34.8927   22.4694 O   0  0  0  0  0  0
  -23.5319  -32.1437   23.7539 O   0  0  0  0  0  0
  -30.0137  -19.5886   19.3850 C   0  0  0  0  0  0
  -27.8717  -19.5268   20.5342 C   0  0  0  0  0  0
  -29.6852  -20.8424   18.8356 C   0  0  0  0  0  0
  -27.5467  -20.7841   19.9886 C   0  0  0  0  0  0
  -29.1170  -18.9301   20.2561 C   0  0  0  0  0  0
  -28.4558  -21.4668   19.1566 C   0  0  0  0  0  0
  -28.6710  -25.0343   18.3835 C   0  0  0  0  0  0
  -30.8290  -17.4841   21.2171 C   0  0  0  0  0  0
  -30.9893  -16.3118   22.1985 C   0  0  0  0  0  0
  -29.1047  -23.5742   18.2030 C   0  0  0  0  0  0
  -28.4778  -25.3928   19.8673 C   0  0  0  0  0  0
  -29.4313  -17.7064   20.8604 N   0  0  0  0  0  0
  -30.3425  -15.0975   21.7104 N   0  0  0  0  0  0
  -28.0851  -22.7154   18.7082 O   0  0  0  0  0  0
  -31.4570  -12.3835   19.0831 H   0  0  0  0  0  0
  -30.3105  -11.2599   19.7508 H   0  0  0  0  0  0
  -29.7118  -11.8265   17.3848 H   0  0  0  0  0  0
  -29.6528  -13.5256   17.7848 H   0  0  0  0  0  0
  -27.8123  -11.3235   18.7851 H   0  0  0  0  0  0
  -27.3521  -12.6759   17.7853 H   0  0  0  0  0  0
  -27.7272  -14.2569   19.6103 H   0  0  0  0  0  0
  -28.6611  -11.8940   21.3061 H   0  0  0  0  0  0
  -28.4487  -13.5134   21.8825 H   0  0  0  0  0  0
  -25.2756   -9.5690   22.4750 H   0  0  0  0  0  0
  -23.9999   -7.4640   22.7473 H   0  0  0  0  0  0
  -21.0832   -8.8768   19.8953 H   0  0  0  0  0  0
  -22.3683  -10.9670   19.6159 H   0  0  0  0  0  0
  -21.2006   -7.6146   23.9715 H   0  0  0  0  0  0
  -21.1481   -6.0522   25.9077 H   0  0  0  0  0  0
  -22.0599   -2.7608   23.2847 H   0  0  0  0  0  0
  -22.4121  -11.9896   22.4776 H   0  0  0  0  0  0
  -21.1132  -13.1274   22.2604 H   0  0  0  0  0  0
  -24.6731  -15.8480   20.5167 H   0  0  0  0  0  0
  -26.2970  -15.6221   20.1033 H   0  0  0  0  0  0
  -26.7094  -32.5548   23.1170 H   0  0  0  0  0  0
  -25.0061  -33.9797   25.0494 H   0  0  0  0  0  0
  -22.6837  -31.3095   21.4151 H   0  0  0  0  0  0
  -23.3744  -35.9658   23.3319 H   0  0  0  0  0  0
  -24.3579  -36.8914   22.2050 H   0  0  0  0  0  0
  -23.7247  -37.6533   23.6640 H   0  0  0  0  0  0
  -26.0280  -31.6117   20.5904 H   0  0  0  0  0  0
  -26.8117  -30.8983   21.9730 H   0  0  0  0  0  0
  -28.0958  -29.1452   21.1272 H   0  0  0  0  0  0
  -26.0376  -25.9727   19.0331 H   0  0  0  0  0  0
  -23.9688  -27.2797   19.0650 H   0  0  0  0  0  0
  -23.7058  -30.5971   19.4058 H   0  0  0  0  0  0
  -22.7255  -29.2411   19.8751 H   0  0  0  0  0  0
  -25.1286  -36.1988   25.0833 H   0  0  0  0  0  0
  -20.9941  -28.3210   24.1456 H   0  0  0  0  0  0
  -20.5667  -26.2257   23.3601 H   0  0  0  0  0  0
  -21.6628  -26.7447   22.1210 H   0  0  0  0  0  0
  -19.6898  -25.6304   21.1228 H   0  0  0  0  0  0
  -19.6673  -27.3212   20.6760 H   0  0  0  0  0  0
  -17.4185  -26.6678   21.4025 H   0  0  0  0  0  0
  -18.0309  -26.0054   22.9012 H   0  0  0  0  0  0
  -19.7919  -30.7250   24.2299 H   0  0  0  0  0  0
  -17.5002  -31.6266   24.5165 H   0  0  0  0  0  0
  -15.5341  -30.2999   23.7634 H   0  0  0  0  0  0
  -15.8653  -28.0829   22.7057 H   0  0  0  0  0  0
  -24.5915  -30.7041   25.7821 H   0  0  0  0  0  0
  -24.8944  -32.2840   26.4961 H   0  0  0  0  0  0
  -25.8119  -30.8841   27.0217 H   0  0  0  0  0  0
  -26.2822  -29.6815   24.1148 H   0  0  0  0  0  0
  -27.4110  -29.7290   25.4504 H   0  0  0  0  0  0
  -27.8633  -30.4392   23.9174 H   0  0  0  0  0  0
  -27.2675  -33.3603   26.2090 H   0  0  0  0  0  0
  -28.3838  -32.6896   25.0289 H   0  0  0  0  0  0
  -28.0738  -31.8418   26.5361 H   0  0  0  0  0  0
  -28.2611  -38.0100   24.7508 H   0  0  0  0  0  0
  -28.1064  -36.2633   24.6304 H   0  0  0  0  0  0
  -27.2296  -37.1481   25.8869 H   0  0  0  0  0  0
  -20.9270  -29.8752   21.6981 H   0  0  0  0  0  0
  -26.0189  -38.2879   24.1404 H   0  0  0  0  0  0
  -30.9658  -19.1491   19.1255 H   0  0  0  0  0  0
  -27.1608  -19.0391   21.1863 H   0  0  0  0  0  0
  -30.4003  -21.3077   18.1734 H   0  0  0  0  0  0
  -26.5967  -21.2382   20.2318 H   0  0  0  0  0  0
  -27.7655  -25.2298   17.8107 H   0  0  0  0  0  0
  -29.4438  -25.6766   17.9603 H   0  0  0  0  0  0
  -31.4073  -17.2855   20.3134 H   0  0  0  0  0  0
  -31.2490  -18.3877   21.6641 H   0  0  0  0  0  0
  -30.5537  -16.5701   23.1646 H   0  0  0  0  0  0
  -32.0481  -16.1204   22.3836 H   0  0  0  0  0  0
  -30.0506  -23.4394   18.7302 H   0  0  0  0  0  0
  -29.2794  -23.3545   17.1489 H   0  0  0  0  0  0
  -29.3339  -25.0239   20.4332 H   0  0  0  0  0  0
  -27.6102  -24.8892   20.2967 H   0  0  0  0  0  0
  -28.7526  -17.3450   21.5240 H   0  0  0  0  0  0
  -29.5129  -14.7840   22.1908 H   0  0  0  0  0  0
  1 25  1  0  0  0
  1 30  2  0  0  0
  1 83  1  0  0  0
  2  3  1  0  0  0
  2 25  1  0  0  0
  2 85  1  0  0  0
  2 86  1  0  0  0
  3  4  1  0  0  0
  3 87  1  0  0  0
  3 88  1  0  0  0
  4  5  1  0  0  0
  4 89  1  0  0  0
  4 90  1  0  0  0
  5  6  1  0  0  0
  5 26  1  0  0  0
  5 91  1  0  0  0
  6 25  1  0  0  0
  6 92  1  0  0  0
  6 93  1  0  0  0
  7  8  2  0  0  0
  7 26  1  0  0  0
  7 29  1  0  0  0
  8  9  1  0  0  0
  8 22  1  0  0  0
  9 10  1  0  0  0
  9 27  2  0  0  0
 10 11  2  0  0  0
 10 15  1  0  0  0
 11 12  1  0  0  0
 11 94  1  0  0  0
 12 13  2  0  0  0
 12 95  1  0  0  0
 13 14  1  0  0  0
 13 31  1  0  0  0
 14 15  2  0  0  0
 14 96  1  0  0  0
 15 97  1  0  0  0
 16 17  2  0  0  0
 16 21  1  0  0  0
 16 31  1  0  0  0
 17 18  1  0  0  0
 17 98  1  0  0  0
 18 19  2  0  0  0
 18 99  1  0  0  0
 19 20  1  0  0  0
 19 24  1  0  0  0
 20 21  2  0  0  0
 20100  1  0  0  0
 21 23  1  0  0  0
 22 28  1  0  0  0
 22 32  2  0  0  0
 26 27  1  0  0  0
 28101  1  0  0  0
 28102  1  0  0  0
 29103  1  0  0  0
 29104  1  0  0  0
 33 34  1  0  0  0
 33 66  1  0  0  0
 33 70  2  0  0  0
 34 36  1  0  0  0
 34 59  1  0  0  0
 34105  1  0  0  0
 35 44  2  0  0  0
 35 45  1  0  0  0
 35 68  1  0  0  0
 36 56  1  0  0  0
 36106  1  0  0  0
 37 39  1  0  0  0
 37 47  1  0  0  0
 37 66  1  0  0  0
 37107  1  0  0  0
 38 43  2  0  0  0
 38 46  1  0  0  0
 38 47  1  0  0  0
 39 64  1  0  0  0
 39 67  2  0  0  0
 40 52  1  0  0  0
 40 53  2  0  0  0
 40 58  1  0  0  0
 41108  1  0  0  0
 41109  1  0  0  0
 41110  1  0  0  0
 41 48  1  0  0  0
 42 43  1  0  0  0
 42 66  1  0  0  0
 42111  1  0  0  0
 42112  1  0  0  0
 43 44  1  0  0  0
 44113  1  0  0  0
 45 46  2  0  0  0
 45114  1  0  0  0
 46115  1  0  0  0
 47116  1  0  0  0
 47117  1  0  0  0
 48 56  1  0  0  0
 48 65  1  0  0  0
 48118  1  0  0  0
 49 50  1  0  0  0
 49 53  1  0  0  0
 49 64  1  0  0  0
 49119  1  0  0  0
 50 51  1  0  0  0
 50120  1  0  0  0
 50121  1  0  0  0
 51 52  1  0  0  0
 51122  1  0  0  0
 51123  1  0  0  0
 52124  1  0  0  0
 52125  1  0  0  0
 53 54  1  0  0  0
 54 55  2  0  0  0
 54126  1  0  0  0
 55 57  1  0  0  0
 55127  1  0  0  0
 56 69  2  0  0  0
 57 58  2  0  0  0
 57128  1  0  0  0
 58129  1  0  0  0
 59 60  1  0  0  0
 59 61  1  0  0  0
 59 62  1  0  0  0
 60130  1  0  0  0
 60131  1  0  0  0
 60132  1  0  0  0
 61133  1  0  0  0
 61134  1  0  0  0
 61135  1  0  0  0
 62136  1  0  0  0
 62137  1  0  0  0
 62138  1  0  0  0
 63 65  1  0  0  0
 63139  1  0  0  0
 63140  1  0  0  0
 63141  1  0  0  0
 64142  1  0  0  0
 65143  1  0  0  0
 68 81  1  0  0  0
 71 73  2  0  0  0
 71 75  1  0  0  0
 71144  1  0  0  0
 72 74  1  0  0  0
 72 75  2  0  0  0
 72145  1  0  0  0
 73 76  1  0  0  0
 73146  1  0  0  0
 74 76  2  0  0  0
 74147  1  0  0  0
 75 82  1  0  0  0
 76 84  1  0  0  0
 77 80  1  0  0  0
 77 81  1  0  0  0
 77148  1  0  0  0
 77149  1  0  0  0
 78 79  1  0  0  0
 78 82  1  0  0  0
 78150  1  0  0  0
 78151  1  0  0  0
 79 83  1  0  0  0
 79152  1  0  0  0
 79153  1  0  0  0
 80 84  1  0  0  0
 80154  1  0  0  0
 80155  1  0  0  0
 81156  1  0  0  0
 81157  1  0  0  0
 82158  1  0  0  0
 83159  1  0  0  0
M  ISO  4   1 100  68 101  81 101  83 100
M  END
> <chiral flag>
0

> <version>
0

> <s_m_source_file>
/data/baiqing/PycharmProjects/Reinvent-master-3.2/result/LINK_invent/BTK/process_docking_weight1_custom_sum_contain_oxygen_bond_distance_aromatic_linkinvent_7_9_3/rearranged_h_0129.sdf

> <i_m_source_file_index>
94

> <r_mmod_Potential_Energy-OPLS-2005>
-186.656829833984

> <r_mmod_Stretch_Energy-OPLS-2005>
31.6454219818115

> <r_mmod_Bend_Energy-OPLS-2005>
101.292526245117

> <r_mmod_Torsional_Energy-OPLS-2005>
204.011032104492

> <r_mmod_Improper_Torsional_Energy-OPLS-2005>
5.07548713684082

> <r_mmod_Van_der_Waal_Energy-OPLS-2005>
164.560897827148

> <r_mmod_Electrostatic_Energy-OPLS-2005>
-480.355163574219

> <r_mmod_Solvation_Energy-OPLS-2005>
-220.578231811523

> <b_mmod_Minimization_Converged-OPLS-2005>
0

> <r_mmod_RMS_Derivative-OPLS-2005>
0.218926697969437

$$$$
95
                    3D
 Structure written by MMmdl.
162170  0  0  1  0            999 V2000
  -30.6156  -14.6642   20.5179 C   0  0  0  0  0  0
  -30.4481  -12.4065   19.4887 C   0  0  0  0  0  0
  -29.5270  -12.5121   18.2507 C   0  0  0  0  0  0
  -28.0481  -12.3469   18.6560 C   0  0  0  0  0  0
  -27.6593  -13.2251   19.8749 C   0  0  2  0  0  0
  -28.6975  -13.0922   21.0151 C   0  0  0  0  0  0
  -25.2557  -13.8187   20.5692 C   0  0  0  0  0  0
  -24.1815  -13.0444   20.9182 C   0  0  0  0  0  0
  -24.6414  -11.6912   20.8745 C   0  0  0  0  0  0
  -23.9103  -10.4276   21.0391 C   0  0  0  0  0  0
  -24.3642   -9.4180   21.9174 C   0  0  0  0  0  0
  -23.6278   -8.2237   22.0749 C   0  0  0  0  0  0
  -22.4250   -8.0291   21.3557 C   0  0  0  0  0  0
  -21.9913   -9.0275   20.4660 C   0  0  0  0  0  0
  -22.7275  -10.2126   20.3051 C   0  0  0  0  0  0
  -21.6835   -6.0732   22.5264 C   0  0  0  0  0  0
  -21.4012   -6.5631   23.8213 C   0  0  0  0  0  0
  -21.3665   -5.6775   24.9169 C   0  0  0  0  0  0
  -21.6042   -4.3043   24.7213 C   0  0  0  0  0  0
  -21.8824   -3.8138   23.4326 C   0  0  0  0  0  0
  -21.9178   -4.6966   22.3387 C   0  0  0  0  0  0
  -22.7835  -13.5225   21.1838 C   0  0  0  0  0  0
  -22.1644   -4.2167   21.0957 F   0  0  0  0  0  0
  -21.5638   -3.4514   25.7717 F   0  0  0  0  0  0
  -30.0183  -13.4310   20.4662 N   0  0  0  0  0  0
  -26.3011  -12.9397   20.3353 N   0  0  0  0  0  0
  -25.9347  -11.6547   20.5758 N   0  0  0  0  0  0
  -22.0454  -12.8250   22.0397 N   0  0  0  0  0  0
  -25.4263  -15.1908   20.4098 N   0  0  0  0  0  0
  -31.7439  -14.8460   20.0493 O   0  0  0  0  0  0
  -21.6624   -6.8882   21.4230 O   0  0  0  0  0  0
  -22.3519  -14.5526   20.6681 O   0  0  0  0  0  0
  -24.6267  -31.8601   23.2044 C   0  0  0  0  0  0
  -25.9113  -32.4784   23.8361 C   0  0  1  0  0  0
  -27.2156  -27.3000   20.1137 C   0  0  0  0  0  0
  -25.5921  -33.8586   24.2284 N   0  0  0  0  0  0
  -23.4206  -30.4872   21.5480 C   0  0  2  0  0  0
  -24.8647  -28.9444   20.1106 C   0  0  0  0  0  0
  -22.7477  -29.4631   22.4937 C   0  0  0  0  0  0
  -18.0289  -28.1388   22.8496 C   0  0  0  0  0  0
  -24.1491  -36.7284   23.2638 C   0  0  0  0  0  0
  -25.9659  -30.7833   21.3808 C   0  0  0  0  0  0
  -26.0371  -29.4112   20.7185 C   0  0  0  0  0  0
  -27.2134  -28.6009   20.7126 C   0  0  0  0  0  0
  -26.0198  -26.8998   19.4681 C   0  0  0  0  0  0
  -24.8588  -27.6929   19.4796 C   0  0  0  0  0  0
  -23.6352  -29.8288   20.1615 C   0  0  0  0  0  0
  -25.4115  -36.3081   24.0330 C   0  0  1  0  0  0
  -20.5892  -28.3683   23.1286 C   0  0  2  0  0  0
  -20.6786  -26.9409   22.5410 C   0  0  0  0  0  0
  -19.5757  -26.6386   21.5214 C   0  0  0  0  0  0
  -18.1935  -26.7935   22.1624 C   0  0  0  0  0  0
  -19.1548  -28.8851   23.2892 C   0  0  0  0  0  0
  -18.9462  -30.1457   23.8915 C   0  0  0  0  0  0
  -17.6466  -30.6595   24.0555 C   0  0  0  0  0  0
  -25.9053  -34.9454   23.5106 C   0  0  0  0  0  0
  -16.5355  -29.9092   23.6331 C   0  0  0  0  0  0
  -16.7278  -28.6499   23.0364 C   0  0  0  0  0  0
  -26.4493  -31.6603   25.0741 C   0  0  0  0  0  0
  -25.3720  -31.3749   26.1462 C   0  0  0  0  0  0
  -27.0327  -30.3021   24.6212 C   0  0  0  0  0  0
  -27.6064  -32.4336   25.7498 C   0  0  0  0  0  0
  -27.5587  -37.1791   24.8466 C   0  0  0  0  0  0
  -21.4187  -29.3034   22.3673 N   0  0  0  0  0  0
  -26.4297  -37.3773   23.9415 N   0  0  0  0  0  0
  -24.6905  -31.0599   22.1000 N   0  0  0  0  0  0
  -23.4200  -28.8163   23.3009 O   0  0  0  0  0  0
  -28.3191  -26.4246   20.1853 O   0  0  0  0  0  0
  -26.5627  -34.8917   22.4676 O   0  0  0  0  0  0
  -23.5433  -32.1415   23.7349 O   0  0  0  0  0  0
  -29.4468  -21.3265   22.1413 C   0  0  0  0  0  0
  -28.7875  -22.3479   19.9416 C   0  0  0  0  0  0
  -29.8410  -22.7583   22.5966 C   0  0  0  0  0  0
  -29.5935  -21.1293   20.6143 C   0  0  2  0  0  0
  -29.0684  -23.8340   20.4806 C   0  0  1  0  0  0
  -29.5136  -19.5684   18.6668 C   0  0  0  0  0  0
  -28.0966  -24.9762   19.9095 C   0  0  0  0  0  0
  -29.6261  -17.0363   20.1860 C   0  0  0  0  0  0
  -29.7614  -18.4785   20.9023 C   0  0  0  0  0  0
  -29.8291  -15.7216   20.9087 N   0  0  0  0  0  0
  -29.0191  -23.8223   21.9647 N   0  3  0  0  0  0
  -29.2410  -19.7047   20.1220 N   0  3  1  0  0  0
  -31.4953  -12.5191   19.2006 H   0  0  0  0  0  0
  -30.3717  -11.4148   19.9377 H   0  0  0  0  0  0
  -29.8045  -11.7622   17.5097 H   0  0  0  0  0  0
  -29.6722  -13.4796   17.7670 H   0  0  0  0  0  0
  -27.8899  -11.2948   18.9017 H   0  0  0  0  0  0
  -27.3980  -12.5636   17.8089 H   0  0  0  0  0  0
  -27.6783  -14.2593   19.5266 H   0  0  0  0  0  0
  -28.7033  -12.0755   21.4110 H   0  0  0  0  0  0
  -28.4363  -13.7334   21.8582 H   0  0  0  0  0  0
  -25.2788   -9.5634   22.4746 H   0  0  0  0  0  0
  -23.9987   -7.4603   22.7465 H   0  0  0  0  0  0
  -21.0842   -8.8816   19.8954 H   0  0  0  0  0  0
  -22.3761  -10.9669   19.6156 H   0  0  0  0  0  0
  -21.2018   -7.6133   23.9730 H   0  0  0  0  0  0
  -21.1485   -6.0493   25.9086 H   0  0  0  0  0  0
  -22.0603   -2.7601   23.2803 H   0  0  0  0  0  0
  -22.4041  -11.9922   22.4833 H   0  0  0  0  0  0
  -21.1086  -13.1328   22.2595 H   0  0  0  0  0  0
  -24.6601  -15.8482   20.5089 H   0  0  0  0  0  0
  -26.2745  -15.6240   20.0731 H   0  0  0  0  0  0
  -26.7179  -32.5436   23.1105 H   0  0  0  0  0  0
  -25.0043  -33.9729   25.0411 H   0  0  0  0  0  0
  -22.7147  -31.3091   21.4101 H   0  0  0  0  0  0
  -23.3762  -35.9608   23.3298 H   0  0  0  0  0  0
  -24.3590  -36.8908   22.2056 H   0  0  0  0  0  0
  -23.7237  -37.6482   23.6661 H   0  0  0  0  0  0
  -26.1101  -31.5494   20.6177 H   0  0  0  0  0  0
  -26.8418  -30.8236   22.0168 H   0  0  0  0  0  0
  -28.1101  -28.9518   21.2042 H   0  0  0  0  0  0
  -25.9402  -25.9536   18.9539 H   0  0  0  0  0  0
  -23.9596  -27.3289   19.0013 H   0  0  0  0  0  0
  -23.7587  -30.6115   19.4120 H   0  0  0  0  0  0
  -22.7514  -29.2664   19.8533 H   0  0  0  0  0  0
  -25.1297  -36.1936   25.0824 H   0  0  0  0  0  0
  -21.0002  -28.3261   24.1397 H   0  0  0  0  0  0
  -20.5697  -26.2286   23.3603 H   0  0  0  0  0  0
  -21.6650  -26.7446   22.1191 H   0  0  0  0  0  0
  -19.6912  -25.6294   21.1247 H   0  0  0  0  0  0
  -19.6702  -27.3191   20.6740 H   0  0  0  0  0  0
  -17.4204  -26.6692   21.4025 H   0  0  0  0  0  0
  -18.0329  -26.0078   22.9020 H   0  0  0  0  0  0
  -19.7935  -30.7265   24.2301 H   0  0  0  0  0  0
  -17.5014  -31.6283   24.5138 H   0  0  0  0  0  0
  -15.5358  -30.2990   23.7646 H   0  0  0  0  0  0
  -15.8675  -28.0808   22.7098 H   0  0  0  0  0  0
  -24.5888  -30.7111   25.7787 H   0  0  0  0  0  0
  -24.8907  -32.2910   26.4889 H   0  0  0  0  0  0
  -25.8021  -30.8920   27.0241 H   0  0  0  0  0  0
  -26.2891  -29.6785   24.1230 H   0  0  0  0  0  0
  -27.4011  -29.7280   25.4724 H   0  0  0  0  0  0
  -27.8779  -30.4315   23.9450 H   0  0  0  0  0  0
  -27.2692  -33.3638   26.2085 H   0  0  0  0  0  0
  -28.3848  -32.6898   25.0301 H   0  0  0  0  0  0
  -28.0758  -31.8458   26.5395 H   0  0  0  0  0  0
  -28.2597  -38.0095   24.7521 H   0  0  0  0  0  0
  -28.1087  -36.2625   24.6274 H   0  0  0  0  0  0
  -27.2304  -37.1422   25.8868 H   0  0  0  0  0  0
  -20.9360  -29.8749   21.6886 H   0  0  0  0  0  0
  -26.0179  -38.2848   24.1422 H   0  0  0  0  0  0
  -28.4247  -21.1095   22.4545 H   0  0  0  0  0  0
  -30.0851  -20.6222   22.6741 H   0  0  0  0  0  0
  -27.7193  -22.1492   20.0454 H   0  0  0  0  0  0
  -28.9724  -22.3661   18.8686 H   0  0  0  0  0  0
  -30.8945  -22.9491   22.3820 H   0  0  0  0  0  0
  -29.7340  -22.8431   23.6793 H   0  0  0  0  0  0
  -30.6509  -21.2680   20.3791 H   0  0  0  0  0  0
  -30.0874  -24.0981   20.1922 H   0  0  0  0  0  0
  -29.0796  -20.3760   18.0841 H   0  0  0  0  0  0
  -29.0742  -18.6630   18.2468 H   0  0  0  0  0  0
  -30.5875  -19.5473   18.4765 H   0  0  0  0  0  0
  -27.1054  -24.6974   20.2689 H   0  0  0  0  0  0
  -28.0637  -24.8680   18.8246 H   0  0  0  0  0  0
  -30.2590  -17.0177   19.2984 H   0  0  0  0  0  0
  -28.6012  -16.9661   19.8191 H   0  0  0  0  0  0
  -30.8123  -18.6474   21.1360 H   0  0  0  0  0  0
  -29.2422  -18.4502   21.8600 H   0  0  0  0  0  0
  -29.0190  -15.4224   21.4307 H   0  0  0  0  0  0
  -29.3492  -24.7164   22.3007 H   0  0  0  0  0  0
  -28.0653  -23.7316   22.2830 H   0  0  0  0  0  0
  -28.2360  -19.6354   20.1997 H   0  0  0  0  0  0
  1 25  1  0  0  0
  1 30  2  0  0  0
  1 80  1  0  0  0
  2  3  1  0  0  0
  2 25  1  0  0  0
  2 83  1  0  0  0
  2 84  1  0  0  0
  3  4  1  0  0  0
  3 85  1  0  0  0
  3 86  1  0  0  0
  4  5  1  0  0  0
  4 87  1  0  0  0
  4 88  1  0  0  0
  5  6  1  0  0  0
  5 26  1  0  0  0
  5 89  1  0  0  0
  6 25  1  0  0  0
  6 90  1  0  0  0
  6 91  1  0  0  0
  7  8  2  0  0  0
  7 26  1  0  0  0
  7 29  1  0  0  0
  8  9  1  0  0  0
  8 22  1  0  0  0
  9 10  1  0  0  0
  9 27  2  0  0  0
 10 11  2  0  0  0
 10 15  1  0  0  0
 11 12  1  0  0  0
 11 92  1  0  0  0
 12 13  2  0  0  0
 12 93  1  0  0  0
 13 14  1  0  0  0
 13 31  1  0  0  0
 14 15  2  0  0  0
 14 94  1  0  0  0
 15 95  1  0  0  0
 16 17  2  0  0  0
 16 21  1  0  0  0
 16 31  1  0  0  0
 17 18  1  0  0  0
 17 96  1  0  0  0
 18 19  2  0  0  0
 18 97  1  0  0  0
 19 20  1  0  0  0
 19 24  1  0  0  0
 20 21  2  0  0  0
 20 98  1  0  0  0
 21 23  1  0  0  0
 22 28  1  0  0  0
 22 32  2  0  0  0
 26 27  1  0  0  0
 28 99  1  0  0  0
 28100  1  0  0  0
 29101  1  0  0  0
 29102  1  0  0  0
 33 34  1  0  0  0
 33 66  1  0  0  0
 33 70  2  0  0  0
 34 36  1  0  0  0
 34 59  1  0  0  0
 34103  1  0  0  0
 35 44  2  0  0  0
 35 45  1  0  0  0
 35 68  1  0  0  0
 36 56  1  0  0  0
 36104  1  0  0  0
 37 39  1  0  0  0
 37 47  1  0  0  0
 37 66  1  0  0  0
 37105  1  0  0  0
 38 43  2  0  0  0
 38 46  1  0  0  0
 38 47  1  0  0  0
 39 64  1  0  0  0
 39 67  2  0  0  0
 40 52  1  0  0  0
 40 53  2  0  0  0
 40 58  1  0  0  0
 41106  1  0  0  0
 41107  1  0  0  0
 41108  1  0  0  0
 41 48  1  0  0  0
 42 43  1  0  0  0
 42 66  1  0  0  0
 42109  1  0  0  0
 42110  1  0  0  0
 43 44  1  0  0  0
 44111  1  0  0  0
 45 46  2  0  0  0
 45112  1  0  0  0
 46113  1  0  0  0
 47114  1  0  0  0
 47115  1  0  0  0
 48 56  1  0  0  0
 48 65  1  0  0  0
 48116  1  0  0  0
 49 50  1  0  0  0
 49 53  1  0  0  0
 49 64  1  0  0  0
 49117  1  0  0  0
 50 51  1  0  0  0
 50118  1  0  0  0
 50119  1  0  0  0
 51 52  1  0  0  0
 51120  1  0  0  0
 51121  1  0  0  0
 52122  1  0  0  0
 52123  1  0  0  0
 53 54  1  0  0  0
 54 55  2  0  0  0
 54124  1  0  0  0
 55 57  1  0  0  0
 55125  1  0  0  0
 56 69  2  0  0  0
 57 58  2  0  0  0
 57126  1  0  0  0
 58127  1  0  0  0
 59 60  1  0  0  0
 59 61  1  0  0  0
 59 62  1  0  0  0
 60128  1  0  0  0
 60129  1  0  0  0
 60130  1  0  0  0
 61131  1  0  0  0
 61132  1  0  0  0
 61133  1  0  0  0
 62134  1  0  0  0
 62135  1  0  0  0
 62136  1  0  0  0
 63 65  1  0  0  0
 63137  1  0  0  0
 63138  1  0  0  0
 63139  1  0  0  0
 64140  1  0  0  0
 65141  1  0  0  0
 68 77  1  0  0  0
 71 73  1  0  0  0
 71142  1  0  0  0
 71143  1  0  0  0
 71 74  1  0  0  0
 72 74  1  0  0  0
 72 75  1  0  0  0
 72144  1  0  0  0
 72145  1  0  0  0
 73 81  1  0  0  0
 73146  1  0  0  0
 73147  1  0  0  0
 74 82  1  0  0  0
 74148  1  0  0  0
 75 77  1  0  0  0
 75 81  1  0  0  0
 75149  1  0  0  0
 76150  1  0  0  0
 76151  1  0  0  0
 76152  1  0  0  0
 76 82  1  0  0  0
 77153  1  0  0  0
 77154  1  0  0  0
 78 79  1  0  0  0
 78 80  1  0  0  0
 78155  1  0  0  0
 78156  1  0  0  0
 79 82  1  0  0  0
 79157  1  0  0  0
 79158  1  0  0  0
 80159  1  0  0  0
 81160  1  0  0  0
 81161  1  0  0  0
 82162  1  0  0  0
M  CHG  2  81   1  82   1
M  ISO  4   1 100  68 101  77 101  80 100
M  END
> <chiral flag>
0

> <version>
0

> <s_m_source_file>
/data/baiqing/PycharmProjects/Reinvent-master-3.2/result/LINK_invent/BTK/process_docking_weight1_custom_sum_contain_oxygen_bond_distance_aromatic_linkinvent_7_9_3/rearranged_h_0129.sdf

> <i_m_source_file_index>
95

> <r_mmod_Potential_Energy-OPLS-2005>
-150.912521362305

> <r_mmod_Stretch_Energy-OPLS-2005>
105.558097839355

> <r_mmod_Bend_Energy-OPLS-2005>
156.019302368164

> <r_mmod_Torsional_Energy-OPLS-2005>
268.893310546875

> <r_mmod_Improper_Torsional_Energy-OPLS-2005>
7.34107637405396

> <r_mmod_Van_der_Waal_Energy-OPLS-2005>
135.867523193359

> <r_mmod_Electrostatic_Energy-OPLS-2005>
93.3671035766602

> <r_mmod_Solvation_Energy-OPLS-2005>
-977.429992675781

> <b_mmod_Minimization_Converged-OPLS-2005>
0

> <r_mmod_RMS_Derivative-OPLS-2005>
3.20700740814209

$$$$
96
                    3D
 Structure written by MMmdl.
156165  0  0  1  0            999 V2000
  -30.6386  -14.7632   20.4854 C   0  0  0  0  0  0
  -30.4283  -12.4765   19.4790 C   0  0  0  0  0  0
  -29.5088  -12.5119   18.2399 C   0  0  0  0  0  0
  -28.0400  -12.3208   18.6609 C   0  0  0  0  0  0
  -27.6395  -13.2354   19.8486 C   0  0  2  0  0  0
  -28.6822  -13.2006   20.9866 C   0  0  0  0  0  0
  -25.2503  -13.8196   20.5705 C   0  0  0  0  0  0
  -24.1792  -13.0437   20.9194 C   0  0  0  0  0  0
  -24.6386  -11.6915   20.8737 C   0  0  0  0  0  0
  -23.9062  -10.4291   21.0403 C   0  0  0  0  0  0
  -24.3622   -9.4211   21.9177 C   0  0  0  0  0  0
  -23.6301   -8.2244   22.0747 C   0  0  0  0  0  0
  -22.4279   -8.0276   21.3545 C   0  0  0  0  0  0
  -21.9911   -9.0246   20.4644 C   0  0  0  0  0  0
  -22.7235  -10.2128   20.3055 C   0  0  0  0  0  0
  -21.6850   -6.0732   22.5276 C   0  0  0  0  0  0
  -21.4010   -6.5638   23.8208 C   0  0  0  0  0  0
  -21.3663   -5.6794   24.9170 C   0  0  0  0  0  0
  -21.6043   -4.3054   24.7224 C   0  0  0  0  0  0
  -21.8819   -3.8142   23.4347 C   0  0  0  0  0  0
  -21.9191   -4.6959   22.3403 C   0  0  0  0  0  0
  -22.7814  -13.5220   21.1859 C   0  0  0  0  0  0
  -22.1663   -4.2144   21.0982 F   0  0  0  0  0  0
  -21.5635   -3.4541   25.7740 F   0  0  0  0  0  0
  -29.9820  -13.5511   20.4018 N   0  0  0  0  0  0
  -26.2930  -12.9410   20.3288 N   0  0  0  0  0  0
  -25.9321  -11.6549   20.5753 N   0  0  0  0  0  0
  -22.0471  -12.8212   22.0419 N   0  0  0  0  0  0
  -25.4205  -15.1922   20.4154 N   0  0  0  0  0  0
  -31.8212  -14.8222   20.1304 O   0  0  0  0  0  0
  -21.6648   -6.8874   21.4236 O   0  0  0  0  0  0
  -22.3501  -14.5529   20.6708 O   0  0  0  0  0  0
  -24.6340  -31.8524   23.1990 C   0  0  0  0  0  0
  -25.9163  -32.4739   23.8332 C   0  0  1  0  0  0
  -27.2153  -27.2425   20.1292 C   0  0  0  0  0  0
  -25.5952  -33.8544   24.2255 N   0  0  0  0  0  0
  -23.4310  -30.4774   21.5418 C   0  0  2  0  0  0
  -24.8776  -28.9268   20.1068 C   0  0  0  0  0  0
  -22.7515  -29.4588   22.4896 C   0  0  0  0  0  0
  -18.0296  -28.1386   22.8470 C   0  0  0  0  0  0
  -24.1496  -36.7277   23.2636 C   0  0  0  0  0  0
  -25.9797  -30.7604   21.3822 C   0  0  0  0  0  0
  -26.0509  -29.3829   20.7216 C   0  0  0  0  0  0
  -27.2210  -28.5532   20.7231 C   0  0  0  0  0  0
  -26.0220  -26.8719   19.4664 C   0  0  0  0  0  0
  -24.8705  -27.6800   19.4668 C   0  0  0  0  0  0
  -23.6493  -29.8150   20.1567 C   0  0  0  0  0  0
  -25.4118  -36.3058   24.0322 C   0  0  1  0  0  0
  -20.5900  -28.3696   23.1255 C   0  0  2  0  0  0
  -20.6776  -26.9401   22.5407 C   0  0  0  0  0  0
  -19.5760  -26.6369   21.5202 C   0  0  0  0  0  0
  -18.1938  -26.7932   22.1601 C   0  0  0  0  0  0
  -19.1549  -28.8858   23.2858 C   0  0  0  0  0  0
  -18.9471  -30.1463   23.8871 C   0  0  0  0  0  0
  -17.6466  -30.6579   24.0567 C   0  0  0  0  0  0
  -25.9056  -34.9430   23.5087 C   0  0  0  0  0  0
  -16.5359  -29.9072   23.6335 C   0  0  0  0  0  0
  -16.7283  -28.6502   23.0337 C   0  0  0  0  0  0
  -26.4518  -31.6573   25.0734 C   0  0  0  0  0  0
  -25.3730  -31.3744   26.1454 C   0  0  0  0  0  0
  -27.0353  -30.2974   24.6257 C   0  0  0  0  0  0
  -27.6098  -32.4305   25.7478 C   0  0  0  0  0  0
  -27.5590  -37.1783   24.8452 C   0  0  0  0  0  0
  -21.4222  -29.3044   22.3645 N   0  0  0  0  0  0
  -26.4287  -37.3764   23.9418 N   0  0  0  0  0  0
  -24.7010  -31.0483   22.0969 N   0  0  0  0  0  0
  -23.4207  -28.8112   23.2987 O   0  0  0  0  0  0
  -28.2911  -26.3177   20.2141 O   0  0  0  0  0  0
  -26.5625  -34.8911   22.4653 O   0  0  0  0  0  0
  -23.5488  -32.1349   23.7278 O   0  0  0  0  0  0
  -29.9629  -20.7174   21.7567 C   0  0  0  0  0  0
  -30.1750  -18.2909   21.5863 C   0  0  0  0  0  0
  -30.4594  -19.4888   22.2843 C   0  0  0  0  0  0
  -29.4587  -18.3551   20.4202 C   0  0  0  0  0  0
  -29.2002  -20.7452   20.5615 C   0  0  0  0  0  0
  -30.5385  -16.8303   21.9092 C   0  0  0  0  0  0
  -29.3277  -16.9037   19.8780 C   0  0  0  0  0  0
  -31.2634  -19.4681   23.5685 C   0  0  0  0  0  0
  -28.5401  -22.0988   20.0095 C   0  0  0  0  0  0
  -28.9400  -23.6080   20.4848 C   0  0  0  0  0  0
  -28.0299  -24.8491   19.9544 C   0  0  0  0  0  0
  -28.9642  -19.5414   19.8998 N   0  0  0  0  0  0
  -29.9617  -15.9281   20.8571 N   0  0  0  0  0  0
  -31.4695  -12.5920   19.1719 H   0  0  0  0  0  0
  -30.3727  -11.5051   19.9732 H   0  0  0  0  0  0
  -29.8000  -11.7351   17.5321 H   0  0  0  0  0  0
  -29.6231  -13.4629   17.7168 H   0  0  0  0  0  0
  -27.9170  -11.2753   18.9460 H   0  0  0  0  0  0
  -27.3753  -12.4826   17.8116 H   0  0  0  0  0  0
  -27.6262  -14.2505   19.4518 H   0  0  0  0  0  0
  -28.7235  -12.2150   21.4530 H   0  0  0  0  0  0
  -28.4081  -13.9026   21.7755 H   0  0  0  0  0  0
  -25.2767   -9.5689   22.4749 H   0  0  0  0  0  0
  -24.0006   -7.4640   22.7470 H   0  0  0  0  0  0
  -21.0837   -8.8758   19.8962 H   0  0  0  0  0  0
  -22.3683  -10.9663   19.6166 H   0  0  0  0  0  0
  -21.1997   -7.6147   23.9708 H   0  0  0  0  0  0
  -21.1487   -6.0527   25.9075 H   0  0  0  0  0  0
  -22.0595   -2.7603   23.2848 H   0  0  0  0  0  0
  -22.4100  -11.9881   22.4807 H   0  0  0  0  0  0
  -21.1083  -13.1221   22.2634 H   0  0  0  0  0  0
  -24.6556  -15.8472   20.5355 H   0  0  0  0  0  0
  -26.2796  -15.6349   20.1157 H   0  0  0  0  0  0
  -26.7232  -32.5374   23.1073 H   0  0  0  0  0  0
  -25.0131  -33.9683   25.0424 H   0  0  0  0  0  0
  -22.7296  -31.3016   21.3961 H   0  0  0  0  0  0
  -23.3775  -35.9591   23.3250 H   0  0  0  0  0  0
  -24.3597  -36.8941   22.2060 H   0  0  0  0  0  0
  -23.7229  -37.6453   23.6693 H   0  0  0  0  0  0
  -26.1228  -31.5209   20.6129 H   0  0  0  0  0  0
  -26.8561  -30.8069   22.0168 H   0  0  0  0  0  0
  -28.1145  -28.8945   21.2273 H   0  0  0  0  0  0
  -25.9401  -25.9265   18.9516 H   0  0  0  0  0  0
  -23.9753  -27.3284   18.9719 H   0  0  0  0  0  0
  -23.7725  -30.5934   19.4024 H   0  0  0  0  0  0
  -22.7680  -29.2483   19.8511 H   0  0  0  0  0  0
  -25.1294  -36.1894   25.0812 H   0  0  0  0  0  0
  -21.0001  -28.3277   24.1372 H   0  0  0  0  0  0
  -20.5643  -26.2308   23.3619 H   0  0  0  0  0  0
  -21.6646  -26.7393   22.1224 H   0  0  0  0  0  0
  -19.6918  -25.6274   21.1244 H   0  0  0  0  0  0
  -19.6724  -27.3175   20.6733 H   0  0  0  0  0  0
  -17.4216  -26.6711   21.3988 H   0  0  0  0  0  0
  -18.0309  -26.0058   22.8980 H   0  0  0  0  0  0
  -19.7944  -30.7299   24.2211 H   0  0  0  0  0  0
  -17.5014  -31.6257   24.5179 H   0  0  0  0  0  0
  -15.5359  -30.2964   23.7676 H   0  0  0  0  0  0
  -15.8684  -28.0821   22.7044 H   0  0  0  0  0  0
  -24.5962  -30.7006   25.7816 H   0  0  0  0  0  0
  -24.8850  -32.2902   26.4794 H   0  0  0  0  0  0
  -25.8039  -30.9019   27.0287 H   0  0  0  0  0  0
  -26.2940  -29.6709   24.1284 H   0  0  0  0  0  0
  -27.4001  -29.7255   25.4801 H   0  0  0  0  0  0
  -27.8832  -30.4212   23.9519 H   0  0  0  0  0  0
  -27.2763  -33.3651   26.1995 H   0  0  0  0  0  0
  -28.3928  -32.6775   25.0295 H   0  0  0  0  0  0
  -28.0744  -31.8452   26.5421 H   0  0  0  0  0  0
  -28.2573  -38.0118   24.7537 H   0  0  0  0  0  0
  -28.1114  -36.2646   24.6204 H   0  0  0  0  0  0
  -27.2316  -37.1337   25.8856 H   0  0  0  0  0  0
  -20.9408  -29.8788   21.6868 H   0  0  0  0  0  0
  -26.0152  -38.2820   24.1466 H   0  0  0  0  0  0
  -30.1504  -21.6437   22.2835 H   0  0  0  0  0  0
  -30.1312  -16.5574   22.8837 H   0  0  0  0  0  0
  -31.6247  -16.7334   21.9699 H   0  0  0  0  0  0
  -29.8132  -16.8342   18.9036 H   0  0  0  0  0  0
  -28.2748  -16.6589   19.7427 H   0  0  0  0  0  0
  -31.3906  -20.4709   23.9776 H   0  0  0  0  0  0
  -32.2549  -19.0533   23.3887 H   0  0  0  0  0  0
  -30.7648  -18.8582   24.3215 H   0  0  0  0  0  0
  -27.4720  -21.9901   20.1987 H   0  0  0  0  0  0
  -28.6358  -22.0688   18.9240 H   0  0  0  0  0  0
  -29.9785  -23.7909   20.2055 H   0  0  0  0  0  0
  -28.9216  -23.6349   21.5745 H   0  0  0  0  0  0
  -27.0344  -24.6237   20.3383 H   0  0  0  0  0  0
  -27.9606  -24.7465   18.8706 H   0  0  0  0  0  0
  1 25  1  0  0  0
  1 30  2  0  0  0
  1 83  1  0  0  0
  2  3  1  0  0  0
  2 25  1  0  0  0
  2 84  1  0  0  0
  2 85  1  0  0  0
  3  4  1  0  0  0
  3 86  1  0  0  0
  3 87  1  0  0  0
  4  5  1  0  0  0
  4 88  1  0  0  0
  4 89  1  0  0  0
  5  6  1  0  0  0
  5 26  1  0  0  0
  5 90  1  0  0  0
  6 25  1  0  0  0
  6 91  1  0  0  0
  6 92  1  0  0  0
  7  8  2  0  0  0
  7 26  1  0  0  0
  7 29  1  0  0  0
  8  9  1  0  0  0
  8 22  1  0  0  0
  9 10  1  0  0  0
  9 27  2  0  0  0
 10 11  2  0  0  0
 10 15  1  0  0  0
 11 12  1  0  0  0
 11 93  1  0  0  0
 12 13  2  0  0  0
 12 94  1  0  0  0
 13 14  1  0  0  0
 13 31  1  0  0  0
 14 15  2  0  0  0
 14 95  1  0  0  0
 15 96  1  0  0  0
 16 17  2  0  0  0
 16 21  1  0  0  0
 16 31  1  0  0  0
 17 18  1  0  0  0
 17 97  1  0  0  0
 18 19  2  0  0  0
 18 98  1  0  0  0
 19 20  1  0  0  0
 19 24  1  0  0  0
 20 21  2  0  0  0
 20 99  1  0  0  0
 21 23  1  0  0  0
 22 28  1  0  0  0
 22 32  2  0  0  0
 26 27  1  0  0  0
 28100  1  0  0  0
 28101  1  0  0  0
 29102  1  0  0  0
 29103  1  0  0  0
 33 34  1  0  0  0
 33 66  1  0  0  0
 33 70  2  0  0  0
 34 36  1  0  0  0
 34 59  1  0  0  0
 34104  1  0  0  0
 35 44  2  0  0  0
 35 45  1  0  0  0
 35 68  1  0  0  0
 36 56  1  0  0  0
 36105  1  0  0  0
 37 39  1  0  0  0
 37 47  1  0  0  0
 37 66  1  0  0  0
 37106  1  0  0  0
 38 43  2  0  0  0
 38 46  1  0  0  0
 38 47  1  0  0  0
 39 64  1  0  0  0
 39 67  2  0  0  0
 40 52  1  0  0  0
 40 53  2  0  0  0
 40 58  1  0  0  0
 41107  1  0  0  0
 41108  1  0  0  0
 41109  1  0  0  0
 41 48  1  0  0  0
 42 43  1  0  0  0
 42 66  1  0  0  0
 42110  1  0  0  0
 42111  1  0  0  0
 43 44  1  0  0  0
 44112  1  0  0  0
 45 46  2  0  0  0
 45113  1  0  0  0
 46114  1  0  0  0
 47115  1  0  0  0
 47116  1  0  0  0
 48 56  1  0  0  0
 48 65  1  0  0  0
 48117  1  0  0  0
 49 50  1  0  0  0
 49 53  1  0  0  0
 49 64  1  0  0  0
 49118  1  0  0  0
 50 51  1  0  0  0
 50119  1  0  0  0
 50120  1  0  0  0
 51 52  1  0  0  0
 51121  1  0  0  0
 51122  1  0  0  0
 52123  1  0  0  0
 52124  1  0  0  0
 53 54  1  0  0  0
 54 55  2  0  0  0
 54125  1  0  0  0
 55 57  1  0  0  0
 55126  1  0  0  0
 56 69  2  0  0  0
 57 58  2  0  0  0
 57127  1  0  0  0
 58128  1  0  0  0
 59 60  1  0  0  0
 59 61  1  0  0  0
 59 62  1  0  0  0
 60129  1  0  0  0
 60130  1  0  0  0
 60131  1  0  0  0
 61132  1  0  0  0
 61133  1  0  0  0
 61134  1  0  0  0
 62135  1  0  0  0
 62136  1  0  0  0
 62137  1  0  0  0
 63 65  1  0  0  0
 63138  1  0  0  0
 63139  1  0  0  0
 63140  1  0  0  0
 64141  1  0  0  0
 65142  1  0  0  0
 68 81  1  0  0  0
 71 73  2  0  0  0
 71 75  1  0  0  0
 71143  1  0  0  0
 72 73  1  0  0  0
 72 74  2  0  0  0
 72 76  1  0  0  0
 73 78  1  0  0  0
 74 77  1  0  0  0
 74 82  1  0  0  0
 75 79  1  0  0  0
 75 82  2  0  0  0
 76 83  1  0  0  0
 76144  1  0  0  0
 76145  1  0  0  0
 77 83  1  0  0  0
 77146  1  0  0  0
 77147  1  0  0  0
 78148  1  0  0  0
 78149  1  0  0  0
 78150  1  0  0  0
 79 80  1  0  0  0
 79151  1  0  0  0
 79152  1  0  0  0
 80 81  1  0  0  0
 80153  1  0  0  0
 80154  1  0  0  0
 81155  1  0  0  0
 81156  1  0  0  0
M  ISO  4   1 100  68 101  81 101  83 100
M  END
> <chiral flag>
0

> <version>
0

> <s_m_source_file>
/data/baiqing/PycharmProjects/Reinvent-master-3.2/result/LINK_invent/BTK/process_docking_weight1_custom_sum_contain_oxygen_bond_distance_aromatic_linkinvent_7_9_3/rearranged_h_0129.sdf

> <i_m_source_file_index>
96

> <r_mmod_Potential_Energy-OPLS-2005>
109.286422729492

> <r_mmod_Stretch_Energy-OPLS-2005>
132.887832641602

> <r_mmod_Bend_Energy-OPLS-2005>
219.310165405273

> <r_mmod_Torsional_Energy-OPLS-2005>
259.684356689453

> <r_mmod_Improper_Torsional_Energy-OPLS-2005>
6.49672079086304

> <r_mmod_Van_der_Waal_Energy-OPLS-2005>
133.578308105469

> <r_mmod_Electrostatic_Energy-OPLS-2005>
-518.946533203125

> <r_mmod_Solvation_Energy-OPLS-2005>
-221.525527954102

> <b_mmod_Minimization_Converged-OPLS-2005>
0

> <r_mmod_RMS_Derivative-OPLS-2005>
1.44051778316498

$$$$
97
                    3D
 Structure written by MMmdl.
155163  0  0  1  0            999 V2000
  -30.5202  -14.9608   20.4009 C   0  0  0  0  0  0
  -30.4459  -12.5905   19.5142 C   0  0  0  0  0  0
  -29.5262  -12.5302   18.2695 C   0  0  0  0  0  0
  -28.0558  -12.3263   18.6824 C   0  0  0  0  0  0
  -27.6344  -13.2522   19.8539 C   0  0  2  0  0  0
  -28.6771  -13.2656   20.9936 C   0  0  0  0  0  0
  -25.2465  -13.8211   20.5767 C   0  0  0  0  0  0
  -24.1786  -13.0444   20.9264 C   0  0  0  0  0  0
  -24.6393  -11.6937   20.8790 C   0  0  0  0  0  0
  -23.9048  -10.4294   21.0420 C   0  0  0  0  0  0
  -24.3598   -9.4195   21.9201 C   0  0  0  0  0  0
  -23.6283   -8.2230   22.0753 C   0  0  0  0  0  0
  -22.4266   -8.0261   21.3543 C   0  0  0  0  0  0
  -21.9905   -9.0237   20.4644 C   0  0  0  0  0  0
  -22.7223  -10.2124   20.3067 C   0  0  0  0  0  0
  -21.6858   -6.0726   22.5262 C   0  0  0  0  0  0
  -21.4018   -6.5635   23.8196 C   0  0  0  0  0  0
  -21.3652   -5.6795   24.9155 C   0  0  0  0  0  0
  -21.6030   -4.3044   24.7217 C   0  0  0  0  0  0
  -21.8821   -3.8140   23.4346 C   0  0  0  0  0  0
  -21.9187   -4.6954   22.3404 C   0  0  0  0  0  0
  -22.7798  -13.5204   21.1919 C   0  0  0  0  0  0
  -22.1683   -4.2139   21.0977 F   0  0  0  0  0  0
  -21.5614   -3.4539   25.7736 F   0  0  0  0  0  0
  -29.9562  -13.6851   20.4043 N   0  0  0  0  0  0
  -26.2909  -12.9461   20.3337 N   0  0  0  0  0  0
  -25.9338  -11.6592   20.5798 N   0  0  0  0  0  0
  -22.0460  -12.8178   22.0471 N   0  0  0  0  0  0
  -25.4117  -15.1937   20.4153 N   0  0  0  0  0  0
  -31.6976  -15.0572   20.0349 O   0  0  0  0  0  0
  -21.6639   -6.8862   21.4230 O   0  0  0  0  0  0
  -22.3472  -14.5495   20.6733 O   0  0  0  0  0  0
  -24.6382  -31.8442   23.1842 C   0  0  0  0  0  0
  -25.9154  -32.4706   23.8256 C   0  0  1  0  0  0
  -27.2221  -27.1389   20.1513 C   0  0  0  0  0  0
  -25.5898  -33.8513   24.2196 N   0  0  0  0  0  0
  -23.4435  -30.4577   21.5293 C   0  0  2  0  0  0
  -24.8973  -28.8828   20.0976 C   0  0  0  0  0  0
  -22.7549  -29.4528   22.4855 C   0  0  0  0  0  0
  -18.0294  -28.1380   22.8473 C   0  0  0  0  0  0
  -24.1493  -36.7291   23.2649 C   0  0  0  0  0  0
  -25.9949  -30.7172   21.3810 C   0  0  0  0  0  0
  -26.0657  -29.3246   20.7300 C   0  0  0  0  0  0
  -27.2219  -28.4621   20.7496 C   0  0  0  0  0  0
  -26.0361  -26.7980   19.4691 C   0  0  0  0  0  0
  -24.8975  -27.6367   19.4477 C   0  0  0  0  0  0
  -23.6672  -29.7785   20.1483 C   0  0  0  0  0  0
  -25.4116  -36.3065   24.0334 C   0  0  1  0  0  0
  -20.5905  -28.3712   23.1231 C   0  0  2  0  0  0
  -20.6774  -26.9415   22.5394 C   0  0  0  0  0  0
  -19.5760  -26.6368   21.5197 C   0  0  0  0  0  0
  -18.1948  -26.7914   22.1628 C   0  0  0  0  0  0
  -19.1547  -28.8863   23.2844 C   0  0  0  0  0  0
  -18.9474  -30.1458   23.8878 C   0  0  0  0  0  0
  -17.6476  -30.6582   24.0552 C   0  0  0  0  0  0
  -25.9059  -34.9431   23.5090 C   0  0  0  0  0  0
  -16.5365  -29.9083   23.6319 C   0  0  0  0  0  0
  -16.7282  -28.6489   23.0355 C   0  0  0  0  0  0
  -26.4489  -31.6561   25.0689 C   0  0  0  0  0  0
  -25.3674  -31.3729   26.1383 C   0  0  0  0  0  0
  -27.0350  -30.2966   24.6236 C   0  0  0  0  0  0
  -27.6033  -32.4319   25.7469 C   0  0  0  0  0  0
  -27.5589  -37.1803   24.8463 C   0  0  0  0  0  0
  -21.4239  -29.3045   22.3616 N   0  0  0  0  0  0
  -26.4300  -37.3764   23.9399 N   0  0  0  0  0  0
  -24.7124  -31.0284   22.0875 N   0  0  0  0  0  0
  -23.4200  -28.8079   23.2999 O   0  0  0  0  0  0
  -28.2925  -26.1872   20.2804 O   0  0  0  0  0  0
  -26.5681  -34.8935   22.4689 O   0  0  0  0  0  0
  -23.5496  -32.1331   23.7042 O   0  0  0  0  0  0
  -27.6659  -23.3212   21.7679 C   0  0  0  0  0  0
  -29.5839  -21.9760   21.9644 C   0  0  0  0  0  0
  -28.1415  -23.1967   20.3225 C   0  0  2  0  0  0
  -29.2223  -21.9010   20.4635 C   0  0  2  0  0  0
  -28.4166  -24.7500   19.6907 C   0  0  0  0  0  0
  -29.6704  -17.5815   19.9743 C   0  0  0  0  0  0
  -29.4595  -19.0654   20.7661 C   0  0  0  0  0  0
  -28.8612  -23.0953   22.5649 N   0  0  0  0  0  0
  -29.7160  -16.1191   20.6030 N   0  0  0  0  0  0
  -28.9077  -20.3872   20.0521 N   0  3  0  0  0  0
  -31.4794  -12.7468   19.2007 H   0  0  0  0  0  0
  -30.4435  -11.6405   20.0505 H   0  0  0  0  0  0
  -29.8420  -11.7233   17.6057 H   0  0  0  0  0  0
  -29.6224  -13.4535   17.6963 H   0  0  0  0  0  0
  -27.9441  -11.2835   18.9757 H   0  0  0  0  0  0
  -27.3953  -12.4727   17.8267 H   0  0  0  0  0  0
  -27.6020  -14.2579   19.4348 H   0  0  0  0  0  0
  -28.7612  -12.2838   21.4587 H   0  0  0  0  0  0
  -28.3761  -13.9521   21.7864 H   0  0  0  0  0  0
  -25.2726   -9.5686   22.4797 H   0  0  0  0  0  0
  -23.9977   -7.4627   22.7457 H   0  0  0  0  0  0
  -21.0836   -8.8733   19.8959 H   0  0  0  0  0  0
  -22.3640  -10.9672   19.6181 H   0  0  0  0  0  0
  -21.2057   -7.6152   23.9699 H   0  0  0  0  0  0
  -21.1470   -6.0523   25.9050 H   0  0  0  0  0  0
  -22.0618   -2.7617   23.2835 H   0  0  0  0  0  0
  -22.4073  -11.9807   22.4805 H   0  0  0  0  0  0
  -21.1076  -13.1182   22.2709 H   0  0  0  0  0  0
  -24.6351  -15.8391   20.5120 H   0  0  0  0  0  0
  -26.2363  -15.6289   20.0266 H   0  0  0  0  0  0
  -26.7215  -32.5331   23.0984 H   0  0  0  0  0  0
  -24.9936  -33.9627   25.0270 H   0  0  0  0  0  0
  -22.7461  -31.2816   21.3705 H   0  0  0  0  0  0
  -23.3767  -35.9612   23.3295 H   0  0  0  0  0  0
  -24.3576  -36.8938   22.2065 H   0  0  0  0  0  0
  -23.7244  -37.6489   23.6678 H   0  0  0  0  0  0
  -26.1388  -31.4665   20.6009 H   0  0  0  0  0  0
  -26.8693  -30.7766   22.0168 H   0  0  0  0  0  0
  -28.1051  -28.7890   21.2819 H   0  0  0  0  0  0
  -25.9604  -25.8396   18.9771 H   0  0  0  0  0  0
  -24.0102  -27.3000   18.9294 H   0  0  0  0  0  0
  -23.7893  -30.5479   19.3851 H   0  0  0  0  0  0
  -22.7840  -29.2092   19.8515 H   0  0  0  0  0  0
  -25.1298  -36.1920   25.0830 H   0  0  0  0  0  0
  -20.9986  -28.3298   24.1355 H   0  0  0  0  0  0
  -20.5629  -26.2342   23.3612 H   0  0  0  0  0  0
  -21.6648  -26.7399   22.1221 H   0  0  0  0  0  0
  -19.6924  -25.6266   21.1258 H   0  0  0  0  0  0
  -19.6687  -27.3147   20.6696 H   0  0  0  0  0  0
  -17.4190  -26.6619   21.4058 H   0  0  0  0  0  0
  -18.0389  -26.0064   22.9044 H   0  0  0  0  0  0
  -19.7952  -30.7266   24.2251 H   0  0  0  0  0  0
  -17.5031  -31.6256   24.5163 H   0  0  0  0  0  0
  -15.5366  -30.2985   23.7632 H   0  0  0  0  0  0
  -15.8687  -28.0791   22.7098 H   0  0  0  0  0  0
  -24.5847  -30.7095   25.7686 H   0  0  0  0  0  0
  -24.8868  -32.2900   26.4788 H   0  0  0  0  0  0
  -25.7952  -30.8894   27.0172 H   0  0  0  0  0  0
  -26.2956  -29.6706   24.1227 H   0  0  0  0  0  0
  -27.3970  -29.7241   25.4787 H   0  0  0  0  0  0
  -27.8853  -30.4239   23.9537 H   0  0  0  0  0  0
  -27.2621  -33.3600   26.2061 H   0  0  0  0  0  0
  -28.3817  -32.6911   25.0285 H   0  0  0  0  0  0
  -28.0730  -31.8439   26.5361 H   0  0  0  0  0  0
  -28.2591  -38.0119   24.7506 H   0  0  0  0  0  0
  -28.1107  -36.2643   24.6278 H   0  0  0  0  0  0
  -27.2308  -37.1438   25.8872 H   0  0  0  0  0  0
  -20.9430  -29.8807   21.6848 H   0  0  0  0  0  0
  -26.0193  -38.2853   24.1363 H   0  0  0  0  0  0
  -26.9332  -22.5422   21.9904 H   0  0  0  0  0  0
  -27.2025  -24.2845   21.9868 H   0  0  0  0  0  0
  -30.6600  -22.0825   22.1158 H   0  0  0  0  0  0
  -29.2691  -21.0729   22.4870 H   0  0  0  0  0  0
  -27.2899  -22.8294   19.7470 H   0  0  0  0  0  0
  -30.1111  -22.1684   19.8896 H   0  0  0  0  0  0
  -27.8959  -24.7840   18.7357 H   0  0  0  0  0  0
  -29.4615  -24.7270   19.3842 H   0  0  0  0  0  0
  -28.8574  -17.5180   19.2504 H   0  0  0  0  0  0
  -30.5667  -17.6770   19.3624 H   0  0  0  0  0  0
  -30.4265  -19.3273   21.1976 H   0  0  0  0  0  0
  -28.8141  -18.8880   21.6283 H   0  0  0  0  0  0
  -28.6161  -22.8819   23.5333 H   0  0  0  0  0  0
  -28.8321  -15.8664   21.0207 H   0  0  0  0  0  0
  -29.1748  -20.3126   19.0837 H   0  0  0  0  0  0
  -27.9061  -20.2850   20.0523 H   0  0  0  0  0  0
  1 25  1  0  0  0
  1 30  2  0  0  0
  1 79  1  0  0  0
  2  3  1  0  0  0
  2 25  1  0  0  0
  2 81  1  0  0  0
  2 82  1  0  0  0
  3  4  1  0  0  0
  3 83  1  0  0  0
  3 84  1  0  0  0
  4  5  1  0  0  0
  4 85  1  0  0  0
  4 86  1  0  0  0
  5  6  1  0  0  0
  5 26  1  0  0  0
  5 87  1  0  0  0
  6 25  1  0  0  0
  6 88  1  0  0  0
  6 89  1  0  0  0
  7  8  2  0  0  0
  7 26  1  0  0  0
  7 29  1  0  0  0
  8  9  1  0  0  0
  8 22  1  0  0  0
  9 10  1  0  0  0
  9 27  2  0  0  0
 10 11  2  0  0  0
 10 15  1  0  0  0
 11 12  1  0  0  0
 11 90  1  0  0  0
 12 13  2  0  0  0
 12 91  1  0  0  0
 13 14  1  0  0  0
 13 31  1  0  0  0
 14 15  2  0  0  0
 14 92  1  0  0  0
 15 93  1  0  0  0
 16 17  2  0  0  0
 16 21  1  0  0  0
 16 31  1  0  0  0
 17 18  1  0  0  0
 17 94  1  0  0  0
 18 19  2  0  0  0
 18 95  1  0  0  0
 19 20  1  0  0  0
 19 24  1  0  0  0
 20 21  2  0  0  0
 20 96  1  0  0  0
 21 23  1  0  0  0
 22 28  1  0  0  0
 22 32  2  0  0  0
 26 27  1  0  0  0
 28 97  1  0  0  0
 28 98  1  0  0  0
 29 99  1  0  0  0
 29100  1  0  0  0
 33 34  1  0  0  0
 33 66  1  0  0  0
 33 70  2  0  0  0
 34 36  1  0  0  0
 34 59  1  0  0  0
 34101  1  0  0  0
 35 44  2  0  0  0
 35 45  1  0  0  0
 35 68  1  0  0  0
 36 56  1  0  0  0
 36102  1  0  0  0
 37 39  1  0  0  0
 37 47  1  0  0  0
 37 66  1  0  0  0
 37103  1  0  0  0
 38 43  2  0  0  0
 38 46  1  0  0  0
 38 47  1  0  0  0
 39 64  1  0  0  0
 39 67  2  0  0  0
 40 52  1  0  0  0
 40 53  2  0  0  0
 40 58  1  0  0  0
 41104  1  0  0  0
 41105  1  0  0  0
 41106  1  0  0  0
 41 48  1  0  0  0
 42 43  1  0  0  0
 42 66  1  0  0  0
 42107  1  0  0  0
 42108  1  0  0  0
 43 44  1  0  0  0
 44109  1  0  0  0
 45 46  2  0  0  0
 45110  1  0  0  0
 46111  1  0  0  0
 47112  1  0  0  0
 47113  1  0  0  0
 48 56  1  0  0  0
 48 65  1  0  0  0
 48114  1  0  0  0
 49 50  1  0  0  0
 49 53  1  0  0  0
 49 64  1  0  0  0
 49115  1  0  0  0
 50 51  1  0  0  0
 50116  1  0  0  0
 50117  1  0  0  0
 51 52  1  0  0  0
 51118  1  0  0  0
 51119  1  0  0  0
 52120  1  0  0  0
 52121  1  0  0  0
 53 54  1  0  0  0
 54 55  2  0  0  0
 54122  1  0  0  0
 55 57  1  0  0  0
 55123  1  0  0  0
 56 69  2  0  0  0
 57 58  2  0  0  0
 57124  1  0  0  0
 58125  1  0  0  0
 59 60  1  0  0  0
 59 61  1  0  0  0
 59 62  1  0  0  0
 60126  1  0  0  0
 60127  1  0  0  0
 60128  1  0  0  0
 61129  1  0  0  0
 61130  1  0  0  0
 61131  1  0  0  0
 62132  1  0  0  0
 62133  1  0  0  0
 62134  1  0  0  0
 63 65  1  0  0  0
 63135  1  0  0  0
 63136  1  0  0  0
 63137  1  0  0  0
 64138  1  0  0  0
 65139  1  0  0  0
 68 75  1  0  0  0
 71 73  1  0  0  0
 71 78  1  0  0  0
 71140  1  0  0  0
 71141  1  0  0  0
 72 74  1  0  0  0
 72 78  1  0  0  0
 72142  1  0  0  0
 72143  1  0  0  0
 73 74  1  0  0  0
 73 75  1  0  0  0
 73144  1  0  0  0
 74 80  1  0  0  0
 74145  1  0  0  0
 75146  1  0  0  0
 75147  1  0  0  0
 76 77  1  0  0  0
 76 79  1  0  0  0
 76148  1  0  0  0
 76149  1  0  0  0
 77 80  1  0  0  0
 77150  1  0  0  0
 77151  1  0  0  0
 78152  1  0  0  0
 79153  1  0  0  0
 80154  1  0  0  0
 80155  1  0  0  0
M  CHG  1  80   1
M  ISO  4   1 100  68 101  75 101  79 100
M  END
> <chiral flag>
0

> <version>
0

> <s_m_source_file>
/data/baiqing/PycharmProjects/Reinvent-master-3.2/result/LINK_invent/BTK/process_docking_weight1_custom_sum_contain_oxygen_bond_distance_aromatic_linkinvent_7_9_3/rearranged_h_0129.sdf

> <i_m_source_file_index>
97

> <r_mmod_Potential_Energy-OPLS-2005>
474.510864257812

> <r_mmod_Stretch_Energy-OPLS-2005>
281.530395507812

> <r_mmod_Bend_Energy-OPLS-2005>
337.944183349609

> <r_mmod_Torsional_Energy-OPLS-2005>
315.266296386719

> <r_mmod_Improper_Torsional_Energy-OPLS-2005>
6.07446670532227

> <r_mmod_Van_der_Waal_Energy-OPLS-2005>
109.046447753906

> <r_mmod_Electrostatic_Energy-OPLS-2005>
-247.864639282227

> <r_mmod_Solvation_Energy-OPLS-2005>
-524.020141601562

> <b_mmod_Minimization_Converged-OPLS-2005>
0

> <r_mmod_RMS_Derivative-OPLS-2005>
3.52040791511536

$$$$
98
                    3D
 Structure written by MMmdl.
162171  0  0  1  0            999 V2000
  -30.6074  -14.9491   20.3976 C   0  0  0  0  0  0
  -30.4484  -12.5944   19.5036 C   0  0  0  0  0  0
  -29.5256  -12.5331   18.2657 C   0  0  0  0  0  0
  -28.0621  -12.3268   18.6890 C   0  0  0  0  0  0
  -27.6452  -13.2592   19.8570 C   0  0  2  0  0  0
  -28.6974  -13.3137   20.9904 C   0  0  0  0  0  0
  -25.2561  -13.8259   20.5749 C   0  0  0  0  0  0
  -24.1859  -13.0468   20.9217 C   0  0  0  0  0  0
  -24.6497  -11.6961   20.8794 C   0  0  0  0  0  0
  -23.9167  -10.4317   21.0431 C   0  0  0  0  0  0
  -24.3699   -9.4220   21.9194 C   0  0  0  0  0  0
  -23.6339   -8.2265   22.0758 C   0  0  0  0  0  0
  -22.4324   -8.0322   21.3545 C   0  0  0  0  0  0
  -21.9986   -9.0315   20.4651 C   0  0  0  0  0  0
  -22.7344  -10.2176   20.3069 C   0  0  0  0  0  0
  -21.6869   -6.0777   22.5275 C   0  0  0  0  0  0
  -21.4019   -6.5663   23.8218 C   0  0  0  0  0  0
  -21.3651   -5.6806   24.9163 C   0  0  0  0  0  0
  -21.6042   -4.3066   24.7201 C   0  0  0  0  0  0
  -21.8821   -3.8177   23.4321 C   0  0  0  0  0  0
  -21.9203   -4.7011   22.3383 C   0  0  0  0  0  0
  -22.7879  -13.5239   21.1826 C   0  0  0  0  0  0
  -22.1676   -4.2192   21.0959 F   0  0  0  0  0  0
  -21.5622   -3.4546   25.7712 F   0  0  0  0  0  0
  -29.9761  -13.7053   20.3821 N   0  0  0  0  0  0
  -26.3026  -12.9507   20.3407 N   0  0  0  0  0  0
  -25.9451  -11.6630   20.5868 N   0  0  0  0  0  0
  -22.0524  -12.8222   22.0389 N   0  0  0  0  0  0
  -25.4200  -15.1972   20.4133 N   0  0  0  0  0  0
  -31.7961  -14.9658   20.0748 O   0  0  0  0  0  0
  -21.6661   -6.8938   21.4241 O   0  0  0  0  0  0
  -22.3555  -14.5529   20.6669 O   0  0  0  0  0  0
  -24.6453  -31.8414   23.1872 C   0  0  0  0  0  0
  -25.9215  -32.4675   23.8280 C   0  0  1  0  0  0
  -27.2228  -27.1344   20.1599 C   0  0  0  0  0  0
  -25.5977  -33.8477   24.2211 N   0  0  0  0  0  0
  -23.4535  -30.4595   21.5301 C   0  0  2  0  0  0
  -24.9063  -28.8858   20.1152 C   0  0  0  0  0  0
  -22.7594  -29.4500   22.4785 C   0  0  0  0  0  0
  -18.0316  -28.1341   22.8480 C   0  0  0  0  0  0
  -24.1505  -36.7254   23.2654 C   0  0  0  0  0  0
  -26.0093  -30.7156   21.3915 C   0  0  0  0  0  0
  -26.0830  -29.3250   20.7353 C   0  0  0  0  0  0
  -27.2443  -28.4673   20.7393 C   0  0  0  0  0  0
  -26.0216  -26.8010   19.4970 C   0  0  0  0  0  0
  -24.8855  -27.6334   19.4845 C   0  0  0  0  0  0
  -23.6858  -29.7894   20.1500 C   0  0  0  0  0  0
  -25.4128  -36.3016   24.0319 C   0  0  1  0  0  0
  -20.5941  -28.3676   23.1203 C   0  0  2  0  0  0
  -20.6796  -26.9365   22.5390 C   0  0  0  0  0  0
  -19.5747  -26.6344   21.5196 C   0  0  0  0  0  0
  -18.1926  -26.7899   22.1614 C   0  0  0  0  0  0
  -19.1582  -28.8810   23.2838 C   0  0  0  0  0  0
  -18.9489  -30.1417   23.8866 C   0  0  0  0  0  0
  -17.6480  -30.6540   24.0541 C   0  0  0  0  0  0
  -25.9064  -34.9394   23.5076 C   0  0  0  0  0  0
  -16.5376  -29.9042   23.6327 C   0  0  0  0  0  0
  -16.7307  -28.6457   23.0361 C   0  0  0  0  0  0
  -26.4525  -31.6544   25.0718 C   0  0  0  0  0  0
  -25.3712  -31.3678   26.1415 C   0  0  0  0  0  0
  -27.0432  -30.2961   24.6282 C   0  0  0  0  0  0
  -27.6071  -32.4321   25.7483 C   0  0  0  0  0  0
  -27.5585  -37.1759   24.8463 C   0  0  0  0  0  0
  -21.4276  -29.3029   22.3581 N   0  0  0  0  0  0
  -26.4309  -37.3718   23.9392 N   0  0  0  0  0  0
  -24.7221  -31.0261   22.0917 N   0  0  0  0  0  0
  -23.4232  -28.8042   23.2938 O   0  0  0  0  0  0
  -28.2763  -26.1516   20.1969 O   0  0  0  0  0  0
  -26.5659  -34.8894   22.4666 O   0  0  0  0  0  0
  -23.5556  -32.1335   23.7044 O   0  0  0  0  0  0
  -30.4935  -23.6722   20.1967 C   0  0  0  0  0  0
  -29.8605  -23.5679   18.8390 C   0  0  0  0  0  0
  -29.3467  -18.9674   22.0581 C   0  0  0  0  0  0
  -30.6678  -18.4538   22.6966 C   0  0  0  0  0  0
  -31.6520  -18.1042   20.4369 C   0  0  0  0  0  0
  -30.1717  -17.6847   20.1497 C   0  0  2  0  0  0
  -29.0133  -23.3559   20.0755 C   0  0  0  0  0  0
  -28.6175  -21.7799   20.4573 C   0  0  0  0  0  0
  -27.9942  -24.6293   20.4027 C   0  0  0  0  0  0
  -29.4927  -20.3946   20.0084 C   0  0  0  0  0  0
  -29.3255  -18.9369   20.5868 N   0  0  0  0  0  0
  -29.8885  -16.1711   20.5529 N   0  0  0  0  0  0
  -31.8346  -18.6400   21.8065 N   0  3  0  0  0  0
  -31.4805  -12.7340   19.1776 H   0  0  0  0  0  0
  -30.4426  -11.6495   20.0460 H   0  0  0  0  0  0
  -29.8394  -11.7279   17.5994 H   0  0  0  0  0  0
  -29.6145  -13.4600   17.6962 H   0  0  0  0  0  0
  -27.9516  -11.2852   18.9920 H   0  0  0  0  0  0
  -27.3958  -12.4675   17.8389 H   0  0  0  0  0  0
  -27.6080  -14.2605   19.4266 H   0  0  0  0  0  0
  -28.7872  -12.3602   21.5087 H   0  0  0  0  0  0
  -28.4079  -14.0456   21.7460 H   0  0  0  0  0  0
  -25.2846   -9.5675   22.4781 H   0  0  0  0  0  0
  -24.0046   -7.4658   22.7486 H   0  0  0  0  0  0
  -21.0921   -8.8890   19.8945 H   0  0  0  0  0  0
  -22.3849  -10.9750   19.6200 H   0  0  0  0  0  0
  -21.2009   -7.6171   23.9723 H   0  0  0  0  0  0
  -21.1459   -6.0528   25.9065 H   0  0  0  0  0  0
  -22.0600   -2.7647   23.2800 H   0  0  0  0  0  0
  -22.4198  -11.9908   22.4775 H   0  0  0  0  0  0
  -21.1127  -13.1215   22.2551 H   0  0  0  0  0  0
  -24.6457  -15.8447   20.5056 H   0  0  0  0  0  0
  -26.2601  -15.6363   20.0577 H   0  0  0  0  0  0
  -26.7281  -32.5298   23.1005 H   0  0  0  0  0  0
  -25.0066  -33.9565   25.0318 H   0  0  0  0  0  0
  -22.7636  -31.2886   21.3670 H   0  0  0  0  0  0
  -23.3765  -35.9587   23.3293 H   0  0  0  0  0  0
  -24.3597  -36.8926   22.2081 H   0  0  0  0  0  0
  -23.7268  -37.6450   23.6719 H   0  0  0  0  0  0
  -26.1714  -31.4672   20.6214 H   0  0  0  0  0  0
  -26.8803  -30.7636   22.0359 H   0  0  0  0  0  0
  -28.1424  -28.7956   21.2444 H   0  0  0  0  0  0
  -25.9343  -25.8588   18.9778 H   0  0  0  0  0  0
  -23.9908  -27.2874   18.9868 H   0  0  0  0  0  0
  -23.8367  -30.5681   19.3985 H   0  0  0  0  0  0
  -22.8042  -29.2319   19.8292 H   0  0  0  0  0  0
  -25.1287  -36.1873   25.0815 H   0  0  0  0  0  0
  -21.0025  -28.3271   24.1328 H   0  0  0  0  0  0
  -20.5640  -26.2280   23.3604 H   0  0  0  0  0  0
  -21.6652  -26.7329   22.1197 H   0  0  0  0  0  0
  -19.6913  -25.6257   21.1228 H   0  0  0  0  0  0
  -19.6697  -27.3157   20.6726 H   0  0  0  0  0  0
  -17.4213  -26.6651   21.4009 H   0  0  0  0  0  0
  -18.0305  -26.0017   22.8982 H   0  0  0  0  0  0
  -19.7970  -30.7217   24.2246 H   0  0  0  0  0  0
  -17.5047  -31.6227   24.5126 H   0  0  0  0  0  0
  -15.5372  -30.2913   23.7646 H   0  0  0  0  0  0
  -15.8724  -28.0747   22.7084 H   0  0  0  0  0  0
  -24.5916  -30.7001   25.7715 H   0  0  0  0  0  0
  -24.8824  -32.2803   26.4845 H   0  0  0  0  0  0
  -25.7992  -30.8862   27.0211 H   0  0  0  0  0  0
  -26.3049  -29.6629   24.1351 H   0  0  0  0  0  0
  -27.4149  -29.7306   25.4834 H   0  0  0  0  0  0
  -27.8907  -30.4231   23.9545 H   0  0  0  0  0  0
  -27.2725  -33.3690   26.1957 H   0  0  0  0  0  0
  -28.3930  -32.6772   25.0331 H   0  0  0  0  0  0
  -28.0693  -31.8507   26.5480 H   0  0  0  0  0  0
  -28.2535  -38.0114   24.7541 H   0  0  0  0  0  0
  -28.1136  -36.2629   24.6247 H   0  0  0  0  0  0
  -27.2288  -37.1372   25.8861 H   0  0  0  0  0  0
  -20.9482  -29.8892   21.6894 H   0  0  0  0  0  0
  -26.0179  -38.2778   24.1431 H   0  0  0  0  0  0
  -30.7729  -24.6616   20.5472 H   0  0  0  0  0  0
  -31.1611  -22.8725   20.5036 H   0  0  0  0  0  0
  -30.0943  -22.6987   18.2298 H   0  0  0  0  0  0
  -29.7148  -24.4987   18.2949 H   0  0  0  0  0  0
  -29.1220  -19.9596   22.4409 H   0  0  0  0  0  0
  -28.5296  -18.3360   22.4109 H   0  0  0  0  0  0
  -30.5857  -17.3966   22.9472 H   0  0  0  0  0  0
  -30.8396  -18.9719   23.6400 H   0  0  0  0  0  0
  -31.9509  -18.8896   19.7411 H   0  0  0  0  0  0
  -32.3768  -17.3124   20.2642 H   0  0  0  0  0  0
  -30.0717  -17.6491   19.0631 H   0  0  0  0  0  0
  -27.5976  -21.6307   20.1011 H   0  0  0  0  0  0
  -28.5358  -21.7811   21.5422 H   0  0  0  0  0  0
  -27.0607  -24.3757   19.9059 H   0  0  0  0  0  0
  -27.7554  -24.5367   21.4630 H   0  0  0  0  0  0
  -30.5445  -20.6634   20.0844 H   0  0  0  0  0  0
  -29.3332  -20.2851   18.9334 H   0  0  0  0  0  0
  -28.9437  -16.0213   20.8681 H   0  0  0  0  0  0
  -32.6456  -18.2091   22.2174 H   0  0  0  0  0  0
  -32.0190  -19.6269   21.7376 H   0  0  0  0  0  0
  1 25  1  0  0  0
  1 30  2  0  0  0
  1 82  1  0  0  0
  2  3  1  0  0  0
  2 25  1  0  0  0
  2 84  1  0  0  0
  2 85  1  0  0  0
  3  4  1  0  0  0
  3 86  1  0  0  0
  3 87  1  0  0  0
  4  5  1  0  0  0
  4 88  1  0  0  0
  4 89  1  0  0  0
  5  6  1  0  0  0
  5 26  1  0  0  0
  5 90  1  0  0  0
  6 25  1  0  0  0
  6 91  1  0  0  0
  6 92  1  0  0  0
  7  8  2  0  0  0
  7 26  1  0  0  0
  7 29  1  0  0  0
  8  9  1  0  0  0
  8 22  1  0  0  0
  9 10  1  0  0  0
  9 27  2  0  0  0
 10 11  2  0  0  0
 10 15  1  0  0  0
 11 12  1  0  0  0
 11 93  1  0  0  0
 12 13  2  0  0  0
 12 94  1  0  0  0
 13 14  1  0  0  0
 13 31  1  0  0  0
 14 15  2  0  0  0
 14 95  1  0  0  0
 15 96  1  0  0  0
 16 17  2  0  0  0
 16 21  1  0  0  0
 16 31  1  0  0  0
 17 18  1  0  0  0
 17 97  1  0  0  0
 18 19  2  0  0  0
 18 98  1  0  0  0
 19 20  1  0  0  0
 19 24  1  0  0  0
 20 21  2  0  0  0
 20 99  1  0  0  0
 21 23  1  0  0  0
 22 28  1  0  0  0
 22 32  2  0  0  0
 26 27  1  0  0  0
 28100  1  0  0  0
 28101  1  0  0  0
 29102  1  0  0  0
 29103  1  0  0  0
 33 34  1  0  0  0
 33 66  1  0  0  0
 33 70  2  0  0  0
 34 36  1  0  0  0
 34 59  1  0  0  0
 34104  1  0  0  0
 35 44  2  0  0  0
 35 45  1  0  0  0
 35 68  1  0  0  0
 36 56  1  0  0  0
 36105  1  0  0  0
 37 39  1  0  0  0
 37 47  1  0  0  0
 37 66  1  0  0  0
 37106  1  0  0  0
 38 43  2  0  0  0
 38 46  1  0  0  0
 38 47  1  0  0  0
 39 64  1  0  0  0
 39 67  2  0  0  0
 40 52  1  0  0  0
 40 53  2  0  0  0
 40 58  1  0  0  0
 41107  1  0  0  0
 41108  1  0  0  0
 41109  1  0  0  0
 41 48  1  0  0  0
 42 43  1  0  0  0
 42 66  1  0  0  0
 42110  1  0  0  0
 42111  1  0  0  0
 43 44  1  0  0  0
 44112  1  0  0  0
 45 46  2  0  0  0
 45113  1  0  0  0
 46114  1  0  0  0
 47115  1  0  0  0
 47116  1  0  0  0
 48 56  1  0  0  0
 48 65  1  0  0  0
 48117  1  0  0  0
 49 50  1  0  0  0
 49 53  1  0  0  0
 49 64  1  0  0  0
 49118  1  0  0  0
 50 51  1  0  0  0
 50119  1  0  0  0
 50120  1  0  0  0
 51 52  1  0  0  0
 51121  1  0  0  0
 51122  1  0  0  0
 52123  1  0  0  0
 52124  1  0  0  0
 53 54  1  0  0  0
 54 55  2  0  0  0
 54125  1  0  0  0
 55 57  1  0  0  0
 55126  1  0  0  0
 56 69  2  0  0  0
 57 58  2  0  0  0
 57127  1  0  0  0
 58128  1  0  0  0
 59 60  1  0  0  0
 59 61  1  0  0  0
 59 62  1  0  0  0
 60129  1  0  0  0
 60130  1  0  0  0
 60131  1  0  0  0
 61132  1  0  0  0
 61133  1  0  0  0
 61134  1  0  0  0
 62135  1  0  0  0
 62136  1  0  0  0
 62137  1  0  0  0
 63 65  1  0  0  0
 63138  1  0  0  0
 63139  1  0  0  0
 63140  1  0  0  0
 64141  1  0  0  0
 65142  1  0  0  0
 68 79  1  0  0  0
 71 72  1  0  0  0
 71 77  1  0  0  0
 71143  1  0  0  0
 71144  1  0  0  0
 72 77  1  0  0  0
 72145  1  0  0  0
 72146  1  0  0  0
 73 74  1  0  0  0
 73 81  1  0  0  0
 73147  1  0  0  0
 73148  1  0  0  0
 74 83  1  0  0  0
 74149  1  0  0  0
 74150  1  0  0  0
 75 76  1  0  0  0
 75 83  1  0  0  0
 75151  1  0  0  0
 75152  1  0  0  0
 76 81  1  0  0  0
 76 82  1  0  0  0
 76153  1  0  0  0
 77 78  1  0  0  0
 77 79  1  0  0  0
 78 80  1  0  0  0
 78154  1  0  0  0
 78155  1  0  0  0
 79156  1  0  0  0
 79157  1  0  0  0
 80 81  1  0  0  0
 80158  1  0  0  0
 80159  1  0  0  0
 82160  1  0  0  0
 83161  1  0  0  0
 83162  1  0  0  0
M  CHG  1  83   1
M  ISO  4   1 100  68 101  79 101  82 100
M  END
> <chiral flag>
0

> <version>
0

> <s_m_source_file>
/data/baiqing/PycharmProjects/Reinvent-master-3.2/result/LINK_invent/BTK/process_docking_weight1_custom_sum_contain_oxygen_bond_distance_aromatic_linkinvent_7_9_3/rearranged_h_0129.sdf

> <i_m_source_file_index>
98

> <r_mmod_Potential_Energy-OPLS-2005>
432.179107666016

> <r_mmod_Stretch_Energy-OPLS-2005>
281.743835449219

> <r_mmod_Bend_Energy-OPLS-2005>
269.345062255859

> <r_mmod_Torsional_Energy-OPLS-2005>
342.354827880859

> <r_mmod_Improper_Torsional_Energy-OPLS-2005>
4.98758602142334

> <r_mmod_Van_der_Waal_Energy-OPLS-2005>
131.163650512695

> <r_mmod_Electrostatic_Energy-OPLS-2005>
-330.636779785156

> <r_mmod_Solvation_Energy-OPLS-2005>
-458.562927246094

> <b_mmod_Minimization_Converged-OPLS-2005>
0

> <r_mmod_RMS_Derivative-OPLS-2005>
5.074791431427

$$$$
99
                    3D
 Structure written by MMmdl.
169178  0  0  1  0            999 V2000
  -30.4545  -15.2062   20.4514 C   0  0  0  0  0  0
  -30.4536  -12.7813   19.5202 C   0  0  0  0  0  0
  -29.5327  -12.6036   18.2818 C   0  0  0  0  0  0
  -28.0795  -12.3202   18.7124 C   0  0  0  0  0  0
  -27.6332  -13.2533   19.8630 C   0  0  2  0  0  0
  -28.6824  -13.3180   20.9942 C   0  0  0  0  0  0
  -25.2478  -13.8132   20.5750 C   0  0  0  0  0  0
  -24.1779  -13.0401   20.9241 C   0  0  0  0  0  0
  -24.6387  -11.6876   20.8763 C   0  0  0  0  0  0
  -23.9045  -10.4254   21.0391 C   0  0  0  0  0  0
  -24.3595   -9.4177   21.9192 C   0  0  0  0  0  0
  -23.6284   -8.2178   22.0751 C   0  0  0  0  0  0
  -22.4275   -8.0227   21.3527 C   0  0  0  0  0  0
  -21.9904   -9.0185   20.4629 C   0  0  0  0  0  0
  -22.7202  -10.2071   20.3035 C   0  0  0  0  0  0
  -21.6852   -6.0704   22.5262 C   0  0  0  0  0  0
  -21.4001   -6.5608   23.8191 C   0  0  0  0  0  0
  -21.3665   -5.6777   24.9170 C   0  0  0  0  0  0
  -21.6042   -4.3037   24.7226 C   0  0  0  0  0  0
  -21.8829   -3.8122   23.4339 C   0  0  0  0  0  0
  -21.9196   -4.6932   22.3392 C   0  0  0  0  0  0
  -22.7823  -13.5206   21.1821 C   0  0  0  0  0  0
  -22.1698   -4.2111   21.0988 F   0  0  0  0  0  0
  -21.5618   -3.4546   25.7746 F   0  0  0  0  0  0
  -29.9023  -13.8880   20.3924 N   0  0  0  0  0  0
  -26.2928  -12.9393   20.3397 N   0  0  0  0  0  0
  -25.9346  -11.6498   20.5803 N   0  0  0  0  0  0
  -22.0516  -12.8194   22.0414 N   0  0  0  0  0  0
  -25.4006  -15.1876   20.4052 N   0  0  0  0  0  0
  -31.6471  -15.2306   20.1123 O   0  0  0  0  0  0
  -21.6645   -6.8834   21.4204 O   0  0  0  0  0  0
  -22.3537  -14.5493   20.6636 O   0  0  0  0  0  0
  -24.6605  -31.8252   23.1724 C   0  0  0  0  0  0
  -25.9281  -32.4615   23.8147 C   0  0  1  0  0  0
  -27.2288  -26.9507   20.2085 C   0  0  0  0  0  0
  -25.5968  -33.8418   24.2120 N   0  0  0  0  0  0
  -23.4740  -30.4358   21.5189 C   0  0  2  0  0  0
  -24.9249  -28.8105   20.1311 C   0  0  0  0  0  0
  -22.7655  -29.4458   22.4834 C   0  0  0  0  0  0
  -18.0326  -28.1492   22.8524 C   0  0  0  0  0  0
  -24.1451  -36.7161   23.2656 C   0  0  0  0  0  0
  -26.0382  -30.6481   21.3883 C   0  0  0  0  0  0
  -26.1108  -29.2288   20.7524 C   0  0  0  0  0  0
  -27.2578  -28.3211   20.7618 C   0  0  0  0  0  0
  -26.0113  -26.6684   19.5540 C   0  0  0  0  0  0
  -24.8945  -27.5480   19.5155 C   0  0  0  0  0  0
  -23.7151  -29.7393   20.1486 C   0  0  0  0  0  0
  -25.4092  -36.2990   24.0335 C   0  0  1  0  0  0
  -20.5961  -28.3786   23.1278 C   0  0  2  0  0  0
  -20.6829  -26.9487   22.5457 C   0  0  0  0  0  0
  -19.5781  -26.6438   21.5319 C   0  0  0  0  0  0
  -18.1935  -26.8063   22.1634 C   0  0  0  0  0  0
  -19.1590  -28.8954   23.2904 C   0  0  0  0  0  0
  -18.9492  -30.1570   23.8894 C   0  0  0  0  0  0
  -17.6488  -30.6685   24.0588 C   0  0  0  0  0  0
  -25.9052  -34.9364   23.5050 C   0  0  0  0  0  0
  -16.5386  -29.9150   23.6423 C   0  0  0  0  0  0
  -16.7304  -28.6589   23.0414 C   0  0  0  0  0  0
  -26.4595  -31.6532   25.0624 C   0  0  0  0  0  0
  -25.3710  -31.3761   26.1275 C   0  0  0  0  0  0
  -27.0514  -30.2929   24.6270 C   0  0  0  0  0  0
  -27.6109  -32.4299   25.7412 C   0  0  0  0  0  0
  -27.5558  -37.1741   24.8473 C   0  0  0  0  0  0
  -21.4320  -29.3076   22.3589 N   0  0  0  0  0  0
  -26.4228  -37.3731   23.9468 N   0  0  0  0  0  0
  -24.7443  -30.9997   22.0797 N   0  0  0  0  0  0
  -23.4229  -28.8036   23.3053 O   0  0  0  0  0  0
  -28.2888  -25.9131   20.1435 O   0  0  0  0  0  0
  -26.5584  -34.8892   22.4601 O   0  0  0  0  0  0
  -23.5688  -32.1161   23.6891 O   0  0  0  0  0  0
  -31.8079  -21.6003   24.2287 C   0  0  0  0  0  0
  -30.2913  -21.4039   24.2140 C   0  0  0  0  0  0
  -28.0216  -17.8501   22.1967 C   0  0  0  0  0  0
  -28.6314  -16.4960   21.6700 C   0  0  0  0  0  0
  -30.0017  -18.0230   20.1754 C   0  0  0  0  0  0
  -32.3144  -20.4631   25.1235 C   0  0  0  0  0  0
  -28.8371  -19.1742   22.1016 C   0  0  2  0  0  0
  -29.1011  -19.4758   20.6069 C   0  0  1  0  0  0
  -30.1041  -19.8831   24.3295 C   0  0  1  0  0  0
  -30.1374  -19.1267   22.9700 C   0  0  0  0  0  0
  -29.4058  -21.2294   20.3768 C   0  0  0  0  0  0
  -28.3854  -22.6783   20.0804 C   0  0  0  0  0  0
  -28.3450  -24.3688   20.6897 C   0  0  0  0  0  0
  -29.7053  -16.4819   20.6478 N   0  0  0  0  0  0
  -31.2307  -19.4616   25.1938 N   0  3  0  0  0  0
  -31.4705  -12.9928   19.1829 H   0  0  0  0  0  0
  -30.5374  -11.8433   20.0723 H   0  0  0  0  0  0
  -29.9039  -11.7993   17.6417 H   0  0  0  0  0  0
  -29.5583  -13.5156   17.6825 H   0  0  0  0  0  0
  -28.0294  -11.2836   19.0500 H   0  0  0  0  0  0
  -27.4032  -12.4095   17.8631 H   0  0  0  0  0  0
  -27.5816  -14.2500   19.4237 H   0  0  0  0  0  0
  -28.8712  -12.3251   21.4122 H   0  0  0  0  0  0
  -28.3319  -13.8977   21.8420 H   0  0  0  0  0  0
  -25.2740   -9.5655   22.4773 H   0  0  0  0  0  0
  -24.0004   -7.4570   22.7460 H   0  0  0  0  0  0
  -21.0845   -8.8631   19.8960 H   0  0  0  0  0  0
  -22.3643  -10.9563   19.6119 H   0  0  0  0  0  0
  -21.1988   -7.6131   23.9658 H   0  0  0  0  0  0
  -21.1497   -6.0555   25.9076 H   0  0  0  0  0  0
  -22.0614   -2.7591   23.2847 H   0  0  0  0  0  0
  -22.4158  -11.9833   22.4692 H   0  0  0  0  0  0
  -21.1115  -13.1156   22.2584 H   0  0  0  0  0  0
  -24.6189  -15.8228   20.5000 H   0  0  0  0  0  0
  -26.2211  -15.6248   20.0091 H   0  0  0  0  0  0
  -26.7303  -32.5199   23.0825 H   0  0  0  0  0  0
  -25.0219  -33.9469   25.0353 H   0  0  0  0  0  0
  -22.7920  -31.2695   21.3413 H   0  0  0  0  0  0
  -23.3769  -35.9424   23.3254 H   0  0  0  0  0  0
  -24.3619  -36.8859   22.2097 H   0  0  0  0  0  0
  -23.7082  -37.6282   23.6714 H   0  0  0  0  0  0
  -26.1934  -31.3871   20.5999 H   0  0  0  0  0  0
  -26.9067  -30.7289   22.0285 H   0  0  0  0  0  0
  -28.1662  -28.6559   21.2460 H   0  0  0  0  0  0
  -25.9146  -25.7100   19.0608 H   0  0  0  0  0  0
  -23.9936  -27.2246   19.0084 H   0  0  0  0  0  0
  -23.8733  -30.4942   19.3779 H   0  0  0  0  0  0
  -22.8269  -29.1872   19.8384 H   0  0  0  0  0  0
  -25.1323  -36.1769   25.0821 H   0  0  0  0  0  0
  -21.0103  -28.3361   24.1388 H   0  0  0  0  0  0
  -20.5860  -26.2375   23.3658 H   0  0  0  0  0  0
  -21.6660  -26.7551   22.1172 H   0  0  0  0  0  0
  -19.6904  -25.6354   21.1335 H   0  0  0  0  0  0
  -19.6754  -27.3253   20.6860 H   0  0  0  0  0  0
  -17.4297  -26.6993   21.3930 H   0  0  0  0  0  0
  -18.0121  -26.0205   22.8968 H   0  0  0  0  0  0
  -19.7967  -30.7434   24.2185 H   0  0  0  0  0  0
  -17.5058  -31.6371   24.5174 H   0  0  0  0  0  0
  -15.5390  -30.3058   23.7799 H   0  0  0  0  0  0
  -15.8714  -28.0947   22.7088 H   0  0  0  0  0  0
  -24.6016  -30.6958   25.7648 H   0  0  0  0  0  0
  -24.8686  -32.2909   26.4393 H   0  0  0  0  0  0
  -25.7962  -30.9210   27.0222 H   0  0  0  0  0  0
  -26.3192  -29.6570   24.1269 H   0  0  0  0  0  0
  -27.4166  -29.7337   25.4899 H   0  0  0  0  0  0
  -27.9095  -30.4251   23.9665 H   0  0  0  0  0  0
  -27.2780  -33.3736   26.1737 H   0  0  0  0  0  0
  -28.4047  -32.6581   25.0290 H   0  0  0  0  0  0
  -28.0571  -31.8479   26.5482 H   0  0  0  0  0  0
  -28.2547  -38.0069   24.7617 H   0  0  0  0  0  0
  -28.1076  -36.2617   24.6180 H   0  0  0  0  0  0
  -27.2325  -37.1266   25.8880 H   0  0  0  0  0  0
  -20.9519  -29.8744   21.6738 H   0  0  0  0  0  0
  -26.0081  -38.2784   24.1495 H   0  0  0  0  0  0
  -32.1085  -22.5778   24.6081 H   0  0  0  0  0  0
  -32.2165  -21.4933   23.2239 H   0  0  0  0  0  0
  -29.7966  -21.8550   23.3567 H   0  0  0  0  0  0
  -29.8741  -21.8762   25.1017 H   0  0  0  0  0  0
  -27.7280  -17.7035   23.2372 H   0  0  0  0  0  0
  -27.0728  -18.0109   21.6807 H   0  0  0  0  0  0
  -27.7961  -15.9299   21.2659 H   0  0  0  0  0  0
  -28.9842  -15.9268   22.5312 H   0  0  0  0  0  0
  -31.0443  -18.1911   20.4449 H   0  0  0  0  0  0
  -30.0160  -17.9777   19.0874 H   0  0  0  0  0  0
  -32.5267  -20.8249   26.1318 H   0  0  0  0  0  0
  -33.2362  -20.0245   24.7344 H   0  0  0  0  0  0
  -28.2016  -19.9737   22.4878 H   0  0  0  0  0  0
  -28.1494  -19.3508   20.0851 H   0  0  0  0  0  0
  -29.1696  -19.6523   24.8427 H   0  0  0  0  0  0
  -30.9927  -19.4815   22.3936 H   0  0  0  0  0  0
  -30.3712  -18.0820   23.1759 H   0  0  0  0  0  0
  -30.1004  -21.2477   19.5345 H   0  0  0  0  0  0
  -30.0602  -21.5019   21.2017 H   0  0  0  0  0  0
  -27.3810  -22.3127   20.3079 H   0  0  0  0  0  0
  -28.3544  -22.7780   18.9907 H   0  0  0  0  0  0
  -29.2621  -24.4110   21.2766 H   0  0  0  0  0  0
  -27.5784  -24.3538   21.4629 H   0  0  0  0  0  0
  -30.9144  -19.4376   26.1506 H   0  0  0  0  0  0
  -31.5618  -18.5390   24.9598 H   0  0  0  0  0  0
  1 25  1  0  0  0
  1 30  2  0  0  0
  1 84  1  0  0  0
  2  3  1  0  0  0
  2 25  1  0  0  0
  2 86  1  0  0  0
  2 87  1  0  0  0
  3  4  1  0  0  0
  3 88  1  0  0  0
  3 89  1  0  0  0
  4  5  1  0  0  0
  4 90  1  0  0  0
  4 91  1  0  0  0
  5  6  1  0  0  0
  5 26  1  0  0  0
  5 92  1  0  0  0
  6 25  1  0  0  0
  6 93  1  0  0  0
  6 94  1  0  0  0
  7  8  2  0  0  0
  7 26  1  0  0  0
  7 29  1  0  0  0
  8  9  1  0  0  0
  8 22  1  0  0  0
  9 10  1  0  0  0
  9 27  2  0  0  0
 10 11  2  0  0  0
 10 15  1  0  0  0
 11 12  1  0  0  0
 11 95  1  0  0  0
 12 13  2  0  0  0
 12 96  1  0  0  0
 13 14  1  0  0  0
 13 31  1  0  0  0
 14 15  2  0  0  0
 14 97  1  0  0  0
 15 98  1  0  0  0
 16 17  2  0  0  0
 16 21  1  0  0  0
 16 31  1  0  0  0
 17 18  1  0  0  0
 17 99  1  0  0  0
 18 19  2  0  0  0
 18100  1  0  0  0
 19 20  1  0  0  0
 19 24  1  0  0  0
 20 21  2  0  0  0
 20101  1  0  0  0
 21 23  1  0  0  0
 22 28  1  0  0  0
 22 32  2  0  0  0
 26 27  1  0  0  0
 28102  1  0  0  0
 28103  1  0  0  0
 29104  1  0  0  0
 29105  1  0  0  0
 33 34  1  0  0  0
 33 66  1  0  0  0
 33 70  2  0  0  0
 34 36  1  0  0  0
 34 59  1  0  0  0
 34106  1  0  0  0
 35 44  2  0  0  0
 35 45  1  0  0  0
 35 68  1  0  0  0
 36 56  1  0  0  0
 36107  1  0  0  0
 37 39  1  0  0  0
 37 47  1  0  0  0
 37 66  1  0  0  0
 37108  1  0  0  0
 38 43  2  0  0  0
 38 46  1  0  0  0
 38 47  1  0  0  0
 39 64  1  0  0  0
 39 67  2  0  0  0
 40 52  1  0  0  0
 40 53  2  0  0  0
 40 58  1  0  0  0
 41109  1  0  0  0
 41110  1  0  0  0
 41111  1  0  0  0
 41 48  1  0  0  0
 42 43  1  0  0  0
 42 66  1  0  0  0
 42112  1  0  0  0
 42113  1  0  0  0
 43 44  1  0  0  0
 44114  1  0  0  0
 45 46  2  0  0  0
 45115  1  0  0  0
 46116  1  0  0  0
 47117  1  0  0  0
 47118  1  0  0  0
 48 56  1  0  0  0
 48 65  1  0  0  0
 48119  1  0  0  0
 49 50  1  0  0  0
 49 53  1  0  0  0
 49 64  1  0  0  0
 49120  1  0  0  0
 50 51  1  0  0  0
 50121  1  0  0  0
 50122  1  0  0  0
 51 52  1  0  0  0
 51123  1  0  0  0
 51124  1  0  0  0
 52125  1  0  0  0
 52126  1  0  0  0
 53 54  1  0  0  0
 54 55  2  0  0  0
 54127  1  0  0  0
 55 57  1  0  0  0
 55128  1  0  0  0
 56 69  2  0  0  0
 57 58  2  0  0  0
 57129  1  0  0  0
 58130  1  0  0  0
 59 60  1  0  0  0
 59 61  1  0  0  0
 59 62  1  0  0  0
 60131  1  0  0  0
 60132  1  0  0  0
 60133  1  0  0  0
 61134  1  0  0  0
 61135  1  0  0  0
 61136  1  0  0  0
 62137  1  0  0  0
 62138  1  0  0  0
 62139  1  0  0  0
 63 65  1  0  0  0
 63140  1  0  0  0
 63141  1  0  0  0
 63142  1  0  0  0
 64143  1  0  0  0
 65144  1  0  0  0
 68 83  1  0  0  0
 71 72  1  0  0  0
 71 76  1  0  0  0
 71145  1  0  0  0
 71146  1  0  0  0
 72 79  1  0  0  0
 72147  1  0  0  0
 72148  1  0  0  0
 73 74  1  0  0  0
 73 77  1  0  0  0
 73149  1  0  0  0
 73150  1  0  0  0
 74 84  1  0  0  0
 74151  1  0  0  0
 74152  1  0  0  0
 75 78  1  0  0  0
 75 84  1  0  0  0
 75153  1  0  0  0
 75154  1  0  0  0
 76 85  1  0  0  0
 76155  1  0  0  0
 76156  1  0  0  0
 77 78  1  0  0  0
 77 80  1  0  0  0
 77157  1  0  0  0
 78 81  1  0  0  0
 78158  1  0  0  0
 79 80  1  0  0  0
 79 85  1  0  0  0
 79159  1  0  0  0
 80160  1  0  0  0
 80161  1  0  0  0
 81 82  1  0  0  0
 81162  1  0  0  0
 81163  1  0  0  0
 82 83  1  0  0  0
 82164  1  0  0  0
 82165  1  0  0  0
 83166  1  0  0  0
 83167  1  0  0  0
 85168  1  0  0  0
 85169  1  0  0  0
M  CHG  1  85   1
M  ISO  4   1 100  68 101  83 101  84 100
M  END
> <chiral flag>
0

> <version>
0

> <s_m_source_file>
/data/baiqing/PycharmProjects/Reinvent-master-3.2/result/LINK_invent/BTK/process_docking_weight1_custom_sum_contain_oxygen_bond_distance_aromatic_linkinvent_7_9_3/rearranged_h_0129.sdf

> <i_m_source_file_index>
99

> <r_mmod_Potential_Energy-OPLS-2005>
1407.64782714844

> <r_mmod_Stretch_Energy-OPLS-2005>
590.366455078125

> <r_mmod_Bend_Energy-OPLS-2005>
513.752014160156

> <r_mmod_Torsional_Energy-OPLS-2005>
445.440399169922

> <r_mmod_Improper_Torsional_Energy-OPLS-2005>
5.92110013961792

> <r_mmod_Van_der_Waal_Energy-OPLS-2005>
109.910087585449

> <r_mmod_Electrostatic_Energy-OPLS-2005>
-183.825958251953

> <r_mmod_Solvation_Energy-OPLS-2005>
-456.468444824219

> <b_mmod_Minimization_Converged-OPLS-2005>
0

> <r_mmod_RMS_Derivative-OPLS-2005>
7.35050630569458

$$$$
