0
                    3D
 Structure written by MMmdl.
153160  0  0  1  0            999 V2000
  -30.6216  -14.6996   20.4642 C   0  0  0  0  0  0
  -30.4283  -12.4298   19.4512 C   0  0  0  0  0  0
  -29.4987  -12.5068   18.2211 C   0  0  0  0  0  0
  -28.0248  -12.3352   18.6374 C   0  0  0  0  0  0
  -27.6407  -13.2267   19.8490 C   0  0  2  0  0  0
  -28.6895  -13.1397   20.9793 C   0  0  0  0  0  0
  -25.2500  -13.8189   20.5684 C   0  0  0  0  0  0
  -24.1794  -13.0432   20.9198 C   0  0  0  0  0  0
  -24.6377  -11.6910   20.8735 C   0  0  0  0  0  0
  -23.9050  -10.4290   21.0391 C   0  0  0  0  0  0
  -24.3607   -9.4215   21.9175 C   0  0  0  0  0  0
  -23.6294   -8.2245   22.0743 C   0  0  0  0  0  0
  -22.4283   -8.0268   21.3536 C   0  0  0  0  0  0
  -21.9906   -9.0239   20.4643 C   0  0  0  0  0  0
  -22.7218  -10.2127   20.3051 C   0  0  0  0  0  0
  -21.6849   -6.0725   22.5276 C   0  0  0  0  0  0
  -21.4010   -6.5633   23.8210 C   0  0  0  0  0  0
  -21.3674   -5.6790   24.9176 C   0  0  0  0  0  0
  -21.6053   -4.3052   24.7222 C   0  0  0  0  0  0
  -21.8820   -3.8141   23.4340 C   0  0  0  0  0  0
  -21.9189   -4.6956   22.3397 C   0  0  0  0  0  0
  -22.7825  -13.5217   21.1880 C   0  0  0  0  0  0
  -22.1654   -4.2144   21.0973 F   0  0  0  0  0  0
  -21.5644   -3.4531   25.7734 F   0  0  0  0  0  0
  -29.9923  -13.4817   20.3939 N   0  0  0  0  0  0
  -26.2925  -12.9385   20.3283 N   0  0  0  0  0  0
  -25.9306  -11.6530   20.5750 N   0  0  0  0  0  0
  -22.0461  -12.8221   22.0439 N   0  0  0  0  0  0
  -25.4184  -15.1917   20.4103 N   0  0  0  0  0  0
  -31.8151  -14.8075   20.1687 O   0  0  0  0  0  0
  -21.6640   -6.8871   21.4238 O   0  0  0  0  0  0
  -22.3509  -14.5513   20.6719 O   0  0  0  0  0  0
  -24.6272  -31.8573   23.1987 C   0  0  0  0  0  0
  -25.9103  -32.4767   23.8333 C   0  0  1  0  0  0
  -27.2323  -27.3044   20.1320 C   0  0  0  0  0  0
  -25.5903  -33.8567   24.2266 N   0  0  0  0  0  0
  -23.4237  -30.4777   21.5401 C   0  0  2  0  0  0
  -24.8735  -28.9207   20.1182 C   0  0  0  0  0  0
  -22.7482  -29.4611   22.4915 C   0  0  0  0  0  0
  -18.0291  -28.1397   22.8493 C   0  0  0  0  0  0
  -24.1488  -36.7296   23.2643 C   0  0  0  0  0  0
  -25.9641  -30.7853   21.3694 C   0  0  0  0  0  0
  -26.0417  -29.4076   20.7185 C   0  0  0  0  0  0
  -27.2279  -28.6132   20.7098 C   0  0  0  0  0  0
  -26.0420  -26.8612   19.5228 C   0  0  0  0  0  0
  -24.8748  -27.6523   19.5111 C   0  0  0  0  0  0
  -23.6426  -29.8054   20.1585 C   0  0  0  0  0  0
  -25.4113  -36.3082   24.0334 C   0  0  1  0  0  0
  -20.5891  -28.3703   23.1279 C   0  0  2  0  0  0
  -20.6779  -26.9421   22.5409 C   0  0  0  0  0  0
  -19.5754  -26.6394   21.5214 C   0  0  0  0  0  0
  -18.1937  -26.7940   22.1628 C   0  0  0  0  0  0
  -19.1546  -28.8865   23.2882 C   0  0  0  0  0  0
  -18.9463  -30.1466   23.8906 C   0  0  0  0  0  0
  -17.6465  -30.6596   24.0569 C   0  0  0  0  0  0
  -25.9047  -34.9448   23.5104 C   0  0  0  0  0  0
  -16.5355  -29.9100   23.6327 C   0  0  0  0  0  0
  -16.7280  -28.6513   23.0350 C   0  0  0  0  0  0
  -26.4485  -31.6584   25.0712 C   0  0  0  0  0  0
  -25.3717  -31.3728   26.1440 C   0  0  0  0  0  0
  -27.0331  -30.3011   24.6169 C   0  0  0  0  0  0
  -27.6050  -32.4322   25.7478 C   0  0  0  0  0  0
  -27.5581  -37.1801   24.8467 C   0  0  0  0  0  0
  -21.4193  -29.3049   22.3664 N   0  0  0  0  0  0
  -26.4293  -37.3775   23.9407 N   0  0  0  0  0  0
  -24.6905  -31.0578   22.0934 N   0  0  0  0  0  0
  -23.4191  -28.8161   23.3015 O   0  0  0  0  0  0
  -28.3563  -26.4659   20.0969 O   0  0  0  0  0  0
  -26.5624  -34.8919   22.4678 O   0  0  0  0  0  0
  -23.5428  -32.1367   23.7300 O   0  0  0  0  0  0
  -29.3098  -25.2756   21.9046 C   0  0  0  0  0  0
  -29.3090  -18.4568   20.2588 C   0  0  0  0  0  0
  -29.5846  -19.9766   20.7327 C   0  0  0  0  0  0
  -30.2578  -17.2767   20.8153 C   0  0  0  0  0  0
  -28.8568  -21.2254   20.0222 C   0  0  0  0  0  0
  -28.5971  -23.7855   19.9281 C   0  0  0  0  0  0
  -28.2968  -25.1354   20.7599 C   0  0  2  0  0  0
  -29.8417  -15.8204   20.6712 N   0  0  0  0  0  0
  -28.9352  -22.5500   20.6825 O   0  0  0  0  0  0
  -31.4677  -12.5547   19.1437 H   0  0  0  0  0  0
  -30.3682  -11.4471   19.9218 H   0  0  0  0  0  0
  -29.7723  -11.7448   17.4899 H   0  0  0  0  0  0
  -29.6275  -13.4695   17.7235 H   0  0  0  0  0  0
  -27.8738  -11.2836   18.8874 H   0  0  0  0  0  0
  -27.3655  -12.5430   17.7937 H   0  0  0  0  0  0
  -27.6394  -14.2524   19.4792 H   0  0  0  0  0  0
  -28.7177  -12.1370   21.4087 H   0  0  0  0  0  0
  -28.4356  -13.8152   21.7978 H   0  0  0  0  0  0
  -25.2741   -9.5702   22.4765 H   0  0  0  0  0  0
  -24.0003   -7.4634   22.7461 H   0  0  0  0  0  0
  -21.0834   -8.8738   19.8956 H   0  0  0  0  0  0
  -22.3644  -10.9658   19.6169 H   0  0  0  0  0  0
  -21.1994   -7.6140   23.9704 H   0  0  0  0  0  0
  -21.1508   -6.0523   25.9079 H   0  0  0  0  0  0
  -22.0591   -2.7601   23.2832 H   0  0  0  0  0  0
  -22.4058  -11.9885   22.4843 H   0  0  0  0  0  0
  -21.1076  -13.1255   22.2614 H   0  0  0  0  0  0
  -24.6482  -15.8426   20.5228 H   0  0  0  0  0  0
  -26.2620  -15.6351   20.0698 H   0  0  0  0  0  0
  -26.7177  -32.5440   23.1082 H   0  0  0  0  0  0
  -25.0023  -33.9708   25.0393 H   0  0  0  0  0  0
  -22.7190  -31.2978   21.3908 H   0  0  0  0  0  0
  -23.3743  -35.9634   23.3310 H   0  0  0  0  0  0
  -24.3578  -36.8912   22.2056 H   0  0  0  0  0  0
  -23.7249  -37.6503   23.6660 H   0  0  0  0  0  0
  -26.0914  -31.5450   20.5967 H   0  0  0  0  0  0
  -26.8444  -30.8401   21.9976 H   0  0  0  0  0  0
  -28.1311  -28.9893   21.1687 H   0  0  0  0  0  0
  -26.0153  -25.8878   19.0539 H   0  0  0  0  0  0
  -23.9794  -27.2734   19.0383 H   0  0  0  0  0  0
  -23.7669  -30.5776   19.3986 H   0  0  0  0  0  0
  -22.7628  -29.2360   19.8546 H   0  0  0  0  0  0
  -25.1295  -36.1930   25.0827 H   0  0  0  0  0  0
  -20.9992  -28.3278   24.1396 H   0  0  0  0  0  0
  -20.5683  -26.2313   23.3610 H   0  0  0  0  0  0
  -21.6646  -26.7450   22.1199 H   0  0  0  0  0  0
  -19.6911  -25.6304   21.1249 H   0  0  0  0  0  0
  -19.6692  -27.3201   20.6742 H   0  0  0  0  0  0
  -17.4203  -26.6691   21.4031 H   0  0  0  0  0  0
  -18.0332  -26.0083   22.9027 H   0  0  0  0  0  0
  -19.7941  -30.7278   24.2276 H   0  0  0  0  0  0
  -17.5021  -31.6276   24.5172 H   0  0  0  0  0  0
  -15.5357  -30.3003   23.7647 H   0  0  0  0  0  0
  -15.8680  -28.0837   22.7056 H   0  0  0  0  0  0
  -24.5870  -30.7111   25.7759 H   0  0  0  0  0  0
  -24.8932  -32.2901   26.4889 H   0  0  0  0  0  0
  -25.8030  -30.8872   27.0204 H   0  0  0  0  0  0
  -26.2909  -29.6756   24.1199 H   0  0  0  0  0  0
  -27.4039  -29.7276   25.4676 H   0  0  0  0  0  0
  -27.8773  -30.4306   23.9389 H   0  0  0  0  0  0
  -27.2663  -33.3621   26.2063 H   0  0  0  0  0  0
  -28.3848  -32.6888   25.0292 H   0  0  0  0  0  0
  -28.0731  -31.8440   26.5382 H   0  0  0  0  0  0
  -28.2599  -38.0098   24.7499 H   0  0  0  0  0  0
  -28.1072  -36.2624   24.6302 H   0  0  0  0  0  0
  -27.2298  -37.1469   25.8871 H   0  0  0  0  0  0
  -20.9370  -29.8768   21.6873 H   0  0  0  0  0  0
  -26.0173  -38.2850   24.1396 H   0  0  0  0  0  0
  -29.2966  -24.4013   22.5555 H   0  0  0  0  0  0
  -29.0899  -26.1478   22.5220 H   0  0  0  0  0  0
  -30.3223  -25.3902   21.5166 H   0  0  0  0  0  0
  -29.3432  -18.4277   19.1693 H   0  0  0  0  0  0
  -28.2760  -18.2200   20.5146 H   0  0  0  0  0  0
  -30.6582  -20.1585   20.6802 H   0  0  0  0  0  0
  -29.3424  -20.0255   21.7935 H   0  0  0  0  0  0
  -30.4016  -17.4417   21.8839 H   0  0  0  0  0  0
  -31.2491  -17.4030   20.3766 H   0  0  0  0  0  0
  -27.7985  -20.9899   19.9028 H   0  0  0  0  0  0
  -29.2553  -21.3213   19.0115 H   0  0  0  0  0  0
  -29.4335  -23.9733   19.2542 H   0  0  0  0  0  0
  -27.7382  -23.5823   19.2873 H   0  0  0  0  0  0
  -27.3144  -25.0167   21.2201 H   0  0  0  0  0  0
  -28.8626  -15.6287   20.8223 H   0  0  0  0  0  0
  1 25  1  0  0  0
  1 30  2  0  0  0
  1 78  1  0  0  0
  2  3  1  0  0  0
  2 25  1  0  0  0
  2 80  1  0  0  0
  2 81  1  0  0  0
  3  4  1  0  0  0
  3 82  1  0  0  0
  3 83  1  0  0  0
  4  5  1  0  0  0
  4 84  1  0  0  0
  4 85  1  0  0  0
  5  6  1  0  0  0
  5 26  1  0  0  0
  5 86  1  0  0  0
  6 25  1  0  0  0
  6 87  1  0  0  0
  6 88  1  0  0  0
  7  8  2  0  0  0
  7 26  1  0  0  0
  7 29  1  0  0  0
  8  9  1  0  0  0
  8 22  1  0  0  0
  9 10  1  0  0  0
  9 27  2  0  0  0
 10 11  2  0  0  0
 10 15  1  0  0  0
 11 12  1  0  0  0
 11 89  1  0  0  0
 12 13  2  0  0  0
 12 90  1  0  0  0
 13 14  1  0  0  0
 13 31  1  0  0  0
 14 15  2  0  0  0
 14 91  1  0  0  0
 15 92  1  0  0  0
 16 17  2  0  0  0
 16 21  1  0  0  0
 16 31  1  0  0  0
 17 18  1  0  0  0
 17 93  1  0  0  0
 18 19  2  0  0  0
 18 94  1  0  0  0
 19 20  1  0  0  0
 19 24  1  0  0  0
 20 21  2  0  0  0
 20 95  1  0  0  0
 21 23  1  0  0  0
 22 28  1  0  0  0
 22 32  2  0  0  0
 26 27  1  0  0  0
 28 96  1  0  0  0
 28 97  1  0  0  0
 29 98  1  0  0  0
 29 99  1  0  0  0
 33 34  1  0  0  0
 33 66  1  0  0  0
 33 70  2  0  0  0
 34 36  1  0  0  0
 34 59  1  0  0  0
 34100  1  0  0  0
 35 44  2  0  0  0
 35 45  1  0  0  0
 35 68  1  0  0  0
 36 56  1  0  0  0
 36101  1  0  0  0
 37 39  1  0  0  0
 37 47  1  0  0  0
 37 66  1  0  0  0
 37102  1  0  0  0
 38 43  2  0  0  0
 38 46  1  0  0  0
 38 47  1  0  0  0
 39 64  1  0  0  0
 39 67  2  0  0  0
 40 52  1  0  0  0
 40 53  2  0  0  0
 40 58  1  0  0  0
 41103  1  0  0  0
 41104  1  0  0  0
 41105  1  0  0  0
 41 48  1  0  0  0
 42 43  1  0  0  0
 42 66  1  0  0  0
 42106  1  0  0  0
 42107  1  0  0  0
 43 44  1  0  0  0
 44108  1  0  0  0
 45 46  2  0  0  0
 45109  1  0  0  0
 46110  1  0  0  0
 47111  1  0  0  0
 47112  1  0  0  0
 48 56  1  0  0  0
 48 65  1  0  0  0
 48113  1  0  0  0
 49 50  1  0  0  0
 49 53  1  0  0  0
 49 64  1  0  0  0
 49114  1  0  0  0
 50 51  1  0  0  0
 50115  1  0  0  0
 50116  1  0  0  0
 51 52  1  0  0  0
 51117  1  0  0  0
 51118  1  0  0  0
 52119  1  0  0  0
 52120  1  0  0  0
 53 54  1  0  0  0
 54 55  2  0  0  0
 54121  1  0  0  0
 55 57  1  0  0  0
 55122  1  0  0  0
 56 69  2  0  0  0
 57 58  2  0  0  0
 57123  1  0  0  0
 58124  1  0  0  0
 59 60  1  0  0  0
 59 61  1  0  0  0
 59 62  1  0  0  0
 60125  1  0  0  0
 60126  1  0  0  0
 60127  1  0  0  0
 61128  1  0  0  0
 61129  1  0  0  0
 61130  1  0  0  0
 62131  1  0  0  0
 62132  1  0  0  0
 62133  1  0  0  0
 63 65  1  0  0  0
 63134  1  0  0  0
 63135  1  0  0  0
 63136  1  0  0  0
 64137  1  0  0  0
 65138  1  0  0  0
 68 77  1  0  0  0
 71139  1  0  0  0
 71140  1  0  0  0
 71141  1  0  0  0
 71 77  1  0  0  0
 72 73  1  0  0  0
 72 74  1  0  0  0
 72142  1  0  0  0
 72143  1  0  0  0
 73 75  1  0  0  0
 73144  1  0  0  0
 73145  1  0  0  0
 74 78  1  0  0  0
 74146  1  0  0  0
 74147  1  0  0  0
 75 79  1  0  0  0
 75148  1  0  0  0
 75149  1  0  0  0
 76 77  1  0  0  0
 76 79  1  0  0  0
 76150  1  0  0  0
 76151  1  0  0  0
 77152  1  0  0  0
 78153  1  0  0  0
M  ISO  4   1 100  68 101  77 101  78 100
M  END
> <chiral flag>
0

> <version>
0

> <s_m_source_file>
/data/baiqing/PycharmProjects/Reinvent-master-3.2/result/LINK_invent/BTK/process_docking_weight1_custom_sum_contain_oxygen_bond_distance_aromatic_linkinvent_7_9_3/rearranged_h_0013.sdf

> <i_m_source_file_index>
1

> <r_mmod_Potential_Energy-OPLS-2005>
88.8650131225586

> <r_mmod_Stretch_Energy-OPLS-2005>
104.47477722168

> <r_mmod_Bend_Energy-OPLS-2005>
152.727584838867

> <r_mmod_Torsional_Energy-OPLS-2005>
228.678787231445

> <r_mmod_Improper_Torsional_Energy-OPLS-2005>
4.36369228363037

> <r_mmod_Van_der_Waal_Energy-OPLS-2005>
113.863960266113

> <r_mmod_Electrostatic_Energy-OPLS-2005>
-369.760284423828

> <r_mmod_Solvation_Energy-OPLS-2005>
-207.992477416992

> <b_mmod_Minimization_Converged-OPLS-2005>
0

> <r_mmod_RMS_Derivative-OPLS-2005>
1.66114497184753

$$$$
1
                    3D
 Structure written by MMmdl.
152160  0  0  1  0            999 V2000
  -30.5110  -15.0068   20.4070 C   0  0  0  0  0  0
  -30.4372  -12.6283   19.4931 C   0  0  0  0  0  0
  -29.5177  -12.5296   18.2546 C   0  0  0  0  0  0
  -28.0537  -12.3045   18.6776 C   0  0  0  0  0  0
  -27.6194  -13.2504   19.8281 C   0  0  2  0  0  0
  -28.6617  -13.3092   20.9625 C   0  0  0  0  0  0
  -25.2420  -13.8222   20.5706 C   0  0  0  0  0  0
  -24.1751  -13.0444   20.9242 C   0  0  0  0  0  0
  -24.6377  -11.6930   20.8761 C   0  0  0  0  0  0
  -23.9065  -10.4295   21.0418 C   0  0  0  0  0  0
  -24.3623   -9.4211   21.9191 C   0  0  0  0  0  0
  -23.6299   -8.2239   22.0754 C   0  0  0  0  0  0
  -22.4278   -8.0276   21.3545 C   0  0  0  0  0  0
  -21.9918   -9.0250   20.4645 C   0  0  0  0  0  0
  -22.7244  -10.2132   20.3060 C   0  0  0  0  0  0
  -21.6854   -6.0738   22.5282 C   0  0  0  0  0  0
  -21.4009   -6.5638   23.8214 C   0  0  0  0  0  0
  -21.3661   -5.6791   24.9176 C   0  0  0  0  0  0
  -21.6044   -4.3054   24.7225 C   0  0  0  0  0  0
  -21.8820   -3.8151   23.4346 C   0  0  0  0  0  0
  -21.9187   -4.6966   22.3402 C   0  0  0  0  0  0
  -22.7773  -13.5210   21.1903 C   0  0  0  0  0  0
  -22.1661   -4.2150   21.0980 F   0  0  0  0  0  0
  -21.5630   -3.4538   25.7739 F   0  0  0  0  0  0
  -29.9241  -13.7397   20.3489 N   0  0  0  0  0  0
  -26.2830  -12.9451   20.3207 N   0  0  0  0  0  0
  -25.9297  -11.6583   20.5728 N   0  0  0  0  0  0
  -22.0422  -12.8179   22.0457 N   0  0  0  0  0  0
  -25.4069  -15.1951   20.4126 N   0  0  0  0  0  0
  -31.7297  -15.0450   20.1982 O   0  0  0  0  0  0
  -21.6637   -6.8883   21.4246 O   0  0  0  0  0  0
  -22.3446  -14.5510   20.6752 O   0  0  0  0  0  0
  -24.6491  -31.8375   23.1838 C   0  0  0  0  0  0
  -25.9243  -32.4656   23.8241 C   0  0  1  0  0  0
  -27.2114  -27.0813   20.1582 C   0  0  0  0  0  0
  -25.5974  -33.8464   24.2156 N   0  0  0  0  0  0
  -23.4559  -30.4558   21.5293 C   0  0  2  0  0  0
  -24.9052  -28.8738   20.1086 C   0  0  0  0  0  0
  -22.7596  -29.4514   22.4821 C   0  0  0  0  0  0
  -18.0311  -28.1422   22.8454 C   0  0  0  0  0  0
  -24.1500  -36.7240   23.2640 C   0  0  0  0  0  0
  -26.0171  -30.6932   21.3912 C   0  0  0  0  0  0
  -26.0846  -29.3010   20.7302 C   0  0  0  0  0  0
  -27.2382  -28.4213   20.7363 C   0  0  0  0  0  0
  -26.0054  -26.7672   19.4952 C   0  0  0  0  0  0
  -24.8799  -27.6225   19.4738 C   0  0  0  0  0  0
  -23.6856  -29.7839   20.1488 C   0  0  0  0  0  0
  -25.4135  -36.3008   24.0305 C   0  0  1  0  0  0
  -20.5924  -28.3741   23.1215 C   0  0  2  0  0  0
  -20.6803  -26.9440   22.5405 C   0  0  0  0  0  0
  -19.5786  -26.6392   21.5212 C   0  0  0  0  0  0
  -18.1956  -26.7951   22.1612 C   0  0  0  0  0  0
  -19.1567  -28.8902   23.2817 C   0  0  0  0  0  0
  -18.9488  -30.1488   23.8857 C   0  0  0  0  0  0
  -17.6484  -30.6602   24.0562 C   0  0  0  0  0  0
  -25.9087  -34.9384   23.5037 C   0  0  0  0  0  0
  -16.5372  -29.9098   23.6352 C   0  0  0  0  0  0
  -16.7292  -28.6530   23.0344 C   0  0  0  0  0  0
  -26.4546  -31.6552   25.0710 C   0  0  0  0  0  0
  -25.3714  -31.3757   26.1391 C   0  0  0  0  0  0
  -27.0424  -30.2939   24.6347 C   0  0  0  0  0  0
  -27.6071  -32.4327   25.7497 C   0  0  0  0  0  0
  -27.5576  -37.1773   24.8462 C   0  0  0  0  0  0
  -21.4282  -29.3043   22.3573 N   0  0  0  0  0  0
  -26.4293  -37.3731   23.9399 N   0  0  0  0  0  0
  -24.7277  -31.0179   22.0899 N   0  0  0  0  0  0
  -23.4204  -28.8055   23.2996 O   0  0  0  0  0  0
  -28.2462  -26.0640   20.2364 O   0  0  0  0  0  0
  -26.5676  -34.8895   22.4618 O   0  0  0  0  0  0
  -23.5592  -32.1283   23.7025 O   0  0  0  0  0  0
  -31.2447  -18.0449   21.2018 C   0  0  0  0  0  0
  -31.6317  -19.3699   21.4913 C   0  0  0  0  0  0
  -30.0151  -17.7255   20.6034 C   0  0  0  0  0  0
  -29.5413  -20.3905   20.5642 C   0  0  0  0  0  0
  -30.8190  -20.5023   21.2010 C   0  0  0  0  0  0
  -29.1820  -18.9443   20.2960 C   0  0  0  0  0  0
  -32.9869  -19.5696   22.1528 C   0  0  0  0  0  0
  -28.9989  -23.1952   20.4556 C   0  0  0  0  0  0
  -27.9809  -24.5148   20.0505 C   0  0  0  0  0  0
  -29.7161  -16.2079   20.4327 N   0  0  0  0  0  0
  -28.7298  -21.6367   20.2484 N   0  0  0  0  0  0
  -31.4727  -22.0353   21.6828 Cl  0  0  0  0  0  0
  -27.6530  -18.6494   19.5463 Cl  0  0  0  0  0  0
  -31.4669  -12.8005   19.1751 H   0  0  0  0  0  0
  -30.4486  -11.6884   20.0478 H   0  0  0  0  0  0
  -29.8477  -11.7235   17.5978 H   0  0  0  0  0  0
  -29.5891  -13.4503   17.6737 H   0  0  0  0  0  0
  -27.9600  -11.2667   19.0009 H   0  0  0  0  0  0
  -27.3878  -12.4151   17.8206 H   0  0  0  0  0  0
  -27.5714  -14.2441   19.3820 H   0  0  0  0  0  0
  -28.7655  -12.3402   21.4526 H   0  0  0  0  0  0
  -28.3513  -14.0173   21.7335 H   0  0  0  0  0  0
  -25.2771   -9.5675   22.4767 H   0  0  0  0  0  0
  -24.0002   -7.4626   22.7470 H   0  0  0  0  0  0
  -21.0851   -8.8776   19.8947 H   0  0  0  0  0  0
  -22.3714  -10.9670   19.6165 H   0  0  0  0  0  0
  -21.2003   -7.6145   23.9718 H   0  0  0  0  0  0
  -21.1484   -6.0520   25.9077 H   0  0  0  0  0  0
  -22.0597   -2.7609   23.2845 H   0  0  0  0  0  0
  -22.4050  -11.9842   22.4837 H   0  0  0  0  0  0
  -21.1042  -13.1189   22.2679 H   0  0  0  0  0  0
  -24.6357  -15.8431   20.5289 H   0  0  0  0  0  0
  -26.2405  -15.6404   20.0540 H   0  0  0  0  0  0
  -26.7303  -32.5234   23.0954 H   0  0  0  0  0  0
  -25.0110  -33.9577   25.0291 H   0  0  0  0  0  0
  -22.7630  -31.2840   21.3694 H   0  0  0  0  0  0
  -23.3771  -35.9563   23.3292 H   0  0  0  0  0  0
  -24.3578  -36.8892   22.2058 H   0  0  0  0  0  0
  -23.7257  -37.6427   23.6697 H   0  0  0  0  0  0
  -26.1824  -31.4471   20.6195 H   0  0  0  0  0  0
  -26.8834  -30.7396   22.0410 H   0  0  0  0  0  0
  -28.1337  -28.7412   21.2505 H   0  0  0  0  0  0
  -25.8971  -25.8084   19.0101 H   0  0  0  0  0  0
  -23.9793  -27.2909   18.9758 H   0  0  0  0  0  0
  -23.8322  -30.5582   19.3943 H   0  0  0  0  0  0
  -22.7995  -29.2302   19.8329 H   0  0  0  0  0  0
  -25.1326  -36.1825   25.0799 H   0  0  0  0  0  0
  -21.0003  -28.3353   24.1338 H   0  0  0  0  0  0
  -20.5727  -26.2351   23.3621 H   0  0  0  0  0  0
  -21.6663  -26.7462   22.1183 H   0  0  0  0  0  0
  -19.6958  -25.6295   21.1264 H   0  0  0  0  0  0
  -19.6745  -27.3183   20.6727 H   0  0  0  0  0  0
  -17.4226  -26.6678   21.4011 H   0  0  0  0  0  0
  -18.0352  -26.0116   22.9038 H   0  0  0  0  0  0
  -19.7962  -30.7305   24.2216 H   0  0  0  0  0  0
  -17.5042  -31.6280   24.5165 H   0  0  0  0  0  0
  -15.5370  -30.2984   23.7715 H   0  0  0  0  0  0
  -15.8690  -28.0844   22.7070 H   0  0  0  0  0  0
  -24.5899  -30.7110   25.7693 H   0  0  0  0  0  0
  -24.8905  -32.2946   26.4754 H   0  0  0  0  0  0
  -25.7974  -30.8957   27.0211 H   0  0  0  0  0  0
  -26.3059  -29.6637   24.1359 H   0  0  0  0  0  0
  -27.4009  -29.7269   25.4948 H   0  0  0  0  0  0
  -27.8977  -30.4151   23.9699 H   0  0  0  0  0  0
  -27.2672  -33.3664   26.1991 H   0  0  0  0  0  0
  -28.3928  -32.6828   25.0353 H   0  0  0  0  0  0
  -28.0695  -31.8511   26.5484 H   0  0  0  0  0  0
  -28.2571  -38.0089   24.7506 H   0  0  0  0  0  0
  -28.1094  -36.2612   24.6295 H   0  0  0  0  0  0
  -27.2282  -37.1418   25.8862 H   0  0  0  0  0  0
  -20.9518  -29.8736   21.6717 H   0  0  0  0  0  0
  -26.0153  -38.2790   24.1422 H   0  0  0  0  0  0
  -31.9152  -17.2450   21.4795 H   0  0  0  0  0  0
  -33.5253  -18.6296   22.2706 H   0  0  0  0  0  0
  -32.8680  -20.0103   23.1432 H   0  0  0  0  0  0
  -33.6094  -20.2318   21.5499 H   0  0  0  0  0  0
  -29.1949  -23.3193   21.5203 H   0  0  0  0  0  0
  -29.9462  -23.3998   19.9558 H   0  0  0  0  0  0
  -27.0369  -24.3246   20.5615 H   0  0  0  0  0  0
  -27.7556  -24.3956   18.9905 H   0  0  0  0  0  0
  -28.7318  -16.0067   20.3497 H   0  0  0  0  0  0
  -27.8346  -21.4318   19.8145 H   0  0  0  0  0  0
  1 25  1  0  0  0
  1 30  2  0  0  0
  1 80  1  0  0  0
  2  3  1  0  0  0
  2 25  1  0  0  0
  2 84  1  0  0  0
  2 85  1  0  0  0
  3  4  1  0  0  0
  3 86  1  0  0  0
  3 87  1  0  0  0
  4  5  1  0  0  0
  4 88  1  0  0  0
  4 89  1  0  0  0
  5  6  1  0  0  0
  5 26  1  0  0  0
  5 90  1  0  0  0
  6 25  1  0  0  0
  6 91  1  0  0  0
  6 92  1  0  0  0
  7  8  2  0  0  0
  7 26  1  0  0  0
  7 29  1  0  0  0
  8  9  1  0  0  0
  8 22  1  0  0  0
  9 10  1  0  0  0
  9 27  2  0  0  0
 10 11  2  0  0  0
 10 15  1  0  0  0
 11 12  1  0  0  0
 11 93  1  0  0  0
 12 13  2  0  0  0
 12 94  1  0  0  0
 13 14  1  0  0  0
 13 31  1  0  0  0
 14 15  2  0  0  0
 14 95  1  0  0  0
 15 96  1  0  0  0
 16 17  2  0  0  0
 16 21  1  0  0  0
 16 31  1  0  0  0
 17 18  1  0  0  0
 17 97  1  0  0  0
 18 19  2  0  0  0
 18 98  1  0  0  0
 19 20  1  0  0  0
 19 24  1  0  0  0
 20 21  2  0  0  0
 20 99  1  0  0  0
 21 23  1  0  0  0
 22 28  1  0  0  0
 22 32  2  0  0  0
 26 27  1  0  0  0
 28100  1  0  0  0
 28101  1  0  0  0
 29102  1  0  0  0
 29103  1  0  0  0
 33 34  1  0  0  0
 33 66  1  0  0  0
 33 70  2  0  0  0
 34 36  1  0  0  0
 34 59  1  0  0  0
 34104  1  0  0  0
 35 44  2  0  0  0
 35 45  1  0  0  0
 35 68  1  0  0  0
 36 56  1  0  0  0
 36105  1  0  0  0
 37 39  1  0  0  0
 37 47  1  0  0  0
 37 66  1  0  0  0
 37106  1  0  0  0
 38 43  2  0  0  0
 38 46  1  0  0  0
 38 47  1  0  0  0
 39 64  1  0  0  0
 39 67  2  0  0  0
 40 52  1  0  0  0
 40 53  2  0  0  0
 40 58  1  0  0  0
 41107  1  0  0  0
 41108  1  0  0  0
 41109  1  0  0  0
 41 48  1  0  0  0
 42 43  1  0  0  0
 42 66  1  0  0  0
 42110  1  0  0  0
 42111  1  0  0  0
 43 44  1  0  0  0
 44112  1  0  0  0
 45 46  2  0  0  0
 45113  1  0  0  0
 46114  1  0  0  0
 47115  1  0  0  0
 47116  1  0  0  0
 48 56  1  0  0  0
 48 65  1  0  0  0
 48117  1  0  0  0
 49 50  1  0  0  0
 49 53  1  0  0  0
 49 64  1  0  0  0
 49118  1  0  0  0
 50 51  1  0  0  0
 50119  1  0  0  0
 50120  1  0  0  0
 51 52  1  0  0  0
 51121  1  0  0  0
 51122  1  0  0  0
 52123  1  0  0  0
 52124  1  0  0  0
 53 54  1  0  0  0
 54 55  2  0  0  0
 54125  1  0  0  0
 55 57  1  0  0  0
 55126  1  0  0  0
 56 69  2  0  0  0
 57 58  2  0  0  0
 57127  1  0  0  0
 58128  1  0  0  0
 59 60  1  0  0  0
 59 61  1  0  0  0
 59 62  1  0  0  0
 60129  1  0  0  0
 60130  1  0  0  0
 60131  1  0  0  0
 61132  1  0  0  0
 61133  1  0  0  0
 61134  1  0  0  0
 62135  1  0  0  0
 62136  1  0  0  0
 62137  1  0  0  0
 63 65  1  0  0  0
 63138  1  0  0  0
 63139  1  0  0  0
 63140  1  0  0  0
 64141  1  0  0  0
 65142  1  0  0  0
 68 79  1  0  0  0
 71 72  2  0  0  0
 71 73  1  0  0  0
 71143  1  0  0  0
 72 75  1  0  0  0
 72 77  1  0  0  0
 73 76  2  0  0  0
 73 80  1  0  0  0
 74 75  2  0  0  0
 74 76  1  0  0  0
 74 81  1  0  0  0
 75 82  1  0  0  0
 76 83  1  0  0  0
 77144  1  0  0  0
 77145  1  0  0  0
 77146  1  0  0  0
 78 79  1  0  0  0
 78 81  1  0  0  0
 78147  1  0  0  0
 78148  1  0  0  0
 79149  1  0  0  0
 79150  1  0  0  0
 80151  1  0  0  0
 81152  1  0  0  0
M  ISO  4   1 100  68 101  79 101  80 100
M  END
> <chiral flag>
0

> <version>
0

> <s_m_source_file>
/data/baiqing/PycharmProjects/Reinvent-master-3.2/result/LINK_invent/BTK/process_docking_weight1_custom_sum_contain_oxygen_bond_distance_aromatic_linkinvent_7_9_3/rearranged_h_0013.sdf

> <i_m_source_file_index>
2

> <r_mmod_Potential_Energy-OPLS-2005>
683.684387207031

> <r_mmod_Stretch_Energy-OPLS-2005>
325.239562988281

> <r_mmod_Bend_Energy-OPLS-2005>
282.5732421875

> <r_mmod_Torsional_Energy-OPLS-2005>
206.250625610352

> <r_mmod_Improper_Torsional_Energy-OPLS-2005>
6.11711263656616

> <r_mmod_Van_der_Waal_Energy-OPLS-2005>
143.1796875

> <r_mmod_Electrostatic_Energy-OPLS-2005>
-309.890899658203

> <r_mmod_Solvation_Energy-OPLS-2005>
-212.676574707031

> <b_mmod_Minimization_Converged-OPLS-2005>
0

> <r_mmod_RMS_Derivative-OPLS-2005>
2.04973578453064

$$$$
2
                    3D
 Structure written by MMmdl.
154162  0  0  1  0            999 V2000
  -30.5382  -14.9483   20.4897 C   0  0  0  0  0  0
  -30.4432  -12.6005   19.4958 C   0  0  0  0  0  0
  -29.5221  -12.5504   18.2538 C   0  0  0  0  0  0
  -28.0542  -12.3297   18.6642 C   0  0  0  0  0  0
  -27.6336  -13.2441   19.8430 C   0  0  2  0  0  0
  -28.6725  -13.2286   20.9806 C   0  0  0  0  0  0
  -25.2487  -13.8211   20.5703 C   0  0  0  0  0  0
  -24.1787  -13.0438   20.9195 C   0  0  0  0  0  0
  -24.6394  -11.6921   20.8727 C   0  0  0  0  0  0
  -23.9077  -10.4293   21.0397 C   0  0  0  0  0  0
  -24.3629   -9.4211   21.9176 C   0  0  0  0  0  0
  -23.6301   -8.2247   22.0750 C   0  0  0  0  0  0
  -22.4284   -8.0281   21.3541 C   0  0  0  0  0  0
  -21.9919   -9.0252   20.4643 C   0  0  0  0  0  0
  -22.7246  -10.2132   20.3048 C   0  0  0  0  0  0
  -21.6856   -6.0737   22.5279 C   0  0  0  0  0  0
  -21.4016   -6.5641   23.8212 C   0  0  0  0  0  0
  -21.3662   -5.6793   24.9174 C   0  0  0  0  0  0
  -21.6046   -4.3055   24.7223 C   0  0  0  0  0  0
  -21.8821   -3.8147   23.4344 C   0  0  0  0  0  0
  -21.9196   -4.6965   22.3402 C   0  0  0  0  0  0
  -22.7813  -13.5214   21.1865 C   0  0  0  0  0  0
  -22.1663   -4.2150   21.0980 F   0  0  0  0  0  0
  -21.5629   -3.4539   25.7736 F   0  0  0  0  0  0
  -29.9507  -13.6788   20.4060 N   0  0  0  0  0  0
  -26.2900  -12.9428   20.3235 N   0  0  0  0  0  0
  -25.9325  -11.6561   20.5710 N   0  0  0  0  0  0
  -22.0472  -12.8194   22.0428 N   0  0  0  0  0  0
  -25.4202  -15.1938   20.4181 N   0  0  0  0  0  0
  -31.6872  -15.0576   20.0456 O   0  0  0  0  0  0
  -21.6644   -6.8880   21.4240 O   0  0  0  0  0  0
  -22.3494  -14.5521   20.6722 O   0  0  0  0  0  0
  -24.6450  -31.8420   23.1872 C   0  0  0  0  0  0
  -25.9214  -32.4684   23.8269 C   0  0  1  0  0  0
  -27.2189  -27.1230   20.1485 C   0  0  0  0  0  0
  -25.5953  -33.8494   24.2180 N   0  0  0  0  0  0
  -23.4492  -30.4604   21.5335 C   0  0  2  0  0  0
  -24.8993  -28.8852   20.1090 C   0  0  0  0  0  0
  -22.7573  -29.4532   22.4861 C   0  0  0  0  0  0
  -18.0302  -28.1395   22.8476 C   0  0  0  0  0  0
  -24.1490  -36.7252   23.2644 C   0  0  0  0  0  0
  -26.0062  -30.7107   21.3888 C   0  0  0  0  0  0
  -26.0769  -29.3209   20.7294 C   0  0  0  0  0  0
  -27.2364  -28.4553   20.7332 C   0  0  0  0  0  0
  -26.0172  -26.7956   19.4819 C   0  0  0  0  0  0
  -24.8832  -27.6367   19.4698 C   0  0  0  0  0  0
  -23.6759  -29.7885   20.1533 C   0  0  0  0  0  0
  -25.4123  -36.3029   24.0315 C   0  0  1  0  0  0
  -20.5915  -28.3720   23.1234 C   0  0  2  0  0  0
  -20.6783  -26.9421   22.5406 C   0  0  0  0  0  0
  -19.5757  -26.6378   21.5213 C   0  0  0  0  0  0
  -18.1939  -26.7933   22.1624 C   0  0  0  0  0  0
  -19.1558  -28.8877   23.2847 C   0  0  0  0  0  0
  -18.9476  -30.1474   23.8870 C   0  0  0  0  0  0
  -17.6472  -30.6591   24.0558 C   0  0  0  0  0  0
  -25.9077  -34.9404   23.5058 C   0  0  0  0  0  0
  -16.5363  -29.9081   23.6340 C   0  0  0  0  0  0
  -16.7287  -28.6502   23.0358 C   0  0  0  0  0  0
  -26.4528  -31.6564   25.0722 C   0  0  0  0  0  0
  -25.3707  -31.3758   26.1413 C   0  0  0  0  0  0
  -27.0400  -30.2957   24.6323 C   0  0  0  0  0  0
  -27.6052  -32.4339   25.7511 C   0  0  0  0  0  0
  -27.5574  -37.1784   24.8466 C   0  0  0  0  0  0
  -21.4262  -29.3044   22.3606 N   0  0  0  0  0  0
  -26.4285  -37.3743   23.9407 N   0  0  0  0  0  0
  -24.7199  -31.0259   22.0915 N   0  0  0  0  0  0
  -23.4206  -28.8083   23.3023 O   0  0  0  0  0  0
  -28.2662  -26.1278   20.2326 O   0  0  0  0  0  0
  -26.5669  -34.8903   22.4641 O   0  0  0  0  0  0
  -23.5565  -32.1306   23.7084 O   0  0  0  0  0  0
  -29.3270  -18.9698   20.1056 C   0  0  0  0  0  0
  -30.4258  -17.1866   23.1432 C   0  0  0  0  0  0
  -31.0029  -18.0152   21.9972 C   0  0  0  0  0  0
  -29.8601  -15.9068   22.4761 C   0  0  0  0  0  0
  -29.9891  -17.6781   20.9193 C   0  0  2  0  0  0
  -28.9311  -23.2509   20.4392 C   0  0  0  0  0  0
  -28.6282  -21.6429   19.9832 C   0  0  0  0  0  0
  -28.0145  -24.6036   19.9743 C   0  0  0  0  0  0
  -29.8162  -16.0840   20.9837 N   0  0  0  0  0  0
  -29.3403  -20.3335   20.5352 N   0  0  0  0  0  0
  -28.7558  -18.7052   19.0472 O   0  0  0  0  0  0
  -31.4745  -12.7685   19.1822 H   0  0  0  0  0  0
  -30.4492  -11.6386   20.0106 H   0  0  0  0  0  0
  -29.8440  -11.7612   17.5731 H   0  0  0  0  0  0
  -29.6088  -13.4864   17.6996 H   0  0  0  0  0  0
  -27.9451  -11.2833   18.9521 H   0  0  0  0  0  0
  -27.3940  -12.4811   17.8092 H   0  0  0  0  0  0
  -27.6095  -14.2574   19.4404 H   0  0  0  0  0  0
  -28.7659  -12.2311   21.4128 H   0  0  0  0  0  0
  -28.3385  -13.8719   21.7906 H   0  0  0  0  0  0
  -25.2776   -9.5688   22.4750 H   0  0  0  0  0  0
  -24.0010   -7.4642   22.7472 H   0  0  0  0  0  0
  -21.0850   -8.8769   19.8952 H   0  0  0  0  0  0
  -22.3701  -10.9668   19.6157 H   0  0  0  0  0  0
  -21.2006   -7.6149   23.9712 H   0  0  0  0  0  0
  -21.1483   -6.0524   25.9076 H   0  0  0  0  0  0
  -22.0600   -2.7608   23.2844 H   0  0  0  0  0  0
  -22.4102  -11.9860   22.4811 H   0  0  0  0  0  0
  -21.1088  -13.1201   22.2643 H   0  0  0  0  0  0
  -24.6618  -15.8553   20.5426 H   0  0  0  0  0  0
  -26.2849  -15.6320   20.1256 H   0  0  0  0  0  0
  -26.7279  -32.5283   23.0998 H   0  0  0  0  0  0
  -25.0064  -33.9605   25.0303 H   0  0  0  0  0  0
  -22.7534  -31.2876   21.3783 H   0  0  0  0  0  0
  -23.3757  -35.9578   23.3295 H   0  0  0  0  0  0
  -24.3572  -36.8897   22.2060 H   0  0  0  0  0  0
  -23.7241  -37.6442   23.6691 H   0  0  0  0  0  0
  -26.1643  -31.4648   20.6166 H   0  0  0  0  0  0
  -26.8755  -30.7603   22.0330 H   0  0  0  0  0  0
  -28.1316  -28.7821   21.2434 H   0  0  0  0  0  0
  -25.9196  -25.8437   18.9818 H   0  0  0  0  0  0
  -23.9853  -27.2994   18.9699 H   0  0  0  0  0  0
  -23.8122  -30.5625   19.3973 H   0  0  0  0  0  0
  -22.7903  -29.2308   19.8433 H   0  0  0  0  0  0
  -25.1313  -36.1853   25.0808 H   0  0  0  0  0  0
  -21.0007  -28.3309   24.1357 H   0  0  0  0  0  0
  -20.5670  -26.2335   23.3626 H   0  0  0  0  0  0
  -21.6648  -26.7421   22.1207 H   0  0  0  0  0  0
  -19.6916  -25.6283   21.1258 H   0  0  0  0  0  0
  -19.6693  -27.3175   20.6731 H   0  0  0  0  0  0
  -17.4207  -26.6678   21.4029 H   0  0  0  0  0  0
  -18.0338  -26.0080   22.9025 H   0  0  0  0  0  0
  -19.7951  -30.7298   24.2225 H   0  0  0  0  0  0
  -17.5024  -31.6270   24.5162 H   0  0  0  0  0  0
  -15.5361  -30.2974   23.7680 H   0  0  0  0  0  0
  -15.8687  -28.0812   22.7088 H   0  0  0  0  0  0
  -24.5894  -30.7099   25.7730 H   0  0  0  0  0  0
  -24.8889  -32.2939   26.4782 H   0  0  0  0  0  0
  -25.7984  -30.8967   27.0229 H   0  0  0  0  0  0
  -26.3025  -29.6674   24.1314 H   0  0  0  0  0  0
  -27.3981  -29.7266   25.4912 H   0  0  0  0  0  0
  -27.8946  -30.4185   23.9667 H   0  0  0  0  0  0
  -27.2637  -33.3658   26.2028 H   0  0  0  0  0  0
  -28.3893  -32.6868   25.0362 H   0  0  0  0  0  0
  -28.0687  -31.8507   26.5477 H   0  0  0  0  0  0
  -28.2585  -38.0085   24.7510 H   0  0  0  0  0  0
  -28.1074  -36.2614   24.6297 H   0  0  0  0  0  0
  -27.2290  -37.1436   25.8869 H   0  0  0  0  0  0
  -20.9477  -29.8755   21.6778 H   0  0  0  0  0  0
  -26.0149  -38.2810   24.1408 H   0  0  0  0  0  0
  -29.6282  -17.7347   23.6493 H   0  0  0  0  0  0
  -31.1817  -16.9596   23.8964 H   0  0  0  0  0  0
  -31.9974  -17.6713   21.7106 H   0  0  0  0  0  0
  -31.0629  -19.0748   22.2462 H   0  0  0  0  0  0
  -28.8432  -15.7519   22.8389 H   0  0  0  0  0  0
  -30.4311  -15.0491   22.8499 H   0  0  0  0  0  0
  -29.0311  -17.8079   21.4339 H   0  0  0  0  0  0
  -29.9582  -23.4610   20.1415 H   0  0  0  0  0  0
  -28.9546  -23.2648   21.5287 H   0  0  0  0  0  0
  -28.7253  -21.6010   18.8978 H   0  0  0  0  0  0
  -27.5659  -21.4744   20.1634 H   0  0  0  0  0  0
  -27.0197  -24.4019   20.3721 H   0  0  0  0  0  0
  -27.9039  -24.5239   18.8926 H   0  0  0  0  0  0
  -29.8470  -20.4785   21.3992 H   0  0  0  0  0  0
  1 25  1  0  0  0
  1 30  2  0  0  0
  1 79  1  0  0  0
  2  3  1  0  0  0
  2 25  1  0  0  0
  2 82  1  0  0  0
  2 83  1  0  0  0
  3  4  1  0  0  0
  3 84  1  0  0  0
  3 85  1  0  0  0
  4  5  1  0  0  0
  4 86  1  0  0  0
  4 87  1  0  0  0
  5  6  1  0  0  0
  5 26  1  0  0  0
  5 88  1  0  0  0
  6 25  1  0  0  0
  6 89  1  0  0  0
  6 90  1  0  0  0
  7  8  2  0  0  0
  7 26  1  0  0  0
  7 29  1  0  0  0
  8  9  1  0  0  0
  8 22  1  0  0  0
  9 10  1  0  0  0
  9 27  2  0  0  0
 10 11  2  0  0  0
 10 15  1  0  0  0
 11 12  1  0  0  0
 11 91  1  0  0  0
 12 13  2  0  0  0
 12 92  1  0  0  0
 13 14  1  0  0  0
 13 31  1  0  0  0
 14 15  2  0  0  0
 14 93  1  0  0  0
 15 94  1  0  0  0
 16 17  2  0  0  0
 16 21  1  0  0  0
 16 31  1  0  0  0
 17 18  1  0  0  0
 17 95  1  0  0  0
 18 19  2  0  0  0
 18 96  1  0  0  0
 19 20  1  0  0  0
 19 24  1  0  0  0
 20 21  2  0  0  0
 20 97  1  0  0  0
 21 23  1  0  0  0
 22 28  1  0  0  0
 22 32  2  0  0  0
 26 27  1  0  0  0
 28 98  1  0  0  0
 28 99  1  0  0  0
 29100  1  0  0  0
 29101  1  0  0  0
 33 34  1  0  0  0
 33 66  1  0  0  0
 33 70  2  0  0  0
 34 36  1  0  0  0
 34 59  1  0  0  0
 34102  1  0  0  0
 35 44  2  0  0  0
 35 45  1  0  0  0
 35 68  1  0  0  0
 36 56  1  0  0  0
 36103  1  0  0  0
 37 39  1  0  0  0
 37 47  1  0  0  0
 37 66  1  0  0  0
 37104  1  0  0  0
 38 43  2  0  0  0
 38 46  1  0  0  0
 38 47  1  0  0  0
 39 64  1  0  0  0
 39 67  2  0  0  0
 40 52  1  0  0  0
 40 53  2  0  0  0
 40 58  1  0  0  0
 41105  1  0  0  0
 41106  1  0  0  0
 41107  1  0  0  0
 41 48  1  0  0  0
 42 43  1  0  0  0
 42 66  1  0  0  0
 42108  1  0  0  0
 42109  1  0  0  0
 43 44  1  0  0  0
 44110  1  0  0  0
 45 46  2  0  0  0
 45111  1  0  0  0
 46112  1  0  0  0
 47113  1  0  0  0
 47114  1  0  0  0
 48 56  1  0  0  0
 48 65  1  0  0  0
 48115  1  0  0  0
 49 50  1  0  0  0
 49 53  1  0  0  0
 49 64  1  0  0  0
 49116  1  0  0  0
 50 51  1  0  0  0
 50117  1  0  0  0
 50118  1  0  0  0
 51 52  1  0  0  0
 51119  1  0  0  0
 51120  1  0  0  0
 52121  1  0  0  0
 52122  1  0  0  0
 53 54  1  0  0  0
 54 55  2  0  0  0
 54123  1  0  0  0
 55 57  1  0  0  0
 55124  1  0  0  0
 56 69  2  0  0  0
 57 58  2  0  0  0
 57125  1  0  0  0
 58126  1  0  0  0
 59 60  1  0  0  0
 59 61  1  0  0  0
 59 62  1  0  0  0
 60127  1  0  0  0
 60128  1  0  0  0
 60129  1  0  0  0
 61130  1  0  0  0
 61131  1  0  0  0
 61132  1  0  0  0
 62133  1  0  0  0
 62134  1  0  0  0
 62135  1  0  0  0
 63 65  1  0  0  0
 63136  1  0  0  0
 63137  1  0  0  0
 63138  1  0  0  0
 64139  1  0  0  0
 65140  1  0  0  0
 68 78  1  0  0  0
 71 80  1  0  0  0
 71 81  2  0  0  0
 71 75  1  0  0  0
 72 73  1  0  0  0
 72 74  1  0  0  0
 72141  1  0  0  0
 72142  1  0  0  0
 73 75  1  0  0  0
 73143  1  0  0  0
 73144  1  0  0  0
 74 79  1  0  0  0
 74145  1  0  0  0
 74146  1  0  0  0
 75 79  1  0  0  0
 75147  1  0  0  0
 76 77  1  0  0  0
 76 78  1  0  0  0
 76148  1  0  0  0
 76149  1  0  0  0
 77 80  1  0  0  0
 77150  1  0  0  0
 77151  1  0  0  0
 78152  1  0  0  0
 78153  1  0  0  0
 80154  1  0  0  0
M  ISO  4   1 100  68 101  78 101  79 100
M  END
> <chiral flag>
0

> <version>
0

> <s_m_source_file>
/data/baiqing/PycharmProjects/Reinvent-master-3.2/result/LINK_invent/BTK/process_docking_weight1_custom_sum_contain_oxygen_bond_distance_aromatic_linkinvent_7_9_3/rearranged_h_0013.sdf

> <i_m_source_file_index>
3

> <r_mmod_Potential_Energy-OPLS-2005>
736.298645019531

> <r_mmod_Stretch_Energy-OPLS-2005>
295.462799072266

> <r_mmod_Bend_Energy-OPLS-2005>
433.017150878906

> <r_mmod_Torsional_Energy-OPLS-2005>
275.818939208984

> <r_mmod_Improper_Torsional_Energy-OPLS-2005>
8.55102920532227

> <r_mmod_Van_der_Waal_Energy-OPLS-2005>
131.648834228516

> <r_mmod_Electrostatic_Energy-OPLS-2005>
-372.500640869141

> <r_mmod_Solvation_Energy-OPLS-2005>
-231.329833984375

> <b_mmod_Minimization_Converged-OPLS-2005>
0

> <r_mmod_RMS_Derivative-OPLS-2005>
0.635152280330658

$$$$
3
                    3D
 Structure written by MMmdl.
174181  0  0  1  0            999 V2000
  -29.9058  -15.5110   20.8235 C   0  0  0  0  0  0
  -30.3672  -13.0822   19.6819 C   0  0  0  0  0  0
  -29.5417  -12.6936   18.4078 C   0  0  0  0  0  0
  -28.1041  -12.2931   18.7783 C   0  0  0  0  0  0
  -27.5599  -13.2496   19.8590 C   0  0  2  0  0  0
  -28.4863  -13.3871   21.0730 C   0  0  0  0  0  0
  -25.2102  -13.8185   20.5726 C   0  0  0  0  0  0
  -24.1501  -13.0382   20.9270 C   0  0  0  0  0  0
  -24.6134  -11.6860   20.8732 C   0  0  0  0  0  0
  -23.8922  -10.4239   21.0447 C   0  0  0  0  0  0
  -24.3558   -9.4184   21.9210 C   0  0  0  0  0  0
  -23.6271   -8.2198   22.0767 C   0  0  0  0  0  0
  -22.4256   -8.0220   21.3556 C   0  0  0  0  0  0
  -21.9852   -9.0174   20.4663 C   0  0  0  0  0  0
  -22.7126  -10.2065   20.3081 C   0  0  0  0  0  0
  -21.6841   -6.0714   22.5287 C   0  0  0  0  0  0
  -21.3989   -6.5637   23.8209 C   0  0  0  0  0  0
  -21.3653   -5.6801   24.9183 C   0  0  0  0  0  0
  -21.6054   -4.3068   24.7246 C   0  0  0  0  0  0
  -21.8808   -3.8141   23.4372 C   0  0  0  0  0  0
  -21.9172   -4.6940   22.3418 C   0  0  0  0  0  0
  -22.7578  -13.5127   21.2005 C   0  0  0  0  0  0
  -22.1660   -4.2132   21.1000 F   0  0  0  0  0  0
  -21.5630   -3.4551   25.7763 F   0  0  0  0  0  0
  -29.6314  -14.1111   20.5684 N   0  0  0  0  0  0
  -26.2322  -12.9330   20.2995 N   0  0  0  0  0  0
  -25.8986  -11.6471   20.5545 N   0  0  0  0  0  0
  -22.0320  -12.8050   22.0564 N   0  0  0  0  0  0
  -25.3878  -15.1939   20.4299 N   0  0  0  0  0  0
  -31.1125  -15.6891   20.5071 O   0  0  0  0  0  0
  -21.6625   -6.8829   21.4247 O   0  0  0  0  0  0
  -22.3263  -14.5433   20.6864 O   0  0  0  0  0  0
  -24.7886  -31.8824   23.2529 C   0  0  0  0  0  0
  -26.0206  -32.5216   23.9003 C   0  0  1  0  0  0
  -26.0809  -27.3217   20.2199 C   0  0  0  0  0  0
  -25.6558  -33.8907   24.2667 N   0  0  0  0  0  0
  -23.9243  -30.1528   21.7374 C   0  0  2  0  0  0
  -25.1982  -29.6001   19.6578 C   0  0  0  0  0  0
  -23.8312  -28.5765   22.4879 C   0  0  0  0  0  0
  -18.1464  -27.9600   22.7098 C   0  0  0  0  0  0
  -24.1514  -36.7331   23.2591 C   0  0  0  0  0  0
  -26.2720  -30.7859   21.5660 C   0  0  0  0  0  0
  -26.2147  -29.6152   20.6063 C   0  0  0  0  0  0
  -26.8170  -28.3808   20.8338 C   0  0  0  0  0  0
  -26.0054  -27.4403   18.8707 C   0  0  0  0  0  0
  -25.2067  -28.5794   18.6504 C   0  0  0  0  0  0
  -24.0201  -30.3831   20.1436 C   0  0  0  0  0  0
  -25.4121  -36.3204   24.0309 C   0  0  1  0  0  0
  -20.8690  -27.3941   22.9153 C   0  0  2  0  0  0
  -20.5059  -26.1887   22.1587 C   0  0  0  0  0  0
  -19.3671  -26.4049   21.2048 C   0  0  0  0  0  0
  -18.0874  -26.6601   21.9761 C   0  0  0  0  0  0
  -19.4221  -28.4109   23.1980 C   0  0  0  0  0  0
  -19.1420  -29.5870   24.0427 C   0  0  0  0  0  0
  -17.9239  -30.3323   24.1373 C   0  0  0  0  0  0
  -25.9206  -34.9626   23.5154 C   0  0  0  0  0  0
  -16.7582  -29.8262   23.5603 C   0  0  0  0  0  0
  -16.8801  -28.6039   22.8927 C   0  0  0  0  0  0
  -26.5035  -31.6955   25.1456 C   0  0  0  0  0  0
  -25.3836  -31.4030   26.1728 C   0  0  0  0  0  0
  -27.1333  -30.3416   24.7399 C   0  0  0  0  0  0
  -27.6297  -32.4829   25.8437 C   0  0  0  0  0  0
  -27.5579  -37.1891   24.8491 C   0  0  0  0  0  0
  -22.6299  -27.5282   22.5525 N   0  0  0  0  0  0
  -26.4258  -37.3919   23.9465 N   0  0  0  0  0  0
  -24.9954  -30.9592   22.2793 N   0  0  0  0  0  0
  -24.6833  -28.4383   23.3098 O   0  0  0  0  0  0
  -24.6464  -27.1826   20.5085 O   0  0  0  0  0  0
  -26.5587  -34.9017   22.4605 O   0  0  0  0  0  0
  -23.6743  -32.2217   23.6842 O   0  0  0  0  0  0
  -23.2309  -26.2226   26.1388 C   0  0  0  0  0  0
  -22.4882  -28.2955   24.9346 C   0  0  0  0  0  0
  -27.1212  -19.5264   22.1148 C   0  0  0  0  0  0
  -21.8674  -25.8121   26.7192 C   0  0  0  0  0  0
  -21.8318  -29.5760   23.5141 C   0  0  0  0  0  0
  -28.5450  -18.3067   21.8070 C   0  0  0  0  0  0
  -21.5805  -26.3511   28.1335 C   0  0  0  0  0  0
  -21.6524  -29.2569   21.3280 C   0  0  0  0  0  0
  -25.1601  -23.8820   23.9590 C   0  0  0  0  0  0
  -25.6331  -22.2623   22.9182 C   0  0  0  0  0  0
  -23.9899  -25.4799   23.9124 C   0  0  0  0  0  0
  -20.4508  -25.5814   28.8440 C   0  0  0  0  0  0
  -22.9557  -27.9810   20.1782 C   0  0  0  0  0  0
  -26.8682  -20.9448   22.7517 N   0  0  0  0  0  0
  -28.8683  -16.6043   21.2994 N   0  0  0  0  0  0
  -23.2400  -26.8244   24.9329 N   0  0  0  0  0  0
  -20.1774  -26.1236   30.1862 N   0  3  0  0  0  0
  -24.2645  -25.8154   26.6809 O   0  0  0  0  0  0
  -22.2391  -28.7894   26.0404 O   0  0  0  0  0  0
  -26.0788  -19.0659   21.6496 O   0  0  0  0  0  0
  -31.3336  -13.4735   19.3638 H   0  0  0  0  0  0
  -30.5957  -12.1859   20.2577 H   0  0  0  0  0  0
  -30.0252  -11.8850   17.8557 H   0  0  0  0  0  0
  -29.5051  -13.5529   17.7355 H   0  0  0  0  0  0
  -28.1214  -11.2749   19.1704 H   0  0  0  0  0  0
  -27.4560  -12.2735   17.9025 H   0  0  0  0  0  0
  -27.4908  -14.2198   19.3649 H   0  0  0  0  0  0
  -28.7486  -12.4254   21.5162 H   0  0  0  0  0  0
  -28.0080  -13.9702   21.8626 H   0  0  0  0  0  0
  -25.2711   -9.5667   22.4792 H   0  0  0  0  0  0
  -23.9990   -7.4582   22.7474 H   0  0  0  0  0  0
  -21.0794   -8.8669   19.8980 H   0  0  0  0  0  0
  -22.3584  -10.9618   19.6209 H   0  0  0  0  0  0
  -21.1988   -7.6156   23.9682 H   0  0  0  0  0  0
  -21.1498   -6.0574   25.9077 H   0  0  0  0  0  0
  -22.0596   -2.7610   23.2889 H   0  0  0  0  0  0
  -22.3974  -11.9637   22.4787 H   0  0  0  0  0  0
  -21.0992  -13.1080   22.2951 H   0  0  0  0  0  0
  -24.6314  -15.8474   20.5933 H   0  0  0  0  0  0
  -26.1764  -15.6266   19.9679 H   0  0  0  0  0  0
  -26.8526  -32.5824   23.2042 H   0  0  0  0  0  0
  -25.0673  -34.0125   25.0769 H   0  0  0  0  0  0
  -23.1189  -30.8457   21.9408 H   0  0  0  0  0  0
  -23.3795  -35.9654   23.3290 H   0  0  0  0  0  0
  -24.3682  -36.8900   22.2015 H   0  0  0  0  0  0
  -23.7223  -37.6517   23.6588 H   0  0  0  0  0  0
  -26.4929  -31.6917   20.9966 H   0  0  0  0  0  0
  -27.1271  -30.6313   22.2122 H   0  0  0  0  0  0
  -27.3953  -28.2111   21.7302 H   0  0  0  0  0  0
  -25.8279  -26.5938   18.2231 H   0  0  0  0  0  0
  -24.5163  -28.5963   17.8173 H   0  0  0  0  0  0
  -24.2511  -31.4358   19.9660 H   0  0  0  0  0  0
  -23.1380  -30.2906   19.5176 H   0  0  0  0  0  0
  -25.1250  -36.2073   25.0780 H   0  0  0  0  0  0
  -20.8241  -26.9084   23.8862 H   0  0  0  0  0  0
  -20.1957  -25.3835   22.8346 H   0  0  0  0  0  0
  -21.3530  -25.7559   21.6263 H   0  0  0  0  0  0
  -19.2266  -25.5007   20.6079 H   0  0  0  0  0  0
  -19.5721  -27.1982   20.4902 H   0  0  0  0  0  0
  -17.2514  -26.6520   21.2775 H   0  0  0  0  0  0
  -17.8937  -25.8598   22.6924 H   0  0  0  0  0  0
  -19.8245  -29.8979   24.8135 H   0  0  0  0  0  0
  -17.8771  -31.2060   24.7742 H   0  0  0  0  0  0
  -15.8043  -30.3221   23.6726 H   0  0  0  0  0  0
  -15.9837  -28.1572   22.4787 H   0  0  0  0  0  0
  -24.6448  -30.6970   25.7945 H   0  0  0  0  0  0
  -24.8543  -32.3118   26.4574 H   0  0  0  0  0  0
  -25.7873  -30.9725   27.0891 H   0  0  0  0  0  0
  -26.4564  -29.6987   24.1960 H   0  0  0  0  0  0
  -27.4367  -29.7753   25.6202 H   0  0  0  0  0  0
  -28.0381  -30.4703   24.1470 H   0  0  0  0  0  0
  -27.2704  -33.4158   26.2796 H   0  0  0  0  0  0
  -28.4299  -32.7371   25.1478 H   0  0  0  0  0  0
  -28.0764  -31.9118   26.6576 H   0  0  0  0  0  0
  -28.2555  -38.0234   24.7562 H   0  0  0  0  0  0
  -28.1122  -36.2749   24.6262 H   0  0  0  0  0  0
  -27.2354  -37.1461   25.8917 H   0  0  0  0  0  0
  -23.0567  -26.6577   22.8395 H   0  0  0  0  0  0
  -26.0121  -38.2980   24.1509 H   0  0  0  0  0  0
  -21.8797  -24.7227   26.7366 H   0  0  0  0  0  0
  -21.0558  -26.0788   26.0394 H   0  0  0  0  0  0
  -22.6418  -30.2141   23.8024 H   0  0  0  0  0  0
  -21.2846  -30.4737   23.7657 H   0  0  0  0  0  0
  -29.1224  -18.3854   22.7262 H   0  0  0  0  0  0
  -29.1439  -18.8640   21.0856 H   0  0  0  0  0  0
  -21.3026  -27.4037   28.0572 H   0  0  0  0  0  0
  -22.4883  -26.3119   28.7401 H   0  0  0  0  0  0
  -21.5354  -30.2296   20.8507 H   0  0  0  0  0  0
  -20.6461  -28.9616   21.0568 H   0  0  0  0  0  0
  -26.1433  -24.3439   24.0811 H   0  0  0  0  0  0
  -24.9581  -23.4700   24.9458 H   0  0  0  0  0  0
  -25.6134  -22.6367   21.8930 H   0  0  0  0  0  0
  -24.7127  -21.6809   22.9886 H   0  0  0  0  0  0
  -23.1110  -25.1030   23.3860 H   0  0  0  0  0  0
  -24.5576  -26.0137   23.1571 H   0  0  0  0  0  0
  -20.7168  -24.5297   28.9513 H   0  0  0  0  0  0
  -19.5319  -25.6088   28.2499 H   0  0  0  0  0  0
  -22.8213  -28.2424   19.1305 H   0  0  0  0  0  0
  -22.3719  -27.0635   20.1098 H   0  0  0  0  0  0
  -27.7372  -21.2597   23.1625 H   0  0  0  0  0  0
  -27.9805  -16.1273   21.3710 H   0  0  0  0  0  0
  -21.0202  -26.1693   30.7307 H   0  0  0  0  0  0
  -19.5316  -25.5306   30.6765 H   0  0  0  0  0  0
  -19.7813  -27.0445   30.1221 H   0  0  0  0  0  0
  1 25  1  0  0  0
  1 30  2  0  0  0
  1 85  1  0  0  0
  2  3  1  0  0  0
  2 25  1  0  0  0
  2 91  1  0  0  0
  2 92  1  0  0  0
  3  4  1  0  0  0
  3 93  1  0  0  0
  3 94  1  0  0  0
  4  5  1  0  0  0
  4 95  1  0  0  0
  4 96  1  0  0  0
  5  6  1  0  0  0
  5 26  1  0  0  0
  5 97  1  0  0  0
  6 25  1  0  0  0
  6 98  1  0  0  0
  6 99  1  0  0  0
  7  8  2  0  0  0
  7 26  1  0  0  0
  7 29  1  0  0  0
  8  9  1  0  0  0
  8 22  1  0  0  0
  9 10  1  0  0  0
  9 27  2  0  0  0
 10 11  2  0  0  0
 10 15  1  0  0  0
 11 12  1  0  0  0
 11100  1  0  0  0
 12 13  2  0  0  0
 12101  1  0  0  0
 13 14  1  0  0  0
 13 31  1  0  0  0
 14 15  2  0  0  0
 14102  1  0  0  0
 15103  1  0  0  0
 16 17  2  0  0  0
 16 21  1  0  0  0
 16 31  1  0  0  0
 17 18  1  0  0  0
 17104  1  0  0  0
 18 19  2  0  0  0
 18105  1  0  0  0
 19 20  1  0  0  0
 19 24  1  0  0  0
 20 21  2  0  0  0
 20106  1  0  0  0
 21 23  1  0  0  0
 22 28  1  0  0  0
 22 32  2  0  0  0
 26 27  1  0  0  0
 28107  1  0  0  0
 28108  1  0  0  0
 29109  1  0  0  0
 29110  1  0  0  0
 33 34  1  0  0  0
 33 66  1  0  0  0
 33 70  2  0  0  0
 34 36  1  0  0  0
 34 59  1  0  0  0
 34111  1  0  0  0
 35 44  2  0  0  0
 35 45  1  0  0  0
 35 68  1  0  0  0
 36 56  1  0  0  0
 36112  1  0  0  0
 37 39  1  0  0  0
 37 47  1  0  0  0
 37 66  1  0  0  0
 37113  1  0  0  0
 38 43  2  0  0  0
 38 46  1  0  0  0
 38 47  1  0  0  0
 39 64  1  0  0  0
 39 67  2  0  0  0
 40 52  1  0  0  0
 40 53  2  0  0  0
 40 58  1  0  0  0
 41114  1  0  0  0
 41115  1  0  0  0
 41116  1  0  0  0
 41 48  1  0  0  0
 42 43  1  0  0  0
 42 66  1  0  0  0
 42117  1  0  0  0
 42118  1  0  0  0
 43 44  1  0  0  0
 44119  1  0  0  0
 45 46  2  0  0  0
 45120  1  0  0  0
 46121  1  0  0  0
 47122  1  0  0  0
 47123  1  0  0  0
 48 56  1  0  0  0
 48 65  1  0  0  0
 48124  1  0  0  0
 49 50  1  0  0  0
 49 53  1  0  0  0
 49 64  1  0  0  0
 49125  1  0  0  0
 50 51  1  0  0  0
 50126  1  0  0  0
 50127  1  0  0  0
 51 52  1  0  0  0
 51128  1  0  0  0
 51129  1  0  0  0
 52130  1  0  0  0
 52131  1  0  0  0
 53 54  1  0  0  0
 54 55  2  0  0  0
 54132  1  0  0  0
 55 57  1  0  0  0
 55133  1  0  0  0
 56 69  2  0  0  0
 57 58  2  0  0  0
 57134  1  0  0  0
 58135  1  0  0  0
 59 60  1  0  0  0
 59 61  1  0  0  0
 59 62  1  0  0  0
 60136  1  0  0  0
 60137  1  0  0  0
 60138  1  0  0  0
 61139  1  0  0  0
 61140  1  0  0  0
 61141  1  0  0  0
 62142  1  0  0  0
 62143  1  0  0  0
 62144  1  0  0  0
 63 65  1  0  0  0
 63145  1  0  0  0
 63146  1  0  0  0
 63147  1  0  0  0
 64148  1  0  0  0
 65149  1  0  0  0
 68 83  1  0  0  0
 71 74  1  0  0  0
 71 86  1  0  0  0
 71 88  2  0  0  0
 72 75  1  0  0  0
 72 86  1  0  0  0
 72 89  2  0  0  0
 73 76  1  0  0  0
 73 84  1  0  0  0
 73 90  2  0  0  0
 74 77  1  0  0  0
 74150  1  0  0  0
 74151  1  0  0  0
 75 78  1  0  0  0
 75152  1  0  0  0
 75153  1  0  0  0
 76 85  1  0  0  0
 76154  1  0  0  0
 76155  1  0  0  0
 77 82  1  0  0  0
 77156  1  0  0  0
 77157  1  0  0  0
 78 83  1  0  0  0
 78158  1  0  0  0
 78159  1  0  0  0
 79 80  1  0  0  0
 79 81  1  0  0  0
 79160  1  0  0  0
 79161  1  0  0  0
 80 84  1  0  0  0
 80162  1  0  0  0
 80163  1  0  0  0
 81 86  1  0  0  0
 81164  1  0  0  0
 81165  1  0  0  0
 82 87  1  0  0  0
 82166  1  0  0  0
 82167  1  0  0  0
 83168  1  0  0  0
 83169  1  0  0  0
 84170  1  0  0  0
 85171  1  0  0  0
 87172  1  0  0  0
 87173  1  0  0  0
 87174  1  0  0  0
M  CHG  1  87   1
M  ISO  4   1 100  68 101  83 101  85 100
M  END
> <chiral flag>
0

> <version>
0

> <s_m_source_file>
/data/baiqing/PycharmProjects/Reinvent-master-3.2/result/LINK_invent/BTK/process_docking_weight1_custom_sum_contain_oxygen_bond_distance_aromatic_linkinvent_7_9_3/rearranged_h_0013.sdf

> <i_m_source_file_index>
4

> <r_mmod_Potential_Energy-OPLS-2005>
10416.8916015625

> <r_mmod_Stretch_Energy-OPLS-2005>
3918.95483398438

> <r_mmod_Bend_Energy-OPLS-2005>
1488.66674804688

> <r_mmod_Torsional_Energy-OPLS-2005>
642.559387207031

> <r_mmod_Improper_Torsional_Energy-OPLS-2005>
60.6123237609863

> <r_mmod_Van_der_Waal_Energy-OPLS-2005>
1520.54931640625

> <r_mmod_Electrostatic_Energy-OPLS-2005>
-493.960510253906

> <r_mmod_Solvation_Energy-OPLS-2005>
-557.828186035156

> <b_mmod_Minimization_Converged-OPLS-2005>
0

> <r_mmod_RMS_Derivative-OPLS-2005>
5.88811683654785

$$$$
4
                    3D
 Structure written by MMmdl.
151159  0  0  1  0            999 V2000
  -30.5694  -14.6346   20.4636 C   0  0  0  0  0  0
  -30.4375  -12.3747   19.4542 C   0  0  0  0  0  0
  -29.5034  -12.4882   18.2269 C   0  0  0  0  0  0
  -28.0206  -12.3476   18.6293 C   0  0  0  0  0  0
  -27.6466  -13.2095   19.8617 C   0  0  2  0  0  0
  -28.6883  -13.0347   20.9889 C   0  0  0  0  0  0
  -25.2482  -13.8115   20.5805 C   0  0  0  0  0  0
  -24.1780  -13.0368   20.9247 C   0  0  0  0  0  0
  -24.6330  -11.6829   20.8724 C   0  0  0  0  0  0
  -23.9007  -10.4242   21.0371 C   0  0  0  0  0  0
  -24.3580   -9.4176   21.9152 C   0  0  0  0  0  0
  -23.6269   -8.2208   22.0714 C   0  0  0  0  0  0
  -22.4250   -8.0239   21.3505 C   0  0  0  0  0  0
  -21.9878   -9.0199   20.4601 C   0  0  0  0  0  0
  -22.7190  -10.2069   20.3005 C   0  0  0  0  0  0
  -21.6840   -6.0697   22.5271 C   0  0  0  0  0  0
  -21.4011   -6.5601   23.8209 C   0  0  0  0  0  0
  -21.3639   -5.6749   24.9170 C   0  0  0  0  0  0
  -21.6057   -4.3019   24.7231 C   0  0  0  0  0  0
  -21.8837   -3.8099   23.4356 C   0  0  0  0  0  0
  -21.9214   -4.6923   22.3407 C   0  0  0  0  0  0
  -22.7798  -13.5147   21.1939 C   0  0  0  0  0  0
  -22.1678   -4.2104   21.0990 F   0  0  0  0  0  0
  -21.5632   -3.4523   25.7754 F   0  0  0  0  0  0
  -30.0054  -13.3882   20.4344 N   0  0  0  0  0  0
  -26.2916  -12.9320   20.3285 N   0  0  0  0  0  0
  -25.9251  -11.6454   20.5682 N   0  0  0  0  0  0
  -22.0432  -12.8121   22.0442 N   0  0  0  0  0  0
  -25.3975  -15.1883   20.4464 N   0  0  0  0  0  0
  -31.7313  -14.8276   20.0909 O   0  0  0  0  0  0
  -21.6613   -6.8837   21.4218 O   0  0  0  0  0  0
  -22.3481  -14.5460   20.6784 O   0  0  0  0  0  0
  -24.6285  -31.8629   23.2024 C   0  0  0  0  0  0
  -25.9139  -32.4787   23.8373 C   0  0  1  0  0  0
  -27.2137  -27.3100   20.1007 C   0  0  0  0  0  0
  -25.5976  -33.8597   24.2301 N   0  0  0  0  0  0
  -23.4203  -30.4892   21.5454 C   0  0  2  0  0  0
  -24.8637  -28.9427   20.1087 C   0  0  0  0  0  0
  -22.7474  -29.4696   22.4962 C   0  0  0  0  0  0
  -18.0308  -28.1248   22.8629 C   0  0  0  0  0  0
  -24.1490  -36.7259   23.2647 C   0  0  0  0  0  0
  -25.9651  -30.7818   21.3832 C   0  0  0  0  0  0
  -26.0340  -29.4114   20.7175 C   0  0  0  0  0  0
  -27.2149  -28.6064   20.7044 C   0  0  0  0  0  0
  -26.0253  -26.9014   19.4588 C   0  0  0  0  0  0
  -24.8628  -27.6954   19.4652 C   0  0  0  0  0  0
  -23.6349  -29.8256   20.1604 C   0  0  0  0  0  0
  -25.4122  -36.3088   24.0351 C   0  0  1  0  0  0
  -20.5932  -28.3679   23.1222 C   0  0  2  0  0  0
  -20.6887  -26.9508   22.5064 C   0  0  0  0  0  0
  -19.5590  -26.6285   21.5187 C   0  0  0  0  0  0
  -18.1963  -26.7679   22.1963 C   0  0  0  0  0  0
  -19.1573  -28.8809   23.2871 C   0  0  0  0  0  0
  -18.9461  -30.1479   23.8762 C   0  0  0  0  0  0
  -17.6458  -30.6606   24.0375 C   0  0  0  0  0  0
  -25.9063  -34.9459   23.5117 C   0  0  0  0  0  0
  -16.5373  -29.9038   23.6248 C   0  0  0  0  0  0
  -16.7298  -28.6355   23.0459 C   0  0  0  0  0  0
  -26.4511  -31.6604   25.0747 C   0  0  0  0  0  0
  -25.3713  -31.3748   26.1438 C   0  0  0  0  0  0
  -27.0381  -30.3025   24.6259 C   0  0  0  0  0  0
  -27.6115  -32.4310   25.7479 C   0  0  0  0  0  0
  -27.5580  -37.1808   24.8484 C   0  0  0  0  0  0
  -21.4187  -29.3152   22.3744 N   0  0  0  0  0  0
  -26.4304  -37.3778   23.9403 N   0  0  0  0  0  0
  -24.6900  -31.0616   22.0994 N   0  0  0  0  0  0
  -23.4217  -28.8182   23.2988 O   0  0  0  0  0  0
  -28.3253  -26.4520   20.0917 O   0  0  0  0  0  0
  -26.5605  -34.8913   22.4669 O   0  0  0  0  0  0
  -23.5450  -32.1452   23.7340 O   0  0  0  0  0  0
  -30.6058  -18.0277   20.5970 C   0  0  0  0  0  0
  -28.2069  -18.8986   19.4724 C   0  0  0  0  0  0
  -29.6223  -17.0407   20.3359 C   0  0  0  0  0  0
  -29.1403  -19.9147   19.8249 C   0  0  0  0  0  0
  -30.3694  -19.4232   20.3653 C   0  0  0  0  0  0
  -28.4266  -17.5135   19.7366 C   0  0  0  0  0  0
  -29.0604  -23.9215   19.7337 C   0  0  0  0  0  0
  -28.1321  -25.0142   20.4414 C   0  0  0  0  0  0
  -29.2747  -22.4355   20.3354 C   0  0  0  0  0  0
  -29.7082  -15.6466   20.7821 N   0  0  0  0  0  0
  -28.8024  -21.2736   19.5527 O   0  0  0  0  0  0
  -31.3692  -20.2841   20.6595 F   0  0  0  0  0  0
  -27.4566  -16.6269   19.4151 F   0  0  0  0  0  0
  -31.4730  -12.5241   19.1477 H   0  0  0  0  0  0
  -30.3957  -11.3772   19.8918 H   0  0  0  0  0  0
  -29.7553  -11.7248   17.4898 H   0  0  0  0  0  0
  -29.6578  -13.4505   17.7354 H   0  0  0  0  0  0
  -27.8379  -11.2939   18.8441 H   0  0  0  0  0  0
  -27.3722  -12.5986   17.7873 H   0  0  0  0  0  0
  -27.6639  -14.2459   19.5281 H   0  0  0  0  0  0
  -28.6892  -12.0028   21.3442 H   0  0  0  0  0  0
  -28.4279  -13.6451   21.8543 H   0  0  0  0  0  0
  -25.2725   -9.5681   22.4714 H   0  0  0  0  0  0
  -23.9995   -7.4608   22.7437 H   0  0  0  0  0  0
  -21.0804   -8.8689   19.8922 H   0  0  0  0  0  0
  -22.3651  -10.9588   19.6103 H   0  0  0  0  0  0
  -21.1970   -7.6103   23.9712 H   0  0  0  0  0  0
  -21.1441   -6.0459   25.9074 H   0  0  0  0  0  0
  -22.0637   -2.7564   23.2869 H   0  0  0  0  0  0
  -22.4102  -11.9799   22.4840 H   0  0  0  0  0  0
  -21.0997  -13.1005   22.2624 H   0  0  0  0  0  0
  -24.6094  -15.8101   20.6039 H   0  0  0  0  0  0
  -26.2187  -15.6712   20.0929 H   0  0  0  0  0  0
  -26.7234  -32.5420   23.1148 H   0  0  0  0  0  0
  -25.0217  -33.9762   25.0508 H   0  0  0  0  0  0
  -22.7166  -31.3125   21.4010 H   0  0  0  0  0  0
  -23.3774  -35.9578   23.3348 H   0  0  0  0  0  0
  -24.3556  -36.8794   22.2048 H   0  0  0  0  0  0
  -23.7202  -37.6471   23.6599 H   0  0  0  0  0  0
  -26.1139  -31.5508   20.6256 H   0  0  0  0  0  0
  -26.8416  -30.8144   22.0183 H   0  0  0  0  0  0
  -28.1130  -28.9684   21.1886 H   0  0  0  0  0  0
  -25.9819  -25.9585   18.9364 H   0  0  0  0  0  0
  -23.9744  -27.3392   18.9596 H   0  0  0  0  0  0
  -23.7532  -30.6013   19.4049 H   0  0  0  0  0  0
  -22.7532  -29.2564   19.8610 H   0  0  0  0  0  0
  -25.1299  -36.1983   25.0851 H   0  0  0  0  0  0
  -21.0077  -28.3091   24.1320 H   0  0  0  0  0  0
  -21.6603  -26.7843   22.0408 H   0  0  0  0  0  0
  -20.6403  -26.2323   23.3285 H   0  0  0  0  0  0
  -19.6734  -25.6154   21.1311 H   0  0  0  0  0  0
  -19.6162  -27.3022   20.6627 H   0  0  0  0  0  0
  -18.0852  -25.9972   22.9615 H   0  0  0  0  0  0
  -17.4004  -26.6003   21.4677 H   0  0  0  0  0  0
  -19.7923  -30.7360   24.2036 H   0  0  0  0  0  0
  -17.4956  -31.6344   24.4800 H   0  0  0  0  0  0
  -15.5364  -30.2950   23.7530 H   0  0  0  0  0  0
  -15.8689  -28.0575   22.7378 H   0  0  0  0  0  0
  -24.5901  -30.7107   25.7692 H   0  0  0  0  0  0
  -24.8915  -32.2938   26.4830 H   0  0  0  0  0  0
  -25.8008  -30.8895   27.0220 H   0  0  0  0  0  0
  -26.3013  -29.6717   24.1279 H   0  0  0  0  0  0
  -27.4056  -29.7312   25.4795 H   0  0  0  0  0  0
  -27.8865  -30.4280   23.9529 H   0  0  0  0  0  0
  -27.2814  -33.3619   26.2096 H   0  0  0  0  0  0
  -28.3909  -32.6861   25.0278 H   0  0  0  0  0  0
  -28.0837  -31.8413   26.5349 H   0  0  0  0  0  0
  -28.2670  -38.0039   24.7488 H   0  0  0  0  0  0
  -28.1034  -36.2590   24.6416 H   0  0  0  0  0  0
  -27.2295  -37.1545   25.8887 H   0  0  0  0  0  0
  -20.9322  -29.9001   21.7082 H   0  0  0  0  0  0
  -26.0203  -38.2869   24.1373 H   0  0  0  0  0  0
  -31.5509  -17.7198   21.0162 H   0  0  0  0  0  0
  -27.2756  -19.1808   19.0055 H   0  0  0  0  0  0
  -30.0428  -24.3913   19.7473 H   0  0  0  0  0  0
  -28.8063  -23.8528   18.6740 H   0  0  0  0  0  0
  -27.0954  -24.6996   20.3392 H   0  0  0  0  0  0
  -28.3207  -24.9651   21.5138 H   0  0  0  0  0  0
  -28.8169  -22.3814   21.3218 H   0  0  0  0  0  0
  -30.3461  -22.3338   20.5237 H   0  0  0  0  0  0
  -28.8304  -15.2850   21.1241 H   0  0  0  0  0  0
  1 25  1  0  0  0
  1 30  2  0  0  0
  1 80  1  0  0  0
  2  3  1  0  0  0
  2 25  1  0  0  0
  2 84  1  0  0  0
  2 85  1  0  0  0
  3  4  1  0  0  0
  3 86  1  0  0  0
  3 87  1  0  0  0
  4  5  1  0  0  0
  4 88  1  0  0  0
  4 89  1  0  0  0
  5  6  1  0  0  0
  5 26  1  0  0  0
  5 90  1  0  0  0
  6 25  1  0  0  0
  6 91  1  0  0  0
  6 92  1  0  0  0
  7  8  2  0  0  0
  7 26  1  0  0  0
  7 29  1  0  0  0
  8  9  1  0  0  0
  8 22  1  0  0  0
  9 10  1  0  0  0
  9 27  2  0  0  0
 10 11  2  0  0  0
 10 15  1  0  0  0
 11 12  1  0  0  0
 11 93  1  0  0  0
 12 13  2  0  0  0
 12 94  1  0  0  0
 13 14  1  0  0  0
 13 31  1  0  0  0
 14 15  2  0  0  0
 14 95  1  0  0  0
 15 96  1  0  0  0
 16 17  2  0  0  0
 16 21  1  0  0  0
 16 31  1  0  0  0
 17 18  1  0  0  0
 17 97  1  0  0  0
 18 19  2  0  0  0
 18 98  1  0  0  0
 19 20  1  0  0  0
 19 24  1  0  0  0
 20 21  2  0  0  0
 20 99  1  0  0  0
 21 23  1  0  0  0
 22 28  1  0  0  0
 22 32  2  0  0  0
 26 27  1  0  0  0
 28100  1  0  0  0
 28101  1  0  0  0
 29102  1  0  0  0
 29103  1  0  0  0
 33 34  1  0  0  0
 33 66  1  0  0  0
 33 70  2  0  0  0
 34 36  1  0  0  0
 34 59  1  0  0  0
 34104  1  0  0  0
 35 44  2  0  0  0
 35 45  1  0  0  0
 35 68  1  0  0  0
 36 56  1  0  0  0
 36105  1  0  0  0
 37 39  1  0  0  0
 37 47  1  0  0  0
 37 66  1  0  0  0
 37106  1  0  0  0
 38 43  2  0  0  0
 38 46  1  0  0  0
 38 47  1  0  0  0
 39 64  1  0  0  0
 39 67  2  0  0  0
 40 52  1  0  0  0
 40 53  2  0  0  0
 40 58  1  0  0  0
 41107  1  0  0  0
 41108  1  0  0  0
 41109  1  0  0  0
 41 48  1  0  0  0
 42 43  1  0  0  0
 42 66  1  0  0  0
 42110  1  0  0  0
 42111  1  0  0  0
 43 44  1  0  0  0
 44112  1  0  0  0
 45 46  2  0  0  0
 45113  1  0  0  0
 46114  1  0  0  0
 47115  1  0  0  0
 47116  1  0  0  0
 48 56  1  0  0  0
 48 65  1  0  0  0
 48117  1  0  0  0
 49 50  1  0  0  0
 49 53  1  0  0  0
 49 64  1  0  0  0
 49118  1  0  0  0
 50 51  1  0  0  0
 50119  1  0  0  0
 50120  1  0  0  0
 51 52  1  0  0  0
 51121  1  0  0  0
 51122  1  0  0  0
 52123  1  0  0  0
 52124  1  0  0  0
 53 54  1  0  0  0
 54 55  2  0  0  0
 54125  1  0  0  0
 55 57  1  0  0  0
 55126  1  0  0  0
 56 69  2  0  0  0
 57 58  2  0  0  0
 57127  1  0  0  0
 58128  1  0  0  0
 59 60  1  0  0  0
 59 61  1  0  0  0
 59 62  1  0  0  0
 60129  1  0  0  0
 60130  1  0  0  0
 60131  1  0  0  0
 61132  1  0  0  0
 61133  1  0  0  0
 61134  1  0  0  0
 62135  1  0  0  0
 62136  1  0  0  0
 62137  1  0  0  0
 63 65  1  0  0  0
 63138  1  0  0  0
 63139  1  0  0  0
 63140  1  0  0  0
 64141  1  0  0  0
 65142  1  0  0  0
 68 78  1  0  0  0
 71 73  2  0  0  0
 71 75  1  0  0  0
 71143  1  0  0  0
 72 74  1  0  0  0
 72 76  2  0  0  0
 72144  1  0  0  0
 73 76  1  0  0  0
 73 80  1  0  0  0
 74 75  2  0  0  0
 74 81  1  0  0  0
 75 82  1  0  0  0
 76 83  1  0  0  0
 77 78  1  0  0  0
 77 79  1  0  0  0
 77145  1  0  0  0
 77146  1  0  0  0
 78147  1  0  0  0
 78148  1  0  0  0
 79 81  1  0  0  0
 79149  1  0  0  0
 79150  1  0  0  0
 80151  1  0  0  0
M  ISO  4   1 100  68 101  78 101  80 100
M  END
> <chiral flag>
0

> <version>
0

> <s_m_source_file>
/data/baiqing/PycharmProjects/Reinvent-master-3.2/result/LINK_invent/BTK/process_docking_weight1_custom_sum_contain_oxygen_bond_distance_aromatic_linkinvent_7_9_3/rearranged_h_0013.sdf

> <i_m_source_file_index>
5

> <r_mmod_Potential_Energy-OPLS-2005>
102.17041015625

> <r_mmod_Stretch_Energy-OPLS-2005>
90.379280090332

> <r_mmod_Bend_Energy-OPLS-2005>
159.205230712891

> <r_mmod_Torsional_Energy-OPLS-2005>
268.782775878906

> <r_mmod_Improper_Torsional_Energy-OPLS-2005>
5.80839776992798

> <r_mmod_Van_der_Waal_Energy-OPLS-2005>
144.05290222168

> <r_mmod_Electrostatic_Energy-OPLS-2005>
-418.21044921875

> <r_mmod_Solvation_Energy-OPLS-2005>
-199.910629272461

> <b_mmod_Minimization_Converged-OPLS-2005>
0

> <r_mmod_RMS_Derivative-OPLS-2005>
7.06093120574951

$$$$
5
                    3D
 Structure written by MMmdl.
157165  0  0  1  0            999 V2000
  -30.4971  -14.7874   20.5306 C   0  0  0  0  0  0
  -30.4825  -12.5167   19.4325 C   0  0  0  0  0  0
  -29.5260  -12.5233   18.2152 C   0  0  0  0  0  0
  -28.0502  -12.3193   18.6291 C   0  0  0  0  0  0
  -27.6492  -13.1977   19.8412 C   0  0  2  0  0  0
  -28.7006  -13.0641   20.9608 C   0  0  0  0  0  0
  -25.2526  -13.8087   20.5495 C   0  0  0  0  0  0
  -24.1832  -13.0377   20.9168 C   0  0  0  0  0  0
  -24.6402  -11.6869   20.8766 C   0  0  0  0  0  0
  -23.9058  -10.4262   21.0444 C   0  0  0  0  0  0
  -24.3605   -9.4176   21.9207 C   0  0  0  0  0  0
  -23.6281   -8.2203   22.0761 C   0  0  0  0  0  0
  -22.4261   -8.0267   21.3558 C   0  0  0  0  0  0
  -21.9901   -9.0256   20.4660 C   0  0  0  0  0  0
  -22.7224  -10.2131   20.3086 C   0  0  0  0  0  0
  -21.6851   -6.0726   22.5314 C   0  0  0  0  0  0
  -21.3998   -6.5634   23.8242 C   0  0  0  0  0  0
  -21.3637   -5.6787   24.9197 C   0  0  0  0  0  0
  -21.6046   -4.3059   24.7261 C   0  0  0  0  0  0
  -21.8793   -3.8151   23.4383 C   0  0  0  0  0  0
  -21.9179   -4.6955   22.3434 C   0  0  0  0  0  0
  -22.7856  -13.5218   21.1807 C   0  0  0  0  0  0
  -22.1654   -4.2136   21.1011 F   0  0  0  0  0  0
  -21.5621   -3.4538   25.7772 F   0  0  0  0  0  0
  -29.9801  -13.5152   20.4011 N   0  0  0  0  0  0
  -26.2952  -12.9238   20.3180 N   0  0  0  0  0  0
  -25.9332  -11.6432   20.5756 N   0  0  0  0  0  0
  -22.0497  -12.8298   22.0441 N   0  0  0  0  0  0
  -25.4067  -15.1766   20.3541 N   0  0  0  0  0  0
  -31.6918  -14.9883   20.2802 O   0  0  0  0  0  0
  -21.6620   -6.8874   21.4279 O   0  0  0  0  0  0
  -22.3564  -14.5507   20.6626 O   0  0  0  0  0  0
  -24.6284  -31.8596   23.2053 C   0  0  0  0  0  0
  -25.9125  -32.4806   23.8400 C   0  0  1  0  0  0
  -27.2226  -27.2781   20.1475 C   0  0  0  0  0  0
  -25.5948  -33.8612   24.2310 N   0  0  0  0  0  0
  -23.4248  -30.4836   21.5470 C   0  0  2  0  0  0
  -24.8766  -28.9304   20.1167 C   0  0  0  0  0  0
  -22.7478  -29.4618   22.4930 C   0  0  0  0  0  0
  -18.0245  -28.1385   22.8516 C   0  0  0  0  0  0
  -24.1466  -36.7227   23.2627 C   0  0  0  0  0  0
  -25.9672  -30.7830   21.3748 C   0  0  0  0  0  0
  -26.0441  -29.4007   20.7296 C   0  0  0  0  0  0
  -27.2203  -28.5870   20.7336 C   0  0  0  0  0  0
  -26.0368  -26.8820   19.4872 C   0  0  0  0  0  0
  -24.8760  -27.6788   19.4840 C   0  0  0  0  0  0
  -23.6472  -29.8209   20.1623 C   0  0  0  0  0  0
  -25.4100  -36.3071   24.0333 C   0  0  1  0  0  0
  -20.5895  -28.3678   23.1292 C   0  0  2  0  0  0
  -20.6752  -26.9388   22.5435 C   0  0  0  0  0  0
  -19.5707  -26.6373   21.5248 C   0  0  0  0  0  0
  -18.1888  -26.7938   22.1654 C   0  0  0  0  0  0
  -19.1520  -28.8826   23.2910 C   0  0  0  0  0  0
  -18.9458  -30.1445   23.8914 C   0  0  0  0  0  0
  -17.6460  -30.6598   24.0573 C   0  0  0  0  0  0
  -25.9045  -34.9467   23.5100 C   0  0  0  0  0  0
  -16.5338  -29.9119   23.6339 C   0  0  0  0  0  0
  -16.7246  -28.6533   23.0381 C   0  0  0  0  0  0
  -26.4512  -31.6609   25.0754 C   0  0  0  0  0  0
  -25.3755  -31.3782   26.1474 C   0  0  0  0  0  0
  -27.0302  -30.3037   24.6141 C   0  0  0  0  0  0
  -27.6057  -32.4318   25.7545 C   0  0  0  0  0  0
  -27.5543  -37.1774   24.8473 C   0  0  0  0  0  0
  -21.4191  -29.3036   22.3678 N   0  0  0  0  0  0
  -26.4255  -37.3805   23.9434 N   0  0  0  0  0  0
  -24.6925  -31.0615   22.0989 N   0  0  0  0  0  0
  -23.4195  -28.8132   23.2976 O   0  0  0  0  0  0
  -28.3201  -26.3895   20.1919 O   0  0  0  0  0  0
  -26.5594  -34.8942   22.4649 O   0  0  0  0  0  0
  -23.5431  -32.1366   23.7365 O   0  0  0  0  0  0
  -27.8151  -18.3538   22.7117 C   0  0  0  0  0  0
  -28.0725  -19.5767   22.0926 C   0  0  0  0  0  0
  -28.4696  -17.1753   22.3176 C   0  0  0  0  0  0
  -29.6724  -18.4752   20.6248 C   0  0  0  0  0  0
  -29.0643  -19.7351   21.1017 C   0  0  0  0  0  0
  -29.3504  -17.1571   21.1981 C   0  0  0  0  0  0
  -28.9044  -22.3744   21.1122 C   0  0  0  0  0  0
  -28.1262  -15.9417   23.1293 C   0  0  0  0  0  0
  -30.6609  -18.5333   19.4726 C   0  0  0  0  0  0
  -29.1919  -23.7930   20.4363 C   0  0  0  0  0  0
  -28.0664  -24.9577   20.5801 C   0  0  0  0  0  0
  -29.3367  -21.1315   20.6153 N   0  0  0  0  0  0
  -29.5395  -15.7982   20.5924 N   0  0  0  0  0  0
  -28.3019  -22.4608   22.1832 O   0  0  0  0  0  0
  -31.4931  -12.7579   19.0970 H   0  0  0  0  0  0
  -30.5457  -11.5265   19.8864 H   0  0  0  0  0  0
  -29.8227  -11.7541   17.4985 H   0  0  0  0  0  0
  -29.6238  -13.4785   17.6942 H   0  0  0  0  0  0
  -27.9079  -11.2648   18.8738 H   0  0  0  0  0  0
  -27.3960  -12.5254   17.7795 H   0  0  0  0  0  0
  -27.6561  -14.2248   19.4792 H   0  0  0  0  0  0
  -28.7758  -12.0248   21.2911 H   0  0  0  0  0  0
  -28.4242  -13.6310   21.8431 H   0  0  0  0  0  0
  -25.2740   -9.5662   22.4783 H   0  0  0  0  0  0
  -23.9963   -7.4598   22.7490 H   0  0  0  0  0  0
  -21.0808   -8.8798   19.9004 H   0  0  0  0  0  0
  -22.3665  -10.9686   19.6216 H   0  0  0  0  0  0
  -21.1995   -7.6148   23.9746 H   0  0  0  0  0  0
  -21.1478   -6.0524   25.9094 H   0  0  0  0  0  0
  -22.0583   -2.7613   23.2914 H   0  0  0  0  0  0
  -22.4076  -12.0051   22.5002 H   0  0  0  0  0  0
  -21.1093  -13.1373   22.2482 H   0  0  0  0  0  0
  -24.5630  -15.7367   20.2948 H   0  0  0  0  0  0
  -26.1632  -15.5714   19.8107 H   0  0  0  0  0  0
  -26.7167  -32.5500   23.1145 H   0  0  0  0  0  0
  -25.0273  -33.9801   25.0560 H   0  0  0  0  0  0
  -22.7182  -31.3035   21.4051 H   0  0  0  0  0  0
  -23.3784  -35.9499   23.3293 H   0  0  0  0  0  0
  -24.3557  -36.8823   22.2035 H   0  0  0  0  0  0
  -23.7162  -37.6413   23.6622 H   0  0  0  0  0  0
  -26.0840  -31.5375   20.5966 H   0  0  0  0  0  0
  -26.8542  -30.8552   21.9921 H   0  0  0  0  0  0
  -28.1105  -28.9405   21.2312 H   0  0  0  0  0  0
  -25.9910  -25.9426   18.9558 H   0  0  0  0  0  0
  -23.9798  -27.3210   18.9956 H   0  0  0  0  0  0
  -23.7801  -30.6011   19.4106 H   0  0  0  0  0  0
  -22.7663  -29.2575   19.8494 H   0  0  0  0  0  0
  -25.1291  -36.1907   25.0827 H   0  0  0  0  0  0
  -20.9977  -28.3249   24.1432 H   0  0  0  0  0  0
  -20.5667  -26.2287   23.3666 H   0  0  0  0  0  0
  -21.6622  -26.7431   22.1221 H   0  0  0  0  0  0
  -19.6878  -25.6296   21.1257 H   0  0  0  0  0  0
  -19.6646  -27.3207   20.6806 H   0  0  0  0  0  0
  -17.4188  -26.6705   21.4033 H   0  0  0  0  0  0
  -18.0237  -26.0071   22.9030 H   0  0  0  0  0  0
  -19.7921  -30.7252   24.2309 H   0  0  0  0  0  0
  -17.5016  -31.6297   24.5144 H   0  0  0  0  0  0
  -15.5351  -30.3042   23.7631 H   0  0  0  0  0  0
  -15.8651  -28.0854   22.7113 H   0  0  0  0  0  0
  -24.5979  -30.7049   25.7871 H   0  0  0  0  0  0
  -24.8904  -32.2965   26.4759 H   0  0  0  0  0  0
  -25.8129  -30.9133   27.0312 H   0  0  0  0  0  0
  -26.2856  -29.6885   24.1078 H   0  0  0  0  0  0
  -27.3938  -29.7209   25.4605 H   0  0  0  0  0  0
  -27.8772  -30.4360   23.9417 H   0  0  0  0  0  0
  -27.2668  -33.3653   26.2042 H   0  0  0  0  0  0
  -28.3966  -32.6752   25.0452 H   0  0  0  0  0  0
  -28.0603  -31.8484   26.5543 H   0  0  0  0  0  0
  -28.2594  -38.0036   24.7548 H   0  0  0  0  0  0
  -28.1002  -36.2585   24.6281 H   0  0  0  0  0  0
  -27.2274  -37.1430   25.8880 H   0  0  0  0  0  0
  -20.9327  -29.8768   21.6937 H   0  0  0  0  0  0
  -26.0108  -38.2850   24.1539 H   0  0  0  0  0  0
  -27.0708  -18.3346   23.4970 H   0  0  0  0  0  0
  -27.4580  -20.3880   22.4421 H   0  0  0  0  0  0
  -27.2648  -15.4375   22.6929 H   0  0  0  0  0  0
  -27.8528  -16.2218   24.1524 H   0  0  0  0  0  0
  -28.9736  -15.2611   23.2106 H   0  0  0  0  0  0
  -31.5786  -19.0195   19.8005 H   0  0  0  0  0  0
  -30.2496  -19.0924   18.6290 H   0  0  0  0  0  0
  -30.9301  -17.5359   19.1227 H   0  0  0  0  0  0
  -29.4827  -23.6614   19.3962 H   0  0  0  0  0  0
  -30.0856  -24.1657   20.9375 H   0  0  0  0  0  0
  -27.7775  -25.0037   21.6304 H   0  0  0  0  0  0
  -27.1716  -24.5784   20.0901 H   0  0  0  0  0  0
  -29.9400  -21.1985   19.8083 H   0  0  0  0  0  0
  -28.6408  -15.3436   20.5077 H   0  0  0  0  0  0
  1 25  1  0  0  0
  1 30  2  0  0  0
  1 83  1  0  0  0
  2  3  1  0  0  0
  2 25  1  0  0  0
  2 85  1  0  0  0
  2 86  1  0  0  0
  3  4  1  0  0  0
  3 87  1  0  0  0
  3 88  1  0  0  0
  4  5  1  0  0  0
  4 89  1  0  0  0
  4 90  1  0  0  0
  5  6  1  0  0  0
  5 26  1  0  0  0
  5 91  1  0  0  0
  6 25  1  0  0  0
  6 92  1  0  0  0
  6 93  1  0  0  0
  7  8  2  0  0  0
  7 26  1  0  0  0
  7 29  1  0  0  0
  8  9  1  0  0  0
  8 22  1  0  0  0
  9 10  1  0  0  0
  9 27  2  0  0  0
 10 11  2  0  0  0
 10 15  1  0  0  0
 11 12  1  0  0  0
 11 94  1  0  0  0
 12 13  2  0  0  0
 12 95  1  0  0  0
 13 14  1  0  0  0
 13 31  1  0  0  0
 14 15  2  0  0  0
 14 96  1  0  0  0
 15 97  1  0  0  0
 16 17  2  0  0  0
 16 21  1  0  0  0
 16 31  1  0  0  0
 17 18  1  0  0  0
 17 98  1  0  0  0
 18 19  2  0  0  0
 18 99  1  0  0  0
 19 20  1  0  0  0
 19 24  1  0  0  0
 20 21  2  0  0  0
 20100  1  0  0  0
 21 23  1  0  0  0
 22 28  1  0  0  0
 22 32  2  0  0  0
 26 27  1  0  0  0
 28101  1  0  0  0
 28102  1  0  0  0
 29103  1  0  0  0
 29104  1  0  0  0
 33 34  1  0  0  0
 33 66  1  0  0  0
 33 70  2  0  0  0
 34 36  1  0  0  0
 34 59  1  0  0  0
 34105  1  0  0  0
 35 44  2  0  0  0
 35 45  1  0  0  0
 35 68  1  0  0  0
 36 56  1  0  0  0
 36106  1  0  0  0
 37 39  1  0  0  0
 37 47  1  0  0  0
 37 66  1  0  0  0
 37107  1  0  0  0
 38 43  2  0  0  0
 38 46  1  0  0  0
 38 47  1  0  0  0
 39 64  1  0  0  0
 39 67  2  0  0  0
 40 52  1  0  0  0
 40 53  2  0  0  0
 40 58  1  0  0  0
 41108  1  0  0  0
 41109  1  0  0  0
 41110  1  0  0  0
 41 48  1  0  0  0
 42 43  1  0  0  0
 42 66  1  0  0  0
 42111  1  0  0  0
 42112  1  0  0  0
 43 44  1  0  0  0
 44113  1  0  0  0
 45 46  2  0  0  0
 45114  1  0  0  0
 46115  1  0  0  0
 47116  1  0  0  0
 47117  1  0  0  0
 48 56  1  0  0  0
 48 65  1  0  0  0
 48118  1  0  0  0
 49 50  1  0  0  0
 49 53  1  0  0  0
 49 64  1  0  0  0
 49119  1  0  0  0
 50 51  1  0  0  0
 50120  1  0  0  0
 50121  1  0  0  0
 51 52  1  0  0  0
 51122  1  0  0  0
 51123  1  0  0  0
 52124  1  0  0  0
 52125  1  0  0  0
 53 54  1  0  0  0
 54 55  2  0  0  0
 54126  1  0  0  0
 55 57  1  0  0  0
 55127  1  0  0  0
 56 69  2  0  0  0
 57 58  2  0  0  0
 57128  1  0  0  0
 58129  1  0  0  0
 59 60  1  0  0  0
 59 61  1  0  0  0
 59 62  1  0  0  0
 60130  1  0  0  0
 60131  1  0  0  0
 60132  1  0  0  0
 61133  1  0  0  0
 61134  1  0  0  0
 61135  1  0  0  0
 62136  1  0  0  0
 62137  1  0  0  0
 62138  1  0  0  0
 63 65  1  0  0  0
 63139  1  0  0  0
 63140  1  0  0  0
 63141  1  0  0  0
 64142  1  0  0  0
 65143  1  0  0  0
 68 81  1  0  0  0
 71 72  2  0  0  0
 71 73  1  0  0  0
 71144  1  0  0  0
 72 75  1  0  0  0
 72145  1  0  0  0
 73 76  2  0  0  0
 73 78  1  0  0  0
 74 75  2  0  0  0
 74 76  1  0  0  0
 74 79  1  0  0  0
 75 82  1  0  0  0
 76 83  1  0  0  0
 77 80  1  0  0  0
 77 82  1  0  0  0
 77 84  2  0  0  0
 78146  1  0  0  0
 78147  1  0  0  0
 78148  1  0  0  0
 79149  1  0  0  0
 79150  1  0  0  0
 79151  1  0  0  0
 80 81  1  0  0  0
 80152  1  0  0  0
 80153  1  0  0  0
 81154  1  0  0  0
 81155  1  0  0  0
 82156  1  0  0  0
 83157  1  0  0  0
M  ISO  4   1 100  68 101  81 101  83 100
M  END
> <chiral flag>
0

> <version>
0

> <s_m_source_file>
/data/baiqing/PycharmProjects/Reinvent-master-3.2/result/LINK_invent/BTK/process_docking_weight1_custom_sum_contain_oxygen_bond_distance_aromatic_linkinvent_7_9_3/rearranged_h_0013.sdf

> <i_m_source_file_index>
6

> <r_mmod_Potential_Energy-OPLS-2005>
212.571899414062

> <r_mmod_Stretch_Energy-OPLS-2005>
142.836456298828

> <r_mmod_Bend_Energy-OPLS-2005>
195.277236938477

> <r_mmod_Torsional_Energy-OPLS-2005>
284.415466308594

> <r_mmod_Improper_Torsional_Energy-OPLS-2005>
17.0027465820312

> <r_mmod_Van_der_Waal_Energy-OPLS-2005>
145.602233886719

> <r_mmod_Electrostatic_Energy-OPLS-2005>
-448.248199462891

> <r_mmod_Solvation_Energy-OPLS-2005>
-223.830718994141

> <b_mmod_Minimization_Converged-OPLS-2005>
0

> <r_mmod_RMS_Derivative-OPLS-2005>
6.51257085800171

$$$$
6
                    3D
 Structure written by MMmdl.
157165  0  0  1  0            999 V2000
  -30.5623  -14.7386   20.5076 C   0  0  0  0  0  0
  -30.4470  -12.4660   19.4527 C   0  0  0  0  0  0
  -29.5134  -12.5302   18.2237 C   0  0  0  0  0  0
  -28.0359  -12.3536   18.6290 C   0  0  0  0  0  0
  -27.6438  -13.2224   19.8547 C   0  0  2  0  0  0
  -28.6907  -13.1102   20.9821 C   0  0  0  0  0  0
  -25.2510  -13.8168   20.5625 C   0  0  0  0  0  0
  -24.1798  -13.0433   20.9175 C   0  0  0  0  0  0
  -24.6380  -11.6912   20.8757 C   0  0  0  0  0  0
  -23.9058  -10.4291   21.0450 C   0  0  0  0  0  0
  -24.3631   -9.4191   21.9194 C   0  0  0  0  0  0
  -23.6303   -8.2241   22.0769 C   0  0  0  0  0  0
  -22.4271   -8.0290   21.3582 C   0  0  0  0  0  0
  -21.9927   -9.0252   20.4665 C   0  0  0  0  0  0
  -22.7261  -10.2128   20.3072 C   0  0  0  0  0  0
  -21.6857   -6.0749   22.5288 C   0  0  0  0  0  0
  -21.4020   -6.5648   23.8212 C   0  0  0  0  0  0
  -21.3645   -5.6794   24.9175 C   0  0  0  0  0  0
  -21.6063   -4.3061   24.7229 C   0  0  0  0  0  0
  -21.8822   -3.8147   23.4340 C   0  0  0  0  0  0
  -21.9179   -4.6971   22.3395 C   0  0  0  0  0  0
  -22.7813  -13.5227   21.1824 C   0  0  0  0  0  0
  -22.1656   -4.2156   21.0971 F   0  0  0  0  0  0
  -21.5633   -3.4531   25.7733 F   0  0  0  0  0  0
  -29.9843  -13.4959   20.4069 N   0  0  0  0  0  0
  -26.2946  -12.9362   20.3262 N   0  0  0  0  0  0
  -25.9303  -11.6523   20.5750 N   0  0  0  0  0  0
  -22.0438  -12.8258   22.0404 N   0  0  0  0  0  0
  -25.4153  -15.1903   20.3967 N   0  0  0  0  0  0
  -31.7589  -14.8879   20.2347 O   0  0  0  0  0  0
  -21.6644   -6.8899   21.4252 O   0  0  0  0  0  0
  -22.3497  -14.5521   20.6633 O   0  0  0  0  0  0
  -24.6322  -31.8541   23.1977 C   0  0  0  0  0  0
  -25.9159  -32.4747   23.8325 C   0  0  1  0  0  0
  -27.2149  -27.2452   20.1481 C   0  0  0  0  0  0
  -25.5982  -33.8556   24.2272 N   0  0  0  0  0  0
  -23.4311  -30.4738   21.5402 C   0  0  2  0  0  0
  -24.8811  -28.9142   20.1129 C   0  0  0  0  0  0
  -22.7497  -29.4584   22.4901 C   0  0  0  0  0  0
  -18.0289  -28.1381   22.8458 C   0  0  0  0  0  0
  -24.1513  -36.7262   23.2633 C   0  0  0  0  0  0
  -25.9770  -30.7633   21.3788 C   0  0  0  0  0  0
  -26.0518  -29.3823   20.7256 C   0  0  0  0  0  0
  -27.2247  -28.5604   20.7302 C   0  0  0  0  0  0
  -26.0297  -26.8482   19.4996 C   0  0  0  0  0  0
  -24.8754  -27.6582   19.4857 C   0  0  0  0  0  0
  -23.6545  -29.8047   20.1571 C   0  0  0  0  0  0
  -25.4147  -36.3062   24.0314 C   0  0  1  0  0  0
  -20.5900  -28.3696   23.1263 C   0  0  2  0  0  0
  -20.6786  -26.9411   22.5413 C   0  0  0  0  0  0
  -19.5773  -26.6373   21.5205 C   0  0  0  0  0  0
  -18.1947  -26.7931   22.1596 C   0  0  0  0  0  0
  -19.1539  -28.8853   23.2860 C   0  0  0  0  0  0
  -18.9454  -30.1458   23.8874 C   0  0  0  0  0  0
  -17.6448  -30.6584   24.0550 C   0  0  0  0  0  0
  -25.9062  -34.9433   23.5075 C   0  0  0  0  0  0
  -16.5349  -29.9069   23.6328 C   0  0  0  0  0  0
  -16.7271  -28.6497   23.0332 C   0  0  0  0  0  0
  -26.4538  -31.6567   25.0706 C   0  0  0  0  0  0
  -25.3762  -31.3670   26.1405 C   0  0  0  0  0  0
  -27.0378  -30.3000   24.6156 C   0  0  0  0  0  0
  -27.6110  -32.4267   25.7488 C   0  0  0  0  0  0
  -27.5595  -37.1785   24.8448 C   0  0  0  0  0  0
  -21.4207  -29.3032   22.3637 N   0  0  0  0  0  0
  -26.4310  -37.3777   23.9389 N   0  0  0  0  0  0
  -24.6993  -31.0492   22.0955 N   0  0  0  0  0  0
  -23.4204  -28.8112   23.2999 O   0  0  0  0  0  0
  -28.3010  -26.3413   20.1681 O   0  0  0  0  0  0
  -26.5597  -34.8902   22.4624 O   0  0  0  0  0  0
  -23.5469  -32.1364   23.7267 O   0  0  0  0  0  0
  -29.6921  -19.8454   22.2929 C   0  0  0  0  0  0
  -29.4548  -18.3782   20.3767 C   0  0  0  0  0  0
  -29.3848  -19.7288   20.9182 C   0  0  0  0  0  0
  -30.0160  -18.7182   23.0903 C   0  0  0  0  0  0
  -30.0672  -17.4047   22.5356 C   0  0  0  0  0  0
  -29.8142  -17.1985   21.1485 C   0  0  0  0  0  0
  -29.0388  -21.0059   20.0754 C   0  0  0  0  0  0
  -30.2766  -18.9557   24.5752 C   0  0  0  0  0  0
  -30.3038  -16.1936   23.4413 C   0  0  0  0  0  0
  -28.5811  -23.5973   19.9054 C   0  0  0  0  0  0
  -28.1026  -24.9374   20.6984 C   0  0  0  0  0  0
  -29.6878  -15.8117   20.6389 N   0  0  0  0  0  0
  -28.7882  -22.2542   20.6342 N   0  0  0  0  0  0
  -28.9918  -20.8783   18.8503 O   0  0  0  0  0  0
  -31.4826  -12.6264   19.1504 H   0  0  0  0  0  0
  -30.4196  -11.4759   19.9084 H   0  0  0  0  0  0
  -29.7941  -11.7763   17.4880 H   0  0  0  0  0  0
  -29.6324  -13.4967   17.7296 H   0  0  0  0  0  0
  -27.8698  -11.2990   18.8507 H   0  0  0  0  0  0
  -27.3937  -12.5915   17.7806 H   0  0  0  0  0  0
  -27.6458  -14.2527   19.4964 H   0  0  0  0  0  0
  -28.7361  -12.0924   21.3713 H   0  0  0  0  0  0
  -28.4274  -13.7425   21.8304 H   0  0  0  0  0  0
  -25.2791   -9.5670   22.4749 H   0  0  0  0  0  0
  -24.0019   -7.4639   22.7511 H   0  0  0  0  0  0
  -21.0860   -8.8789   19.8951 H   0  0  0  0  0  0
  -22.3741  -10.9686   19.6189 H   0  0  0  0  0  0
  -21.2006   -7.6158   23.9726 H   0  0  0  0  0  0
  -21.1493   -6.0527   25.9093 H   0  0  0  0  0  0
  -22.0604   -2.7613   23.2833 H   0  0  0  0  0  0
  -22.4046  -11.9921   22.4822 H   0  0  0  0  0  0
  -21.1068  -13.1330   22.2576 H   0  0  0  0  0  0
  -24.6358  -15.8337   20.4834 H   0  0  0  0  0  0
  -26.2397  -15.6280   20.0079 H   0  0  0  0  0  0
  -26.7218  -32.5412   23.1048 H   0  0  0  0  0  0
  -25.0249  -33.9730   25.0501 H   0  0  0  0  0  0
  -22.7291  -31.2966   21.3893 H   0  0  0  0  0  0
  -23.3793  -35.9563   23.3259 H   0  0  0  0  0  0
  -24.3597  -36.8925   22.2043 H   0  0  0  0  0  0
  -23.7223  -37.6443   23.6678 H   0  0  0  0  0  0
  -26.1132  -31.5201   20.6055 H   0  0  0  0  0  0
  -26.8572  -30.8191   22.0096 H   0  0  0  0  0  0
  -28.1234  -28.9088   21.2224 H   0  0  0  0  0  0
  -25.9900  -25.8858   19.0095 H   0  0  0  0  0  0
  -23.9824  -27.2993   18.9943 H   0  0  0  0  0  0
  -23.7864  -30.5796   19.4011 H   0  0  0  0  0  0
  -22.7733  -29.2397   19.8463 H   0  0  0  0  0  0
  -25.1325  -36.1907   25.0808 H   0  0  0  0  0  0
  -20.9994  -28.3279   24.1384 H   0  0  0  0  0  0
  -20.5704  -26.2285   23.3609 H   0  0  0  0  0  0
  -21.6655  -26.7440   22.1197 H   0  0  0  0  0  0
  -19.6943  -25.6279   21.1242 H   0  0  0  0  0  0
  -19.6743  -27.3168   20.6731 H   0  0  0  0  0  0
  -17.4234  -26.6664   21.3995 H   0  0  0  0  0  0
  -18.0340  -26.0090   22.9004 H   0  0  0  0  0  0
  -19.7928  -30.7279   24.2248 H   0  0  0  0  0  0
  -17.4998  -31.6263   24.5133 H   0  0  0  0  0  0
  -15.5343  -30.2945   23.7686 H   0  0  0  0  0  0
  -15.8679  -28.0819   22.7035 H   0  0  0  0  0  0
  -24.5999  -30.6956   25.7710 H   0  0  0  0  0  0
  -24.8875  -32.2805   26.4800 H   0  0  0  0  0  0
  -25.8096  -30.8879   27.0191 H   0  0  0  0  0  0
  -26.2943  -29.6725   24.1221 H   0  0  0  0  0  0
  -27.4125  -29.7272   25.4649 H   0  0  0  0  0  0
  -27.8796  -30.4284   23.9347 H   0  0  0  0  0  0
  -27.2773  -33.3583   26.2053 H   0  0  0  0  0  0
  -28.3953  -32.6766   25.0338 H   0  0  0  0  0  0
  -28.0727  -31.8365   26.5408 H   0  0  0  0  0  0
  -28.2568  -38.0133   24.7570 H   0  0  0  0  0  0
  -28.1142  -36.2654   24.6204 H   0  0  0  0  0  0
  -27.2290  -37.1338   25.8848 H   0  0  0  0  0  0
  -20.9389  -29.8758   21.6843 H   0  0  0  0  0  0
  -26.0173  -38.2832   24.1455 H   0  0  0  0  0  0
  -29.6667  -20.8207   22.7575 H   0  0  0  0  0  0
  -29.2065  -18.2446   19.3328 H   0  0  0  0  0  0
  -30.2428  -20.0145   24.8330 H   0  0  0  0  0  0
  -31.2599  -18.5840   24.8657 H   0  0  0  0  0  0
  -29.5253  -18.4524   25.1855 H   0  0  0  0  0  0
  -31.1845  -15.6358   23.1234 H   0  0  0  0  0  0
  -29.4468  -15.5220   23.3899 H   0  0  0  0  0  0
  -30.4431  -16.4325   24.4941 H   0  0  0  0  0  0
  -29.5245  -23.8322   19.4159 H   0  0  0  0  0  0
  -27.8752  -23.4227   19.0951 H   0  0  0  0  0  0
  -28.6361  -24.9360   21.6480 H   0  0  0  0  0  0
  -27.0577  -24.8066   20.9812 H   0  0  0  0  0  0
  -28.7276  -15.5173   20.5615 H   0  0  0  0  0  0
  -28.8073  -22.3040   21.6434 H   0  0  0  0  0  0
  1 25  1  0  0  0
  1 30  2  0  0  0
  1 82  1  0  0  0
  2  3  1  0  0  0
  2 25  1  0  0  0
  2 85  1  0  0  0
  2 86  1  0  0  0
  3  4  1  0  0  0
  3 87  1  0  0  0
  3 88  1  0  0  0
  4  5  1  0  0  0
  4 89  1  0  0  0
  4 90  1  0  0  0
  5  6  1  0  0  0
  5 26  1  0  0  0
  5 91  1  0  0  0
  6 25  1  0  0  0
  6 92  1  0  0  0
  6 93  1  0  0  0
  7  8  2  0  0  0
  7 26  1  0  0  0
  7 29  1  0  0  0
  8  9  1  0  0  0
  8 22  1  0  0  0
  9 10  1  0  0  0
  9 27  2  0  0  0
 10 11  2  0  0  0
 10 15  1  0  0  0
 11 12  1  0  0  0
 11 94  1  0  0  0
 12 13  2  0  0  0
 12 95  1  0  0  0
 13 14  1  0  0  0
 13 31  1  0  0  0
 14 15  2  0  0  0
 14 96  1  0  0  0
 15 97  1  0  0  0
 16 17  2  0  0  0
 16 21  1  0  0  0
 16 31  1  0  0  0
 17 18  1  0  0  0
 17 98  1  0  0  0
 18 19  2  0  0  0
 18 99  1  0  0  0
 19 20  1  0  0  0
 19 24  1  0  0  0
 20 21  2  0  0  0
 20100  1  0  0  0
 21 23  1  0  0  0
 22 28  1  0  0  0
 22 32  2  0  0  0
 26 27  1  0  0  0
 28101  1  0  0  0
 28102  1  0  0  0
 29103  1  0  0  0
 29104  1  0  0  0
 33 34  1  0  0  0
 33 66  1  0  0  0
 33 70  2  0  0  0
 34 36  1  0  0  0
 34 59  1  0  0  0
 34105  1  0  0  0
 35 44  2  0  0  0
 35 45  1  0  0  0
 35 68  1  0  0  0
 36 56  1  0  0  0
 36106  1  0  0  0
 37 39  1  0  0  0
 37 47  1  0  0  0
 37 66  1  0  0  0
 37107  1  0  0  0
 38 43  2  0  0  0
 38 46  1  0  0  0
 38 47  1  0  0  0
 39 64  1  0  0  0
 39 67  2  0  0  0
 40 52  1  0  0  0
 40 53  2  0  0  0
 40 58  1  0  0  0
 41108  1  0  0  0
 41109  1  0  0  0
 41110  1  0  0  0
 41 48  1  0  0  0
 42 43  1  0  0  0
 42 66  1  0  0  0
 42111  1  0  0  0
 42112  1  0  0  0
 43 44  1  0  0  0
 44113  1  0  0  0
 45 46  2  0  0  0
 45114  1  0  0  0
 46115  1  0  0  0
 47116  1  0  0  0
 47117  1  0  0  0
 48 56  1  0  0  0
 48 65  1  0  0  0
 48118  1  0  0  0
 49 50  1  0  0  0
 49 53  1  0  0  0
 49 64  1  0  0  0
 49119  1  0  0  0
 50 51  1  0  0  0
 50120  1  0  0  0
 50121  1  0  0  0
 51 52  1  0  0  0
 51122  1  0  0  0
 51123  1  0  0  0
 52124  1  0  0  0
 52125  1  0  0  0
 53 54  1  0  0  0
 54 55  2  0  0  0
 54126  1  0  0  0
 55 57  1  0  0  0
 55127  1  0  0  0
 56 69  2  0  0  0
 57 58  2  0  0  0
 57128  1  0  0  0
 58129  1  0  0  0
 59 60  1  0  0  0
 59 61  1  0  0  0
 59 62  1  0  0  0
 60130  1  0  0  0
 60131  1  0  0  0
 60132  1  0  0  0
 61133  1  0  0  0
 61134  1  0  0  0
 61135  1  0  0  0
 62136  1  0  0  0
 62137  1  0  0  0
 62138  1  0  0  0
 63 65  1  0  0  0
 63139  1  0  0  0
 63140  1  0  0  0
 63141  1  0  0  0
 64142  1  0  0  0
 65143  1  0  0  0
 68 81  1  0  0  0
 71 73  2  0  0  0
 71 74  1  0  0  0
 71144  1  0  0  0
 72 73  1  0  0  0
 72 76  2  0  0  0
 72145  1  0  0  0
 73 77  1  0  0  0
 74 75  2  0  0  0
 74 78  1  0  0  0
 75 76  1  0  0  0
 75 79  1  0  0  0
 76 82  1  0  0  0
 77 83  1  0  0  0
 77 84  2  0  0  0
 78146  1  0  0  0
 78147  1  0  0  0
 78148  1  0  0  0
 79149  1  0  0  0
 79150  1  0  0  0
 79151  1  0  0  0
 80 81  1  0  0  0
 80 83  1  0  0  0
 80152  1  0  0  0
 80153  1  0  0  0
 81154  1  0  0  0
 81155  1  0  0  0
 82156  1  0  0  0
 83157  1  0  0  0
M  ISO  4   1 100  68 101  81 101  82 100
M  END
> <chiral flag>
0

> <version>
0

> <s_m_source_file>
/data/baiqing/PycharmProjects/Reinvent-master-3.2/result/LINK_invent/BTK/process_docking_weight1_custom_sum_contain_oxygen_bond_distance_aromatic_linkinvent_7_9_3/rearranged_h_0013.sdf

> <i_m_source_file_index>
7

> <r_mmod_Potential_Energy-OPLS-2005>
95.0853652954102

> <r_mmod_Stretch_Energy-OPLS-2005>
129.203018188477

> <r_mmod_Bend_Energy-OPLS-2005>
164.291381835938

> <r_mmod_Torsional_Energy-OPLS-2005>
269.918579101562

> <r_mmod_Improper_Torsional_Energy-OPLS-2005>
9.30842208862305

> <r_mmod_Van_der_Waal_Energy-OPLS-2005>
138.998992919922

> <r_mmod_Electrostatic_Energy-OPLS-2005>
-469.689331054688

> <r_mmod_Solvation_Energy-OPLS-2005>
-236.47004699707

> <b_mmod_Minimization_Converged-OPLS-2005>
0

> <r_mmod_RMS_Derivative-OPLS-2005>
4.17665958404541

$$$$
7
                    3D
 Structure written by MMmdl.
151159  0  0  1  0            999 V2000
  -30.6197  -14.7090   20.4508 C   0  0  0  0  0  0
  -30.4306  -12.4261   19.4803 C   0  0  0  0  0  0
  -29.5116  -12.5017   18.2403 C   0  0  0  0  0  0
  -28.0356  -12.3360   18.6492 C   0  0  0  0  0  0
  -27.6465  -13.2298   19.8570 C   0  0  2  0  0  0
  -28.6883  -13.1453   20.9952 C   0  0  0  0  0  0
  -25.2526  -13.8198   20.5694 C   0  0  0  0  0  0
  -24.1808  -13.0446   20.9197 C   0  0  0  0  0  0
  -24.6395  -11.6922   20.8742 C   0  0  0  0  0  0
  -23.9070  -10.4298   21.0403 C   0  0  0  0  0  0
  -24.3621   -9.4212   21.9181 C   0  0  0  0  0  0
  -23.6295   -8.2247   22.0752 C   0  0  0  0  0  0
  -22.4276   -8.0283   21.3544 C   0  0  0  0  0  0
  -21.9913   -9.0257   20.4647 C   0  0  0  0  0  0
  -22.7241  -10.2136   20.3054 C   0  0  0  0  0  0
  -21.6854   -6.0736   22.5278 C   0  0  0  0  0  0
  -21.4017   -6.5640   23.8211 C   0  0  0  0  0  0
  -21.3659   -5.6793   24.9173 C   0  0  0  0  0  0
  -21.6044   -4.3056   24.7224 C   0  0  0  0  0  0
  -21.8819   -3.8148   23.4345 C   0  0  0  0  0  0
  -21.9193   -4.6964   22.3402 C   0  0  0  0  0  0
  -22.7829  -13.5229   21.1858 C   0  0  0  0  0  0
  -22.1661   -4.2149   21.0979 F   0  0  0  0  0  0
  -21.5628   -3.4540   25.7738 F   0  0  0  0  0  0
  -29.9990  -13.4818   20.4251 N   0  0  0  0  0  0
  -26.2957  -12.9404   20.3300 N   0  0  0  0  0  0
  -25.9328  -11.6547   20.5759 N   0  0  0  0  0  0
  -22.0476  -12.8220   22.0416 N   0  0  0  0  0  0
  -25.4232  -15.1920   20.4116 N   0  0  0  0  0  0
  -31.7986  -14.8132   20.1008 O   0  0  0  0  0  0
  -21.6642   -6.8879   21.4239 O   0  0  0  0  0  0
  -22.3511  -14.5533   20.6703 O   0  0  0  0  0  0
  -24.6298  -31.8569   23.2007 C   0  0  0  0  0  0
  -25.9132  -32.4762   23.8344 C   0  0  1  0  0  0
  -27.2167  -27.2741   20.1233 C   0  0  0  0  0  0
  -25.5933  -33.8565   24.2266 N   0  0  0  0  0  0
  -23.4255  -30.4812   21.5435 C   0  0  2  0  0  0
  -24.8720  -28.9342   20.1069 C   0  0  0  0  0  0
  -22.7495  -29.4609   22.4913 C   0  0  0  0  0  0
  -18.0291  -28.1388   22.8484 C   0  0  0  0  0  0
  -24.1490  -36.7287   23.2639 C   0  0  0  0  0  0
  -25.9709  -30.7723   21.3810 C   0  0  0  0  0  0
  -26.0420  -29.3969   20.7218 C   0  0  0  0  0  0
  -27.2146  -28.5771   20.7241 C   0  0  0  0  0  0
  -26.0287  -26.8898   19.4581 C   0  0  0  0  0  0
  -24.8703  -27.6884   19.4644 C   0  0  0  0  0  0
  -23.6426  -29.8192   20.1578 C   0  0  0  0  0  0
  -25.4116  -36.3075   24.0327 C   0  0  1  0  0  0
  -20.5894  -28.3698   23.1270 C   0  0  2  0  0  0
  -20.6779  -26.9417   22.5407 C   0  0  0  0  0  0
  -19.5753  -26.6384   21.5211 C   0  0  0  0  0  0
  -18.1934  -26.7930   22.1624 C   0  0  0  0  0  0
  -19.1545  -28.8859   23.2872 C   0  0  0  0  0  0
  -18.9466  -30.1459   23.8893 C   0  0  0  0  0  0
  -17.6465  -30.6588   24.0563 C   0  0  0  0  0  0
  -25.9056  -34.9444   23.5098 C   0  0  0  0  0  0
  -16.5357  -29.9087   23.6330 C   0  0  0  0  0  0
  -16.7278  -28.6504   23.0352 C   0  0  0  0  0  0
  -26.4503  -31.6584   25.0729 C   0  0  0  0  0  0
  -25.3725  -31.3732   26.1447 C   0  0  0  0  0  0
  -27.0354  -30.3002   24.6214 C   0  0  0  0  0  0
  -27.6057  -32.4325   25.7502 C   0  0  0  0  0  0
  -27.5579  -37.1801   24.8466 C   0  0  0  0  0  0
  -21.4204  -29.3046   22.3659 N   0  0  0  0  0  0
  -26.4292  -37.3773   23.9407 N   0  0  0  0  0  0
  -24.6942  -31.0545   22.0979 N   0  0  0  0  0  0
  -23.4203  -28.8145   23.3004 O   0  0  0  0  0  0
  -28.3111  -26.3825   20.2107 O   0  0  0  0  0  0
  -26.5627  -34.8917   22.4666 O   0  0  0  0  0  0
  -23.5451  -32.1388   23.7308 O   0  0  0  0  0  0
  -29.8380  -19.6057   18.5383 C   0  0  0  0  0  0
  -29.6101  -19.7028   19.9295 C   0  0  0  0  0  0
  -29.8953  -17.1494   20.0265 C   0  0  0  0  0  0
  -30.0707  -18.3747   17.9011 C   0  0  0  0  0  0
  -29.6323  -18.4377   20.6571 C   0  0  0  0  0  0
  -30.0921  -17.1674   18.6233 C   0  0  0  0  0  0
  -29.4037  -21.1164   20.5310 C   0  0  0  0  0  0
  -29.0291  -22.3169   19.9375 C   0  0  0  0  0  0
  -29.0149  -23.7694   20.5760 C   0  0  0  0  0  0
  -28.1252  -24.9263   19.8915 C   0  0  0  0  0  0
  -29.8626  -15.8353   20.7159 N   0  0  0  0  0  0
  -30.2727  -18.3532   16.5617 F   0  0  0  0  0  0
  -29.4056  -18.4600   21.9927 F   0  0  0  0  0  0
  -30.2621  -16.0150   17.9302 F   0  0  0  0  0  0
  -28.6408  -22.2704   18.6525 F   0  0  0  0  0  0
  -31.4743  -12.5374   19.1815 H   0  0  0  0  0  0
  -30.3607  -11.4451   19.9527 H   0  0  0  0  0  0
  -29.7878  -11.7322   17.5182 H   0  0  0  0  0  0
  -29.6483  -13.4581   17.7341 H   0  0  0  0  0  0
  -27.8824  -11.2864   18.9028 H   0  0  0  0  0  0
  -27.3819  -12.5413   17.8008 H   0  0  0  0  0  0
  -27.6492  -14.2551   19.4861 H   0  0  0  0  0  0
  -28.7089  -12.1444   21.4286 H   0  0  0  0  0  0
  -28.4274  -13.8233   21.8090 H   0  0  0  0  0  0
  -25.2766   -9.5690   22.4755 H   0  0  0  0  0  0
  -24.0006   -7.4638   22.7472 H   0  0  0  0  0  0
  -21.0844   -8.8775   19.8952 H   0  0  0  0  0  0
  -22.3698  -10.9674   19.6164 H   0  0  0  0  0  0
  -21.2011   -7.6148   23.9715 H   0  0  0  0  0  0
  -21.1482   -6.0523   25.9076 H   0  0  0  0  0  0
  -22.0598   -2.7610   23.2845 H   0  0  0  0  0  0
  -22.4100  -11.9888   22.4810 H   0  0  0  0  0  0
  -21.1091  -13.1239   22.2618 H   0  0  0  0  0  0
  -24.6567  -15.8470   20.5213 H   0  0  0  0  0  0
  -26.2725  -15.6302   20.0795 H   0  0  0  0  0  0
  -26.7196  -32.5416   23.1085 H   0  0  0  0  0  0
  -25.0076  -33.9705   25.0408 H   0  0  0  0  0  0
  -22.7213  -31.3034   21.4002 H   0  0  0  0  0  0
  -23.3752  -35.9619   23.3301 H   0  0  0  0  0  0
  -24.3579  -36.8910   22.2053 H   0  0  0  0  0  0
  -23.7244  -37.6489   23.6662 H   0  0  0  0  0  0
  -26.1108  -31.5338   20.6126 H   0  0  0  0  0  0
  -26.8482  -30.8190   22.0144 H   0  0  0  0  0  0
  -28.1065  -28.9218   21.2284 H   0  0  0  0  0  0
  -25.9579  -25.9507   18.9310 H   0  0  0  0  0  0
  -23.9781  -27.3344   18.9664 H   0  0  0  0  0  0
  -23.7665  -30.5976   19.4040 H   0  0  0  0  0  0
  -22.7609  -29.2531   19.8516 H   0  0  0  0  0  0
  -25.1298  -36.1925   25.0820 H   0  0  0  0  0  0
  -20.9988  -28.3278   24.1390 H   0  0  0  0  0  0
  -20.5678  -26.2311   23.3612 H   0  0  0  0  0  0
  -21.6648  -26.7441   22.1203 H   0  0  0  0  0  0
  -19.6916  -25.6294   21.1245 H   0  0  0  0  0  0
  -19.6689  -27.3191   20.6738 H   0  0  0  0  0  0
  -17.4203  -26.6674   21.4029 H   0  0  0  0  0  0
  -18.0337  -26.0074   22.9024 H   0  0  0  0  0  0
  -19.7943  -30.7274   24.2263 H   0  0  0  0  0  0
  -17.5021  -31.6268   24.5165 H   0  0  0  0  0  0
  -15.5357  -30.2988   23.7654 H   0  0  0  0  0  0
  -15.8678  -28.0821   22.7069 H   0  0  0  0  0  0
  -24.5906  -30.7074   25.7774 H   0  0  0  0  0  0
  -24.8907  -32.2900   26.4855 H   0  0  0  0  0  0
  -25.8040  -30.8922   27.0234 H   0  0  0  0  0  0
  -26.2940  -29.6745   24.1230 H   0  0  0  0  0  0
  -27.4028  -29.7269   25.4736 H   0  0  0  0  0  0
  -27.8821  -30.4278   23.9466 H   0  0  0  0  0  0
  -27.2665  -33.3629   26.2068 H   0  0  0  0  0  0
  -28.3874  -32.6877   25.0335 H   0  0  0  0  0  0
  -28.0717  -31.8457   26.5429 H   0  0  0  0  0  0
  -28.2599  -38.0095   24.7509 H   0  0  0  0  0  0
  -28.1073  -36.2627   24.6297 H   0  0  0  0  0  0
  -27.2295  -37.1457   25.8869 H   0  0  0  0  0  0
  -20.9386  -29.8778   21.6874 H   0  0  0  0  0  0
  -26.0172  -38.2848   24.1402 H   0  0  0  0  0  0
  -29.8675  -20.4872   17.9191 H   0  0  0  0  0  0
  -29.6586  -21.1737   21.5795 H   0  0  0  0  0  0
  -30.0520  -24.1040   20.5759 H   0  0  0  0  0  0
  -28.7346  -23.6802   21.6256 H   0  0  0  0  0  0
  -27.1019  -24.6328   20.1222 H   0  0  0  0  0  0
  -28.2268  -24.8412   18.8090 H   0  0  0  0  0  0
  -29.0297  -15.6718   21.2598 H   0  0  0  0  0  0
  1 25  1  0  0  0
  1 30  2  0  0  0
  1 81  1  0  0  0
  2  3  1  0  0  0
  2 25  1  0  0  0
  2 86  1  0  0  0
  2 87  1  0  0  0
  3  4  1  0  0  0
  3 88  1  0  0  0
  3 89  1  0  0  0
  4  5  1  0  0  0
  4 90  1  0  0  0
  4 91  1  0  0  0
  5  6  1  0  0  0
  5 26  1  0  0  0
  5 92  1  0  0  0
  6 25  1  0  0  0
  6 93  1  0  0  0
  6 94  1  0  0  0
  7  8  2  0  0  0
  7 26  1  0  0  0
  7 29  1  0  0  0
  8  9  1  0  0  0
  8 22  1  0  0  0
  9 10  1  0  0  0
  9 27  2  0  0  0
 10 11  2  0  0  0
 10 15  1  0  0  0
 11 12  1  0  0  0
 11 95  1  0  0  0
 12 13  2  0  0  0
 12 96  1  0  0  0
 13 14  1  0  0  0
 13 31  1  0  0  0
 14 15  2  0  0  0
 14 97  1  0  0  0
 15 98  1  0  0  0
 16 17  2  0  0  0
 16 21  1  0  0  0
 16 31  1  0  0  0
 17 18  1  0  0  0
 17 99  1  0  0  0
 18 19  2  0  0  0
 18100  1  0  0  0
 19 20  1  0  0  0
 19 24  1  0  0  0
 20 21  2  0  0  0
 20101  1  0  0  0
 21 23  1  0  0  0
 22 28  1  0  0  0
 22 32  2  0  0  0
 26 27  1  0  0  0
 28102  1  0  0  0
 28103  1  0  0  0
 29104  1  0  0  0
 29105  1  0  0  0
 33 34  1  0  0  0
 33 66  1  0  0  0
 33 70  2  0  0  0
 34 36  1  0  0  0
 34 59  1  0  0  0
 34106  1  0  0  0
 35 44  2  0  0  0
 35 45  1  0  0  0
 35 68  1  0  0  0
 36 56  1  0  0  0
 36107  1  0  0  0
 37 39  1  0  0  0
 37 47  1  0  0  0
 37 66  1  0  0  0
 37108  1  0  0  0
 38 43  2  0  0  0
 38 46  1  0  0  0
 38 47  1  0  0  0
 39 64  1  0  0  0
 39 67  2  0  0  0
 40 52  1  0  0  0
 40 53  2  0  0  0
 40 58  1  0  0  0
 41109  1  0  0  0
 41110  1  0  0  0
 41111  1  0  0  0
 41 48  1  0  0  0
 42 43  1  0  0  0
 42 66  1  0  0  0
 42112  1  0  0  0
 42113  1  0  0  0
 43 44  1  0  0  0
 44114  1  0  0  0
 45 46  2  0  0  0
 45115  1  0  0  0
 46116  1  0  0  0
 47117  1  0  0  0
 47118  1  0  0  0
 48 56  1  0  0  0
 48 65  1  0  0  0
 48119  1  0  0  0
 49 50  1  0  0  0
 49 53  1  0  0  0
 49 64  1  0  0  0
 49120  1  0  0  0
 50 51  1  0  0  0
 50121  1  0  0  0
 50122  1  0  0  0
 51 52  1  0  0  0
 51123  1  0  0  0
 51124  1  0  0  0
 52125  1  0  0  0
 52126  1  0  0  0
 53 54  1  0  0  0
 54 55  2  0  0  0
 54127  1  0  0  0
 55 57  1  0  0  0
 55128  1  0  0  0
 56 69  2  0  0  0
 57 58  2  0  0  0
 57129  1  0  0  0
 58130  1  0  0  0
 59 60  1  0  0  0
 59 61  1  0  0  0
 59 62  1  0  0  0
 60131  1  0  0  0
 60132  1  0  0  0
 60133  1  0  0  0
 61134  1  0  0  0
 61135  1  0  0  0
 61136  1  0  0  0
 62137  1  0  0  0
 62138  1  0  0  0
 62139  1  0  0  0
 63 65  1  0  0  0
 63140  1  0  0  0
 63141  1  0  0  0
 63142  1  0  0  0
 64143  1  0  0  0
 65144  1  0  0  0
 68 80  1  0  0  0
 71 72  2  0  0  0
 71 74  1  0  0  0
 71145  1  0  0  0
 72 75  1  0  0  0
 72 77  1  0  0  0
 73 75  2  0  0  0
 73 76  1  0  0  0
 73 81  1  0  0  0
 74 76  2  0  0  0
 74 82  1  0  0  0
 75 83  1  0  0  0
 76 84  1  0  0  0
 77 78  2  0  0  0
 77146  1  0  0  0
 78 79  1  0  0  0
 78 85  1  0  0  0
 79 80  1  0  0  0
 79147  1  0  0  0
 79148  1  0  0  0
 80149  1  0  0  0
 80150  1  0  0  0
 81151  1  0  0  0
M  ISO  4   1 100  68 101  80 101  81 100
M  END
> <chiral flag>
0

> <version>
0

> <s_m_source_file>
/data/baiqing/PycharmProjects/Reinvent-master-3.2/result/LINK_invent/BTK/process_docking_weight1_custom_sum_contain_oxygen_bond_distance_aromatic_linkinvent_7_9_3/rearranged_h_0013.sdf

> <i_m_source_file_index>
8

> <r_mmod_Potential_Energy-OPLS-2005>
111.284645080566

> <r_mmod_Stretch_Energy-OPLS-2005>
114.428382873535

> <r_mmod_Bend_Energy-OPLS-2005>
143.568893432617

> <r_mmod_Torsional_Energy-OPLS-2005>
240.827392578125

> <r_mmod_Improper_Torsional_Energy-OPLS-2005>
5.34108638763428

> <r_mmod_Van_der_Waal_Energy-OPLS-2005>
148.624984741211

> <r_mmod_Electrostatic_Energy-OPLS-2005>
-413.889831542969

> <r_mmod_Solvation_Energy-OPLS-2005>
-203.130447387695

> <b_mmod_Minimization_Converged-OPLS-2005>
0

> <r_mmod_RMS_Derivative-OPLS-2005>
0.267812490463257

$$$$
8
                    3D
 Structure written by MMmdl.
166174  0  0  1  0            999 V2000
  -30.6734  -14.6710   20.4844 C   0  0  0  0  0  0
  -30.4243  -12.4101   19.4690 C   0  0  0  0  0  0
  -29.5102  -12.4933   18.2294 C   0  0  0  0  0  0
  -28.0339  -12.3348   18.6370 C   0  0  0  0  0  0
  -27.6464  -13.2301   19.8471 C   0  0  2  0  0  0
  -28.6882  -13.1466   20.9839 C   0  0  0  0  0  0
  -25.2547  -13.8183   20.5689 C   0  0  0  0  0  0
  -24.1838  -13.0446   20.9196 C   0  0  0  0  0  0
  -24.6411  -11.6906   20.8713 C   0  0  0  0  0  0
  -23.9103  -10.4278   21.0383 C   0  0  0  0  0  0
  -24.3646   -9.4198   21.9175 C   0  0  0  0  0  0
  -23.6320   -8.2234   22.0761 C   0  0  0  0  0  0
  -22.4301   -8.0266   21.3549 C   0  0  0  0  0  0
  -21.9928   -9.0237   20.4649 C   0  0  0  0  0  0
  -22.7259  -10.2113   20.3060 C   0  0  0  0  0  0
  -21.6862   -6.0737   22.5295 C   0  0  0  0  0  0
  -21.4013   -6.5638   23.8222 C   0  0  0  0  0  0
  -21.3652   -5.6790   24.9191 C   0  0  0  0  0  0
  -21.6051   -4.3055   24.7238 C   0  0  0  0  0  0
  -21.8826   -3.8152   23.4350 C   0  0  0  0  0  0
  -21.9194   -4.6967   22.3411 C   0  0  0  0  0  0
  -22.7835  -13.5199   21.1836 C   0  0  0  0  0  0
  -22.1668   -4.2153   21.0984 F   0  0  0  0  0  0
  -21.5625   -3.4526   25.7743 F   0  0  0  0  0  0
  -30.0030  -13.4727   20.4106 N   0  0  0  0  0  0
  -26.2979  -12.9396   20.3257 N   0  0  0  0  0  0
  -25.9344  -11.6533   20.5702 N   0  0  0  0  0  0
  -22.0476  -12.8229   22.0403 N   0  0  0  0  0  0
  -25.4250  -15.1921   20.4139 N   0  0  0  0  0  0
  -31.8151  -14.7685   20.0232 O   0  0  0  0  0  0
  -21.6657   -6.8867   21.4246 O   0  0  0  0  0  0
  -22.3501  -14.5478   20.6642 O   0  0  0  0  0  0
  -24.6273  -31.8541   23.2088 C   0  0  0  0  0  0
  -25.9114  -32.4760   23.8387 C   0  0  1  0  0  0
  -27.2095  -27.3075   20.1038 C   0  0  0  0  0  0
  -25.5938  -33.8568   24.2306 N   0  0  0  0  0  0
  -23.4212  -30.4840   21.5453 C   0  0  2  0  0  0
  -24.8671  -28.9505   20.1010 C   0  0  0  0  0  0
  -22.7456  -29.4592   22.4881 C   0  0  0  0  0  0
  -18.0288  -28.1357   22.8494 C   0  0  0  0  0  0
  -24.1465  -36.7291   23.2642 C   0  0  0  0  0  0
  -25.9667  -30.7755   21.3905 C   0  0  0  0  0  0
  -26.0341  -29.4073   20.7276 C   0  0  0  0  0  0
  -27.2026  -28.5884   20.7354 C   0  0  0  0  0  0
  -26.0320  -26.9333   19.4128 C   0  0  0  0  0  0
  -24.8695  -27.7199   19.4338 C   0  0  0  0  0  0
  -23.6368  -29.8285   20.1567 C   0  0  0  0  0  0
  -25.4090  -36.3064   24.0332 C   0  0  1  0  0  0
  -20.5891  -28.3643   23.1260 C   0  0  2  0  0  0
  -20.6766  -26.9348   22.5394 C   0  0  0  0  0  0
  -19.5750  -26.6350   21.5191 C   0  0  0  0  0  0
  -18.1925  -26.7913   22.1607 C   0  0  0  0  0  0
  -19.1542  -28.8822   23.2888 C   0  0  0  0  0  0
  -18.9477  -30.1425   23.8897 C   0  0  0  0  0  0
  -17.6483  -30.6568   24.0560 C   0  0  0  0  0  0
  -25.9027  -34.9435   23.5102 C   0  0  0  0  0  0
  -16.5369  -29.9064   23.6335 C   0  0  0  0  0  0
  -16.7279  -28.6483   23.0364 C   0  0  0  0  0  0
  -26.4538  -31.6611   25.0756 C   0  0  0  0  0  0
  -25.3821  -31.3702   26.1523 C   0  0  0  0  0  0
  -27.0423  -30.3055   24.6213 C   0  0  0  0  0  0
  -27.6095  -32.4386   25.7497 C   0  0  0  0  0  0
  -27.5565  -37.1771   24.8453 C   0  0  0  0  0  0
  -21.4169  -29.3012   22.3647 N   0  0  0  0  0  0
  -26.4256  -37.3765   23.9435 N   0  0  0  0  0  0
  -24.6898  -31.0550   22.1041 N   0  0  0  0  0  0
  -23.4192  -28.8066   23.2907 O   0  0  0  0  0  0
  -28.3126  -26.4414   20.1783 O   0  0  0  0  0  0
  -26.5542  -34.8898   22.4635 O   0  0  0  0  0  0
  -23.5439  -32.1353   23.7409 O   0  0  0  0  0  0
  -30.1305  -19.8894   18.6889 C   0  0  0  0  0  0
  -29.0511  -17.1068   22.7798 C   0  0  0  0  0  0
  -29.2563  -18.4857   22.1260 C   0  0  0  0  0  0
  -30.0923  -16.0791   22.3192 C   0  0  0  0  0  0
  -30.1245  -17.1260   20.1180 C   0  0  0  0  0  0
  -29.2683  -18.4288   20.5788 C   0  0  2  0  0  0
  -29.7580  -18.8852   17.5974 C   0  0  0  0  0  0
  -28.3419  -23.8673   22.0461 C   0  0  0  0  0  0
  -28.8047  -22.4181   19.9447 C   0  0  0  0  0  0
  -29.4422  -21.1349   20.6887 C   0  0  0  0  0  0
  -28.1575  -25.0175   19.7897 C   0  0  0  0  0  0
  -28.8919  -23.8729   20.6100 C   0  0  1  0  0  0
  -29.9999  -15.8160   20.8826 N   0  0  0  0  0  0
  -29.5871  -19.8022   19.9362 N   0  0  0  0  0  0
  -30.8652  -20.8230   18.3520 O   0  0  0  0  0  0
  -31.4701  -12.5056   19.1709 H   0  0  0  0  0  0
  -30.3398  -11.4321   19.9434 H   0  0  0  0  0  0
  -29.7853  -11.7174   17.5123 H   0  0  0  0  0  0
  -29.6573  -13.4459   17.7207 H   0  0  0  0  0  0
  -27.8778  -11.2823   18.8830 H   0  0  0  0  0  0
  -27.3876  -12.5489   17.7843 H   0  0  0  0  0  0
  -27.6473  -14.2562   19.4775 H   0  0  0  0  0  0
  -28.7017  -12.1499   21.4268 H   0  0  0  0  0  0
  -28.4178  -13.8308   21.7889 H   0  0  0  0  0  0
  -25.2788   -9.5678   22.4758 H   0  0  0  0  0  0
  -24.0034   -7.4639   22.7488 H   0  0  0  0  0  0
  -21.0865   -8.8739   19.8947 H   0  0  0  0  0  0
  -22.3708  -10.9655   19.6170 H   0  0  0  0  0  0
  -21.2006   -7.6148   23.9736 H   0  0  0  0  0  0
  -21.1476   -6.0519   25.9094 H   0  0  0  0  0  0
  -22.0618   -2.7614   23.2863 H   0  0  0  0  0  0
  -22.4061  -11.9909   22.4869 H   0  0  0  0  0  0
  -21.1063  -13.1226   22.2520 H   0  0  0  0  0  0
  -24.6575  -15.8451   20.5295 H   0  0  0  0  0  0
  -26.2840  -15.6336   20.1130 H   0  0  0  0  0  0
  -26.7144  -32.5428   23.1099 H   0  0  0  0  0  0
  -25.0201  -33.9737   25.0533 H   0  0  0  0  0  0
  -22.7185  -31.3087   21.4017 H   0  0  0  0  0  0
  -23.3734  -35.9610   23.3269 H   0  0  0  0  0  0
  -24.3576  -36.8949   22.2060 H   0  0  0  0  0  0
  -23.7205  -37.6479   23.6694 H   0  0  0  0  0  0
  -26.1150  -31.5395   20.6273 H   0  0  0  0  0  0
  -26.8460  -30.8153   22.0218 H   0  0  0  0  0  0
  -28.0901  -28.9117   21.2607 H   0  0  0  0  0  0
  -25.9777  -26.0266   18.8329 H   0  0  0  0  0  0
  -23.9848  -27.3848   18.9067 H   0  0  0  0  0  0
  -23.7596  -30.6093   19.4049 H   0  0  0  0  0  0
  -22.7596  -29.2531   19.8494 H   0  0  0  0  0  0
  -25.1263  -36.1891   25.0820 H   0  0  0  0  0  0
  -21.0040  -28.3213   24.1366 H   0  0  0  0  0  0
  -20.5617  -26.2228   23.3579 H   0  0  0  0  0  0
  -21.6633  -26.7330   22.1200 H   0  0  0  0  0  0
  -19.6885  -25.6257   21.1216 H   0  0  0  0  0  0
  -19.6721  -27.3164   20.6721 H   0  0  0  0  0  0
  -17.4179  -26.6666   21.4012 H   0  0  0  0  0  0
  -18.0334  -26.0041   22.8985 H   0  0  0  0  0  0
  -19.7952  -30.7234   24.2269 H   0  0  0  0  0  0
  -17.5035  -31.6271   24.5119 H   0  0  0  0  0  0
  -15.5368  -30.2967   23.7676 H   0  0  0  0  0  0
  -15.8673  -28.0813   22.7083 H   0  0  0  0  0  0
  -24.5990  -30.7040   25.7881 H   0  0  0  0  0  0
  -24.9038  -32.2840   26.5045 H   0  0  0  0  0  0
  -25.8226  -30.8840   27.0238 H   0  0  0  0  0  0
  -26.2984  -29.6733   24.1349 H   0  0  0  0  0  0
  -27.4261  -29.7381   25.4700 H   0  0  0  0  0  0
  -27.8790  -30.4381   23.9356 H   0  0  0  0  0  0
  -27.2711  -33.3700   26.2056 H   0  0  0  0  0  0
  -28.3907  -32.6938   25.0324 H   0  0  0  0  0  0
  -28.0762  -31.8535   26.5430 H   0  0  0  0  0  0
  -28.2524  -38.0121   24.7585 H   0  0  0  0  0  0
  -28.1114  -36.2658   24.6172 H   0  0  0  0  0  0
  -27.2302  -37.1300   25.8855 H   0  0  0  0  0  0
  -20.9276  -29.8825   21.6981 H   0  0  0  0  0  0
  -26.0122  -38.2800   24.1575 H   0  0  0  0  0  0
  -28.0507  -16.7331   22.5657 H   0  0  0  0  0  0
  -29.1179  -17.2086   23.8661 H   0  0  0  0  0  0
  -30.1889  -18.9219   22.4865 H   0  0  0  0  0  0
  -28.4533  -19.1304   22.4835 H   0  0  0  0  0  0
  -29.9692  -15.1530   22.8865 H   0  0  0  0  0  0
  -31.0970  -16.4406   22.5467 H   0  0  0  0  0  0
  -31.1804  -17.4003   20.0940 H   0  0  0  0  0  0
  -29.8613  -16.8508   19.0990 H   0  0  0  0  0  0
  -28.2357  -18.2332   20.2822 H   0  0  0  0  0  0
  -29.6046  -19.4031   16.6487 H   0  0  0  0  0  0
  -28.8305  -18.3591   17.8176 H   0  0  0  0  0  0
  -30.5623  -18.1649   17.4454 H   0  0  0  0  0  0
  -28.8703  -23.1582   22.6814 H   0  0  0  0  0  0
  -27.2825  -23.6095   22.0686 H   0  0  0  0  0  0
  -28.4513  -24.8552   22.4987 H   0  0  0  0  0  0
  -27.7583  -22.1969   19.7290 H   0  0  0  0  0  0
  -29.2495  -22.5432   18.9595 H   0  0  0  0  0  0
  -28.8677  -21.0053   21.6003 H   0  0  0  0  0  0
  -30.4432  -21.4160   21.0237 H   0  0  0  0  0  0
  -27.1179  -24.6995   19.8280 H   0  0  0  0  0  0
  -28.4574  -24.9468   18.7442 H   0  0  0  0  0  0
  -29.9455  -24.1488   20.6642 H   0  0  0  0  0  0
  1 25  1  0  0  0
  1 30  2  0  0  0
  1 83  1  0  0  0
  2  3  1  0  0  0
  2 25  1  0  0  0
  2 86  1  0  0  0
  2 87  1  0  0  0
  3  4  1  0  0  0
  3 88  1  0  0  0
  3 89  1  0  0  0
  4  5  1  0  0  0
  4 90  1  0  0  0
  4 91  1  0  0  0
  5  6  1  0  0  0
  5 26  1  0  0  0
  5 92  1  0  0  0
  6 25  1  0  0  0
  6 93  1  0  0  0
  6 94  1  0  0  0
  7  8  2  0  0  0
  7 26  1  0  0  0
  7 29  1  0  0  0
  8  9  1  0  0  0
  8 22  1  0  0  0
  9 10  1  0  0  0
  9 27  2  0  0  0
 10 11  2  0  0  0
 10 15  1  0  0  0
 11 12  1  0  0  0
 11 95  1  0  0  0
 12 13  2  0  0  0
 12 96  1  0  0  0
 13 14  1  0  0  0
 13 31  1  0  0  0
 14 15  2  0  0  0
 14 97  1  0  0  0
 15 98  1  0  0  0
 16 17  2  0  0  0
 16 21  1  0  0  0
 16 31  1  0  0  0
 17 18  1  0  0  0
 17 99  1  0  0  0
 18 19  2  0  0  0
 18100  1  0  0  0
 19 20  1  0  0  0
 19 24  1  0  0  0
 20 21  2  0  0  0
 20101  1  0  0  0
 21 23  1  0  0  0
 22 28  1  0  0  0
 22 32  2  0  0  0
 26 27  1  0  0  0
 28102  1  0  0  0
 28103  1  0  0  0
 29104  1  0  0  0
 29105  1  0  0  0
 33 34  1  0  0  0
 33 66  1  0  0  0
 33 70  2  0  0  0
 34 36  1  0  0  0
 34 59  1  0  0  0
 34106  1  0  0  0
 35 44  2  0  0  0
 35 45  1  0  0  0
 35 68  1  0  0  0
 36 56  1  0  0  0
 36107  1  0  0  0
 37 39  1  0  0  0
 37 47  1  0  0  0
 37 66  1  0  0  0
 37108  1  0  0  0
 38 43  2  0  0  0
 38 46  1  0  0  0
 38 47  1  0  0  0
 39 64  1  0  0  0
 39 67  2  0  0  0
 40 52  1  0  0  0
 40 53  2  0  0  0
 40 58  1  0  0  0
 41109  1  0  0  0
 41110  1  0  0  0
 41111  1  0  0  0
 41 48  1  0  0  0
 42 43  1  0  0  0
 42 66  1  0  0  0
 42112  1  0  0  0
 42113  1  0  0  0
 43 44  1  0  0  0
 44114  1  0  0  0
 45 46  2  0  0  0
 45115  1  0  0  0
 46116  1  0  0  0
 47117  1  0  0  0
 47118  1  0  0  0
 48 56  1  0  0  0
 48 65  1  0  0  0
 48119  1  0  0  0
 49 50  1  0  0  0
 49 53  1  0  0  0
 49 64  1  0  0  0
 49120  1  0  0  0
 50 51  1  0  0  0
 50121  1  0  0  0
 50122  1  0  0  0
 51 52  1  0  0  0
 51123  1  0  0  0
 51124  1  0  0  0
 52125  1  0  0  0
 52126  1  0  0  0
 53 54  1  0  0  0
 54 55  2  0  0  0
 54127  1  0  0  0
 55 57  1  0  0  0
 55128  1  0  0  0
 56 69  2  0  0  0
 57 58  2  0  0  0
 57129  1  0  0  0
 58130  1  0  0  0
 59 60  1  0  0  0
 59 61  1  0  0  0
 59 62  1  0  0  0
 60131  1  0  0  0
 60132  1  0  0  0
 60133  1  0  0  0
 61134  1  0  0  0
 61135  1  0  0  0
 61136  1  0  0  0
 62137  1  0  0  0
 62138  1  0  0  0
 62139  1  0  0  0
 63 65  1  0  0  0
 63140  1  0  0  0
 63141  1  0  0  0
 63142  1  0  0  0
 64143  1  0  0  0
 65144  1  0  0  0
 68 81  1  0  0  0
 71 77  1  0  0  0
 71 84  1  0  0  0
 71 85  2  0  0  0
 72 73  1  0  0  0
 72 74  1  0  0  0
 72145  1  0  0  0
 72146  1  0  0  0
 73 76  1  0  0  0
 73147  1  0  0  0
 73148  1  0  0  0
 74 83  1  0  0  0
 74149  1  0  0  0
 74150  1  0  0  0
 75 76  1  0  0  0
 75 83  1  0  0  0
 75151  1  0  0  0
 75152  1  0  0  0
 76 84  1  0  0  0
 76153  1  0  0  0
 77154  1  0  0  0
 77155  1  0  0  0
 77156  1  0  0  0
 78157  1  0  0  0
 78158  1  0  0  0
 78159  1  0  0  0
 78 82  1  0  0  0
 79 80  1  0  0  0
 79 82  1  0  0  0
 79160  1  0  0  0
 79161  1  0  0  0
 80 84  1  0  0  0
 80162  1  0  0  0
 80163  1  0  0  0
 81 82  1  0  0  0
 81164  1  0  0  0
 81165  1  0  0  0
 82166  1  0  0  0
M  ISO  4   1 100  68 101  81 101  83 100
M  END
> <chiral flag>
0

> <version>
0

> <s_m_source_file>
/data/baiqing/PycharmProjects/Reinvent-master-3.2/result/LINK_invent/BTK/process_docking_weight1_custom_sum_contain_oxygen_bond_distance_aromatic_linkinvent_7_9_3/rearranged_h_0013.sdf

> <i_m_source_file_index>
9

> <r_mmod_Potential_Energy-OPLS-2005>
368.291198730469

> <r_mmod_Stretch_Energy-OPLS-2005>
115.472671508789

> <r_mmod_Bend_Energy-OPLS-2005>
170.317230224609

> <r_mmod_Torsional_Energy-OPLS-2005>
365.965393066406

> <r_mmod_Improper_Torsional_Energy-OPLS-2005>
9.42056846618652

> <r_mmod_Van_der_Waal_Energy-OPLS-2005>
148.558868408203

> <r_mmod_Electrostatic_Energy-OPLS-2005>
-294.944305419922

> <r_mmod_Solvation_Energy-OPLS-2005>
-207.998977661133

> <b_mmod_Minimization_Converged-OPLS-2005>
0

> <r_mmod_RMS_Derivative-OPLS-2005>
4.3960280418396

$$$$
9
                    3D
 Structure written by MMmdl.
166174  0  0  1  0            999 V2000
  -30.7782  -14.3579   20.7169 C   0  0  0  0  0  0
  -30.4146  -12.3155   19.3670 C   0  0  0  0  0  0
  -29.4712  -12.5450   18.1735 C   0  0  0  0  0  0
  -28.0002  -12.3900   18.6027 C   0  0  0  0  0  0
  -27.6648  -13.2004   19.8809 C   0  0  2  0  0  0
  -28.7100  -12.9099   20.9771 C   0  0  0  0  0  0
  -25.2622  -13.8162   20.5702 C   0  0  0  0  0  0
  -24.1867  -13.0440   20.9204 C   0  0  0  0  0  0
  -24.6386  -11.6894   20.8720 C   0  0  0  0  0  0
  -23.9050  -10.4278   21.0391 C   0  0  0  0  0  0
  -24.3606   -9.4204   21.9177 C   0  0  0  0  0  0
  -23.6285   -8.2241   22.0762 C   0  0  0  0  0  0
  -22.4268   -8.0276   21.3539 C   0  0  0  0  0  0
  -21.9890   -9.0260   20.4649 C   0  0  0  0  0  0
  -22.7220  -10.2139   20.3047 C   0  0  0  0  0  0
  -21.6871   -6.0712   22.5259 C   0  0  0  0  0  0
  -21.4020   -6.5624   23.8189 C   0  0  0  0  0  0
  -21.3661   -5.6789   24.9162 C   0  0  0  0  0  0
  -21.6042   -4.3047   24.7220 C   0  0  0  0  0  0
  -21.8831   -3.8128   23.4347 C   0  0  0  0  0  0
  -21.9202   -4.6936   22.3398 C   0  0  0  0  0  0
  -22.7893  -13.5248   21.1867 C   0  0  0  0  0  0
  -22.1665   -4.2125   21.0971 F   0  0  0  0  0  0
  -21.5647   -3.4526   25.7731 F   0  0  0  0  0  0
  -30.0385  -13.2476   20.4432 N   0  0  0  0  0  0
  -26.3045  -12.9304   20.3410 N   0  0  0  0  0  0
  -25.9305  -11.6458   20.5752 N   0  0  0  0  0  0
  -22.0527  -12.8233   22.0411 N   0  0  0  0  0  0
  -25.4340  -15.1884   20.4070 N   0  0  0  0  0  0
  -31.8074  -14.6299   20.0881 O   0  0  0  0  0  0
  -21.6657   -6.8857   21.4214 O   0  0  0  0  0  0
  -22.3564  -14.5540   20.6699 O   0  0  0  0  0  0
  -24.6106  -31.8689   23.2110 C   0  0  0  0  0  0
  -25.9014  -32.4814   23.8389 C   0  0  1  0  0  0
  -27.2397  -27.4673   20.0984 C   0  0  0  0  0  0
  -25.5888  -33.8620   24.2316 N   0  0  0  0  0  0
  -23.3965  -30.4935   21.5503 C   0  0  2  0  0  0
  -24.8458  -28.9568   20.1174 C   0  0  0  0  0  0
  -22.7391  -29.4681   22.5001 C   0  0  0  0  0  0
  -18.0270  -28.1362   22.8500 C   0  0  0  0  0  0
  -24.1492  -36.7333   23.2641 C   0  0  0  0  0  0
  -25.9209  -30.8458   21.3579 C   0  0  0  0  0  0
  -26.0026  -29.4796   20.7106 C   0  0  0  0  0  0
  -27.2040  -28.7410   20.6993 C   0  0  0  0  0  0
  -26.0716  -26.9461   19.5044 C   0  0  0  0  0  0
  -24.8741  -27.6877   19.5106 C   0  0  0  0  0  0
  -23.6031  -29.8186   20.1663 C   0  0  0  0  0  0
  -25.4108  -36.3120   24.0332 C   0  0  1  0  0  0
  -20.5864  -28.3674   23.1322 C   0  0  2  0  0  0
  -20.6782  -26.9422   22.5418 C   0  0  0  0  0  0
  -19.5755  -26.6416   21.5201 C   0  0  0  0  0  0
  -18.1940  -26.7921   22.1624 C   0  0  0  0  0  0
  -19.1511  -28.8832   23.2917 C   0  0  0  0  0  0
  -18.9454  -30.1432   23.8923 C   0  0  0  0  0  0
  -17.6447  -30.6584   24.0554 C   0  0  0  0  0  0
  -25.9033  -34.9479   23.5133 C   0  0  0  0  0  0
  -16.5349  -29.9078   23.6298 C   0  0  0  0  0  0
  -16.7258  -28.6485   23.0357 C   0  0  0  0  0  0
  -26.4463  -31.6591   25.0697 C   0  0  0  0  0  0
  -25.3766  -31.3676   26.1460 C   0  0  0  0  0  0
  -27.0288  -30.3044   24.6063 C   0  0  0  0  0  0
  -27.6029  -32.4312   25.7474 C   0  0  0  0  0  0
  -27.5585  -37.1819   24.8466 C   0  0  0  0  0  0
  -21.4131  -29.3034   22.3721 N   0  0  0  0  0  0
  -26.4299  -37.3799   23.9403 N   0  0  0  0  0  0
  -24.6601  -31.0850   22.0975 N   0  0  0  0  0  0
  -23.4166  -28.8233   23.3065 O   0  0  0  0  0  0
  -28.4158  -26.7632   20.0673 O   0  0  0  0  0  0
  -26.5599  -34.8938   22.4704 O   0  0  0  0  0  0
  -23.5312  -32.1423   23.7539 O   0  0  0  0  0  0
  -28.3782  -15.8107   22.8737 C   0  0  0  0  0  0
  -28.2569  -18.0870   21.2352 C   0  0  0  0  0  0
  -29.3624  -15.9927   21.8794 C   0  0  0  0  0  0
  -27.3377  -16.7362   23.0700 C   0  0  0  0  0  0
  -27.2696  -17.8656   22.2173 C   0  0  0  0  0  0
  -29.3233  -17.1648   21.0742 C   0  0  0  0  0  0
  -31.4682  -15.2529   22.8534 C   0  0  0  0  0  0
  -25.8461  -17.5658   24.7582 C   0  0  0  0  0  0
  -28.1348  -19.3361   20.3677 C   0  0  0  0  0  0
  -28.5239  -23.0912   21.0962 C   0  0  0  0  0  0
  -28.3315  -24.3340   20.2098 C   0  0  0  0  0  0
  -28.3206  -21.7982   20.2869 C   0  0  0  0  0  0
  -28.4817  -25.6599   20.9686 C   0  0  0  0  0  0
  -30.4403  -15.0544   21.8310 N   0  0  0  0  0  0
  -28.5291  -20.5713   21.0850 N   0  3  0  0  0  0
  -26.4554  -16.4654   24.0935 O   0  0  0  0  0  0
  -26.2712  -18.7762   22.3327 F   0  0  0  0  0  0
  -30.6026  -17.5312   19.9664 Cl  0  0  0  0  0  0
  -31.4534  -12.4237   19.0473 H   0  0  0  0  0  0
  -30.3264  -11.2872   19.7196 H   0  0  0  0  0  0
  -29.7011  -11.8400   17.3730 H   0  0  0  0  0  0
  -29.6313  -13.5406   17.7579 H   0  0  0  0  0  0
  -27.8183  -11.3303   18.7843 H   0  0  0  0  0  0
  -27.3367  -12.6747   17.7860 H   0  0  0  0  0  0
  -27.7270  -14.2585   19.6247 H   0  0  0  0  0  0
  -28.6915  -11.8513   21.2398 H   0  0  0  0  0  0
  -28.4581  -13.4180   21.9006 H   0  0  0  0  0  0
  -25.2750   -9.5712   22.4744 H   0  0  0  0  0  0
  -24.0020   -7.4631   22.7472 H   0  0  0  0  0  0
  -21.0837   -8.8746   19.8952 H   0  0  0  0  0  0
  -22.3655  -10.9665   19.6159 H   0  0  0  0  0  0
  -21.1996   -7.6128   23.9689 H   0  0  0  0  0  0
  -21.1485   -6.0510   25.9072 H   0  0  0  0  0  0
  -22.0610   -2.7583   23.2844 H   0  0  0  0  0  0
  -22.4149  -11.9901   22.4797 H   0  0  0  0  0  0
  -21.1117  -13.1216   22.2550 H   0  0  0  0  0  0
  -24.6642  -15.8392   20.5127 H   0  0  0  0  0  0
  -26.2753  -15.6202   20.0514 H   0  0  0  0  0  0
  -26.7092  -32.5554   23.1168 H   0  0  0  0  0  0
  -25.0023  -33.9789   25.0442 H   0  0  0  0  0  0
  -22.6841  -31.3093   21.4123 H   0  0  0  0  0  0
  -23.3732  -35.9696   23.3326 H   0  0  0  0  0  0
  -24.3584  -36.8922   22.2055 H   0  0  0  0  0  0
  -23.7259  -37.6552   23.6643 H   0  0  0  0  0  0
  -26.0250  -31.6104   20.5860 H   0  0  0  0  0  0
  -26.8106  -30.9039   21.9740 H   0  0  0  0  0  0
  -28.1013  -29.1450   21.1472 H   0  0  0  0  0  0
  -26.0870  -25.9791   19.0242 H   0  0  0  0  0  0
  -23.9881  -27.2788   19.0447 H   0  0  0  0  0  0
  -23.7074  -30.5891   19.4022 H   0  0  0  0  0  0
  -22.7275  -29.2347   19.8753 H   0  0  0  0  0  0
  -25.1286  -36.2001   25.0820 H   0  0  0  0  0  0
  -20.9943  -28.3251   24.1454 H   0  0  0  0  0  0
  -20.5729  -26.2255   23.3572 H   0  0  0  0  0  0
  -21.6656  -26.7535   22.1170 H   0  0  0  0  0  0
  -19.6909  -25.6343   21.1190 H   0  0  0  0  0  0
  -19.6692  -27.3219   20.6739 H   0  0  0  0  0  0
  -17.4236  -26.6694   21.4003 H   0  0  0  0  0  0
  -18.0345  -26.0033   22.8993 H   0  0  0  0  0  0
  -19.7919  -30.7240   24.2304 H   0  0  0  0  0  0
  -17.5002  -31.6273   24.5152 H   0  0  0  0  0  0
  -15.5351  -30.2993   23.7593 H   0  0  0  0  0  0
  -15.8664  -28.0803   22.7073 H   0  0  0  0  0  0
  -24.5925  -30.7038   25.7814 H   0  0  0  0  0  0
  -24.8971  -32.2817   26.4972 H   0  0  0  0  0  0
  -25.8135  -30.8810   27.0183 H   0  0  0  0  0  0
  -26.2826  -29.6784   24.1177 H   0  0  0  0  0  0
  -27.4108  -29.7295   25.4503 H   0  0  0  0  0  0
  -27.8626  -30.4327   23.9163 H   0  0  0  0  0  0
  -27.2630  -33.3574   26.2119 H   0  0  0  0  0  0
  -28.3825  -32.6934   25.0311 H   0  0  0  0  0  0
  -28.0735  -31.8406   26.5344 H   0  0  0  0  0  0
  -28.2614  -38.0105   24.7500 H   0  0  0  0  0  0
  -28.1062  -36.2637   24.6310 H   0  0  0  0  0  0
  -27.2307  -37.1496   25.8869 H   0  0  0  0  0  0
  -20.9301  -29.8727   21.6904 H   0  0  0  0  0  0
  -26.0196  -38.2890   24.1375 H   0  0  0  0  0  0
  -28.4320  -14.9554   23.5294 H   0  0  0  0  0  0
  -31.0557  -15.0830   23.8481 H   0  0  0  0  0  0
  -31.8550  -16.2705   22.8080 H   0  0  0  0  0  0
  -32.3153  -14.5724   22.7368 H   0  0  0  0  0  0
  -25.0557  -18.0213   24.1611 H   0  0  0  0  0  0
  -26.5786  -18.3274   25.0300 H   0  0  0  0  0  0
  -25.3816  -17.2138   25.6791 H   0  0  0  0  0  0
  -27.0954  -19.4223   20.0471 H   0  0  0  0  0  0
  -28.7104  -19.2447   19.4488 H   0  0  0  0  0  0
  -27.8143  -23.1210   21.9251 H   0  0  0  0  0  0
  -29.5224  -23.1037   21.5391 H   0  0  0  0  0  0
  -27.3488  -24.2846   19.7425 H   0  0  0  0  0  0
  -29.0621  -24.3054   19.4000 H   0  0  0  0  0  0
  -29.0003  -21.7848   19.4341 H   0  0  0  0  0  0
  -27.3071  -21.7931   19.8812 H   0  0  0  0  0  0
  -29.4529  -25.6954   21.4621 H   0  0  0  0  0  0
  -27.7356  -25.7340   21.7633 H   0  0  0  0  0  0
  -29.5007  -20.5134   21.3472 H   0  0  0  0  0  0
  -27.9777  -20.6373   21.9260 H   0  0  0  0  0  0
  1 25  1  0  0  0
  1 30  2  0  0  0
  1 84  1  0  0  0
  2  3  1  0  0  0
  2 25  1  0  0  0
  2 89  1  0  0  0
  2 90  1  0  0  0
  3  4  1  0  0  0
  3 91  1  0  0  0
  3 92  1  0  0  0
  4  5  1  0  0  0
  4 93  1  0  0  0
  4 94  1  0  0  0
  5  6  1  0  0  0
  5 26  1  0  0  0
  5 95  1  0  0  0
  6 25  1  0  0  0
  6 96  1  0  0  0
  6 97  1  0  0  0
  7  8  2  0  0  0
  7 26  1  0  0  0
  7 29  1  0  0  0
  8  9  1  0  0  0
  8 22  1  0  0  0
  9 10  1  0  0  0
  9 27  2  0  0  0
 10 11  2  0  0  0
 10 15  1  0  0  0
 11 12  1  0  0  0
 11 98  1  0  0  0
 12 13  2  0  0  0
 12 99  1  0  0  0
 13 14  1  0  0  0
 13 31  1  0  0  0
 14 15  2  0  0  0
 14100  1  0  0  0
 15101  1  0  0  0
 16 17  2  0  0  0
 16 21  1  0  0  0
 16 31  1  0  0  0
 17 18  1  0  0  0
 17102  1  0  0  0
 18 19  2  0  0  0
 18103  1  0  0  0
 19 20  1  0  0  0
 19 24  1  0  0  0
 20 21  2  0  0  0
 20104  1  0  0  0
 21 23  1  0  0  0
 22 28  1  0  0  0
 22 32  2  0  0  0
 26 27  1  0  0  0
 28105  1  0  0  0
 28106  1  0  0  0
 29107  1  0  0  0
 29108  1  0  0  0
 33 34  1  0  0  0
 33 66  1  0  0  0
 33 70  2  0  0  0
 34 36  1  0  0  0
 34 59  1  0  0  0
 34109  1  0  0  0
 35 44  2  0  0  0
 35 45  1  0  0  0
 35 68  1  0  0  0
 36 56  1  0  0  0
 36110  1  0  0  0
 37 39  1  0  0  0
 37 47  1  0  0  0
 37 66  1  0  0  0
 37111  1  0  0  0
 38 43  2  0  0  0
 38 46  1  0  0  0
 38 47  1  0  0  0
 39 64  1  0  0  0
 39 67  2  0  0  0
 40 52  1  0  0  0
 40 53  2  0  0  0
 40 58  1  0  0  0
 41112  1  0  0  0
 41113  1  0  0  0
 41114  1  0  0  0
 41 48  1  0  0  0
 42 43  1  0  0  0
 42 66  1  0  0  0
 42115  1  0  0  0
 42116  1  0  0  0
 43 44  1  0  0  0
 44117  1  0  0  0
 45 46  2  0  0  0
 45118  1  0  0  0
 46119  1  0  0  0
 47120  1  0  0  0
 47121  1  0  0  0
 48 56  1  0  0  0
 48 65  1  0  0  0
 48122  1  0  0  0
 49 50  1  0  0  0
 49 53  1  0  0  0
 49 64  1  0  0  0
 49123  1  0  0  0
 50 51  1  0  0  0
 50124  1  0  0  0
 50125  1  0  0  0
 51 52  1  0  0  0
 51126  1  0  0  0
 51127  1  0  0  0
 52128  1  0  0  0
 52129  1  0  0  0
 53 54  1  0  0  0
 54 55  2  0  0  0
 54130  1  0  0  0
 55 57  1  0  0  0
 55131  1  0  0  0
 56 69  2  0  0  0
 57 58  2  0  0  0
 57132  1  0  0  0
 58133  1  0  0  0
 59 60  1  0  0  0
 59 61  1  0  0  0
 59 62  1  0  0  0
 60134  1  0  0  0
 60135  1  0  0  0
 60136  1  0  0  0
 61137  1  0  0  0
 61138  1  0  0  0
 61139  1  0  0  0
 62140  1  0  0  0
 62141  1  0  0  0
 62142  1  0  0  0
 63 65  1  0  0  0
 63143  1  0  0  0
 63144  1  0  0  0
 63145  1  0  0  0
 64146  1  0  0  0
 65147  1  0  0  0
 68 83  1  0  0  0
 71 73  2  0  0  0
 71 74  1  0  0  0
 71148  1  0  0  0
 72 75  1  0  0  0
 72 76  2  0  0  0
 72 79  1  0  0  0
 73 76  1  0  0  0
 73 84  1  0  0  0
 74 75  2  0  0  0
 74 86  1  0  0  0
 75 87  1  0  0  0
 76 88  1  0  0  0
 77 84  1  0  0  0
 77149  1  0  0  0
 77150  1  0  0  0
 77151  1  0  0  0
 78 86  1  0  0  0
 78152  1  0  0  0
 78153  1  0  0  0
 78154  1  0  0  0
 79 85  1  0  0  0
 79155  1  0  0  0
 79156  1  0  0  0
 80 81  1  0  0  0
 80 82  1  0  0  0
 80157  1  0  0  0
 80158  1  0  0  0
 81 83  1  0  0  0
 81159  1  0  0  0
 81160  1  0  0  0
 82 85  1  0  0  0
 82161  1  0  0  0
 82162  1  0  0  0
 83163  1  0  0  0
 83164  1  0  0  0
 85165  1  0  0  0
 85166  1  0  0  0
M  CHG  1  85   1
M  ISO  4   1 100  68 101  83 101  84 100
M  END
> <chiral flag>
0

> <version>
0

> <s_m_source_file>
/data/baiqing/PycharmProjects/Reinvent-master-3.2/result/LINK_invent/BTK/process_docking_weight1_custom_sum_contain_oxygen_bond_distance_aromatic_linkinvent_7_9_3/rearranged_h_0013.sdf

> <i_m_source_file_index>
10

> <r_mmod_Potential_Energy-OPLS-2005>
-117.752700805664

> <r_mmod_Stretch_Energy-OPLS-2005>
35.1673889160156

> <r_mmod_Bend_Energy-OPLS-2005>
102.231742858887

> <r_mmod_Torsional_Energy-OPLS-2005>
309.317321777344

> <r_mmod_Improper_Torsional_Energy-OPLS-2005>
5.61500978469849

> <r_mmod_Van_der_Waal_Energy-OPLS-2005>
152.104949951172

> <r_mmod_Electrostatic_Energy-OPLS-2005>
-272.374298095703

> <r_mmod_Solvation_Energy-OPLS-2005>
-457.606506347656

> <b_mmod_Minimization_Converged-OPLS-2005>
0

> <r_mmod_RMS_Derivative-OPLS-2005>
3.90359163284302

$$$$
10
                    3D
 Structure written by MMmdl.
167175  0  0  1  0            999 V2000
  -30.7112  -14.4054   20.6039 C   0  0  0  0  0  0
  -30.4183  -12.2780   19.4178 C   0  0  0  0  0  0
  -29.4891  -12.5229   18.2108 C   0  0  0  0  0  0
  -28.0077  -12.3879   18.6178 C   0  0  0  0  0  0
  -27.6638  -13.2047   19.8920 C   0  0  2  0  0  0
  -28.6999  -12.9408   21.0089 C   0  0  0  0  0  0
  -25.2572  -13.8179   20.5701 C   0  0  0  0  0  0
  -24.1810  -13.0452   20.9176 C   0  0  0  0  0  0
  -24.6365  -11.6923   20.8749 C   0  0  0  0  0  0
  -23.9030  -10.4308   21.0426 C   0  0  0  0  0  0
  -24.3602   -9.4230   21.9193 C   0  0  0  0  0  0
  -23.6289   -8.2260   22.0749 C   0  0  0  0  0  0
  -22.4270   -8.0299   21.3548 C   0  0  0  0  0  0
  -21.9900   -9.0267   20.4653 C   0  0  0  0  0  0
  -22.7209  -10.2155   20.3073 C   0  0  0  0  0  0
  -21.6844   -6.0750   22.5283 C   0  0  0  0  0  0
  -21.4015   -6.5657   23.8218 C   0  0  0  0  0  0
  -21.3666   -5.6807   24.9180 C   0  0  0  0  0  0
  -21.6027   -4.3063   24.7219 C   0  0  0  0  0  0
  -21.8816   -3.8162   23.4339 C   0  0  0  0  0  0
  -21.9188   -4.6980   22.3399 C   0  0  0  0  0  0
  -22.7837  -13.5272   21.1841 C   0  0  0  0  0  0
  -22.1655   -4.2180   21.0964 F   0  0  0  0  0  0
  -21.5630   -3.4534   25.7722 F   0  0  0  0  0  0
  -30.0402  -13.2330   20.4691 N   0  0  0  0  0  0
  -26.3012  -12.9339   20.3442 N   0  0  0  0  0  0
  -25.9293  -11.6501   20.5787 N   0  0  0  0  0  0
  -22.0478  -12.8270   22.0422 N   0  0  0  0  0  0
  -25.4332  -15.1877   20.4095 N   0  0  0  0  0  0
  -31.8109  -14.6231   20.0890 O   0  0  0  0  0  0
  -21.6636   -6.8900   21.4246 O   0  0  0  0  0  0
  -22.3531  -14.5594   20.6717 O   0  0  0  0  0  0
  -24.6094  -31.8761   23.2139 C   0  0  0  0  0  0
  -25.9050  -32.4864   23.8370 C   0  0  1  0  0  0
  -27.2436  -27.4633   20.1083 C   0  0  0  0  0  0
  -25.5948  -33.8670   24.2288 N   0  0  0  0  0  0
  -23.3929  -30.5011   21.5555 C   0  0  2  0  0  0
  -24.8403  -28.9632   20.1254 C   0  0  0  0  0  0
  -22.7332  -29.4734   22.4996 C   0  0  0  0  0  0
  -18.0275  -28.1394   22.8460 C   0  0  0  0  0  0
  -24.1464  -36.7297   23.2635 C   0  0  0  0  0  0
  -25.9213  -30.8346   21.3820 C   0  0  0  0  0  0
  -25.9984  -29.4745   20.7283 C   0  0  0  0  0  0
  -27.1975  -28.7318   20.7316 C   0  0  0  0  0  0
  -26.0710  -26.9643   19.5022 C   0  0  0  0  0  0
  -24.8672  -27.6978   19.5151 C   0  0  0  0  0  0
  -23.6055  -29.8360   20.1700 C   0  0  0  0  0  0
  -25.4117  -36.3124   24.0300 C   0  0  1  0  0  0
  -20.5841  -28.3716   23.1279 C   0  0  2  0  0  0
  -20.6780  -26.9455   22.5398 C   0  0  0  0  0  0
  -19.5787  -26.6400   21.5180 C   0  0  0  0  0  0
  -18.1956  -26.7951   22.1581 C   0  0  0  0  0  0
  -19.1510  -28.8879   23.2868 C   0  0  0  0  0  0
  -18.9458  -30.1484   23.8879 C   0  0  0  0  0  0
  -17.6463  -30.6618   24.0582 C   0  0  0  0  0  0
  -25.9058  -34.9512   23.5072 C   0  0  0  0  0  0
  -16.5350  -29.9106   23.6364 C   0  0  0  0  0  0
  -16.7260  -28.6521   23.0374 C   0  0  0  0  0  0
  -26.4503  -31.6686   25.0742 C   0  0  0  0  0  0
  -25.3697  -31.3922   26.1460 C   0  0  0  0  0  0
  -27.0330  -30.3070   24.6301 C   0  0  0  0  0  0
  -27.6102  -32.4411   25.7457 C   0  0  0  0  0  0
  -27.5557  -37.1797   24.8446 C   0  0  0  0  0  0
  -21.4085  -29.3078   22.3666 N   0  0  0  0  0  0
  -26.4303  -37.3812   23.9376 N   0  0  0  0  0  0
  -24.6570  -31.0865   22.1058 N   0  0  0  0  0  0
  -23.4078  -28.8264   23.3055 O   0  0  0  0  0  0
  -28.3524  -26.6464   20.0231 O   0  0  0  0  0  0
  -26.5614  -34.8972   22.4621 O   0  0  0  0  0  0
  -23.5316  -32.1572   23.7556 O   0  0  0  0  0  0
  -30.7684  -19.5112   20.9078 C   0  0  0  0  0  0
  -30.6339  -18.9281   22.1923 C   0  0  0  0  0  0
  -30.2969  -16.7429   21.1418 C   0  0  0  0  0  0
  -30.4133  -17.5354   22.3002 C   0  0  0  0  0  0
  -30.3638  -17.3450   19.8622 C   0  0  0  0  0  0
  -30.6275  -18.7239   19.7494 C   0  0  0  0  0  0
  -30.7317  -19.7769   23.4234 C   0  0  0  0  0  0
  -29.3542  -26.3481   24.4860 C   0  0  0  0  0  0
  -30.6400  -25.6160   24.9201 C   0  0  0  0  0  0
  -30.3678  -24.1663   25.3771 C   0  0  0  0  0  0
  -30.5284  -23.1400   24.2415 C   0  0  0  0  0  0
  -29.7929  -21.8194   24.5074 C   0  0  0  0  0  0
  -29.7339  -26.0647   22.0014 C   0  0  0  0  0  0
  -29.5637  -26.9258   20.7236 C   0  0  0  0  0  0
  -30.0638  -15.3530   21.2915 N   0  0  0  0  0  0
  -29.9820  -20.8863   23.4010 N   0  0  0  0  0  0
  -29.0748  -26.6021   23.1951 N   0  0  0  0  0  0
  -31.4166  -19.4413   24.3916 O   0  0  0  0  0  0
  -28.5727  -26.7141   25.3641 O   0  0  0  0  0  0
  -30.2935  -16.9437   23.5159 F   0  0  0  0  0  0
  -30.1501  -16.6126   18.7393 F   0  0  0  0  0  0
  -30.7717  -19.4516   18.1891 Cl  0  0  0  0  0  0
  -31.4655  -12.3759   19.1205 H   0  0  0  0  0  0
  -30.3116  -11.2566   19.7884 H   0  0  0  0  0  0
  -29.7210  -11.8253   17.4061 H   0  0  0  0  0  0
  -29.6688  -13.5234   17.8135 H   0  0  0  0  0  0
  -27.8004  -11.3302   18.7863 H   0  0  0  0  0  0
  -27.3641  -12.6964   17.7936 H   0  0  0  0  0  0
  -27.7227  -14.2609   19.6275 H   0  0  0  0  0  0
  -28.6572  -11.8950   21.3197 H   0  0  0  0  0  0
  -28.4613  -13.5128   21.9069 H   0  0  0  0  0  0
  -25.2754   -9.5699   22.4758 H   0  0  0  0  0  0
  -24.0003   -7.4647   22.7459 H   0  0  0  0  0  0
  -21.0836   -8.8789   19.8953 H   0  0  0  0  0  0
  -22.3674  -10.9704   19.6192 H   0  0  0  0  0  0
  -21.2018   -7.6167   23.9733 H   0  0  0  0  0  0
  -21.1483   -6.0529   25.9085 H   0  0  0  0  0  0
  -22.0587   -2.7626   23.2814 H   0  0  0  0  0  0
  -22.4068  -11.9910   22.4797 H   0  0  0  0  0  0
  -21.1109  -13.1336   22.2664 H   0  0  0  0  0  0
  -24.6756  -15.8504   20.5192 H   0  0  0  0  0  0
  -26.2859  -15.6193   20.0781 H   0  0  0  0  0  0
  -26.7065  -32.5587   23.1083 H   0  0  0  0  0  0
  -25.0104  -33.9866   25.0443 H   0  0  0  0  0  0
  -22.6841  -31.3207   21.4220 H   0  0  0  0  0  0
  -23.3754  -35.9620   23.3387 H   0  0  0  0  0  0
  -24.3473  -36.8885   22.2027 H   0  0  0  0  0  0
  -23.7250  -37.6505   23.6655 H   0  0  0  0  0  0
  -26.0639  -31.6061   20.6244 H   0  0  0  0  0  0
  -26.7938  -30.8653   22.0207 H   0  0  0  0  0  0
  -28.0672  -29.1479   21.2182 H   0  0  0  0  0  0
  -26.0838  -25.9966   19.0194 H   0  0  0  0  0  0
  -23.9750  -27.2850   19.0627 H   0  0  0  0  0  0
  -23.7260  -30.6198   19.4230 H   0  0  0  0  0  0
  -22.7248  -29.2721   19.8574 H   0  0  0  0  0  0
  -25.1312  -36.1950   25.0800 H   0  0  0  0  0  0
  -20.9952  -28.3338   24.1400 H   0  0  0  0  0  0
  -20.5691  -26.2342   23.3591 H   0  0  0  0  0  0
  -21.6661  -26.7539   22.1188 H   0  0  0  0  0  0
  -19.6976  -25.6297   21.1249 H   0  0  0  0  0  0
  -19.6745  -27.3165   20.6665 H   0  0  0  0  0  0
  -17.4208  -26.6665   21.4005 H   0  0  0  0  0  0
  -18.0424  -26.0108   22.9000 H   0  0  0  0  0  0
  -19.7940  -30.7307   24.2214 H   0  0  0  0  0  0
  -17.5041  -31.6317   24.5157 H   0  0  0  0  0  0
  -15.5361  -30.3018   23.7745 H   0  0  0  0  0  0
  -15.8641  -28.0852   22.7120 H   0  0  0  0  0  0
  -24.5726  -30.7455   25.7750 H   0  0  0  0  0  0
  -24.9085  -32.3199   26.4899 H   0  0  0  0  0  0
  -25.7911  -30.8963   27.0204 H   0  0  0  0  0  0
  -26.2946  -29.6838   24.1260 H   0  0  0  0  0  0
  -27.3887  -29.7317   25.4861 H   0  0  0  0  0  0
  -27.8875  -30.4318   23.9656 H   0  0  0  0  0  0
  -27.2665  -33.3606   26.2241 H   0  0  0  0  0  0
  -28.3783  -32.7179   25.0221 H   0  0  0  0  0  0
  -28.0922  -31.8453   26.5205 H   0  0  0  0  0  0
  -28.2622  -38.0052   24.7503 H   0  0  0  0  0  0
  -28.1023  -36.2607   24.6313 H   0  0  0  0  0  0
  -27.2254  -37.1482   25.8843 H   0  0  0  0  0  0
  -20.9238  -29.8666   21.6773 H   0  0  0  0  0  0
  -26.0185  -38.2890   24.1365 H   0  0  0  0  0  0
  -30.9743  -20.5670   20.8028 H   0  0  0  0  0  0
  -31.0355  -26.1704   25.7753 H   0  0  0  0  0  0
  -31.4420  -25.6603   24.1878 H   0  0  0  0  0  0
  -29.3611  -24.0998   25.7968 H   0  0  0  0  0  0
  -31.0367  -23.9074   26.2003 H   0  0  0  0  0  0
  -31.5913  -22.9540   24.0790 H   0  0  0  0  0  0
  -30.1453  -23.5578   23.3120 H   0  0  0  0  0  0
  -28.7233  -22.0094   24.5993 H   0  0  0  0  0  0
  -30.0996  -21.3822   25.4601 H   0  0  0  0  0  0
  -30.8024  -25.9490   22.1768 H   0  0  0  0  0  0
  -29.3400  -25.0657   21.8155 H   0  0  0  0  0  0
  -30.3331  -26.5822   20.0297 H   0  0  0  0  0  0
  -29.7765  -27.9828   20.8699 H   0  0  0  0  0  0
  -29.2898  -15.0748   21.8741 H   0  0  0  0  0  0
  -29.4575  -21.0623   22.5559 H   0  0  0  0  0  0
  -28.2131  -27.1073   23.0366 H   0  0  0  0  0  0
  1 25  1  0  0  0
  1 30  2  0  0  0
  1 85  1  0  0  0
  2  3  1  0  0  0
  2 25  1  0  0  0
  2 93  1  0  0  0
  2 94  1  0  0  0
  3  4  1  0  0  0
  3 95  1  0  0  0
  3 96  1  0  0  0
  4  5  1  0  0  0
  4 97  1  0  0  0
  4 98  1  0  0  0
  5  6  1  0  0  0
  5 26  1  0  0  0
  5 99  1  0  0  0
  6 25  1  0  0  0
  6100  1  0  0  0
  6101  1  0  0  0
  7  8  2  0  0  0
  7 26  1  0  0  0
  7 29  1  0  0  0
  8  9  1  0  0  0
  8 22  1  0  0  0
  9 10  1  0  0  0
  9 27  2  0  0  0
 10 11  2  0  0  0
 10 15  1  0  0  0
 11 12  1  0  0  0
 11102  1  0  0  0
 12 13  2  0  0  0
 12103  1  0  0  0
 13 14  1  0  0  0
 13 31  1  0  0  0
 14 15  2  0  0  0
 14104  1  0  0  0
 15105  1  0  0  0
 16 17  2  0  0  0
 16 21  1  0  0  0
 16 31  1  0  0  0
 17 18  1  0  0  0
 17106  1  0  0  0
 18 19  2  0  0  0
 18107  1  0  0  0
 19 20  1  0  0  0
 19 24  1  0  0  0
 20 21  2  0  0  0
 20108  1  0  0  0
 21 23  1  0  0  0
 22 28  1  0  0  0
 22 32  2  0  0  0
 26 27  1  0  0  0
 28109  1  0  0  0
 28110  1  0  0  0
 29111  1  0  0  0
 29112  1  0  0  0
 33 34  1  0  0  0
 33 66  1  0  0  0
 33 70  2  0  0  0
 34 36  1  0  0  0
 34 59  1  0  0  0
 34113  1  0  0  0
 35 44  2  0  0  0
 35 45  1  0  0  0
 35 68  1  0  0  0
 36 56  1  0  0  0
 36114  1  0  0  0
 37 39  1  0  0  0
 37 47  1  0  0  0
 37 66  1  0  0  0
 37115  1  0  0  0
 38 43  2  0  0  0
 38 46  1  0  0  0
 38 47  1  0  0  0
 39 64  1  0  0  0
 39 67  2  0  0  0
 40 52  1  0  0  0
 40 53  2  0  0  0
 40 58  1  0  0  0
 41116  1  0  0  0
 41117  1  0  0  0
 41118  1  0  0  0
 41 48  1  0  0  0
 42 43  1  0  0  0
 42 66  1  0  0  0
 42119  1  0  0  0
 42120  1  0  0  0
 43 44  1  0  0  0
 44121  1  0  0  0
 45 46  2  0  0  0
 45122  1  0  0  0
 46123  1  0  0  0
 47124  1  0  0  0
 47125  1  0  0  0
 48 56  1  0  0  0
 48 65  1  0  0  0
 48126  1  0  0  0
 49 50  1  0  0  0
 49 53  1  0  0  0
 49 64  1  0  0  0
 49127  1  0  0  0
 50 51  1  0  0  0
 50128  1  0  0  0
 50129  1  0  0  0
 51 52  1  0  0  0
 51130  1  0  0  0
 51131  1  0  0  0
 52132  1  0  0  0
 52133  1  0  0  0
 53 54  1  0  0  0
 54 55  2  0  0  0
 54134  1  0  0  0
 55 57  1  0  0  0
 55135  1  0  0  0
 56 69  2  0  0  0
 57 58  2  0  0  0
 57136  1  0  0  0
 58137  1  0  0  0
 59 60  1  0  0  0
 59 61  1  0  0  0
 59 62  1  0  0  0
 60138  1  0  0  0
 60139  1  0  0  0
 60140  1  0  0  0
 61141  1  0  0  0
 61142  1  0  0  0
 61143  1  0  0  0
 62144  1  0  0  0
 62145  1  0  0  0
 62146  1  0  0  0
 63 65  1  0  0  0
 63147  1  0  0  0
 63148  1  0  0  0
 63149  1  0  0  0
 64150  1  0  0  0
 65151  1  0  0  0
 68 84  1  0  0  0
 71 72  2  0  0  0
 71 76  1  0  0  0
 71152  1  0  0  0
 72 74  1  0  0  0
 72 77  1  0  0  0
 73 74  2  0  0  0
 73 75  1  0  0  0
 73 85  1  0  0  0
 74 90  1  0  0  0
 75 76  2  0  0  0
 75 91  1  0  0  0
 76 92  1  0  0  0
 77 86  1  0  0  0
 77 88  2  0  0  0
 78 79  1  0  0  0
 78 87  1  0  0  0
 78 89  2  0  0  0
 79 80  1  0  0  0
 79153  1  0  0  0
 79154  1  0  0  0
 80 81  1  0  0  0
 80155  1  0  0  0
 80156  1  0  0  0
 81 82  1  0  0  0
 81157  1  0  0  0
 81158  1  0  0  0
 82 86  1  0  0  0
 82159  1  0  0  0
 82160  1  0  0  0
 83 84  1  0  0  0
 83 87  1  0  0  0
 83161  1  0  0  0
 83162  1  0  0  0
 84163  1  0  0  0
 84164  1  0  0  0
 85165  1  0  0  0
 86166  1  0  0  0
 87167  1  0  0  0
M  ISO  4   1 100  68 101  84 101  85 100
M  END
> <chiral flag>
0

> <version>
0

> <s_m_source_file>
/data/baiqing/PycharmProjects/Reinvent-master-3.2/result/LINK_invent/BTK/process_docking_weight1_custom_sum_contain_oxygen_bond_distance_aromatic_linkinvent_7_9_3/rearranged_h_0013.sdf

> <i_m_source_file_index>
11

> <r_mmod_Potential_Energy-OPLS-2005>
-240.114074707031

> <r_mmod_Stretch_Energy-OPLS-2005>
33.2540473937988

> <r_mmod_Bend_Energy-OPLS-2005>
116.667892456055

> <r_mmod_Torsional_Energy-OPLS-2005>
257.829132080078

> <r_mmod_Improper_Torsional_Energy-OPLS-2005>
3.06939125061035

> <r_mmod_Van_der_Waal_Energy-OPLS-2005>
153.829116821289

> <r_mmod_Electrostatic_Energy-OPLS-2005>
-548.487670898438

> <r_mmod_Solvation_Energy-OPLS-2005>
-265.446502685547

> <b_mmod_Minimization_Converged-OPLS-2005>
0

> <r_mmod_RMS_Derivative-OPLS-2005>
5.66437005996704

$$$$
11
                    3D
 Structure written by MMmdl.
140147  0  0  1  0            999 V2000
  -30.2253  -15.8005   20.2991 C   0  0  0  0  0  0
  -30.4216  -13.1911   19.5659 C   0  0  0  0  0  0
  -29.5705  -12.6942   18.3536 C   0  0  0  0  0  0
  -28.1497  -12.3041   18.7883 C   0  0  0  0  0  0
  -27.5862  -13.3275   19.7954 C   0  0  2  0  0  0
  -28.5806  -13.7325   20.9075 C   0  0  0  0  0  0
  -25.2282  -13.8306   20.5780 C   0  0  0  0  0  0
  -24.1701  -13.0432   20.9290 C   0  0  0  0  0  0
  -24.6429  -11.6952   20.8743 C   0  0  0  0  0  0
  -23.9137  -10.4293   21.0384 C   0  0  0  0  0  0
  -24.3666   -9.4208   21.9173 C   0  0  0  0  0  0
  -23.6320   -8.2252   22.0752 C   0  0  0  0  0  0
  -22.4299   -8.0291   21.3545 C   0  0  0  0  0  0
  -21.9948   -9.0268   20.4644 C   0  0  0  0  0  0
  -22.7297  -10.2136   20.3044 C   0  0  0  0  0  0
  -21.6862   -6.0744   22.5279 C   0  0  0  0  0  0
  -21.4022   -6.5645   23.8213 C   0  0  0  0  0  0
  -21.3661   -5.6795   24.9174 C   0  0  0  0  0  0
  -21.6043   -4.3057   24.7224 C   0  0  0  0  0  0
  -21.8817   -3.8151   23.4344 C   0  0  0  0  0  0
  -21.9194   -4.6970   22.3402 C   0  0  0  0  0  0
  -22.7712  -13.5150   21.1935 C   0  0  0  0  0  0
  -22.1661   -4.2155   21.0979 F   0  0  0  0  0  0
  -21.5626   -3.4539   25.7736 F   0  0  0  0  0  0
  -29.7544  -14.3908   20.2740 N   0  0  0  0  0  0
  -26.2735  -12.9674   20.3140 N   0  0  0  0  0  0
  -25.9374  -11.6728   20.5625 N   0  0  0  0  0  0
  -22.0386  -12.8123   22.0491 N   0  0  0  0  0  0
  -25.3842  -15.2053   20.4242 N   0  0  0  0  0  0
  -31.4709  -15.7122   20.1964 O   0  0  0  0  0  0
  -21.6652   -6.8893   21.4244 O   0  0  0  0  0  0
  -22.3379  -14.5447   20.6773 O   0  0  0  0  0  0
  -24.6956  -31.7866   23.1414 C   0  0  0  0  0  0
  -25.9479  -32.4403   23.8006 C   0  0  1  0  0  0
  -27.2283  -26.5775   20.2398 C   0  0  0  0  0  0
  -25.6006  -33.8232   24.1880 N   0  0  0  0  0  0
  -23.5267  -30.3834   21.4991 C   0  0  2  0  0  0
  -24.9830  -28.6938   20.1317 C   0  0  0  0  0  0
  -22.7818  -29.4248   22.4686 C   0  0  0  0  0  0
  -18.0348  -28.1430   22.8448 C   0  0  0  0  0  0
  -24.1499  -36.7128   23.2653 C   0  0  0  0  0  0
  -26.1129  -30.4801   21.4228 C   0  0  0  0  0  0
  -26.1768  -29.0286   20.7817 C   0  0  0  0  0  0
  -27.2821  -28.0057   20.7911 C   0  0  0  0  0  0
  -25.9957  -26.4806   19.5367 C   0  0  0  0  0  0
  -24.9380  -27.4462   19.4848 C   0  0  0  0  0  0
  -23.7879  -29.6669   20.1419 C   0  0  0  0  0  0
  -25.4152  -36.2856   24.0272 C   0  0  1  0  0  0
  -20.5988  -28.3796   23.1121 C   0  0  2  0  0  0
  -20.6809  -26.9444   22.5405 C   0  0  0  0  0  0
  -19.5788  -26.6369   21.5218 C   0  0  0  0  0  0
  -18.1970  -26.7955   22.1616 C   0  0  0  0  0  0
  -19.1616  -28.8940   23.2762 C   0  0  0  0  0  0
  -18.9519  -30.1521   23.8814 C   0  0  0  0  0  0
  -17.6506  -30.6608   24.0550 C   0  0  0  0  0  0
  -25.9140  -34.9250   23.4922 C   0  0  0  0  0  0
  -16.5396  -29.9088   23.6352 C   0  0  0  0  0  0
  -16.7327  -28.6512   23.0366 C   0  0  0  0  0  0
  -26.4614  -31.6486   25.0677 C   0  0  0  0  0  0
  -25.3646  -31.3842   26.1270 C   0  0  0  0  0  0
  -27.0560  -30.2809   24.6660 C   0  0  0  0  0  0
  -27.6044  -32.4370   25.7499 C   0  0  0  0  0  0
  -27.5566  -37.1716   24.8459 C   0  0  0  0  0  0
  -21.4454  -29.3021   22.3431 N   0  0  0  0  0  0
  -26.4266  -37.3632   23.9411 N   0  0  0  0  0  0
  -24.8036  -30.9195   22.0733 N   0  0  0  0  0  0
  -23.4207  -28.7867   23.3085 O   0  0  0  0  0  0
  -28.2112  -25.3307   20.2074 O   0  0  0  0  0  0
  -26.5797  -34.8850   22.4550 O   0  0  0  0  0  0
  -23.5949  -32.0993   23.6293 O   0  0  0  0  0  0
  -28.2343  -23.5359   20.5629 C   0  0  0  0  0  0
  -28.6604  -21.6577   19.9559 C   0  0  0  0  0  0
  -29.4322  -17.3149   20.2743 N   0  0  0  0  0  0
  -31.0017  -19.7355   20.5644 O   0  0  0  0  0  0
  -29.1046  -19.5077   22.1464 O   0  0  0  0  0  0
  -29.5570  -19.5031   20.7430 S   0  0  0  0  0  0
  -31.4083  -13.4717   19.1959 H   0  0  0  0  0  0
  -30.6082  -12.3757   20.2671 H   0  0  0  0  0  0
  -30.0594  -11.8514   17.8629 H   0  0  0  0  0  0
  -29.5135  -13.4906   17.6100 H   0  0  0  0  0  0
  -28.2009  -11.3216   19.2594 H   0  0  0  0  0  0
  -27.4924  -12.2007   17.9238 H   0  0  0  0  0  0
  -27.4263  -14.2239   19.1944 H   0  0  0  0  0  0
  -28.8602  -12.8801   21.5287 H   0  0  0  0  0  0
  -28.1106  -14.4514   21.5804 H   0  0  0  0  0  0
  -25.2806   -9.5680   22.4757 H   0  0  0  0  0  0
  -24.0019   -7.4646   22.7480 H   0  0  0  0  0  0
  -21.0875   -8.8800   19.8955 H   0  0  0  0  0  0
  -22.3755  -10.9677   19.6154 H   0  0  0  0  0  0
  -21.2020   -7.6153   23.9720 H   0  0  0  0  0  0
  -21.1483   -6.0524   25.9078 H   0  0  0  0  0  0
  -22.0594   -2.7613   23.2843 H   0  0  0  0  0  0
  -22.4035  -11.9801   22.4883 H   0  0  0  0  0  0
  -21.0992  -13.1113   22.2695 H   0  0  0  0  0  0
  -24.6099  -15.8503   20.5409 H   0  0  0  0  0  0
  -26.2195  -15.6491   20.0686 H   0  0  0  0  0  0
  -26.7572  -32.4844   23.0723 H   0  0  0  0  0  0
  -25.0044  -33.9251   24.9961 H   0  0  0  0  0  0
  -22.8589  -31.2237   21.2974 H   0  0  0  0  0  0
  -23.3783  -35.9432   23.3240 H   0  0  0  0  0  0
  -24.3567  -36.8873   22.2083 H   0  0  0  0  0  0
  -23.7237  -37.6272   23.6789 H   0  0  0  0  0  0
  -26.3256  -31.1937   20.6257 H   0  0  0  0  0  0
  -26.9608  -30.5562   22.0910 H   0  0  0  0  0  0
  -28.1894  -28.2835   21.3086 H   0  0  0  0  0  0
  -25.8128  -25.5486   19.0205 H   0  0  0  0  0  0
  -24.0412  -27.1789   18.9428 H   0  0  0  0  0  0
  -23.9773  -30.4196   19.3759 H   0  0  0  0  0  0
  -22.8896  -29.1414   19.8135 H   0  0  0  0  0  0
  -25.1366  -36.1596   25.0760 H   0  0  0  0  0  0
  -21.0065  -28.3430   24.1251 H   0  0  0  0  0  0
  -20.5663  -26.2424   23.3678 H   0  0  0  0  0  0
  -21.6671  -26.7370   22.1232 H   0  0  0  0  0  0
  -19.6943  -25.6258   21.1305 H   0  0  0  0  0  0
  -19.6737  -27.3132   20.6712 H   0  0  0  0  0  0
  -17.4240  -26.6697   21.4019 H   0  0  0  0  0  0
  -18.0354  -26.0121   22.9033 H   0  0  0  0  0  0
  -19.7995  -30.7358   24.2147 H   0  0  0  0  0  0
  -17.5057  -31.6279   24.5171 H   0  0  0  0  0  0
  -15.5393  -30.2964   23.7726 H   0  0  0  0  0  0
  -15.8728  -28.0805   22.7126 H   0  0  0  0  0  0
  -24.5865  -30.7157   25.7566 H   0  0  0  0  0  0
  -24.8800  -32.3076   26.4450 H   0  0  0  0  0  0
  -25.7793  -30.9165   27.0210 H   0  0  0  0  0  0
  -26.3297  -29.6391   24.1664 H   0  0  0  0  0  0
  -27.3952  -29.7300   25.5442 H   0  0  0  0  0  0
  -27.9291  -30.3905   24.0226 H   0  0  0  0  0  0
  -27.2576  -33.3756   26.1835 H   0  0  0  0  0  0
  -28.3976  -32.6798   25.0415 H   0  0  0  0  0  0
  -28.0580  -31.8664   26.5614 H   0  0  0  0  0  0
  -28.2525  -38.0065   24.7531 H   0  0  0  0  0  0
  -28.1120  -36.2587   24.6252 H   0  0  0  0  0  0
  -27.2286  -37.1305   25.8861 H   0  0  0  0  0  0
  -20.9788  -29.8658   21.6461 H   0  0  0  0  0  0
  -26.0080  -38.2670   24.1440 H   0  0  0  0  0  0
  -28.8548  -23.5777   21.4582 H   0  0  0  0  0  0
  -27.2321  -23.4100   20.9730 H   0  0  0  0  0  0
  -29.2853  -21.8219   19.0801 H   0  0  0  0  0  0
  -27.7213  -21.3371   19.5080 H   0  0  0  0  0  0
  -28.4372  -17.1830   20.1026 H   0  0  0  0  0  0
  1 25  1  0  0  0
  1 30  2  0  0  0
  1 73  1  0  0  0
  2  3  1  0  0  0
  2 25  1  0  0  0
  2 77  1  0  0  0
  2 78  1  0  0  0
  3  4  1  0  0  0
  3 79  1  0  0  0
  3 80  1  0  0  0
  4  5  1  0  0  0
  4 81  1  0  0  0
  4 82  1  0  0  0
  5  6  1  0  0  0
  5 26  1  0  0  0
  5 83  1  0  0  0
  6 25  1  0  0  0
  6 84  1  0  0  0
  6 85  1  0  0  0
  7  8  2  0  0  0
  7 26  1  0  0  0
  7 29  1  0  0  0
  8  9  1  0  0  0
  8 22  1  0  0  0
  9 10  1  0  0  0
  9 27  2  0  0  0
 10 11  2  0  0  0
 10 15  1  0  0  0
 11 12  1  0  0  0
 11 86  1  0  0  0
 12 13  2  0  0  0
 12 87  1  0  0  0
 13 14  1  0  0  0
 13 31  1  0  0  0
 14 15  2  0  0  0
 14 88  1  0  0  0
 15 89  1  0  0  0
 16 17  2  0  0  0
 16 21  1  0  0  0
 16 31  1  0  0  0
 17 18  1  0  0  0
 17 90  1  0  0  0
 18 19  2  0  0  0
 18 91  1  0  0  0
 19 20  1  0  0  0
 19 24  1  0  0  0
 20 21  2  0  0  0
 20 92  1  0  0  0
 21 23  1  0  0  0
 22 28  1  0  0  0
 22 32  2  0  0  0
 26 27  1  0  0  0
 28 93  1  0  0  0
 28 94  1  0  0  0
 29 95  1  0  0  0
 29 96  1  0  0  0
 33 34  1  0  0  0
 33 66  1  0  0  0
 33 70  2  0  0  0
 34 36  1  0  0  0
 34 59  1  0  0  0
 34 97  1  0  0  0
 35 44  2  0  0  0
 35 45  1  0  0  0
 35 68  1  0  0  0
 36 56  1  0  0  0
 36 98  1  0  0  0
 37 39  1  0  0  0
 37 47  1  0  0  0
 37 66  1  0  0  0
 37 99  1  0  0  0
 38 43  2  0  0  0
 38 46  1  0  0  0
 38 47  1  0  0  0
 39 64  1  0  0  0
 39 67  2  0  0  0
 40 52  1  0  0  0
 40 53  2  0  0  0
 40 58  1  0  0  0
 41100  1  0  0  0
 41101  1  0  0  0
 41102  1  0  0  0
 41 48  1  0  0  0
 42 43  1  0  0  0
 42 66  1  0  0  0
 42103  1  0  0  0
 42104  1  0  0  0
 43 44  1  0  0  0
 44105  1  0  0  0
 45 46  2  0  0  0
 45106  1  0  0  0
 46107  1  0  0  0
 47108  1  0  0  0
 47109  1  0  0  0
 48 56  1  0  0  0
 48 65  1  0  0  0
 48110  1  0  0  0
 49 50  1  0  0  0
 49 53  1  0  0  0
 49 64  1  0  0  0
 49111  1  0  0  0
 50 51  1  0  0  0
 50112  1  0  0  0
 50113  1  0  0  0
 51 52  1  0  0  0
 51114  1  0  0  0
 51115  1  0  0  0
 52116  1  0  0  0
 52117  1  0  0  0
 53 54  1  0  0  0
 54 55  2  0  0  0
 54118  1  0  0  0
 55 57  1  0  0  0
 55119  1  0  0  0
 56 69  2  0  0  0
 57 58  2  0  0  0
 57120  1  0  0  0
 58121  1  0  0  0
 59 60  1  0  0  0
 59 61  1  0  0  0
 59 62  1  0  0  0
 60122  1  0  0  0
 60123  1  0  0  0
 60124  1  0  0  0
 61125  1  0  0  0
 61126  1  0  0  0
 61127  1  0  0  0
 62128  1  0  0  0
 62129  1  0  0  0
 62130  1  0  0  0
 63 65  1  0  0  0
 63131  1  0  0  0
 63132  1  0  0  0
 63133  1  0  0  0
 64134  1  0  0  0
 65135  1  0  0  0
 68 71  1  0  0  0
 71 72  1  0  0  0
 71136  1  0  0  0
 71137  1  0  0  0
 72138  1  0  0  0
 72139  1  0  0  0
 72 76  1  0  0  0
 73 76  1  0  0  0
 73140  1  0  0  0
 74 76  2  0  0  0
 75 76  2  0  0  0
M  ISO  4   1 100  68 101  71 101  73 100
M  END
> <chiral flag>
0

> <version>
0

> <s_m_source_file>
/data/baiqing/PycharmProjects/Reinvent-master-3.2/result/LINK_invent/BTK/process_docking_weight1_custom_sum_contain_oxygen_bond_distance_aromatic_linkinvent_7_9_3/rearranged_h_0013.sdf

> <i_m_source_file_index>
12

> <r_mmod_Potential_Energy-OPLS-2005>
3124.70336914062

> <r_mmod_Stretch_Energy-OPLS-2005>
1552.43103027344

> <r_mmod_Bend_Energy-OPLS-2005>
844.622192382812

> <r_mmod_Torsional_Energy-OPLS-2005>
228.156280517578

> <r_mmod_Improper_Torsional_Energy-OPLS-2005>
3.92447519302368

> <r_mmod_Van_der_Waal_Energy-OPLS-2005>
110.405570983887

> <r_mmod_Electrostatic_Energy-OPLS-2005>
-487.240661621094

> <r_mmod_Solvation_Energy-OPLS-2005>
-286.862243652344

> <b_mmod_Minimization_Converged-OPLS-2005>
0

> <r_mmod_RMS_Derivative-OPLS-2005>
0.352481931447983

$$$$
12
                    3D
 Structure written by MMmdl.
154162  0  0  1  0            999 V2000
  -30.6111  -14.6640   20.4825 C   0  0  0  0  0  0
  -30.4423  -12.4055   19.4499 C   0  0  0  0  0  0
  -29.5075  -12.5028   18.2232 C   0  0  0  0  0  0
  -28.0313  -12.3347   18.6379 C   0  0  0  0  0  0
  -27.6499  -13.2124   19.8588 C   0  0  2  0  0  0
  -28.6987  -13.0851   20.9874 C   0  0  0  0  0  0
  -25.2537  -13.8129   20.5713 C   0  0  0  0  0  0
  -24.1813  -13.0400   20.9223 C   0  0  0  0  0  0
  -24.6389  -11.6880   20.8754 C   0  0  0  0  0  0
  -23.9061  -10.4270   21.0413 C   0  0  0  0  0  0
  -24.3613   -9.4188   21.9191 C   0  0  0  0  0  0
  -23.6286   -8.2226   22.0756 C   0  0  0  0  0  0
  -22.4269   -8.0270   21.3544 C   0  0  0  0  0  0
  -21.9905   -9.0245   20.4647 C   0  0  0  0  0  0
  -22.7235  -10.2122   20.3058 C   0  0  0  0  0  0
  -21.6846   -6.0732   22.5281 C   0  0  0  0  0  0
  -21.4009   -6.5637   23.8214 C   0  0  0  0  0  0
  -21.3658   -5.6791   24.9177 C   0  0  0  0  0  0
  -21.6045   -4.3054   24.7228 C   0  0  0  0  0  0
  -21.8819   -3.8145   23.4348 C   0  0  0  0  0  0
  -21.9190   -4.6960   22.3404 C   0  0  0  0  0  0
  -22.7837  -13.5203   21.1875 C   0  0  0  0  0  0
  -22.1659   -4.2148   21.0981 F   0  0  0  0  0  0
  -21.5632   -3.4538   25.7741 F   0  0  0  0  0  0
  -30.0107  -13.4325   20.4178 N   0  0  0  0  0  0
  -26.2969  -12.9320   20.3307 N   0  0  0  0  0  0
  -25.9314  -11.6478   20.5757 N   0  0  0  0  0  0
  -22.0473  -12.8201   22.0431 N   0  0  0  0  0  0
  -25.4160  -15.1844   20.4152 N   0  0  0  0  0  0
  -31.7858  -14.8233   20.1405 O   0  0  0  0  0  0
  -21.6628   -6.8872   21.4241 O   0  0  0  0  0  0
  -22.3525  -14.5509   20.6719 O   0  0  0  0  0  0
  -24.6259  -31.8592   23.2020 C   0  0  0  0  0  0
  -25.9108  -32.4775   23.8352 C   0  0  1  0  0  0
  -27.2287  -27.3190   20.1165 C   0  0  0  0  0  0
  -25.5925  -33.8575   24.2281 N   0  0  0  0  0  0
  -23.4201  -30.4819   21.5443 C   0  0  2  0  0  0
  -24.8677  -28.9354   20.1109 C   0  0  0  0  0  0
  -22.7475  -29.4616   22.4935 C   0  0  0  0  0  0
  -18.0286  -28.1378   22.8483 C   0  0  0  0  0  0
  -24.1489  -36.7292   23.2641 C   0  0  0  0  0  0
  -25.9607  -30.7896   21.3731 C   0  0  0  0  0  0
  -26.0357  -29.4166   20.7155 C   0  0  0  0  0  0
  -27.2184  -28.6199   20.7080 C   0  0  0  0  0  0
  -26.0379  -26.8904   19.4859 C   0  0  0  0  0  0
  -24.8707  -27.6778   19.4876 C   0  0  0  0  0  0
  -23.6354  -29.8154   20.1599 C   0  0  0  0  0  0
  -25.4113  -36.3082   24.0332 C   0  0  1  0  0  0
  -20.5885  -28.3683   23.1281 C   0  0  2  0  0  0
  -20.6774  -26.9406   22.5408 C   0  0  0  0  0  0
  -19.5753  -26.6379   21.5206 C   0  0  0  0  0  0
  -18.1933  -26.7923   22.1618 C   0  0  0  0  0  0
  -19.1538  -28.8847   23.2877 C   0  0  0  0  0  0
  -18.9463  -30.1449   23.8893 C   0  0  0  0  0  0
  -17.6464  -30.6583   24.0559 C   0  0  0  0  0  0
  -25.9050  -34.9449   23.5107 C   0  0  0  0  0  0
  -16.5354  -29.9081   23.6327 C   0  0  0  0  0  0
  -16.7273  -28.6498   23.0349 C   0  0  0  0  0  0
  -26.4495  -31.6585   25.0721 C   0  0  0  0  0  0
  -25.3730  -31.3723   26.1450 C   0  0  0  0  0  0
  -27.0345  -30.3013   24.6170 C   0  0  0  0  0  0
  -27.6055  -32.4322   25.7492 C   0  0  0  0  0  0
  -27.5578  -37.1801   24.8467 C   0  0  0  0  0  0
  -21.4188  -29.3037   22.3677 N   0  0  0  0  0  0
  -26.4292  -37.3774   23.9408 N   0  0  0  0  0  0
  -24.6876  -31.0603   22.0969 N   0  0  0  0  0  0
  -23.4197  -28.8155   23.3014 O   0  0  0  0  0  0
  -28.3536  -26.4805   20.1692 O   0  0  0  0  0  0
  -26.5618  -34.8917   22.4674 O   0  0  0  0  0  0
  -23.5422  -32.1392   23.7347 O   0  0  0  0  0  0
  -30.9470  -19.3386   21.1456 C   0  0  0  0  0  0
  -29.9601  -20.1143   20.4691 C   0  0  0  0  0  0
  -29.9070  -17.1658   20.5755 C   0  0  0  0  0  0
  -30.9267  -17.9158   21.2106 C   0  0  0  0  0  0
  -28.9351  -19.3629   19.8235 C   0  0  0  0  0  0
  -28.9166  -17.9268   19.8838 C   0  0  0  0  0  0
  -30.1483  -21.6492   20.3787 C   0  0  0  0  0  0
  -28.1682  -25.0098   20.0593 C   0  0  0  0  0  0
  -29.2833  -24.0451   20.6725 C   0  0  1  0  0  0
  -29.4023  -24.2740   22.2003 C   0  0  0  0  0  0
  -29.7612  -15.7118   20.7174 N   0  0  0  0  0  0
  -29.1214  -22.5540   20.4239 N   0  0  0  0  0  0
  -31.3088  -22.0631   20.3373 O   0  0  0  0  0  0
  -31.8818  -17.2795   21.9297 F   0  0  0  0  0  0
  -29.6591  -25.5527   22.4736 F   0  0  0  0  0  0
  -28.2610  -23.9305   22.7998 F   0  0  0  0  0  0
  -30.3848  -23.5455   22.7325 F   0  0  0  0  0  0
  -27.6946  -20.1784   18.9265 Cl  0  0  0  0  0  0
  -27.6555  -17.0690   19.0657 Cl  0  0  0  0  0  0
  -31.4812  -12.5403   19.1438 H   0  0  0  0  0  0
  -30.3884  -11.4135   19.9008 H   0  0  0  0  0  0
  -29.7753  -11.7462   17.4845 H   0  0  0  0  0  0
  -29.6418  -13.4686   17.7333 H   0  0  0  0  0  0
  -27.8745  -11.2825   18.8783 H   0  0  0  0  0  0
  -27.3748  -12.5538   17.7950 H   0  0  0  0  0  0
  -27.6582  -14.2413   19.5036 H   0  0  0  0  0  0
  -28.7176  -12.0678   21.3813 H   0  0  0  0  0  0
  -28.4445  -13.7270   21.8325 H   0  0  0  0  0  0
  -25.2758   -9.5662   22.4766 H   0  0  0  0  0  0
  -23.9994   -7.4613   22.7473 H   0  0  0  0  0  0
  -21.0836   -8.8765   19.8950 H   0  0  0  0  0  0
  -22.3698  -10.9665   19.6168 H   0  0  0  0  0  0
  -21.1997   -7.6145   23.9717 H   0  0  0  0  0  0
  -21.1482   -6.0521   25.9081 H   0  0  0  0  0  0
  -22.0600   -2.7608   23.2849 H   0  0  0  0  0  0
  -22.4083  -11.9862   22.4823 H   0  0  0  0  0  0
  -21.1094  -13.1236   22.2635 H   0  0  0  0  0  0
  -24.6314  -15.8194   20.5060 H   0  0  0  0  0  0
  -26.2307  -15.6291   20.0094 H   0  0  0  0  0  0
  -26.7178  -32.5444   23.1101 H   0  0  0  0  0  0
  -25.0074  -33.9722   25.0426 H   0  0  0  0  0  0
  -22.7144  -31.3025   21.4004 H   0  0  0  0  0  0
  -23.3750  -35.9626   23.3306 H   0  0  0  0  0  0
  -24.3583  -36.8909   22.2055 H   0  0  0  0  0  0
  -23.7244  -37.6495   23.6661 H   0  0  0  0  0  0
  -26.0918  -31.5529   20.6049 H   0  0  0  0  0  0
  -26.8411  -30.8387   22.0023 H   0  0  0  0  0  0
  -28.1148  -28.9836   21.1909 H   0  0  0  0  0  0
  -25.9859  -25.9316   18.9915 H   0  0  0  0  0  0
  -23.9759  -27.3046   19.0086 H   0  0  0  0  0  0
  -23.7553  -30.5910   19.4028 H   0  0  0  0  0  0
  -22.7556  -29.2448   19.8572 H   0  0  0  0  0  0
  -25.1291  -36.1937   25.0825 H   0  0  0  0  0  0
  -20.9977  -28.3257   24.1400 H   0  0  0  0  0  0
  -20.5672  -26.2292   23.3607 H   0  0  0  0  0  0
  -21.6643  -26.7435   22.1204 H   0  0  0  0  0  0
  -19.6919  -25.6290   21.1236 H   0  0  0  0  0  0
  -19.6692  -27.3188   20.6736 H   0  0  0  0  0  0
  -17.4202  -26.6665   21.4022 H   0  0  0  0  0  0
  -18.0337  -26.0063   22.9013 H   0  0  0  0  0  0
  -19.7942  -30.7259   24.2265 H   0  0  0  0  0  0
  -17.5022  -31.6264   24.5159 H   0  0  0  0  0  0
  -15.5356  -30.2982   23.7656 H   0  0  0  0  0  0
  -15.8673  -28.0819   22.7063 H   0  0  0  0  0  0
  -24.5908  -30.7067   25.7784 H   0  0  0  0  0  0
  -24.8915  -32.2887   26.4871 H   0  0  0  0  0  0
  -25.8056  -30.8908   27.0230 H   0  0  0  0  0  0
  -26.2920  -29.6759   24.1197 H   0  0  0  0  0  0
  -27.4055  -29.7270   25.4670 H   0  0  0  0  0  0
  -27.8781  -30.4308   23.9388 H   0  0  0  0  0  0
  -27.2668  -33.3627   26.2059 H   0  0  0  0  0  0
  -28.3868  -32.6873   25.0320 H   0  0  0  0  0  0
  -28.0717  -31.8451   26.5416 H   0  0  0  0  0  0
  -28.2595  -38.0098   24.7506 H   0  0  0  0  0  0
  -28.1074  -36.2626   24.6300 H   0  0  0  0  0  0
  -27.2296  -37.1457   25.8870 H   0  0  0  0  0  0
  -20.9368  -29.8769   21.6895 H   0  0  0  0  0  0
  -26.0175  -38.2850   24.1407 H   0  0  0  0  0  0
  -31.7590  -19.8502   21.6420 H   0  0  0  0  0  0
  -27.2221  -24.7348   20.5273 H   0  0  0  0  0  0
  -28.0630  -24.7752   18.9997 H   0  0  0  0  0  0
  -30.2260  -24.3549   20.2201 H   0  0  0  0  0  0
  -28.8069  -15.4106   20.8306 H   0  0  0  0  0  0
  -28.1816  -22.1872   20.4577 H   0  0  0  0  0  0
  1 25  1  0  0  0
  1 30  2  0  0  0
  1 81  1  0  0  0
  2  3  1  0  0  0
  2 25  1  0  0  0
  2 90  1  0  0  0
  2 91  1  0  0  0
  3  4  1  0  0  0
  3 92  1  0  0  0
  3 93  1  0  0  0
  4  5  1  0  0  0
  4 94  1  0  0  0
  4 95  1  0  0  0
  5  6  1  0  0  0
  5 26  1  0  0  0
  5 96  1  0  0  0
  6 25  1  0  0  0
  6 97  1  0  0  0
  6 98  1  0  0  0
  7  8  2  0  0  0
  7 26  1  0  0  0
  7 29  1  0  0  0
  8  9  1  0  0  0
  8 22  1  0  0  0
  9 10  1  0  0  0
  9 27  2  0  0  0
 10 11  2  0  0  0
 10 15  1  0  0  0
 11 12  1  0  0  0
 11 99  1  0  0  0
 12 13  2  0  0  0
 12100  1  0  0  0
 13 14  1  0  0  0
 13 31  1  0  0  0
 14 15  2  0  0  0
 14101  1  0  0  0
 15102  1  0  0  0
 16 17  2  0  0  0
 16 21  1  0  0  0
 16 31  1  0  0  0
 17 18  1  0  0  0
 17103  1  0  0  0
 18 19  2  0  0  0
 18104  1  0  0  0
 19 20  1  0  0  0
 19 24  1  0  0  0
 20 21  2  0  0  0
 20105  1  0  0  0
 21 23  1  0  0  0
 22 28  1  0  0  0
 22 32  2  0  0  0
 26 27  1  0  0  0
 28106  1  0  0  0
 28107  1  0  0  0
 29108  1  0  0  0
 29109  1  0  0  0
 33 34  1  0  0  0
 33 66  1  0  0  0
 33 70  2  0  0  0
 34 36  1  0  0  0
 34 59  1  0  0  0
 34110  1  0  0  0
 35 44  2  0  0  0
 35 45  1  0  0  0
 35 68  1  0  0  0
 36 56  1  0  0  0
 36111  1  0  0  0
 37 39  1  0  0  0
 37 47  1  0  0  0
 37 66  1  0  0  0
 37112  1  0  0  0
 38 43  2  0  0  0
 38 46  1  0  0  0
 38 47  1  0  0  0
 39 64  1  0  0  0
 39 67  2  0  0  0
 40 52  1  0  0  0
 40 53  2  0  0  0
 40 58  1  0  0  0
 41113  1  0  0  0
 41114  1  0  0  0
 41115  1  0  0  0
 41 48  1  0  0  0
 42 43  1  0  0  0
 42 66  1  0  0  0
 42116  1  0  0  0
 42117  1  0  0  0
 43 44  1  0  0  0
 44118  1  0  0  0
 45 46  2  0  0  0
 45119  1  0  0  0
 46120  1  0  0  0
 47121  1  0  0  0
 47122  1  0  0  0
 48 56  1  0  0  0
 48 65  1  0  0  0
 48123  1  0  0  0
 49 50  1  0  0  0
 49 53  1  0  0  0
 49 64  1  0  0  0
 49124  1  0  0  0
 50 51  1  0  0  0
 50125  1  0  0  0
 50126  1  0  0  0
 51 52  1  0  0  0
 51127  1  0  0  0
 51128  1  0  0  0
 52129  1  0  0  0
 52130  1  0  0  0
 53 54  1  0  0  0
 54 55  2  0  0  0
 54131  1  0  0  0
 55 57  1  0  0  0
 55132  1  0  0  0
 56 69  2  0  0  0
 57 58  2  0  0  0
 57133  1  0  0  0
 58134  1  0  0  0
 59 60  1  0  0  0
 59 61  1  0  0  0
 59 62  1  0  0  0
 60135  1  0  0  0
 60136  1  0  0  0
 60137  1  0  0  0
 61138  1  0  0  0
 61139  1  0  0  0
 61140  1  0  0  0
 62141  1  0  0  0
 62142  1  0  0  0
 62143  1  0  0  0
 63 65  1  0  0  0
 63144  1  0  0  0
 63145  1  0  0  0
 63146  1  0  0  0
 64147  1  0  0  0
 65148  1  0  0  0
 68 78  1  0  0  0
 71 72  2  0  0  0
 71 74  1  0  0  0
 71149  1  0  0  0
 72 75  1  0  0  0
 72 77  1  0  0  0
 73 74  2  0  0  0
 73 76  1  0  0  0
 73 81  1  0  0  0
 74 84  1  0  0  0
 75 76  2  0  0  0
 75 88  1  0  0  0
 76 89  1  0  0  0
 77 82  1  0  0  0
 77 83  2  0  0  0
 78150  1  0  0  0
 78151  1  0  0  0
 78 79  1  0  0  0
 79 80  1  0  0  0
 79 82  1  0  0  0
 79152  1  0  0  0
 80 85  1  0  0  0
 80 86  1  0  0  0
 80 87  1  0  0  0
 81153  1  0  0  0
 82154  1  0  0  0
M  ISO  4   1 100  68 101  78 101  81 100
M  END
> <chiral flag>
0

> <version>
0

> <s_m_source_file>
/data/baiqing/PycharmProjects/Reinvent-master-3.2/result/LINK_invent/BTK/process_docking_weight1_custom_sum_contain_oxygen_bond_distance_aromatic_linkinvent_7_9_3/rearranged_h_0013.sdf

> <i_m_source_file_index>
13

> <r_mmod_Potential_Energy-OPLS-2005>
-110.168067932129

> <r_mmod_Stretch_Energy-OPLS-2005>
83.65185546875

> <r_mmod_Bend_Energy-OPLS-2005>
137.939666748047

> <r_mmod_Torsional_Energy-OPLS-2005>
247.382293701172

> <r_mmod_Improper_Torsional_Energy-OPLS-2005>
7.90456819534302

> <r_mmod_Van_der_Waal_Energy-OPLS-2005>
148.084716796875

> <r_mmod_Electrostatic_Energy-OPLS-2005>
-563.291442871094

> <r_mmod_Solvation_Energy-OPLS-2005>
-225.108612060547

> <b_mmod_Minimization_Converged-OPLS-2005>
0

> <r_mmod_RMS_Derivative-OPLS-2005>
0.378401249647141

$$$$
13
                    3D
 Structure written by MMmdl.
152160  0  0  1  0            999 V2000
  -30.5284  -15.0152   20.4111 C   0  0  0  0  0  0
  -30.4378  -12.6329   19.4990 C   0  0  0  0  0  0
  -29.5180  -12.5344   18.2610 C   0  0  0  0  0  0
  -28.0552  -12.3103   18.6848 C   0  0  0  0  0  0
  -27.6268  -13.2533   19.8382 C   0  0  2  0  0  0
  -28.6725  -13.3173   20.9715 C   0  0  0  0  0  0
  -25.2448  -13.8220   20.5738 C   0  0  0  0  0  0
  -24.1766  -13.0450   20.9251 C   0  0  0  0  0  0
  -24.6381  -11.6940   20.8765 C   0  0  0  0  0  0
  -23.9063  -10.4307   21.0413 C   0  0  0  0  0  0
  -24.3612   -9.4220   21.9188 C   0  0  0  0  0  0
  -23.6287   -8.2242   22.0749 C   0  0  0  0  0  0
  -22.4264   -8.0282   21.3542 C   0  0  0  0  0  0
  -21.9910   -9.0249   20.4635 C   0  0  0  0  0  0
  -22.7232  -10.2138   20.3054 C   0  0  0  0  0  0
  -21.6862   -6.0721   22.5277 C   0  0  0  0  0  0
  -21.4020   -6.5629   23.8214 C   0  0  0  0  0  0
  -21.3661   -5.6786   24.9167 C   0  0  0  0  0  0
  -21.6052   -4.3050   24.7233 C   0  0  0  0  0  0
  -21.8817   -3.8137   23.4350 C   0  0  0  0  0  0
  -21.9199   -4.6941   22.3408 C   0  0  0  0  0  0
  -22.7791  -13.5215   21.1895 C   0  0  0  0  0  0
  -22.1667   -4.2133   21.0978 F   0  0  0  0  0  0
  -21.5630   -3.4538   25.7741 F   0  0  0  0  0  0
  -29.9338  -13.7484   20.3579 N   0  0  0  0  0  0
  -26.2882  -12.9468   20.3299 N   0  0  0  0  0  0
  -25.9327  -11.6601   20.5796 N   0  0  0  0  0  0
  -22.0439  -12.8187   22.0437 N   0  0  0  0  0  0
  -25.4097  -15.1945   20.4112 N   0  0  0  0  0  0
  -31.7402  -15.0449   20.1671 O   0  0  0  0  0  0
  -21.6643   -6.8854   21.4234 O   0  0  0  0  0  0
  -22.3468  -14.5501   20.6709 O   0  0  0  0  0  0
  -24.6465  -31.8369   23.1780 C   0  0  0  0  0  0
  -25.9201  -32.4650   23.8220 C   0  0  1  0  0  0
  -27.2261  -27.0822   20.1723 C   0  0  0  0  0  0
  -25.5917  -33.8452   24.2133 N   0  0  0  0  0  0
  -23.4571  -30.4546   21.5205 C   0  0  2  0  0  0
  -24.9108  -28.8685   20.1100 C   0  0  0  0  0  0
  -22.7593  -29.4506   22.4745 C   0  0  0  0  0  0
  -18.0315  -28.1416   22.8464 C   0  0  0  0  0  0
  -24.1496  -36.7247   23.2649 C   0  0  0  0  0  0
  -26.0153  -30.6972   21.3828 C   0  0  0  0  0  0
  -26.0884  -29.3007   20.7326 C   0  0  0  0  0  0
  -27.2461  -28.4253   20.7433 C   0  0  0  0  0  0
  -26.0194  -26.7615   19.5110 C   0  0  0  0  0  0
  -24.8901  -27.6122   19.4855 C   0  0  0  0  0  0
  -23.6918  -29.7803   20.1418 C   0  0  0  0  0  0
  -25.4129  -36.3009   24.0315 C   0  0  1  0  0  0
  -20.5924  -28.3737   23.1184 C   0  0  2  0  0  0
  -20.6793  -26.9424   22.5387 C   0  0  0  0  0  0
  -19.5784  -26.6382   21.5193 C   0  0  0  0  0  0
  -18.1959  -26.7954   22.1598 C   0  0  0  0  0  0
  -19.1571  -28.8897   23.2829 C   0  0  0  0  0  0
  -18.9502  -30.1486   23.8860 C   0  0  0  0  0  0
  -17.6503  -30.6606   24.0577 C   0  0  0  0  0  0
  -25.9060  -34.9375   23.5042 C   0  0  0  0  0  0
  -16.5393  -29.9113   23.6340 C   0  0  0  0  0  0
  -16.7302  -28.6536   23.0349 C   0  0  0  0  0  0
  -26.4527  -31.6542   25.0680 C   0  0  0  0  0  0
  -25.3723  -31.3754   26.1378 C   0  0  0  0  0  0
  -27.0374  -30.2931   24.6269 C   0  0  0  0  0  0
  -27.6051  -32.4309   25.7480 C   0  0  0  0  0  0
  -27.5567  -37.1781   24.8470 C   0  0  0  0  0  0
  -21.4262  -29.3053   22.3544 N   0  0  0  0  0  0
  -26.4276  -37.3739   23.9422 N   0  0  0  0  0  0
  -24.7264  -31.0203   22.0818 N   0  0  0  0  0  0
  -23.4194  -28.8025   23.2917 O   0  0  0  0  0  0
  -28.2718  -26.0714   20.2475 O   0  0  0  0  0  0
  -26.5683  -34.8895   22.4637 O   0  0  0  0  0  0
  -23.5550  -32.1218   23.6960 O   0  0  0  0  0  0
  -31.4093  -18.1085   20.8566 C   0  0  0  0  0  0
  -31.8179  -19.4560   21.0194 C   0  0  0  0  0  0
  -30.0800  -17.7470   20.5546 C   0  0  0  0  0  0
  -29.5673  -20.3978   20.5076 C   0  0  0  0  0  0
  -30.9373  -20.5562   20.8492 C   0  0  0  0  0  0
  -29.1810  -18.9431   20.3847 C   0  0  0  0  0  0
  -33.2627  -19.7381   21.4021 C   0  0  0  0  0  0
  -29.0845  -23.1906   20.4071 C   0  0  0  0  0  0
  -28.0014  -24.5111   20.1871 C   0  0  0  0  0  0
  -29.7515  -16.2240   20.4968 N   0  0  0  0  0  0
  -28.7243  -21.6428   20.3358 N   0  0  0  0  0  0
  -31.4468  -21.8008   21.0293 F   0  0  0  0  0  0
  -27.5299  -18.6067   19.9978 Cl  0  0  0  0  0  0
  -31.4662  -12.7993   19.1793 H   0  0  0  0  0  0
  -30.4499  -11.6924   20.0528 H   0  0  0  0  0  0
  -29.8457  -11.7270   17.6049 H   0  0  0  0  0  0
  -29.5955  -13.4538   17.6796 H   0  0  0  0  0  0
  -27.9584  -11.2711   19.0051 H   0  0  0  0  0  0
  -27.3880  -12.4292   17.8296 H   0  0  0  0  0  0
  -27.5795  -14.2478   19.3943 H   0  0  0  0  0  0
  -28.7835  -12.3526   21.4702 H   0  0  0  0  0  0
  -28.3651  -14.0318   21.7366 H   0  0  0  0  0  0
  -25.2746   -9.5712   22.4786 H   0  0  0  0  0  0
  -24.0005   -7.4635   22.7476 H   0  0  0  0  0  0
  -21.0854   -8.8752   19.8942 H   0  0  0  0  0  0
  -22.3670  -10.9669   19.6170 H   0  0  0  0  0  0
  -21.1999   -7.6141   23.9713 H   0  0  0  0  0  0
  -21.1496   -6.0513   25.9077 H   0  0  0  0  0  0
  -22.0589   -2.7599   23.2863 H   0  0  0  0  0  0
  -22.4056  -11.9834   22.4798 H   0  0  0  0  0  0
  -21.1064  -13.1217   22.2674 H   0  0  0  0  0  0
  -24.6308  -15.8376   20.4961 H   0  0  0  0  0  0
  -26.2399  -15.6378   20.0418 H   0  0  0  0  0  0
  -26.7263  -32.5258   23.0935 H   0  0  0  0  0  0
  -25.0055  -33.9584   25.0274 H   0  0  0  0  0  0
  -22.7665  -31.2825   21.3566 H   0  0  0  0  0  0
  -23.3754  -35.9582   23.3293 H   0  0  0  0  0  0
  -24.3573  -36.8881   22.2066 H   0  0  0  0  0  0
  -23.7246  -37.6439   23.6694 H   0  0  0  0  0  0
  -26.1808  -31.4441   20.6054 H   0  0  0  0  0  0
  -26.8819  -30.7554   22.0268 H   0  0  0  0  0  0
  -28.1393  -28.7562   21.2543 H   0  0  0  0  0  0
  -25.9187  -25.8031   19.0261 H   0  0  0  0  0  0
  -23.9905  -27.2756   18.9899 H   0  0  0  0  0  0
  -23.8409  -30.5492   19.3817 H   0  0  0  0  0  0
  -22.8078  -29.2241   19.8277 H   0  0  0  0  0  0
  -25.1319  -36.1814   25.0812 H   0  0  0  0  0  0
  -21.0070  -28.3329   24.1281 H   0  0  0  0  0  0
  -20.5656  -26.2346   23.3607 H   0  0  0  0  0  0
  -21.6670  -26.7409   22.1218 H   0  0  0  0  0  0
  -19.6955  -25.6278   21.1263 H   0  0  0  0  0  0
  -19.6757  -27.3184   20.6712 H   0  0  0  0  0  0
  -17.4229  -26.6670   21.4012 H   0  0  0  0  0  0
  -18.0379  -26.0143   22.9023 H   0  0  0  0  0  0
  -19.7980  -30.7326   24.2208 H   0  0  0  0  0  0
  -17.5063  -31.6289   24.5182 H   0  0  0  0  0  0
  -15.5398  -30.3027   23.7688 H   0  0  0  0  0  0
  -15.8682  -28.0871   22.7059 H   0  0  0  0  0  0
  -24.5984  -30.6979   25.7748 H   0  0  0  0  0  0
  -24.8819  -32.2931   26.4647 H   0  0  0  0  0  0
  -25.8041  -30.9103   27.0246 H   0  0  0  0  0  0
  -26.2979  -29.6652   24.1288 H   0  0  0  0  0  0
  -27.4008  -29.7232   25.4833 H   0  0  0  0  0  0
  -27.8883  -30.4184   23.9571 H   0  0  0  0  0  0
  -27.2677  -33.3694   26.1906 H   0  0  0  0  0  0
  -28.3973  -32.6705   25.0367 H   0  0  0  0  0  0
  -28.0597  -31.8510   26.5526 H   0  0  0  0  0  0
  -28.2585  -38.0084   24.7508 H   0  0  0  0  0  0
  -28.1068  -36.2602   24.6310 H   0  0  0  0  0  0
  -27.2286  -37.1447   25.8876 H   0  0  0  0  0  0
  -20.9425  -29.8804   21.6784 H   0  0  0  0  0  0
  -26.0122  -38.2789   24.1439 H   0  0  0  0  0  0
  -32.1504  -17.3353   20.9954 H   0  0  0  0  0  0
  -33.8136  -18.8223   21.6156 H   0  0  0  0  0  0
  -33.3117  -20.3634   22.2950 H   0  0  0  0  0  0
  -33.7778  -20.2586   20.5938 H   0  0  0  0  0  0
  -29.5630  -23.3393   21.3762 H   0  0  0  0  0  0
  -29.8893  -23.3330   19.6853 H   0  0  0  0  0  0
  -27.1960  -24.3563   20.9059 H   0  0  0  0  0  0
  -27.5404  -24.3325   19.2165 H   0  0  0  0  0  0
  -28.7616  -16.0342   20.5330 H   0  0  0  0  0  0
  -27.7386  -21.4539   20.1864 H   0  0  0  0  0  0
  1 25  1  0  0  0
  1 30  2  0  0  0
  1 80  1  0  0  0
  2  3  1  0  0  0
  2 25  1  0  0  0
  2 84  1  0  0  0
  2 85  1  0  0  0
  3  4  1  0  0  0
  3 86  1  0  0  0
  3 87  1  0  0  0
  4  5  1  0  0  0
  4 88  1  0  0  0
  4 89  1  0  0  0
  5  6  1  0  0  0
  5 26  1  0  0  0
  5 90  1  0  0  0
  6 25  1  0  0  0
  6 91  1  0  0  0
  6 92  1  0  0  0
  7  8  2  0  0  0
  7 26  1  0  0  0
  7 29  1  0  0  0
  8  9  1  0  0  0
  8 22  1  0  0  0
  9 10  1  0  0  0
  9 27  2  0  0  0
 10 11  2  0  0  0
 10 15  1  0  0  0
 11 12  1  0  0  0
 11 93  1  0  0  0
 12 13  2  0  0  0
 12 94  1  0  0  0
 13 14  1  0  0  0
 13 31  1  0  0  0
 14 15  2  0  0  0
 14 95  1  0  0  0
 15 96  1  0  0  0
 16 17  2  0  0  0
 16 21  1  0  0  0
 16 31  1  0  0  0
 17 18  1  0  0  0
 17 97  1  0  0  0
 18 19  2  0  0  0
 18 98  1  0  0  0
 19 20  1  0  0  0
 19 24  1  0  0  0
 20 21  2  0  0  0
 20 99  1  0  0  0
 21 23  1  0  0  0
 22 28  1  0  0  0
 22 32  2  0  0  0
 26 27  1  0  0  0
 28100  1  0  0  0
 28101  1  0  0  0
 29102  1  0  0  0
 29103  1  0  0  0
 33 34  1  0  0  0
 33 66  1  0  0  0
 33 70  2  0  0  0
 34 36  1  0  0  0
 34 59  1  0  0  0
 34104  1  0  0  0
 35 44  2  0  0  0
 35 45  1  0  0  0
 35 68  1  0  0  0
 36 56  1  0  0  0
 36105  1  0  0  0
 37 39  1  0  0  0
 37 47  1  0  0  0
 37 66  1  0  0  0
 37106  1  0  0  0
 38 43  2  0  0  0
 38 46  1  0  0  0
 38 47  1  0  0  0
 39 64  1  0  0  0
 39 67  2  0  0  0
 40 52  1  0  0  0
 40 53  2  0  0  0
 40 58  1  0  0  0
 41107  1  0  0  0
 41108  1  0  0  0
 41109  1  0  0  0
 41 48  1  0  0  0
 42 43  1  0  0  0
 42 66  1  0  0  0
 42110  1  0  0  0
 42111  1  0  0  0
 43 44  1  0  0  0
 44112  1  0  0  0
 45 46  2  0  0  0
 45113  1  0  0  0
 46114  1  0  0  0
 47115  1  0  0  0
 47116  1  0  0  0
 48 56  1  0  0  0
 48 65  1  0  0  0
 48117  1  0  0  0
 49 50  1  0  0  0
 49 53  1  0  0  0
 49 64  1  0  0  0
 49118  1  0  0  0
 50 51  1  0  0  0
 50119  1  0  0  0
 50120  1  0  0  0
 51 52  1  0  0  0
 51121  1  0  0  0
 51122  1  0  0  0
 52123  1  0  0  0
 52124  1  0  0  0
 53 54  1  0  0  0
 54 55  2  0  0  0
 54125  1  0  0  0
 55 57  1  0  0  0
 55126  1  0  0  0
 56 69  2  0  0  0
 57 58  2  0  0  0
 57127  1  0  0  0
 58128  1  0  0  0
 59 60  1  0  0  0
 59 61  1  0  0  0
 59 62  1  0  0  0
 60129  1  0  0  0
 60130  1  0  0  0
 60131  1  0  0  0
 61132  1  0  0  0
 61133  1  0  0  0
 61134  1  0  0  0
 62135  1  0  0  0
 62136  1  0  0  0
 62137  1  0  0  0
 63 65  1  0  0  0
 63138  1  0  0  0
 63139  1  0  0  0
 63140  1  0  0  0
 64141  1  0  0  0
 65142  1  0  0  0
 68 79  1  0  0  0
 71 72  2  0  0  0
 71 73  1  0  0  0
 71143  1  0  0  0
 72 75  1  0  0  0
 72 77  1  0  0  0
 73 76  2  0  0  0
 73 80  1  0  0  0
 74 75  2  0  0  0
 74 76  1  0  0  0
 74 81  1  0  0  0
 75 82  1  0  0  0
 76 83  1  0  0  0
 77144  1  0  0  0
 77145  1  0  0  0
 77146  1  0  0  0
 78 79  1  0  0  0
 78 81  1  0  0  0
 78147  1  0  0  0
 78148  1  0  0  0
 79149  1  0  0  0
 79150  1  0  0  0
 80151  1  0  0  0
 81152  1  0  0  0
M  ISO  4   1 100  68 101  79 101  80 100
M  END
> <chiral flag>
0

> <version>
0

> <s_m_source_file>
/data/baiqing/PycharmProjects/Reinvent-master-3.2/result/LINK_invent/BTK/process_docking_weight1_custom_sum_contain_oxygen_bond_distance_aromatic_linkinvent_7_9_3/rearranged_h_0013.sdf

> <i_m_source_file_index>
14

> <r_mmod_Potential_Energy-OPLS-2005>
664.216674804688

> <r_mmod_Stretch_Energy-OPLS-2005>
323.254119873047

> <r_mmod_Bend_Energy-OPLS-2005>
276.465942382812

> <r_mmod_Torsional_Energy-OPLS-2005>
204.335418701172

> <r_mmod_Improper_Torsional_Energy-OPLS-2005>
5.34331226348877

> <r_mmod_Van_der_Waal_Energy-OPLS-2005>
132.070404052734

> <r_mmod_Electrostatic_Energy-OPLS-2005>
-309.987365722656

> <r_mmod_Solvation_Energy-OPLS-2005>
-209.539535522461

> <b_mmod_Minimization_Converged-OPLS-2005>
0

> <r_mmod_RMS_Derivative-OPLS-2005>
3.61997437477112

$$$$
14
                    3D
 Structure written by MMmdl.
149157  0  0  1  0            999 V2000
  -30.5170  -14.9006   20.4185 C   0  0  0  0  0  0
  -30.4522  -12.5532   19.4807 C   0  0  0  0  0  0
  -29.5226  -12.5332   18.2436 C   0  0  0  0  0  0
  -28.0516  -12.3254   18.6598 C   0  0  0  0  0  0
  -27.6360  -13.2358   19.8441 C   0  0  2  0  0  0
  -28.6836  -13.2117   20.9784 C   0  0  0  0  0  0
  -25.2476  -13.8152   20.5751 C   0  0  0  0  0  0
  -24.1783  -13.0392   20.9252 C   0  0  0  0  0  0
  -24.6386  -11.6882   20.8747 C   0  0  0  0  0  0
  -23.9062  -10.4261   21.0404 C   0  0  0  0  0  0
  -24.3605   -9.4187   21.9186 C   0  0  0  0  0  0
  -23.6280   -8.2227   22.0753 C   0  0  0  0  0  0
  -22.4268   -8.0262   21.3542 C   0  0  0  0  0  0
  -21.9898   -9.0241   20.4647 C   0  0  0  0  0  0
  -22.7227  -10.2115   20.3055 C   0  0  0  0  0  0
  -21.6847   -6.0726   22.5279 C   0  0  0  0  0  0
  -21.4009   -6.5632   23.8213 C   0  0  0  0  0  0
  -21.3661   -5.6783   24.9178 C   0  0  0  0  0  0
  -21.6042   -4.3045   24.7228 C   0  0  0  0  0  0
  -21.8819   -3.8139   23.4351 C   0  0  0  0  0  0
  -21.9193   -4.6954   22.3407 C   0  0  0  0  0  0
  -22.7805  -13.5191   21.1905 C   0  0  0  0  0  0
  -22.1660   -4.2143   21.0983 F   0  0  0  0  0  0
  -21.5636   -3.4527   25.7743 F   0  0  0  0  0  0
  -29.9667  -13.6246   20.3895 N   0  0  0  0  0  0
  -26.2904  -12.9386   20.3243 N   0  0  0  0  0  0
  -25.9316  -11.6522   20.5708 N   0  0  0  0  0  0
  -22.0434  -12.8187   22.0447 N   0  0  0  0  0  0
  -25.4041  -15.1875   20.4235 N   0  0  0  0  0  0
  -31.7128  -15.0343   20.1374 O   0  0  0  0  0  0
  -21.6626   -6.8866   21.4244 O   0  0  0  0  0  0
  -22.3495  -14.5495   20.6734 O   0  0  0  0  0  0
  -24.6415  -31.8463   23.1888 C   0  0  0  0  0  0
  -25.9203  -32.4705   23.8267 C   0  0  1  0  0  0
  -27.2261  -27.1625   20.1455 C   0  0  0  0  0  0
  -25.5961  -33.8507   24.2189 N   0  0  0  0  0  0
  -23.4437  -30.4653   21.5341 C   0  0  2  0  0  0
  -24.8943  -28.8959   20.1091 C   0  0  0  0  0  0
  -22.7561  -29.4557   22.4865 C   0  0  0  0  0  0
  -18.0310  -28.1388   22.8476 C   0  0  0  0  0  0
  -24.1499  -36.7257   23.2637 C   0  0  0  0  0  0
  -25.9972  -30.7292   21.3834 C   0  0  0  0  0  0
  -26.0708  -29.3428   20.7239 C   0  0  0  0  0  0
  -27.2376  -28.4922   20.7246 C   0  0  0  0  0  0
  -26.0205  -26.8106   19.4977 C   0  0  0  0  0  0
  -24.8812  -27.6419   19.4808 C   0  0  0  0  0  0
  -23.6680  -29.7924   20.1538 C   0  0  0  0  0  0
  -25.4129  -36.3027   24.0307 C   0  0  1  0  0  0
  -20.5920  -28.3716   23.1239 C   0  0  2  0  0  0
  -20.6795  -26.9423   22.5398 C   0  0  0  0  0  0
  -19.5766  -26.6380   21.5208 C   0  0  0  0  0  0
  -18.1951  -26.7933   22.1621 C   0  0  0  0  0  0
  -19.1563  -28.8872   23.2850 C   0  0  0  0  0  0
  -18.9476  -30.1474   23.8869 C   0  0  0  0  0  0
  -17.6468  -30.6587   24.0555 C   0  0  0  0  0  0
  -25.9074  -34.9405   23.5050 C   0  0  0  0  0  0
  -16.5364  -29.9073   23.6335 C   0  0  0  0  0  0
  -16.7295  -28.6491   23.0360 C   0  0  0  0  0  0
  -26.4522  -31.6567   25.0706 C   0  0  0  0  0  0
  -25.3703  -31.3767   26.1396 C   0  0  0  0  0  0
  -27.0380  -30.2960   24.6287 C   0  0  0  0  0  0
  -27.6053  -32.4331   25.7503 C   0  0  0  0  0  0
  -27.5578  -37.1786   24.8459 C   0  0  0  0  0  0
  -21.4256  -29.3044   22.3616 N   0  0  0  0  0  0
  -26.4288  -37.3741   23.9402 N   0  0  0  0  0  0
  -24.7137  -31.0347   22.0911 N   0  0  0  0  0  0
  -23.4211  -28.8116   23.3019 O   0  0  0  0  0  0
  -28.2901  -26.1941   20.2184 O   0  0  0  0  0  0
  -26.5650  -34.8908   22.4625 O   0  0  0  0  0  0
  -23.5543  -32.1325   23.7129 O   0  0  0  0  0  0
  -30.3845  -18.5321   20.9836 C   0  0  0  0  0  0
  -28.2450  -19.4899   19.5261 C   0  0  0  0  0  0
  -29.5920  -17.5009   20.3614 C   0  0  0  0  0  0
  -28.9996  -20.5300   20.1553 C   0  0  0  0  0  0
  -30.1133  -19.9696   20.8853 C   0  0  0  0  0  0
  -28.5148  -18.0750   19.6145 C   0  0  0  0  0  0
  -29.0058  -23.3651   20.3668 C   0  0  0  0  0  0
  -28.0210  -24.6821   20.0157 C   0  0  0  0  0  0
  -29.6336  -15.9886   20.5786 N   0  0  0  0  0  0
  -28.5423  -21.9371   19.9824 N   0  0  0  0  0  0
  -30.9436  -20.8202   21.5363 F   0  0  0  0  0  0
  -27.4510  -17.0159   18.7603 Cl  0  0  0  0  0  0
  -31.4846  -12.7233   19.1711 H   0  0  0  0  0  0
  -30.4452  -11.5862   19.9869 H   0  0  0  0  0  0
  -29.8319  -11.7504   17.5491 H   0  0  0  0  0  0
  -29.6178  -13.4762   17.7032 H   0  0  0  0  0  0
  -27.9324  -11.2785   18.9420 H   0  0  0  0  0  0
  -27.3910  -12.4882   17.8076 H   0  0  0  0  0  0
  -27.6109  -14.2464   19.4408 H   0  0  0  0  0  0
  -28.7600  -12.2143   21.4143 H   0  0  0  0  0  0
  -28.3929  -13.8773   21.7928 H   0  0  0  0  0  0
  -25.2748   -9.5673   22.4763 H   0  0  0  0  0  0
  -23.9990   -7.4618   22.7460 H   0  0  0  0  0  0
  -21.0838   -8.8757   19.8951 H   0  0  0  0  0  0
  -22.3682  -10.9658   19.6163 H   0  0  0  0  0  0
  -21.1991   -7.6135   23.9716 H   0  0  0  0  0  0
  -21.1487   -6.0511   25.9080 H   0  0  0  0  0  0
  -22.0598   -2.7603   23.2849 H   0  0  0  0  0  0
  -22.4036  -11.9852   22.4852 H   0  0  0  0  0  0
  -21.1049  -13.1226   22.2636 H   0  0  0  0  0  0
  -24.6127  -15.8126   20.5225 H   0  0  0  0  0  0
  -26.1933  -15.6302   19.9686 H   0  0  0  0  0  0
  -26.7274  -32.5323   23.1002 H   0  0  0  0  0  0
  -25.0100  -33.9624   25.0328 H   0  0  0  0  0  0
  -22.7438  -31.2890   21.3801 H   0  0  0  0  0  0
  -23.3760  -35.9590   23.3283 H   0  0  0  0  0  0
  -24.3578  -36.8906   22.2054 H   0  0  0  0  0  0
  -23.7270  -37.6457   23.6684 H   0  0  0  0  0  0
  -26.1492  -31.4888   20.6153 H   0  0  0  0  0  0
  -26.8679  -30.7780   22.0250 H   0  0  0  0  0  0
  -28.1341  -28.8317   21.2241 H   0  0  0  0  0  0
  -25.9228  -25.8503   19.0143 H   0  0  0  0  0  0
  -23.9823  -27.2937   18.9899 H   0  0  0  0  0  0
  -23.7954  -30.5646   19.3944 H   0  0  0  0  0  0
  -22.7857  -29.2270   19.8490 H   0  0  0  0  0  0
  -25.1325  -36.1837   25.0799 H   0  0  0  0  0  0
  -21.0008  -28.3307   24.1362 H   0  0  0  0  0  0
  -20.5696  -26.2332   23.3615 H   0  0  0  0  0  0
  -21.6663  -26.7442   22.1193 H   0  0  0  0  0  0
  -19.6929  -25.6283   21.1265 H   0  0  0  0  0  0
  -19.6707  -27.3167   20.6719 H   0  0  0  0  0  0
  -17.4222  -26.6676   21.4026 H   0  0  0  0  0  0
  -18.0351  -26.0081   22.9022 H   0  0  0  0  0  0
  -19.7952  -30.7303   24.2220 H   0  0  0  0  0  0
  -17.5022  -31.6269   24.5161 H   0  0  0  0  0  0
  -15.5362  -30.2957   23.7685 H   0  0  0  0  0  0
  -15.8699  -28.0800   22.7087 H   0  0  0  0  0  0
  -24.5880  -30.7127   25.7706 H   0  0  0  0  0  0
  -24.8895  -32.2954   26.4762 H   0  0  0  0  0  0
  -25.7969  -30.8969   27.0211 H   0  0  0  0  0  0
  -26.2989  -29.6695   24.1285 H   0  0  0  0  0  0
  -27.3972  -29.7262   25.4866 H   0  0  0  0  0  0
  -27.8908  -30.4186   23.9608 H   0  0  0  0  0  0
  -27.2637  -33.3640   26.2040 H   0  0  0  0  0  0
  -28.3891  -32.6881   25.0358 H   0  0  0  0  0  0
  -28.0690  -31.8487   26.5458 H   0  0  0  0  0  0
  -28.2581  -38.0096   24.7502 H   0  0  0  0  0  0
  -28.1091  -36.2622   24.6287 H   0  0  0  0  0  0
  -27.2290  -37.1433   25.8860 H   0  0  0  0  0  0
  -20.9464  -29.8741   21.6784 H   0  0  0  0  0  0
  -26.0150  -38.2811   24.1393 H   0  0  0  0  0  0
  -31.2145  -18.2244   21.6019 H   0  0  0  0  0  0
  -27.3839  -19.7757   18.9412 H   0  0  0  0  0  0
  -29.2216  -23.3694   21.4362 H   0  0  0  0  0  0
  -29.9685  -23.5255   19.8785 H   0  0  0  0  0  0
  -27.0893  -24.4831   20.5458 H   0  0  0  0  0  0
  -27.7770  -24.5797   18.9577 H   0  0  0  0  0  0
  -28.7008  -15.6206   20.6825 H   0  0  0  0  0  0
  -27.7083  -21.9875   19.4032 H   0  0  0  0  0  0
  1 25  1  0  0  0
  1 30  2  0  0  0
  1 79  1  0  0  0
  2  3  1  0  0  0
  2 25  1  0  0  0
  2 83  1  0  0  0
  2 84  1  0  0  0
  3  4  1  0  0  0
  3 85  1  0  0  0
  3 86  1  0  0  0
  4  5  1  0  0  0
  4 87  1  0  0  0
  4 88  1  0  0  0
  5  6  1  0  0  0
  5 26  1  0  0  0
  5 89  1  0  0  0
  6 25  1  0  0  0
  6 90  1  0  0  0
  6 91  1  0  0  0
  7  8  2  0  0  0
  7 26  1  0  0  0
  7 29  1  0  0  0
  8  9  1  0  0  0
  8 22  1  0  0  0
  9 10  1  0  0  0
  9 27  2  0  0  0
 10 11  2  0  0  0
 10 15  1  0  0  0
 11 12  1  0  0  0
 11 92  1  0  0  0
 12 13  2  0  0  0
 12 93  1  0  0  0
 13 14  1  0  0  0
 13 31  1  0  0  0
 14 15  2  0  0  0
 14 94  1  0  0  0
 15 95  1  0  0  0
 16 17  2  0  0  0
 16 21  1  0  0  0
 16 31  1  0  0  0
 17 18  1  0  0  0
 17 96  1  0  0  0
 18 19  2  0  0  0
 18 97  1  0  0  0
 19 20  1  0  0  0
 19 24  1  0  0  0
 20 21  2  0  0  0
 20 98  1  0  0  0
 21 23  1  0  0  0
 22 28  1  0  0  0
 22 32  2  0  0  0
 26 27  1  0  0  0
 28 99  1  0  0  0
 28100  1  0  0  0
 29101  1  0  0  0
 29102  1  0  0  0
 33 34  1  0  0  0
 33 66  1  0  0  0
 33 70  2  0  0  0
 34 36  1  0  0  0
 34 59  1  0  0  0
 34103  1  0  0  0
 35 44  2  0  0  0
 35 45  1  0  0  0
 35 68  1  0  0  0
 36 56  1  0  0  0
 36104  1  0  0  0
 37 39  1  0  0  0
 37 47  1  0  0  0
 37 66  1  0  0  0
 37105  1  0  0  0
 38 43  2  0  0  0
 38 46  1  0  0  0
 38 47  1  0  0  0
 39 64  1  0  0  0
 39 67  2  0  0  0
 40 52  1  0  0  0
 40 53  2  0  0  0
 40 58  1  0  0  0
 41106  1  0  0  0
 41107  1  0  0  0
 41108  1  0  0  0
 41 48  1  0  0  0
 42 43  1  0  0  0
 42 66  1  0  0  0
 42109  1  0  0  0
 42110  1  0  0  0
 43 44  1  0  0  0
 44111  1  0  0  0
 45 46  2  0  0  0
 45112  1  0  0  0
 46113  1  0  0  0
 47114  1  0  0  0
 47115  1  0  0  0
 48 56  1  0  0  0
 48 65  1  0  0  0
 48116  1  0  0  0
 49 50  1  0  0  0
 49 53  1  0  0  0
 49 64  1  0  0  0
 49117  1  0  0  0
 50 51  1  0  0  0
 50118  1  0  0  0
 50119  1  0  0  0
 51 52  1  0  0  0
 51120  1  0  0  0
 51121  1  0  0  0
 52122  1  0  0  0
 52123  1  0  0  0
 53 54  1  0  0  0
 54 55  2  0  0  0
 54124  1  0  0  0
 55 57  1  0  0  0
 55125  1  0  0  0
 56 69  2  0  0  0
 57 58  2  0  0  0
 57126  1  0  0  0
 58127  1  0  0  0
 59 60  1  0  0  0
 59 61  1  0  0  0
 59 62  1  0  0  0
 60128  1  0  0  0
 60129  1  0  0  0
 60130  1  0  0  0
 61131  1  0  0  0
 61132  1  0  0  0
 61133  1  0  0  0
 62134  1  0  0  0
 62135  1  0  0  0
 62136  1  0  0  0
 63 65  1  0  0  0
 63137  1  0  0  0
 63138  1  0  0  0
 63139  1  0  0  0
 64140  1  0  0  0
 65141  1  0  0  0
 68 78  1  0  0  0
 71 73  2  0  0  0
 71 75  1  0  0  0
 71142  1  0  0  0
 72 74  1  0  0  0
 72 76  2  0  0  0
 72143  1  0  0  0
 73 76  1  0  0  0
 73 79  1  0  0  0
 74 75  2  0  0  0
 74 80  1  0  0  0
 75 81  1  0  0  0
 76 82  1  0  0  0
 77 78  1  0  0  0
 77 80  1  0  0  0
 77144  1  0  0  0
 77145  1  0  0  0
 78146  1  0  0  0
 78147  1  0  0  0
 79148  1  0  0  0
 80149  1  0  0  0
M  ISO  4   1 100  68 101  78 101  79 100
M  END
> <chiral flag>
0

> <version>
0

> <s_m_source_file>
/data/baiqing/PycharmProjects/Reinvent-master-3.2/result/LINK_invent/BTK/process_docking_weight1_custom_sum_contain_oxygen_bond_distance_aromatic_linkinvent_7_9_3/rearranged_h_0013.sdf

> <i_m_source_file_index>
15

> <r_mmod_Potential_Energy-OPLS-2005>
423.627593994141

> <r_mmod_Stretch_Energy-OPLS-2005>
203.806121826172

> <r_mmod_Bend_Energy-OPLS-2005>
275.020599365234

> <r_mmod_Torsional_Energy-OPLS-2005>
221.817474365234

> <r_mmod_Improper_Torsional_Energy-OPLS-2005>
6.89699363708496

> <r_mmod_Van_der_Waal_Energy-OPLS-2005>
129.538711547852

> <r_mmod_Electrostatic_Energy-OPLS-2005>
-358.318756103516

> <r_mmod_Solvation_Energy-OPLS-2005>
-221.377883911133

> <b_mmod_Minimization_Converged-OPLS-2005>
0

> <r_mmod_RMS_Derivative-OPLS-2005>
1.78038763999939

$$$$
15
                    3D
 Structure written by MMmdl.
160168  0  0  1  0            999 V2000
  -30.5772  -14.7413   20.5694 C   0  0  0  0  0  0
  -30.4639  -12.4807   19.4575 C   0  0  0  0  0  0
  -29.5178  -12.5532   18.2341 C   0  0  0  0  0  0
  -28.0433  -12.3596   18.6445 C   0  0  0  0  0  0
  -27.6614  -13.2214   19.8770 C   0  0  2  0  0  0
  -28.7148  -13.0512   20.9976 C   0  0  0  0  0  0
  -25.2518  -13.8151   20.5545 C   0  0  0  0  0  0
  -24.1800  -13.0423   20.9124 C   0  0  0  0  0  0
  -24.6399  -11.6900   20.8730 C   0  0  0  0  0  0
  -23.9058  -10.4282   21.0403 C   0  0  0  0  0  0
  -24.3601   -9.4200   21.9193 C   0  0  0  0  0  0
  -23.6281   -8.2231   22.0765 C   0  0  0  0  0  0
  -22.4275   -8.0260   21.3546 C   0  0  0  0  0  0
  -21.9899   -9.0231   20.4664 C   0  0  0  0  0  0
  -22.7220  -10.2115   20.3078 C   0  0  0  0  0  0
  -21.6854   -6.0720   22.5272 C   0  0  0  0  0  0
  -21.4011   -6.5632   23.8199 C   0  0  0  0  0  0
  -21.3664   -5.6795   24.9170 C   0  0  0  0  0  0
  -21.6039   -4.3049   24.7236 C   0  0  0  0  0  0
  -21.8813   -3.8136   23.4359 C   0  0  0  0  0  0
  -21.9193   -4.6949   22.3408 C   0  0  0  0  0  0
  -22.7825  -13.5217   21.1804 C   0  0  0  0  0  0
  -22.1664   -4.2129   21.0990 F   0  0  0  0  0  0
  -21.5633   -3.4538   25.7752 F   0  0  0  0  0  0
  -30.0181  -13.4791   20.4615 N   0  0  0  0  0  0
  -26.3032  -12.9370   20.3386 N   0  0  0  0  0  0
  -25.9356  -11.6517   20.5806 N   0  0  0  0  0  0
  -22.0468  -12.8239   22.0395 N   0  0  0  0  0  0
  -25.4083  -15.1848   20.3730 N   0  0  0  0  0  0
  -31.6599  -14.9810   20.0237 O   0  0  0  0  0  0
  -21.6639   -6.8861   21.4235 O   0  0  0  0  0  0
  -22.3492  -14.5525   20.6671 O   0  0  0  0  0  0
  -24.6337  -31.8531   23.1981 C   0  0  0  0  0  0
  -25.9155  -32.4748   23.8329 C   0  0  1  0  0  0
  -27.2211  -27.2403   20.1345 C   0  0  0  0  0  0
  -25.5952  -33.8558   24.2245 N   0  0  0  0  0  0
  -23.4322  -30.4768   21.5409 C   0  0  2  0  0  0
  -24.8801  -28.9217   20.1130 C   0  0  0  0  0  0
  -22.7512  -29.4604   22.4895 C   0  0  0  0  0  0
  -18.0299  -28.1400   22.8503 C   0  0  0  0  0  0
  -24.1491  -36.7274   23.2631 C   0  0  0  0  0  0
  -25.9799  -30.7607   21.3813 C   0  0  0  0  0  0
  -26.0532  -29.3800   20.7270 C   0  0  0  0  0  0
  -27.2266  -28.5529   20.7251 C   0  0  0  0  0  0
  -26.0270  -26.8671   19.4759 C   0  0  0  0  0  0
  -24.8728  -27.6742   19.4750 C   0  0  0  0  0  0
  -23.6533  -29.8113   20.1575 C   0  0  0  0  0  0
  -25.4119  -36.3067   24.0316 C   0  0  1  0  0  0
  -20.5907  -28.3725   23.1258 C   0  0  2  0  0  0
  -20.6801  -26.9437   22.5413 C   0  0  0  0  0  0
  -19.5767  -26.6388   21.5233 C   0  0  0  0  0  0
  -18.1944  -26.7943   22.1638 C   0  0  0  0  0  0
  -19.1552  -28.8876   23.2882 C   0  0  0  0  0  0
  -18.9473  -30.1475   23.8897 C   0  0  0  0  0  0
  -17.6468  -30.6597   24.0576 C   0  0  0  0  0  0
  -25.9060  -34.9439   23.5085 C   0  0  0  0  0  0
  -16.5361  -29.9103   23.6327 C   0  0  0  0  0  0
  -16.7285  -28.6522   23.0357 C   0  0  0  0  0  0
  -26.4526  -31.6572   25.0717 C   0  0  0  0  0  0
  -25.3745  -31.3745   26.1434 C   0  0  0  0  0  0
  -27.0360  -30.2985   24.6196 C   0  0  0  0  0  0
  -27.6060  -32.4319   25.7512 C   0  0  0  0  0  0
  -27.5573  -37.1796   24.8459 C   0  0  0  0  0  0
  -21.4216  -29.3065   22.3632 N   0  0  0  0  0  0
  -26.4284  -37.3773   23.9409 N   0  0  0  0  0  0
  -24.7013  -31.0484   22.0968 N   0  0  0  0  0  0
  -23.4181  -28.8118   23.2995 O   0  0  0  0  0  0
  -28.3069  -26.3232   20.1713 O   0  0  0  0  0  0
  -26.5617  -34.8916   22.4642 O   0  0  0  0  0  0
  -23.5481  -32.1342   23.7265 O   0  0  0  0  0  0
  -27.6278  -19.3546   21.4339 C   0  0  0  0  0  0
  -27.2286  -18.1614   22.0479 C   0  0  0  0  0  0
  -28.0903  -17.0443   22.0873 C   0  0  0  0  0  0
  -29.7325  -18.3116   20.7782 C   0  0  0  0  0  0
  -28.9151  -19.5396   20.8867 C   0  0  0  0  0  0
  -29.3006  -17.0151   21.3316 C   0  0  0  0  0  0
  -28.7227  -22.1757   20.8715 C   0  0  0  0  0  0
  -25.8514  -18.1190   22.6953 C   0  0  0  0  0  0
  -27.6914  -15.8830   23.0043 C   0  0  0  0  0  0
  -31.0995  -18.3942   20.1263 C   0  0  0  0  0  0
  -29.0822  -23.6210   20.2515 C   0  0  0  0  0  0
  -28.0229  -24.8555   20.4439 C   0  0  0  0  0  0
  -29.2563  -20.9421   20.4521 N   0  0  0  0  0  0
  -29.9318  -15.6541   21.3862 N   0  0  0  0  0  0
  -27.9523  -22.2188   21.8314 O   0  0  0  0  0  0
  -31.4943  -12.6548   19.1395 H   0  0  0  0  0  0
  -30.4552  -11.4779   19.8894 H   0  0  0  0  0  0
  -29.8015  -11.8025   17.4957 H   0  0  0  0  0  0
  -29.6347  -13.5220   17.7443 H   0  0  0  0  0  0
  -27.8979  -11.3023   18.8740 H   0  0  0  0  0  0
  -27.3824  -12.5802   17.8053 H   0  0  0  0  0  0
  -27.6822  -14.2628   19.5544 H   0  0  0  0  0  0
  -28.7633  -12.0068   21.3087 H   0  0  0  0  0  0
  -28.4449  -13.5901   21.8979 H   0  0  0  0  0  0
  -25.2737   -9.5673   22.4779 H   0  0  0  0  0  0
  -23.9977   -7.4621   22.7496 H   0  0  0  0  0  0
  -21.0825   -8.8739   19.8982 H   0  0  0  0  0  0
  -22.3653  -10.9648   19.6198 H   0  0  0  0  0  0
  -21.1999   -7.6138   23.9691 H   0  0  0  0  0  0
  -21.1506   -6.0539   25.9072 H   0  0  0  0  0  0
  -22.0600   -2.7598   23.2866 H   0  0  0  0  0  0
  -22.4081  -11.9923   22.4809 H   0  0  0  0  0  0
  -21.1100  -13.1301   22.2625 H   0  0  0  0  0  0
  -24.6275  -15.8255   20.4569 H   0  0  0  0  0  0
  -26.2660  -15.6427   20.0927 H   0  0  0  0  0  0
  -26.7218  -32.5406   23.1063 H   0  0  0  0  0  0
  -25.0180  -33.9698   25.0448 H   0  0  0  0  0  0
  -22.7316  -31.3009   21.3935 H   0  0  0  0  0  0
  -23.3767  -35.9596   23.3286 H   0  0  0  0  0  0
  -24.3569  -36.8899   22.2043 H   0  0  0  0  0  0
  -23.7235  -37.6471   23.6657 H   0  0  0  0  0  0
  -26.1138  -31.5176   20.6072 H   0  0  0  0  0  0
  -26.8596  -30.8149   22.0115 H   0  0  0  0  0  0
  -28.1245  -28.8977   21.2193 H   0  0  0  0  0  0
  -25.9581  -25.9328   18.9427 H   0  0  0  0  0  0
  -23.9788  -27.3244   18.9754 H   0  0  0  0  0  0
  -23.7906  -30.5881   19.4045 H   0  0  0  0  0  0
  -22.7699  -29.2512   19.8458 H   0  0  0  0  0  0
  -25.1313  -36.1909   25.0812 H   0  0  0  0  0  0
  -21.0027  -28.3334   24.1366 H   0  0  0  0  0  0
  -20.5738  -26.2345   23.3637 H   0  0  0  0  0  0
  -21.6664  -26.7481   22.1180 H   0  0  0  0  0  0
  -19.6937  -25.6299   21.1263 H   0  0  0  0  0  0
  -19.6689  -27.3208   20.6771 H   0  0  0  0  0  0
  -17.4220  -26.6712   21.4030 H   0  0  0  0  0  0
  -18.0320  -26.0082   22.9025 H   0  0  0  0  0  0
  -19.7944  -30.7310   24.2251 H   0  0  0  0  0  0
  -17.5017  -31.6268   24.5198 H   0  0  0  0  0  0
  -15.5361  -30.3011   23.7641 H   0  0  0  0  0  0
  -15.8690  -28.0841   22.7065 H   0  0  0  0  0  0
  -24.5946  -30.7053   25.7784 H   0  0  0  0  0  0
  -24.8904  -32.2927   26.4776 H   0  0  0  0  0  0
  -25.8059  -30.8997   27.0254 H   0  0  0  0  0  0
  -26.2941  -29.6750   24.1198 H   0  0  0  0  0  0
  -27.4022  -29.7229   25.4702 H   0  0  0  0  0  0
  -27.8829  -30.4254   23.9454 H   0  0  0  0  0  0
  -27.2654  -33.3638   26.2036 H   0  0  0  0  0  0
  -28.3915  -32.6838   25.0379 H   0  0  0  0  0  0
  -28.0682  -31.8477   26.5475 H   0  0  0  0  0  0
  -28.2597  -38.0090   24.7520 H   0  0  0  0  0  0
  -28.1061  -36.2619   24.6281 H   0  0  0  0  0  0
  -27.2273  -37.1445   25.8857 H   0  0  0  0  0  0
  -20.9402  -29.8767   21.6824 H   0  0  0  0  0  0
  -26.0157  -38.2843   24.1431 H   0  0  0  0  0  0
  -26.9117  -20.1614   21.4400 H   0  0  0  0  0  0
  -25.3324  -17.1962   22.4360 H   0  0  0  0  0  0
  -25.2237  -18.9472   22.3669 H   0  0  0  0  0  0
  -25.9368  -18.1759   23.7810 H   0  0  0  0  0  0
  -27.0621  -15.1665   22.4829 H   0  0  0  0  0  0
  -27.1307  -16.2324   23.8695 H   0  0  0  0  0  0
  -28.5493  -15.3720   23.4416 H   0  0  0  0  0  0
  -31.4642  -19.4195   20.0751 H   0  0  0  0  0  0
  -31.0627  -17.9923   19.1145 H   0  0  0  0  0  0
  -31.8286  -17.8195   20.6976 H   0  0  0  0  0  0
  -29.3051  -23.4985   19.1924 H   0  0  0  0  0  0
  -30.0213  -23.9155   20.7192 H   0  0  0  0  0  0
  -27.6920  -24.8368   21.4824 H   0  0  0  0  0  0
  -27.1505  -24.5377   19.8795 H   0  0  0  0  0  0
  -29.9763  -21.0106   19.7459 H   0  0  0  0  0  0
  -29.3880  -15.0901   22.0201 H   0  0  0  0  0  0
  1 25  1  0  0  0
  1 30  2  0  0  0
  1 84  1  0  0  0
  2  3  1  0  0  0
  2 25  1  0  0  0
  2 86  1  0  0  0
  2 87  1  0  0  0
  3  4  1  0  0  0
  3 88  1  0  0  0
  3 89  1  0  0  0
  4  5  1  0  0  0
  4 90  1  0  0  0
  4 91  1  0  0  0
  5  6  1  0  0  0
  5 26  1  0  0  0
  5 92  1  0  0  0
  6 25  1  0  0  0
  6 93  1  0  0  0
  6 94  1  0  0  0
  7  8  2  0  0  0
  7 26  1  0  0  0
  7 29  1  0  0  0
  8  9  1  0  0  0
  8 22  1  0  0  0
  9 10  1  0  0  0
  9 27  2  0  0  0
 10 11  2  0  0  0
 10 15  1  0  0  0
 11 12  1  0  0  0
 11 95  1  0  0  0
 12 13  2  0  0  0
 12 96  1  0  0  0
 13 14  1  0  0  0
 13 31  1  0  0  0
 14 15  2  0  0  0
 14 97  1  0  0  0
 15 98  1  0  0  0
 16 17  2  0  0  0
 16 21  1  0  0  0
 16 31  1  0  0  0
 17 18  1  0  0  0
 17 99  1  0  0  0
 18 19  2  0  0  0
 18100  1  0  0  0
 19 20  1  0  0  0
 19 24  1  0  0  0
 20 21  2  0  0  0
 20101  1  0  0  0
 21 23  1  0  0  0
 22 28  1  0  0  0
 22 32  2  0  0  0
 26 27  1  0  0  0
 28102  1  0  0  0
 28103  1  0  0  0
 29104  1  0  0  0
 29105  1  0  0  0
 33 34  1  0  0  0
 33 66  1  0  0  0
 33 70  2  0  0  0
 34 36  1  0  0  0
 34 59  1  0  0  0
 34106  1  0  0  0
 35 44  2  0  0  0
 35 45  1  0  0  0
 35 68  1  0  0  0
 36 56  1  0  0  0
 36107  1  0  0  0
 37 39  1  0  0  0
 37 47  1  0  0  0
 37 66  1  0  0  0
 37108  1  0  0  0
 38 43  2  0  0  0
 38 46  1  0  0  0
 38 47  1  0  0  0
 39 64  1  0  0  0
 39 67  2  0  0  0
 40 52  1  0  0  0
 40 53  2  0  0  0
 40 58  1  0  0  0
 41109  1  0  0  0
 41110  1  0  0  0
 41111  1  0  0  0
 41 48  1  0  0  0
 42 43  1  0  0  0
 42 66  1  0  0  0
 42112  1  0  0  0
 42113  1  0  0  0
 43 44  1  0  0  0
 44114  1  0  0  0
 45 46  2  0  0  0
 45115  1  0  0  0
 46116  1  0  0  0
 47117  1  0  0  0
 47118  1  0  0  0
 48 56  1  0  0  0
 48 65  1  0  0  0
 48119  1  0  0  0
 49 50  1  0  0  0
 49 53  1  0  0  0
 49 64  1  0  0  0
 49120  1  0  0  0
 50 51  1  0  0  0
 50121  1  0  0  0
 50122  1  0  0  0
 51 52  1  0  0  0
 51123  1  0  0  0
 51124  1  0  0  0
 52125  1  0  0  0
 52126  1  0  0  0
 53 54  1  0  0  0
 54 55  2  0  0  0
 54127  1  0  0  0
 55 57  1  0  0  0
 55128  1  0  0  0
 56 69  2  0  0  0
 57 58  2  0  0  0
 57129  1  0  0  0
 58130  1  0  0  0
 59 60  1  0  0  0
 59 61  1  0  0  0
 59 62  1  0  0  0
 60131  1  0  0  0
 60132  1  0  0  0
 60133  1  0  0  0
 61134  1  0  0  0
 61135  1  0  0  0
 61136  1  0  0  0
 62137  1  0  0  0
 62138  1  0  0  0
 62139  1  0  0  0
 63 65  1  0  0  0
 63140  1  0  0  0
 63141  1  0  0  0
 63142  1  0  0  0
 64143  1  0  0  0
 65144  1  0  0  0
 68 82  1  0  0  0
 71 72  2  0  0  0
 71 75  1  0  0  0
 71145  1  0  0  0
 72 73  1  0  0  0
 72 78  1  0  0  0
 73 76  2  0  0  0
 73 79  1  0  0  0
 74 75  2  0  0  0
 74 76  1  0  0  0
 74 80  1  0  0  0
 75 83  1  0  0  0
 76 84  1  0  0  0
 77 81  1  0  0  0
 77 83  1  0  0  0
 77 85  2  0  0  0
 78146  1  0  0  0
 78147  1  0  0  0
 78148  1  0  0  0
 79149  1  0  0  0
 79150  1  0  0  0
 79151  1  0  0  0
 80152  1  0  0  0
 80153  1  0  0  0
 80154  1  0  0  0
 81 82  1  0  0  0
 81155  1  0  0  0
 81156  1  0  0  0
 82157  1  0  0  0
 82158  1  0  0  0
 83159  1  0  0  0
 84160  1  0  0  0
M  ISO  4   1 100  68 101  82 101  84 100
M  END
> <chiral flag>
0

> <version>
0

> <s_m_source_file>
/data/baiqing/PycharmProjects/Reinvent-master-3.2/result/LINK_invent/BTK/process_docking_weight1_custom_sum_contain_oxygen_bond_distance_aromatic_linkinvent_7_9_3/rearranged_h_0013.sdf

> <i_m_source_file_index>
16

> <r_mmod_Potential_Energy-OPLS-2005>
228.153991699219

> <r_mmod_Stretch_Energy-OPLS-2005>
160.506118774414

> <r_mmod_Bend_Energy-OPLS-2005>
230.86930847168

> <r_mmod_Torsional_Energy-OPLS-2005>
261.422790527344

> <r_mmod_Improper_Torsional_Energy-OPLS-2005>
6.50866031646729

> <r_mmod_Van_der_Waal_Energy-OPLS-2005>
151.337249755859

> <r_mmod_Electrostatic_Energy-OPLS-2005>
-450.783905029297

> <r_mmod_Solvation_Energy-OPLS-2005>
-222.728546142578

> <b_mmod_Minimization_Converged-OPLS-2005>
0

> <r_mmod_RMS_Derivative-OPLS-2005>
2.40864038467407

$$$$
16
                    3D
 Structure written by MMmdl.
159167  0  0  1  0            999 V2000
  -30.6112  -14.6151   20.4993 C   0  0  0  0  0  0
  -30.4407  -12.3754   19.4446 C   0  0  0  0  0  0
  -29.5078  -12.4986   18.2187 C   0  0  0  0  0  0
  -28.0294  -12.3426   18.6303 C   0  0  0  0  0  0
  -27.6561  -13.2072   19.8633 C   0  0  2  0  0  0
  -28.6980  -13.0390   20.9916 C   0  0  0  0  0  0
  -25.2584  -13.8135   20.5647 C   0  0  0  0  0  0
  -24.1846  -13.0427   20.9190 C   0  0  0  0  0  0
  -24.6396  -11.6893   20.8748 C   0  0  0  0  0  0
  -23.9055  -10.4291   21.0410 C   0  0  0  0  0  0
  -24.3609   -9.4213   21.9193 C   0  0  0  0  0  0
  -23.6293   -8.2244   22.0758 C   0  0  0  0  0  0
  -22.4274   -8.0283   21.3544 C   0  0  0  0  0  0
  -21.9907   -9.0253   20.4648 C   0  0  0  0  0  0
  -22.7227  -10.2138   20.3061 C   0  0  0  0  0  0
  -21.6856   -6.0740   22.5281 C   0  0  0  0  0  0
  -21.4009   -6.5644   23.8216 C   0  0  0  0  0  0
  -21.3658   -5.6793   24.9178 C   0  0  0  0  0  0
  -21.6041   -4.3053   24.7226 C   0  0  0  0  0  0
  -21.8822   -3.8150   23.4345 C   0  0  0  0  0  0
  -21.9195   -4.6968   22.3402 C   0  0  0  0  0  0
  -22.7879  -13.5245   21.1847 C   0  0  0  0  0  0
  -22.1667   -4.2155   21.0979 F   0  0  0  0  0  0
  -21.5628   -3.4537   25.7739 F   0  0  0  0  0  0
  -30.0165  -13.3839   20.4342 N   0  0  0  0  0  0
  -26.3003  -12.9304   20.3300 N   0  0  0  0  0  0
  -25.9322  -11.6468   20.5755 N   0  0  0  0  0  0
  -22.0505  -12.8247   22.0397 N   0  0  0  0  0  0
  -25.4286  -15.1847   20.3976 N   0  0  0  0  0  0
  -31.7663  -14.7983   20.1031 O   0  0  0  0  0  0
  -21.6638   -6.8880   21.4238 O   0  0  0  0  0  0
  -22.3584  -14.5556   20.6695 O   0  0  0  0  0  0
  -24.6252  -31.8610   23.2023 C   0  0  0  0  0  0
  -25.9100  -32.4774   23.8359 C   0  0  1  0  0  0
  -27.2230  -27.3329   20.1062 C   0  0  0  0  0  0
  -25.5924  -33.8573   24.2296 N   0  0  0  0  0  0
  -23.4182  -30.4875   21.5419 C   0  0  2  0  0  0
  -24.8631  -28.9449   20.1074 C   0  0  0  0  0  0
  -22.7467  -29.4650   22.4902 C   0  0  0  0  0  0
  -18.0305  -28.1383   22.8486 C   0  0  0  0  0  0
  -24.1487  -36.7285   23.2638 C   0  0  0  0  0  0
  -25.9580  -30.7966   21.3701 C   0  0  0  0  0  0
  -26.0317  -29.4246   20.7129 C   0  0  0  0  0  0
  -27.2140  -28.6299   20.7039 C   0  0  0  0  0  0
  -26.0298  -26.9065   19.4738 C   0  0  0  0  0  0
  -24.8630  -27.6906   19.4808 C   0  0  0  0  0  0
  -23.6309  -29.8232   20.1559 C   0  0  0  0  0  0
  -25.4109  -36.3076   24.0336 C   0  0  1  0  0  0
  -20.5905  -28.3692   23.1260 C   0  0  2  0  0  0
  -20.6788  -26.9416   22.5390 C   0  0  0  0  0  0
  -19.5765  -26.6392   21.5185 C   0  0  0  0  0  0
  -18.1951  -26.7941   22.1607 C   0  0  0  0  0  0
  -19.1556  -28.8847   23.2885 C   0  0  0  0  0  0
  -18.9483  -30.1453   23.8901 C   0  0  0  0  0  0
  -17.6483  -30.6586   24.0565 C   0  0  0  0  0  0
  -25.9045  -34.9444   23.5116 C   0  0  0  0  0  0
  -16.5372  -29.9096   23.6322 C   0  0  0  0  0  0
  -16.7291  -28.6507   23.0350 C   0  0  0  0  0  0
  -26.4500  -31.6575   25.0721 C   0  0  0  0  0  0
  -25.3751  -31.3708   26.1460 C   0  0  0  0  0  0
  -27.0333  -30.3009   24.6133 C   0  0  0  0  0  0
  -27.6068  -32.4288   25.7495 C   0  0  0  0  0  0
  -27.5580  -37.1797   24.8468 C   0  0  0  0  0  0
  -21.4182  -29.3063   22.3653 N   0  0  0  0  0  0
  -26.4287  -37.3769   23.9418 N   0  0  0  0  0  0
  -24.6859  -31.0649   22.0951 N   0  0  0  0  0  0
  -23.4204  -28.8177   23.2955 O   0  0  0  0  0  0
  -28.3459  -26.4939   20.1547 O   0  0  0  0  0  0
  -26.5600  -34.8909   22.4677 O   0  0  0  0  0  0
  -23.5419  -32.1387   23.7367 O   0  0  0  0  0  0
  -30.7346  -17.7732   19.8880 C   0  0  0  0  0  0
  -28.9040  -17.9104   21.4560 C   0  0  0  0  0  0
  -29.8847  -20.0226   20.5498 C   0  0  0  0  0  0
  -29.8353  -17.0907   20.7458 C   0  0  0  0  0  0
  -30.7572  -19.1943   19.7823 C   0  0  0  0  0  0
  -28.9496  -19.3419   21.3750 C   0  0  0  0  0  0
  -27.8479  -17.2698   22.3546 C   0  0  0  0  0  0
  -29.5410  -24.3503   22.0007 C   0  0  0  0  0  0
  -30.0873  -21.5843   20.6484 C   0  0  0  0  0  0
  -28.1355  -25.0391   19.9872 C   0  0  0  0  0  0
  -29.2631  -24.0491   20.5104 C   0  0  2  0  0  0
  -29.7870  -15.6333   20.8905 N   0  0  0  0  0  0
  -28.9846  -22.5589   20.2843 N   0  3  0  0  0  0
  -31.9296  -19.8888   18.7174 Cl  0  0  0  0  0  0
  -27.8663  -20.2917   22.3391 Cl  0  0  0  0  0  0
  -31.4812  -12.5073   19.1418 H   0  0  0  0  0  0
  -30.3808  -11.3742   19.8751 H   0  0  0  0  0  0
  -29.7680  -11.7453   17.4740 H   0  0  0  0  0  0
  -29.6559  -13.4662   17.7366 H   0  0  0  0  0  0
  -27.8612  -11.2889   18.8561 H   0  0  0  0  0  0
  -27.3749  -12.5792   17.7905 H   0  0  0  0  0  0
  -27.6813  -14.2455   19.5321 H   0  0  0  0  0  0
  -28.7025  -12.0099   21.3546 H   0  0  0  0  0  0
  -28.4417  -13.6530   21.8560 H   0  0  0  0  0  0
  -25.2756   -9.5695   22.4768 H   0  0  0  0  0  0
  -24.0012   -7.4629   22.7469 H   0  0  0  0  0  0
  -21.0850   -8.8766   19.8943 H   0  0  0  0  0  0
  -22.3689  -10.9678   19.6176 H   0  0  0  0  0  0
  -21.1993   -7.6154   23.9723 H   0  0  0  0  0  0
  -21.1477   -6.0523   25.9083 H   0  0  0  0  0  0
  -22.0598   -2.7613   23.2842 H   0  0  0  0  0  0
  -22.4109  -11.9912   22.4794 H   0  0  0  0  0  0
  -21.1123  -13.1287   22.2577 H   0  0  0  0  0  0
  -24.6399  -15.8194   20.4532 H   0  0  0  0  0  0
  -26.2489  -15.6071   19.9833 H   0  0  0  0  0  0
  -26.7168  -32.5439   23.1106 H   0  0  0  0  0  0
  -25.0094  -33.9721   25.0460 H   0  0  0  0  0  0
  -22.7137  -31.3097   21.3990 H   0  0  0  0  0  0
  -23.3742  -35.9623   23.3291 H   0  0  0  0  0  0
  -24.3596  -36.8903   22.2056 H   0  0  0  0  0  0
  -23.7250  -37.6496   23.6652 H   0  0  0  0  0  0
  -26.0884  -31.5589   20.6011 H   0  0  0  0  0  0
  -26.8408  -30.8466   21.9950 H   0  0  0  0  0  0
  -28.1112  -28.9943   21.1856 H   0  0  0  0  0  0
  -25.9653  -25.9541   18.9699 H   0  0  0  0  0  0
  -23.9690  -27.3203   18.9978 H   0  0  0  0  0  0
  -23.7498  -30.5988   19.3977 H   0  0  0  0  0  0
  -22.7509  -29.2517   19.8530 H   0  0  0  0  0  0
  -25.1296  -36.1914   25.0829 H   0  0  0  0  0  0
  -21.0023  -28.3252   24.1367 H   0  0  0  0  0  0
  -20.5652  -26.2307   23.3594 H   0  0  0  0  0  0
  -21.6663  -26.7428   22.1201 H   0  0  0  0  0  0
  -19.6921  -25.6298   21.1224 H   0  0  0  0  0  0
  -19.6695  -27.3193   20.6706 H   0  0  0  0  0  0
  -17.4222  -26.6676   21.4015 H   0  0  0  0  0  0
  -18.0365  -26.0100   22.9014 H   0  0  0  0  0  0
  -19.7958  -30.7273   24.2267 H   0  0  0  0  0  0
  -17.5040  -31.6266   24.5178 H   0  0  0  0  0  0
  -15.5375  -30.3001   23.7642 H   0  0  0  0  0  0
  -15.8694  -28.0824   22.7054 H   0  0  0  0  0  0
  -24.5939  -30.7028   25.7814 H   0  0  0  0  0  0
  -24.8924  -32.2867   26.4874 H   0  0  0  0  0  0
  -25.8110  -30.8923   27.0235 H   0  0  0  0  0  0
  -26.2891  -29.6762   24.1179 H   0  0  0  0  0  0
  -27.4092  -29.7259   25.4602 H   0  0  0  0  0  0
  -27.8734  -30.4331   23.9312 H   0  0  0  0  0  0
  -27.2702  -33.3600   26.2063 H   0  0  0  0  0  0
  -28.3900  -32.6806   25.0331 H   0  0  0  0  0  0
  -28.0699  -31.8399   26.5422 H   0  0  0  0  0  0
  -28.2583  -38.0103   24.7523 H   0  0  0  0  0  0
  -28.1093  -36.2640   24.6281 H   0  0  0  0  0  0
  -27.2310  -37.1433   25.8872 H   0  0  0  0  0  0
  -20.9336  -29.8817   21.6900 H   0  0  0  0  0  0
  -26.0159  -38.2837   24.1421 H   0  0  0  0  0  0
  -31.4377  -17.2106   19.2920 H   0  0  0  0  0  0
  -27.7178  -16.2018   22.1919 H   0  0  0  0  0  0
  -26.8703  -17.7211   22.1844 H   0  0  0  0  0  0
  -28.1088  -17.4183   23.4021 H   0  0  0  0  0  0
  -29.7078  -25.4168   22.1564 H   0  0  0  0  0  0
  -30.4346  -23.8492   22.3713 H   0  0  0  0  0  0
  -28.7028  -24.0558   22.6337 H   0  0  0  0  0  0
  -30.9686  -21.8852   20.0851 H   0  0  0  0  0  0
  -30.3602  -21.7533   21.6888 H   0  0  0  0  0  0
  -27.2131  -24.7586   20.4996 H   0  0  0  0  0  0
  -27.9753  -24.8487   18.9247 H   0  0  0  0  0  0
  -30.1659  -24.2867   19.9466 H   0  0  0  0  0  0
  -28.9282  -15.2870   21.2870 H   0  0  0  0  0  0
  -28.1623  -22.2889   20.8044 H   0  0  0  0  0  0
  -28.7742  -22.4168   19.3074 H   0  0  0  0  0  0
  1 25  1  0  0  0
  1 30  2  0  0  0
  1 82  1  0  0  0
  2  3  1  0  0  0
  2 25  1  0  0  0
  2 86  1  0  0  0
  2 87  1  0  0  0
  3  4  1  0  0  0
  3 88  1  0  0  0
  3 89  1  0  0  0
  4  5  1  0  0  0
  4 90  1  0  0  0
  4 91  1  0  0  0
  5  6  1  0  0  0
  5 26  1  0  0  0
  5 92  1  0  0  0
  6 25  1  0  0  0
  6 93  1  0  0  0
  6 94  1  0  0  0
  7  8  2  0  0  0
  7 26  1  0  0  0
  7 29  1  0  0  0
  8  9  1  0  0  0
  8 22  1  0  0  0
  9 10  1  0  0  0
  9 27  2  0  0  0
 10 11  2  0  0  0
 10 15  1  0  0  0
 11 12  1  0  0  0
 11 95  1  0  0  0
 12 13  2  0  0  0
 12 96  1  0  0  0
 13 14  1  0  0  0
 13 31  1  0  0  0
 14 15  2  0  0  0
 14 97  1  0  0  0
 15 98  1  0  0  0
 16 17  2  0  0  0
 16 21  1  0  0  0
 16 31  1  0  0  0
 17 18  1  0  0  0
 17 99  1  0  0  0
 18 19  2  0  0  0
 18100  1  0  0  0
 19 20  1  0  0  0
 19 24  1  0  0  0
 20 21  2  0  0  0
 20101  1  0  0  0
 21 23  1  0  0  0
 22 28  1  0  0  0
 22 32  2  0  0  0
 26 27  1  0  0  0
 28102  1  0  0  0
 28103  1  0  0  0
 29104  1  0  0  0
 29105  1  0  0  0
 33 34  1  0  0  0
 33 66  1  0  0  0
 33 70  2  0  0  0
 34 36  1  0  0  0
 34 59  1  0  0  0
 34106  1  0  0  0
 35 44  2  0  0  0
 35 45  1  0  0  0
 35 68  1  0  0  0
 36 56  1  0  0  0
 36107  1  0  0  0
 37 39  1  0  0  0
 37 47  1  0  0  0
 37 66  1  0  0  0
 37108  1  0  0  0
 38 43  2  0  0  0
 38 46  1  0  0  0
 38 47  1  0  0  0
 39 64  1  0  0  0
 39 67  2  0  0  0
 40 52  1  0  0  0
 40 53  2  0  0  0
 40 58  1  0  0  0
 41109  1  0  0  0
 41110  1  0  0  0
 41111  1  0  0  0
 41 48  1  0  0  0
 42 43  1  0  0  0
 42 66  1  0  0  0
 42112  1  0  0  0
 42113  1  0  0  0
 43 44  1  0  0  0
 44114  1  0  0  0
 45 46  2  0  0  0
 45115  1  0  0  0
 46116  1  0  0  0
 47117  1  0  0  0
 47118  1  0  0  0
 48 56  1  0  0  0
 48 65  1  0  0  0
 48119  1  0  0  0
 49 50  1  0  0  0
 49 53  1  0  0  0
 49 64  1  0  0  0
 49120  1  0  0  0
 50 51  1  0  0  0
 50121  1  0  0  0
 50122  1  0  0  0
 51 52  1  0  0  0
 51123  1  0  0  0
 51124  1  0  0  0
 52125  1  0  0  0
 52126  1  0  0  0
 53 54  1  0  0  0
 54 55  2  0  0  0
 54127  1  0  0  0
 55 57  1  0  0  0
 55128  1  0  0  0
 56 69  2  0  0  0
 57 58  2  0  0  0
 57129  1  0  0  0
 58130  1  0  0  0
 59 60  1  0  0  0
 59 61  1  0  0  0
 59 62  1  0  0  0
 60131  1  0  0  0
 60132  1  0  0  0
 60133  1  0  0  0
 61134  1  0  0  0
 61135  1  0  0  0
 61136  1  0  0  0
 62137  1  0  0  0
 62138  1  0  0  0
 62139  1  0  0  0
 63 65  1  0  0  0
 63140  1  0  0  0
 63141  1  0  0  0
 63142  1  0  0  0
 64143  1  0  0  0
 65144  1  0  0  0
 68 80  1  0  0  0
 71 74  2  0  0  0
 71 75  1  0  0  0
 71145  1  0  0  0
 72 74  1  0  0  0
 72 76  2  0  0  0
 72 77  1  0  0  0
 73 75  2  0  0  0
 73 76  1  0  0  0
 73 79  1  0  0  0
 74 82  1  0  0  0
 75 84  1  0  0  0
 76 85  1  0  0  0
 77146  1  0  0  0
 77147  1  0  0  0
 77148  1  0  0  0
 78149  1  0  0  0
 78150  1  0  0  0
 78151  1  0  0  0
 78 81  1  0  0  0
 79 83  1  0  0  0
 79152  1  0  0  0
 79153  1  0  0  0
 80 81  1  0  0  0
 80154  1  0  0  0
 80155  1  0  0  0
 81 83  1  0  0  0
 81156  1  0  0  0
 82157  1  0  0  0
 83158  1  0  0  0
 83159  1  0  0  0
M  CHG  1  83   1
M  ISO  4   1 100  68 101  80 101  82 100
M  END
> <chiral flag>
0

> <version>
0

> <s_m_source_file>
/data/baiqing/PycharmProjects/Reinvent-master-3.2/result/LINK_invent/BTK/process_docking_weight1_custom_sum_contain_oxygen_bond_distance_aromatic_linkinvent_7_9_3/rearranged_h_0013.sdf

> <i_m_source_file_index>
17

> <r_mmod_Potential_Energy-OPLS-2005>
-111.126678466797

> <r_mmod_Stretch_Energy-OPLS-2005>
78.8755493164062

> <r_mmod_Bend_Energy-OPLS-2005>
134.588287353516

> <r_mmod_Torsional_Energy-OPLS-2005>
213.281097412109

> <r_mmod_Improper_Torsional_Energy-OPLS-2005>
5.22350072860718

> <r_mmod_Van_der_Waal_Energy-OPLS-2005>
150.837097167969

> <r_mmod_Electrostatic_Energy-OPLS-2005>
-290.170989990234

> <r_mmod_Solvation_Energy-OPLS-2005>
-446.097412109375

> <b_mmod_Minimization_Converged-OPLS-2005>
0

> <r_mmod_RMS_Derivative-OPLS-2005>
1.77579772472382

$$$$
17
                    3D
 Structure written by MMmdl.
158166  0  0  1  0            999 V2000
  -29.8998  -14.4461   20.9037 C   0  0  0  0  0  0
  -30.4918  -12.5065   19.3302 C   0  0  0  0  0  0
  -29.5261  -12.5165   18.0906 C   0  0  0  0  0  0
  -28.0148  -12.2271   18.3791 C   0  0  0  0  0  0
  -27.6229  -12.9915   19.6542 C   0  0  2  0  0  0
  -28.6632  -12.4547   20.7615 C   0  0  0  0  0  0
  -24.9625  -14.5491   21.1235 C   0  0  0  0  0  0
  -24.3255  -14.0681   21.1952 C   0  0  0  0  0  0
  -25.2761  -12.2228   20.4195 C   0  0  0  0  0  0
  -24.5182  -10.5446   20.4714 C   0  0  0  0  0  0
  -24.7569   -9.5397   21.5286 C   0  0  0  0  0  0
  -23.9012   -8.4166   21.9106 C   0  0  0  0  0  0
  -22.6581   -8.1467   21.2781 C   0  0  0  0  0  0
  -22.3550   -9.0617   20.2605 C   0  0  0  0  0  0
  -23.2571  -10.1048   19.8635 C   0  0  0  0  0  0
  -21.7886   -6.1745   22.5247 C   0  0  0  0  0  0
  -21.4825   -6.6268   23.8270 C   0  0  0  0  0  0
  -21.3886   -5.7175   24.9025 C   0  0  0  0  0  0
  -21.6040   -4.3426   24.6934 C   0  0  0  0  0  0
  -21.8802   -3.8749   23.3964 C   0  0  0  0  0  0
  -21.9567   -4.7800   22.3177 C   0  0  0  0  0  0
  -22.7591  -14.5260   21.5792 C   0  0  0  0  0  0
  -22.1806   -4.2900   21.0737 F   0  0  0  0  0  0
  -21.5387   -3.4758   25.7330 F   0  0  0  0  0  0
  -29.8408  -13.1612   20.4857 N   0  0  0  0  0  0
  -26.1050  -13.1023   20.2193 N   0  0  0  0  0  0
  -26.3052  -11.8616   20.3951 N   0  0  0  0  0  0
  -21.9001  -13.7321   22.2584 N   0  0  0  0  0  0
  -24.9499  -15.9448   21.5217 N   0  0  0  0  0  0
  -30.9653  -15.0396   20.5888 O   0  0  0  0  0  0
  -21.7931   -7.0514   21.4501 O   0  0  0  0  0  0
  -22.2105  -15.3064   20.8240 O   0  0  0  0  0  0
  -24.7187  -31.7674   23.1314 C   0  0  0  0  0  0
  -25.9671  -32.4234   23.7922 C   0  0  1  0  0  0
  -26.8513  -26.3082   20.1208 C   0  0  0  0  0  0
  -25.6145  -33.8086   24.1759 N   0  0  0  0  0  0
  -23.5286  -30.3985   21.5012 C   0  0  2  0  0  0
  -24.8988  -28.6947   20.0713 C   0  0  0  0  0  0
  -22.7826  -29.4251   22.4571 C   0  0  0  0  0  0
  -18.0354  -28.1419   22.8439 C   0  0  0  0  0  0
  -24.1498  -36.7022   23.2657 C   0  0  0  0  0  0
  -26.1226  -30.3487   21.4450 C   0  0  0  0  0  0
  -26.1047  -28.8935   20.7538 C   0  0  0  0  0  0
  -27.0857  -27.7269   20.7364 C   0  0  0  0  0  0
  -25.6913  -26.4398   19.3468 C   0  0  0  0  0  0
  -24.7610  -27.5103   19.3370 C   0  0  0  0  0  0
  -23.7661  -29.7301   20.1205 C   0  0  0  0  0  0
  -25.4168  -36.2726   24.0240 C   0  0  1  0  0  0
  -20.6000  -28.3792   23.1053 C   0  0  2  0  0  0
  -20.6791  -26.9436   22.5355 C   0  0  0  0  0  0
  -19.5758  -26.6356   21.5176 C   0  0  0  0  0  0
  -18.1960  -26.7942   22.1606 C   0  0  0  0  0  0
  -19.1629  -28.8937   23.2731 C   0  0  0  0  0  0
  -18.9533  -30.1515   23.8799 C   0  0  0  0  0  0
  -17.6522  -30.6603   24.0550 C   0  0  0  0  0  0
  -25.9217  -34.9152   23.4842 C   0  0  0  0  0  0
  -16.5412  -29.9087   23.6340 C   0  0  0  0  0  0
  -16.7337  -28.6494   23.0384 C   0  0  0  0  0  0
  -26.4714  -31.6440   25.0716 C   0  0  0  0  0  0
  -25.3693  -31.3911   26.1274 C   0  0  0  0  0  0
  -27.0711  -30.2727   24.6931 C   0  0  0  0  0  0
  -27.6041  -32.4433   25.7579 C   0  0  0  0  0  0
  -27.5544  -37.1660   24.8455 C   0  0  0  0  0  0
  -21.4457  -29.3024   22.3345 N   0  0  0  0  0  0
  -26.4232  -37.3547   23.9424 N   0  0  0  0  0  0
  -24.8244  -30.8824   22.0723 N   0  0  0  0  0  0
  -23.4210  -28.7817   23.2938 O   0  0  0  0  0  0
  -27.4630  -24.8065   20.0970 O   0  0  0  0  0  0
  -26.5857  -34.8801   22.4461 O   0  0  0  0  0  0
  -23.6176  -32.0998   23.6088 O   0  0  0  0  0  0
  -24.5494  -14.2444   18.8706 C   0  0  0  0  0  0
  -23.9844  -12.2034   22.1883 C   0  0  0  0  0  0
  -26.3324  -15.3820   19.5939 C   0  0  0  0  0  0
  -27.1532  -14.6429   21.4881 C   0  0  0  0  0  0
  -23.2260  -12.7664   19.8784 C   0  0  0  0  0  0
  -25.9582  -13.1441   22.6402 C   0  0  0  0  0  0
  -23.2218  -11.3553   23.2128 C   0  0  0  0  0  0
  -26.5815  -17.1311   17.8369 C   0  0  0  0  0  0
  -27.1215  -20.8878   19.6266 C   0  0  0  0  0  0
  -26.4807  -18.8597   19.8793 C   0  0  0  0  0  0
  -26.8165  -22.9939   19.9417 C   0  0  0  0  0  0
  -28.7031  -14.9476   21.5842 N   0  0  0  0  0  0
  -26.6164  -17.0761   19.2969 N   0  0  0  0  0  0
  -21.9987  -12.4618   19.3798 F   0  0  0  0  0  0
  -26.6667  -12.6530   24.1331 Cl  0  0  0  0  0  0
  -31.4151  -13.0198   19.0593 H   0  0  0  0  0  0
  -30.7986  -11.4903   19.5903 H   0  0  0  0  0  0
  -29.9002  -11.8429   17.3189 H   0  0  0  0  0  0
  -29.5855  -13.5108   17.6468 H   0  0  0  0  0  0
  -27.8552  -11.1521   18.4718 H   0  0  0  0  0  0
  -27.4106  -12.5457   17.5292 H   0  0  0  0  0  0
  -27.9785  -13.9307   19.2579 H   0  0  0  0  0  0
  -28.8218  -11.3789   20.6465 H   0  0  0  0  0  0
  -28.3966  -12.5179   21.8175 H   0  0  0  0  0  0
  -25.6337   -9.7035   22.1423 H   0  0  0  0  0  0
  -24.2259   -7.7823   22.7198 H   0  0  0  0  0  0
  -21.4594   -8.9087   19.6770 H   0  0  0  0  0  0
  -22.9441  -10.5784   18.9502 H   0  0  0  0  0  0
  -21.3166   -7.6807   23.9967 H   0  0  0  0  0  0
  -21.1566   -6.0826   25.8922 H   0  0  0  0  0  0
  -22.0269   -2.8220   23.2226 H   0  0  0  0  0  0
  -22.2315  -12.8910   22.7055 H   0  0  0  0  0  0
  -20.9186  -13.9607   22.2799 H   0  0  0  0  0  0
  -24.0506  -16.3973   21.6332 H   0  0  0  0  0  0
  -25.6123  -16.5599   21.0486 H   0  0  0  0  0  0
  -26.7774  -32.4529   23.0622 H   0  0  0  0  0  0
  -25.0162  -33.9064   24.9833 H   0  0  0  0  0  0
  -22.8770  -31.2592   21.3277 H   0  0  0  0  0  0
  -23.3789  -35.9313   23.3205 H   0  0  0  0  0  0
  -24.3560  -36.8834   22.2097 H   0  0  0  0  0  0
  -23.7241  -37.6139   23.6855 H   0  0  0  0  0  0
  -26.4249  -31.0712   20.6848 H   0  0  0  0  0  0
  -26.9426  -30.3533   22.1497 H   0  0  0  0  0  0
  -28.0043  -27.8557   21.2940 H   0  0  0  0  0  0
  -25.4143  -25.5744   18.7622 H   0  0  0  0  0  0
  -23.8630  -27.3771   18.7459 H   0  0  0  0  0  0
  -23.9919  -30.5069   19.3884 H   0  0  0  0  0  0
  -22.8434  -29.2706   19.7631 H   0  0  0  0  0  0
  -25.1396  -36.1389   25.0720 H   0  0  0  0  0  0
  -21.0115  -28.3415   24.1167 H   0  0  0  0  0  0
  -20.5559  -26.2469   23.3655 H   0  0  0  0  0  0
  -21.6669  -26.7300   22.1244 H   0  0  0  0  0  0
  -19.6908  -25.6228   21.1299 H   0  0  0  0  0  0
  -19.6679  -27.3093   20.6638 H   0  0  0  0  0  0
  -17.4218  -26.6681   21.4031 H   0  0  0  0  0  0
  -18.0359  -26.0104   22.9013 H   0  0  0  0  0  0
  -19.8020  -30.7336   24.2146 H   0  0  0  0  0  0
  -17.5086  -31.6278   24.5168 H   0  0  0  0  0  0
  -15.5416  -30.2979   23.7705 H   0  0  0  0  0  0
  -15.8729  -28.0781   22.7177 H   0  0  0  0  0  0
  -24.5832  -30.7320   25.7589 H   0  0  0  0  0  0
  -24.8983  -32.3210   26.4450 H   0  0  0  0  0  0
  -25.7795  -30.9219   27.0220 H   0  0  0  0  0  0
  -26.3449  -29.6159   24.2127 H   0  0  0  0  0  0
  -27.4169  -29.7397   25.5804 H   0  0  0  0  0  0
  -27.9443  -30.3767   24.0485 H   0  0  0  0  0  0
  -27.2428  -33.3777   26.1871 H   0  0  0  0  0  0
  -28.3988  -32.6943   25.0551 H   0  0  0  0  0  0
  -28.0556  -31.8812   26.5757 H   0  0  0  0  0  0
  -28.2447  -38.0056   24.7558 H   0  0  0  0  0  0
  -28.1146  -36.2576   24.6198 H   0  0  0  0  0  0
  -27.2267  -37.1171   25.8852 H   0  0  0  0  0  0
  -20.9788  -29.8754   21.6459 H   0  0  0  0  0  0
  -25.9994  -38.2544   24.1501 H   0  0  0  0  0  0
  -24.1196  -14.6420   17.9623 H   0  0  0  0  0  0
  -22.4694  -10.7449   22.7130 H   0  0  0  0  0  0
  -22.7131  -11.9689   23.9522 H   0  0  0  0  0  0
  -23.8995  -10.6986   23.7603 H   0  0  0  0  0  0
  -27.0157  -16.2450   17.3708 H   0  0  0  0  0  0
  -27.1462  -17.9873   17.4637 H   0  0  0  0  0  0
  -25.5578  -17.2339   17.4695 H   0  0  0  0  0  0
  -27.1765  -20.9004   18.5408 H   0  0  0  0  0  0
  -28.1687  -20.7968   19.9191 H   0  0  0  0  0  0
  -26.7052  -18.7108   20.9330 H   0  0  0  0  0  0
  -25.3945  -18.9840   19.8628 H   0  0  0  0  0  0
  -26.1387  -22.9763   20.7934 H   0  0  0  0  0  0
  -26.1408  -23.1829   19.1043 H   0  0  0  0  0  0
  -28.8797  -15.8728   21.9479 H   0  0  0  0  0  0
  1 25  1  0  0  0
  1 30  2  0  0  0
  1 82  1  0  0  0
  2  3  1  0  0  0
  2 25  1  0  0  0
  2 86  1  0  0  0
  2 87  1  0  0  0
  3  4  1  0  0  0
  3 88  1  0  0  0
  3 89  1  0  0  0
  4  5  1  0  0  0
  4 90  1  0  0  0
  4 91  1  0  0  0
  5  6  1  0  0  0
  5 26  1  0  0  0
  5 92  1  0  0  0
  6 25  1  0  0  0
  6 93  1  0  0  0
  6 94  1  0  0  0
  7  8  2  0  0  0
  7 26  1  0  0  0
  7 29  1  0  0  0
  8  9  1  0  0  0
  8 22  1  0  0  0
  9 10  1  0  0  0
  9 27  2  0  0  0
 10 11  2  0  0  0
 10 15  1  0  0  0
 11 12  1  0  0  0
 11 95  1  0  0  0
 12 13  2  0  0  0
 12 96  1  0  0  0
 13 14  1  0  0  0
 13 31  1  0  0  0
 14 15  2  0  0  0
 14 97  1  0  0  0
 15 98  1  0  0  0
 16 17  2  0  0  0
 16 21  1  0  0  0
 16 31  1  0  0  0
 17 18  1  0  0  0
 17 99  1  0  0  0
 18 19  2  0  0  0
 18100  1  0  0  0
 19 20  1  0  0  0
 19 24  1  0  0  0
 20 21  2  0  0  0
 20101  1  0  0  0
 21 23  1  0  0  0
 22 28  1  0  0  0
 22 32  2  0  0  0
 26 27  1  0  0  0
 28102  1  0  0  0
 28103  1  0  0  0
 29104  1  0  0  0
 29105  1  0  0  0
 33 34  1  0  0  0
 33 66  1  0  0  0
 33 70  2  0  0  0
 34 36  1  0  0  0
 34 59  1  0  0  0
 34106  1  0  0  0
 35 44  2  0  0  0
 35 45  1  0  0  0
 35 68  1  0  0  0
 36 56  1  0  0  0
 36107  1  0  0  0
 37 39  1  0  0  0
 37 47  1  0  0  0
 37 66  1  0  0  0
 37108  1  0  0  0
 38 43  2  0  0  0
 38 46  1  0  0  0
 38 47  1  0  0  0
 39 64  1  0  0  0
 39 67  2  0  0  0
 40 52  1  0  0  0
 40 53  2  0  0  0
 40 58  1  0  0  0
 41109  1  0  0  0
 41110  1  0  0  0
 41111  1  0  0  0
 41 48  1  0  0  0
 42 43  1  0  0  0
 42 66  1  0  0  0
 42112  1  0  0  0
 42113  1  0  0  0
 43 44  1  0  0  0
 44114  1  0  0  0
 45 46  2  0  0  0
 45115  1  0  0  0
 46116  1  0  0  0
 47117  1  0  0  0
 47118  1  0  0  0
 48 56  1  0  0  0
 48 65  1  0  0  0
 48119  1  0  0  0
 49 50  1  0  0  0
 49 53  1  0  0  0
 49 64  1  0  0  0
 49120  1  0  0  0
 50 51  1  0  0  0
 50121  1  0  0  0
 50122  1  0  0  0
 51 52  1  0  0  0
 51123  1  0  0  0
 51124  1  0  0  0
 52125  1  0  0  0
 52126  1  0  0  0
 53 54  1  0  0  0
 54 55  2  0  0  0
 54127  1  0  0  0
 55 57  1  0  0  0
 55128  1  0  0  0
 56 69  2  0  0  0
 57 58  2  0  0  0
 57129  1  0  0  0
 58130  1  0  0  0
 59 60  1  0  0  0
 59 61  1  0  0  0
 59 62  1  0  0  0
 60131  1  0  0  0
 60132  1  0  0  0
 60133  1  0  0  0
 61134  1  0  0  0
 61135  1  0  0  0
 61136  1  0  0  0
 62137  1  0  0  0
 62138  1  0  0  0
 62139  1  0  0  0
 63 65  1  0  0  0
 63140  1  0  0  0
 63141  1  0  0  0
 63142  1  0  0  0
 64143  1  0  0  0
 65144  1  0  0  0
 68 81  1  0  0  0
 71 73  2  0  0  0
 71 75  1  0  0  0
 71145  1  0  0  0
 72 75  2  0  0  0
 72 76  1  0  0  0
 72 77  1  0  0  0
 73 74  1  0  0  0
 73 83  1  0  0  0
 74 76  2  0  0  0
 74 82  1  0  0  0
 75 84  1  0  0  0
 76 85  1  0  0  0
 77146  1  0  0  0
 77147  1  0  0  0
 77148  1  0  0  0
 78 83  1  0  0  0
 78149  1  0  0  0
 78150  1  0  0  0
 78151  1  0  0  0
 79 80  1  0  0  0
 79 81  1  0  0  0
 79152  1  0  0  0
 79153  1  0  0  0
 80 83  1  0  0  0
 80154  1  0  0  0
 80155  1  0  0  0
 81156  1  0  0  0
 81157  1  0  0  0
 82158  1  0  0  0
M  ISO  4   1 100  68 101  81 101  82 100
M  END
> <chiral flag>
0

> <version>
0

> <s_m_source_file>
/data/baiqing/PycharmProjects/Reinvent-master-3.2/result/LINK_invent/BTK/process_docking_weight1_custom_sum_contain_oxygen_bond_distance_aromatic_linkinvent_7_9_3/rearranged_h_0013.sdf

> <i_m_source_file_index>
18

> <r_mmod_Potential_Energy-OPLS-2005>
22672.849609375

> <r_mmod_Stretch_Energy-OPLS-2005>
14388.98046875

> <r_mmod_Bend_Energy-OPLS-2005>
1566.26257324219

> <r_mmod_Torsional_Energy-OPLS-2005>
486.727142333984

> <r_mmod_Improper_Torsional_Energy-OPLS-2005>
68.2039947509766

> <r_mmod_Van_der_Waal_Energy-OPLS-2005>
4654.330078125

> <r_mmod_Electrostatic_Energy-OPLS-2005>
-439.021575927734

> <r_mmod_Solvation_Energy-OPLS-2005>
-204.471969604492

> <b_mmod_Minimization_Converged-OPLS-2005>
0

> <r_mmod_RMS_Derivative-OPLS-2005>
11.04128074646

$$$$
18
                    3D
 Structure written by MMmdl.
154162  0  0  1  0            999 V2000
  -30.5896  -14.7548   20.5273 C   0  0  0  0  0  0
  -30.4499  -12.4724   19.4796 C   0  0  0  0  0  0
  -29.5183  -12.5314   18.2456 C   0  0  0  0  0  0
  -28.0449  -12.3460   18.6543 C   0  0  0  0  0  0
  -27.6543  -13.2266   19.8694 C   0  0  2  0  0  0
  -28.6968  -13.1158   21.0062 C   0  0  0  0  0  0
  -25.2492  -13.8102   20.5550 C   0  0  0  0  0  0
  -24.1812  -13.0390   20.9187 C   0  0  0  0  0  0
  -24.6417  -11.6877   20.8771 C   0  0  0  0  0  0
  -23.9079  -10.4267   21.0427 C   0  0  0  0  0  0
  -24.3619   -9.4180   21.9202 C   0  0  0  0  0  0
  -23.6289   -8.2219   22.0761 C   0  0  0  0  0  0
  -22.4275   -8.0266   21.3543 C   0  0  0  0  0  0
  -21.9917   -9.0246   20.4650 C   0  0  0  0  0  0
  -22.7252  -10.2122   20.3073 C   0  0  0  0  0  0
  -21.6845   -6.0731   22.5277 C   0  0  0  0  0  0
  -21.4009   -6.5640   23.8210 C   0  0  0  0  0  0
  -21.3658   -5.6795   24.9173 C   0  0  0  0  0  0
  -21.6043   -4.3057   24.7225 C   0  0  0  0  0  0
  -21.8819   -3.8147   23.4347 C   0  0  0  0  0  0
  -21.9191   -4.6961   22.3402 C   0  0  0  0  0  0
  -22.7839  -13.5195   21.1844 C   0  0  0  0  0  0
  -22.1664   -4.2152   21.0978 F   0  0  0  0  0  0
  -21.5631   -3.4542   25.7735 F   0  0  0  0  0  0
  -30.0090  -13.5010   20.4554 N   0  0  0  0  0  0
  -26.2999  -12.9353   20.3335 N   0  0  0  0  0  0
  -25.9367  -11.6502   20.5822 N   0  0  0  0  0  0
  -22.0488  -12.8205   22.0417 N   0  0  0  0  0  0
  -25.4032  -15.1764   20.3632 N   0  0  0  0  0  0
  -31.6905  -14.9531   20.0055 O   0  0  0  0  0  0
  -21.6632   -6.8871   21.4237 O   0  0  0  0  0  0
  -22.3529  -14.5506   20.6691 O   0  0  0  0  0  0
  -24.6341  -31.8542   23.1971 C   0  0  0  0  0  0
  -25.9152  -32.4751   23.8333 C   0  0  1  0  0  0
  -27.2289  -27.2446   20.1319 C   0  0  0  0  0  0
  -25.5933  -33.8550   24.2260 N   0  0  0  0  0  0
  -23.4330  -30.4770   21.5408 C   0  0  2  0  0  0
  -24.8828  -28.9231   20.1121 C   0  0  0  0  0  0
  -22.7525  -29.4599   22.4902 C   0  0  0  0  0  0
  -18.0296  -28.1386   22.8485 C   0  0  0  0  0  0
  -24.1487  -36.7280   23.2642 C   0  0  0  0  0  0
  -25.9816  -30.7628   21.3801 C   0  0  0  0  0  0
  -26.0566  -29.3836   20.7219 C   0  0  0  0  0  0
  -27.2318  -28.5589   20.7187 C   0  0  0  0  0  0
  -26.0262  -26.8607   19.4911 C   0  0  0  0  0  0
  -24.8742  -27.6694   19.4858 C   0  0  0  0  0  0
  -23.6538  -29.8116   20.1576 C   0  0  0  0  0  0
  -25.4113  -36.3069   24.0333 C   0  0  1  0  0  0
  -20.5903  -28.3704   23.1257 C   0  0  2  0  0  0
  -20.6777  -26.9415   22.5403 C   0  0  0  0  0  0
  -19.5746  -26.6379   21.5211 C   0  0  0  0  0  0
  -18.1931  -26.7926   22.1629 C   0  0  0  0  0  0
  -19.1552  -28.8860   23.2865 C   0  0  0  0  0  0
  -18.9470  -30.1458   23.8889 C   0  0  0  0  0  0
  -17.6467  -30.6583   24.0559 C   0  0  0  0  0  0
  -25.9054  -34.9438   23.5101 C   0  0  0  0  0  0
  -16.5358  -29.9081   23.6327 C   0  0  0  0  0  0
  -16.7282  -28.6498   23.0353 C   0  0  0  0  0  0
  -26.4507  -31.6575   25.0729 C   0  0  0  0  0  0
  -25.3714  -31.3739   26.1442 C   0  0  0  0  0  0
  -27.0361  -30.2987   24.6230 C   0  0  0  0  0  0
  -27.6059  -32.4317   25.7502 C   0  0  0  0  0  0
  -27.5579  -37.1798   24.8469 C   0  0  0  0  0  0
  -21.4227  -29.3052   22.3648 N   0  0  0  0  0  0
  -26.4290  -37.3767   23.9412 N   0  0  0  0  0  0
  -24.7020  -31.0500   22.0952 N   0  0  0  0  0  0
  -23.4215  -28.8137   23.3008 O   0  0  0  0  0  0
  -28.3162  -26.3286   20.1955 O   0  0  0  0  0  0
  -26.5629  -34.8916   22.4672 O   0  0  0  0  0  0
  -23.5482  -32.1364   23.7251 O   0  0  0  0  0  0
  -27.9577  -17.0617   21.3736 C   0  0  0  0  0  0
  -27.1619  -18.2187   21.3873 C   0  0  0  0  0  0
  -29.0689  -19.6282   20.6885 C   0  0  0  0  0  0
  -29.3145  -17.0676   21.0071 C   0  0  0  0  0  0
  -27.6901  -19.4777   21.0262 C   0  0  0  0  0  0
  -29.8679  -18.3847   20.6798 C   0  0  0  0  0  0
  -29.1410  -23.7382   20.3392 C   0  0  0  0  0  0
  -25.7135  -18.0933   21.8379 C   0  0  0  0  0  0
  -29.6839  -21.1008   20.4192 C   0  0  0  0  0  0
  -28.0163  -24.8516   20.0386 C   0  0  0  0  0  0
  -29.9242  -15.7261   21.2538 N   0  0  0  0  0  0
  -28.8421  -22.3818   20.2533 N   0  0  0  0  0  0
  -30.2804  -24.1064   20.6319 O   0  0  0  0  0  0
  -26.5750  -20.8081   21.0467 Cl  0  0  0  0  0  0
  -31.5554  -18.4938   20.3292 Cl  0  0  0  0  0  0
  -31.4863  -12.6222   19.1726 H   0  0  0  0  0  0
  -30.4193  -11.4820   19.9363 H   0  0  0  0  0  0
  -29.8021  -11.7660   17.5216 H   0  0  0  0  0  0
  -29.6387  -13.4900   17.7390 H   0  0  0  0  0  0
  -27.9005  -11.2934   18.8997 H   0  0  0  0  0  0
  -27.3877  -12.5537   17.8089 H   0  0  0  0  0  0
  -27.6632  -14.2583   19.5168 H   0  0  0  0  0  0
  -28.7346  -12.0961   21.3923 H   0  0  0  0  0  0
  -28.4072  -13.7380   21.8532 H   0  0  0  0  0  0
  -25.2761   -9.5653   22.4783 H   0  0  0  0  0  0
  -23.9991   -7.4610   22.7484 H   0  0  0  0  0  0
  -21.0847   -8.8771   19.8955 H   0  0  0  0  0  0
  -22.3714  -10.9667   19.6189 H   0  0  0  0  0  0
  -21.1999   -7.6149   23.9715 H   0  0  0  0  0  0
  -21.1483   -6.0525   25.9076 H   0  0  0  0  0  0
  -22.0598   -2.7610   23.2845 H   0  0  0  0  0  0
  -22.4101  -11.9857   22.4788 H   0  0  0  0  0  0
  -21.1117  -13.1248   22.2642 H   0  0  0  0  0  0
  -24.6102  -15.8042   20.4195 H   0  0  0  0  0  0
  -26.2218  -15.6057   19.9533 H   0  0  0  0  0  0
  -26.7226  -32.5409   23.1084 H   0  0  0  0  0  0
  -25.0070  -33.9676   25.0401 H   0  0  0  0  0  0
  -22.7309  -31.3000   21.3931 H   0  0  0  0  0  0
  -23.3753  -35.9609   23.3300 H   0  0  0  0  0  0
  -24.3578  -36.8904   22.2057 H   0  0  0  0  0  0
  -23.7236  -37.6480   23.6664 H   0  0  0  0  0  0
  -26.1208  -31.5214   20.6090 H   0  0  0  0  0  0
  -26.8582  -30.8142   22.0143 H   0  0  0  0  0  0
  -28.1288  -28.9070   21.2119 H   0  0  0  0  0  0
  -25.9355  -25.9062   18.9963 H   0  0  0  0  0  0
  -23.9763  -27.3100   19.0018 H   0  0  0  0  0  0
  -23.7811  -30.5873   19.4016 H   0  0  0  0  0  0
  -22.7724  -29.2457   19.8512 H   0  0  0  0  0  0
  -25.1293  -36.1917   25.0826 H   0  0  0  0  0  0
  -20.9996  -28.3278   24.1375 H   0  0  0  0  0  0
  -20.5659  -26.2318   23.3615 H   0  0  0  0  0  0
  -21.6647  -26.7414   22.1207 H   0  0  0  0  0  0
  -19.6901  -25.6286   21.1245 H   0  0  0  0  0  0
  -19.6675  -27.3186   20.6737 H   0  0  0  0  0  0
  -17.4196  -26.6671   21.4035 H   0  0  0  0  0  0
  -18.0332  -26.0070   22.9028 H   0  0  0  0  0  0
  -19.7946  -30.7274   24.2260 H   0  0  0  0  0  0
  -17.5019  -31.6261   24.5164 H   0  0  0  0  0  0
  -15.5357  -30.2979   23.7647 H   0  0  0  0  0  0
  -15.8687  -28.0808   22.7076 H   0  0  0  0  0  0
  -24.5894  -30.7085   25.7769 H   0  0  0  0  0  0
  -24.8896  -32.2911   26.4835 H   0  0  0  0  0  0
  -25.8010  -30.8936   27.0241 H   0  0  0  0  0  0
  -26.2957  -29.6732   24.1230 H   0  0  0  0  0  0
  -27.4018  -29.7256   25.4760 H   0  0  0  0  0  0
  -27.8844  -30.4266   23.9502 H   0  0  0  0  0  0
  -27.2673  -33.3631   26.2054 H   0  0  0  0  0  0
  -28.3881  -32.6853   25.0334 H   0  0  0  0  0  0
  -28.0715  -31.8454   26.5435 H   0  0  0  0  0  0
  -28.2599  -38.0092   24.7509 H   0  0  0  0  0  0
  -28.1070  -36.2623   24.6301 H   0  0  0  0  0  0
  -27.2297  -37.1459   25.8872 H   0  0  0  0  0  0
  -20.9418  -29.8797   21.6869 H   0  0  0  0  0  0
  -26.0171  -38.2846   24.1398 H   0  0  0  0  0  0
  -27.5054  -16.1361   21.6970 H   0  0  0  0  0  0
  -25.5205  -17.1276   22.3056 H   0  0  0  0  0  0
  -25.0407  -18.2010   20.9869 H   0  0  0  0  0  0
  -25.4597  -18.8536   22.5772 H   0  0  0  0  0  0
  -30.2995  -21.0228   19.5225 H   0  0  0  0  0  0
  -30.3875  -21.2869   21.2314 H   0  0  0  0  0  0
  -27.1625  -24.6066   20.6719 H   0  0  0  0  0  0
  -27.7095  -24.6746   19.0078 H   0  0  0  0  0  0
  -29.3212  -15.2105   21.8754 H   0  0  0  0  0  0
  -27.8681  -22.1905   20.0516 H   0  0  0  0  0  0
  1 25  1  0  0  0
  1 30  2  0  0  0
  1 81  1  0  0  0
  2  3  1  0  0  0
  2 25  1  0  0  0
  2 86  1  0  0  0
  2 87  1  0  0  0
  3  4  1  0  0  0
  3 88  1  0  0  0
  3 89  1  0  0  0
  4  5  1  0  0  0
  4 90  1  0  0  0
  4 91  1  0  0  0
  5  6  1  0  0  0
  5 26  1  0  0  0
  5 92  1  0  0  0
  6 25  1  0  0  0
  6 93  1  0  0  0
  6 94  1  0  0  0
  7  8  2  0  0  0
  7 26  1  0  0  0
  7 29  1  0  0  0
  8  9  1  0  0  0
  8 22  1  0  0  0
  9 10  1  0  0  0
  9 27  2  0  0  0
 10 11  2  0  0  0
 10 15  1  0  0  0
 11 12  1  0  0  0
 11 95  1  0  0  0
 12 13  2  0  0  0
 12 96  1  0  0  0
 13 14  1  0  0  0
 13 31  1  0  0  0
 14 15  2  0  0  0
 14 97  1  0  0  0
 15 98  1  0  0  0
 16 17  2  0  0  0
 16 21  1  0  0  0
 16 31  1  0  0  0
 17 18  1  0  0  0
 17 99  1  0  0  0
 18 19  2  0  0  0
 18100  1  0  0  0
 19 20  1  0  0  0
 19 24  1  0  0  0
 20 21  2  0  0  0
 20101  1  0  0  0
 21 23  1  0  0  0
 22 28  1  0  0  0
 22 32  2  0  0  0
 26 27  1  0  0  0
 28102  1  0  0  0
 28103  1  0  0  0
 29104  1  0  0  0
 29105  1  0  0  0
 33 34  1  0  0  0
 33 66  1  0  0  0
 33 70  2  0  0  0
 34 36  1  0  0  0
 34 59  1  0  0  0
 34106  1  0  0  0
 35 44  2  0  0  0
 35 45  1  0  0  0
 35 68  1  0  0  0
 36 56  1  0  0  0
 36107  1  0  0  0
 37 39  1  0  0  0
 37 47  1  0  0  0
 37 66  1  0  0  0
 37108  1  0  0  0
 38 43  2  0  0  0
 38 46  1  0  0  0
 38 47  1  0  0  0
 39 64  1  0  0  0
 39 67  2  0  0  0
 40 52  1  0  0  0
 40 53  2  0  0  0
 40 58  1  0  0  0
 41109  1  0  0  0
 41110  1  0  0  0
 41111  1  0  0  0
 41 48  1  0  0  0
 42 43  1  0  0  0
 42 66  1  0  0  0
 42112  1  0  0  0
 42113  1  0  0  0
 43 44  1  0  0  0
 44114  1  0  0  0
 45 46  2  0  0  0
 45115  1  0  0  0
 46116  1  0  0  0
 47117  1  0  0  0
 47118  1  0  0  0
 48 56  1  0  0  0
 48 65  1  0  0  0
 48119  1  0  0  0
 49 50  1  0  0  0
 49 53  1  0  0  0
 49 64  1  0  0  0
 49120  1  0  0  0
 50 51  1  0  0  0
 50121  1  0  0  0
 50122  1  0  0  0
 51 52  1  0  0  0
 51123  1  0  0  0
 51124  1  0  0  0
 52125  1  0  0  0
 52126  1  0  0  0
 53 54  1  0  0  0
 54 55  2  0  0  0
 54127  1  0  0  0
 55 57  1  0  0  0
 55128  1  0  0  0
 56 69  2  0  0  0
 57 58  2  0  0  0
 57129  1  0  0  0
 58130  1  0  0  0
 59 60  1  0  0  0
 59 61  1  0  0  0
 59 62  1  0  0  0
 60131  1  0  0  0
 60132  1  0  0  0
 60133  1  0  0  0
 61134  1  0  0  0
 61135  1  0  0  0
 61136  1  0  0  0
 62137  1  0  0  0
 62138  1  0  0  0
 62139  1  0  0  0
 63 65  1  0  0  0
 63140  1  0  0  0
 63141  1  0  0  0
 63142  1  0  0  0
 64143  1  0  0  0
 65144  1  0  0  0
 68 80  1  0  0  0
 71 72  2  0  0  0
 71 74  1  0  0  0
 71145  1  0  0  0
 72 75  1  0  0  0
 72 78  1  0  0  0
 73 75  2  0  0  0
 73 76  1  0  0  0
 73 79  1  0  0  0
 74 76  2  0  0  0
 74 81  1  0  0  0
 75 84  1  0  0  0
 76 85  1  0  0  0
 77 80  1  0  0  0
 77 82  1  0  0  0
 77 83  2  0  0  0
 78146  1  0  0  0
 78147  1  0  0  0
 78148  1  0  0  0
 79 82  1  0  0  0
 79149  1  0  0  0
 79150  1  0  0  0
 80151  1  0  0  0
 80152  1  0  0  0
 81153  1  0  0  0
 82154  1  0  0  0
M  ISO  4   1 100  68 101  80 101  81 100
M  END
> <chiral flag>
0

> <version>
0

> <s_m_source_file>
/data/baiqing/PycharmProjects/Reinvent-master-3.2/result/LINK_invent/BTK/process_docking_weight1_custom_sum_contain_oxygen_bond_distance_aromatic_linkinvent_7_9_3/rearranged_h_0013.sdf

> <i_m_source_file_index>
19

> <r_mmod_Potential_Energy-OPLS-2005>
170.904769897461

> <r_mmod_Stretch_Energy-OPLS-2005>
147.138198852539

> <r_mmod_Bend_Energy-OPLS-2005>
213.049514770508

> <r_mmod_Torsional_Energy-OPLS-2005>
233.076934814453

> <r_mmod_Improper_Torsional_Energy-OPLS-2005>
7.80666208267212

> <r_mmod_Van_der_Waal_Energy-OPLS-2005>
143.932510375977

> <r_mmod_Electrostatic_Energy-OPLS-2005>
-417.063232421875

> <r_mmod_Solvation_Energy-OPLS-2005>
-250.244659423828

> <b_mmod_Minimization_Converged-OPLS-2005>
0

> <r_mmod_RMS_Derivative-OPLS-2005>
0.870290219783783

$$$$
19
                    3D
 Structure written by MMmdl.
164172  0  0  1  0            999 V2000
  -30.7081  -14.4086   20.6419 C   0  0  0  0  0  0
  -30.4237  -12.2920   19.3977 C   0  0  0  0  0  0
  -29.4896  -12.5315   18.1947 C   0  0  0  0  0  0
  -28.0100  -12.3902   18.6081 C   0  0  0  0  0  0
  -27.6707  -13.1983   19.8907 C   0  0  2  0  0  0
  -28.7110  -12.9069   20.9938 C   0  0  0  0  0  0
  -25.2633  -13.8134   20.5700 C   0  0  0  0  0  0
  -24.1866  -13.0424   20.9157 C   0  0  0  0  0  0
  -24.6407  -11.6886   20.8724 C   0  0  0  0  0  0
  -23.9068  -10.4279   21.0415 C   0  0  0  0  0  0
  -24.3621   -9.4194   21.9200 C   0  0  0  0  0  0
  -23.6281   -8.2238   22.0779 C   0  0  0  0  0  0
  -22.4264   -8.0288   21.3560 C   0  0  0  0  0  0
  -21.9909   -9.0266   20.4659 C   0  0  0  0  0  0
  -22.7245  -10.2133   20.3061 C   0  0  0  0  0  0
  -21.6852   -6.0732   22.5282 C   0  0  0  0  0  0
  -21.4010   -6.5638   23.8212 C   0  0  0  0  0  0
  -21.3654   -5.6796   24.9184 C   0  0  0  0  0  0
  -21.6048   -4.3061   24.7232 C   0  0  0  0  0  0
  -21.8818   -3.8146   23.4354 C   0  0  0  0  0  0
  -21.9192   -4.6958   22.3407 C   0  0  0  0  0  0
  -22.7894  -13.5247   21.1810 C   0  0  0  0  0  0
  -22.1674   -4.2149   21.0985 F   0  0  0  0  0  0
  -21.5621   -3.4535   25.7735 F   0  0  0  0  0  0
  -30.0382  -13.2393   20.4543 N   0  0  0  0  0  0
  -26.3085  -12.9295   20.3454 N   0  0  0  0  0  0
  -25.9334  -11.6448   20.5768 N   0  0  0  0  0  0
  -22.0546  -12.8225   22.0368 N   0  0  0  0  0  0
  -25.4337  -15.1849   20.4126 N   0  0  0  0  0  0
  -31.8135  -14.6090   20.1219 O   0  0  0  0  0  0
  -21.6636   -6.8884   21.4249 O   0  0  0  0  0  0
  -22.3579  -14.5560   20.6677 O   0  0  0  0  0  0
  -24.6136  -31.8697   23.2129 C   0  0  0  0  0  0
  -25.9039  -32.4826   23.8423 C   0  0  1  0  0  0
  -27.2469  -27.4575   20.0827 C   0  0  0  0  0  0
  -25.5899  -33.8627   24.2345 N   0  0  0  0  0  0
  -23.4012  -30.4929   21.5526 C   0  0  2  0  0  0
  -24.8482  -28.9611   20.1160 C   0  0  0  0  0  0
  -22.7414  -29.4661   22.5008 C   0  0  0  0  0  0
  -18.0269  -28.1384   22.8496 C   0  0  0  0  0  0
  -24.1480  -36.7306   23.2641 C   0  0  0  0  0  0
  -25.9290  -30.8388   21.3658 C   0  0  0  0  0  0
  -26.0059  -29.4752   20.7110 C   0  0  0  0  0  0
  -27.2046  -28.7303   20.6924 C   0  0  0  0  0  0
  -26.0649  -26.9513   19.4870 C   0  0  0  0  0  0
  -24.8718  -27.6970   19.5032 C   0  0  0  0  0  0
  -23.6088  -29.8244   20.1666 C   0  0  0  0  0  0
  -25.4100  -36.3114   24.0346 C   0  0  1  0  0  0
  -20.5864  -28.3664   23.1330 C   0  0  2  0  0  0
  -20.6768  -26.9402   22.5423 C   0  0  0  0  0  0
  -19.5742  -26.6392   21.5222 C   0  0  0  0  0  0
  -18.1916  -26.7939   22.1621 C   0  0  0  0  0  0
  -19.1521  -28.8846   23.2908 C   0  0  0  0  0  0
  -18.9445  -30.1455   23.8915 C   0  0  0  0  0  0
  -17.6444  -30.6587   24.0570 C   0  0  0  0  0  0
  -25.9034  -34.9481   23.5141 C   0  0  0  0  0  0
  -16.5339  -29.9087   23.6327 C   0  0  0  0  0  0
  -16.7255  -28.6506   23.0349 C   0  0  0  0  0  0
  -26.4478  -31.6599   25.0745 C   0  0  0  0  0  0
  -25.3751  -31.3688   26.1491 C   0  0  0  0  0  0
  -27.0311  -30.3050   24.6113 C   0  0  0  0  0  0
  -27.6055  -32.4326   25.7497 C   0  0  0  0  0  0
  -27.5582  -37.1804   24.8464 C   0  0  0  0  0  0
  -21.4144  -29.3020   22.3737 N   0  0  0  0  0  0
  -26.4281  -37.3803   23.9423 N   0  0  0  0  0  0
  -24.6660  -31.0809   22.1021 N   0  0  0  0  0  0
  -23.4190  -28.8206   23.3056 O   0  0  0  0  0  0
  -28.4447  -26.7745   20.0922 O   0  0  0  0  0  0
  -26.5592  -34.8924   22.4701 O   0  0  0  0  0  0
  -23.5328  -32.1440   23.7525 O   0  0  0  0  0  0
  -31.3038  -21.6112   19.0976 C   0  0  0  0  0  0
  -31.1281  -19.1930   18.9901 C   0  0  0  0  0  0
  -31.0002  -21.5888   20.4752 C   0  0  0  0  0  0
  -31.3857  -20.4193   18.3420 C   0  0  0  0  0  0
  -30.8241  -19.1456   20.3708 C   0  0  0  0  0  0
  -30.7777  -20.3446   21.1199 C   0  0  0  0  0  0
  -30.0249  -16.8039   20.5788 C   0  0  0  0  0  0
  -29.8155  -24.7831   19.9623 C   0  0  0  0  0  0
  -32.5218  -21.5618   16.4685 C   0  0  0  0  0  0
  -30.9384  -19.6519   16.0474 C   0  0  0  0  0  0
  -30.9310  -22.9208   21.2188 C   0  0  0  0  0  0
  -30.0709  -15.5520   21.4710 C   0  0  0  0  0  0
  -28.4635  -25.4260   19.6234 C   0  0  0  0  0  0
  -30.6340  -17.9079   21.0480 N   0  0  0  0  0  0
  -29.7916  -23.7344   20.7974 N   0  0  0  0  0  0
  -31.7463  -20.4351   16.9794 N   0  0  0  0  0  0
  -29.3927  -16.7869   19.5171 O   0  0  0  0  0  0
  -30.8586  -25.2237   19.4720 O   0  0  0  0  0  0
  -30.4341  -20.2622   22.8173 Cl  0  0  0  0  0  0
  -31.4670  -12.3935   19.0944 H   0  0  0  0  0  0
  -30.3190  -11.2688   19.7584 H   0  0  0  0  0  0
  -29.7229  -11.8305   17.3923 H   0  0  0  0  0  0
  -29.6615  -13.5308   17.7914 H   0  0  0  0  0  0
  -27.8134  -11.3313   18.7754 H   0  0  0  0  0  0
  -27.3594  -12.6944   17.7883 H   0  0  0  0  0  0
  -27.7360  -14.2571   19.6381 H   0  0  0  0  0  0
  -28.6842  -11.8465   21.2519 H   0  0  0  0  0  0
  -28.4689  -13.4092   21.9281 H   0  0  0  0  0  0
  -25.2781   -9.5652   22.4758 H   0  0  0  0  0  0
  -23.9980   -7.4633   22.7506 H   0  0  0  0  0  0
  -21.0849   -8.8788   19.8955 H   0  0  0  0  0  0
  -22.3731  -10.9677   19.6159 H   0  0  0  0  0  0
  -21.2011   -7.6148   23.9710 H   0  0  0  0  0  0
  -21.1482   -6.0538   25.9084 H   0  0  0  0  0  0
  -22.0600   -2.7605   23.2858 H   0  0  0  0  0  0
  -22.4147  -11.9866   22.4706 H   0  0  0  0  0  0
  -21.1188  -13.1265   22.2634 H   0  0  0  0  0  0
  -24.6625  -15.8355   20.5135 H   0  0  0  0  0  0
  -26.2896  -15.6290   20.1030 H   0  0  0  0  0  0
  -26.7116  -32.5550   23.1189 H   0  0  0  0  0  0
  -25.0074  -33.9796   25.0507 H   0  0  0  0  0  0
  -22.6876  -31.3083   21.4144 H   0  0  0  0  0  0
  -23.3761  -35.9619   23.3285 H   0  0  0  0  0  0
  -24.3577  -36.8942   22.2060 H   0  0  0  0  0  0
  -23.7201  -37.6491   23.6672 H   0  0  0  0  0  0
  -26.0444  -31.6086   20.6014 H   0  0  0  0  0  0
  -26.8156  -30.8881   21.9860 H   0  0  0  0  0  0
  -28.1009  -29.1292   21.1481 H   0  0  0  0  0  0
  -26.0436  -25.9888   18.9973 H   0  0  0  0  0  0
  -23.9810  -27.2969   19.0365 H   0  0  0  0  0  0
  -23.7155  -30.5991   19.4068 H   0  0  0  0  0  0
  -22.7342  -29.2413   19.8720 H   0  0  0  0  0  0
  -25.1269  -36.1983   25.0839 H   0  0  0  0  0  0
  -20.9946  -28.3231   24.1455 H   0  0  0  0  0  0
  -20.5688  -26.2265   23.3608 H   0  0  0  0  0  0
  -21.6633  -26.7466   22.1202 H   0  0  0  0  0  0
  -19.6902  -25.6307   21.1231 H   0  0  0  0  0  0
  -19.6683  -27.3216   20.6766 H   0  0  0  0  0  0
  -17.4195  -26.6710   21.4006 H   0  0  0  0  0  0
  -18.0289  -26.0065   22.9004 H   0  0  0  0  0  0
  -19.7924  -30.7272   24.2285 H   0  0  0  0  0  0
  -17.4998  -31.6267   24.5183 H   0  0  0  0  0  0
  -15.5335  -30.2992   23.7654 H   0  0  0  0  0  0
  -15.8655  -28.0831   22.7048 H   0  0  0  0  0  0
  -24.5888  -30.7087   25.7807 H   0  0  0  0  0  0
  -24.8983  -32.2839   26.5020 H   0  0  0  0  0  0
  -25.8102  -30.8776   27.0201 H   0  0  0  0  0  0
  -26.2848  -29.6800   24.1194 H   0  0  0  0  0  0
  -27.4114  -29.7302   25.4568 H   0  0  0  0  0  0
  -27.8676  -30.4377   23.9244 H   0  0  0  0  0  0
  -27.2680  -33.3621   26.2099 H   0  0  0  0  0  0
  -28.3846  -32.6897   25.0306 H   0  0  0  0  0  0
  -28.0749  -31.8438   26.5388 H   0  0  0  0  0  0
  -28.2586  -38.0118   24.7550 H   0  0  0  0  0  0
  -28.1090  -36.2652   24.6243 H   0  0  0  0  0  0
  -27.2304  -37.1394   25.8867 H   0  0  0  0  0  0
  -20.9322  -29.8724   21.6930 H   0  0  0  0  0  0
  -26.0175  -38.2877   24.1453 H   0  0  0  0  0  0
  -31.4742  -22.5700   18.6297 H   0  0  0  0  0  0
  -31.2080  -18.2703   18.4358 H   0  0  0  0  0  0
  -33.2924  -21.8653   17.1809 H   0  0  0  0  0  0
  -31.8806  -22.4212   16.2664 H   0  0  0  0  0  0
  -33.0277  -21.2924   15.5402 H   0  0  0  0  0  0
  -29.9133  -20.0259   16.0148 H   0  0  0  0  0  0
  -30.9057  -18.5944   16.3126 H   0  0  0  0  0  0
  -31.3453  -19.7152   15.0368 H   0  0  0  0  0  0
  -31.8705  -23.4526   21.0615 H   0  0  0  0  0  0
  -30.8639  -22.7800   22.2955 H   0  0  0  0  0  0
  -29.0507  -15.3715   21.7931 H   0  0  0  0  0  0
  -30.6645  -15.7214   22.3685 H   0  0  0  0  0  0
  -27.6657  -24.8429   20.0857 H   0  0  0  0  0  0
  -28.3223  -25.4025   18.5421 H   0  0  0  0  0  0
  -30.9332  -17.8906   22.0142 H   0  0  0  0  0  0
  -28.8902  -23.4724   21.1725 H   0  0  0  0  0  0
  1 25  1  0  0  0
  1 30  2  0  0  0
  1 82  1  0  0  0
  2  3  1  0  0  0
  2 25  1  0  0  0
  2 90  1  0  0  0
  2 91  1  0  0  0
  3  4  1  0  0  0
  3 92  1  0  0  0
  3 93  1  0  0  0
  4  5  1  0  0  0
  4 94  1  0  0  0
  4 95  1  0  0  0
  5  6  1  0  0  0
  5 26  1  0  0  0
  5 96  1  0  0  0
  6 25  1  0  0  0
  6 97  1  0  0  0
  6 98  1  0  0  0
  7  8  2  0  0  0
  7 26  1  0  0  0
  7 29  1  0  0  0
  8  9  1  0  0  0
  8 22  1  0  0  0
  9 10  1  0  0  0
  9 27  2  0  0  0
 10 11  2  0  0  0
 10 15  1  0  0  0
 11 12  1  0  0  0
 11 99  1  0  0  0
 12 13  2  0  0  0
 12100  1  0  0  0
 13 14  1  0  0  0
 13 31  1  0  0  0
 14 15  2  0  0  0
 14101  1  0  0  0
 15102  1  0  0  0
 16 17  2  0  0  0
 16 21  1  0  0  0
 16 31  1  0  0  0
 17 18  1  0  0  0
 17103  1  0  0  0
 18 19  2  0  0  0
 18104  1  0  0  0
 19 20  1  0  0  0
 19 24  1  0  0  0
 20 21  2  0  0  0
 20105  1  0  0  0
 21 23  1  0  0  0
 22 28  1  0  0  0
 22 32  2  0  0  0
 26 27  1  0  0  0
 28106  1  0  0  0
 28107  1  0  0  0
 29108  1  0  0  0
 29109  1  0  0  0
 33 34  1  0  0  0
 33 66  1  0  0  0
 33 70  2  0  0  0
 34 36  1  0  0  0
 34 59  1  0  0  0
 34110  1  0  0  0
 35 44  2  0  0  0
 35 45  1  0  0  0
 35 68  1  0  0  0
 36 56  1  0  0  0
 36111  1  0  0  0
 37 39  1  0  0  0
 37 47  1  0  0  0
 37 66  1  0  0  0
 37112  1  0  0  0
 38 43  2  0  0  0
 38 46  1  0  0  0
 38 47  1  0  0  0
 39 64  1  0  0  0
 39 67  2  0  0  0
 40 52  1  0  0  0
 40 53  2  0  0  0
 40 58  1  0  0  0
 41113  1  0  0  0
 41114  1  0  0  0
 41115  1  0  0  0
 41 48  1  0  0  0
 42 43  1  0  0  0
 42 66  1  0  0  0
 42116  1  0  0  0
 42117  1  0  0  0
 43 44  1  0  0  0
 44118  1  0  0  0
 45 46  2  0  0  0
 45119  1  0  0  0
 46120  1  0  0  0
 47121  1  0  0  0
 47122  1  0  0  0
 48 56  1  0  0  0
 48 65  1  0  0  0
 48123  1  0  0  0
 49 50  1  0  0  0
 49 53  1  0  0  0
 49 64  1  0  0  0
 49124  1  0  0  0
 50 51  1  0  0  0
 50125  1  0  0  0
 50126  1  0  0  0
 51 52  1  0  0  0
 51127  1  0  0  0
 51128  1  0  0  0
 52129  1  0  0  0
 52130  1  0  0  0
 53 54  1  0  0  0
 54 55  2  0  0  0
 54131  1  0  0  0
 55 57  1  0  0  0
 55132  1  0  0  0
 56 69  2  0  0  0
 57 58  2  0  0  0
 57133  1  0  0  0
 58134  1  0  0  0
 59 60  1  0  0  0
 59 61  1  0  0  0
 59 62  1  0  0  0
 60135  1  0  0  0
 60136  1  0  0  0
 60137  1  0  0  0
 61138  1  0  0  0
 61139  1  0  0  0
 61140  1  0  0  0
 62141  1  0  0  0
 62142  1  0  0  0
 62143  1  0  0  0
 63 65  1  0  0  0
 63144  1  0  0  0
 63145  1  0  0  0
 63146  1  0  0  0
 64147  1  0  0  0
 65148  1  0  0  0
 68 83  1  0  0  0
 71 73  2  0  0  0
 71 74  1  0  0  0
 71149  1  0  0  0
 72 74  2  0  0  0
 72 75  1  0  0  0
 72150  1  0  0  0
 73 76  1  0  0  0
 73 81  1  0  0  0
 74 86  1  0  0  0
 75 76  2  0  0  0
 75 84  1  0  0  0
 76 89  1  0  0  0
 77 82  1  0  0  0
 77 84  1  0  0  0
 77 87  2  0  0  0
 78 83  1  0  0  0
 78 85  1  0  0  0
 78 88  2  0  0  0
 79 86  1  0  0  0
 79151  1  0  0  0
 79152  1  0  0  0
 79153  1  0  0  0
 80 86  1  0  0  0
 80154  1  0  0  0
 80155  1  0  0  0
 80156  1  0  0  0
 81 85  1  0  0  0
 81157  1  0  0  0
 81158  1  0  0  0
 82159  1  0  0  0
 82160  1  0  0  0
 83161  1  0  0  0
 83162  1  0  0  0
 84163  1  0  0  0
 85164  1  0  0  0
M  ISO  4   1 100  68 101  82 100  83 101
M  END
> <chiral flag>
0

> <version>
0

> <s_m_source_file>
/data/baiqing/PycharmProjects/Reinvent-master-3.2/result/LINK_invent/BTK/process_docking_weight1_custom_sum_contain_oxygen_bond_distance_aromatic_linkinvent_7_9_3/rearranged_h_0013.sdf

> <i_m_source_file_index>
20

> <r_mmod_Potential_Energy-OPLS-2005>
-161.548049926758

> <r_mmod_Stretch_Energy-OPLS-2005>
36.7915458679199

> <r_mmod_Bend_Energy-OPLS-2005>
108.645393371582

> <r_mmod_Torsional_Energy-OPLS-2005>
183.095443725586

> <r_mmod_Improper_Torsional_Energy-OPLS-2005>
3.8552098274231

> <r_mmod_Van_der_Waal_Energy-OPLS-2005>
169.672164916992

> <r_mmod_Electrostatic_Energy-OPLS-2005>
-403.228790283203

> <r_mmod_Solvation_Energy-OPLS-2005>
-269.873718261719

> <b_mmod_Minimization_Converged-OPLS-2005>
0

> <r_mmod_RMS_Derivative-OPLS-2005>
1.94740843772888

$$$$
20
                    3D
 Structure written by MMmdl.
154162  0  0  1  0            999 V2000
  -30.6476  -14.7129   20.4612 C   0  0  0  0  0  0
  -30.4208  -12.4329   19.4803 C   0  0  0  0  0  0
  -29.5077  -12.5001   18.2382 C   0  0  0  0  0  0
  -28.0335  -12.3280   18.6504 C   0  0  0  0  0  0
  -27.6401  -13.2330   19.8499 C   0  0  2  0  0  0
  -28.6817  -13.1772   20.9884 C   0  0  0  0  0  0
  -25.2506  -13.8212   20.5674 C   0  0  0  0  0  0
  -24.1792  -13.0456   20.9174 C   0  0  0  0  0  0
  -24.6384  -11.6926   20.8744 C   0  0  0  0  0  0
  -23.9066  -10.4303   21.0413 C   0  0  0  0  0  0
  -24.3619   -9.4222   21.9192 C   0  0  0  0  0  0
  -23.6287   -8.2268   22.0769 C   0  0  0  0  0  0
  -22.4277   -8.0311   21.3553 C   0  0  0  0  0  0
  -21.9914   -9.0275   20.4654 C   0  0  0  0  0  0
  -22.7248  -10.2148   20.3056 C   0  0  0  0  0  0
  -21.6862   -6.0754   22.5285 C   0  0  0  0  0  0
  -21.4016   -6.5648   23.8217 C   0  0  0  0  0  0
  -21.3644   -5.6801   24.9175 C   0  0  0  0  0  0
  -21.6045   -4.3066   24.7230 C   0  0  0  0  0  0
  -21.8817   -3.8151   23.4345 C   0  0  0  0  0  0
  -21.9196   -4.6978   22.3403 C   0  0  0  0  0  0
  -22.7821  -13.5248   21.1846 C   0  0  0  0  0  0
  -22.1662   -4.2163   21.0988 F   0  0  0  0  0  0
  -21.5622   -3.4550   25.7729 F   0  0  0  0  0  0
  -29.9884  -13.5056   20.4068 N   0  0  0  0  0  0
  -26.2922  -12.9410   20.3283 N   0  0  0  0  0  0
  -25.9322  -11.6547   20.5763 N   0  0  0  0  0  0
  -22.0465  -12.8239   22.0395 N   0  0  0  0  0  0
  -25.4187  -15.1933   20.4090 N   0  0  0  0  0  0
  -31.8384  -14.7460   20.1493 O   0  0  0  0  0  0
  -21.6651   -6.8901   21.4245 O   0  0  0  0  0  0
  -22.3527  -14.5572   20.6720 O   0  0  0  0  0  0
  -24.6279  -31.8501   23.1982 C   0  0  0  0  0  0
  -25.9101  -32.4737   23.8318 C   0  0  1  0  0  0
  -27.2297  -27.2707   20.1287 C   0  0  0  0  0  0
  -25.5901  -33.8540   24.2231 N   0  0  0  0  0  0
  -23.4289  -30.4717   21.5342 C   0  0  2  0  0  0
  -24.8808  -28.9194   20.1077 C   0  0  0  0  0  0
  -22.7487  -29.4571   22.4872 C   0  0  0  0  0  0
  -18.0285  -28.1411   22.8432 C   0  0  0  0  0  0
  -24.1484  -36.7225   23.2653 C   0  0  0  0  0  0
  -25.9732  -30.7673   21.3805 C   0  0  0  0  0  0
  -26.0476  -29.3921   20.7175 C   0  0  0  0  0  0
  -27.2225  -28.5775   20.7214 C   0  0  0  0  0  0
  -26.0411  -26.8663   19.4826 C   0  0  0  0  0  0
  -24.8786  -27.6631   19.4827 C   0  0  0  0  0  0
  -23.6496  -29.8005   20.1517 C   0  0  0  0  0  0
  -25.4104  -36.3023   24.0332 C   0  0  1  0  0  0
  -20.5896  -28.3669   23.1239 C   0  0  2  0  0  0
  -20.6778  -26.9376   22.5379 C   0  0  0  0  0  0
  -19.5756  -26.6361   21.5188 C   0  0  0  0  0  0
  -18.1943  -26.7953   22.1590 C   0  0  0  0  0  0
  -19.1550  -28.8862   23.2845 C   0  0  0  0  0  0
  -18.9490  -30.1477   23.8843 C   0  0  0  0  0  0
  -17.6488  -30.6603   24.0556 C   0  0  0  0  0  0
  -25.9037  -34.9410   23.5086 C   0  0  0  0  0  0
  -16.5367  -29.9089   23.6372 C   0  0  0  0  0  0
  -16.7266  -28.6532   23.0330 C   0  0  0  0  0  0
  -26.4482  -31.6608   25.0730 C   0  0  0  0  0  0
  -25.3704  -31.3762   26.1444 C   0  0  0  0  0  0
  -27.0400  -30.3052   24.6252 C   0  0  0  0  0  0
  -27.6038  -32.4364   25.7467 C   0  0  0  0  0  0
  -27.5575  -37.1729   24.8451 C   0  0  0  0  0  0
  -21.4206  -29.3037   22.3630 N   0  0  0  0  0  0
  -26.4252  -37.3740   23.9454 N   0  0  0  0  0  0
  -24.6964  -31.0476   22.0957 N   0  0  0  0  0  0
  -23.4211  -28.8117   23.2967 O   0  0  0  0  0  0
  -28.3315  -26.3886   20.2269 O   0  0  0  0  0  0
  -26.5611  -34.8905   22.4659 O   0  0  0  0  0  0
  -23.5434  -32.1287   23.7273 O   0  0  0  0  0  0
  -30.9492  -20.0936   20.0190 C   0  0  0  0  0  0
  -31.5389  -17.7084   20.0161 C   0  0  0  0  0  0
  -31.8822  -19.0594   19.7957 C   0  0  0  0  0  0
  -29.6555  -19.8168   20.5051 C   0  0  0  0  0  0
  -30.2569  -17.3156   20.4764 C   0  0  0  0  0  0
  -29.3282  -18.4079   20.7286 C   0  0  0  0  0  0
  -28.7239  -23.6832   20.6821 C   0  0  0  0  0  0
  -33.2892  -19.3870   19.3289 C   0  0  0  0  0  0
  -28.7264  -21.0549   20.8841 C   0  0  0  0  0  0
  -28.2346  -24.9462   19.8047 C   0  0  0  0  0  0
  -29.9155  -15.8741   20.6758 N   0  0  0  0  0  0
  -28.7585  -22.4010   20.1549 N   0  0  0  0  0  0
  -29.0305  -23.8569   21.8672 O   0  0  0  0  0  0
  -27.7675  -17.9920   21.3475 Cl  0  0  0  0  0  0
  -31.4666  -12.5254   19.1827 H   0  0  0  0  0  0
  -30.3391  -11.4591   19.9663 H   0  0  0  0  0  0
  -29.7877  -11.7261   17.5225 H   0  0  0  0  0  0
  -29.6396  -13.4575   17.7311 H   0  0  0  0  0  0
  -27.8859  -11.2781   18.9074 H   0  0  0  0  0  0
  -27.3778  -12.5239   17.8005 H   0  0  0  0  0  0
  -27.6346  -14.2539   19.4654 H   0  0  0  0  0  0
  -28.7060  -12.1895   21.4521 H   0  0  0  0  0  0
  -28.4195  -13.8793   21.7804 H   0  0  0  0  0  0
  -25.2776   -9.5725   22.4750 H   0  0  0  0  0  0
  -24.0011   -7.4681   22.7495 H   0  0  0  0  0  0
  -21.0859   -8.8792   19.8952 H   0  0  0  0  0  0
  -22.3722  -10.9685   19.6155 H   0  0  0  0  0  0
  -21.2002   -7.6151   23.9727 H   0  0  0  0  0  0
  -21.1456   -6.0524   25.9080 H   0  0  0  0  0  0
  -22.0602   -2.7613   23.2844 H   0  0  0  0  0  0
  -22.4078  -11.9879   22.4738 H   0  0  0  0  0  0
  -21.1093  -13.1273   22.2619 H   0  0  0  0  0  0
  -24.6471  -15.8414   20.5227 H   0  0  0  0  0  0
  -26.2721  -15.6453   20.1069 H   0  0  0  0  0  0
  -26.7138  -32.5358   23.1026 H   0  0  0  0  0  0
  -25.0089  -33.9654   25.0412 H   0  0  0  0  0  0
  -22.7276  -31.2949   21.3762 H   0  0  0  0  0  0
  -23.3785  -35.9523   23.3254 H   0  0  0  0  0  0
  -24.3583  -36.8899   22.2079 H   0  0  0  0  0  0
  -23.7182  -37.6386   23.6713 H   0  0  0  0  0  0
  -26.1218  -31.5339   20.6202 H   0  0  0  0  0  0
  -26.8467  -30.8006   22.0204 H   0  0  0  0  0  0
  -28.1132  -28.9270   21.2213 H   0  0  0  0  0  0
  -25.9813  -25.9045   18.9958 H   0  0  0  0  0  0
  -23.9813  -27.2875   19.0128 H   0  0  0  0  0  0
  -23.7783  -30.5689   19.3891 H   0  0  0  0  0  0
  -22.7735  -29.2238   19.8483 H   0  0  0  0  0  0
  -25.1286  -36.1830   25.0816 H   0  0  0  0  0  0
  -20.9962  -28.3229   24.1363 H   0  0  0  0  0  0
  -20.5662  -26.2266   23.3578 H   0  0  0  0  0  0
  -21.6642  -26.7385   22.1176 H   0  0  0  0  0  0
  -19.6935  -25.6269   21.1226 H   0  0  0  0  0  0
  -19.6764  -27.3165   20.6738 H   0  0  0  0  0  0
  -17.4204  -26.6661   21.4002 H   0  0  0  0  0  0
  -18.0340  -26.0116   22.9007 H   0  0  0  0  0  0
  -19.7989  -30.7305   24.2151 H   0  0  0  0  0  0
  -17.5067  -31.6285   24.5157 H   0  0  0  0  0  0
  -15.5380  -30.2988   23.7791 H   0  0  0  0  0  0
  -15.8649  -28.0884   22.7035 H   0  0  0  0  0  0
  -24.5841  -30.7163   25.7728 H   0  0  0  0  0  0
  -24.8950  -32.2953   26.4884 H   0  0  0  0  0  0
  -25.7975  -30.8870   27.0214 H   0  0  0  0  0  0
  -26.3041  -29.6721   24.1276 H   0  0  0  0  0  0
  -27.4133  -29.7353   25.4781 H   0  0  0  0  0  0
  -27.8866  -30.4381   23.9516 H   0  0  0  0  0  0
  -27.2673  -33.3693   26.2002 H   0  0  0  0  0  0
  -28.3855  -32.6874   25.0282 H   0  0  0  0  0  0
  -28.0724  -31.8533   26.5398 H   0  0  0  0  0  0
  -28.2481  -38.0139   24.7620 H   0  0  0  0  0  0
  -28.1177  -36.2652   24.6106 H   0  0  0  0  0  0
  -27.2304  -37.1157   25.8856 H   0  0  0  0  0  0
  -20.9386  -29.8738   21.6815 H   0  0  0  0  0  0
  -26.0101  -38.2780   24.1603 H   0  0  0  0  0  0
  -31.2422  -21.1201   19.8552 H   0  0  0  0  0  0
  -32.3159  -16.9887   19.8150 H   0  0  0  0  0  0
  -33.5407  -20.4329   19.5116 H   0  0  0  0  0  0
  -33.3998  -19.1842   18.2628 H   0  0  0  0  0  0
  -34.0220  -18.7767   19.8602 H   0  0  0  0  0  0
  -28.9169  -21.2565   21.9381 H   0  0  0  0  0  0
  -27.6879  -20.7237   20.8505 H   0  0  0  0  0  0
  -27.4498  -24.8834   20.5602 H   0  0  0  0  0  0
  -29.3178  -25.0775   19.7944 H   0  0  0  0  0  0
  -28.9557  -15.7105   20.9384 H   0  0  0  0  0  0
  -28.5536  -22.3450   19.1661 H   0  0  0  0  0  0
  1 25  1  0  0  0
  1 30  2  0  0  0
  1 81  1  0  0  0
  2  3  1  0  0  0
  2 25  1  0  0  0
  2 85  1  0  0  0
  2 86  1  0  0  0
  3  4  1  0  0  0
  3 87  1  0  0  0
  3 88  1  0  0  0
  4  5  1  0  0  0
  4 89  1  0  0  0
  4 90  1  0  0  0
  5  6  1  0  0  0
  5 26  1  0  0  0
  5 91  1  0  0  0
  6 25  1  0  0  0
  6 92  1  0  0  0
  6 93  1  0  0  0
  7  8  2  0  0  0
  7 26  1  0  0  0
  7 29  1  0  0  0
  8  9  1  0  0  0
  8 22  1  0  0  0
  9 10  1  0  0  0
  9 27  2  0  0  0
 10 11  2  0  0  0
 10 15  1  0  0  0
 11 12  1  0  0  0
 11 94  1  0  0  0
 12 13  2  0  0  0
 12 95  1  0  0  0
 13 14  1  0  0  0
 13 31  1  0  0  0
 14 15  2  0  0  0
 14 96  1  0  0  0
 15 97  1  0  0  0
 16 17  2  0  0  0
 16 21  1  0  0  0
 16 31  1  0  0  0
 17 18  1  0  0  0
 17 98  1  0  0  0
 18 19  2  0  0  0
 18 99  1  0  0  0
 19 20  1  0  0  0
 19 24  1  0  0  0
 20 21  2  0  0  0
 20100  1  0  0  0
 21 23  1  0  0  0
 22 28  1  0  0  0
 22 32  2  0  0  0
 26 27  1  0  0  0
 28101  1  0  0  0
 28102  1  0  0  0
 29103  1  0  0  0
 29104  1  0  0  0
 33 34  1  0  0  0
 33 66  1  0  0  0
 33 70  2  0  0  0
 34 36  1  0  0  0
 34 59  1  0  0  0
 34105  1  0  0  0
 35 44  2  0  0  0
 35 45  1  0  0  0
 35 68  1  0  0  0
 36 56  1  0  0  0
 36106  1  0  0  0
 37 39  1  0  0  0
 37 47  1  0  0  0
 37 66  1  0  0  0
 37107  1  0  0  0
 38 43  2  0  0  0
 38 46  1  0  0  0
 38 47  1  0  0  0
 39 64  1  0  0  0
 39 67  2  0  0  0
 40 52  1  0  0  0
 40 53  2  0  0  0
 40 58  1  0  0  0
 41108  1  0  0  0
 41109  1  0  0  0
 41110  1  0  0  0
 41 48  1  0  0  0
 42 43  1  0  0  0
 42 66  1  0  0  0
 42111  1  0  0  0
 42112  1  0  0  0
 43 44  1  0  0  0
 44113  1  0  0  0
 45 46  2  0  0  0
 45114  1  0  0  0
 46115  1  0  0  0
 47116  1  0  0  0
 47117  1  0  0  0
 48 56  1  0  0  0
 48 65  1  0  0  0
 48118  1  0  0  0
 49 50  1  0  0  0
 49 53  1  0  0  0
 49 64  1  0  0  0
 49119  1  0  0  0
 50 51  1  0  0  0
 50120  1  0  0  0
 50121  1  0  0  0
 51 52  1  0  0  0
 51122  1  0  0  0
 51123  1  0  0  0
 52124  1  0  0  0
 52125  1  0  0  0
 53 54  1  0  0  0
 54 55  2  0  0  0
 54126  1  0  0  0
 55 57  1  0  0  0
 55127  1  0  0  0
 56 69  2  0  0  0
 57 58  2  0  0  0
 57128  1  0  0  0
 58129  1  0  0  0
 59 60  1  0  0  0
 59 61  1  0  0  0
 59 62  1  0  0  0
 60130  1  0  0  0
 60131  1  0  0  0
 60132  1  0  0  0
 61133  1  0  0  0
 61134  1  0  0  0
 61135  1  0  0  0
 62136  1  0  0  0
 62137  1  0  0  0
 62138  1  0  0  0
 63 65  1  0  0  0
 63139  1  0  0  0
 63140  1  0  0  0
 63141  1  0  0  0
 64142  1  0  0  0
 65143  1  0  0  0
 68 80  1  0  0  0
 71 73  2  0  0  0
 71 74  1  0  0  0
 71144  1  0  0  0
 72 73  1  0  0  0
 72 75  2  0  0  0
 72145  1  0  0  0
 73 78  1  0  0  0
 74 76  2  0  0  0
 74 79  1  0  0  0
 75 76  1  0  0  0
 75 81  1  0  0  0
 76 84  1  0  0  0
 77 80  1  0  0  0
 77 82  1  0  0  0
 77 83  2  0  0  0
 78146  1  0  0  0
 78147  1  0  0  0
 78148  1  0  0  0
 79 82  1  0  0  0
 79149  1  0  0  0
 79150  1  0  0  0
 80151  1  0  0  0
 80152  1  0  0  0
 81153  1  0  0  0
 82154  1  0  0  0
M  ISO  4   1 100  68 101  80 101  81 100
M  END
> <chiral flag>
0

> <version>
0

> <s_m_source_file>
/data/baiqing/PycharmProjects/Reinvent-master-3.2/result/LINK_invent/BTK/process_docking_weight1_custom_sum_contain_oxygen_bond_distance_aromatic_linkinvent_7_9_3/rearranged_h_0013.sdf

> <i_m_source_file_index>
21

> <r_mmod_Potential_Energy-OPLS-2005>
269.389251708984

> <r_mmod_Stretch_Energy-OPLS-2005>
123.952949523926

> <r_mmod_Bend_Energy-OPLS-2005>
366.957061767578

> <r_mmod_Torsional_Energy-OPLS-2005>
209.532150268555

> <r_mmod_Improper_Torsional_Energy-OPLS-2005>
5.37855768203735

> <r_mmod_Van_der_Waal_Energy-OPLS-2005>
149.191925048828

> <r_mmod_Electrostatic_Energy-OPLS-2005>
-429.201843261719

> <r_mmod_Solvation_Energy-OPLS-2005>
-234.897262573242

> <b_mmod_Minimization_Converged-OPLS-2005>
0

> <r_mmod_RMS_Derivative-OPLS-2005>
4.02419424057007

$$$$
21
                    3D
 Structure written by MMmdl.
150158  0  0  1  0            999 V2000
  -30.5077  -15.0741   20.4459 C   0  0  0  0  0  0
  -30.4265  -12.6820   19.5053 C   0  0  0  0  0  0
  -29.5076  -12.5436   18.2645 C   0  0  0  0  0  0
  -28.0502  -12.3143   18.6957 C   0  0  0  0  0  0
  -27.6105  -13.2635   19.8366 C   0  0  2  0  0  0
  -28.6501  -13.3557   20.9732 C   0  0  0  0  0  0
  -25.2311  -13.8279   20.5711 C   0  0  0  0  0  0
  -24.1652  -13.0468   20.9252 C   0  0  0  0  0  0
  -24.6315  -11.6974   20.8830 C   0  0  0  0  0  0
  -23.9033  -10.4324   21.0446 C   0  0  0  0  0  0
  -24.3594   -9.4244   21.9216 C   0  0  0  0  0  0
  -23.6286   -8.2277   22.0766 C   0  0  0  0  0  0
  -22.4293   -8.0304   21.3534 C   0  0  0  0  0  0
  -21.9902   -9.0287   20.4666 C   0  0  0  0  0  0
  -22.7214  -10.2171   20.3085 C   0  0  0  0  0  0
  -21.6870   -6.0739   22.5262 C   0  0  0  0  0  0
  -21.4017   -6.5637   23.8194 C   0  0  0  0  0  0
  -21.3663   -5.6787   24.9157 C   0  0  0  0  0  0
  -21.6052   -4.3051   24.7214 C   0  0  0  0  0  0
  -21.8808   -3.8136   23.4337 C   0  0  0  0  0  0
  -21.9164   -4.6950   22.3384 C   0  0  0  0  0  0
  -22.7672  -13.5212   21.1911 C   0  0  0  0  0  0
  -22.1649   -4.2114   21.0972 F   0  0  0  0  0  0
  -21.5651   -3.4548   25.7738 F   0  0  0  0  0  0
  -29.9068  -13.8061   20.3536 N   0  0  0  0  0  0
  -26.2740  -12.9527   20.3271 N   0  0  0  0  0  0
  -25.9245  -11.6655   20.5767 N   0  0  0  0  0  0
  -22.0344  -12.8223   22.0513 N   0  0  0  0  0  0
  -25.3944  -15.2004   20.4061 N   0  0  0  0  0  0
  -31.7261  -15.0889   20.2232 O   0  0  0  0  0  0
  -21.6652   -6.8898   21.4243 O   0  0  0  0  0  0
  -22.3367  -14.5539   20.6805 O   0  0  0  0  0  0
  -24.6489  -31.8425   23.1828 C   0  0  0  0  0  0
  -25.9242  -32.4737   23.8224 C   0  0  1  0  0  0
  -27.2121  -27.0631   20.1922 C   0  0  0  0  0  0
  -25.5966  -33.8535   24.2158 N   0  0  0  0  0  0
  -23.4576  -30.4559   21.5303 C   0  0  2  0  0  0
  -24.9125  -28.8739   20.1027 C   0  0  0  0  0  0
  -22.7599  -29.4480   22.4819 C   0  0  0  0  0  0
  -18.0280  -28.1446   22.8463 C   0  0  0  0  0  0
  -24.1492  -36.7289   23.2612 C   0  0  0  0  0  0
  -26.0128  -30.6954   21.3883 C   0  0  0  0  0  0
  -26.0881  -29.2948   20.7383 C   0  0  0  0  0  0
  -27.2371  -28.4098   20.7675 C   0  0  0  0  0  0
  -26.0144  -26.7626   19.5090 C   0  0  0  0  0  0
  -24.8946  -27.6238   19.4660 C   0  0  0  0  0  0
  -23.6967  -29.7923   20.1469 C   0  0  0  0  0  0
  -25.4128  -36.3060   24.0282 C   0  0  1  0  0  0
  -20.5885  -28.3795   23.1295 C   0  0  2  0  0  0
  -20.6774  -26.9433   22.5586 C   0  0  0  0  0  0
  -19.5806  -26.6242   21.5374 C   0  0  0  0  0  0
  -18.1966  -26.7926   22.1752 C   0  0  0  0  0  0
  -19.1519  -28.8948   23.2819 C   0  0  0  0  0  0
  -18.9445  -30.1553   23.8835 C   0  0  0  0  0  0
  -17.6433  -30.6672   24.0487 C   0  0  0  0  0  0
  -25.9084  -34.9444   23.5022 C   0  0  0  0  0  0
  -16.5333  -29.9141   23.6282 C   0  0  0  0  0  0
  -16.7248  -28.6538   23.0344 C   0  0  0  0  0  0
  -26.4494  -31.6649   25.0721 C   0  0  0  0  0  0
  -25.3599  -31.3887   26.1361 C   0  0  0  0  0  0
  -27.0292  -30.3044   24.6304 C   0  0  0  0  0  0
  -27.6096  -32.4345   25.7503 C   0  0  0  0  0  0
  -27.5593  -37.1798   24.8445 C   0  0  0  0  0  0
  -21.4276  -29.3081   22.3641 N   0  0  0  0  0  0
  -26.4284  -37.3796   23.9408 N   0  0  0  0  0  0
  -24.7275  -31.0192   22.0911 N   0  0  0  0  0  0
  -23.4216  -28.7955   23.2952 O   0  0  0  0  0  0
  -28.2308  -26.0285   20.3044 O   0  0  0  0  0  0
  -26.5690  -34.8922   22.4627 O   0  0  0  0  0  0
  -23.5591  -32.1318   23.7002 O   0  0  0  0  0  0
  -30.6893  -20.5988   21.5574 C   0  0  0  0  0  0
  -29.5137  -20.5071   20.7678 C   0  0  0  0  0  0
  -30.0193  -17.8239   20.7971 C   0  0  0  0  0  0
  -31.4590  -19.4800   21.9577 C   0  0  0  0  0  0
  -31.1539  -18.1488   21.5804 C   0  0  0  0  0  0
  -29.2070  -19.0554   20.4453 C   0  0  0  0  0  0
  -28.8304  -23.1437   20.6848 C   0  0  0  0  0  0
  -29.7518  -23.6464   21.7771 C   0  0  0  0  0  0
  -27.9349  -24.4787   20.0988 C   0  0  0  0  0  0
  -28.7682  -21.7958   20.3512 N   0  0  0  0  0  0
  -29.7369  -16.3009   20.5066 N   0  0  0  0  0  0
  -32.5457  -19.6968   22.7433 F   0  0  0  0  0  0
  -31.9790  -17.1670   22.0199 F   0  0  0  0  0  0
  -27.7255  -18.7514   19.6125 Cl  0  0  0  0  0  0
  -31.4509  -12.8610   19.1754 H   0  0  0  0  0  0
  -30.4468  -11.7515   20.0735 H   0  0  0  0  0  0
  -29.8398  -11.7268   17.6195 H   0  0  0  0  0  0
  -29.5672  -13.4480   17.6563 H   0  0  0  0  0  0
  -27.9627  -11.2828   19.0388 H   0  0  0  0  0  0
  -27.3794  -12.4075   17.8406 H   0  0  0  0  0  0
  -27.5551  -14.2523   19.3890 H   0  0  0  0  0  0
  -28.7653  -12.3913   21.4667 H   0  0  0  0  0  0
  -28.3245  -14.0638   21.7390 H   0  0  0  0  0  0
  -25.2731   -9.5715   22.4811 H   0  0  0  0  0  0
  -23.9988   -7.4644   22.7472 H   0  0  0  0  0  0
  -21.0841   -8.8818   19.8953 H   0  0  0  0  0  0
  -22.3653  -10.9752   19.6232 H   0  0  0  0  0  0
  -21.2004   -7.6135   23.9679 H   0  0  0  0  0  0
  -21.1531   -6.0531   25.9056 H   0  0  0  0  0  0
  -22.0561   -2.7589   23.2841 H   0  0  0  0  0  0
  -22.3918  -11.9898   22.4924 H   0  0  0  0  0  0
  -21.0971  -13.1282   22.2726 H   0  0  0  0  0  0
  -24.6259  -15.8572   20.4962 H   0  0  0  0  0  0
  -26.2202  -15.6276   20.0098 H   0  0  0  0  0  0
  -26.7306  -32.5324   23.0939 H   0  0  0  0  0  0
  -25.0056  -33.9642   25.0265 H   0  0  0  0  0  0
  -22.7575  -31.2810   21.3769 H   0  0  0  0  0  0
  -23.3763  -35.9614   23.3286 H   0  0  0  0  0  0
  -24.3536  -36.8947   22.2015 H   0  0  0  0  0  0
  -23.7220  -37.6465   23.6683 H   0  0  0  0  0  0
  -26.1489  -31.4328   20.5951 H   0  0  0  0  0  0
  -26.8881  -30.7711   22.0225 H   0  0  0  0  0  0
  -28.1211  -28.7325   21.3023 H   0  0  0  0  0  0
  -25.9060  -25.7981   19.0343 H   0  0  0  0  0  0
  -24.0049  -27.2969   18.9437 H   0  0  0  0  0  0
  -23.8676  -30.5794   19.4101 H   0  0  0  0  0  0
  -22.8101  -29.2558   19.8028 H   0  0  0  0  0  0
  -25.1306  -36.1871   25.0764 H   0  0  0  0  0  0
  -20.9879  -28.3483   24.1459 H   0  0  0  0  0  0
  -20.5613  -26.2459   23.3891 H   0  0  0  0  0  0
  -21.6680  -26.7393   22.1517 H   0  0  0  0  0  0
  -19.6987  -25.6033   21.1746 H   0  0  0  0  0  0
  -19.6851  -27.2804   20.6715 H   0  0  0  0  0  0
  -17.4197  -26.6462   21.4214 H   0  0  0  0  0  0
  -18.0447  -26.0197   22.9315 H   0  0  0  0  0  0
  -19.7887  -30.7395   24.2219 H   0  0  0  0  0  0
  -17.4957  -31.6391   24.5005 H   0  0  0  0  0  0
  -15.5332  -30.3034   23.7605 H   0  0  0  0  0  0
  -15.8653  -28.0816   22.7137 H   0  0  0  0  0  0
  -24.5833  -30.7217   25.7603 H   0  0  0  0  0  0
  -24.8679  -32.3066   26.4604 H   0  0  0  0  0  0
  -25.7731  -30.9140   27.0265 H   0  0  0  0  0  0
  -26.2850  -29.6842   24.1299 H   0  0  0  0  0  0
  -27.3861  -29.7316   25.4862 H   0  0  0  0  0  0
  -27.8803  -30.4281   23.9612 H   0  0  0  0  0  0
  -27.2828  -33.3687   26.2076 H   0  0  0  0  0  0
  -28.3918  -32.6830   25.0326 H   0  0  0  0  0  0
  -28.0766  -31.8454   26.5400 H   0  0  0  0  0  0
  -28.2581  -38.0126   24.7531 H   0  0  0  0  0  0
  -28.1123  -36.2657   24.6236 H   0  0  0  0  0  0
  -27.2328  -37.1400   25.8851 H   0  0  0  0  0  0
  -20.9513  -29.8945   21.6924 H   0  0  0  0  0  0
  -26.0163  -38.2858   24.1489 H   0  0  0  0  0  0
  -31.0701  -21.5456   21.8901 H   0  0  0  0  0  0
  -29.4816  -24.6536   22.0968 H   0  0  0  0  0  0
  -30.7815  -23.6752   21.4255 H   0  0  0  0  0  0
  -29.6809  -23.0143   22.6579 H   0  0  0  0  0  0
  -26.9228  -24.3179   20.4708 H   0  0  0  0  0  0
  -27.8426  -24.3428   19.0245 H   0  0  0  0  0  0
  -28.7603  -16.1306   20.3183 H   0  0  0  0  0  0
  1 25  1  0  0  0
  1 30  2  0  0  0
  1 81  1  0  0  0
  2  3  1  0  0  0
  2 25  1  0  0  0
  2 85  1  0  0  0
  2 86  1  0  0  0
  3  4  1  0  0  0
  3 87  1  0  0  0
  3 88  1  0  0  0
  4  5  1  0  0  0
  4 89  1  0  0  0
  4 90  1  0  0  0
  5  6  1  0  0  0
  5 26  1  0  0  0
  5 91  1  0  0  0
  6 25  1  0  0  0
  6 92  1  0  0  0
  6 93  1  0  0  0
  7  8  2  0  0  0
  7 26  1  0  0  0
  7 29  1  0  0  0
  8  9  1  0  0  0
  8 22  1  0  0  0
  9 10  1  0  0  0
  9 27  2  0  0  0
 10 11  2  0  0  0
 10 15  1  0  0  0
 11 12  1  0  0  0
 11 94  1  0  0  0
 12 13  2  0  0  0
 12 95  1  0  0  0
 13 14  1  0  0  0
 13 31  1  0  0  0
 14 15  2  0  0  0
 14 96  1  0  0  0
 15 97  1  0  0  0
 16 17  2  0  0  0
 16 21  1  0  0  0
 16 31  1  0  0  0
 17 18  1  0  0  0
 17 98  1  0  0  0
 18 19  2  0  0  0
 18 99  1  0  0  0
 19 20  1  0  0  0
 19 24  1  0  0  0
 20 21  2  0  0  0
 20100  1  0  0  0
 21 23  1  0  0  0
 22 28  1  0  0  0
 22 32  2  0  0  0
 26 27  1  0  0  0
 28101  1  0  0  0
 28102  1  0  0  0
 29103  1  0  0  0
 29104  1  0  0  0
 33 34  1  0  0  0
 33 66  1  0  0  0
 33 70  2  0  0  0
 34 36  1  0  0  0
 34 59  1  0  0  0
 34105  1  0  0  0
 35 44  2  0  0  0
 35 45  1  0  0  0
 35 68  1  0  0  0
 36 56  1  0  0  0
 36106  1  0  0  0
 37 39  1  0  0  0
 37 47  1  0  0  0
 37 66  1  0  0  0
 37107  1  0  0  0
 38 43  2  0  0  0
 38 46  1  0  0  0
 38 47  1  0  0  0
 39 64  1  0  0  0
 39 67  2  0  0  0
 40 52  1  0  0  0
 40 53  2  0  0  0
 40 58  1  0  0  0
 41108  1  0  0  0
 41109  1  0  0  0
 41110  1  0  0  0
 41 48  1  0  0  0
 42 43  1  0  0  0
 42 66  1  0  0  0
 42111  1  0  0  0
 42112  1  0  0  0
 43 44  1  0  0  0
 44113  1  0  0  0
 45 46  2  0  0  0
 45114  1  0  0  0
 46115  1  0  0  0
 47116  1  0  0  0
 47117  1  0  0  0
 48 56  1  0  0  0
 48 65  1  0  0  0
 48118  1  0  0  0
 49 50  1  0  0  0
 49 53  1  0  0  0
 49 64  1  0  0  0
 49119  1  0  0  0
 50 51  1  0  0  0
 50120  1  0  0  0
 50121  1  0  0  0
 51 52  1  0  0  0
 51122  1  0  0  0
 51123  1  0  0  0
 52124  1  0  0  0
 52125  1  0  0  0
 53 54  1  0  0  0
 54 55  2  0  0  0
 54126  1  0  0  0
 55 57  1  0  0  0
 55127  1  0  0  0
 56 69  2  0  0  0
 57 58  2  0  0  0
 57128  1  0  0  0
 58129  1  0  0  0
 59 60  1  0  0  0
 59 61  1  0  0  0
 59 62  1  0  0  0
 60130  1  0  0  0
 60131  1  0  0  0
 60132  1  0  0  0
 61133  1  0  0  0
 61134  1  0  0  0
 61135  1  0  0  0
 62136  1  0  0  0
 62137  1  0  0  0
 62138  1  0  0  0
 63 65  1  0  0  0
 63139  1  0  0  0
 63140  1  0  0  0
 63141  1  0  0  0
 64142  1  0  0  0
 65143  1  0  0  0
 68 79  1  0  0  0
 71 72  2  0  0  0
 71 74  1  0  0  0
 71144  1  0  0  0
 72 76  1  0  0  0
 72 80  1  0  0  0
 73 75  1  0  0  0
 73 76  2  0  0  0
 73 81  1  0  0  0
 74 75  2  0  0  0
 74 82  1  0  0  0
 75 83  1  0  0  0
 76 84  1  0  0  0
 77 78  1  0  0  0
 77 79  1  0  0  0
 77 80  2  0  0  0
 78145  1  0  0  0
 78146  1  0  0  0
 78147  1  0  0  0
 79148  1  0  0  0
 79149  1  0  0  0
 81150  1  0  0  0
M  ISO  4   1 100  68 101  79 101  81 100
M  END
> <chiral flag>
0

> <version>
0

> <s_m_source_file>
/data/baiqing/PycharmProjects/Reinvent-master-3.2/result/LINK_invent/BTK/process_docking_weight1_custom_sum_contain_oxygen_bond_distance_aromatic_linkinvent_7_9_3/rearranged_h_0013.sdf

> <i_m_source_file_index>
22

> <r_mmod_Potential_Energy-OPLS-2005>
722.251037597656

> <r_mmod_Stretch_Energy-OPLS-2005>
372.751922607422

> <r_mmod_Bend_Energy-OPLS-2005>
292.592681884766

> <r_mmod_Torsional_Energy-OPLS-2005>
219.294723510742

> <r_mmod_Improper_Torsional_Energy-OPLS-2005>
7.26665067672729

> <r_mmod_Van_der_Waal_Energy-OPLS-2005>
134.528778076172

> <r_mmod_Electrostatic_Energy-OPLS-2005>
-380.357391357422

> <r_mmod_Solvation_Energy-OPLS-2005>
-207.882217407227

> <b_mmod_Minimization_Converged-OPLS-2005>
0

> <r_mmod_RMS_Derivative-OPLS-2005>
6.98146152496338

$$$$
22
                    3D
 Structure written by MMmdl.
158166  0  0  1  0            999 V2000
  -30.6234  -14.6161   20.5192 C   0  0  0  0  0  0
  -30.4427  -12.3834   19.4438 C   0  0  0  0  0  0
  -29.5065  -12.5078   18.2203 C   0  0  0  0  0  0
  -28.0287  -12.3505   18.6324 C   0  0  0  0  0  0
  -27.6572  -13.2121   19.8680 C   0  0  2  0  0  0
  -28.7024  -13.0406   20.9939 C   0  0  0  0  0  0
  -25.2574  -13.8160   20.5655 C   0  0  0  0  0  0
  -24.1843  -13.0438   20.9198 C   0  0  0  0  0  0
  -24.6405  -11.6905   20.8751 C   0  0  0  0  0  0
  -23.9068  -10.4293   21.0417 C   0  0  0  0  0  0
  -24.3620   -9.4204   21.9190 C   0  0  0  0  0  0
  -23.6295   -8.2237   22.0753 C   0  0  0  0  0  0
  -22.4275   -8.0281   21.3545 C   0  0  0  0  0  0
  -21.9915   -9.0254   20.4645 C   0  0  0  0  0  0
  -22.7244  -10.2134   20.3060 C   0  0  0  0  0  0
  -21.6852   -6.0737   22.5281 C   0  0  0  0  0  0
  -21.4012   -6.5640   23.8214 C   0  0  0  0  0  0
  -21.3657   -5.6791   24.9174 C   0  0  0  0  0  0
  -21.6045   -4.3056   24.7225 C   0  0  0  0  0  0
  -21.8820   -3.8149   23.4348 C   0  0  0  0  0  0
  -21.9192   -4.6964   22.3405 C   0  0  0  0  0  0
  -22.7868  -13.5238   21.1857 C   0  0  0  0  0  0
  -22.1663   -4.2150   21.0983 F   0  0  0  0  0  0
  -21.5626   -3.4540   25.7739 F   0  0  0  0  0  0
  -30.0208  -13.3889   20.4379 N   0  0  0  0  0  0
  -26.3010  -12.9334   20.3334 N   0  0  0  0  0  0
  -25.9334  -11.6495   20.5779 N   0  0  0  0  0  0
  -22.0503  -12.8223   22.0404 N   0  0  0  0  0  0
  -25.4278  -15.1868   20.3975 N   0  0  0  0  0  0
  -31.7720  -14.8000   20.1056 O   0  0  0  0  0  0
  -21.6638   -6.8879   21.4244 O   0  0  0  0  0  0
  -22.3551  -14.5540   20.6701 O   0  0  0  0  0  0
  -24.6252  -31.8613   23.2030 C   0  0  0  0  0  0
  -25.9103  -32.4783   23.8354 C   0  0  1  0  0  0
  -27.2229  -27.3346   20.1052 C   0  0  0  0  0  0
  -25.5932  -33.8583   24.2285 N   0  0  0  0  0  0
  -23.4166  -30.4870   21.5466 C   0  0  2  0  0  0
  -24.8610  -28.9465   20.1110 C   0  0  0  0  0  0
  -22.7466  -29.4629   22.4934 C   0  0  0  0  0  0
  -18.0289  -28.1368   22.8477 C   0  0  0  0  0  0
  -24.1495  -36.7292   23.2640 C   0  0  0  0  0  0
  -25.9580  -30.7967   21.3714 C   0  0  0  0  0  0
  -26.0315  -29.4272   20.7116 C   0  0  0  0  0  0
  -27.2153  -28.6332   20.6979 C   0  0  0  0  0  0
  -26.0254  -26.9053   19.4844 C   0  0  0  0  0  0
  -24.8595  -27.6900   19.4907 C   0  0  0  0  0  0
  -23.6288  -29.8248   20.1610 C   0  0  0  0  0  0
  -25.4114  -36.3081   24.0337 C   0  0  1  0  0  0
  -20.5886  -28.3668   23.1279 C   0  0  2  0  0  0
  -20.6774  -26.9393   22.5405 C   0  0  0  0  0  0
  -19.5756  -26.6373   21.5202 C   0  0  0  0  0  0
  -18.1935  -26.7910   22.1614 C   0  0  0  0  0  0
  -19.1542  -28.8834   23.2873 C   0  0  0  0  0  0
  -18.9469  -30.1434   23.8890 C   0  0  0  0  0  0
  -17.6472  -30.6572   24.0553 C   0  0  0  0  0  0
  -25.9053  -34.9453   23.5113 C   0  0  0  0  0  0
  -16.5360  -29.9069   23.6331 C   0  0  0  0  0  0
  -16.7280  -28.6490   23.0344 C   0  0  0  0  0  0
  -26.4489  -31.6585   25.0716 C   0  0  0  0  0  0
  -25.3730  -31.3723   26.1450 C   0  0  0  0  0  0
  -27.0324  -30.3019   24.6130 C   0  0  0  0  0  0
  -27.6050  -32.4314   25.7487 C   0  0  0  0  0  0
  -27.5580  -37.1796   24.8462 C   0  0  0  0  0  0
  -21.4178  -29.3034   22.3677 N   0  0  0  0  0  0
  -26.4285  -37.3777   23.9421 N   0  0  0  0  0  0
  -24.6855  -31.0641   22.0973 N   0  0  0  0  0  0
  -23.4207  -28.8160   23.2987 O   0  0  0  0  0  0
  -28.3463  -26.4943   20.1459 O   0  0  0  0  0  0
  -26.5610  -34.8924   22.4671 O   0  0  0  0  0  0
  -23.5420  -32.1402   23.7379 O   0  0  0  0  0  0
  -30.8454  -17.8113   20.1297 C   0  0  0  0  0  0
  -28.8439  -17.8816   21.4708 C   0  0  0  0  0  0
  -29.8598  -17.0918   20.8491 C   0  0  0  0  0  0
  -29.8487  -20.0430   20.6858 C   0  0  0  0  0  0
  -30.8390  -19.2325   20.0499 C   0  0  0  0  0  0
  -28.8390  -19.3166   21.3953 C   0  0  0  0  0  0
  -27.7343  -17.2036   22.2743 C   0  0  0  0  0  0
  -31.2228  -21.9398   21.3042 C   0  0  0  0  0  0
  -29.2866  -24.0207   20.3397 C   0  0  0  0  0  0
  -28.8784  -22.4912   20.5516 C   0  0  0  0  0  0
  -28.1046  -25.0381   20.0716 C   0  0  0  0  0  0
  -29.8171  -15.6304   20.9579 N   0  0  0  0  0  0
  -29.9879  -21.4878   20.6620 N   0  0  0  0  0  0
  -31.8343  -19.8298   19.3469 F   0  0  0  0  0  0
  -27.5982  -20.1623   22.2640 Cl  0  0  0  0  0  0
  -31.4815  -12.5176   19.1378 H   0  0  0  0  0  0
  -30.3858  -11.3821   19.8735 H   0  0  0  0  0  0
  -29.7651  -11.7575   17.4716 H   0  0  0  0  0  0
  -29.6528  -13.4780   17.7425 H   0  0  0  0  0  0
  -27.8594  -11.2967   18.8551 H   0  0  0  0  0  0
  -27.3753  -12.5921   17.7931 H   0  0  0  0  0  0
  -27.6831  -14.2520   19.5411 H   0  0  0  0  0  0
  -28.7116  -12.0098   21.3516 H   0  0  0  0  0  0
  -28.4484  -13.6480   21.8632 H   0  0  0  0  0  0
  -25.2765   -9.5673   22.4765 H   0  0  0  0  0  0
  -24.0002   -7.4625   22.7470 H   0  0  0  0  0  0
  -21.0846   -8.8778   19.8950 H   0  0  0  0  0  0
  -22.3711  -10.9674   19.6168 H   0  0  0  0  0  0
  -21.2003   -7.6147   23.9718 H   0  0  0  0  0  0
  -21.1477   -6.0521   25.9076 H   0  0  0  0  0  0
  -22.0602   -2.7611   23.2850 H   0  0  0  0  0  0
  -22.4117  -11.9882   22.4793 H   0  0  0  0  0  0
  -21.1125  -13.1250   22.2611 H   0  0  0  0  0  0
  -24.6484  -15.8317   20.4671 H   0  0  0  0  0  0
  -26.2549  -15.6097   19.9972 H   0  0  0  0  0  0
  -26.7166  -32.5450   23.1096 H   0  0  0  0  0  0
  -25.0114  -33.9733   25.0452 H   0  0  0  0  0  0
  -22.7095  -31.3069   21.4047 H   0  0  0  0  0  0
  -23.3761  -35.9618   23.3295 H   0  0  0  0  0  0
  -24.3595  -36.8908   22.2053 H   0  0  0  0  0  0
  -23.7247  -37.6496   23.6658 H   0  0  0  0  0  0
  -26.0883  -31.5608   20.6043 H   0  0  0  0  0  0
  -26.8397  -30.8422   21.9992 H   0  0  0  0  0  0
  -28.1127  -28.9977   21.1772 H   0  0  0  0  0  0
  -25.9539  -25.9486   18.9906 H   0  0  0  0  0  0
  -23.9628  -27.3146   19.0171 H   0  0  0  0  0  0
  -23.7449  -30.6020   19.4047 H   0  0  0  0  0  0
  -22.7495  -29.2521   19.8598 H   0  0  0  0  0  0
  -25.1288  -36.1934   25.0828 H   0  0  0  0  0  0
  -20.9980  -28.3233   24.1396 H   0  0  0  0  0  0
  -20.5657  -26.2277   23.3599 H   0  0  0  0  0  0
  -21.6644  -26.7406   22.1209 H   0  0  0  0  0  0
  -19.6923  -25.6287   21.1227 H   0  0  0  0  0  0
  -19.6704  -27.3179   20.6727 H   0  0  0  0  0  0
  -17.4206  -26.6661   21.4015 H   0  0  0  0  0  0
  -18.0332  -26.0039   22.8997 H   0  0  0  0  0  0
  -19.7952  -30.7247   24.2251 H   0  0  0  0  0  0
  -17.5036  -31.6253   24.5150 H   0  0  0  0  0  0
  -15.5364  -30.2973   23.7655 H   0  0  0  0  0  0
  -15.8678  -28.0814   22.7056 H   0  0  0  0  0  0
  -24.5910  -30.7058   25.7788 H   0  0  0  0  0  0
  -24.8918  -32.2890   26.4864 H   0  0  0  0  0  0
  -25.8063  -30.8917   27.0230 H   0  0  0  0  0  0
  -26.2880  -29.6781   24.1164 H   0  0  0  0  0  0
  -27.4057  -29.7253   25.4600 H   0  0  0  0  0  0
  -27.8734  -30.4328   23.9319 H   0  0  0  0  0  0
  -27.2663  -33.3619   26.2055 H   0  0  0  0  0  0
  -28.3865  -32.6861   25.0317 H   0  0  0  0  0  0
  -28.0706  -31.8443   26.5414 H   0  0  0  0  0  0
  -28.2576  -38.0111   24.7525 H   0  0  0  0  0  0
  -28.1099  -36.2644   24.6261 H   0  0  0  0  0  0
  -27.2310  -37.1403   25.8867 H   0  0  0  0  0  0
  -20.9338  -29.8793   21.6934 H   0  0  0  0  0  0
  -26.0172  -38.2850   24.1433 H   0  0  0  0  0  0
  -31.6393  -17.2843   19.6232 H   0  0  0  0  0  0
  -27.7213  -16.1181   22.2043 H   0  0  0  0  0  0
  -26.7560  -17.5453   21.9343 H   0  0  0  0  0  0
  -27.8343  -17.4594   23.3299 H   0  0  0  0  0  0
  -31.8508  -21.1180   21.6530 H   0  0  0  0  0  0
  -31.0043  -22.5651   22.1718 H   0  0  0  0  0  0
  -31.8164  -22.5294   20.6044 H   0  0  0  0  0  0
  -29.9980  -24.0966   19.5172 H   0  0  0  0  0  0
  -29.8175  -24.3628   21.2274 H   0  0  0  0  0  0
  -28.2228  -22.1797   19.7362 H   0  0  0  0  0  0
  -28.2726  -22.4632   21.4547 H   0  0  0  0  0  0
  -27.3035  -24.7993   20.7736 H   0  0  0  0  0  0
  -27.7308  -24.7978   19.0763 H   0  0  0  0  0  0
  -28.9570  -15.2746   21.3444 H   0  0  0  0  0  0
  1 25  1  0  0  0
  1 30  2  0  0  0
  1 82  1  0  0  0
  2  3  1  0  0  0
  2 25  1  0  0  0
  2 86  1  0  0  0
  2 87  1  0  0  0
  3  4  1  0  0  0
  3 88  1  0  0  0
  3 89  1  0  0  0
  4  5  1  0  0  0
  4 90  1  0  0  0
  4 91  1  0  0  0
  5  6  1  0  0  0
  5 26  1  0  0  0
  5 92  1  0  0  0
  6 25  1  0  0  0
  6 93  1  0  0  0
  6 94  1  0  0  0
  7  8  2  0  0  0
  7 26  1  0  0  0
  7 29  1  0  0  0
  8  9  1  0  0  0
  8 22  1  0  0  0
  9 10  1  0  0  0
  9 27  2  0  0  0
 10 11  2  0  0  0
 10 15  1  0  0  0
 11 12  1  0  0  0
 11 95  1  0  0  0
 12 13  2  0  0  0
 12 96  1  0  0  0
 13 14  1  0  0  0
 13 31  1  0  0  0
 14 15  2  0  0  0
 14 97  1  0  0  0
 15 98  1  0  0  0
 16 17  2  0  0  0
 16 21  1  0  0  0
 16 31  1  0  0  0
 17 18  1  0  0  0
 17 99  1  0  0  0
 18 19  2  0  0  0
 18100  1  0  0  0
 19 20  1  0  0  0
 19 24  1  0  0  0
 20 21  2  0  0  0
 20101  1  0  0  0
 21 23  1  0  0  0
 22 28  1  0  0  0
 22 32  2  0  0  0
 26 27  1  0  0  0
 28102  1  0  0  0
 28103  1  0  0  0
 29104  1  0  0  0
 29105  1  0  0  0
 33 34  1  0  0  0
 33 66  1  0  0  0
 33 70  2  0  0  0
 34 36  1  0  0  0
 34 59  1  0  0  0
 34106  1  0  0  0
 35 44  2  0  0  0
 35 45  1  0  0  0
 35 68  1  0  0  0
 36 56  1  0  0  0
 36107  1  0  0  0
 37 39  1  0  0  0
 37 47  1  0  0  0
 37 66  1  0  0  0
 37108  1  0  0  0
 38 43  2  0  0  0
 38 46  1  0  0  0
 38 47  1  0  0  0
 39 64  1  0  0  0
 39 67  2  0  0  0
 40 52  1  0  0  0
 40 53  2  0  0  0
 40 58  1  0  0  0
 41109  1  0  0  0
 41110  1  0  0  0
 41111  1  0  0  0
 41 48  1  0  0  0
 42 43  1  0  0  0
 42 66  1  0  0  0
 42112  1  0  0  0
 42113  1  0  0  0
 43 44  1  0  0  0
 44114  1  0  0  0
 45 46  2  0  0  0
 45115  1  0  0  0
 46116  1  0  0  0
 47117  1  0  0  0
 47118  1  0  0  0
 48 56  1  0  0  0
 48 65  1  0  0  0
 48119  1  0  0  0
 49 50  1  0  0  0
 49 53  1  0  0  0
 49 64  1  0  0  0
 49120  1  0  0  0
 50 51  1  0  0  0
 50121  1  0  0  0
 50122  1  0  0  0
 51 52  1  0  0  0
 51123  1  0  0  0
 51124  1  0  0  0
 52125  1  0  0  0
 52126  1  0  0  0
 53 54  1  0  0  0
 54 55  2  0  0  0
 54127  1  0  0  0
 55 57  1  0  0  0
 55128  1  0  0  0
 56 69  2  0  0  0
 57 58  2  0  0  0
 57129  1  0  0  0
 58130  1  0  0  0
 59 60  1  0  0  0
 59 61  1  0  0  0
 59 62  1  0  0  0
 60131  1  0  0  0
 60132  1  0  0  0
 60133  1  0  0  0
 61134  1  0  0  0
 61135  1  0  0  0
 61136  1  0  0  0
 62137  1  0  0  0
 62138  1  0  0  0
 62139  1  0  0  0
 63 65  1  0  0  0
 63140  1  0  0  0
 63141  1  0  0  0
 63142  1  0  0  0
 64143  1  0  0  0
 65144  1  0  0  0
 68 81  1  0  0  0
 71 73  2  0  0  0
 71 75  1  0  0  0
 71145  1  0  0  0
 72 73  1  0  0  0
 72 76  2  0  0  0
 72 77  1  0  0  0
 73 82  1  0  0  0
 74 75  2  0  0  0
 74 76  1  0  0  0
 74 83  1  0  0  0
 75 84  1  0  0  0
 76 85  1  0  0  0
 77146  1  0  0  0
 77147  1  0  0  0
 77148  1  0  0  0
 78 83  1  0  0  0
 78149  1  0  0  0
 78150  1  0  0  0
 78151  1  0  0  0
 79 80  1  0  0  0
 79 81  1  0  0  0
 79152  1  0  0  0
 79153  1  0  0  0
 80 83  1  0  0  0
 80154  1  0  0  0
 80155  1  0  0  0
 81156  1  0  0  0
 81157  1  0  0  0
 82158  1  0  0  0
M  ISO  4   1 100  68 101  81 101  82 100
M  END
> <chiral flag>
0

> <version>
0

> <s_m_source_file>
/data/baiqing/PycharmProjects/Reinvent-master-3.2/result/LINK_invent/BTK/process_docking_weight1_custom_sum_contain_oxygen_bond_distance_aromatic_linkinvent_7_9_3/rearranged_h_0013.sdf

> <i_m_source_file_index>
23

> <r_mmod_Potential_Energy-OPLS-2005>
158.370635986328

> <r_mmod_Stretch_Energy-OPLS-2005>
80.9634399414062

> <r_mmod_Bend_Energy-OPLS-2005>
147.234558105469

> <r_mmod_Torsional_Energy-OPLS-2005>
225.152801513672

> <r_mmod_Improper_Torsional_Energy-OPLS-2005>
5.61010313034058

> <r_mmod_Van_der_Waal_Energy-OPLS-2005>
161.362182617188

> <r_mmod_Electrostatic_Energy-OPLS-2005>
-289.194885253906

> <r_mmod_Solvation_Energy-OPLS-2005>
-213.913345336914

> <b_mmod_Minimization_Converged-OPLS-2005>
0

> <r_mmod_RMS_Derivative-OPLS-2005>
1.17153882980347

$$$$
23
                    3D
 Structure written by MMmdl.
154162  0  0  1  0            999 V2000
  -30.7298  -14.4663   20.5366 C   0  0  0  0  0  0
  -30.4097  -12.2921   19.4384 C   0  0  0  0  0  0
  -29.4935  -12.4884   18.2131 C   0  0  0  0  0  0
  -28.0134  -12.3541   18.6184 C   0  0  0  0  0  0
  -27.6539  -13.2102   19.8631 C   0  0  2  0  0  0
  -28.6947  -13.0288   20.9914 C   0  0  0  0  0  0
  -25.2564  -13.8170   20.5669 C   0  0  0  0  0  0
  -24.1817  -13.0449   20.9184 C   0  0  0  0  0  0
  -24.6372  -11.6914   20.8734 C   0  0  0  0  0  0
  -23.9039  -10.4299   21.0413 C   0  0  0  0  0  0
  -24.3599   -9.4215   21.9180 C   0  0  0  0  0  0
  -23.6291   -8.2241   22.0739 C   0  0  0  0  0  0
  -22.4276   -8.0270   21.3533 C   0  0  0  0  0  0
  -21.9903   -9.0246   20.4641 C   0  0  0  0  0  0
  -22.7219  -10.2134   20.3059 C   0  0  0  0  0  0
  -21.6852   -6.0727   22.5277 C   0  0  0  0  0  0
  -21.4012   -6.5634   23.8217 C   0  0  0  0  0  0
  -21.3661   -5.6788   24.9176 C   0  0  0  0  0  0
  -21.6055   -4.3048   24.7219 C   0  0  0  0  0  0
  -21.8820   -3.8138   23.4344 C   0  0  0  0  0  0
  -21.9193   -4.6958   22.3400 C   0  0  0  0  0  0
  -22.7845  -13.5250   21.1860 C   0  0  0  0  0  0
  -22.1662   -4.2145   21.0976 F   0  0  0  0  0  0
  -21.5636   -3.4533   25.7734 F   0  0  0  0  0  0
  -30.0272  -13.3046   20.4361 N   0  0  0  0  0  0
  -26.2983  -12.9337   20.3308 N   0  0  0  0  0  0
  -25.9298  -11.6496   20.5732 N   0  0  0  0  0  0
  -22.0486  -12.8250   22.0420 N   0  0  0  0  0  0
  -25.4286  -15.1887   20.4074 N   0  0  0  0  0  0
  -31.8965  -14.5431   20.1416 O   0  0  0  0  0  0
  -21.6636   -6.8873   21.4243 O   0  0  0  0  0  0
  -22.3529  -14.5558   20.6708 O   0  0  0  0  0  0
  -24.6132  -31.8685   23.2109 C   0  0  0  0  0  0
  -25.9037  -32.4823   23.8392 C   0  0  1  0  0  0
  -27.2321  -27.4425   20.0914 C   0  0  0  0  0  0
  -25.5902  -33.8623   24.2328 N   0  0  0  0  0  0
  -23.3992  -30.4935   21.5519 C   0  0  2  0  0  0
  -24.8441  -28.9630   20.1129 C   0  0  0  0  0  0
  -22.7393  -29.4668   22.4997 C   0  0  0  0  0  0
  -18.0261  -28.1371   22.8487 C   0  0  0  0  0  0
  -24.1487  -36.7328   23.2635 C   0  0  0  0  0  0
  -25.9264  -30.8380   21.3606 C   0  0  0  0  0  0
  -26.0041  -29.4736   20.7079 C   0  0  0  0  0  0
  -27.1997  -28.7213   20.6934 C   0  0  0  0  0  0
  -26.0519  -26.9490   19.4853 C   0  0  0  0  0  0
  -24.8627  -27.7000   19.4990 C   0  0  0  0  0  0
  -23.6049  -29.8271   20.1660 C   0  0  0  0  0  0
  -25.4103  -36.3111   24.0335 C   0  0  1  0  0  0
  -20.5848  -28.3660   23.1325 C   0  0  2  0  0  0
  -20.6754  -26.9398   22.5425 C   0  0  0  0  0  0
  -19.5743  -26.6379   21.5212 C   0  0  0  0  0  0
  -18.1916  -26.7919   22.1616 C   0  0  0  0  0  0
  -19.1509  -28.8831   23.2902 C   0  0  0  0  0  0
  -18.9442  -30.1434   23.8915 C   0  0  0  0  0  0
  -17.6449  -30.6583   24.0560 C   0  0  0  0  0  0
  -25.9029  -34.9478   23.5122 C   0  0  0  0  0  0
  -16.5337  -29.9086   23.6320 C   0  0  0  0  0  0
  -16.7250  -28.6501   23.0339 C   0  0  0  0  0  0
  -26.4470  -31.6597   25.0717 C   0  0  0  0  0  0
  -25.3758  -31.3715   26.1488 C   0  0  0  0  0  0
  -27.0279  -30.3033   24.6084 C   0  0  0  0  0  0
  -27.6046  -32.4315   25.7479 C   0  0  0  0  0  0
  -27.5582  -37.1808   24.8455 C   0  0  0  0  0  0
  -21.4127  -29.3034   22.3743 N   0  0  0  0  0  0
  -26.4285  -37.3800   23.9411 N   0  0  0  0  0  0
  -24.6648  -31.0799   22.1003 N   0  0  0  0  0  0
  -23.4169  -28.8208   23.3035 O   0  0  0  0  0  0
  -28.4099  -26.7223   20.1184 O   0  0  0  0  0  0
  -26.5591  -34.8934   22.4684 O   0  0  0  0  0  0
  -23.5334  -32.1429   23.7521 O   0  0  0  0  0  0
  -31.0170  -19.2342   21.5762 C   0  0  0  0  0  0
  -28.7942  -18.5532   20.8869 C   0  0  0  0  0  0
  -30.1277  -18.2069   21.1971 C   0  0  0  0  0  0
  -29.3132  -20.9441   21.1568 C   0  0  0  0  0  0
  -30.6226  -20.5871   21.5726 C   0  0  0  0  0  0
  -28.3942  -19.9071   20.8550 C   0  0  0  0  0  0
  -30.6560  -16.8347   21.0663 C   0  0  0  0  0  0
  -29.9780  -15.6780   20.8781 C   0  0  0  0  0  0
  -29.6071  -24.5943   20.3399 C   0  0  0  0  0  0
  -29.6144  -23.0805   20.0326 C   0  0  0  0  0  0
  -28.3265  -25.3117   19.8811 C   0  0  0  0  0  0
  -28.8940  -22.2865   21.0324 N   0  0  0  0  0  0
  -31.7728  -21.7716   22.0982 Cl  0  0  0  0  0  0
  -26.7699  -20.2897   20.3963 Cl  0  0  0  0  0  0
  -31.4569  -12.3575   19.1399 H   0  0  0  0  0  0
  -30.2854  -11.2921   19.8560 H   0  0  0  0  0  0
  -29.7374  -11.7590   17.4401 H   0  0  0  0  0  0
  -29.6679  -13.4714   17.7726 H   0  0  0  0  0  0
  -27.8235  -11.3003   18.8275 H   0  0  0  0  0  0
  -27.3653  -12.6196   17.7817 H   0  0  0  0  0  0
  -27.6852  -14.2502   19.5392 H   0  0  0  0  0  0
  -28.6661  -12.0081   21.3748 H   0  0  0  0  0  0
  -28.4672  -13.6675   21.8457 H   0  0  0  0  0  0
  -25.2747   -9.5703   22.4735 H   0  0  0  0  0  0
  -24.0019   -7.4635   22.7442 H   0  0  0  0  0  0
  -21.0836   -8.8763   19.8947 H   0  0  0  0  0  0
  -22.3673  -10.9669   19.6161 H   0  0  0  0  0  0
  -21.1994   -7.6141   23.9725 H   0  0  0  0  0  0
  -21.1490   -6.0503   25.9084 H   0  0  0  0  0  0
  -22.0595   -2.7596   23.2835 H   0  0  0  0  0  0
  -22.4092  -11.9924   22.4841 H   0  0  0  0  0  0
  -21.1100  -13.1267   22.2615 H   0  0  0  0  0  0
  -24.6622  -15.8445   20.5135 H   0  0  0  0  0  0
  -26.2794  -15.6241   20.0766 H   0  0  0  0  0  0
  -26.7110  -32.5539   23.1161 H   0  0  0  0  0  0
  -25.0055  -33.9780   25.0474 H   0  0  0  0  0  0
  -22.6868  -31.3095   21.4158 H   0  0  0  0  0  0
  -23.3738  -35.9671   23.3289 H   0  0  0  0  0  0
  -24.3587  -36.8954   22.2051 H   0  0  0  0  0  0
  -23.7252  -37.6539   23.6653 H   0  0  0  0  0  0
  -26.0329  -31.6035   20.5907 H   0  0  0  0  0  0
  -26.8169  -30.8934   21.9745 H   0  0  0  0  0  0
  -28.0956  -29.1128   21.1544 H   0  0  0  0  0  0
  -26.0276  -25.9875   18.9927 H   0  0  0  0  0  0
  -23.9718  -27.3019   19.0322 H   0  0  0  0  0  0
  -23.7085  -30.6020   19.4061 H   0  0  0  0  0  0
  -22.7296  -29.2447   19.8726 H   0  0  0  0  0  0
  -25.1274  -36.1971   25.0826 H   0  0  0  0  0  0
  -20.9930  -28.3225   24.1448 H   0  0  0  0  0  0
  -20.5646  -26.2268   23.3610 H   0  0  0  0  0  0
  -21.6628  -26.7443   22.1224 H   0  0  0  0  0  0
  -19.6905  -25.6289   21.1238 H   0  0  0  0  0  0
  -19.6689  -27.3192   20.6743 H   0  0  0  0  0  0
  -17.4188  -26.6660   21.4014 H   0  0  0  0  0  0
  -18.0318  -26.0055   22.9009 H   0  0  0  0  0  0
  -19.7920  -30.7236   24.2299 H   0  0  0  0  0  0
  -17.5008  -31.6265   24.5158 H   0  0  0  0  0  0
  -15.5337  -30.2996   23.7643 H   0  0  0  0  0  0
  -15.8645  -28.0834   22.7038 H   0  0  0  0  0  0
  -24.5915  -30.7067   25.7854 H   0  0  0  0  0  0
  -24.8973  -32.2879   26.4952 H   0  0  0  0  0  0
  -25.8137  -30.8887   27.0234 H   0  0  0  0  0  0
  -26.2802  -29.6814   24.1149 H   0  0  0  0  0  0
  -27.4050  -29.7253   25.4532 H   0  0  0  0  0  0
  -27.8642  -30.4334   23.9212 H   0  0  0  0  0  0
  -27.2648  -33.3589   26.2103 H   0  0  0  0  0  0
  -28.3832  -32.6924   25.0298 H   0  0  0  0  0  0
  -28.0744  -31.8420   26.5363 H   0  0  0  0  0  0
  -28.2591  -38.0115   24.7510 H   0  0  0  0  0  0
  -28.1081  -36.2645   24.6247 H   0  0  0  0  0  0
  -27.2308  -37.1426   25.8862 H   0  0  0  0  0  0
  -20.9275  -29.8771   21.6990 H   0  0  0  0  0  0
  -26.0172  -38.2875   24.1426 H   0  0  0  0  0  0
  -32.0348  -18.9927   21.8456 H   0  0  0  0  0  0
  -28.0797  -17.7932   20.6103 H   0  0  0  0  0  0
  -31.7377  -16.7921   21.0638 H   0  0  0  0  0  0
  -28.9012  -15.6741   20.9138 H   0  0  0  0  0  0
  -30.4499  -25.0524   19.8207 H   0  0  0  0  0  0
  -29.7841  -24.7647   21.4028 H   0  0  0  0  0  0
  -30.6497  -22.7540   19.9446 H   0  0  0  0  0  0
  -29.1772  -22.9009   19.0485 H   0  0  0  0  0  0
  -27.4786  -24.8771   20.4145 H   0  0  0  0  0  0
  -28.1757  -25.1362   18.8148 H   0  0  0  0  0  0
  -27.8878  -22.3196   20.8895 H   0  0  0  0  0  0
  1 25  1  0  0  0
  1 30  2  0  0  0
  1 78  1  0  0  0
  2  3  1  0  0  0
  2 25  1  0  0  0
  2 85  1  0  0  0
  2 86  1  0  0  0
  3  4  1  0  0  0
  3 87  1  0  0  0
  3 88  1  0  0  0
  4  5  1  0  0  0
  4 89  1  0  0  0
  4 90  1  0  0  0
  5  6  1  0  0  0
  5 26  1  0  0  0
  5 91  1  0  0  0
  6 25  1  0  0  0
  6 92  1  0  0  0
  6 93  1  0  0  0
  7  8  2  0  0  0
  7 26  1  0  0  0
  7 29  1  0  0  0
  8  9  1  0  0  0
  8 22  1  0  0  0
  9 10  1  0  0  0
  9 27  2  0  0  0
 10 11  2  0  0  0
 10 15  1  0  0  0
 11 12  1  0  0  0
 11 94  1  0  0  0
 12 13  2  0  0  0
 12 95  1  0  0  0
 13 14  1  0  0  0
 13 31  1  0  0  0
 14 15  2  0  0  0
 14 96  1  0  0  0
 15 97  1  0  0  0
 16 17  2  0  0  0
 16 21  1  0  0  0
 16 31  1  0  0  0
 17 18  1  0  0  0
 17 98  1  0  0  0
 18 19  2  0  0  0
 18 99  1  0  0  0
 19 20  1  0  0  0
 19 24  1  0  0  0
 20 21  2  0  0  0
 20100  1  0  0  0
 21 23  1  0  0  0
 22 28  1  0  0  0
 22 32  2  0  0  0
 26 27  1  0  0  0
 28101  1  0  0  0
 28102  1  0  0  0
 29103  1  0  0  0
 29104  1  0  0  0
 33 34  1  0  0  0
 33 66  1  0  0  0
 33 70  2  0  0  0
 34 36  1  0  0  0
 34 59  1  0  0  0
 34105  1  0  0  0
 35 44  2  0  0  0
 35 45  1  0  0  0
 35 68  1  0  0  0
 36 56  1  0  0  0
 36106  1  0  0  0
 37 39  1  0  0  0
 37 47  1  0  0  0
 37 66  1  0  0  0
 37107  1  0  0  0
 38 43  2  0  0  0
 38 46  1  0  0  0
 38 47  1  0  0  0
 39 64  1  0  0  0
 39 67  2  0  0  0
 40 52  1  0  0  0
 40 53  2  0  0  0
 40 58  1  0  0  0
 41108  1  0  0  0
 41109  1  0  0  0
 41110  1  0  0  0
 41 48  1  0  0  0
 42 43  1  0  0  0
 42 66  1  0  0  0
 42111  1  0  0  0
 42112  1  0  0  0
 43 44  1  0  0  0
 44113  1  0  0  0
 45 46  2  0  0  0
 45114  1  0  0  0
 46115  1  0  0  0
 47116  1  0  0  0
 47117  1  0  0  0
 48 56  1  0  0  0
 48 65  1  0  0  0
 48118  1  0  0  0
 49 50  1  0  0  0
 49 53  1  0  0  0
 49 64  1  0  0  0
 49119  1  0  0  0
 50 51  1  0  0  0
 50120  1  0  0  0
 50121  1  0  0  0
 51 52  1  0  0  0
 51122  1  0  0  0
 51123  1  0  0  0
 52124  1  0  0  0
 52125  1  0  0  0
 53 54  1  0  0  0
 54 55  2  0  0  0
 54126  1  0  0  0
 55 57  1  0  0  0
 55127  1  0  0  0
 56 69  2  0  0  0
 57 58  2  0  0  0
 57128  1  0  0  0
 58129  1  0  0  0
 59 60  1  0  0  0
 59 61  1  0  0  0
 59 62  1  0  0  0
 60130  1  0  0  0
 60131  1  0  0  0
 60132  1  0  0  0
 61133  1  0  0  0
 61134  1  0  0  0
 61135  1  0  0  0
 62136  1  0  0  0
 62137  1  0  0  0
 62138  1  0  0  0
 63 65  1  0  0  0
 63139  1  0  0  0
 63140  1  0  0  0
 63141  1  0  0  0
 64142  1  0  0  0
 65143  1  0  0  0
 68 81  1  0  0  0
 71 73  2  0  0  0
 71 75  1  0  0  0
 71144  1  0  0  0
 72 73  1  0  0  0
 72 76  2  0  0  0
 72145  1  0  0  0
 73 77  1  0  0  0
 74 75  2  0  0  0
 74 76  1  0  0  0
 74 82  1  0  0  0
 75 83  1  0  0  0
 76 84  1  0  0  0
 77 78  2  0  0  0
 77146  1  0  0  0
 78147  1  0  0  0
 79 80  1  0  0  0
 79 81  1  0  0  0
 79148  1  0  0  0
 79149  1  0  0  0
 80 82  1  0  0  0
 80150  1  0  0  0
 80151  1  0  0  0
 81152  1  0  0  0
 81153  1  0  0  0
 82154  1  0  0  0
M  ISO  4   1 100  68 101  78 100  81 101
M  END
> <chiral flag>
0

> <version>
0

> <s_m_source_file>
/data/baiqing/PycharmProjects/Reinvent-master-3.2/result/LINK_invent/BTK/process_docking_weight1_custom_sum_contain_oxygen_bond_distance_aromatic_linkinvent_7_9_3/rearranged_h_0013.sdf

> <i_m_source_file_index>
24

> <r_mmod_Potential_Energy-OPLS-2005>
37.4530410766602

> <r_mmod_Stretch_Energy-OPLS-2005>
35.8876838684082

> <r_mmod_Bend_Energy-OPLS-2005>
98.037971496582

> <r_mmod_Torsional_Energy-OPLS-2005>
199.940673828125

> <r_mmod_Improper_Torsional_Energy-OPLS-2005>
12.1984481811523

> <r_mmod_Van_der_Waal_Energy-OPLS-2005>
163.901168823242

> <r_mmod_Electrostatic_Energy-OPLS-2005>
-285.779632568359

> <r_mmod_Solvation_Energy-OPLS-2005>
-203.885025024414

> <b_mmod_Minimization_Converged-OPLS-2005>
0

> <r_mmod_RMS_Derivative-OPLS-2005>
1.59588885307312

$$$$
24
                    3D
 Structure written by MMmdl.
154162  0  0  1  0            999 V2000
  -30.6667  -14.5301   20.5444 C   0  0  0  0  0  0
  -30.4307  -12.3281   19.4449 C   0  0  0  0  0  0
  -29.5077  -12.5061   18.2205 C   0  0  0  0  0  0
  -28.0245  -12.3698   18.6224 C   0  0  0  0  0  0
  -27.6618  -13.2047   19.8789 C   0  0  2  0  0  0
  -28.7032  -13.0069   21.0048 C   0  0  0  0  0  0
  -25.2597  -13.8154   20.5692 C   0  0  0  0  0  0
  -24.1843  -13.0427   20.9180 C   0  0  0  0  0  0
  -24.6391  -11.6893   20.8736 C   0  0  0  0  0  0
  -23.9054  -10.4287   21.0393 C   0  0  0  0  0  0
  -24.3614   -9.4209   21.9175 C   0  0  0  0  0  0
  -23.6293   -8.2245   22.0737 C   0  0  0  0  0  0
  -22.4272   -8.0284   21.3534 C   0  0  0  0  0  0
  -21.9897   -9.0255   20.4634 C   0  0  0  0  0  0
  -22.7225  -10.2127   20.3048 C   0  0  0  0  0  0
  -21.6848   -6.0743   22.5275 C   0  0  0  0  0  0
  -21.4010   -6.5642   23.8215 C   0  0  0  0  0  0
  -21.3661   -5.6791   24.9171 C   0  0  0  0  0  0
  -21.6049   -4.3056   24.7220 C   0  0  0  0  0  0
  -21.8821   -3.8152   23.4338 C   0  0  0  0  0  0
  -21.9192   -4.6971   22.3394 C   0  0  0  0  0  0
  -22.7872  -13.5233   21.1859 C   0  0  0  0  0  0
  -22.1663   -4.2157   21.0975 F   0  0  0  0  0  0
  -21.5628   -3.4540   25.7732 F   0  0  0  0  0  0
  -30.0345  -13.3236   20.4570 N   0  0  0  0  0  0
  -26.3028  -12.9314   20.3375 N   0  0  0  0  0  0
  -25.9324  -11.6473   20.5768 N   0  0  0  0  0  0
  -22.0503  -12.8228   22.0415 N   0  0  0  0  0  0
  -25.4346  -15.1879   20.4133 N   0  0  0  0  0  0
  -31.7847  -14.7333   20.0621 O   0  0  0  0  0  0
  -21.6632   -6.8885   21.4237 O   0  0  0  0  0  0
  -22.3566  -14.5545   20.6717 O   0  0  0  0  0  0
  -24.6193  -31.8655   23.2062 C   0  0  0  0  0  0
  -25.9068  -32.4800   23.8371 C   0  0  1  0  0  0
  -27.2305  -27.3832   20.1021 C   0  0  0  0  0  0
  -25.5901  -33.8600   24.2303 N   0  0  0  0  0  0
  -23.4081  -30.4924   21.5456 C   0  0  2  0  0  0
  -24.8533  -28.9533   20.1111 C   0  0  0  0  0  0
  -22.7428  -29.4680   22.4946 C   0  0  0  0  0  0
  -18.0279  -28.1395   22.8496 C   0  0  0  0  0  0
  -24.1480  -36.7319   23.2637 C   0  0  0  0  0  0
  -25.9427  -30.8168   21.3664 C   0  0  0  0  0  0
  -26.0158  -29.4471   20.7129 C   0  0  0  0  0  0
  -27.2019  -28.6698   20.7056 C   0  0  0  0  0  0
  -26.0474  -26.9302   19.4697 C   0  0  0  0  0  0
  -24.8672  -27.6970   19.4854 C   0  0  0  0  0  0
  -23.6188  -29.8267   20.1598 C   0  0  0  0  0  0
  -25.4098  -36.3102   24.0338 C   0  0  1  0  0  0
  -20.5872  -28.3691   23.1299 C   0  0  2  0  0  0
  -20.6767  -26.9420   22.5415 C   0  0  0  0  0  0
  -19.5740  -26.6393   21.5216 C   0  0  0  0  0  0
  -18.1920  -26.7935   22.1636 C   0  0  0  0  0  0
  -19.1529  -28.8859   23.2898 C   0  0  0  0  0  0
  -18.9457  -30.1465   23.8909 C   0  0  0  0  0  0
  -17.6460  -30.6595   24.0578 C   0  0  0  0  0  0
  -25.9036  -34.9468   23.5123 C   0  0  0  0  0  0
  -16.5352  -29.9105   23.6326 C   0  0  0  0  0  0
  -16.7270  -28.6527   23.0341 C   0  0  0  0  0  0
  -26.4478  -31.6583   25.0713 C   0  0  0  0  0  0
  -25.3739  -31.3715   26.1463 C   0  0  0  0  0  0
  -27.0315  -30.3008   24.6136 C   0  0  0  0  0  0
  -27.6038  -32.4318   25.7483 C   0  0  0  0  0  0
  -27.5580  -37.1805   24.8466 C   0  0  0  0  0  0
  -21.4152  -29.3052   22.3687 N   0  0  0  0  0  0
  -26.4284  -37.3788   23.9417 N   0  0  0  0  0  0
  -24.6750  -31.0738   22.0971 N   0  0  0  0  0  0
  -23.4188  -28.8226   23.3002 O   0  0  0  0  0  0
  -28.4010  -26.6306   20.1564 O   0  0  0  0  0  0
  -26.5615  -34.8934   22.4695 O   0  0  0  0  0  0
  -23.5378  -32.1428   23.7439 O   0  0  0  0  0  0
  -29.0938  -19.3873   19.4574 C   0  0  0  0  0  0
  -29.0050  -16.9509   19.3386 C   0  0  0  0  0  0
  -29.8573  -19.3252   20.6419 C   0  0  0  0  0  0
  -29.7541  -16.8384   20.5309 C   0  0  0  0  0  0
  -28.6712  -18.2118   18.8113 C   0  0  0  0  0  0
  -30.1820  -18.0354   21.1811 C   0  0  0  0  0  0
  -29.6715  -22.9429   20.4320 C   0  0  0  0  0  0
  -30.3764  -20.6446   21.2586 C   0  0  0  0  0  0
  -29.0852  -24.3074   20.9063 C   0  0  0  0  0  0
  -28.4250  -25.2116   19.8152 C   0  0  0  0  0  0
  -29.9495  -15.5298   21.1020 N   0  0  0  0  0  0
  -29.5084  -21.8511   21.2148 N   0  0  0  0  0  0
  -30.3445  -22.8947   19.4003 O   0  0  0  0  0  0
  -27.7309  -18.3126   17.3685 Cl  0  0  0  0  0  0
  -31.1007  -17.9010   22.6431 Cl  0  0  0  0  0  0
  -31.4767  -12.4294   19.1511 H   0  0  0  0  0  0
  -30.3342  -11.3209   19.8528 H   0  0  0  0  0  0
  -29.7527  -11.7692   17.4539 H   0  0  0  0  0  0
  -29.6828  -13.4855   17.7715 H   0  0  0  0  0  0
  -27.8269  -11.3143   18.8117 H   0  0  0  0  0  0
  -27.3842  -12.6538   17.7862 H   0  0  0  0  0  0
  -27.6940  -14.2486   19.5774 H   0  0  0  0  0  0
  -28.6873  -11.9752   21.3594 H   0  0  0  0  0  0
  -28.4533  -13.6163   21.8744 H   0  0  0  0  0  0
  -25.2760   -9.5701   22.4749 H   0  0  0  0  0  0
  -24.0013   -7.4630   22.7444 H   0  0  0  0  0  0
  -21.0827   -8.8773   19.8938 H   0  0  0  0  0  0
  -22.3686  -10.9670   19.6165 H   0  0  0  0  0  0
  -21.2002   -7.6148   23.9722 H   0  0  0  0  0  0
  -21.1482   -6.0513   25.9075 H   0  0  0  0  0  0
  -22.0600   -2.7615   23.2826 H   0  0  0  0  0  0
  -22.4097  -11.9887   22.4820 H   0  0  0  0  0  0
  -21.1127  -13.1262   22.2602 H   0  0  0  0  0  0
  -24.6711  -15.8454   20.5265 H   0  0  0  0  0  0
  -26.2923  -15.6269   20.1058 H   0  0  0  0  0  0
  -26.7148  -32.5503   23.1138 H   0  0  0  0  0  0
  -25.0004  -33.9737   25.0420 H   0  0  0  0  0  0
  -22.6990  -31.3107   21.4040 H   0  0  0  0  0  0
  -23.3725  -35.9666   23.3297 H   0  0  0  0  0  0
  -24.3581  -36.8939   22.2054 H   0  0  0  0  0  0
  -23.7241  -37.6529   23.6654 H   0  0  0  0  0  0
  -26.0623  -31.5814   20.5981 H   0  0  0  0  0  0
  -26.8289  -30.8681   21.9876 H   0  0  0  0  0  0
  -28.0966  -29.0476   21.1810 H   0  0  0  0  0  0
  -25.9941  -25.9914   18.9434 H   0  0  0  0  0  0
  -23.9769  -27.3164   19.0045 H   0  0  0  0  0  0
  -23.7351  -30.6020   19.4011 H   0  0  0  0  0  0
  -22.7403  -29.2528   19.8600 H   0  0  0  0  0  0
  -25.1264  -36.1960   25.0827 H   0  0  0  0  0  0
  -20.9977  -28.3260   24.1414 H   0  0  0  0  0  0
  -20.5666  -26.2301   23.3610 H   0  0  0  0  0  0
  -21.6638  -26.7459   22.1208 H   0  0  0  0  0  0
  -19.6898  -25.6304   21.1244 H   0  0  0  0  0  0
  -19.6667  -27.3207   20.6748 H   0  0  0  0  0  0
  -17.4186  -26.6686   21.4044 H   0  0  0  0  0  0
  -18.0330  -26.0080   22.9043 H   0  0  0  0  0  0
  -19.7939  -30.7280   24.2267 H   0  0  0  0  0  0
  -17.5024  -31.6269   24.5192 H   0  0  0  0  0  0
  -15.5359  -30.3024   23.7631 H   0  0  0  0  0  0
  -15.8672  -28.0865   22.7025 H   0  0  0  0  0  0
  -24.5898  -30.7069   25.7814 H   0  0  0  0  0  0
  -24.8952  -32.2890   26.4902 H   0  0  0  0  0  0
  -25.8095  -30.8895   27.0224 H   0  0  0  0  0  0
  -26.2883  -29.6752   24.1178 H   0  0  0  0  0  0
  -27.4038  -29.7259   25.4626 H   0  0  0  0  0  0
  -27.8738  -30.4283   23.9329 H   0  0  0  0  0  0
  -27.2625  -33.3600   26.2077 H   0  0  0  0  0  0
  -28.3840  -32.6906   25.0312 H   0  0  0  0  0  0
  -28.0714  -31.8437   26.5390 H   0  0  0  0  0  0
  -28.2592  -38.0108   24.7516 H   0  0  0  0  0  0
  -28.1080  -36.2640   24.6271 H   0  0  0  0  0  0
  -27.2317  -37.1445   25.8876 H   0  0  0  0  0  0
  -20.9305  -29.8775   21.6915 H   0  0  0  0  0  0
  -26.0170  -38.2868   24.1409 H   0  0  0  0  0  0
  -28.8451  -20.3459   19.0248 H   0  0  0  0  0  0
  -28.6652  -16.0711   18.8153 H   0  0  0  0  0  0
  -31.3341  -20.8670   20.7837 H   0  0  0  0  0  0
  -30.6096  -20.4868   22.3104 H   0  0  0  0  0  0
  -29.9221  -24.8546   21.3403 H   0  0  0  0  0  0
  -28.3784  -24.1507   21.7218 H   0  0  0  0  0  0
  -27.4462  -24.7764   19.6368 H   0  0  0  0  0  0
  -28.9679  -25.1221   18.8745 H   0  0  0  0  0  0
  -29.1611  -15.1917   21.6321 H   0  0  0  0  0  0
  -28.9049  -21.9695   22.0185 H   0  0  0  0  0  0
  1 25  1  0  0  0
  1 30  2  0  0  0
  1 81  1  0  0  0
  2  3  1  0  0  0
  2 25  1  0  0  0
  2 86  1  0  0  0
  2 87  1  0  0  0
  3  4  1  0  0  0
  3 88  1  0  0  0
  3 89  1  0  0  0
  4  5  1  0  0  0
  4 90  1  0  0  0
  4 91  1  0  0  0
  5  6  1  0  0  0
  5 26  1  0  0  0
  5 92  1  0  0  0
  6 25  1  0  0  0
  6 93  1  0  0  0
  6 94  1  0  0  0
  7  8  2  0  0  0
  7 26  1  0  0  0
  7 29  1  0  0  0
  8  9  1  0  0  0
  8 22  1  0  0  0
  9 10  1  0  0  0
  9 27  2  0  0  0
 10 11  2  0  0  0
 10 15  1  0  0  0
 11 12  1  0  0  0
 11 95  1  0  0  0
 12 13  2  0  0  0
 12 96  1  0  0  0
 13 14  1  0  0  0
 13 31  1  0  0  0
 14 15  2  0  0  0
 14 97  1  0  0  0
 15 98  1  0  0  0
 16 17  2  0  0  0
 16 21  1  0  0  0
 16 31  1  0  0  0
 17 18  1  0  0  0
 17 99  1  0  0  0
 18 19  2  0  0  0
 18100  1  0  0  0
 19 20  1  0  0  0
 19 24  1  0  0  0
 20 21  2  0  0  0
 20101  1  0  0  0
 21 23  1  0  0  0
 22 28  1  0  0  0
 22 32  2  0  0  0
 26 27  1  0  0  0
 28102  1  0  0  0
 28103  1  0  0  0
 29104  1  0  0  0
 29105  1  0  0  0
 33 34  1  0  0  0
 33 66  1  0  0  0
 33 70  2  0  0  0
 34 36  1  0  0  0
 34 59  1  0  0  0
 34106  1  0  0  0
 35 44  2  0  0  0
 35 45  1  0  0  0
 35 68  1  0  0  0
 36 56  1  0  0  0
 36107  1  0  0  0
 37 39  1  0  0  0
 37 47  1  0  0  0
 37 66  1  0  0  0
 37108  1  0  0  0
 38 43  2  0  0  0
 38 46  1  0  0  0
 38 47  1  0  0  0
 39 64  1  0  0  0
 39 67  2  0  0  0
 40 52  1  0  0  0
 40 53  2  0  0  0
 40 58  1  0  0  0
 41109  1  0  0  0
 41110  1  0  0  0
 41111  1  0  0  0
 41 48  1  0  0  0
 42 43  1  0  0  0
 42 66  1  0  0  0
 42112  1  0  0  0
 42113  1  0  0  0
 43 44  1  0  0  0
 44114  1  0  0  0
 45 46  2  0  0  0
 45115  1  0  0  0
 46116  1  0  0  0
 47117  1  0  0  0
 47118  1  0  0  0
 48 56  1  0  0  0
 48 65  1  0  0  0
 48119  1  0  0  0
 49 50  1  0  0  0
 49 53  1  0  0  0
 49 64  1  0  0  0
 49120  1  0  0  0
 50 51  1  0  0  0
 50121  1  0  0  0
 50122  1  0  0  0
 51 52  1  0  0  0
 51123  1  0  0  0
 51124  1  0  0  0
 52125  1  0  0  0
 52126  1  0  0  0
 53 54  1  0  0  0
 54 55  2  0  0  0
 54127  1  0  0  0
 55 57  1  0  0  0
 55128  1  0  0  0
 56 69  2  0  0  0
 57 58  2  0  0  0
 57129  1  0  0  0
 58130  1  0  0  0
 59 60  1  0  0  0
 59 61  1  0  0  0
 59 62  1  0  0  0
 60131  1  0  0  0
 60132  1  0  0  0
 60133  1  0  0  0
 61134  1  0  0  0
 61135  1  0  0  0
 61136  1  0  0  0
 62137  1  0  0  0
 62138  1  0  0  0
 62139  1  0  0  0
 63 65  1  0  0  0
 63140  1  0  0  0
 63141  1  0  0  0
 63142  1  0  0  0
 64143  1  0  0  0
 65144  1  0  0  0
 68 80  1  0  0  0
 71 73  2  0  0  0
 71 75  1  0  0  0
 71145  1  0  0  0
 72 74  1  0  0  0
 72 75  2  0  0  0
 72146  1  0  0  0
 73 76  1  0  0  0
 73 78  1  0  0  0
 74 76  2  0  0  0
 74 81  1  0  0  0
 75 84  1  0  0  0
 76 85  1  0  0  0
 77 79  1  0  0  0
 77 82  1  0  0  0
 77 83  2  0  0  0
 78 82  1  0  0  0
 78147  1  0  0  0
 78148  1  0  0  0
 79 80  1  0  0  0
 79149  1  0  0  0
 79150  1  0  0  0
 80151  1  0  0  0
 80152  1  0  0  0
 81153  1  0  0  0
 82154  1  0  0  0
M  ISO  4   1 100  68 101  80 101  81 100
M  END
> <chiral flag>
0

> <version>
0

> <s_m_source_file>
/data/baiqing/PycharmProjects/Reinvent-master-3.2/result/LINK_invent/BTK/process_docking_weight1_custom_sum_contain_oxygen_bond_distance_aromatic_linkinvent_7_9_3/rearranged_h_0013.sdf

> <i_m_source_file_index>
25

> <r_mmod_Potential_Energy-OPLS-2005>
-114.272567749023

> <r_mmod_Stretch_Energy-OPLS-2005>
51.1268081665039

> <r_mmod_Bend_Energy-OPLS-2005>
115.916084289551

> <r_mmod_Torsional_Energy-OPLS-2005>
246.487182617188

> <r_mmod_Improper_Torsional_Energy-OPLS-2005>
7.12380218505859

> <r_mmod_Van_der_Waal_Energy-OPLS-2005>
144.273696899414

> <r_mmod_Electrostatic_Energy-OPLS-2005>
-454.310302734375

> <r_mmod_Solvation_Energy-OPLS-2005>
-246.571258544922

> <b_mmod_Minimization_Converged-OPLS-2005>
0

> <r_mmod_RMS_Derivative-OPLS-2005>
1.90283811092377

$$$$
25
                    3D
 Structure written by MMmdl.
149157  0  0  1  0            999 V2000
  -30.3816  -15.3992   20.3531 C   0  0  0  0  0  0
  -30.4373  -12.9136   19.5080 C   0  0  0  0  0  0
  -29.5354  -12.5926   18.2876 C   0  0  0  0  0  0
  -28.0955  -12.2848   18.7328 C   0  0  0  0  0  0
  -27.6021  -13.2810   19.8088 C   0  0  2  0  0  0
  -28.6350  -13.5229   20.9292 C   0  0  0  0  0  0
  -25.2361  -13.8247   20.5759 C   0  0  0  0  0  0
  -24.1728  -13.0427   20.9278 C   0  0  0  0  0  0
  -24.6397  -11.6928   20.8772 C   0  0  0  0  0  0
  -23.9096  -10.4285   21.0406 C   0  0  0  0  0  0
  -24.3636   -9.4197   21.9185 C   0  0  0  0  0  0
  -23.6301   -8.2238   22.0755 C   0  0  0  0  0  0
  -22.4283   -8.0281   21.3543 C   0  0  0  0  0  0
  -21.9927   -9.0256   20.4644 C   0  0  0  0  0  0
  -22.7265  -10.2129   20.3054 C   0  0  0  0  0  0
  -21.6855   -6.0738   22.5277 C   0  0  0  0  0  0
  -21.4014   -6.5640   23.8210 C   0  0  0  0  0  0
  -21.3659   -5.6794   24.9171 C   0  0  0  0  0  0
  -21.6041   -4.3056   24.7224 C   0  0  0  0  0  0
  -21.8821   -3.8148   23.4345 C   0  0  0  0  0  0
  -21.9193   -4.6965   22.3400 C   0  0  0  0  0  0
  -22.7746  -13.5175   21.1920 C   0  0  0  0  0  0
  -22.1662   -4.2151   21.0979 F   0  0  0  0  0  0
  -21.5628   -3.4540   25.7737 F   0  0  0  0  0  0
  -29.8363  -14.0733   20.2744 N   0  0  0  0  0  0
  -26.2787  -12.9529   20.3200 N   0  0  0  0  0  0
  -25.9333  -11.6629   20.5713 N   0  0  0  0  0  0
  -22.0406  -12.8150   22.0469 N   0  0  0  0  0  0
  -25.3976  -15.1986   20.4189 N   0  0  0  0  0  0
  -31.6186  -15.3756   20.2401 O   0  0  0  0  0  0
  -21.6644   -6.8881   21.4239 O   0  0  0  0  0  0
  -22.3422  -14.5473   20.6756 O   0  0  0  0  0  0
  -24.6694  -31.8164   23.1645 C   0  0  0  0  0  0
  -25.9345  -32.4548   23.8126 C   0  0  1  0  0  0
  -27.2172  -26.8518   20.1980 C   0  0  0  0  0  0
  -25.5986  -33.8365   24.2026 N   0  0  0  0  0  0
  -23.4868  -30.4251   21.5163 C   0  0  2  0  0  0
  -24.9390  -28.7906   20.1243 C   0  0  0  0  0  0
  -22.7692  -29.4404   22.4768 C   0  0  0  0  0  0
  -18.0322  -28.1421   22.8460 C   0  0  0  0  0  0
  -24.1491  -36.7184   23.2650 C   0  0  0  0  0  0
  -26.0600  -30.5958   21.4090 C   0  0  0  0  0  0
  -26.1248  -29.1732   20.7647 C   0  0  0  0  0  0
  -27.2561  -28.2264   20.7757 C   0  0  0  0  0  0
  -26.0017  -26.6392   19.5105 C   0  0  0  0  0  0
  -24.9047  -27.5427   19.4800 C   0  0  0  0  0  0
  -23.7324  -29.7324   20.1472 C   0  0  0  0  0  0
  -25.4134  -36.2939   24.0295 C   0  0  1  0  0  0
  -20.5950  -28.3763   23.1181 C   0  0  2  0  0  0
  -20.6800  -26.9440   22.5404 C   0  0  0  0  0  0
  -19.5774  -26.6384   21.5219 C   0  0  0  0  0  0
  -18.1952  -26.7951   22.1621 C   0  0  0  0  0  0
  -19.1586  -28.8914   23.2803 C   0  0  0  0  0  0
  -18.9500  -30.1500   23.8843 C   0  0  0  0  0  0
  -17.6495  -30.6604   24.0559 C   0  0  0  0  0  0
  -25.9114  -34.9328   23.4985 C   0  0  0  0  0  0
  -16.5384  -29.9090   23.6353 C   0  0  0  0  0  0
  -16.7306  -28.6515   23.0364 C   0  0  0  0  0  0
  -26.4574  -31.6518   25.0686 C   0  0  0  0  0  0
  -25.3674  -31.3795   26.1325 C   0  0  0  0  0  0
  -27.0484  -30.2872   24.6478 C   0  0  0  0  0  0
  -27.6051  -32.4345   25.7486 C   0  0  0  0  0  0
  -27.5561  -37.1744   24.8468 C   0  0  0  0  0  0
  -21.4354  -29.3034   22.3519 N   0  0  0  0  0  0
  -26.4269  -37.3686   23.9414 N   0  0  0  0  0  0
  -24.7607  -30.9750   22.0828 N   0  0  0  0  0  0
  -23.4207  -28.7985   23.3044 O   0  0  0  0  0  0
  -28.2419  -25.7456   20.1197 O   0  0  0  0  0  0
  -26.5731  -34.8878   22.4589 O   0  0  0  0  0  0
  -23.5748  -32.1173   23.6691 O   0  0  0  0  0  0
  -30.8012  -18.6966   21.3833 C   0  0  0  0  0  0
  -30.3000  -21.1811   21.3901 C   0  0  0  0  0  0
  -29.2120  -21.1206   20.4739 C   0  0  0  0  0  0
  -29.7589  -18.3188   20.5161 C   0  0  0  0  0  0
  -31.0456  -20.0322   21.8017 C   0  0  0  0  0  0
  -28.9892  -19.6154   20.0776 C   0  0  0  0  0  0
  -30.7413  -22.5361   21.9278 C   0  0  0  0  0  0
  -28.5946  -22.7126   19.9111 C   0  0  0  0  0  0
  -29.5970  -16.6894   20.2804 N   0  0  0  0  0  0
  -28.0234  -24.1010   20.6411 N   0  0  0  0  0  0
  -32.0823  -20.2123   22.6550 F   0  0  0  0  0  0
  -27.7068  -19.3421   18.9563 Cl  0  0  0  0  0  0
  -31.4392  -13.1574   19.1525 H   0  0  0  0  0  0
  -30.5572  -12.0385   20.1483 H   0  0  0  0  0  0
  -29.9417  -11.7526   17.7225 H   0  0  0  0  0  0
  -29.5301  -13.4467   17.6082 H   0  0  0  0  0  0
  -28.0871  -11.2750   19.1438 H   0  0  0  0  0  0
  -27.4206  -12.2735   17.8765 H   0  0  0  0  0  0
  -27.4918  -14.2262   19.2759 H   0  0  0  0  0  0
  -28.8459  -12.6123   21.4912 H   0  0  0  0  0  0
  -28.2495  -14.2495   21.6464 H   0  0  0  0  0  0
  -25.2774   -9.5678   22.4770 H   0  0  0  0  0  0
  -24.0006   -7.4632   22.7480 H   0  0  0  0  0  0
  -21.0858   -8.8779   19.8952 H   0  0  0  0  0  0
  -22.3720  -10.9672   19.6169 H   0  0  0  0  0  0
  -21.2005   -7.6149   23.9713 H   0  0  0  0  0  0
  -21.1476   -6.0523   25.9074 H   0  0  0  0  0  0
  -22.0600   -2.7610   23.2844 H   0  0  0  0  0  0
  -22.4041  -11.9817   22.4857 H   0  0  0  0  0  0
  -21.1019  -13.1158   22.2681 H   0  0  0  0  0  0
  -24.6237  -15.8452   20.5275 H   0  0  0  0  0  0
  -26.2354  -15.6416   20.0674 H   0  0  0  0  0  0
  -26.7414  -32.5066   23.0830 H   0  0  0  0  0  0
  -25.0074  -33.9424   25.0138 H   0  0  0  0  0  0
  -22.8039  -31.2586   21.3381 H   0  0  0  0  0  0
  -23.3769  -35.9500   23.3280 H   0  0  0  0  0  0
  -24.3567  -36.8869   22.2071 H   0  0  0  0  0  0
  -23.7240  -37.6356   23.6736 H   0  0  0  0  0  0
  -26.2479  -31.3270   20.6220 H   0  0  0  0  0  0
  -26.9182  -30.6599   22.0655 H   0  0  0  0  0  0
  -28.1641  -28.5301   21.2775 H   0  0  0  0  0  0
  -25.8818  -25.6935   19.0009 H   0  0  0  0  0  0
  -24.0077  -27.2425   18.9554 H   0  0  0  0  0  0
  -23.8991  -30.4968   19.3875 H   0  0  0  0  0  0
  -22.8404  -29.1929   19.8242 H   0  0  0  0  0  0
  -25.1336  -36.1717   25.0786 H   0  0  0  0  0  0
  -21.0028  -28.3377   24.1311 H   0  0  0  0  0  0
  -20.5689  -26.2381   23.3647 H   0  0  0  0  0  0
  -21.6662  -26.7416   22.1207 H   0  0  0  0  0  0
  -19.6936  -25.6283   21.1277 H   0  0  0  0  0  0
  -19.6723  -27.3168   20.6730 H   0  0  0  0  0  0
  -17.4225  -26.6699   21.4020 H   0  0  0  0  0  0
  -18.0336  -26.0108   22.9032 H   0  0  0  0  0  0
  -19.7980  -30.7325   24.2188 H   0  0  0  0  0  0
  -17.5052  -31.6280   24.5166 H   0  0  0  0  0  0
  -15.5383  -30.2979   23.7713 H   0  0  0  0  0  0
  -15.8706  -28.0821   22.7112 H   0  0  0  0  0  0
  -24.5889  -30.7117   25.7620 H   0  0  0  0  0  0
  -24.8834  -32.3007   26.4577 H   0  0  0  0  0  0
  -25.7882  -30.9073   27.0211 H   0  0  0  0  0  0
  -26.3168  -29.6520   24.1474 H   0  0  0  0  0  0
  -27.3979  -29.7272   25.5162 H   0  0  0  0  0  0
  -27.9125  -30.4038   23.9935 H   0  0  0  0  0  0
  -27.2621  -33.3717   26.1877 H   0  0  0  0  0  0
  -28.3946  -32.6779   25.0366 H   0  0  0  0  0  0
  -28.0616  -31.8593   26.5550 H   0  0  0  0  0  0
  -28.2550  -38.0062   24.7512 H   0  0  0  0  0  0
  -28.1084  -36.2587   24.6298 H   0  0  0  0  0  0
  -27.2280  -37.1389   25.8870 H   0  0  0  0  0  0
  -20.9627  -29.8713   21.6627 H   0  0  0  0  0  0
  -26.0110  -38.2739   24.1435 H   0  0  0  0  0  0
  -31.4442  -17.9267   21.7822 H   0  0  0  0  0  0
  -31.2188  -23.1221   21.1425 H   0  0  0  0  0  0
  -31.4514  -22.4494   22.7492 H   0  0  0  0  0  0
  -29.8938  -23.0955   22.3184 H   0  0  0  0  0  0
  -27.8223  -22.4583   19.1844 H   0  0  0  0  0  0
  -29.4123  -23.0804   19.2895 H   0  0  0  0  0  0
  -28.6383  -16.4636   20.0613 H   0  0  0  0  0  0
  -28.2128  -24.0895   21.6388 H   0  0  0  0  0  0
  1 25  1  0  0  0
  1 30  2  0  0  0
  1 79  1  0  0  0
  2  3  1  0  0  0
  2 25  1  0  0  0
  2 83  1  0  0  0
  2 84  1  0  0  0
  3  4  1  0  0  0
  3 85  1  0  0  0
  3 86  1  0  0  0
  4  5  1  0  0  0
  4 87  1  0  0  0
  4 88  1  0  0  0
  5  6  1  0  0  0
  5 26  1  0  0  0
  5 89  1  0  0  0
  6 25  1  0  0  0
  6 90  1  0  0  0
  6 91  1  0  0  0
  7  8  2  0  0  0
  7 26  1  0  0  0
  7 29  1  0  0  0
  8  9  1  0  0  0
  8 22  1  0  0  0
  9 10  1  0  0  0
  9 27  2  0  0  0
 10 11  2  0  0  0
 10 15  1  0  0  0
 11 12  1  0  0  0
 11 92  1  0  0  0
 12 13  2  0  0  0
 12 93  1  0  0  0
 13 14  1  0  0  0
 13 31  1  0  0  0
 14 15  2  0  0  0
 14 94  1  0  0  0
 15 95  1  0  0  0
 16 17  2  0  0  0
 16 21  1  0  0  0
 16 31  1  0  0  0
 17 18  1  0  0  0
 17 96  1  0  0  0
 18 19  2  0  0  0
 18 97  1  0  0  0
 19 20  1  0  0  0
 19 24  1  0  0  0
 20 21  2  0  0  0
 20 98  1  0  0  0
 21 23  1  0  0  0
 22 28  1  0  0  0
 22 32  2  0  0  0
 26 27  1  0  0  0
 28 99  1  0  0  0
 28100  1  0  0  0
 29101  1  0  0  0
 29102  1  0  0  0
 33 34  1  0  0  0
 33 66  1  0  0  0
 33 70  2  0  0  0
 34 36  1  0  0  0
 34 59  1  0  0  0
 34103  1  0  0  0
 35 44  2  0  0  0
 35 45  1  0  0  0
 35 68  1  0  0  0
 36 56  1  0  0  0
 36104  1  0  0  0
 37 39  1  0  0  0
 37 47  1  0  0  0
 37 66  1  0  0  0
 37105  1  0  0  0
 38 43  2  0  0  0
 38 46  1  0  0  0
 38 47  1  0  0  0
 39 64  1  0  0  0
 39 67  2  0  0  0
 40 52  1  0  0  0
 40 53  2  0  0  0
 40 58  1  0  0  0
 41106  1  0  0  0
 41107  1  0  0  0
 41108  1  0  0  0
 41 48  1  0  0  0
 42 43  1  0  0  0
 42 66  1  0  0  0
 42109  1  0  0  0
 42110  1  0  0  0
 43 44  1  0  0  0
 44111  1  0  0  0
 45 46  2  0  0  0
 45112  1  0  0  0
 46113  1  0  0  0
 47114  1  0  0  0
 47115  1  0  0  0
 48 56  1  0  0  0
 48 65  1  0  0  0
 48116  1  0  0  0
 49 50  1  0  0  0
 49 53  1  0  0  0
 49 64  1  0  0  0
 49117  1  0  0  0
 50 51  1  0  0  0
 50118  1  0  0  0
 50119  1  0  0  0
 51 52  1  0  0  0
 51120  1  0  0  0
 51121  1  0  0  0
 52122  1  0  0  0
 52123  1  0  0  0
 53 54  1  0  0  0
 54 55  2  0  0  0
 54124  1  0  0  0
 55 57  1  0  0  0
 55125  1  0  0  0
 56 69  2  0  0  0
 57 58  2  0  0  0
 57126  1  0  0  0
 58127  1  0  0  0
 59 60  1  0  0  0
 59 61  1  0  0  0
 59 62  1  0  0  0
 60128  1  0  0  0
 60129  1  0  0  0
 60130  1  0  0  0
 61131  1  0  0  0
 61132  1  0  0  0
 61133  1  0  0  0
 62134  1  0  0  0
 62135  1  0  0  0
 62136  1  0  0  0
 63 65  1  0  0  0
 63137  1  0  0  0
 63138  1  0  0  0
 63139  1  0  0  0
 64140  1  0  0  0
 65141  1  0  0  0
 68 80  1  0  0  0
 71 74  2  0  0  0
 71 75  1  0  0  0
 71142  1  0  0  0
 72 73  1  0  0  0
 72 75  2  0  0  0
 72 77  1  0  0  0
 73 76  2  0  0  0
 73 78  1  0  0  0
 74 76  1  0  0  0
 74 79  1  0  0  0
 75 81  1  0  0  0
 76 82  1  0  0  0
 77143  1  0  0  0
 77144  1  0  0  0
 77145  1  0  0  0
 78 80  1  0  0  0
 78146  1  0  0  0
 78147  1  0  0  0
 79148  1  0  0  0
 80149  1  0  0  0
M  ISO  4   1 100  68 101  79 100  80 101
M  END
> <chiral flag>
0

> <version>
0

> <s_m_source_file>
/data/baiqing/PycharmProjects/Reinvent-master-3.2/result/LINK_invent/BTK/process_docking_weight1_custom_sum_contain_oxygen_bond_distance_aromatic_linkinvent_7_9_3/rearranged_h_0013.sdf

> <i_m_source_file_index>
26

> <r_mmod_Potential_Energy-OPLS-2005>
1543.95959472656

> <r_mmod_Stretch_Energy-OPLS-2005>
709.069641113281

> <r_mmod_Bend_Energy-OPLS-2005>
480.513214111328

> <r_mmod_Torsional_Energy-OPLS-2005>
230.428665161133

> <r_mmod_Improper_Torsional_Energy-OPLS-2005>
8.06698226928711

> <r_mmod_Van_der_Waal_Energy-OPLS-2005>
125.061408996582

> <r_mmod_Electrostatic_Energy-OPLS-2005>
-382.739227294922

> <r_mmod_Solvation_Energy-OPLS-2005>
-215.630432128906

> <b_mmod_Minimization_Converged-OPLS-2005>
0

> <r_mmod_RMS_Derivative-OPLS-2005>
1.27518498897552

$$$$
26
                    3D
 Structure written by MMmdl.
170177  0  0  1  0            999 V2000
  -30.7292  -14.4381   20.4674 C   0  0  0  0  0  0
  -30.4037  -12.2700   19.3970 C   0  0  0  0  0  0
  -29.4636  -12.4713   18.1880 C   0  0  0  0  0  0
  -27.9884  -12.3538   18.6115 C   0  0  0  0  0  0
  -27.6501  -13.2044   19.8642 C   0  0  2  0  0  0
  -28.7079  -13.0132   20.9767 C   0  0  0  0  0  0
  -25.2539  -13.8169   20.5715 C   0  0  0  0  0  0
  -24.1803  -13.0452   20.9230 C   0  0  0  0  0  0
  -24.6346  -11.6928   20.8779 C   0  0  0  0  0  0
  -23.9026  -10.4311   21.0425 C   0  0  0  0  0  0
  -24.3586   -9.4242   21.9200 C   0  0  0  0  0  0
  -23.6296   -8.2253   22.0749 C   0  0  0  0  0  0
  -22.4293   -8.0281   21.3527 C   0  0  0  0  0  0
  -21.9908   -9.0250   20.4623 C   0  0  0  0  0  0
  -22.7209  -10.2144   20.3050 C   0  0  0  0  0  0
  -21.6870   -6.0747   22.5273 C   0  0  0  0  0  0
  -21.4009   -6.5651   23.8204 C   0  0  0  0  0  0
  -21.3652   -5.6796   24.9159 C   0  0  0  0  0  0
  -21.6037   -4.3060   24.7200 C   0  0  0  0  0  0
  -21.8826   -3.8158   23.4320 C   0  0  0  0  0  0
  -21.9197   -4.6977   22.3386 C   0  0  0  0  0  0
  -22.7818  -13.5263   21.1859 C   0  0  0  0  0  0
  -22.1678   -4.2168   21.0961 F   0  0  0  0  0  0
  -21.5623   -3.4537   25.7710 F   0  0  0  0  0  0
  -30.0352  -13.2762   20.3987 N   0  0  0  0  0  0
  -26.2965  -12.9336   20.3383 N   0  0  0  0  0  0
  -25.9271  -11.6506   20.5827 N   0  0  0  0  0  0
  -22.0414  -12.8253   22.0367 N   0  0  0  0  0  0
  -25.4201  -15.1896   20.4110 N   0  0  0  0  0  0
  -31.9280  -14.5312   20.2045 O   0  0  0  0  0  0
  -21.6649   -6.8890   21.4239 O   0  0  0  0  0  0
  -22.3533  -14.5574   20.6710 O   0  0  0  0  0  0
  -24.6109  -31.8692   23.2115 C   0  0  0  0  0  0
  -25.9021  -32.4825   23.8404 C   0  0  1  0  0  0
  -27.2439  -27.4675   20.0886 C   0  0  0  0  0  0
  -25.5889  -33.8619   24.2352 N   0  0  0  0  0  0
  -23.3964  -30.4919   21.5517 C   0  0  2  0  0  0
  -24.8447  -28.9597   20.1164 C   0  0  0  0  0  0
  -22.7373  -29.4667   22.5010 C   0  0  0  0  0  0
  -18.0240  -28.1350   22.8500 C   0  0  0  0  0  0
  -24.1482  -36.7302   23.2649 C   0  0  0  0  0  0
  -25.9188  -30.8467   21.3560 C   0  0  0  0  0  0
  -25.9995  -29.4792   20.7126 C   0  0  0  0  0  0
  -27.1984  -28.7371   20.7006 C   0  0  0  0  0  0
  -26.0716  -26.9611   19.4773 C   0  0  0  0  0  0
  -24.8727  -27.6995   19.4976 C   0  0  0  0  0  0
  -23.6050  -29.8216   20.1665 C   0  0  0  0  0  0
  -25.4100  -36.3113   24.0355 C   0  0  1  0  0  0
  -20.5834  -28.3630   23.1331 C   0  0  2  0  0  0
  -20.6723  -26.9374   22.5408 C   0  0  0  0  0  0
  -19.5717  -26.6386   21.5186 C   0  0  0  0  0  0
  -18.1898  -26.7901   22.1608 C   0  0  0  0  0  0
  -19.1491  -28.8805   23.2913 C   0  0  0  0  0  0
  -18.9424  -30.1410   23.8923 C   0  0  0  0  0  0
  -17.6437  -30.6578   24.0550 C   0  0  0  0  0  0
  -25.9041  -34.9479   23.5163 C   0  0  0  0  0  0
  -16.5319  -29.9091   23.6314 C   0  0  0  0  0  0
  -16.7236  -28.6490   23.0369 C   0  0  0  0  0  0
  -26.4492  -31.6549   25.0673 C   0  0  0  0  0  0
  -25.3801  -31.3508   26.1422 C   0  0  0  0  0  0
  -27.0338  -30.3033   24.5951 C   0  0  0  0  0  0
  -27.6087  -32.4217   25.7457 C   0  0  0  0  0  0
  -27.5568  -37.1817   24.8478 C   0  0  0  0  0  0
  -21.4103  -29.3011   22.3748 N   0  0  0  0  0  0
  -26.4272  -37.3802   23.9437 N   0  0  0  0  0  0
  -24.6612  -31.0836   22.1006 N   0  0  0  0  0  0
  -23.4165  -28.8217   23.3035 O   0  0  0  0  0  0
  -28.4418  -26.7879   20.1085 O   0  0  0  0  0  0
  -26.5602  -34.8930   22.4726 O   0  0  0  0  0  0
  -23.5312  -32.1440   23.7537 O   0  0  0  0  0  0
  -31.1620  -16.2507   17.6634 C   0  0  0  0  0  0
  -28.7457  -16.7516   18.0663 C   0  0  0  0  0  0
  -30.4643  -18.5775   18.1062 C   0  0  0  0  0  0
  -30.5249  -22.4799   21.3498 C   0  0  0  0  0  0
  -30.6729  -20.9876   21.0034 C   0  0  0  0  0  0
  -29.7471  -23.2466   20.2696 C   0  0  0  0  0  0
  -30.3710  -20.0505   22.1900 C   0  0  0  0  0  0
  -29.6385  -24.7522   20.5503 C   0  0  0  0  0  0
  -30.6975  -18.5730   21.8895 C   0  0  0  0  0  0
  -28.4353  -25.3904   19.8444 C   0  0  0  0  0  0
  -30.4034  -16.8781   20.0458 C   0  0  2  0  0  0
  -30.1837  -17.1067   18.5005 C   0  0  0  0  0  0
  -29.9642  -15.5397   20.4848 N   0  0  0  0  0  0
  -29.8506  -18.0319   20.7984 N   0  3  0  0  0  0
  -31.4474  -12.3505   19.0870 H   0  0  0  0  0  0
  -30.2900  -11.2671   19.8113 H   0  0  0  0  0  0
  -29.6855  -11.7367   17.4128 H   0  0  0  0  0  0
  -29.6204  -13.4486   17.7341 H   0  0  0  0  0  0
  -27.7853  -11.3023   18.8141 H   0  0  0  0  0  0
  -27.3337  -12.6333   17.7847 H   0  0  0  0  0  0
  -27.6734  -14.2444   19.5494 H   0  0  0  0  0  0
  -28.6705  -11.9894   21.3541 H   0  0  0  0  0  0
  -28.5068  -13.6605   21.8309 H   0  0  0  0  0  0
  -25.2705   -9.5755   22.4805 H   0  0  0  0  0  0
  -24.0013   -7.4655   22.7483 H   0  0  0  0  0  0
  -21.0833   -8.8754   19.8926 H   0  0  0  0  0  0
  -22.3657  -10.9683   19.6165 H   0  0  0  0  0  0
  -21.2007   -7.6160   23.9709 H   0  0  0  0  0  0
  -21.1464   -6.0519   25.9064 H   0  0  0  0  0  0
  -22.0608   -2.7627   23.2792 H   0  0  0  0  0  0
  -22.4021  -11.9906   22.4737 H   0  0  0  0  0  0
  -21.1000  -13.1252   22.2499 H   0  0  0  0  0  0
  -24.6469  -15.8363   20.5315 H   0  0  0  0  0  0
  -26.2451  -15.6287   20.0265 H   0  0  0  0  0  0
  -26.7080  -32.5573   23.1172 H   0  0  0  0  0  0
  -25.0061  -33.9781   25.0515 H   0  0  0  0  0  0
  -22.6831  -31.3071   21.4112 H   0  0  0  0  0  0
  -23.3742  -35.9630   23.3303 H   0  0  0  0  0  0
  -24.3594  -36.8920   22.2064 H   0  0  0  0  0  0
  -23.7220  -37.6505   23.6657 H   0  0  0  0  0  0
  -26.0140  -31.6058   20.5776 H   0  0  0  0  0  0
  -26.8149  -30.9168   21.9606 H   0  0  0  0  0  0
  -28.0914  -29.1346   21.1657 H   0  0  0  0  0  0
  -26.0665  -26.0073   18.9702 H   0  0  0  0  0  0
  -23.9861  -27.3027   19.0219 H   0  0  0  0  0  0
  -23.7132  -30.5922   19.4019 H   0  0  0  0  0  0
  -22.7313  -29.2360   19.8723 H   0  0  0  0  0  0
  -25.1278  -36.1986   25.0839 H   0  0  0  0  0  0
  -20.9919  -28.3168   24.1458 H   0  0  0  0  0  0
  -20.5588  -26.2236   23.3586 H   0  0  0  0  0  0
  -21.6605  -26.7418   22.1228 H   0  0  0  0  0  0
  -19.6888  -25.6314   21.1191 H   0  0  0  0  0  0
  -19.6657  -27.3212   20.6728 H   0  0  0  0  0  0
  -17.4169  -26.6634   21.4006 H   0  0  0  0  0  0
  -18.0319  -26.0022   22.8984 H   0  0  0  0  0  0
  -19.7910  -30.7180   24.2334 H   0  0  0  0  0  0
  -17.5016  -31.6276   24.5130 H   0  0  0  0  0  0
  -15.5335  -30.3012   23.7640 H   0  0  0  0  0  0
  -15.8617  -28.0818   22.7112 H   0  0  0  0  0  0
  -24.6077  -30.6754   25.7720 H   0  0  0  0  0  0
  -24.8866  -32.2565   26.4941 H   0  0  0  0  0  0
  -25.8243  -30.8656   27.0128 H   0  0  0  0  0  0
  -26.2832  -29.6733   24.1158 H   0  0  0  0  0  0
  -27.4342  -29.7311   25.4331 H   0  0  0  0  0  0
  -27.8555  -30.4406   23.8919 H   0  0  0  0  0  0
  -27.2773  -33.3530   26.2063 H   0  0  0  0  0  0
  -28.3924  -32.6722   25.0291 H   0  0  0  0  0  0
  -28.0719  -31.8280   26.5353 H   0  0  0  0  0  0
  -28.2585  -38.0118   24.7563 H   0  0  0  0  0  0
  -28.1072  -36.2658   24.6277 H   0  0  0  0  0  0
  -27.2298  -37.1438   25.8881 H   0  0  0  0  0  0
  -20.9250  -29.8739   21.6979 H   0  0  0  0  0  0
  -26.0159  -38.2882   24.1426 H   0  0  0  0  0  0
  -32.2010  -16.4627   17.9213 H   0  0  0  0  0  0
  -31.0604  -16.4492   16.5970 H   0  0  0  0  0  0
  -31.0071  -15.1821   17.7869 H   0  0  0  0  0  0
  -28.5710  -17.0280   17.0254 H   0  0  0  0  0  0
  -27.9916  -17.2619   18.6658 H   0  0  0  0  0  0
  -28.5551  -15.6830   18.1299 H   0  0  0  0  0  0
  -30.4792  -18.6971   17.0214 H   0  0  0  0  0  0
  -31.4332  -18.9239   18.4726 H   0  0  0  0  0  0
  -29.6973  -19.2627   18.4660 H   0  0  0  0  0  0
  -31.5134  -22.9247   21.4884 H   0  0  0  0  0  0
  -30.0113  -22.5963   22.3064 H   0  0  0  0  0  0
  -31.6808  -20.8129   20.6232 H   0  0  0  0  0  0
  -30.0024  -20.7435   20.1807 H   0  0  0  0  0  0
  -28.7448  -22.8187   20.2036 H   0  0  0  0  0  0
  -30.2090  -23.0941   19.2922 H   0  0  0  0  0  0
  -29.3281  -20.1554   22.4931 H   0  0  0  0  0  0
  -30.9647  -20.3643   23.0497 H   0  0  0  0  0  0
  -30.5624  -25.2457   20.2441 H   0  0  0  0  0  0
  -29.5384  -24.9267   21.6230 H   0  0  0  0  0  0
  -30.5653  -17.9623   22.7833 H   0  0  0  0  0  0
  -31.7553  -18.5125   21.6316 H   0  0  0  0  0  0
  -27.5329  -24.9104   20.2299 H   0  0  0  0  0  0
  -28.4778  -25.2199   18.7677 H   0  0  0  0  0  0
  -31.4845  -16.9308   20.1877 H   0  0  0  0  0  0
  -28.9776  -15.3843   20.6071 H   0  0  0  0  0  0
  -29.7823  -18.7647   20.1107 H   0  0  0  0  0  0
  -28.9174  -17.8508   21.1326 H   0  0  0  0  0  0
  1 25  1  0  0  0
  1 30  2  0  0  0
  1 83  1  0  0  0
  2  3  1  0  0  0
  2 25  1  0  0  0
  2 85  1  0  0  0
  2 86  1  0  0  0
  3  4  1  0  0  0
  3 87  1  0  0  0
  3 88  1  0  0  0
  4  5  1  0  0  0
  4 89  1  0  0  0
  4 90  1  0  0  0
  5  6  1  0  0  0
  5 26  1  0  0  0
  5 91  1  0  0  0
  6 25  1  0  0  0
  6 92  1  0  0  0
  6 93  1  0  0  0
  7  8  2  0  0  0
  7 26  1  0  0  0
  7 29  1  0  0  0
  8  9  1  0  0  0
  8 22  1  0  0  0
  9 10  1  0  0  0
  9 27  2  0  0  0
 10 11  2  0  0  0
 10 15  1  0  0  0
 11 12  1  0  0  0
 11 94  1  0  0  0
 12 13  2  0  0  0
 12 95  1  0  0  0
 13 14  1  0  0  0
 13 31  1  0  0  0
 14 15  2  0  0  0
 14 96  1  0  0  0
 15 97  1  0  0  0
 16 17  2  0  0  0
 16 21  1  0  0  0
 16 31  1  0  0  0
 17 18  1  0  0  0
 17 98  1  0  0  0
 18 19  2  0  0  0
 18 99  1  0  0  0
 19 20  1  0  0  0
 19 24  1  0  0  0
 20 21  2  0  0  0
 20100  1  0  0  0
 21 23  1  0  0  0
 22 28  1  0  0  0
 22 32  2  0  0  0
 26 27  1  0  0  0
 28101  1  0  0  0
 28102  1  0  0  0
 29103  1  0  0  0
 29104  1  0  0  0
 33 34  1  0  0  0
 33 66  1  0  0  0
 33 70  2  0  0  0
 34 36  1  0  0  0
 34 59  1  0  0  0
 34105  1  0  0  0
 35 44  2  0  0  0
 35 45  1  0  0  0
 35 68  1  0  0  0
 36 56  1  0  0  0
 36106  1  0  0  0
 37 39  1  0  0  0
 37 47  1  0  0  0
 37 66  1  0  0  0
 37107  1  0  0  0
 38 43  2  0  0  0
 38 46  1  0  0  0
 38 47  1  0  0  0
 39 64  1  0  0  0
 39 67  2  0  0  0
 40 52  1  0  0  0
 40 53  2  0  0  0
 40 58  1  0  0  0
 41108  1  0  0  0
 41109  1  0  0  0
 41110  1  0  0  0
 41 48  1  0  0  0
 42 43  1  0  0  0
 42 66  1  0  0  0
 42111  1  0  0  0
 42112  1  0  0  0
 43 44  1  0  0  0
 44113  1  0  0  0
 45 46  2  0  0  0
 45114  1  0  0  0
 46115  1  0  0  0
 47116  1  0  0  0
 47117  1  0  0  0
 48 56  1  0  0  0
 48 65  1  0  0  0
 48118  1  0  0  0
 49 50  1  0  0  0
 49 53  1  0  0  0
 49 64  1  0  0  0
 49119  1  0  0  0
 50 51  1  0  0  0
 50120  1  0  0  0
 50121  1  0  0  0
 51 52  1  0  0  0
 51122  1  0  0  0
 51123  1  0  0  0
 52124  1  0  0  0
 52125  1  0  0  0
 53 54  1  0  0  0
 54 55  2  0  0  0
 54126  1  0  0  0
 55 57  1  0  0  0
 55127  1  0  0  0
 56 69  2  0  0  0
 57 58  2  0  0  0
 57128  1  0  0  0
 58129  1  0  0  0
 59 60  1  0  0  0
 59 61  1  0  0  0
 59 62  1  0  0  0
 60130  1  0  0  0
 60131  1  0  0  0
 60132  1  0  0  0
 61133  1  0  0  0
 61134  1  0  0  0
 61135  1  0  0  0
 62136  1  0  0  0
 62137  1  0  0  0
 62138  1  0  0  0
 63 65  1  0  0  0
 63139  1  0  0  0
 63140  1  0  0  0
 63141  1  0  0  0
 64142  1  0  0  0
 65143  1  0  0  0
 68 80  1  0  0  0
 71144  1  0  0  0
 71145  1  0  0  0
 71146  1  0  0  0
 71 82  1  0  0  0
 72 82  1  0  0  0
 72147  1  0  0  0
 72148  1  0  0  0
 72149  1  0  0  0
 73 82  1  0  0  0
 73150  1  0  0  0
 73151  1  0  0  0
 73152  1  0  0  0
 74 75  1  0  0  0
 74 76  1  0  0  0
 74153  1  0  0  0
 74154  1  0  0  0
 75 77  1  0  0  0
 75155  1  0  0  0
 75156  1  0  0  0
 76 78  1  0  0  0
 76157  1  0  0  0
 76158  1  0  0  0
 77 79  1  0  0  0
 77159  1  0  0  0
 77160  1  0  0  0
 78 80  1  0  0  0
 78161  1  0  0  0
 78162  1  0  0  0
 79 84  1  0  0  0
 79163  1  0  0  0
 79164  1  0  0  0
 80165  1  0  0  0
 80166  1  0  0  0
 81 82  1  0  0  0
 81 83  1  0  0  0
 81 84  1  0  0  0
 81167  1  0  0  0
 83168  1  0  0  0
 84169  1  0  0  0
 84170  1  0  0  0
M  CHG  1  84   1
M  ISO  4   1 100  68 101  80 101  83 100
M  END
> <chiral flag>
0

> <version>
0

> <s_m_source_file>
/data/baiqing/PycharmProjects/Reinvent-master-3.2/result/LINK_invent/BTK/process_docking_weight1_custom_sum_contain_oxygen_bond_distance_aromatic_linkinvent_7_9_3/rearranged_h_0013.sdf

> <i_m_source_file_index>
27

> <r_mmod_Potential_Energy-OPLS-2005>
-203.528732299805

> <r_mmod_Stretch_Energy-OPLS-2005>
34.1379585266113

> <r_mmod_Bend_Energy-OPLS-2005>
104.145278930664

> <r_mmod_Torsional_Energy-OPLS-2005>
263.738555908203

> <r_mmod_Improper_Torsional_Energy-OPLS-2005>
9.90949630737305

> <r_mmod_Van_der_Waal_Energy-OPLS-2005>
139.288665771484

> <r_mmod_Electrostatic_Energy-OPLS-2005>
-325.679626464844

> <r_mmod_Solvation_Energy-OPLS-2005>
-449.007690429688

> <b_mmod_Minimization_Converged-OPLS-2005>
0

> <r_mmod_RMS_Derivative-OPLS-2005>
3.17580652236938

$$$$
27
                    3D
 Structure written by MMmdl.
152160  0  0  1  0            999 V2000
  -30.4897  -15.0546   20.4254 C   0  0  0  0  0  0
  -30.4485  -12.6716   19.4828 C   0  0  0  0  0  0
  -29.5216  -12.5330   18.2518 C   0  0  0  0  0  0
  -28.0641  -12.2891   18.6896 C   0  0  0  0  0  0
  -27.6213  -13.2478   19.8249 C   0  0  2  0  0  0
  -28.6661  -13.3305   20.9543 C   0  0  0  0  0  0
  -25.2452  -13.8205   20.5734 C   0  0  0  0  0  0
  -24.1769  -13.0429   20.9243 C   0  0  0  0  0  0
  -24.6389  -11.6915   20.8767 C   0  0  0  0  0  0
  -23.9077  -10.4289   21.0424 C   0  0  0  0  0  0
  -24.3626   -9.4205   21.9203 C   0  0  0  0  0  0
  -23.6298   -8.2242   22.0764 C   0  0  0  0  0  0
  -22.4283   -8.0281   21.3547 C   0  0  0  0  0  0
  -21.9925   -9.0258   20.4647 C   0  0  0  0  0  0
  -22.7256  -10.2134   20.3063 C   0  0  0  0  0  0
  -21.6847   -6.0742   22.5280 C   0  0  0  0  0  0
  -21.4010   -6.5642   23.8212 C   0  0  0  0  0  0
  -21.3661   -5.6797   24.9172 C   0  0  0  0  0  0
  -21.6043   -4.3060   24.7224 C   0  0  0  0  0  0
  -21.8819   -3.8151   23.4346 C   0  0  0  0  0  0
  -21.9192   -4.6971   22.3403 C   0  0  0  0  0  0
  -22.7790  -13.5208   21.1897 C   0  0  0  0  0  0
  -22.1661   -4.2157   21.0979 F   0  0  0  0  0  0
  -21.5634   -3.4542   25.7737 F   0  0  0  0  0  0
  -29.9158  -13.7808   20.3288 N   0  0  0  0  0  0
  -26.2858  -12.9428   20.3225 N   0  0  0  0  0  0
  -25.9311  -11.6563   20.5731 N   0  0  0  0  0  0
  -22.0433  -12.8186   22.0436 N   0  0  0  0  0  0
  -25.4121  -15.1938   20.4189 N   0  0  0  0  0  0
  -31.7185  -15.1059   20.2919 O   0  0  0  0  0  0
  -21.6636   -6.8884   21.4242 O   0  0  0  0  0  0
  -22.3488  -14.5521   20.6743 O   0  0  0  0  0  0
  -24.6492  -31.8369   23.1807 C   0  0  0  0  0  0
  -25.9236  -32.4656   23.8214 C   0  0  1  0  0  0
  -27.2176  -27.0623   20.1950 C   0  0  0  0  0  0
  -25.5964  -33.8461   24.2139 N   0  0  0  0  0  0
  -23.4549  -30.4525   21.5279 C   0  0  2  0  0  0
  -24.9039  -28.8509   20.1263 C   0  0  0  0  0  0
  -22.7585  -29.4527   22.4849 C   0  0  0  0  0  0
  -18.0305  -28.1408   22.8463 C   0  0  0  0  0  0
  -24.1497  -36.7241   23.2642 C   0  0  0  0  0  0
  -26.0136  -30.6916   21.3824 C   0  0  0  0  0  0
  -26.0836  -29.2882   20.7423 C   0  0  0  0  0  0
  -27.2436  -28.4149   20.7460 C   0  0  0  0  0  0
  -26.0096  -26.7302   19.5494 C   0  0  0  0  0  0
  -24.8823  -27.5874   19.5127 C   0  0  0  0  0  0
  -23.6848  -29.7651   20.1545 C   0  0  0  0  0  0
  -25.4126  -36.3004   24.0308 C   0  0  1  0  0  0
  -20.5925  -28.3732   23.1224 C   0  0  2  0  0  0
  -20.6793  -26.9425   22.5406 C   0  0  0  0  0  0
  -19.5769  -26.6391   21.5211 C   0  0  0  0  0  0
  -18.1943  -26.7945   22.1616 C   0  0  0  0  0  0
  -19.1566  -28.8882   23.2835 C   0  0  0  0  0  0
  -18.9481  -30.1474   23.8865 C   0  0  0  0  0  0
  -17.6474  -30.6589   24.0559 C   0  0  0  0  0  0
  -25.9084  -34.9382   23.5037 C   0  0  0  0  0  0
  -16.5365  -29.9084   23.6337 C   0  0  0  0  0  0
  -16.7290  -28.6515   23.0343 C   0  0  0  0  0  0
  -26.4539  -31.6542   25.0679 C   0  0  0  0  0  0
  -25.3700  -31.3747   26.1359 C   0  0  0  0  0  0
  -27.0392  -30.2932   24.6274 C   0  0  0  0  0  0
  -27.6076  -32.4302   25.7470 C   0  0  0  0  0  0
  -27.5570  -37.1766   24.8464 C   0  0  0  0  0  0
  -21.4273  -29.3051   22.3594 N   0  0  0  0  0  0
  -26.4280  -37.3725   23.9409 N   0  0  0  0  0  0
  -24.7266  -31.0172   22.0863 N   0  0  0  0  0  0
  -23.4199  -28.8078   23.3026 O   0  0  0  0  0  0
  -28.3069  -26.1036   20.1216 O   0  0  0  0  0  0
  -26.5676  -34.8899   22.4620 O   0  0  0  0  0  0
  -23.5603  -32.1271   23.6998 O   0  0  0  0  0  0
  -29.7103  -17.8699   22.2074 C   0  0  0  0  0  0
  -29.4671  -19.1152   22.8359 C   0  0  0  0  0  0
  -29.6663  -17.7145   20.8069 C   0  0  0  0  0  0
  -29.1844  -20.3840   20.7212 C   0  0  0  0  0  0
  -29.1963  -20.3169   22.1355 C   0  0  0  0  0  0
  -29.4017  -19.0180   20.0898 C   0  0  0  0  0  0
  -30.1582  -21.9854   19.1261 C   0  0  0  0  0  0
  -28.1194  -23.0236   20.2427 C   0  0  0  0  0  0
  -28.4471  -24.6457   20.7378 C   0  0  0  0  0  0
  -29.6769  -16.2393   20.2967 N   0  0  0  0  0  0
  -29.1127  -21.7807   20.1219 N   0  0  0  0  0  0
  -29.0004  -21.4478   22.8599 F   0  0  0  0  0  0
  -29.3228  -18.9105   18.3660 Cl  0  0  0  0  0  0
  -31.4689  -12.8747   19.1544 H   0  0  0  0  0  0
  -30.4915  -11.7388   20.0467 H   0  0  0  0  0  0
  -29.8621  -11.7184   17.6110 H   0  0  0  0  0  0
  -29.5756  -13.4404   17.6482 H   0  0  0  0  0  0
  -28.0002  -11.2582   19.0405 H   0  0  0  0  0  0
  -27.3891  -12.3637   17.8366 H   0  0  0  0  0  0
  -27.5632  -14.2336   19.3634 H   0  0  0  0  0  0
  -28.7906  -12.3700   21.4568 H   0  0  0  0  0  0
  -28.3473  -14.0445   21.7165 H   0  0  0  0  0  0
  -25.2769   -9.5679   22.4782 H   0  0  0  0  0  0
  -23.9999   -7.4637   22.7481 H   0  0  0  0  0  0
  -21.0864   -8.8782   19.8948 H   0  0  0  0  0  0
  -22.3728  -10.9676   19.6174 H   0  0  0  0  0  0
  -21.1991   -7.6153   23.9717 H   0  0  0  0  0  0
  -21.1487   -6.0527   25.9078 H   0  0  0  0  0  0
  -22.0595   -2.7616   23.2840 H   0  0  0  0  0  0
  -22.4043  -11.9834   22.4806 H   0  0  0  0  0  0
  -21.1049  -13.1204   22.2633 H   0  0  0  0  0  0
  -24.6453  -15.8451   20.5425 H   0  0  0  0  0  0
  -26.2600  -15.6414   20.0983 H   0  0  0  0  0  0
  -26.7294  -32.5247   23.0928 H   0  0  0  0  0  0
  -25.0062  -33.9551   25.0262 H   0  0  0  0  0  0
  -22.7631  -31.2812   21.3634 H   0  0  0  0  0  0
  -23.3754  -35.9580   23.3298 H   0  0  0  0  0  0
  -24.3576  -36.8891   22.2056 H   0  0  0  0  0  0
  -23.7268  -37.6441   23.6691 H   0  0  0  0  0  0
  -26.1616  -31.4312   20.5941 H   0  0  0  0  0  0
  -26.8881  -30.7607   22.0176 H   0  0  0  0  0  0
  -28.1548  -28.7596   21.2145 H   0  0  0  0  0  0
  -25.9308  -25.7648   19.0686 H   0  0  0  0  0  0
  -23.9824  -27.2473   19.0180 H   0  0  0  0  0  0
  -23.8271  -30.5306   19.3913 H   0  0  0  0  0  0
  -22.7978  -29.2091   19.8456 H   0  0  0  0  0  0
  -25.1316  -36.1811   25.0800 H   0  0  0  0  0  0
  -21.0010  -28.3327   24.1351 H   0  0  0  0  0  0
  -20.5700  -26.2329   23.3622 H   0  0  0  0  0  0
  -21.6648  -26.7434   22.1189 H   0  0  0  0  0  0
  -19.6937  -25.6307   21.1234 H   0  0  0  0  0  0
  -19.6723  -27.3203   20.6747 H   0  0  0  0  0  0
  -17.4217  -26.6688   21.4018 H   0  0  0  0  0  0
  -18.0335  -26.0110   22.9033 H   0  0  0  0  0  0
  -19.7958  -30.7291   24.2234 H   0  0  0  0  0  0
  -17.5029  -31.6271   24.5157 H   0  0  0  0  0  0
  -15.5365  -30.2964   23.7692 H   0  0  0  0  0  0
  -15.8697  -28.0822   22.7068 H   0  0  0  0  0  0
  -24.5934  -30.7043   25.7669 H   0  0  0  0  0  0
  -24.8820  -32.2922   26.4651 H   0  0  0  0  0  0
  -25.7955  -30.9018   27.0214 H   0  0  0  0  0  0
  -26.2995  -29.6656   24.1292 H   0  0  0  0  0  0
  -27.4012  -29.7246   25.4848 H   0  0  0  0  0  0
  -27.8905  -30.4173   23.9580 H   0  0  0  0  0  0
  -27.2713  -33.3678   26.1900 H   0  0  0  0  0  0
  -28.3954  -32.6713   25.0327 H   0  0  0  0  0  0
  -28.0646  -31.8496   26.5491 H   0  0  0  0  0  0
  -28.2552  -38.0090   24.7493 H   0  0  0  0  0  0
  -28.1089  -36.2604   24.6294 H   0  0  0  0  0  0
  -27.2275  -37.1419   25.8864 H   0  0  0  0  0  0
  -20.9498  -29.8742   21.6741 H   0  0  0  0  0  0
  -26.0138  -38.2790   24.1421 H   0  0  0  0  0  0
  -29.8712  -17.0043   22.8357 H   0  0  0  0  0  0
  -29.4891  -19.1523   23.9150 H   0  0  0  0  0  0
  -30.9800  -21.2766   19.2366 H   0  0  0  0  0  0
  -30.5839  -22.9864   19.2163 H   0  0  0  0  0  0
  -29.7517  -21.8801   18.1192 H   0  0  0  0  0  0
  -27.6474  -23.1075   19.2635 H   0  0  0  0  0  0
  -27.3063  -22.6761   20.8818 H   0  0  0  0  0  0
  -29.5049  -24.6190   21.0015 H   0  0  0  0  0  0
  -27.9625  -24.7381   21.7097 H   0  0  0  0  0  0
  -28.7742  -15.9823   19.9290 H   0  0  0  0  0  0
  1 25  1  0  0  0
  1 30  2  0  0  0
  1 80  1  0  0  0
  2  3  1  0  0  0
  2 25  1  0  0  0
  2 84  1  0  0  0
  2 85  1  0  0  0
  3  4  1  0  0  0
  3 86  1  0  0  0
  3 87  1  0  0  0
  4  5  1  0  0  0
  4 88  1  0  0  0
  4 89  1  0  0  0
  5  6  1  0  0  0
  5 26  1  0  0  0
  5 90  1  0  0  0
  6 25  1  0  0  0
  6 91  1  0  0  0
  6 92  1  0  0  0
  7  8  2  0  0  0
  7 26  1  0  0  0
  7 29  1  0  0  0
  8  9  1  0  0  0
  8 22  1  0  0  0
  9 10  1  0  0  0
  9 27  2  0  0  0
 10 11  2  0  0  0
 10 15  1  0  0  0
 11 12  1  0  0  0
 11 93  1  0  0  0
 12 13  2  0  0  0
 12 94  1  0  0  0
 13 14  1  0  0  0
 13 31  1  0  0  0
 14 15  2  0  0  0
 14 95  1  0  0  0
 15 96  1  0  0  0
 16 17  2  0  0  0
 16 21  1  0  0  0
 16 31  1  0  0  0
 17 18  1  0  0  0
 17 97  1  0  0  0
 18 19  2  0  0  0
 18 98  1  0  0  0
 19 20  1  0  0  0
 19 24  1  0  0  0
 20 21  2  0  0  0
 20 99  1  0  0  0
 21 23  1  0  0  0
 22 28  1  0  0  0
 22 32  2  0  0  0
 26 27  1  0  0  0
 28100  1  0  0  0
 28101  1  0  0  0
 29102  1  0  0  0
 29103  1  0  0  0
 33 34  1  0  0  0
 33 66  1  0  0  0
 33 70  2  0  0  0
 34 36  1  0  0  0
 34 59  1  0  0  0
 34104  1  0  0  0
 35 44  2  0  0  0
 35 45  1  0  0  0
 35 68  1  0  0  0
 36 56  1  0  0  0
 36105  1  0  0  0
 37 39  1  0  0  0
 37 47  1  0  0  0
 37 66  1  0  0  0
 37106  1  0  0  0
 38 43  2  0  0  0
 38 46  1  0  0  0
 38 47  1  0  0  0
 39 64  1  0  0  0
 39 67  2  0  0  0
 40 52  1  0  0  0
 40 53  2  0  0  0
 40 58  1  0  0  0
 41107  1  0  0  0
 41108  1  0  0  0
 41109  1  0  0  0
 41 48  1  0  0  0
 42 43  1  0  0  0
 42 66  1  0  0  0
 42110  1  0  0  0
 42111  1  0  0  0
 43 44  1  0  0  0
 44112  1  0  0  0
 45 46  2  0  0  0
 45113  1  0  0  0
 46114  1  0  0  0
 47115  1  0  0  0
 47116  1  0  0  0
 48 56  1  0  0  0
 48 65  1  0  0  0
 48117  1  0  0  0
 49 50  1  0  0  0
 49 53  1  0  0  0
 49 64  1  0  0  0
 49118  1  0  0  0
 50 51  1  0  0  0
 50119  1  0  0  0
 50120  1  0  0  0
 51 52  1  0  0  0
 51121  1  0  0  0
 51122  1  0  0  0
 52123  1  0  0  0
 52124  1  0  0  0
 53 54  1  0  0  0
 54 55  2  0  0  0
 54125  1  0  0  0
 55 57  1  0  0  0
 55126  1  0  0  0
 56 69  2  0  0  0
 57 58  2  0  0  0
 57127  1  0  0  0
 58128  1  0  0  0
 59 60  1  0  0  0
 59 61  1  0  0  0
 59 62  1  0  0  0
 60129  1  0  0  0
 60130  1  0  0  0
 60131  1  0  0  0
 61132  1  0  0  0
 61133  1  0  0  0
 61134  1  0  0  0
 62135  1  0  0  0
 62136  1  0  0  0
 62137  1  0  0  0
 63 65  1  0  0  0
 63138  1  0  0  0
 63139  1  0  0  0
 63140  1  0  0  0
 64141  1  0  0  0
 65142  1  0  0  0
 68 79  1  0  0  0
 71 72  2  0  0  0
 71 73  1  0  0  0
 71143  1  0  0  0
 72 75  1  0  0  0
 72144  1  0  0  0
 73 76  2  0  0  0
 73 80  1  0  0  0
 74 75  2  0  0  0
 74 76  1  0  0  0
 74 81  1  0  0  0
 75 82  1  0  0  0
 76 83  1  0  0  0
 77 81  1  0  0  0
 77145  1  0  0  0
 77146  1  0  0  0
 77147  1  0  0  0
 78 79  1  0  0  0
 78 81  1  0  0  0
 78148  1  0  0  0
 78149  1  0  0  0
 79150  1  0  0  0
 79151  1  0  0  0
 80152  1  0  0  0
M  ISO  4   1 100  68 101  79 101  80 100
M  END
> <chiral flag>
0

> <version>
0

> <s_m_source_file>
/data/baiqing/PycharmProjects/Reinvent-master-3.2/result/LINK_invent/BTK/process_docking_weight1_custom_sum_contain_oxygen_bond_distance_aromatic_linkinvent_7_9_3/rearranged_h_0013.sdf

> <i_m_source_file_index>
28

> <r_mmod_Potential_Energy-OPLS-2005>
895.278259277344

> <r_mmod_Stretch_Energy-OPLS-2005>
341.570526123047

> <r_mmod_Bend_Energy-OPLS-2005>
364.101318359375

> <r_mmod_Torsional_Energy-OPLS-2005>
295.853515625

> <r_mmod_Improper_Torsional_Energy-OPLS-2005>
12.8510665893555

> <r_mmod_Van_der_Waal_Energy-OPLS-2005>
118.994079589844

> <r_mmod_Electrostatic_Energy-OPLS-2005>
-278.687408447266

> <r_mmod_Solvation_Energy-OPLS-2005>
-223.211837768555

> <b_mmod_Minimization_Converged-OPLS-2005>
0

> <r_mmod_RMS_Derivative-OPLS-2005>
1.68382883071899

$$$$
28
                    3D
 Structure written by MMmdl.
157165  0  0  1  0            999 V2000
  -30.5658  -14.8577   20.3912 C   0  0  0  0  0  0
  -30.4357  -12.5159   19.4971 C   0  0  0  0  0  0
  -29.5175  -12.5039   18.2538 C   0  0  0  0  0  0
  -28.0471  -12.3118   18.6699 C   0  0  0  0  0  0
  -27.6353  -13.2374   19.8450 C   0  0  2  0  0  0
  -28.6789  -13.2337   20.9832 C   0  0  0  0  0  0
  -25.2495  -13.8212   20.5713 C   0  0  0  0  0  0
  -24.1795  -13.0449   20.9232 C   0  0  0  0  0  0
  -24.6396  -11.6927   20.8768 C   0  0  0  0  0  0
  -23.9074  -10.4297   21.0419 C   0  0  0  0  0  0
  -24.3619   -9.4207   21.9191 C   0  0  0  0  0  0
  -23.6295   -8.2239   22.0756 C   0  0  0  0  0  0
  -22.4274   -8.0290   21.3541 C   0  0  0  0  0  0
  -21.9915   -9.0266   20.4651 C   0  0  0  0  0  0
  -22.7242  -10.2146   20.3063 C   0  0  0  0  0  0
  -21.6862   -6.0734   22.5277 C   0  0  0  0  0  0
  -21.4027   -6.5641   23.8204 C   0  0  0  0  0  0
  -21.3655   -5.6793   24.9170 C   0  0  0  0  0  0
  -21.6041   -4.3052   24.7223 C   0  0  0  0  0  0
  -21.8825   -3.8144   23.4350 C   0  0  0  0  0  0
  -21.9199   -4.6956   22.3393 C   0  0  0  0  0  0
  -22.7821  -13.5224   21.1879 C   0  0  0  0  0  0
  -22.1667   -4.2137   21.0978 F   0  0  0  0  0  0
  -21.5625   -3.4541   25.7743 F   0  0  0  0  0  0
  -29.9688  -13.6078   20.3920 N   0  0  0  0  0  0
  -26.2909  -12.9419   20.3275 N   0  0  0  0  0  0
  -25.9329  -11.6557   20.5778 N   0  0  0  0  0  0
  -22.0470  -12.8221   22.0435 N   0  0  0  0  0  0
  -25.4197  -15.1934   20.4102 N   0  0  0  0  0  0
  -31.7650  -14.9198   20.1153 O   0  0  0  0  0  0
  -21.6641   -6.8881   21.4240 O   0  0  0  0  0  0
  -22.3513  -14.5528   20.6714 O   0  0  0  0  0  0
  -24.6380  -31.8480   23.1915 C   0  0  0  0  0  0
  -25.9173  -32.4719   23.8284 C   0  0  1  0  0  0
  -27.2190  -27.1855   20.1331 C   0  0  0  0  0  0
  -25.5938  -33.8521   24.2204 N   0  0  0  0  0  0
  -23.4395  -30.4687   21.5364 C   0  0  2  0  0  0
  -24.8882  -28.9032   20.1084 C   0  0  0  0  0  0
  -22.7540  -29.4569   22.4877 C   0  0  0  0  0  0
  -18.0300  -28.1390   22.8484 C   0  0  0  0  0  0
  -24.1494  -36.7267   23.2649 C   0  0  0  0  0  0
  -25.9929  -30.7356   21.3845 C   0  0  0  0  0  0
  -26.0643  -29.3524   20.7227 C   0  0  0  0  0  0
  -27.2315  -28.5086   20.7200 C   0  0  0  0  0  0
  -26.0182  -26.8263   19.4828 C   0  0  0  0  0  0
  -24.8754  -27.6515   19.4751 C   0  0  0  0  0  0
  -23.6625  -29.7991   20.1548 C   0  0  0  0  0  0
  -25.4132  -36.3046   24.0316 C   0  0  1  0  0  0
  -20.5910  -28.3710   23.1243 C   0  0  2  0  0  0
  -20.6783  -26.9416   22.5404 C   0  0  0  0  0  0
  -19.5760  -26.6379   21.5208 C   0  0  0  0  0  0
  -18.1940  -26.7929   22.1628 C   0  0  0  0  0  0
  -19.1558  -28.8869   23.2858 C   0  0  0  0  0  0
  -18.9476  -30.1464   23.8879 C   0  0  0  0  0  0
  -17.6474  -30.6588   24.0558 C   0  0  0  0  0  0
  -25.9069  -34.9417   23.5062 C   0  0  0  0  0  0
  -16.5362  -29.9079   23.6337 C   0  0  0  0  0  0
  -16.7286  -28.6499   23.0355 C   0  0  0  0  0  0
  -26.4508  -31.6581   25.0712 C   0  0  0  0  0  0
  -25.3702  -31.3769   26.1414 C   0  0  0  0  0  0
  -27.0373  -30.2980   24.6280 C   0  0  0  0  0  0
  -27.6040  -32.4351   25.7490 C   0  0  0  0  0  0
  -27.5562  -37.1816   24.8484 C   0  0  0  0  0  0
  -21.4241  -29.3039   22.3620 N   0  0  0  0  0  0
  -26.4311  -37.3738   23.9369 N   0  0  0  0  0  0
  -24.7098  -31.0369   22.0928 N   0  0  0  0  0  0
  -23.4206  -28.8115   23.3007 O   0  0  0  0  0  0
  -28.2862  -26.2336   20.1991 O   0  0  0  0  0  0
  -26.5653  -34.8902   22.4641 O   0  0  0  0  0  0
  -23.5509  -32.1329   23.7166 O   0  0  0  0  0  0
  -29.1400  -23.6540   20.4942 C   0  0  0  0  0  0
  -28.4532  -19.8185   19.4379 C   0  0  0  0  0  0
  -30.5006  -19.9271   20.6634 C   0  0  0  0  0  0
  -28.0459  -21.3133   19.8974 C   0  0  0  0  0  0
  -30.0835  -21.3754   21.1962 C   0  0  0  0  0  0
  -29.3698  -18.8838   20.3494 C   0  0  0  0  0  0
  -28.0303  -24.7273   19.9788 C   0  0  0  0  0  0
  -29.8039  -17.3872   19.7077 C   0  0  1  0  0  0
  -30.9961  -17.4762   18.7113 C   0  0  0  0  0  0
  -29.1083  -22.2273   20.4210 N   0  0  0  0  0  0
  -29.7635  -16.0140   20.4684 N   0  0  0  0  0  0
  -30.1155  -24.1821   21.0385 O   0  0  0  0  0  0
  -30.8317  -18.5069   17.8842 F   0  0  0  0  0  0
  -32.1494  -17.6429   19.3576 F   0  0  0  0  0  0
  -31.0661  -16.3938   17.9341 F   0  0  0  0  0  0
  -31.4740  -12.6492   19.1892 H   0  0  0  0  0  0
  -30.4025  -11.5562   20.0155 H   0  0  0  0  0  0
  -29.8183  -11.7081   17.5714 H   0  0  0  0  0  0
  -29.6274  -13.4412   17.7056 H   0  0  0  0  0  0
  -27.9308  -11.2705   18.9713 H   0  0  0  0  0  0
  -27.3842  -12.4554   17.8160 H   0  0  0  0  0  0
  -27.6099  -14.2443   19.4299 H   0  0  0  0  0  0
  -28.7393  -12.2546   21.4586 H   0  0  0  0  0  0
  -28.3979  -13.9400   21.7667 H   0  0  0  0  0  0
  -25.2768   -9.5671   22.4768 H   0  0  0  0  0  0
  -23.9996   -7.4633   22.7479 H   0  0  0  0  0  0
  -21.0841   -8.8799   19.8958 H   0  0  0  0  0  0
  -22.3709  -10.9696   19.6172 H   0  0  0  0  0  0
  -21.2011   -7.6153   23.9709 H   0  0  0  0  0  0
  -21.1477   -6.0520   25.9070 H   0  0  0  0  0  0
  -22.0598   -2.7609   23.2851 H   0  0  0  0  0  0
  -22.4100  -11.9885   22.4825 H   0  0  0  0  0  0
  -21.1083  -13.1235   22.2634 H   0  0  0  0  0  0
  -24.6521  -15.8470   20.5210 H   0  0  0  0  0  0
  -26.2556  -15.6282   20.0441 H   0  0  0  0  0  0
  -26.7234  -32.5332   23.1012 H   0  0  0  0  0  0
  -25.0069  -33.9643   25.0340 H   0  0  0  0  0  0
  -22.7400  -31.2937   21.3850 H   0  0  0  0  0  0
  -23.3720  -35.9642   23.3402 H   0  0  0  0  0  0
  -24.3542  -36.8797   22.2040 H   0  0  0  0  0  0
  -23.7305  -37.6520   23.6617 H   0  0  0  0  0  0
  -26.1482  -31.4957   20.6176 H   0  0  0  0  0  0
  -26.8626  -30.7798   22.0285 H   0  0  0  0  0  0
  -28.1284  -28.8481   21.2187 H   0  0  0  0  0  0
  -25.9305  -25.8710   18.9874 H   0  0  0  0  0  0
  -23.9775  -27.3031   18.9833 H   0  0  0  0  0  0
  -23.7928  -30.5736   19.3982 H   0  0  0  0  0  0
  -22.7788  -29.2371   19.8475 H   0  0  0  0  0  0
  -25.1334  -36.1900   25.0814 H   0  0  0  0  0  0
  -21.0012  -28.3288   24.1362 H   0  0  0  0  0  0
  -20.5671  -26.2317   23.3618 H   0  0  0  0  0  0
  -21.6645  -26.7417   22.1200 H   0  0  0  0  0  0
  -19.6914  -25.6283   21.1245 H   0  0  0  0  0  0
  -19.6695  -27.3181   20.6731 H   0  0  0  0  0  0
  -17.4204  -26.6670   21.4030 H   0  0  0  0  0  0
  -18.0348  -26.0072   22.9035 H   0  0  0  0  0  0
  -19.7946  -30.7285   24.2238 H   0  0  0  0  0  0
  -17.5021  -31.6268   24.5164 H   0  0  0  0  0  0
  -15.5358  -30.2973   23.7673 H   0  0  0  0  0  0
  -15.8688  -28.0812   22.7075 H   0  0  0  0  0  0
  -24.5877  -30.7124   25.7731 H   0  0  0  0  0  0
  -24.8896  -32.2955   26.4791 H   0  0  0  0  0  0
  -25.7987  -30.8968   27.0221 H   0  0  0  0  0  0
  -26.2984  -29.6709   24.1277 H   0  0  0  0  0  0
  -27.3979  -29.7278   25.4853 H   0  0  0  0  0  0
  -27.8895  -30.4222   23.9596 H   0  0  0  0  0  0
  -27.2623  -33.3660   26.2031 H   0  0  0  0  0  0
  -28.3861  -32.6910   25.0329 H   0  0  0  0  0  0
  -28.0698  -31.8510   26.5437 H   0  0  0  0  0  0
  -28.2678  -38.0014   24.7379 H   0  0  0  0  0  0
  -28.0961  -36.2535   24.6525 H   0  0  0  0  0  0
  -27.2244  -37.1723   25.8885 H   0  0  0  0  0  0
  -20.9442  -29.8755   21.6812 H   0  0  0  0  0  0
  -26.0195  -38.2835   24.1273 H   0  0  0  0  0  0
  -28.9355  -19.9218   18.4656 H   0  0  0  0  0  0
  -27.5296  -19.2788   19.2226 H   0  0  0  0  0  0
  -31.1876  -19.4790   21.3826 H   0  0  0  0  0  0
  -31.0963  -20.0841   19.7639 H   0  0  0  0  0  0
  -27.2853  -21.2378   20.6752 H   0  0  0  0  0  0
  -27.5530  -21.8087   19.0599 H   0  0  0  0  0  0
  -31.0137  -21.9259   21.3415 H   0  0  0  0  0  0
  -29.6648  -21.2594   22.1961 H   0  0  0  0  0  0
  -28.8197  -18.6916   21.2704 H   0  0  0  0  0  0
  -27.0940  -24.4564   20.4679 H   0  0  0  0  0  0
  -27.8851  -24.5547   18.9122 H   0  0  0  0  0  0
  -28.9580  -17.2072   19.0411 H   0  0  0  0  0  0
  -28.8428  -15.8048   20.8186 H   0  0  0  0  0  0
  1 25  1  0  0  0
  1 30  2  0  0  0
  1 81  1  0  0  0
  2  3  1  0  0  0
  2 25  1  0  0  0
  2 86  1  0  0  0
  2 87  1  0  0  0
  3  4  1  0  0  0
  3 88  1  0  0  0
  3 89  1  0  0  0
  4  5  1  0  0  0
  4 90  1  0  0  0
  4 91  1  0  0  0
  5  6  1  0  0  0
  5 26  1  0  0  0
  5 92  1  0  0  0
  6 25  1  0  0  0
  6 93  1  0  0  0
  6 94  1  0  0  0
  7  8  2  0  0  0
  7 26  1  0  0  0
  7 29  1  0  0  0
  8  9  1  0  0  0
  8 22  1  0  0  0
  9 10  1  0  0  0
  9 27  2  0  0  0
 10 11  2  0  0  0
 10 15  1  0  0  0
 11 12  1  0  0  0
 11 95  1  0  0  0
 12 13  2  0  0  0
 12 96  1  0  0  0
 13 14  1  0  0  0
 13 31  1  0  0  0
 14 15  2  0  0  0
 14 97  1  0  0  0
 15 98  1  0  0  0
 16 17  2  0  0  0
 16 21  1  0  0  0
 16 31  1  0  0  0
 17 18  1  0  0  0
 17 99  1  0  0  0
 18 19  2  0  0  0
 18100  1  0  0  0
 19 20  1  0  0  0
 19 24  1  0  0  0
 20 21  2  0  0  0
 20101  1  0  0  0
 21 23  1  0  0  0
 22 28  1  0  0  0
 22 32  2  0  0  0
 26 27  1  0  0  0
 28102  1  0  0  0
 28103  1  0  0  0
 29104  1  0  0  0
 29105  1  0  0  0
 33 34  1  0  0  0
 33 66  1  0  0  0
 33 70  2  0  0  0
 34 36  1  0  0  0
 34 59  1  0  0  0
 34106  1  0  0  0
 35 44  2  0  0  0
 35 45  1  0  0  0
 35 68  1  0  0  0
 36 56  1  0  0  0
 36107  1  0  0  0
 37 39  1  0  0  0
 37 47  1  0  0  0
 37 66  1  0  0  0
 37108  1  0  0  0
 38 43  2  0  0  0
 38 46  1  0  0  0
 38 47  1  0  0  0
 39 64  1  0  0  0
 39 67  2  0  0  0
 40 52  1  0  0  0
 40 53  2  0  0  0
 40 58  1  0  0  0
 41109  1  0  0  0
 41110  1  0  0  0
 41111  1  0  0  0
 41 48  1  0  0  0
 42 43  1  0  0  0
 42 66  1  0  0  0
 42112  1  0  0  0
 42113  1  0  0  0
 43 44  1  0  0  0
 44114  1  0  0  0
 45 46  2  0  0  0
 45115  1  0  0  0
 46116  1  0  0  0
 47117  1  0  0  0
 47118  1  0  0  0
 48 56  1  0  0  0
 48 65  1  0  0  0
 48119  1  0  0  0
 49 50  1  0  0  0
 49 53  1  0  0  0
 49 64  1  0  0  0
 49120  1  0  0  0
 50 51  1  0  0  0
 50121  1  0  0  0
 50122  1  0  0  0
 51 52  1  0  0  0
 51123  1  0  0  0
 51124  1  0  0  0
 52125  1  0  0  0
 52126  1  0  0  0
 53 54  1  0  0  0
 54 55  2  0  0  0
 54127  1  0  0  0
 55 57  1  0  0  0
 55128  1  0  0  0
 56 69  2  0  0  0
 57 58  2  0  0  0
 57129  1  0  0  0
 58130  1  0  0  0
 59 60  1  0  0  0
 59 61  1  0  0  0
 59 62  1  0  0  0
 60131  1  0  0  0
 60132  1  0  0  0
 60133  1  0  0  0
 61134  1  0  0  0
 61135  1  0  0  0
 61136  1  0  0  0
 62137  1  0  0  0
 62138  1  0  0  0
 62139  1  0  0  0
 63 65  1  0  0  0
 63140  1  0  0  0
 63141  1  0  0  0
 63142  1  0  0  0
 64143  1  0  0  0
 65144  1  0  0  0
 68 77  1  0  0  0
 71 77  1  0  0  0
 71 80  1  0  0  0
 71 82  2  0  0  0
 72 74  1  0  0  0
 72145  1  0  0  0
 72146  1  0  0  0
 72 76  1  0  0  0
 73 75  1  0  0  0
 73 76  1  0  0  0
 73147  1  0  0  0
 73148  1  0  0  0
 74 80  1  0  0  0
 74149  1  0  0  0
 74150  1  0  0  0
 75 80  1  0  0  0
 75151  1  0  0  0
 75152  1  0  0  0
 76 78  1  0  0  0
 76153  1  0  0  0
 77154  1  0  0  0
 77155  1  0  0  0
 78 79  1  0  0  0
 78 81  1  0  0  0
 78156  1  0  0  0
 79 83  1  0  0  0
 79 84  1  0  0  0
 79 85  1  0  0  0
 81157  1  0  0  0
M  ISO  4   1 100  68 101  77 101  81 100
M  END
> <chiral flag>
0

> <version>
0

> <s_m_source_file>
/data/baiqing/PycharmProjects/Reinvent-master-3.2/result/LINK_invent/BTK/process_docking_weight1_custom_sum_contain_oxygen_bond_distance_aromatic_linkinvent_7_9_3/rearranged_h_0013.sdf

> <i_m_source_file_index>
29

> <r_mmod_Potential_Energy-OPLS-2005>
425.703430175781

> <r_mmod_Stretch_Energy-OPLS-2005>
198.999237060547

> <r_mmod_Bend_Energy-OPLS-2005>
253.102767944336

> <r_mmod_Torsional_Energy-OPLS-2005>
314.887573242188

> <r_mmod_Improper_Torsional_Energy-OPLS-2005>
7.45952749252319

> <r_mmod_Van_der_Waal_Energy-OPLS-2005>
129.504425048828

> <r_mmod_Electrostatic_Energy-OPLS-2005>
-366.404907226562

> <r_mmod_Solvation_Energy-OPLS-2005>
-254.380889892578

> <b_mmod_Minimization_Converged-OPLS-2005>
0

> <r_mmod_RMS_Derivative-OPLS-2005>
1.94043552875519

$$$$
29
                    3D
 Structure written by MMmdl.
162170  0  0  1  0            999 V2000
  -30.6668  -14.4976   20.5774 C   0  0  0  0  0  0
  -30.4294  -12.3261   19.4192 C   0  0  0  0  0  0
  -29.4954  -12.5089   18.2037 C   0  0  0  0  0  0
  -28.0150  -12.3627   18.6164 C   0  0  0  0  0  0
  -27.6569  -13.2035   19.8712 C   0  0  2  0  0  0
  -28.6980  -12.9839   20.9908 C   0  0  0  0  0  0
  -25.2554  -13.8151   20.5663 C   0  0  0  0  0  0
  -24.1814  -13.0433   20.9172 C   0  0  0  0  0  0
  -24.6377  -11.6899   20.8729 C   0  0  0  0  0  0
  -23.9054  -10.4287   21.0413 C   0  0  0  0  0  0
  -24.3612   -9.4198   21.9184 C   0  0  0  0  0  0
  -23.6290   -8.2237   22.0760 C   0  0  0  0  0  0
  -22.4268   -8.0279   21.3550 C   0  0  0  0  0  0
  -21.9904   -9.0252   20.4645 C   0  0  0  0  0  0
  -22.7236  -10.2127   20.3051 C   0  0  0  0  0  0
  -21.6848   -6.0728   22.5273 C   0  0  0  0  0  0
  -21.4010   -6.5635   23.8205 C   0  0  0  0  0  0
  -21.3654   -5.6791   24.9172 C   0  0  0  0  0  0
  -21.6045   -4.3053   24.7229 C   0  0  0  0  0  0
  -21.8819   -3.8141   23.4349 C   0  0  0  0  0  0
  -21.9196   -4.6958   22.3404 C   0  0  0  0  0  0
  -22.7831  -13.5229   21.1839 C   0  0  0  0  0  0
  -22.1652   -4.2144   21.0980 F   0  0  0  0  0  0
  -21.5638   -3.4537   25.7743 F   0  0  0  0  0  0
  -30.0238  -13.3072   20.4362 N   0  0  0  0  0  0
  -26.2978  -12.9311   20.3315 N   0  0  0  0  0  0
  -25.9288  -11.6474   20.5741 N   0  0  0  0  0  0
  -22.0480  -12.8223   22.0398 N   0  0  0  0  0  0
  -25.4252  -15.1872   20.4058 N   0  0  0  0  0  0
  -31.8115  -14.6948   20.1579 O   0  0  0  0  0  0
  -21.6633   -6.8874   21.4235 O   0  0  0  0  0  0
  -22.3508  -14.5543   20.6702 O   0  0  0  0  0  0
  -24.6173  -31.8682   23.2076 C   0  0  0  0  0  0
  -25.9068  -32.4817   23.8389 C   0  0  1  0  0  0
  -27.2285  -27.4094   20.0889 C   0  0  0  0  0  0
  -25.5925  -33.8617   24.2321 N   0  0  0  0  0  0
  -23.4054  -30.4917   21.5500 C   0  0  2  0  0  0
  -24.8452  -28.9521   20.1187 C   0  0  0  0  0  0
  -22.7421  -29.4669   22.4984 C   0  0  0  0  0  0
  -18.0288  -28.1369   22.8492 C   0  0  0  0  0  0
  -24.1496  -36.7320   23.2640 C   0  0  0  0  0  0
  -25.9369  -30.8230   21.3638 C   0  0  0  0  0  0
  -26.0088  -29.4557   20.7119 C   0  0  0  0  0  0
  -27.2005  -28.6918   20.6926 C   0  0  0  0  0  0
  -26.0326  -26.9178   19.5120 C   0  0  0  0  0  0
  -24.8532  -27.6822   19.5197 C   0  0  0  0  0  0
  -23.6136  -29.8249   20.1650 C   0  0  0  0  0  0
  -25.4118  -36.3106   24.0337 C   0  0  1  0  0  0
  -20.5878  -28.3669   23.1299 C   0  0  2  0  0  0
  -20.6799  -26.9418   22.5361 C   0  0  0  0  0  0
  -19.5749  -26.6361   21.5207 C   0  0  0  0  0  0
  -18.1947  -26.7892   22.1666 C   0  0  0  0  0  0
  -19.1534  -28.8837   23.2888 C   0  0  0  0  0  0
  -18.9463  -30.1437   23.8910 C   0  0  0  0  0  0
  -17.6470  -30.6573   24.0577 C   0  0  0  0  0  0
  -25.9045  -34.9473   23.5123 C   0  0  0  0  0  0
  -16.5362  -29.9075   23.6350 C   0  0  0  0  0  0
  -16.7287  -28.6502   23.0336 C   0  0  0  0  0  0
  -26.4483  -31.6594   25.0730 C   0  0  0  0  0  0
  -25.3743  -31.3701   26.1481 C   0  0  0  0  0  0
  -27.0322  -30.3037   24.6116 C   0  0  0  0  0  0
  -27.6051  -32.4323   25.7499 C   0  0  0  0  0  0
  -27.5585  -37.1819   24.8466 C   0  0  0  0  0  0
  -21.4144  -29.3055   22.3724 N   0  0  0  0  0  0
  -26.4305  -37.3794   23.9403 N   0  0  0  0  0  0
  -24.6722  -31.0764   22.0986 N   0  0  0  0  0  0
  -23.4179  -28.8208   23.3041 O   0  0  0  0  0  0
  -28.4215  -26.7042   20.0874 O   0  0  0  0  0  0
  -26.5592  -34.8929   22.4673 O   0  0  0  0  0  0
  -23.5360  -32.1449   23.7448 O   0  0  0  0  0  0
  -30.7428  -19.6360   21.5712 C   0  0  0  0  0  0
  -31.3404  -17.2874   21.9073 C   0  0  0  0  0  0
  -31.6166  -18.6570   22.0902 C   0  0  0  0  0  0
  -29.5768  -19.2616   20.8638 C   0  0  0  0  0  0
  -30.1977  -16.8808   21.1874 C   0  0  0  0  0  0
  -29.3171  -17.8711   20.6731 C   0  0  0  0  0  0
  -32.8637  -19.0797   22.8403 C   0  0  0  0  0  0
  -26.7431  -22.5709   19.4730 C   0  0  0  0  0  0
  -28.6452  -20.3275   20.2450 C   0  0  0  0  0  0
  -28.3475  -24.2343   20.5484 C   0  0  0  0  0  0
  -28.5053  -25.3836   19.5112 C   0  0  0  0  0  0
  -28.2052  -22.8080   19.9177 C   0  0  1  0  0  0
  -29.8853  -15.4940   21.0417 N   0  0  0  0  0  0
  -28.7083  -21.7096   20.8098 N   0  3  0  0  0  0
  -27.9331  -17.3624   19.7679 Cl  0  0  0  0  0  0
  -31.4710  -12.4490   19.1162 H   0  0  0  0  0  0
  -30.3497  -11.3155   19.8226 H   0  0  0  0  0  0
  -29.7414  -11.7823   17.4277 H   0  0  0  0  0  0
  -29.6539  -13.4929   17.7597 H   0  0  0  0  0  0
  -27.8231  -11.3052   18.8079 H   0  0  0  0  0  0
  -27.3654  -12.6413   17.7864 H   0  0  0  0  0  0
  -27.6970  -14.2506   19.5708 H   0  0  0  0  0  0
  -28.6828  -11.9443   21.3212 H   0  0  0  0  0  0
  -28.4551  -13.5743   21.8759 H   0  0  0  0  0  0
  -25.2761   -9.5674   22.4753 H   0  0  0  0  0  0
  -23.9997   -7.4632   22.7483 H   0  0  0  0  0  0
  -21.0833   -8.8769   19.8956 H   0  0  0  0  0  0
  -22.3704  -10.9664   19.6153 H   0  0  0  0  0  0
  -21.1991   -7.6140   23.9709 H   0  0  0  0  0  0
  -21.1474   -6.0518   25.9075 H   0  0  0  0  0  0
  -22.0609   -2.7602   23.2854 H   0  0  0  0  0  0
  -22.4079  -11.9884   22.4794 H   0  0  0  0  0  0
  -21.1084  -13.1230   22.2580 H   0  0  0  0  0  0
  -24.6562  -15.8396   20.5139 H   0  0  0  0  0  0
  -26.2695  -15.6328   20.0672 H   0  0  0  0  0  0
  -26.7133  -32.5513   23.1145 H   0  0  0  0  0  0
  -25.0127  -33.9795   25.0498 H   0  0  0  0  0  0
  -22.6955  -31.3101   21.4090 H   0  0  0  0  0  0
  -23.3751  -35.9663   23.3309 H   0  0  0  0  0  0
  -24.3579  -36.8921   22.2047 H   0  0  0  0  0  0
  -23.7255  -37.6536   23.6645 H   0  0  0  0  0  0
  -26.0588  -31.5869   20.5956 H   0  0  0  0  0  0
  -26.8225  -30.8716   21.9849 H   0  0  0  0  0  0
  -28.1028  -29.0835   21.1420 H   0  0  0  0  0  0
  -25.9676  -25.9451   19.0518 H   0  0  0  0  0  0
  -23.9553  -27.2822   19.0692 H   0  0  0  0  0  0
  -23.7347  -30.6016   19.4085 H   0  0  0  0  0  0
  -22.7325  -29.2550   19.8637 H   0  0  0  0  0  0
  -25.1288  -36.1980   25.0832 H   0  0  0  0  0  0
  -20.9966  -28.3243   24.1423 H   0  0  0  0  0  0
  -20.5769  -26.2274   23.3536 H   0  0  0  0  0  0
  -21.6666  -26.7482   22.1138 H   0  0  0  0  0  0
  -19.6893  -25.6267   21.1221 H   0  0  0  0  0  0
  -19.6642  -27.3168   20.6732 H   0  0  0  0  0  0
  -17.4177  -26.6597   21.4123 H   0  0  0  0  0  0
  -18.0383  -26.0071   22.9111 H   0  0  0  0  0  0
  -19.7926  -30.7270   24.2281 H   0  0  0  0  0  0
  -17.5033  -31.6257   24.5199 H   0  0  0  0  0  0
  -15.5372  -30.2994   23.7674 H   0  0  0  0  0  0
  -15.8681  -28.0829   22.7053 H   0  0  0  0  0  0
  -24.5912  -30.7058   25.7813 H   0  0  0  0  0  0
  -24.8959  -32.2863   26.4959 H   0  0  0  0  0  0
  -25.8115  -30.8848   27.0216 H   0  0  0  0  0  0
  -26.2872  -29.6787   24.1187 H   0  0  0  0  0  0
  -27.4098  -29.7294   25.4577 H   0  0  0  0  0  0
  -27.8701  -30.4352   23.9271 H   0  0  0  0  0  0
  -27.2663  -33.3606   26.2121 H   0  0  0  0  0  0
  -28.3859  -32.6911   25.0331 H   0  0  0  0  0  0
  -28.0739  -31.8424   26.5386 H   0  0  0  0  0  0
  -28.2609  -38.0105   24.7496 H   0  0  0  0  0  0
  -28.1072  -36.2634   24.6316 H   0  0  0  0  0  0
  -27.2302  -37.1503   25.8869 H   0  0  0  0  0  0
  -20.9295  -29.8736   21.6917 H   0  0  0  0  0  0
  -26.0191  -38.2883   24.1370 H   0  0  0  0  0  0
  -30.9900  -20.6787   21.7193 H   0  0  0  0  0  0
  -32.0067  -16.5443   22.3247 H   0  0  0  0  0  0
  -32.6157  -19.3647   23.8628 H   0  0  0  0  0  0
  -33.3385  -19.9333   22.3548 H   0  0  0  0  0  0
  -33.5968  -18.2718   22.8783 H   0  0  0  0  0  0
  -26.6345  -21.6654   18.8754 H   0  0  0  0  0  0
  -26.3815  -23.3921   18.8554 H   0  0  0  0  0  0
  -26.0682  -22.4891   20.3254 H   0  0  0  0  0  0
  -27.6128  -19.9922   20.3470 H   0  0  0  0  0  0
  -28.8630  -20.3576   19.1778 H   0  0  0  0  0  0
  -27.4874  -24.4362   21.1885 H   0  0  0  0  0  0
  -29.2159  -24.2688   21.2074 H   0  0  0  0  0  0
  -27.8561  -25.2546   18.6476 H   0  0  0  0  0  0
  -29.5046  -25.3033   19.0828 H   0  0  0  0  0  0
  -28.8334  -22.7853   19.0254 H   0  0  0  0  0  0
  -28.9145  -15.2478   21.1545 H   0  0  0  0  0  0
  -29.6730  -21.9086   21.0175 H   0  0  0  0  0  0
  -28.2060  -21.7139   21.6838 H   0  0  0  0  0  0
  1 25  1  0  0  0
  1 30  2  0  0  0
  1 83  1  0  0  0
  2  3  1  0  0  0
  2 25  1  0  0  0
  2 86  1  0  0  0
  2 87  1  0  0  0
  3  4  1  0  0  0
  3 88  1  0  0  0
  3 89  1  0  0  0
  4  5  1  0  0  0
  4 90  1  0  0  0
  4 91  1  0  0  0
  5  6  1  0  0  0
  5 26  1  0  0  0
  5 92  1  0  0  0
  6 25  1  0  0  0
  6 93  1  0  0  0
  6 94  1  0  0  0
  7  8  2  0  0  0
  7 26  1  0  0  0
  7 29  1  0  0  0
  8  9  1  0  0  0
  8 22  1  0  0  0
  9 10  1  0  0  0
  9 27  2  0  0  0
 10 11  2  0  0  0
 10 15  1  0  0  0
 11 12  1  0  0  0
 11 95  1  0  0  0
 12 13  2  0  0  0
 12 96  1  0  0  0
 13 14  1  0  0  0
 13 31  1  0  0  0
 14 15  2  0  0  0
 14 97  1  0  0  0
 15 98  1  0  0  0
 16 17  2  0  0  0
 16 21  1  0  0  0
 16 31  1  0  0  0
 17 18  1  0  0  0
 17 99  1  0  0  0
 18 19  2  0  0  0
 18100  1  0  0  0
 19 20  1  0  0  0
 19 24  1  0  0  0
 20 21  2  0  0  0
 20101  1  0  0  0
 21 23  1  0  0  0
 22 28  1  0  0  0
 22 32  2  0  0  0
 26 27  1  0  0  0
 28102  1  0  0  0
 28103  1  0  0  0
 29104  1  0  0  0
 29105  1  0  0  0
 33 34  1  0  0  0
 33 66  1  0  0  0
 33 70  2  0  0  0
 34 36  1  0  0  0
 34 59  1  0  0  0
 34106  1  0  0  0
 35 44  2  0  0  0
 35 45  1  0  0  0
 35 68  1  0  0  0
 36 56  1  0  0  0
 36107  1  0  0  0
 37 39  1  0  0  0
 37 47  1  0  0  0
 37 66  1  0  0  0
 37108  1  0  0  0
 38 43  2  0  0  0
 38 46  1  0  0  0
 38 47  1  0  0  0
 39 64  1  0  0  0
 39 67  2  0  0  0
 40 52  1  0  0  0
 40 53  2  0  0  0
 40 58  1  0  0  0
 41109  1  0  0  0
 41110  1  0  0  0
 41111  1  0  0  0
 41 48  1  0  0  0
 42 43  1  0  0  0
 42 66  1  0  0  0
 42112  1  0  0  0
 42113  1  0  0  0
 43 44  1  0  0  0
 44114  1  0  0  0
 45 46  2  0  0  0
 45115  1  0  0  0
 46116  1  0  0  0
 47117  1  0  0  0
 47118  1  0  0  0
 48 56  1  0  0  0
 48 65  1  0  0  0
 48119  1  0  0  0
 49 50  1  0  0  0
 49 53  1  0  0  0
 49 64  1  0  0  0
 49120  1  0  0  0
 50 51  1  0  0  0
 50121  1  0  0  0
 50122  1  0  0  0
 51 52  1  0  0  0
 51123  1  0  0  0
 51124  1  0  0  0
 52125  1  0  0  0
 52126  1  0  0  0
 53 54  1  0  0  0
 54 55  2  0  0  0
 54127  1  0  0  0
 55 57  1  0  0  0
 55128  1  0  0  0
 56 69  2  0  0  0
 57 58  2  0  0  0
 57129  1  0  0  0
 58130  1  0  0  0
 59 60  1  0  0  0
 59 61  1  0  0  0
 59 62  1  0  0  0
 60131  1  0  0  0
 60132  1  0  0  0
 60133  1  0  0  0
 61134  1  0  0  0
 61135  1  0  0  0
 61136  1  0  0  0
 62137  1  0  0  0
 62138  1  0  0  0
 62139  1  0  0  0
 63 65  1  0  0  0
 63140  1  0  0  0
 63141  1  0  0  0
 63142  1  0  0  0
 64143  1  0  0  0
 65144  1  0  0  0
 68 81  1  0  0  0
 71 73  2  0  0  0
 71 74  1  0  0  0
 71145  1  0  0  0
 72 73  1  0  0  0
 72 75  2  0  0  0
 72146  1  0  0  0
 73 77  1  0  0  0
 74 76  2  0  0  0
 74 79  1  0  0  0
 75 76  1  0  0  0
 75 83  1  0  0  0
 76 85  1  0  0  0
 77147  1  0  0  0
 77148  1  0  0  0
 77149  1  0  0  0
 78150  1  0  0  0
 78151  1  0  0  0
 78152  1  0  0  0
 78 82  1  0  0  0
 79 84  1  0  0  0
 79153  1  0  0  0
 79154  1  0  0  0
 80 81  1  0  0  0
 80 82  1  0  0  0
 80155  1  0  0  0
 80156  1  0  0  0
 81157  1  0  0  0
 81158  1  0  0  0
 82 84  1  0  0  0
 82159  1  0  0  0
 83160  1  0  0  0
 84161  1  0  0  0
 84162  1  0  0  0
M  CHG  1  84   1
M  ISO  4   1 100  68 101  81 101  83 100
M  END
> <chiral flag>
0

> <version>
0

> <s_m_source_file>
/data/baiqing/PycharmProjects/Reinvent-master-3.2/result/LINK_invent/BTK/process_docking_weight1_custom_sum_contain_oxygen_bond_distance_aromatic_linkinvent_7_9_3/rearranged_h_0013.sdf

> <i_m_source_file_index>
30

> <r_mmod_Potential_Energy-OPLS-2005>
-242.718963623047

> <r_mmod_Stretch_Energy-OPLS-2005>
43.7971458435059

> <r_mmod_Bend_Energy-OPLS-2005>
107.864135742188

> <r_mmod_Torsional_Energy-OPLS-2005>
223.712905883789

> <r_mmod_Improper_Torsional_Energy-OPLS-2005>
4.53146076202393

> <r_mmod_Van_der_Waal_Energy-OPLS-2005>
150.818664550781

> <r_mmod_Electrostatic_Energy-OPLS-2005>
-322.235107421875

> <r_mmod_Solvation_Energy-OPLS-2005>
-467.527221679688

> <b_mmod_Minimization_Converged-OPLS-2005>
0

> <r_mmod_RMS_Derivative-OPLS-2005>
2.51782393455505

$$$$
30
                    3D
 Structure written by MMmdl.
143150  0  0  1  0            999 V2000
  -30.1636  -16.0165   20.2837 C   0  0  0  0  0  0
  -30.4021  -13.3807   19.5097 C   0  0  0  0  0  0
  -29.5672  -12.7447   18.3499 C   0  0  0  0  0  0
  -28.1808  -12.2975   18.8321 C   0  0  0  0  0  0
  -27.5888  -13.3376   19.8001 C   0  0  2  0  0  0
  -28.5861  -13.8471   20.8777 C   0  0  0  0  0  0
  -25.2337  -13.8308   20.5832 C   0  0  0  0  0  0
  -24.1745  -13.0427   20.9297 C   0  0  0  0  0  0
  -24.6485  -11.6955   20.8763 C   0  0  0  0  0  0
  -23.9183  -10.4297   21.0405 C   0  0  0  0  0  0
  -24.3690   -9.4205   21.9200 C   0  0  0  0  0  0
  -23.6323   -8.2263   22.0773 C   0  0  0  0  0  0
  -22.4301   -8.0322   21.3557 C   0  0  0  0  0  0
  -21.9971   -9.0311   20.4658 C   0  0  0  0  0  0
  -22.7347  -10.2160   20.3056 C   0  0  0  0  0  0
  -21.6865   -6.0767   22.5277 C   0  0  0  0  0  0
  -21.4023   -6.5660   23.8211 C   0  0  0  0  0  0
  -21.3650   -5.6801   24.9170 C   0  0  0  0  0  0
  -21.6034   -4.3069   24.7210 C   0  0  0  0  0  0
  -21.8818   -3.8167   23.4328 C   0  0  0  0  0  0
  -21.9194   -4.6989   22.3390 C   0  0  0  0  0  0
  -22.7748  -13.5156   21.1899 C   0  0  0  0  0  0
  -22.1667   -4.2180   21.0968 F   0  0  0  0  0  0
  -21.5617   -3.4544   25.7721 F   0  0  0  0  0  0
  -29.6793  -14.5908   20.1704 N   0  0  0  0  0  0
  -26.2827  -12.9698   20.3296 N   0  0  0  0  0  0
  -25.9450  -11.6736   20.5678 N   0  0  0  0  0  0
  -22.0376  -12.8144   22.0431 N   0  0  0  0  0  0
  -25.3914  -15.2038   20.4227 N   0  0  0  0  0  0
  -31.4110  -15.8730   20.3150 O   0  0  0  0  0  0
  -21.6650   -6.8922   21.4243 O   0  0  0  0  0  0
  -22.3446  -14.5464   20.6738 O   0  0  0  0  0  0
  -24.7056  -31.7721   23.1279 C   0  0  0  0  0  0
  -25.9532  -32.4316   23.7901 C   0  0  1  0  0  0
  -27.2397  -26.4470   20.2423 C   0  0  0  0  0  0
  -25.6018  -33.8158   24.1777 N   0  0  0  0  0  0
  -23.5424  -30.3631   21.4905 C   0  0  2  0  0  0
  -25.0002  -28.6446   20.1351 C   0  0  0  0  0  0
  -22.7854  -29.4187   22.4644 C   0  0  0  0  0  0
  -18.0371  -28.1416   22.8423 C   0  0  0  0  0  0
  -24.1517  -36.7085   23.2660 C   0  0  0  0  0  0
  -26.1337  -30.4200   21.4327 C   0  0  0  0  0  0
  -26.1981  -28.9547   20.7902 C   0  0  0  0  0  0
  -27.2916  -27.8963   20.7967 C   0  0  0  0  0  0
  -26.0015  -26.4115   19.5305 C   0  0  0  0  0  0
  -24.9557  -27.3989   19.4822 C   0  0  0  0  0  0
  -23.8105  -29.6337   20.1397 C   0  0  0  0  0  0
  -25.4171  -36.2793   24.0256 C   0  0  1  0  0  0
  -20.6014  -28.3800   23.1070 C   0  0  2  0  0  0
  -20.6839  -26.9442   22.5381 C   0  0  0  0  0  0
  -19.5827  -26.6358   21.5191 C   0  0  0  0  0  0
  -18.2003  -26.7940   22.1583 C   0  0  0  0  0  0
  -19.1638  -28.8931   23.2716 C   0  0  0  0  0  0
  -18.9548  -30.1508   23.8772 C   0  0  0  0  0  0
  -17.6539  -30.6592   24.0541 C   0  0  0  0  0  0
  -25.9163  -34.9196   23.4875 C   0  0  0  0  0  0
  -16.5425  -29.9075   23.6350 C   0  0  0  0  0  0
  -16.7348  -28.6498   23.0359 C   0  0  0  0  0  0
  -26.4636  -31.6450   25.0620 C   0  0  0  0  0  0
  -25.3610  -31.3840   26.1159 C   0  0  0  0  0  0
  -27.0610  -30.2754   24.6715 C   0  0  0  0  0  0
  -27.6057  -32.4362   25.7419 C   0  0  0  0  0  0
  -27.5566  -37.1691   24.8469 C   0  0  0  0  0  0
  -21.4482  -29.3015   22.3371 N   0  0  0  0  0  0
  -26.4271  -37.3581   23.9410 N   0  0  0  0  0  0
  -24.8204  -30.8911   22.0685 N   0  0  0  0  0  0
  -23.4189  -28.7845   23.3110 O   0  0  0  0  0  0
  -28.2103  -25.1382   20.2091 O   0  0  0  0  0  0
  -26.5834  -34.8827   22.4520 O   0  0  0  0  0  0
  -23.6030  -32.0923   23.6086 O   0  0  0  0  0  0
  -28.1464  -17.3478   19.4672 C   0  0  0  0  0  0
  -28.8124  -21.3013   19.9737 C   0  0  0  0  0  0
  -29.3809  -19.3622   20.5689 C   0  0  0  0  0  0
  -28.2518  -23.2636   20.5080 C   0  0  0  0  0  0
  -29.4090  -17.4905   20.1879 N   0  0  0  0  0  0
  -31.3491  -13.7206   19.0871 H   0  0  0  0  0  0
  -30.6891  -12.6298   20.2484 H   0  0  0  0  0  0
  -30.1007  -11.9032   17.9056 H   0  0  0  0  0  0
  -29.4507  -13.4882   17.5599 H   0  0  0  0  0  0
  -28.2969  -11.3475   19.3561 H   0  0  0  0  0  0
  -27.5119  -12.1116   17.9905 H   0  0  0  0  0  0
  -27.3888  -14.1854   19.1460 H   0  0  0  0  0  0
  -28.9521  -13.0395   21.5131 H   0  0  0  0  0  0
  -28.0824  -14.5461   21.5462 H   0  0  0  0  0  0
  -25.2818   -9.5670   22.4811 H   0  0  0  0  0  0
  -24.0006   -7.4646   22.7503 H   0  0  0  0  0  0
  -21.0901   -8.8859   19.8964 H   0  0  0  0  0  0
  -22.3825  -10.9720   19.6176 H   0  0  0  0  0  0
  -21.2033   -7.6171   23.9723 H   0  0  0  0  0  0
  -21.1463   -6.0535   25.9069 H   0  0  0  0  0  0
  -22.0599   -2.7631   23.2819 H   0  0  0  0  0  0
  -22.3953  -11.9803   22.4832 H   0  0  0  0  0  0
  -21.0994  -13.1198   22.2586 H   0  0  0  0  0  0
  -24.6180  -15.8537   20.5135 H   0  0  0  0  0  0
  -26.2365  -15.6377   20.0778 H   0  0  0  0  0  0
  -26.7628  -32.4715   23.0604 H   0  0  0  0  0  0
  -25.0022  -33.9142   24.9835 H   0  0  0  0  0  0
  -22.8827  -31.2078   21.2796 H   0  0  0  0  0  0
  -23.3793  -35.9400   23.3237 H   0  0  0  0  0  0
  -24.3589  -36.8852   22.2098 H   0  0  0  0  0  0
  -23.7284  -37.6231   23.6819 H   0  0  0  0  0  0
  -26.3696  -31.1317   20.6405 H   0  0  0  0  0  0
  -26.9701  -30.4928   22.1139 H   0  0  0  0  0  0
  -28.1969  -28.1645   21.3228 H   0  0  0  0  0  0
  -25.7942  -25.4939   18.9988 H   0  0  0  0  0  0
  -24.0597  -27.1443   18.9321 H   0  0  0  0  0  0
  -24.0068  -30.3831   19.3723 H   0  0  0  0  0  0
  -22.9079  -29.1151   19.8100 H   0  0  0  0  0  0
  -25.1403  -36.1503   25.0741 H   0  0  0  0  0  0
  -21.0074  -28.3462   24.1202 H   0  0  0  0  0  0
  -20.5710  -26.2429   23.3662 H   0  0  0  0  0  0
  -21.6702  -26.7377   22.1213 H   0  0  0  0  0  0
  -19.7002  -25.6243   21.1297 H   0  0  0  0  0  0
  -19.6788  -27.3096   20.6667 H   0  0  0  0  0  0
  -17.4282  -26.6659   21.3976 H   0  0  0  0  0  0
  -18.0400  -26.0087   22.8982 H   0  0  0  0  0  0
  -19.8041  -30.7337   24.2090 H   0  0  0  0  0  0
  -17.5110  -31.6270   24.5154 H   0  0  0  0  0  0
  -15.5426  -30.2945   23.7749 H   0  0  0  0  0  0
  -15.8745  -28.0788   22.7127 H   0  0  0  0  0  0
  -24.5835  -30.7168   25.7404 H   0  0  0  0  0  0
  -24.8745  -32.3083   26.4274 H   0  0  0  0  0  0
  -25.7670  -30.9167   27.0138 H   0  0  0  0  0  0
  -26.3378  -29.6279   24.1734 H   0  0  0  0  0  0
  -27.3964  -29.7306   25.5554 H   0  0  0  0  0  0
  -27.9394  -30.3809   24.0341 H   0  0  0  0  0  0
  -27.2609  -33.3796   26.1651 H   0  0  0  0  0  0
  -28.4001  -32.6704   25.0320 H   0  0  0  0  0  0
  -28.0563  -31.8717   26.5586 H   0  0  0  0  0  0
  -28.2518  -38.0043   24.7519 H   0  0  0  0  0  0
  -28.1127  -36.2561   24.6293 H   0  0  0  0  0  0
  -27.2274  -37.1305   25.8866 H   0  0  0  0  0  0
  -20.9828  -29.8607   21.6350 H   0  0  0  0  0  0
  -26.0066  -38.2612   24.1440 H   0  0  0  0  0  0
  -28.1011  -18.0711   18.6522 H   0  0  0  0  0  0
  -27.3084  -17.5390   20.1372 H   0  0  0  0  0  0
  -28.0019  -16.3666   19.0140 H   0  0  0  0  0  0
  -28.0363  -21.0683   19.2450 H   0  0  0  0  0  0
  -29.6673  -21.5348   19.3396 H   0  0  0  0  0  0
  -28.8748  -19.3113   21.5346 H   0  0  0  0  0  0
  -30.4241  -19.5134   20.8524 H   0  0  0  0  0  0
  -27.2187  -23.1099   20.8199 H   0  0  0  0  0  0
  -28.7962  -23.3194   21.4512 H   0  0  0  0  0  0
  1 25  1  0  0  0
  1 30  2  0  0  0
  1 75  1  0  0  0
  2  3  1  0  0  0
  2 25  1  0  0  0
  2 76  1  0  0  0
  2 77  1  0  0  0
  3  4  1  0  0  0
  3 78  1  0  0  0
  3 79  1  0  0  0
  4  5  1  0  0  0
  4 80  1  0  0  0
  4 81  1  0  0  0
  5  6  1  0  0  0
  5 26  1  0  0  0
  5 82  1  0  0  0
  6 25  1  0  0  0
  6 83  1  0  0  0
  6 84  1  0  0  0
  7  8  2  0  0  0
  7 26  1  0  0  0
  7 29  1  0  0  0
  8  9  1  0  0  0
  8 22  1  0  0  0
  9 10  1  0  0  0
  9 27  2  0  0  0
 10 11  2  0  0  0
 10 15  1  0  0  0
 11 12  1  0  0  0
 11 85  1  0  0  0
 12 13  2  0  0  0
 12 86  1  0  0  0
 13 14  1  0  0  0
 13 31  1  0  0  0
 14 15  2  0  0  0
 14 87  1  0  0  0
 15 88  1  0  0  0
 16 17  2  0  0  0
 16 21  1  0  0  0
 16 31  1  0  0  0
 17 18  1  0  0  0
 17 89  1  0  0  0
 18 19  2  0  0  0
 18 90  1  0  0  0
 19 20  1  0  0  0
 19 24  1  0  0  0
 20 21  2  0  0  0
 20 91  1  0  0  0
 21 23  1  0  0  0
 22 28  1  0  0  0
 22 32  2  0  0  0
 26 27  1  0  0  0
 28 92  1  0  0  0
 28 93  1  0  0  0
 29 94  1  0  0  0
 29 95  1  0  0  0
 33 34  1  0  0  0
 33 66  1  0  0  0
 33 70  2  0  0  0
 34 36  1  0  0  0
 34 59  1  0  0  0
 34 96  1  0  0  0
 35 44  2  0  0  0
 35 45  1  0  0  0
 35 68  1  0  0  0
 36 56  1  0  0  0
 36 97  1  0  0  0
 37 39  1  0  0  0
 37 47  1  0  0  0
 37 66  1  0  0  0
 37 98  1  0  0  0
 38 43  2  0  0  0
 38 46  1  0  0  0
 38 47  1  0  0  0
 39 64  1  0  0  0
 39 67  2  0  0  0
 40 52  1  0  0  0
 40 53  2  0  0  0
 40 58  1  0  0  0
 41 99  1  0  0  0
 41100  1  0  0  0
 41101  1  0  0  0
 41 48  1  0  0  0
 42 43  1  0  0  0
 42 66  1  0  0  0
 42102  1  0  0  0
 42103  1  0  0  0
 43 44  1  0  0  0
 44104  1  0  0  0
 45 46  2  0  0  0
 45105  1  0  0  0
 46106  1  0  0  0
 47107  1  0  0  0
 47108  1  0  0  0
 48 56  1  0  0  0
 48 65  1  0  0  0
 48109  1  0  0  0
 49 50  1  0  0  0
 49 53  1  0  0  0
 49 64  1  0  0  0
 49110  1  0  0  0
 50 51  1  0  0  0
 50111  1  0  0  0
 50112  1  0  0  0
 51 52  1  0  0  0
 51113  1  0  0  0
 51114  1  0  0  0
 52115  1  0  0  0
 52116  1  0  0  0
 53 54  1  0  0  0
 54 55  2  0  0  0
 54117  1  0  0  0
 55 57  1  0  0  0
 55118  1  0  0  0
 56 69  2  0  0  0
 57 58  2  0  0  0
 57119  1  0  0  0
 58120  1  0  0  0
 59 60  1  0  0  0
 59 61  1  0  0  0
 59 62  1  0  0  0
 60121  1  0  0  0
 60122  1  0  0  0
 60123  1  0  0  0
 61124  1  0  0  0
 61125  1  0  0  0
 61126  1  0  0  0
 62127  1  0  0  0
 62128  1  0  0  0
 62129  1  0  0  0
 63 65  1  0  0  0
 63130  1  0  0  0
 63131  1  0  0  0
 63132  1  0  0  0
 64133  1  0  0  0
 65134  1  0  0  0
 68 74  1  0  0  0
 71 75  1  0  0  0
 71135  1  0  0  0
 71136  1  0  0  0
 71137  1  0  0  0
 72 73  1  0  0  0
 72 74  1  0  0  0
 72138  1  0  0  0
 72139  1  0  0  0
 73 75  1  0  0  0
 73140  1  0  0  0
 73141  1  0  0  0
 74142  1  0  0  0
 74143  1  0  0  0
M  ISO  4   1 100  68 101  74 101  75 100
M  END
> <chiral flag>
0

> <version>
0

> <s_m_source_file>
/data/baiqing/PycharmProjects/Reinvent-master-3.2/result/LINK_invent/BTK/process_docking_weight1_custom_sum_contain_oxygen_bond_distance_aromatic_linkinvent_7_9_3/rearranged_h_0013.sdf

> <i_m_source_file_index>
31

> <r_mmod_Potential_Energy-OPLS-2005>
4303.49072265625

> <r_mmod_Stretch_Energy-OPLS-2005>
1937.3203125

> <r_mmod_Bend_Energy-OPLS-2005>
891.069641113281

> <r_mmod_Torsional_Energy-OPLS-2005>
308.0107421875

> <r_mmod_Improper_Torsional_Energy-OPLS-2005>
4.89766931533813

> <r_mmod_Van_der_Waal_Energy-OPLS-2005>
112.25927734375

> <r_mmod_Electrostatic_Energy-OPLS-2005>
-274.442291259766

> <r_mmod_Solvation_Energy-OPLS-2005>
-215.008483886719

> <b_mmod_Minimization_Converged-OPLS-2005>
0

> <r_mmod_RMS_Derivative-OPLS-2005>
2.3036835193634

$$$$
31
                    3D
 Structure written by MMmdl.
161169  0  0  1  0            999 V2000
  -30.7153  -14.5043   20.4641 C   0  0  0  0  0  0
  -30.4229  -12.3035   19.4305 C   0  0  0  0  0  0
  -29.4919  -12.4692   18.2122 C   0  0  0  0  0  0
  -28.0161  -12.3328   18.6369 C   0  0  0  0  0  0
  -27.6614  -13.2089   19.8671 C   0  0  2  0  0  0
  -28.7139  -13.0605   20.9918 C   0  0  0  0  0  0
  -25.2608  -13.8166   20.5728 C   0  0  0  0  0  0
  -24.1854  -13.0431   20.9154 C   0  0  0  0  0  0
  -24.6423  -11.6904   20.8711 C   0  0  0  0  0  0
  -23.9112  -10.4282   21.0391 C   0  0  0  0  0  0
  -24.3644   -9.4192   21.9172 C   0  0  0  0  0  0
  -23.6307   -8.2237   22.0766 C   0  0  0  0  0  0
  -22.4298   -8.0268   21.3532 C   0  0  0  0  0  0
  -21.9937   -9.0251   20.4634 C   0  0  0  0  0  0
  -22.7283  -10.2121   20.3043 C   0  0  0  0  0  0
  -21.6855   -6.0744   22.5275 C   0  0  0  0  0  0
  -21.4003   -6.5645   23.8204 C   0  0  0  0  0  0
  -21.3658   -5.6796   24.9162 C   0  0  0  0  0  0
  -21.6047   -4.3061   24.7201 C   0  0  0  0  0  0
  -21.8815   -3.8152   23.4319 C   0  0  0  0  0  0
  -21.9197   -4.6976   22.3384 C   0  0  0  0  0  0
  -22.7862  -13.5248   21.1784 C   0  0  0  0  0  0
  -22.1655   -4.2157   21.0956 F   0  0  0  0  0  0
  -21.5642   -3.4546   25.7714 F   0  0  0  0  0  0
  -30.0373  -13.3298   20.4099 N   0  0  0  0  0  0
  -26.3059  -12.9342   20.3417 N   0  0  0  0  0  0
  -25.9369  -11.6503   20.5822 N   0  0  0  0  0  0
  -22.0479  -12.8279   22.0336 N   0  0  0  0  0  0
  -25.4376  -15.1887   20.4203 N   0  0  0  0  0  0
  -31.9017  -14.5873   20.1399 O   0  0  0  0  0  0
  -21.6634   -6.8885   21.4240 O   0  0  0  0  0  0
  -22.3569  -14.5564   20.6616 O   0  0  0  0  0  0
  -24.6145  -31.8677   23.2116 C   0  0  0  0  0  0
  -25.9023  -32.4822   23.8409 C   0  0  1  0  0  0
  -27.2282  -27.4330   20.0780 C   0  0  0  0  0  0
  -25.5869  -33.8623   24.2333 N   0  0  0  0  0  0
  -23.4009  -30.4934   21.5541 C   0  0  2  0  0  0
  -24.8445  -28.9488   20.1267 C   0  0  0  0  0  0
  -22.7370  -29.4711   22.5027 C   0  0  0  0  0  0
  -18.0270  -28.1376   22.8488 C   0  0  0  0  0  0
  -24.1487  -36.7316   23.2641 C   0  0  0  0  0  0
  -25.9316  -30.8344   21.3610 C   0  0  0  0  0  0
  -26.0093  -29.4662   20.7086 C   0  0  0  0  0  0
  -27.2081  -28.7179   20.6727 C   0  0  0  0  0  0
  -26.0462  -26.9234   19.5059 C   0  0  0  0  0  0
  -24.8565  -27.6772   19.5265 C   0  0  0  0  0  0
  -23.6085  -29.8187   20.1733 C   0  0  0  0  0  0
  -25.4102  -36.3114   24.0336 C   0  0  1  0  0  0
  -20.5851  -28.3687   23.1302 C   0  0  2  0  0  0
  -20.6805  -26.9426   22.5402 C   0  0  0  0  0  0
  -19.5745  -26.6341   21.5262 C   0  0  0  0  0  0
  -18.1918  -26.7925   22.1622 C   0  0  0  0  0  0
  -19.1518  -28.8831   23.2897 C   0  0  0  0  0  0
  -18.9428  -30.1425   23.8896 C   0  0  0  0  0  0
  -17.6432  -30.6567   24.0509 C   0  0  0  0  0  0
  -25.9016  -34.9477   23.5135 C   0  0  0  0  0  0
  -16.5307  -29.9085   23.6273 C   0  0  0  0  0  0
  -16.7258  -28.6487   23.0333 C   0  0  0  0  0  0
  -26.4453  -31.6605   25.0732 C   0  0  0  0  0  0
  -25.3722  -31.3709   26.1481 C   0  0  0  0  0  0
  -27.0277  -30.3043   24.6099 C   0  0  0  0  0  0
  -27.6017  -32.4350   25.7472 C   0  0  0  0  0  0
  -27.5574  -37.1819   24.8464 C   0  0  0  0  0  0
  -21.4096  -29.3094   22.3728 N   0  0  0  0  0  0
  -26.4296  -37.3791   23.9402 N   0  0  0  0  0  0
  -24.6684  -31.0782   22.1009 N   0  0  0  0  0  0
  -23.4124  -28.8221   23.3062 O   0  0  0  0  0  0
  -28.4002  -26.7143   19.9973 O   0  0  0  0  0  0
  -26.5605  -34.8908   22.4704 O   0  0  0  0  0  0
  -23.5343  -32.1422   23.7512 O   0  0  0  0  0  0
  -31.2520  -17.3267   19.3822 C   0  0  0  0  0  0
  -31.5245  -18.6741   19.0876 C   0  0  0  0  0  0
  -30.2310  -16.9714   20.2933 C   0  0  0  0  0  0
  -29.6598  -19.3950   20.5311 C   0  0  0  0  0  0
  -30.7707  -19.7044   19.6886 C   0  0  0  0  0  0
  -29.3996  -18.0057   20.8054 C   0  0  0  0  0  0
  -32.6502  -19.0051   18.1226 C   0  0  0  0  0  0
  -28.4977  -20.3781   22.5071 C   0  0  0  0  0  0
  -28.6290  -22.9502   20.8486 C   0  0  0  0  0  0
  -28.1668  -24.1812   20.0256 C   0  0  0  0  0  0
  -28.3160  -21.5405   20.2711 C   0  0  0  0  0  0
  -28.4817  -25.5090   20.7718 C   0  0  0  0  0  0
  -29.9662  -15.6049   20.6820 N   0  0  0  0  0  0
  -28.8743  -20.4504   21.0964 N   0  0  0  0  0  0
  -31.2759  -21.3374   19.3831 Cl  0  0  0  0  0  0
  -28.0189  -17.4913   21.7291 Cl  0  0  0  0  0  0
  -31.4651  -12.3828   19.1167 H   0  0  0  0  0  0
  -30.3171  -11.3133   19.8743 H   0  0  0  0  0  0
  -29.7320  -11.7262   17.4503 H   0  0  0  0  0  0
  -29.6531  -13.4443   17.7518 H   0  0  0  0  0  0
  -27.8415  -11.2829   18.8737 H   0  0  0  0  0  0
  -27.3566  -12.5718   17.8013 H   0  0  0  0  0  0
  -27.6886  -14.2441   19.5247 H   0  0  0  0  0  0
  -28.6958  -12.0553   21.4167 H   0  0  0  0  0  0
  -28.4957  -13.7401   21.8188 H   0  0  0  0  0  0
  -25.2765   -9.5691   22.4771 H   0  0  0  0  0  0
  -23.9969   -7.4685   22.7567 H   0  0  0  0  0  0
  -21.0840   -8.8802   19.8980 H   0  0  0  0  0  0
  -22.3742  -10.9659   19.6162 H   0  0  0  0  0  0
  -21.1962   -7.6151   23.9704 H   0  0  0  0  0  0
  -21.1495   -6.0518   25.9067 H   0  0  0  0  0  0
  -22.0594   -2.7615   23.2815 H   0  0  0  0  0  0
  -22.4070  -11.9942   22.4750 H   0  0  0  0  0  0
  -21.1090  -13.1310   22.2529 H   0  0  0  0  0  0
  -24.6896  -15.8473   20.6037 H   0  0  0  0  0  0
  -26.3116  -15.6373   20.1833 H   0  0  0  0  0  0
  -26.7079  -32.5549   23.1175 H   0  0  0  0  0  0
  -24.9989  -33.9792   25.0449 H   0  0  0  0  0  0
  -22.6901  -31.3113   21.4185 H   0  0  0  0  0  0
  -23.3735  -35.9664   23.3325 H   0  0  0  0  0  0
  -24.3571  -36.8912   22.2051 H   0  0  0  0  0  0
  -23.7264  -37.6534   23.6642 H   0  0  0  0  0  0
  -26.0422  -31.6043   20.5959 H   0  0  0  0  0  0
  -26.8227  -30.8885   21.9765 H   0  0  0  0  0  0
  -28.1202  -29.1263   21.0846 H   0  0  0  0  0  0
  -26.0458  -25.9583   19.0197 H   0  0  0  0  0  0
  -23.9579  -27.2802   19.0754 H   0  0  0  0  0  0
  -23.7183  -30.5933   19.4126 H   0  0  0  0  0  0
  -22.7314  -29.2417   19.8774 H   0  0  0  0  0  0
  -25.1295  -36.1966   25.0832 H   0  0  0  0  0  0
  -20.9966  -28.3260   24.1406 H   0  0  0  0  0  0
  -20.5722  -26.2291   23.3572 H   0  0  0  0  0  0
  -21.6675  -26.7519   22.1148 H   0  0  0  0  0  0
  -19.6900  -25.6245   21.1303 H   0  0  0  0  0  0
  -19.6643  -27.3111   20.6783 H   0  0  0  0  0  0
  -17.4223  -26.6767   21.3962 H   0  0  0  0  0  0
  -18.0262  -26.0016   22.8934 H   0  0  0  0  0  0
  -19.7880  -30.7234   24.2293 H   0  0  0  0  0  0
  -17.4974  -31.6254   24.5078 H   0  0  0  0  0  0
  -15.5294  -30.2991   23.7549 H   0  0  0  0  0  0
  -15.8658  -28.0790   22.7075 H   0  0  0  0  0  0
  -24.5856  -30.7101   25.7825 H   0  0  0  0  0  0
  -24.8938  -32.2866   26.4969 H   0  0  0  0  0  0
  -25.8055  -30.8844   27.0221 H   0  0  0  0  0  0
  -26.2818  -29.6812   24.1145 H   0  0  0  0  0  0
  -27.4045  -29.7264   25.4549 H   0  0  0  0  0  0
  -27.8652  -30.4361   23.9241 H   0  0  0  0  0  0
  -27.2605  -33.3619   26.2086 H   0  0  0  0  0  0
  -28.3774  -32.6976   25.0270 H   0  0  0  0  0  0
  -28.0742  -31.8472   26.5353 H   0  0  0  0  0  0
  -28.2630  -38.0089   24.7490 H   0  0  0  0  0  0
  -28.1052  -36.2620   24.6331 H   0  0  0  0  0  0
  -27.2289  -37.1517   25.8874 H   0  0  0  0  0  0
  -20.9332  -29.8768   21.6856 H   0  0  0  0  0  0
  -26.0183  -38.2871   24.1393 H   0  0  0  0  0  0
  -31.8522  -16.5766   18.8889 H   0  0  0  0  0  0
  -33.4712  -19.4829   18.6595 H   0  0  0  0  0  0
  -32.3011  -19.6870   17.3444 H   0  0  0  0  0  0
  -33.0460  -18.1146   17.6350 H   0  0  0  0  0  0
  -27.4275  -20.1901   22.6095 H   0  0  0  0  0  0
  -28.7142  -21.3143   23.0192 H   0  0  0  0  0  0
  -29.0401  -19.6018   23.0482 H   0  0  0  0  0  0
  -29.7042  -23.0341   21.0094 H   0  0  0  0  0  0
  -28.1693  -23.0361   21.8322 H   0  0  0  0  0  0
  -27.0973  -24.1034   19.8241 H   0  0  0  0  0  0
  -28.6654  -24.1716   19.0569 H   0  0  0  0  0  0
  -28.6628  -21.4682   19.2388 H   0  0  0  0  0  0
  -27.2334  -21.4138   20.2223 H   0  0  0  0  0  0
  -29.5164  -25.4707   21.1192 H   0  0  0  0  0  0
  -27.8717  -25.5837   21.6728 H   0  0  0  0  0  0
  -29.0590  -15.4453   21.0986 H   0  0  0  0  0  0
  1 25  1  0  0  0
  1 30  2  0  0  0
  1 83  1  0  0  0
  2  3  1  0  0  0
  2 25  1  0  0  0
  2 87  1  0  0  0
  2 88  1  0  0  0
  3  4  1  0  0  0
  3 89  1  0  0  0
  3 90  1  0  0  0
  4  5  1  0  0  0
  4 91  1  0  0  0
  4 92  1  0  0  0
  5  6  1  0  0  0
  5 26  1  0  0  0
  5 93  1  0  0  0
  6 25  1  0  0  0
  6 94  1  0  0  0
  6 95  1  0  0  0
  7  8  2  0  0  0
  7 26  1  0  0  0
  7 29  1  0  0  0
  8  9  1  0  0  0
  8 22  1  0  0  0
  9 10  1  0  0  0
  9 27  2  0  0  0
 10 11  2  0  0  0
 10 15  1  0  0  0
 11 12  1  0  0  0
 11 96  1  0  0  0
 12 13  2  0  0  0
 12 97  1  0  0  0
 13 14  1  0  0  0
 13 31  1  0  0  0
 14 15  2  0  0  0
 14 98  1  0  0  0
 15 99  1  0  0  0
 16 17  2  0  0  0
 16 21  1  0  0  0
 16 31  1  0  0  0
 17 18  1  0  0  0
 17100  1  0  0  0
 18 19  2  0  0  0
 18101  1  0  0  0
 19 20  1  0  0  0
 19 24  1  0  0  0
 20 21  2  0  0  0
 20102  1  0  0  0
 21 23  1  0  0  0
 22 28  1  0  0  0
 22 32  2  0  0  0
 26 27  1  0  0  0
 28103  1  0  0  0
 28104  1  0  0  0
 29105  1  0  0  0
 29106  1  0  0  0
 33 34  1  0  0  0
 33 66  1  0  0  0
 33 70  2  0  0  0
 34 36  1  0  0  0
 34 59  1  0  0  0
 34107  1  0  0  0
 35 44  2  0  0  0
 35 45  1  0  0  0
 35 68  1  0  0  0
 36 56  1  0  0  0
 36108  1  0  0  0
 37 39  1  0  0  0
 37 47  1  0  0  0
 37 66  1  0  0  0
 37109  1  0  0  0
 38 43  2  0  0  0
 38 46  1  0  0  0
 38 47  1  0  0  0
 39 64  1  0  0  0
 39 67  2  0  0  0
 40 52  1  0  0  0
 40 53  2  0  0  0
 40 58  1  0  0  0
 41110  1  0  0  0
 41111  1  0  0  0
 41112  1  0  0  0
 41 48  1  0  0  0
 42 43  1  0  0  0
 42 66  1  0  0  0
 42113  1  0  0  0
 42114  1  0  0  0
 43 44  1  0  0  0
 44115  1  0  0  0
 45 46  2  0  0  0
 45116  1  0  0  0
 46117  1  0  0  0
 47118  1  0  0  0
 47119  1  0  0  0
 48 56  1  0  0  0
 48 65  1  0  0  0
 48120  1  0  0  0
 49 50  1  0  0  0
 49 53  1  0  0  0
 49 64  1  0  0  0
 49121  1  0  0  0
 50 51  1  0  0  0
 50122  1  0  0  0
 50123  1  0  0  0
 51 52  1  0  0  0
 51124  1  0  0  0
 51125  1  0  0  0
 52126  1  0  0  0
 52127  1  0  0  0
 53 54  1  0  0  0
 54 55  2  0  0  0
 54128  1  0  0  0
 55 57  1  0  0  0
 55129  1  0  0  0
 56 69  2  0  0  0
 57 58  2  0  0  0
 57130  1  0  0  0
 58131  1  0  0  0
 59 60  1  0  0  0
 59 61  1  0  0  0
 59 62  1  0  0  0
 60132  1  0  0  0
 60133  1  0  0  0
 60134  1  0  0  0
 61135  1  0  0  0
 61136  1  0  0  0
 61137  1  0  0  0
 62138  1  0  0  0
 62139  1  0  0  0
 62140  1  0  0  0
 63 65  1  0  0  0
 63141  1  0  0  0
 63142  1  0  0  0
 63143  1  0  0  0
 64144  1  0  0  0
 65145  1  0  0  0
 68 82  1  0  0  0
 71 72  2  0  0  0
 71 73  1  0  0  0
 71146  1  0  0  0
 72 75  1  0  0  0
 72 77  1  0  0  0
 73 76  2  0  0  0
 73 83  1  0  0  0
 74 75  2  0  0  0
 74 76  1  0  0  0
 74 84  1  0  0  0
 75 85  1  0  0  0
 76 86  1  0  0  0
 77147  1  0  0  0
 77148  1  0  0  0
 77149  1  0  0  0
 78 84  1  0  0  0
 78150  1  0  0  0
 78151  1  0  0  0
 78152  1  0  0  0
 79 80  1  0  0  0
 79 81  1  0  0  0
 79153  1  0  0  0
 79154  1  0  0  0
 80 82  1  0  0  0
 80155  1  0  0  0
 80156  1  0  0  0
 81 84  1  0  0  0
 81157  1  0  0  0
 81158  1  0  0  0
 82159  1  0  0  0
 82160  1  0  0  0
 83161  1  0  0  0
M  ISO  4   1 100  68 101  82 101  83 100
M  END
> <chiral flag>
0

> <version>
0

> <s_m_source_file>
/data/baiqing/PycharmProjects/Reinvent-master-3.2/result/LINK_invent/BTK/process_docking_weight1_custom_sum_contain_oxygen_bond_distance_aromatic_linkinvent_7_9_3/rearranged_h_0013.sdf

> <i_m_source_file_index>
32

> <r_mmod_Potential_Energy-OPLS-2005>
98.9012145996094

> <r_mmod_Stretch_Energy-OPLS-2005>
46.0866241455078

> <r_mmod_Bend_Energy-OPLS-2005>
117.748710632324

> <r_mmod_Torsional_Energy-OPLS-2005>
252.248397827148

> <r_mmod_Improper_Torsional_Energy-OPLS-2005>
5.13807487487793

> <r_mmod_Van_der_Waal_Energy-OPLS-2005>
169.469223022461

> <r_mmod_Electrostatic_Energy-OPLS-2005>
-313.809356689453

> <r_mmod_Solvation_Energy-OPLS-2005>
-199.112106323242

> <b_mmod_Minimization_Converged-OPLS-2005>
0

> <r_mmod_RMS_Derivative-OPLS-2005>
4.64673328399658

$$$$
32
                    3D
 Structure written by MMmdl.
155163  0  0  1  0            999 V2000
  -30.5271  -15.0098   20.3997 C   0  0  0  0  0  0
  -30.4350  -12.6289   19.5009 C   0  0  0  0  0  0
  -29.5220  -12.5380   18.2563 C   0  0  0  0  0  0
  -28.0560  -12.3182   18.6738 C   0  0  0  0  0  0
  -27.6231  -13.2565   19.8309 C   0  0  2  0  0  0
  -28.6651  -13.3172   20.9671 C   0  0  0  0  0  0
  -25.2432  -13.8226   20.5710 C   0  0  0  0  0  0
  -24.1764  -13.0437   20.9231 C   0  0  0  0  0  0
  -24.6392  -11.6927   20.8753 C   0  0  0  0  0  0
  -23.9080  -10.4291   21.0407 C   0  0  0  0  0  0
  -24.3631   -9.4205   21.9186 C   0  0  0  0  0  0
  -23.6302   -8.2243   22.0757 C   0  0  0  0  0  0
  -22.4283   -8.0280   21.3544 C   0  0  0  0  0  0
  -21.9921   -9.0252   20.4645 C   0  0  0  0  0  0
  -22.7255  -10.2129   20.3053 C   0  0  0  0  0  0
  -21.6854   -6.0735   22.5279 C   0  0  0  0  0  0
  -21.4016   -6.5640   23.8214 C   0  0  0  0  0  0
  -21.3659   -5.6795   24.9175 C   0  0  0  0  0  0
  -21.6043   -4.3056   24.7226 C   0  0  0  0  0  0
  -21.8820   -3.8145   23.4349 C   0  0  0  0  0  0
  -21.9193   -4.6961   22.3403 C   0  0  0  0  0  0
  -22.7783  -13.5202   21.1886 C   0  0  0  0  0  0
  -22.1661   -4.2148   21.0981 F   0  0  0  0  0  0
  -21.5626   -3.4537   25.7739 F   0  0  0  0  0  0
  -29.9296  -13.7449   20.3571 N   0  0  0  0  0  0
  -26.2859  -12.9472   20.3217 N   0  0  0  0  0  0
  -25.9327  -11.6593   20.5720 N   0  0  0  0  0  0
  -22.0428  -12.8191   22.0440 N   0  0  0  0  0  0
  -25.4068  -15.1956   20.4145 N   0  0  0  0  0  0
  -31.7402  -15.0299   20.1600 O   0  0  0  0  0  0
  -21.6644   -6.8879   21.4243 O   0  0  0  0  0  0
  -22.3466  -14.5506   20.6729 O   0  0  0  0  0  0
  -24.6486  -31.8393   23.1826 C   0  0  0  0  0  0
  -25.9243  -32.4666   23.8227 C   0  0  1  0  0  0
  -27.2151  -27.0967   20.1510 C   0  0  0  0  0  0
  -25.5975  -33.8474   24.2152 N   0  0  0  0  0  0
  -23.4527  -30.4581   21.5286 C   0  0  2  0  0  0
  -24.9018  -28.8771   20.1087 C   0  0  0  0  0  0
  -22.7584  -29.4530   22.4827 C   0  0  0  0  0  0
  -18.0310  -28.1401   22.8472 C   0  0  0  0  0  0
  -24.1493  -36.7244   23.2636 C   0  0  0  0  0  0
  -26.0109  -30.7031   21.3830 C   0  0  0  0  0  0
  -26.0819  -29.3096   20.7259 C   0  0  0  0  0  0
  -27.2396  -28.4370   20.7261 C   0  0  0  0  0  0
  -26.0048  -26.7736   19.4985 C   0  0  0  0  0  0
  -24.8783  -27.6243   19.4780 C   0  0  0  0  0  0
  -23.6804  -29.7830   20.1497 C   0  0  0  0  0  0
  -25.4124  -36.3009   24.0308 C   0  0  1  0  0  0
  -20.5924  -28.3735   23.1219 C   0  0  2  0  0  0
  -20.6796  -26.9436   22.5396 C   0  0  0  0  0  0
  -19.5769  -26.6386   21.5206 C   0  0  0  0  0  0
  -18.1950  -26.7940   22.1617 C   0  0  0  0  0  0
  -19.1567  -28.8886   23.2838 C   0  0  0  0  0  0
  -18.9483  -30.1480   23.8869 C   0  0  0  0  0  0
  -17.6478  -30.6596   24.0558 C   0  0  0  0  0  0
  -25.9082  -34.9393   23.5038 C   0  0  0  0  0  0
  -16.5369  -29.9088   23.6338 C   0  0  0  0  0  0
  -16.7294  -28.6507   23.0357 C   0  0  0  0  0  0
  -26.4555  -31.6537   25.0677 C   0  0  0  0  0  0
  -25.3730  -31.3746   26.1360 C   0  0  0  0  0  0
  -27.0414  -30.2925   24.6273 C   0  0  0  0  0  0
  -27.6072  -32.4298   25.7483 C   0  0  0  0  0  0
  -27.5567  -37.1782   24.8463 C   0  0  0  0  0  0
  -21.4271  -29.3056   22.3583 N   0  0  0  0  0  0
  -26.4277  -37.3732   23.9406 N   0  0  0  0  0  0
  -24.7244  -31.0224   22.0866 N   0  0  0  0  0  0
  -23.4209  -28.8080   23.2994 O   0  0  0  0  0  0
  -28.2586  -26.0889   20.2162 O   0  0  0  0  0  0
  -26.5659  -34.8904   22.4610 O   0  0  0  0  0  0
  -23.5600  -32.1274   23.7035 O   0  0  0  0  0  0
  -31.4361  -18.1005   20.6308 C   0  0  0  0  0  0
  -31.8768  -19.4382   20.6741 C   0  0  0  0  0  0
  -30.0882  -17.7464   20.4608 C   0  0  0  0  0  0
  -29.5874  -20.4141   20.3321 C   0  0  0  0  0  0
  -31.0024  -20.5543   20.5368 C   0  0  0  0  0  0
  -29.1852  -18.9437   20.3263 C   0  0  0  0  0  0
  -33.3715  -19.6602   20.8671 C   0  0  0  0  0  0
  -27.6928  -21.4237   19.1142 C   0  0  0  0  0  0
  -29.0499  -23.2201   20.2767 C   0  0  0  0  0  0
  -27.9778  -24.5425   20.0773 C   0  0  0  0  0  0
  -29.7545  -16.2237   20.4766 N   0  0  0  0  0  0
  -28.7301  -21.6642   20.1152 N   0  0  0  0  0  0
  -31.7806  -22.1043   20.6089 Cl  0  0  0  0  0  0
  -27.5100  -18.5299   20.1860 Cl  0  0  0  0  0  0
  -31.4683  -12.7863   19.1885 H   0  0  0  0  0  0
  -30.4330  -11.6870   20.0513 H   0  0  0  0  0  0
  -29.8512  -11.7308   17.6006 H   0  0  0  0  0  0
  -29.6039  -13.4574   17.6748 H   0  0  0  0  0  0
  -27.9574  -11.2782   18.9865 H   0  0  0  0  0  0
  -27.3940  -12.4418   17.8163 H   0  0  0  0  0  0
  -27.5736  -14.2522   19.3897 H   0  0  0  0  0  0
  -28.7685  -12.3502   21.4614 H   0  0  0  0  0  0
  -28.3553  -14.0275   21.7353 H   0  0  0  0  0  0
  -25.2768   -9.5684   22.4768 H   0  0  0  0  0  0
  -24.0002   -7.4634   22.7482 H   0  0  0  0  0  0
  -21.0848   -8.8778   19.8953 H   0  0  0  0  0  0
  -22.3712  -10.9671   19.6164 H   0  0  0  0  0  0
  -21.2012   -7.6149   23.9716 H   0  0  0  0  0  0
  -21.1479   -6.0523   25.9079 H   0  0  0  0  0  0
  -22.0598   -2.7607   23.2848 H   0  0  0  0  0  0
  -22.4049  -11.9857   22.4829 H   0  0  0  0  0  0
  -21.1040  -13.1214   22.2632 H   0  0  0  0  0  0
  -24.6337  -15.8416   20.5306 H   0  0  0  0  0  0
  -26.2440  -15.6449   20.0693 H   0  0  0  0  0  0
  -26.7299  -32.5273   23.0944 H   0  0  0  0  0  0
  -25.0137  -33.9573   25.0312 H   0  0  0  0  0  0
  -22.7575  -31.2852   21.3702 H   0  0  0  0  0  0
  -23.3756  -35.9574   23.3276 H   0  0  0  0  0  0
  -24.3577  -36.8898   22.2053 H   0  0  0  0  0  0
  -23.7252  -37.6436   23.6690 H   0  0  0  0  0  0
  -26.1641  -31.4537   20.6062 H   0  0  0  0  0  0
  -26.8821  -30.7583   22.0248 H   0  0  0  0  0  0
  -28.1394  -28.7652   21.2270 H   0  0  0  0  0  0
  -25.8925  -25.8150   19.0157 H   0  0  0  0  0  0
  -23.9769  -27.2894   18.9828 H   0  0  0  0  0  0
  -23.8180  -30.5534   19.3902 H   0  0  0  0  0  0
  -22.7948  -29.2248   19.8406 H   0  0  0  0  0  0
  -25.1316  -36.1815   25.0800 H   0  0  0  0  0  0
  -21.0021  -28.3332   24.1340 H   0  0  0  0  0  0
  -20.5686  -26.2355   23.3622 H   0  0  0  0  0  0
  -21.6664  -26.7438   22.1199 H   0  0  0  0  0  0
  -19.6933  -25.6288   21.1259 H   0  0  0  0  0  0
  -19.6708  -27.3177   20.6721 H   0  0  0  0  0  0
  -17.4223  -26.6684   21.4018 H   0  0  0  0  0  0
  -18.0351  -26.0087   22.9019 H   0  0  0  0  0  0
  -19.7961  -30.7303   24.2224 H   0  0  0  0  0  0
  -17.5037  -31.6272   24.5165 H   0  0  0  0  0  0
  -15.5369  -30.2983   23.7682 H   0  0  0  0  0  0
  -15.8696  -28.0818   22.7087 H   0  0  0  0  0  0
  -24.5949  -30.7038   25.7695 H   0  0  0  0  0  0
  -24.8879  -32.2936   26.4657 H   0  0  0  0  0  0
  -25.8014  -30.9024   27.0210 H   0  0  0  0  0  0
  -26.3038  -29.6649   24.1258 H   0  0  0  0  0  0
  -27.3993  -29.7219   25.4853 H   0  0  0  0  0  0
  -27.8961  -30.4137   23.9611 H   0  0  0  0  0  0
  -27.2657  -33.3633   26.1963 H   0  0  0  0  0  0
  -28.3953  -32.6783   25.0363 H   0  0  0  0  0  0
  -28.0656  -31.8473   26.5484 H   0  0  0  0  0  0
  -28.2567  -38.0093   24.7504 H   0  0  0  0  0  0
  -28.1077  -36.2619   24.6291 H   0  0  0  0  0  0
  -27.2287  -37.1430   25.8867 H   0  0  0  0  0  0
  -20.9484  -29.8768   21.6758 H   0  0  0  0  0  0
  -26.0130  -38.2794   24.1406 H   0  0  0  0  0  0
  -32.1766  -17.3270   20.7526 H   0  0  0  0  0  0
  -33.9167  -18.7209   20.9661 H   0  0  0  0  0  0
  -33.5643  -20.2442   21.7676 H   0  0  0  0  0  0
  -33.7924  -20.1914   20.0125 H   0  0  0  0  0  0
  -27.9700  -20.6288   18.4202 H   0  0  0  0  0  0
  -27.5050  -22.3032   18.4993 H   0  0  0  0  0  0
  -26.7506  -21.1518   19.5919 H   0  0  0  0  0  0
  -29.4768  -23.3362   21.2728 H   0  0  0  0  0  0
  -29.8561  -23.4321   19.5751 H   0  0  0  0  0  0
  -27.1274  -24.3475   20.7308 H   0  0  0  0  0  0
  -27.5921  -24.4376   19.0644 H   0  0  0  0  0  0
  -28.7652  -16.0381   20.5416 H   0  0  0  0  0  0
  1 25  1  0  0  0
  1 30  2  0  0  0
  1 81  1  0  0  0
  2  3  1  0  0  0
  2 25  1  0  0  0
  2 85  1  0  0  0
  2 86  1  0  0  0
  3  4  1  0  0  0
  3 87  1  0  0  0
  3 88  1  0  0  0
  4  5  1  0  0  0
  4 89  1  0  0  0
  4 90  1  0  0  0
  5  6  1  0  0  0
  5 26  1  0  0  0
  5 91  1  0  0  0
  6 25  1  0  0  0
  6 92  1  0  0  0
  6 93  1  0  0  0
  7  8  2  0  0  0
  7 26  1  0  0  0
  7 29  1  0  0  0
  8  9  1  0  0  0
  8 22  1  0  0  0
  9 10  1  0  0  0
  9 27  2  0  0  0
 10 11  2  0  0  0
 10 15  1  0  0  0
 11 12  1  0  0  0
 11 94  1  0  0  0
 12 13  2  0  0  0
 12 95  1  0  0  0
 13 14  1  0  0  0
 13 31  1  0  0  0
 14 15  2  0  0  0
 14 96  1  0  0  0
 15 97  1  0  0  0
 16 17  2  0  0  0
 16 21  1  0  0  0
 16 31  1  0  0  0
 17 18  1  0  0  0
 17 98  1  0  0  0
 18 19  2  0  0  0
 18 99  1  0  0  0
 19 20  1  0  0  0
 19 24  1  0  0  0
 20 21  2  0  0  0
 20100  1  0  0  0
 21 23  1  0  0  0
 22 28  1  0  0  0
 22 32  2  0  0  0
 26 27  1  0  0  0
 28101  1  0  0  0
 28102  1  0  0  0
 29103  1  0  0  0
 29104  1  0  0  0
 33 34  1  0  0  0
 33 66  1  0  0  0
 33 70  2  0  0  0
 34 36  1  0  0  0
 34 59  1  0  0  0
 34105  1  0  0  0
 35 44  2  0  0  0
 35 45  1  0  0  0
 35 68  1  0  0  0
 36 56  1  0  0  0
 36106  1  0  0  0
 37 39  1  0  0  0
 37 47  1  0  0  0
 37 66  1  0  0  0
 37107  1  0  0  0
 38 43  2  0  0  0
 38 46  1  0  0  0
 38 47  1  0  0  0
 39 64  1  0  0  0
 39 67  2  0  0  0
 40 52  1  0  0  0
 40 53  2  0  0  0
 40 58  1  0  0  0
 41108  1  0  0  0
 41109  1  0  0  0
 41110  1  0  0  0
 41 48  1  0  0  0
 42 43  1  0  0  0
 42 66  1  0  0  0
 42111  1  0  0  0
 42112  1  0  0  0
 43 44  1  0  0  0
 44113  1  0  0  0
 45 46  2  0  0  0
 45114  1  0  0  0
 46115  1  0  0  0
 47116  1  0  0  0
 47117  1  0  0  0
 48 56  1  0  0  0
 48 65  1  0  0  0
 48118  1  0  0  0
 49 50  1  0  0  0
 49 53  1  0  0  0
 49 64  1  0  0  0
 49119  1  0  0  0
 50 51  1  0  0  0
 50120  1  0  0  0
 50121  1  0  0  0
 51 52  1  0  0  0
 51122  1  0  0  0
 51123  1  0  0  0
 52124  1  0  0  0
 52125  1  0  0  0
 53 54  1  0  0  0
 54 55  2  0  0  0
 54126  1  0  0  0
 55 57  1  0  0  0
 55127  1  0  0  0
 56 69  2  0  0  0
 57 58  2  0  0  0
 57128  1  0  0  0
 58129  1  0  0  0
 59 60  1  0  0  0
 59 61  1  0  0  0
 59 62  1  0  0  0
 60130  1  0  0  0
 60131  1  0  0  0
 60132  1  0  0  0
 61133  1  0  0  0
 61134  1  0  0  0
 61135  1  0  0  0
 62136  1  0  0  0
 62137  1  0  0  0
 62138  1  0  0  0
 63 65  1  0  0  0
 63139  1  0  0  0
 63140  1  0  0  0
 63141  1  0  0  0
 64142  1  0  0  0
 65143  1  0  0  0
 68 80  1  0  0  0
 71 72  2  0  0  0
 71 73  1  0  0  0
 71144  1  0  0  0
 72 75  1  0  0  0
 72 77  1  0  0  0
 73 76  2  0  0  0
 73 81  1  0  0  0
 74 75  2  0  0  0
 74 76  1  0  0  0
 74 82  1  0  0  0
 75 83  1  0  0  0
 76 84  1  0  0  0
 77145  1  0  0  0
 77146  1  0  0  0
 77147  1  0  0  0
 78 82  1  0  0  0
 78148  1  0  0  0
 78149  1  0  0  0
 78150  1  0  0  0
 79 80  1  0  0  0
 79 82  1  0  0  0
 79151  1  0  0  0
 79152  1  0  0  0
 80153  1  0  0  0
 80154  1  0  0  0
 81155  1  0  0  0
M  ISO  4   1 100  68 101  80 101  81 100
M  END
> <chiral flag>
0

> <version>
0

> <s_m_source_file>
/data/baiqing/PycharmProjects/Reinvent-master-3.2/result/LINK_invent/BTK/process_docking_weight1_custom_sum_contain_oxygen_bond_distance_aromatic_linkinvent_7_9_3/rearranged_h_0013.sdf

> <i_m_source_file_index>
33

> <r_mmod_Potential_Energy-OPLS-2005>
726.310974121094

> <r_mmod_Stretch_Energy-OPLS-2005>
335.064971923828

> <r_mmod_Bend_Energy-OPLS-2005>
286.7236328125

> <r_mmod_Torsional_Energy-OPLS-2005>
210.039611816406

> <r_mmod_Improper_Torsional_Energy-OPLS-2005>
6.89100790023804

> <r_mmod_Van_der_Waal_Energy-OPLS-2005>
154.964019775391

> <r_mmod_Electrostatic_Energy-OPLS-2005>
-284.889465332031

> <r_mmod_Solvation_Energy-OPLS-2005>
-215.277801513672

> <b_mmod_Minimization_Converged-OPLS-2005>
0

> <r_mmod_RMS_Derivative-OPLS-2005>
1.11567783355713

$$$$
33
                    3D
 Structure written by MMmdl.
157165  0  0  1  0            999 V2000
  -30.6686  -14.5078   20.4808 C   0  0  0  0  0  0
  -30.4272  -12.3012   19.4351 C   0  0  0  0  0  0
  -29.4968  -12.4639   18.2131 C   0  0  0  0  0  0
  -28.0169  -12.3390   18.6255 C   0  0  0  0  0  0
  -27.6576  -13.2030   19.8643 C   0  0  2  0  0  0
  -28.7018  -13.0206   20.9903 C   0  0  0  0  0  0
  -25.2589  -13.8153   20.5672 C   0  0  0  0  0  0
  -24.1841  -13.0437   20.9185 C   0  0  0  0  0  0
  -24.6387  -11.6902   20.8747 C   0  0  0  0  0  0
  -23.9054  -10.4292   21.0415 C   0  0  0  0  0  0
  -24.3611   -9.4208   21.9188 C   0  0  0  0  0  0
  -23.6292   -8.2239   22.0755 C   0  0  0  0  0  0
  -22.4273   -8.0277   21.3547 C   0  0  0  0  0  0
  -21.9907   -9.0249   20.4648 C   0  0  0  0  0  0
  -22.7230  -10.2133   20.3061 C   0  0  0  0  0  0
  -21.6854   -6.0737   22.5281 C   0  0  0  0  0  0
  -21.4010   -6.5641   23.8213 C   0  0  0  0  0  0
  -21.3659   -5.6794   24.9176 C   0  0  0  0  0  0
  -21.6044   -4.3057   24.7227 C   0  0  0  0  0  0
  -21.8820   -3.8149   23.4347 C   0  0  0  0  0  0
  -21.9190   -4.6966   22.3404 C   0  0  0  0  0  0
  -22.7866  -13.5241   21.1846 C   0  0  0  0  0  0
  -22.1662   -4.2151   21.0984 F   0  0  0  0  0  0
  -21.5628   -3.4540   25.7739 F   0  0  0  0  0  0
  -30.0310  -13.3086   20.4295 N   0  0  0  0  0  0
  -26.3010  -12.9312   20.3330 N   0  0  0  0  0  0
  -25.9309  -11.6481   20.5774 N   0  0  0  0  0  0
  -22.0503  -12.8239   22.0403 N   0  0  0  0  0  0
  -25.4316  -15.1868   20.4070 N   0  0  0  0  0  0
  -31.8548  -14.6518   20.1758 O   0  0  0  0  0  0
  -21.6638   -6.8877   21.4242 O   0  0  0  0  0  0
  -22.3555  -14.5547   20.6691 O   0  0  0  0  0  0
  -24.6144  -31.8671   23.2092 C   0  0  0  0  0  0
  -25.9034  -32.4819   23.8387 C   0  0  1  0  0  0
  -27.2333  -27.4365   20.1077 C   0  0  0  0  0  0
  -25.5889  -33.8616   24.2323 N   0  0  0  0  0  0
  -23.4028  -30.4894   21.5493 C   0  0  2  0  0  0
  -24.8505  -28.9522   20.1164 C   0  0  0  0  0  0
  -22.7410  -29.4657   22.4995 C   0  0  0  0  0  0
  -18.0272  -28.1381   22.8493 C   0  0  0  0  0  0
  -24.1486  -36.7315   23.2638 C   0  0  0  0  0  0
  -25.9297  -30.8358   21.3594 C   0  0  0  0  0  0
  -26.0092  -29.4686   20.7115 C   0  0  0  0  0  0
  -27.2070  -28.7185   20.7011 C   0  0  0  0  0  0
  -26.0626  -26.9298   19.5088 C   0  0  0  0  0  0
  -24.8718  -27.6824   19.5109 C   0  0  0  0  0  0
  -23.6111  -29.8183   20.1649 C   0  0  0  0  0  0
  -25.4107  -36.3110   24.0334 C   0  0  1  0  0  0
  -20.5863  -28.3663   23.1324 C   0  0  2  0  0  0
  -20.6768  -26.9400   22.5425 C   0  0  0  0  0  0
  -19.5745  -26.6388   21.5222 C   0  0  0  0  0  0
  -18.1921  -26.7931   22.1626 C   0  0  0  0  0  0
  -19.1522  -28.8838   23.2907 C   0  0  0  0  0  0
  -18.9449  -30.1447   23.8913 C   0  0  0  0  0  0
  -17.6450  -30.6586   24.0565 C   0  0  0  0  0  0
  -25.9028  -34.9473   23.5127 C   0  0  0  0  0  0
  -16.5342  -29.9087   23.6326 C   0  0  0  0  0  0
  -16.7260  -28.6506   23.0344 C   0  0  0  0  0  0
  -26.4473  -31.6596   25.0711 C   0  0  0  0  0  0
  -25.3741  -31.3697   26.1461 C   0  0  0  0  0  0
  -27.0302  -30.3040   24.6071 C   0  0  0  0  0  0
  -27.6056  -32.4312   25.7470 C   0  0  0  0  0  0
  -27.5581  -37.1808   24.8464 C   0  0  0  0  0  0
  -21.4137  -29.3032   22.3732 N   0  0  0  0  0  0
  -26.4295  -37.3796   23.9408 N   0  0  0  0  0  0
  -24.6671  -31.0783   22.0984 N   0  0  0  0  0  0
  -23.4185  -28.8208   23.3043 O   0  0  0  0  0  0
  -28.3882  -26.6891   20.0948 O   0  0  0  0  0  0
  -26.5601  -34.8930   22.4695 O   0  0  0  0  0  0
  -23.5337  -32.1416   23.7493 O   0  0  0  0  0  0
  -30.1205  -19.5862   19.2194 C   0  0  0  0  0  0
  -30.5378  -18.5324   18.3885 C   0  0  0  0  0  0
  -29.5791  -19.3310   20.4953 C   0  0  0  0  0  0
  -29.9892  -16.9046   20.1528 C   0  0  0  0  0  0
  -30.4423  -17.1918   18.8284 C   0  0  0  0  0  0
  -29.5376  -17.9860   20.9632 C   0  0  0  0  0  0
  -28.7030  -22.9817   21.1941 C   0  0  0  0  0  0
  -31.0608  -18.8607   16.9990 C   0  0  0  0  0  0
  -29.0568  -20.4996   21.3514 C   0  0  0  0  0  0
  -28.5006  -24.1947   20.2574 C   0  0  0  0  0  0
  -28.3933  -25.5611   20.9876 C   0  0  0  0  0  0
  -29.8570  -15.5671   20.6729 N   0  0  0  0  0  0
  -28.8396  -21.7679   20.6299 N   0  0  0  0  0  0
  -28.7396  -23.1331   22.4171 O   0  0  0  0  0  0
  -30.8004  -15.9537   17.6664 Cl  0  0  0  0  0  0
  -28.9090  -17.6480   22.5424 Cl  0  0  0  0  0  0
  -31.4704  -12.4051   19.1307 H   0  0  0  0  0  0
  -30.3361  -11.2999   19.8584 H   0  0  0  0  0  0
  -29.7367  -11.7137   17.4586 H   0  0  0  0  0  0
  -29.6620  -13.4307   17.7397 H   0  0  0  0  0  0
  -27.8280  -11.2871   18.8422 H   0  0  0  0  0  0
  -27.3686  -12.5956   17.7868 H   0  0  0  0  0  0
  -27.6889  -14.2419   19.5368 H   0  0  0  0  0  0
  -28.6773  -11.9993   21.3728 H   0  0  0  0  0  0
  -28.4746  -13.6630   21.8430 H   0  0  0  0  0  0
  -25.2757   -9.5685   22.4762 H   0  0  0  0  0  0
  -24.0005   -7.4630   22.7471 H   0  0  0  0  0  0
  -21.0840   -8.8763   19.8954 H   0  0  0  0  0  0
  -22.3685  -10.9671   19.6170 H   0  0  0  0  0  0
  -21.2002   -7.6148   23.9719 H   0  0  0  0  0  0
  -21.1481   -6.0525   25.9080 H   0  0  0  0  0  0
  -22.0600   -2.7611   23.2848 H   0  0  0  0  0  0
  -22.4115  -11.9901   22.4797 H   0  0  0  0  0  0
  -21.1117  -13.1267   22.2596 H   0  0  0  0  0  0
  -24.6642  -15.8408   20.5177 H   0  0  0  0  0  0
  -26.2779  -15.6259   20.0689 H   0  0  0  0  0  0
  -26.7104  -32.5537   23.1155 H   0  0  0  0  0  0
  -25.0045  -33.9785   25.0471 H   0  0  0  0  0  0
  -22.6913  -31.3055   21.4083 H   0  0  0  0  0  0
  -23.3747  -35.9650   23.3311 H   0  0  0  0  0  0
  -24.3581  -36.8922   22.2052 H   0  0  0  0  0  0
  -23.7243  -37.6523   23.6646 H   0  0  0  0  0  0
  -26.0381  -31.5999   20.5881 H   0  0  0  0  0  0
  -26.8200  -30.8939   21.9745 H   0  0  0  0  0  0
  -28.1038  -29.1131   21.1584 H   0  0  0  0  0  0
  -26.0724  -25.9553   19.0418 H   0  0  0  0  0  0
  -23.9805  -27.2799   19.0492 H   0  0  0  0  0  0
  -23.7172  -30.5912   19.4026 H   0  0  0  0  0  0
  -22.7359  -29.2360   19.8711 H   0  0  0  0  0  0
  -25.1288  -36.1976   25.0828 H   0  0  0  0  0  0
  -20.9951  -28.3226   24.1445 H   0  0  0  0  0  0
  -20.5688  -26.2265   23.3608 H   0  0  0  0  0  0
  -21.6635  -26.7458   22.1202 H   0  0  0  0  0  0
  -19.6906  -25.6307   21.1230 H   0  0  0  0  0  0
  -19.6684  -27.3217   20.6768 H   0  0  0  0  0  0
  -17.4197  -26.6681   21.4023 H   0  0  0  0  0  0
  -18.0309  -26.0074   22.9021 H   0  0  0  0  0  0
  -19.7924  -30.7258   24.2286 H   0  0  0  0  0  0
  -17.5005  -31.6266   24.5171 H   0  0  0  0  0  0
  -15.5342  -30.2994   23.7645 H   0  0  0  0  0  0
  -15.8661  -28.0832   22.7045 H   0  0  0  0  0  0
  -24.5905  -30.7056   25.7793 H   0  0  0  0  0  0
  -24.8944  -32.2855   26.4923 H   0  0  0  0  0  0
  -25.8093  -30.8847   27.0206 H   0  0  0  0  0  0
  -26.2832  -29.6797   24.1147 H   0  0  0  0  0  0
  -27.4113  -29.7277   25.4513 H   0  0  0  0  0  0
  -27.8649  -30.4377   23.9185 H   0  0  0  0  0  0
  -27.2679  -33.3604   26.2073 H   0  0  0  0  0  0
  -28.3847  -32.6880   25.0279 H   0  0  0  0  0  0
  -28.0741  -31.8412   26.5361 H   0  0  0  0  0  0
  -28.2606  -38.0101   24.7516 H   0  0  0  0  0  0
  -28.1071  -36.2632   24.6283 H   0  0  0  0  0  0
  -27.2298  -37.1452   25.8867 H   0  0  0  0  0  0
  -20.9294  -29.8735   21.6940 H   0  0  0  0  0  0
  -26.0183  -38.2874   24.1412 H   0  0  0  0  0  0
  -30.1996  -20.5977   18.8496 H   0  0  0  0  0  0
  -31.1413  -19.9364   16.8391 H   0  0  0  0  0  0
  -30.3944  -18.4602   16.2347 H   0  0  0  0  0  0
  -32.0516  -18.4301   16.8509 H   0  0  0  0  0  0
  -29.7607  -20.6572   22.1704 H   0  0  0  0  0  0
  -28.1088  -20.2107   21.8081 H   0  0  0  0  0  0
  -27.6056  -24.0295   19.6580 H   0  0  0  0  0  0
  -29.3395  -24.2272   19.5625 H   0  0  0  0  0  0
  -29.2552  -25.6870   21.6441 H   0  0  0  0  0  0
  -27.5188  -25.5640   21.6425 H   0  0  0  0  0  0
  -28.9821  -15.3699   21.1325 H   0  0  0  0  0  0
  -28.7701  -21.7110   19.6235 H   0  0  0  0  0  0
  1 25  1  0  0  0
  1 30  2  0  0  0
  1 82  1  0  0  0
  2  3  1  0  0  0
  2 25  1  0  0  0
  2 87  1  0  0  0
  2 88  1  0  0  0
  3  4  1  0  0  0
  3 89  1  0  0  0
  3 90  1  0  0  0
  4  5  1  0  0  0
  4 91  1  0  0  0
  4 92  1  0  0  0
  5  6  1  0  0  0
  5 26  1  0  0  0
  5 93  1  0  0  0
  6 25  1  0  0  0
  6 94  1  0  0  0
  6 95  1  0  0  0
  7  8  2  0  0  0
  7 26  1  0  0  0
  7 29  1  0  0  0
  8  9  1  0  0  0
  8 22  1  0  0  0
  9 10  1  0  0  0
  9 27  2  0  0  0
 10 11  2  0  0  0
 10 15  1  0  0  0
 11 12  1  0  0  0
 11 96  1  0  0  0
 12 13  2  0  0  0
 12 97  1  0  0  0
 13 14  1  0  0  0
 13 31  1  0  0  0
 14 15  2  0  0  0
 14 98  1  0  0  0
 15 99  1  0  0  0
 16 17  2  0  0  0
 16 21  1  0  0  0
 16 31  1  0  0  0
 17 18  1  0  0  0
 17100  1  0  0  0
 18 19  2  0  0  0
 18101  1  0  0  0
 19 20  1  0  0  0
 19 24  1  0  0  0
 20 21  2  0  0  0
 20102  1  0  0  0
 21 23  1  0  0  0
 22 28  1  0  0  0
 22 32  2  0  0  0
 26 27  1  0  0  0
 28103  1  0  0  0
 28104  1  0  0  0
 29105  1  0  0  0
 29106  1  0  0  0
 33 34  1  0  0  0
 33 66  1  0  0  0
 33 70  2  0  0  0
 34 36  1  0  0  0
 34 59  1  0  0  0
 34107  1  0  0  0
 35 44  2  0  0  0
 35 45  1  0  0  0
 35 68  1  0  0  0
 36 56  1  0  0  0
 36108  1  0  0  0
 37 39  1  0  0  0
 37 47  1  0  0  0
 37 66  1  0  0  0
 37109  1  0  0  0
 38 43  2  0  0  0
 38 46  1  0  0  0
 38 47  1  0  0  0
 39 64  1  0  0  0
 39 67  2  0  0  0
 40 52  1  0  0  0
 40 53  2  0  0  0
 40 58  1  0  0  0
 41110  1  0  0  0
 41111  1  0  0  0
 41112  1  0  0  0
 41 48  1  0  0  0
 42 43  1  0  0  0
 42 66  1  0  0  0
 42113  1  0  0  0
 42114  1  0  0  0
 43 44  1  0  0  0
 44115  1  0  0  0
 45 46  2  0  0  0
 45116  1  0  0  0
 46117  1  0  0  0
 47118  1  0  0  0
 47119  1  0  0  0
 48 56  1  0  0  0
 48 65  1  0  0  0
 48120  1  0  0  0
 49 50  1  0  0  0
 49 53  1  0  0  0
 49 64  1  0  0  0
 49121  1  0  0  0
 50 51  1  0  0  0
 50122  1  0  0  0
 50123  1  0  0  0
 51 52  1  0  0  0
 51124  1  0  0  0
 51125  1  0  0  0
 52126  1  0  0  0
 52127  1  0  0  0
 53 54  1  0  0  0
 54 55  2  0  0  0
 54128  1  0  0  0
 55 57  1  0  0  0
 55129  1  0  0  0
 56 69  2  0  0  0
 57 58  2  0  0  0
 57130  1  0  0  0
 58131  1  0  0  0
 59 60  1  0  0  0
 59 61  1  0  0  0
 59 62  1  0  0  0
 60132  1  0  0  0
 60133  1  0  0  0
 60134  1  0  0  0
 61135  1  0  0  0
 61136  1  0  0  0
 61137  1  0  0  0
 62138  1  0  0  0
 62139  1  0  0  0
 62140  1  0  0  0
 63 65  1  0  0  0
 63141  1  0  0  0
 63142  1  0  0  0
 63143  1  0  0  0
 64144  1  0  0  0
 65145  1  0  0  0
 68 81  1  0  0  0
 71 72  2  0  0  0
 71 73  1  0  0  0
 71146  1  0  0  0
 72 75  1  0  0  0
 72 78  1  0  0  0
 73 76  2  0  0  0
 73 79  1  0  0  0
 74 75  2  0  0  0
 74 76  1  0  0  0
 74 82  1  0  0  0
 75 85  1  0  0  0
 76 86  1  0  0  0
 77 80  1  0  0  0
 77 83  1  0  0  0
 77 84  2  0  0  0
 78147  1  0  0  0
 78148  1  0  0  0
 78149  1  0  0  0
 79 83  1  0  0  0
 79150  1  0  0  0
 79151  1  0  0  0
 80 81  1  0  0  0
 80152  1  0  0  0
 80153  1  0  0  0
 81154  1  0  0  0
 81155  1  0  0  0
 82156  1  0  0  0
 83157  1  0  0  0
M  ISO  4   1 100  68 101  81 101  82 100
M  END
> <chiral flag>
0

> <version>
0

> <s_m_source_file>
/data/baiqing/PycharmProjects/Reinvent-master-3.2/result/LINK_invent/BTK/process_docking_weight1_custom_sum_contain_oxygen_bond_distance_aromatic_linkinvent_7_9_3/rearranged_h_0013.sdf

> <i_m_source_file_index>
34

> <r_mmod_Potential_Energy-OPLS-2005>
-148.466003417969

> <r_mmod_Stretch_Energy-OPLS-2005>
41.3129539489746

> <r_mmod_Bend_Energy-OPLS-2005>
92.3657455444336

> <r_mmod_Torsional_Energy-OPLS-2005>
257.434539794922

> <r_mmod_Improper_Torsional_Energy-OPLS-2005>
5.80976247787476

> <r_mmod_Van_der_Waal_Energy-OPLS-2005>
157.895294189453

> <r_mmod_Electrostatic_Energy-OPLS-2005>
-487.674285888672

> <r_mmod_Solvation_Energy-OPLS-2005>
-234.735076904297

> <b_mmod_Minimization_Converged-OPLS-2005>
0

> <r_mmod_RMS_Derivative-OPLS-2005>
0.823370695114136

$$$$
34
                    3D
 Structure written by MMmdl.
151159  0  0  1  0            999 V2000
  -30.5367  -14.9094   20.4213 C   0  0  0  0  0  0
  -30.4459  -12.5551   19.4985 C   0  0  0  0  0  0
  -29.5261  -12.5353   18.2547 C   0  0  0  0  0  0
  -28.0533  -12.3357   18.6622 C   0  0  0  0  0  0
  -27.6393  -13.2455   19.8487 C   0  0  2  0  0  0
  -28.6835  -13.2294   20.9865 C   0  0  0  0  0  0
  -25.2502  -13.8219   20.5701 C   0  0  0  0  0  0
  -24.1803  -13.0447   20.9207 C   0  0  0  0  0  0
  -24.6412  -11.6923   20.8741 C   0  0  0  0  0  0
  -23.9082  -10.4300   21.0404 C   0  0  0  0  0  0
  -24.3630   -9.4213   21.9179 C   0  0  0  0  0  0
  -23.6303   -8.2248   22.0754 C   0  0  0  0  0  0
  -22.4285   -8.0288   21.3543 C   0  0  0  0  0  0
  -21.9913   -9.0263   20.4649 C   0  0  0  0  0  0
  -22.7244  -10.2144   20.3057 C   0  0  0  0  0  0
  -21.6856   -6.0740   22.5275 C   0  0  0  0  0  0
  -21.4017   -6.5641   23.8208 C   0  0  0  0  0  0
  -21.3658   -5.6792   24.9170 C   0  0  0  0  0  0
  -21.6045   -4.3056   24.7224 C   0  0  0  0  0  0
  -21.8819   -3.8146   23.4341 C   0  0  0  0  0  0
  -21.9197   -4.6962   22.3399 C   0  0  0  0  0  0
  -22.7831  -13.5223   21.1871 C   0  0  0  0  0  0
  -22.1666   -4.2147   21.0975 F   0  0  0  0  0  0
  -21.5627   -3.4539   25.7736 F   0  0  0  0  0  0
  -29.9700  -13.6379   20.4039 N   0  0  0  0  0  0
  -26.2939  -12.9447   20.3277 N   0  0  0  0  0  0
  -25.9352  -11.6572   20.5747 N   0  0  0  0  0  0
  -22.0481  -12.8217   22.0433 N   0  0  0  0  0  0
  -25.4169  -15.1948   20.4117 N   0  0  0  0  0  0
  -31.7217  -15.0130   20.0887 O   0  0  0  0  0  0
  -21.6646   -6.8885   21.4240 O   0  0  0  0  0  0
  -22.3507  -14.5519   20.6703 O   0  0  0  0  0  0
  -24.6420  -31.8446   23.1890 C   0  0  0  0  0  0
  -25.9198  -32.4695   23.8274 C   0  0  1  0  0  0
  -27.2208  -27.1466   20.1322 C   0  0  0  0  0  0
  -25.5949  -33.8503   24.2188 N   0  0  0  0  0  0
  -23.4452  -30.4627   21.5358 C   0  0  2  0  0  0
  -24.8950  -28.8939   20.1074 C   0  0  0  0  0  0
  -22.7567  -29.4531   22.4875 C   0  0  0  0  0  0
  -18.0305  -28.1395   22.8474 C   0  0  0  0  0  0
  -24.1485  -36.7250   23.2641 C   0  0  0  0  0  0
  -26.0017  -30.7166   21.3918 C   0  0  0  0  0  0
  -26.0716  -29.3307   20.7292 C   0  0  0  0  0  0
  -27.2322  -28.4705   20.7294 C   0  0  0  0  0  0
  -26.0216  -26.8188   19.4591 C   0  0  0  0  0  0
  -24.8820  -27.6506   19.4600 C   0  0  0  0  0  0
  -23.6708  -29.7941   20.1542 C   0  0  0  0  0  0
  -25.4119  -36.3027   24.0312 C   0  0  1  0  0  0
  -20.5916  -28.3708   23.1242 C   0  0  2  0  0  0
  -20.6786  -26.9411   22.5408 C   0  0  0  0  0  0
  -19.5755  -26.6374   21.5218 C   0  0  0  0  0  0
  -18.1939  -26.7930   22.1631 C   0  0  0  0  0  0
  -19.1564  -28.8874   23.2845 C   0  0  0  0  0  0
  -18.9481  -30.1474   23.8863 C   0  0  0  0  0  0
  -17.6478  -30.6590   24.0555 C   0  0  0  0  0  0
  -25.9075  -34.9408   23.5058 C   0  0  0  0  0  0
  -16.5366  -29.9083   23.6337 C   0  0  0  0  0  0
  -16.7293  -28.6505   23.0351 C   0  0  0  0  0  0
  -26.4523  -31.6572   25.0721 C   0  0  0  0  0  0
  -25.3713  -31.3775   26.1422 C   0  0  0  0  0  0
  -27.0402  -30.2965   24.6319 C   0  0  0  0  0  0
  -27.6041  -32.4359   25.7503 C   0  0  0  0  0  0
  -27.5574  -37.1772   24.8462 C   0  0  0  0  0  0
  -21.4266  -29.3030   22.3623 N   0  0  0  0  0  0
  -26.4280  -37.3744   23.9410 N   0  0  0  0  0  0
  -24.7157  -31.0289   22.0938 N   0  0  0  0  0  0
  -23.4216  -28.8089   23.3029 O   0  0  0  0  0  0
  -28.2787  -26.1688   20.2159 O   0  0  0  0  0  0
  -26.5668  -34.8903   22.4643 O   0  0  0  0  0  0
  -23.5536  -32.1339   23.7098 O   0  0  0  0  0  0
  -29.0516  -18.4373   21.4108 C   0  0  0  0  0  0
  -29.9521  -19.7049   19.1590 C   0  0  0  0  0  0
  -28.8343  -19.8689   21.2270 C   0  0  0  0  0  0
  -29.7193  -17.5477   20.4923 C   0  0  0  0  0  0
  -29.2695  -20.5942   20.0659 C   0  0  0  0  0  0
  -30.1724  -18.2767   19.3408 C   0  0  0  0  0  0
  -28.0398  -20.6076   22.2844 C   0  0  0  0  0  0
  -28.0834  -24.6661   19.8538 C   0  0  0  0  0  0
  -28.8663  -23.2995   20.4538 C   0  0  0  0  0  0
  -29.7216  -16.0285   20.7148 N   0  0  0  0  0  0
  -28.9742  -21.9775   19.6694 O   0  0  0  0  0  0
  -30.9370  -17.4237   18.0466 Cl  0  0  0  0  0  0
  -31.4830  -12.7061   19.1940 H   0  0  0  0  0  0
  -30.4244  -11.5914   20.0091 H   0  0  0  0  0  0
  -29.8324  -11.7467   17.5667 H   0  0  0  0  0  0
  -29.6308  -13.4749   17.7087 H   0  0  0  0  0  0
  -27.9259  -11.2881   18.9370 H   0  0  0  0  0  0
  -27.3983  -12.5092   17.8078 H   0  0  0  0  0  0
  -27.6138  -14.2585   19.4466 H   0  0  0  0  0  0
  -28.7574  -12.2380   21.4340 H   0  0  0  0  0  0
  -28.3905  -13.9058   21.7911 H   0  0  0  0  0  0
  -25.2780   -9.5685   22.4749 H   0  0  0  0  0  0
  -24.0011   -7.4641   22.7470 H   0  0  0  0  0  0
  -21.0837   -8.8784   19.8963 H   0  0  0  0  0  0
  -22.3695  -10.9686   19.6170 H   0  0  0  0  0  0
  -21.2008   -7.6151   23.9711 H   0  0  0  0  0  0
  -21.1480   -6.0526   25.9074 H   0  0  0  0  0  0
  -22.0597   -2.7605   23.2847 H   0  0  0  0  0  0
  -22.4116  -11.9892   22.4834 H   0  0  0  0  0  0
  -21.1106  -13.1242   22.2653 H   0  0  0  0  0  0
  -24.6398  -15.8416   20.4996 H   0  0  0  0  0  0
  -26.2590  -15.6342   20.0620 H   0  0  0  0  0  0
  -26.7261  -32.5293   23.0999 H   0  0  0  0  0  0
  -25.0060  -33.9627   25.0304 H   0  0  0  0  0  0
  -22.7466  -31.2879   21.3826 H   0  0  0  0  0  0
  -23.3757  -35.9573   23.3292 H   0  0  0  0  0  0
  -24.3563  -36.8898   22.2057 H   0  0  0  0  0  0
  -23.7233  -37.6434   23.6696 H   0  0  0  0  0  0
  -26.1638  -31.4736   20.6231 H   0  0  0  0  0  0
  -26.8695  -30.7599   22.0384 H   0  0  0  0  0  0
  -28.1269  -28.7961   21.2416 H   0  0  0  0  0  0
  -25.9261  -25.8821   18.9328 H   0  0  0  0  0  0
  -23.9864  -27.3153   18.9548 H   0  0  0  0  0  0
  -23.8074  -30.5702   19.4005 H   0  0  0  0  0  0
  -22.7865  -29.2365   19.8406 H   0  0  0  0  0  0
  -25.1304  -36.1850   25.0804 H   0  0  0  0  0  0
  -20.9997  -28.3295   24.1366 H   0  0  0  0  0  0
  -20.5673  -26.2323   23.3627 H   0  0  0  0  0  0
  -21.6651  -26.7409   22.1206 H   0  0  0  0  0  0
  -19.6905  -25.6281   21.1259 H   0  0  0  0  0  0
  -19.6684  -27.3176   20.6742 H   0  0  0  0  0  0
  -17.4200  -26.6672   21.4041 H   0  0  0  0  0  0
  -18.0332  -26.0086   22.9041 H   0  0  0  0  0  0
  -19.7961  -30.7299   24.2208 H   0  0  0  0  0  0
  -17.5035  -31.6266   24.5167 H   0  0  0  0  0  0
  -15.5366  -30.2974   23.7680 H   0  0  0  0  0  0
  -15.8697  -28.0816   22.7074 H   0  0  0  0  0  0
  -24.5854  -30.7173   25.7737 H   0  0  0  0  0  0
  -24.8962  -32.2979   26.4827 H   0  0  0  0  0  0
  -25.7991  -30.8937   27.0213 H   0  0  0  0  0  0
  -26.3036  -29.6678   24.1306 H   0  0  0  0  0  0
  -27.3989  -29.7263   25.4898 H   0  0  0  0  0  0
  -27.8951  -30.4193   23.9667 H   0  0  0  0  0  0
  -27.2602  -33.3654   26.2049 H   0  0  0  0  0  0
  -28.3862  -32.6941   25.0353 H   0  0  0  0  0  0
  -28.0712  -31.8530   26.5449 H   0  0  0  0  0  0
  -28.2573  -38.0085   24.7520 H   0  0  0  0  0  0
  -28.1088  -36.2616   24.6275 H   0  0  0  0  0  0
  -27.2298  -37.1395   25.8865 H   0  0  0  0  0  0
  -20.9489  -29.8746   21.6797 H   0  0  0  0  0  0
  -26.0145  -38.2801   24.1446 H   0  0  0  0  0  0
  -28.6412  -17.9883   22.3033 H   0  0  0  0  0  0
  -30.3058  -20.1306   18.2309 H   0  0  0  0  0  0
  -27.5787  -19.9266   22.9993 H   0  0  0  0  0  0
  -27.2401  -21.1820   21.8156 H   0  0  0  0  0  0
  -28.6884  -21.2881   22.8370 H   0  0  0  0  0  0
  -27.0317  -24.4308   20.0059 H   0  0  0  0  0  0
  -28.2237  -24.6348   18.7730 H   0  0  0  0  0  0
  -28.4466  -23.0987   21.4359 H   0  0  0  0  0  0
  -29.8985  -23.5894   20.6476 H   0  0  0  0  0  0
  -28.8745  -15.7152   21.1626 H   0  0  0  0  0  0
  1 25  1  0  0  0
  1 30  2  0  0  0
  1 80  1  0  0  0
  2  3  1  0  0  0
  2 25  1  0  0  0
  2 83  1  0  0  0
  2 84  1  0  0  0
  3  4  1  0  0  0
  3 85  1  0  0  0
  3 86  1  0  0  0
  4  5  1  0  0  0
  4 87  1  0  0  0
  4 88  1  0  0  0
  5  6  1  0  0  0
  5 26  1  0  0  0
  5 89  1  0  0  0
  6 25  1  0  0  0
  6 90  1  0  0  0
  6 91  1  0  0  0
  7  8  2  0  0  0
  7 26  1  0  0  0
  7 29  1  0  0  0
  8  9  1  0  0  0
  8 22  1  0  0  0
  9 10  1  0  0  0
  9 27  2  0  0  0
 10 11  2  0  0  0
 10 15  1  0  0  0
 11 12  1  0  0  0
 11 92  1  0  0  0
 12 13  2  0  0  0
 12 93  1  0  0  0
 13 14  1  0  0  0
 13 31  1  0  0  0
 14 15  2  0  0  0
 14 94  1  0  0  0
 15 95  1  0  0  0
 16 17  2  0  0  0
 16 21  1  0  0  0
 16 31  1  0  0  0
 17 18  1  0  0  0
 17 96  1  0  0  0
 18 19  2  0  0  0
 18 97  1  0  0  0
 19 20  1  0  0  0
 19 24  1  0  0  0
 20 21  2  0  0  0
 20 98  1  0  0  0
 21 23  1  0  0  0
 22 28  1  0  0  0
 22 32  2  0  0  0
 26 27  1  0  0  0
 28 99  1  0  0  0
 28100  1  0  0  0
 29101  1  0  0  0
 29102  1  0  0  0
 33 34  1  0  0  0
 33 66  1  0  0  0
 33 70  2  0  0  0
 34 36  1  0  0  0
 34 59  1  0  0  0
 34103  1  0  0  0
 35 44  2  0  0  0
 35 45  1  0  0  0
 35 68  1  0  0  0
 36 56  1  0  0  0
 36104  1  0  0  0
 37 39  1  0  0  0
 37 47  1  0  0  0
 37 66  1  0  0  0
 37105  1  0  0  0
 38 43  2  0  0  0
 38 46  1  0  0  0
 38 47  1  0  0  0
 39 64  1  0  0  0
 39 67  2  0  0  0
 40 52  1  0  0  0
 40 53  2  0  0  0
 40 58  1  0  0  0
 41106  1  0  0  0
 41107  1  0  0  0
 41108  1  0  0  0
 41 48  1  0  0  0
 42 43  1  0  0  0
 42 66  1  0  0  0
 42109  1  0  0  0
 42110  1  0  0  0
 43 44  1  0  0  0
 44111  1  0  0  0
 45 46  2  0  0  0
 45112  1  0  0  0
 46113  1  0  0  0
 47114  1  0  0  0
 47115  1  0  0  0
 48 56  1  0  0  0
 48 65  1  0  0  0
 48116  1  0  0  0
 49 50  1  0  0  0
 49 53  1  0  0  0
 49 64  1  0  0  0
 49117  1  0  0  0
 50 51  1  0  0  0
 50118  1  0  0  0
 50119  1  0  0  0
 51 52  1  0  0  0
 51120  1  0  0  0
 51121  1  0  0  0
 52122  1  0  0  0
 52123  1  0  0  0
 53 54  1  0  0  0
 54 55  2  0  0  0
 54124  1  0  0  0
 55 57  1  0  0  0
 55125  1  0  0  0
 56 69  2  0  0  0
 57 58  2  0  0  0
 57126  1  0  0  0
 58127  1  0  0  0
 59 60  1  0  0  0
 59 61  1  0  0  0
 59 62  1  0  0  0
 60128  1  0  0  0
 60129  1  0  0  0
 60130  1  0  0  0
 61131  1  0  0  0
 61132  1  0  0  0
 61133  1  0  0  0
 62134  1  0  0  0
 62135  1  0  0  0
 62136  1  0  0  0
 63 65  1  0  0  0
 63137  1  0  0  0
 63138  1  0  0  0
 63139  1  0  0  0
 64140  1  0  0  0
 65141  1  0  0  0
 68 78  1  0  0  0
 71 73  2  0  0  0
 71 74  1  0  0  0
 71142  1  0  0  0
 72 75  2  0  0  0
 72 76  1  0  0  0
 72143  1  0  0  0
 73 75  1  0  0  0
 73 77  1  0  0  0
 74 76  2  0  0  0
 74 80  1  0  0  0
 75 81  1  0  0  0
 76 82  1  0  0  0
 77144  1  0  0  0
 77145  1  0  0  0
 77146  1  0  0  0
 78 79  1  0  0  0
 78147  1  0  0  0
 78148  1  0  0  0
 79 81  1  0  0  0
 79149  1  0  0  0
 79150  1  0  0  0
 80151  1  0  0  0
M  ISO  4   1 100  68 101  78 101  80 100
M  END
> <chiral flag>
0

> <version>
0

> <s_m_source_file>
/data/baiqing/PycharmProjects/Reinvent-master-3.2/result/LINK_invent/BTK/process_docking_weight1_custom_sum_contain_oxygen_bond_distance_aromatic_linkinvent_7_9_3/rearranged_h_0013.sdf

> <i_m_source_file_index>
35

> <r_mmod_Potential_Energy-OPLS-2005>
438.99560546875

> <r_mmod_Stretch_Energy-OPLS-2005>
225.689117431641

> <r_mmod_Bend_Energy-OPLS-2005>
280.829620361328

> <r_mmod_Torsional_Energy-OPLS-2005>
235.953842163086

> <r_mmod_Improper_Torsional_Energy-OPLS-2005>
4.49468183517456

> <r_mmod_Van_der_Waal_Energy-OPLS-2005>
133.063781738281

> <r_mmod_Electrostatic_Energy-OPLS-2005>
-395.097534179688

> <r_mmod_Solvation_Energy-OPLS-2005>
-218.803375244141

> <b_mmod_Minimization_Converged-OPLS-2005>
0

> <r_mmod_RMS_Derivative-OPLS-2005>
1.68861591815948

$$$$
35
                    3D
 Structure written by MMmdl.
155163  0  0  1  0            999 V2000
  -30.6120  -14.7260   20.4746 C   0  0  0  0  0  0
  -30.4328  -12.4496   19.4562 C   0  0  0  0  0  0
  -29.5040  -12.5025   18.2241 C   0  0  0  0  0  0
  -28.0308  -12.3273   18.6437 C   0  0  0  0  0  0
  -27.6389  -13.2275   19.8459 C   0  0  2  0  0  0
  -28.6865  -13.1557   20.9768 C   0  0  0  0  0  0
  -25.2503  -13.8189   20.5690 C   0  0  0  0  0  0
  -24.1797  -13.0436   20.9215 C   0  0  0  0  0  0
  -24.6386  -11.6914   20.8755 C   0  0  0  0  0  0
  -23.9065  -10.4291   21.0414 C   0  0  0  0  0  0
  -24.3618   -9.4205   21.9189 C   0  0  0  0  0  0
  -23.6292   -8.2240   22.0756 C   0  0  0  0  0  0
  -22.4275   -8.0280   21.3545 C   0  0  0  0  0  0
  -21.9912   -9.0255   20.4647 C   0  0  0  0  0  0
  -22.7241  -10.2134   20.3060 C   0  0  0  0  0  0
  -21.6853   -6.0735   22.5279 C   0  0  0  0  0  0
  -21.4013   -6.5639   23.8212 C   0  0  0  0  0  0
  -21.3659   -5.6792   24.9174 C   0  0  0  0  0  0
  -21.6044   -4.3055   24.7226 C   0  0  0  0  0  0
  -21.8819   -3.8146   23.4347 C   0  0  0  0  0  0
  -21.9192   -4.6962   22.3402 C   0  0  0  0  0  0
  -22.7820  -13.5220   21.1874 C   0  0  0  0  0  0
  -22.1661   -4.2148   21.0980 F   0  0  0  0  0  0
  -21.5628   -3.4539   25.7738 F   0  0  0  0  0  0
  -29.9830  -13.5073   20.3860 N   0  0  0  0  0  0
  -26.2922  -12.9387   20.3265 N   0  0  0  0  0  0
  -25.9311  -11.6534   20.5750 N   0  0  0  0  0  0
  -22.0466  -12.8210   22.0430 N   0  0  0  0  0  0
  -25.4171  -15.1915   20.4092 N   0  0  0  0  0  0
  -31.8126  -14.8205   20.2042 O   0  0  0  0  0  0
  -21.6639   -6.8878   21.4241 O   0  0  0  0  0  0
  -22.3504  -14.5525   20.6720 O   0  0  0  0  0  0
  -24.6298  -31.8557   23.1973 C   0  0  0  0  0  0
  -25.9128  -32.4757   23.8322 C   0  0  1  0  0  0
  -27.2251  -27.2780   20.1391 C   0  0  0  0  0  0
  -25.5926  -33.8557   24.2250 N   0  0  0  0  0  0
  -23.4261  -30.4752   21.5410 C   0  0  2  0  0  0
  -24.8743  -28.9148   20.1179 C   0  0  0  0  0  0
  -22.7495  -29.4599   22.4931 C   0  0  0  0  0  0
  -18.0287  -28.1384   22.8484 C   0  0  0  0  0  0
  -24.1491  -36.7283   23.2642 C   0  0  0  0  0  0
  -25.9687  -30.7751   21.3719 C   0  0  0  0  0  0
  -26.0445  -29.3955   20.7205 C   0  0  0  0  0  0
  -27.2268  -28.5914   20.7131 C   0  0  0  0  0  0
  -26.0334  -26.8477   19.5237 C   0  0  0  0  0  0
  -24.8720  -27.6481   19.5090 C   0  0  0  0  0  0
  -23.6442  -29.8018   20.1597 C   0  0  0  0  0  0
  -25.4118  -36.3070   24.0326 C   0  0  1  0  0  0
  -20.5890  -28.3691   23.1279 C   0  0  2  0  0  0
  -20.6779  -26.9411   22.5412 C   0  0  0  0  0  0
  -19.5755  -26.6381   21.5214 C   0  0  0  0  0  0
  -18.1932  -26.7926   22.1623 C   0  0  0  0  0  0
  -19.1539  -28.8856   23.2875 C   0  0  0  0  0  0
  -18.9463  -30.1456   23.8891 C   0  0  0  0  0  0
  -17.6462  -30.6586   24.0558 C   0  0  0  0  0  0
  -25.9056  -34.9441   23.5092 C   0  0  0  0  0  0
  -16.5353  -29.9080   23.6330 C   0  0  0  0  0  0
  -16.7275  -28.6500   23.0350 C   0  0  0  0  0  0
  -26.4501  -31.6580   25.0708 C   0  0  0  0  0  0
  -25.3725  -31.3723   26.1427 C   0  0  0  0  0  0
  -27.0351  -30.3001   24.6183 C   0  0  0  0  0  0
  -27.6054  -32.4322   25.7483 C   0  0  0  0  0  0
  -27.5580  -37.1796   24.8466 C   0  0  0  0  0  0
  -21.4205  -29.3035   22.3671 N   0  0  0  0  0  0
  -26.4293  -37.3767   23.9407 N   0  0  0  0  0  0
  -24.6938  -31.0534   22.0938 N   0  0  0  0  0  0
  -23.4201  -28.8152   23.3035 O   0  0  0  0  0  0
  -28.3390  -26.4201   20.1122 O   0  0  0  0  0  0
  -26.5633  -34.8917   22.4664 O   0  0  0  0  0  0
  -23.5452  -32.1368   23.7283 O   0  0  0  0  0  0
  -31.2023  -17.4558   21.8618 C   0  0  0  0  0  0
  -31.5206  -18.7368   22.3464 C   0  0  0  0  0  0
  -30.1701  -17.2577   20.9299 C   0  0  0  0  0  0
  -29.7953  -19.8179   20.9113 C   0  0  0  0  0  0
  -30.8339  -19.8971   21.9000 C   0  0  0  0  0  0
  -29.4774  -18.4564   20.4681 C   0  0  0  0  0  0
  -32.6256  -18.8440   23.3885 C   0  0  0  0  0  0
  -28.4726  -23.6582   20.0276 C   0  0  0  0  0  0
  -29.1173  -22.4357   20.8721 C   0  0  0  0  0  0
  -28.2705  -25.0820   20.7787 C   0  0  0  0  0  0
  -29.8185  -15.8580   20.5871 N   0  0  0  0  0  0
  -29.1033  -20.9961   20.3702 N   0  0  0  0  0  0
  -31.3323  -21.3865   22.6382 Cl  0  0  0  0  0  0
  -28.1955  -18.2447   19.3253 Cl  0  0  0  0  0  0
  -31.4716  -12.5835   19.1494 H   0  0  0  0  0  0
  -30.3842  -11.4721   19.9385 H   0  0  0  0  0  0
  -29.7826  -11.7292   17.5070 H   0  0  0  0  0  0
  -29.6281  -13.4567   17.7094 H   0  0  0  0  0  0
  -27.8884  -11.2788   18.9079 H   0  0  0  0  0  0
  -27.3704  -12.5184   17.7970 H   0  0  0  0  0  0
  -27.6321  -14.2487   19.4650 H   0  0  0  0  0  0
  -28.7224  -12.1565   21.4133 H   0  0  0  0  0  0
  -28.4273  -13.8369   21.7893 H   0  0  0  0  0  0
  -25.2762   -9.5680   22.4766 H   0  0  0  0  0  0
  -24.0000   -7.4631   22.7475 H   0  0  0  0  0  0
  -21.0843   -8.8776   19.8953 H   0  0  0  0  0  0
  -22.3700  -10.9675   19.6171 H   0  0  0  0  0  0
  -21.2007   -7.6148   23.9715 H   0  0  0  0  0  0
  -21.1481   -6.0523   25.9077 H   0  0  0  0  0  0
  -22.0599   -2.7609   23.2847 H   0  0  0  0  0  0
  -22.4084  -11.9870   22.4815 H   0  0  0  0  0  0
  -21.1085  -13.1235   22.2641 H   0  0  0  0  0  0
  -24.6427  -15.8376   20.5159 H   0  0  0  0  0  0
  -26.2512  -15.6363   20.0502 H   0  0  0  0  0  0
  -26.7198  -32.5418   23.1069 H   0  0  0  0  0  0
  -25.0060  -33.9688   25.0388 H   0  0  0  0  0  0
  -22.7214  -31.2960   21.3922 H   0  0  0  0  0  0
  -23.3752  -35.9617   23.3304 H   0  0  0  0  0  0
  -24.3578  -36.8907   22.2056 H   0  0  0  0  0  0
  -23.7245  -37.6484   23.6669 H   0  0  0  0  0  0
  -26.1013  -31.5344   20.6002 H   0  0  0  0  0  0
  -26.8481  -30.8287   22.0022 H   0  0  0  0  0  0
  -28.1308  -28.9608   21.1770 H   0  0  0  0  0  0
  -26.0005  -25.8737   19.0559 H   0  0  0  0  0  0
  -23.9750  -27.2734   19.0353 H   0  0  0  0  0  0
  -23.7682  -30.5741   19.3997 H   0  0  0  0  0  0
  -22.7632  -29.2326   19.8578 H   0  0  0  0  0  0
  -25.1301  -36.1917   25.0818 H   0  0  0  0  0  0
  -20.9975  -28.3270   24.1402 H   0  0  0  0  0  0
  -20.5684  -26.2299   23.3614 H   0  0  0  0  0  0
  -21.6647  -26.7441   22.1202 H   0  0  0  0  0  0
  -19.6917  -25.6292   21.1243 H   0  0  0  0  0  0
  -19.6693  -27.3194   20.6747 H   0  0  0  0  0  0
  -17.4204  -26.6672   21.4024 H   0  0  0  0  0  0
  -18.0330  -26.0069   22.9020 H   0  0  0  0  0  0
  -19.7940  -30.7272   24.2258 H   0  0  0  0  0  0
  -17.5016  -31.6265   24.5163 H   0  0  0  0  0  0
  -15.5353  -30.2978   23.7659 H   0  0  0  0  0  0
  -15.8676  -28.0817   22.7065 H   0  0  0  0  0  0
  -24.5904  -30.7070   25.7750 H   0  0  0  0  0  0
  -24.8909  -32.2889   26.4846 H   0  0  0  0  0  0
  -25.8038  -30.8902   27.0209 H   0  0  0  0  0  0
  -26.2931  -29.6741   24.1215 H   0  0  0  0  0  0
  -27.4049  -29.7271   25.4696 H   0  0  0  0  0  0
  -27.8798  -30.4279   23.9410 H   0  0  0  0  0  0
  -27.2662  -33.3628   26.2046 H   0  0  0  0  0  0
  -28.3872  -32.6874   25.0316 H   0  0  0  0  0  0
  -28.0716  -31.8458   26.5410 H   0  0  0  0  0  0
  -28.2597  -38.0094   24.7509 H   0  0  0  0  0  0
  -28.1073  -36.2622   24.6297 H   0  0  0  0  0  0
  -27.2293  -37.1453   25.8868 H   0  0  0  0  0  0
  -20.9398  -29.8740   21.6857 H   0  0  0  0  0  0
  -26.0172  -38.2842   24.1402 H   0  0  0  0  0  0
  -31.7413  -16.6042   22.2520 H   0  0  0  0  0  0
  -33.0501  -17.8702   23.6341 H   0  0  0  0  0  0
  -32.2414  -19.2756   24.3134 H   0  0  0  0  0  0
  -33.4377  -19.4742   23.0247 H   0  0  0  0  0  0
  -27.5045  -23.3513   19.6305 H   0  0  0  0  0  0
  -29.1042  -23.8238   19.1547 H   0  0  0  0  0  0
  -28.6813  -22.4381   21.8725 H   0  0  0  0  0  0
  -30.1535  -22.7439   20.9805 H   0  0  0  0  0  0
  -29.0564  -25.1349   21.5327 H   0  0  0  0  0  0
  -27.3505  -25.0257   21.3628 H   0  0  0  0  0  0
  -28.8315  -15.6869   20.4787 H   0  0  0  0  0  0
  -28.3963  -20.7777   19.6737 H   0  0  0  0  0  0
  1 25  1  0  0  0
  1 30  2  0  0  0
  1 81  1  0  0  0
  2  3  1  0  0  0
  2 25  1  0  0  0
  2 85  1  0  0  0
  2 86  1  0  0  0
  3  4  1  0  0  0
  3 87  1  0  0  0
  3 88  1  0  0  0
  4  5  1  0  0  0
  4 89  1  0  0  0
  4 90  1  0  0  0
  5  6  1  0  0  0
  5 26  1  0  0  0
  5 91  1  0  0  0
  6 25  1  0  0  0
  6 92  1  0  0  0
  6 93  1  0  0  0
  7  8  2  0  0  0
  7 26  1  0  0  0
  7 29  1  0  0  0
  8  9  1  0  0  0
  8 22  1  0  0  0
  9 10  1  0  0  0
  9 27  2  0  0  0
 10 11  2  0  0  0
 10 15  1  0  0  0
 11 12  1  0  0  0
 11 94  1  0  0  0
 12 13  2  0  0  0
 12 95  1  0  0  0
 13 14  1  0  0  0
 13 31  1  0  0  0
 14 15  2  0  0  0
 14 96  1  0  0  0
 15 97  1  0  0  0
 16 17  2  0  0  0
 16 21  1  0  0  0
 16 31  1  0  0  0
 17 18  1  0  0  0
 17 98  1  0  0  0
 18 19  2  0  0  0
 18 99  1  0  0  0
 19 20  1  0  0  0
 19 24  1  0  0  0
 20 21  2  0  0  0
 20100  1  0  0  0
 21 23  1  0  0  0
 22 28  1  0  0  0
 22 32  2  0  0  0
 26 27  1  0  0  0
 28101  1  0  0  0
 28102  1  0  0  0
 29103  1  0  0  0
 29104  1  0  0  0
 33 34  1  0  0  0
 33 66  1  0  0  0
 33 70  2  0  0  0
 34 36  1  0  0  0
 34 59  1  0  0  0
 34105  1  0  0  0
 35 44  2  0  0  0
 35 45  1  0  0  0
 35 68  1  0  0  0
 36 56  1  0  0  0
 36106  1  0  0  0
 37 39  1  0  0  0
 37 47  1  0  0  0
 37 66  1  0  0  0
 37107  1  0  0  0
 38 43  2  0  0  0
 38 46  1  0  0  0
 38 47  1  0  0  0
 39 64  1  0  0  0
 39 67  2  0  0  0
 40 52  1  0  0  0
 40 53  2  0  0  0
 40 58  1  0  0  0
 41108  1  0  0  0
 41109  1  0  0  0
 41110  1  0  0  0
 41 48  1  0  0  0
 42 43  1  0  0  0
 42 66  1  0  0  0
 42111  1  0  0  0
 42112  1  0  0  0
 43 44  1  0  0  0
 44113  1  0  0  0
 45 46  2  0  0  0
 45114  1  0  0  0
 46115  1  0  0  0
 47116  1  0  0  0
 47117  1  0  0  0
 48 56  1  0  0  0
 48 65  1  0  0  0
 48118  1  0  0  0
 49 50  1  0  0  0
 49 53  1  0  0  0
 49 64  1  0  0  0
 49119  1  0  0  0
 50 51  1  0  0  0
 50120  1  0  0  0
 50121  1  0  0  0
 51 52  1  0  0  0
 51122  1  0  0  0
 51123  1  0  0  0
 52124  1  0  0  0
 52125  1  0  0  0
 53 54  1  0  0  0
 54 55  2  0  0  0
 54126  1  0  0  0
 55 57  1  0  0  0
 55127  1  0  0  0
 56 69  2  0  0  0
 57 58  2  0  0  0
 57128  1  0  0  0
 58129  1  0  0  0
 59 60  1  0  0  0
 59 61  1  0  0  0
 59 62  1  0  0  0
 60130  1  0  0  0
 60131  1  0  0  0
 60132  1  0  0  0
 61133  1  0  0  0
 61134  1  0  0  0
 61135  1  0  0  0
 62136  1  0  0  0
 62137  1  0  0  0
 62138  1  0  0  0
 63 65  1  0  0  0
 63139  1  0  0  0
 63140  1  0  0  0
 63141  1  0  0  0
 64142  1  0  0  0
 65143  1  0  0  0
 68 80  1  0  0  0
 71 72  2  0  0  0
 71 73  1  0  0  0
 71144  1  0  0  0
 72 75  1  0  0  0
 72 77  1  0  0  0
 73 76  2  0  0  0
 73 81  1  0  0  0
 74 75  2  0  0  0
 74 76  1  0  0  0
 74 82  1  0  0  0
 75 83  1  0  0  0
 76 84  1  0  0  0
 77145  1  0  0  0
 77146  1  0  0  0
 77147  1  0  0  0
 78 79  1  0  0  0
 78 80  1  0  0  0
 78148  1  0  0  0
 78149  1  0  0  0
 79 82  1  0  0  0
 79150  1  0  0  0
 79151  1  0  0  0
 80152  1  0  0  0
 80153  1  0  0  0
 81154  1  0  0  0
 82155  1  0  0  0
M  ISO  4   1 100  68 101  80 101  81 100
M  END
> <chiral flag>
0

> <version>
0

> <s_m_source_file>
/data/baiqing/PycharmProjects/Reinvent-master-3.2/result/LINK_invent/BTK/process_docking_weight1_custom_sum_contain_oxygen_bond_distance_aromatic_linkinvent_7_9_3/rearranged_h_0013.sdf

> <i_m_source_file_index>
36

> <r_mmod_Potential_Energy-OPLS-2005>
258.253173828125

> <r_mmod_Stretch_Energy-OPLS-2005>
124.29606628418

> <r_mmod_Bend_Energy-OPLS-2005>
179.687362670898

> <r_mmod_Torsional_Energy-OPLS-2005>
241.938690185547

> <r_mmod_Improper_Torsional_Energy-OPLS-2005>
7.37299251556396

> <r_mmod_Van_der_Waal_Energy-OPLS-2005>
147.072952270508

> <r_mmod_Electrostatic_Energy-OPLS-2005>
-309.789337158203

> <r_mmod_Solvation_Energy-OPLS-2005>
-207.521774291992

> <b_mmod_Minimization_Converged-OPLS-2005>
0

> <r_mmod_RMS_Derivative-OPLS-2005>
0.340325504541397

$$$$
36
                    3D
 Structure written by MMmdl.
159168  0  0  1  0            999 V2000
  -30.5332  -14.9169   20.4041 C   0  0  0  0  0  0
  -30.4304  -12.5586   19.5153 C   0  0  0  0  0  0
  -29.5177  -12.5304   18.2653 C   0  0  0  0  0  0
  -28.0480  -12.3246   18.6732 C   0  0  0  0  0  0
  -27.6281  -13.2514   19.8449 C   0  0  2  0  0  0
  -28.6635  -13.2649   20.9909 C   0  0  0  0  0  0
  -25.2419  -13.8224   20.5720 C   0  0  0  0  0  0
  -24.1739  -13.0423   20.9212 C   0  0  0  0  0  0
  -24.6376  -11.6919   20.8733 C   0  0  0  0  0  0
  -23.9070  -10.4283   21.0381 C   0  0  0  0  0  0
  -24.3624   -9.4202   21.9163 C   0  0  0  0  0  0
  -23.6303   -8.2234   22.0738 C   0  0  0  0  0  0
  -22.4279   -8.0278   21.3537 C   0  0  0  0  0  0
  -21.9914   -9.0249   20.4636 C   0  0  0  0  0  0
  -22.7230  -10.2130   20.3037 C   0  0  0  0  0  0
  -21.6831   -6.0749   22.5275 C   0  0  0  0  0  0
  -21.4008   -6.5652   23.8208 C   0  0  0  0  0  0
  -21.3673   -5.6792   24.9170 C   0  0  0  0  0  0
  -21.6046   -4.3057   24.7208 C   0  0  0  0  0  0
  -21.8813   -3.8154   23.4321 C   0  0  0  0  0  0
  -21.9190   -4.6983   22.3378 C   0  0  0  0  0  0
  -22.7765  -13.5186   21.1903 C   0  0  0  0  0  0
  -22.1652   -4.2174   21.0953 F   0  0  0  0  0  0
  -21.5650   -3.4542   25.7723 F   0  0  0  0  0  0
  -29.9546  -13.6522   20.4102 N   0  0  0  0  0  0
  -26.2857  -12.9471   20.3252 N   0  0  0  0  0  0
  -25.9314  -11.6590   20.5740 N   0  0  0  0  0  0
  -22.0435  -12.8162   22.0470 N   0  0  0  0  0  0
  -25.4068  -15.1967   20.4188 N   0  0  0  0  0  0
  -31.7189  -14.9994   20.0609 O   0  0  0  0  0  0
  -21.6616   -6.8894   21.4236 O   0  0  0  0  0  0
  -22.3431  -14.5499   20.6785 O   0  0  0  0  0  0
  -24.6411  -31.8441   23.1866 C   0  0  0  0  0  0
  -25.9197  -32.4684   23.8258 C   0  0  1  0  0  0
  -27.2260  -27.1575   20.1487 C   0  0  0  0  0  0
  -25.5952  -33.8486   24.2178 N   0  0  0  0  0  0
  -23.4424  -30.4595   21.5327 C   0  0  2  0  0  0
  -24.8916  -28.8825   20.1064 C   0  0  0  0  0  0
  -22.7547  -29.4543   22.4886 C   0  0  0  0  0  0
  -18.0295  -28.1403   22.8468 C   0  0  0  0  0  0
  -24.1490  -36.7250   23.2642 C   0  0  0  0  0  0
  -25.9939  -30.7225   21.3813 C   0  0  0  0  0  0
  -26.0648  -29.3351   20.7236 C   0  0  0  0  0  0
  -27.2284  -28.4867   20.7277 C   0  0  0  0  0  0
  -26.0308  -26.7907   19.4961 C   0  0  0  0  0  0
  -24.8873  -27.6238   19.4774 C   0  0  0  0  0  0
  -23.6643  -29.7796   20.1536 C   0  0  0  0  0  0
  -25.4120  -36.3020   24.0316 C   0  0  1  0  0  0
  -20.5899  -28.3716   23.1249 C   0  0  2  0  0  0
  -20.6776  -26.9426   22.5409 C   0  0  0  0  0  0
  -19.5750  -26.6379   21.5214 C   0  0  0  0  0  0
  -18.1928  -26.7945   22.1621 C   0  0  0  0  0  0
  -19.1551  -28.8883   23.2846 C   0  0  0  0  0  0
  -18.9476  -30.1485   23.8860 C   0  0  0  0  0  0
  -17.6469  -30.6601   24.0557 C   0  0  0  0  0  0
  -25.9069  -34.9401   23.5059 C   0  0  0  0  0  0
  -16.5358  -29.9085   23.6352 C   0  0  0  0  0  0
  -16.7283  -28.6516   23.0358 C   0  0  0  0  0  0
  -26.4523  -31.6558   25.0706 C   0  0  0  0  0  0
  -25.3716  -31.3760   26.1409 C   0  0  0  0  0  0
  -27.0392  -30.2952   24.6298 C   0  0  0  0  0  0
  -27.6048  -32.4330   25.7492 C   0  0  0  0  0  0
  -27.5578  -37.1770   24.8462 C   0  0  0  0  0  0
  -21.4249  -29.3039   22.3627 N   0  0  0  0  0  0
  -26.4278  -37.3737   23.9425 N   0  0  0  0  0  0
  -24.7118  -31.0298   22.0890 N   0  0  0  0  0  0
  -23.4195  -28.8120   23.3051 O   0  0  0  0  0  0
  -28.3149  -26.2295   20.2536 O   0  0  0  0  0  0
  -26.5656  -34.8902   22.4633 O   0  0  0  0  0  0
  -23.5536  -32.1321   23.7102 O   0  0  0  0  0  0
  -29.1015  -19.8366   18.4343 C   0  0  0  0  0  0
  -29.4182  -18.7892   20.5923 C   0  0  0  0  0  0
  -29.2914  -18.5706   17.8271 C   0  0  0  0  0  0
  -29.1684  -20.0419   19.8304 C   0  0  0  0  0  0
  -29.6458  -17.4398   20.0031 C   0  0  0  0  0  0
  -29.5735  -17.4103   18.5903 C   0  0  0  0  0  0
  -29.7264  -24.0149   20.1139 C   0  0  0  0  0  0
  -27.4457  -23.6274   20.6232 C   0  0  0  0  0  0
  -29.9046  -22.4682   19.7019 C   0  0  0  0  0  0
  -27.6312  -22.0743   20.1834 C   0  0  0  0  0  0
  -28.3276  -24.7201   19.8886 C   0  0  0  0  0  0
  -29.1555  -18.4324   16.3147 C   0  0  0  0  0  0
  -28.9890  -21.4446   20.3087 N   0  0  0  0  0  0
  -29.7740  -16.0790   20.6957 N   0  0  0  0  0  0
  -29.7047  -16.2231   17.9490 F   0  0  0  0  0  0
  -28.8217  -19.5822   15.7260 F   0  0  0  0  0  0
  -30.3080  -18.0177   15.7892 F   0  0  0  0  0  0
  -28.2055  -17.5417   16.0274 F   0  0  0  0  0  0
  -31.4689  -12.7027   19.2144 H   0  0  0  0  0  0
  -30.4015  -11.6007   20.0370 H   0  0  0  0  0  0
  -29.8320  -11.7406   17.5814 H   0  0  0  0  0  0
  -29.6157  -13.4693   17.7181 H   0  0  0  0  0  0
  -27.9308  -11.2830   18.9702 H   0  0  0  0  0  0
  -27.3906  -12.4722   17.8153 H   0  0  0  0  0  0
  -27.5969  -14.2576   19.4240 H   0  0  0  0  0  0
  -28.7272  -12.2910   21.4797 H   0  0  0  0  0  0
  -28.3608  -13.9759   21.7621 H   0  0  0  0  0  0
  -25.2766   -9.5676   22.4760 H   0  0  0  0  0  0
  -24.0035   -7.4612   22.7439 H   0  0  0  0  0  0
  -21.0854   -8.8742   19.8933 H   0  0  0  0  0  0
  -22.3666  -10.9688   19.6167 H   0  0  0  0  0  0
  -21.1981   -7.6159   23.9730 H   0  0  0  0  0  0
  -21.1516   -6.0510   25.9083 H   0  0  0  0  0  0
  -22.0587   -2.7631   23.2778 H   0  0  0  0  0  0
  -22.4101  -11.9839   22.4847 H   0  0  0  0  0  0
  -21.1061  -13.1185   22.2734 H   0  0  0  0  0  0
  -24.6367  -15.8460   20.5439 H   0  0  0  0  0  0
  -26.2449  -15.6431   20.0708 H   0  0  0  0  0  0
  -26.7264  -32.5285   23.0981 H   0  0  0  0  0  0
  -25.0096  -33.9592   25.0325 H   0  0  0  0  0  0
  -22.7436  -31.2842   21.3772 H   0  0  0  0  0  0
  -23.3757  -35.9573   23.3271 H   0  0  0  0  0  0
  -24.3582  -36.8915   22.2065 H   0  0  0  0  0  0
  -23.7228  -37.6430   23.6695 H   0  0  0  0  0  0
  -26.1460  -31.4777   20.6096 H   0  0  0  0  0  0
  -26.8642  -30.7717   22.0243 H   0  0  0  0  0  0
  -28.1213  -28.8262   21.2332 H   0  0  0  0  0  0
  -25.9573  -25.8213   19.0245 H   0  0  0  0  0  0
  -23.9901  -27.2710   18.9879 H   0  0  0  0  0  0
  -23.7877  -30.5488   19.3901 H   0  0  0  0  0  0
  -22.7810  -29.2124   19.8555 H   0  0  0  0  0  0
  -25.1298  -36.1842   25.0802 H   0  0  0  0  0  0
  -20.9978  -28.3306   24.1375 H   0  0  0  0  0  0
  -20.5674  -26.2336   23.3626 H   0  0  0  0  0  0
  -21.6644  -26.7439   22.1205 H   0  0  0  0  0  0
  -19.6911  -25.6280   21.1271 H   0  0  0  0  0  0
  -19.6696  -27.3170   20.6727 H   0  0  0  0  0  0
  -17.4206  -26.6694   21.4020 H   0  0  0  0  0  0
  -18.0325  -26.0096   22.9026 H   0  0  0  0  0  0
  -19.7950  -30.7313   24.2197 H   0  0  0  0  0  0
  -17.5030  -31.6279   24.5158 H   0  0  0  0  0  0
  -15.5356  -30.2975   23.7712 H   0  0  0  0  0  0
  -15.8686  -28.0833   22.7082 H   0  0  0  0  0  0
  -24.5867  -30.7134   25.7741 H   0  0  0  0  0  0
  -24.8933  -32.2951   26.4801 H   0  0  0  0  0  0
  -25.7995  -30.8949   27.0211 H   0  0  0  0  0  0
  -26.3021  -29.6662   24.1288 H   0  0  0  0  0  0
  -27.3986  -29.7256   25.4880 H   0  0  0  0  0  0
  -27.8931  -30.4180   23.9629 H   0  0  0  0  0  0
  -27.2623  -33.3627   26.2040 H   0  0  0  0  0  0
  -28.3865  -32.6896   25.0336 H   0  0  0  0  0  0
  -28.0712  -31.8490   26.5433 H   0  0  0  0  0  0
  -28.2556  -38.0105   24.7534 H   0  0  0  0  0  0
  -28.1102  -36.2627   24.6230 H   0  0  0  0  0  0
  -27.2306  -37.1354   25.8866 H   0  0  0  0  0  0
  -20.9472  -29.8727   21.6778 H   0  0  0  0  0  0
  -26.0140  -38.2802   24.1424 H   0  0  0  0  0  0
  -28.8863  -20.6735   17.7895 H   0  0  0  0  0  0
  -29.4346  -18.8699   21.6688 H   0  0  0  0  0  0
  -30.4808  -24.5887   19.5747 H   0  0  0  0  0  0
  -29.9961  -24.1220   21.1651 H   0  0  0  0  0  0
  -27.6194  -23.7011   21.6972 H   0  0  0  0  0  0
  -26.3966  -23.8959   20.4919 H   0  0  0  0  0  0
  -30.9263  -22.1704   19.9465 H   0  0  0  0  0  0
  -29.8445  -22.4176   18.6156 H   0  0  0  0  0  0
  -27.2921  -21.9662   19.1514 H   0  0  0  0  0  0
  -26.9413  -21.4740   20.7783 H   0  0  0  0  0  0
  -28.1007  -24.6668   18.8232 H   0  0  0  0  0  0
  -28.9743  -15.8640   21.2716 H   0  0  0  0  0  0
  1 25  1  0  0  0
  1 30  2  0  0  0
  1 84  1  0  0  0
  2  3  1  0  0  0
  2 25  1  0  0  0
  2 89  1  0  0  0
  2 90  1  0  0  0
  3  4  1  0  0  0
  3 91  1  0  0  0
  3 92  1  0  0  0
  4  5  1  0  0  0
  4 93  1  0  0  0
  4 94  1  0  0  0
  5  6  1  0  0  0
  5 26  1  0  0  0
  5 95  1  0  0  0
  6 25  1  0  0  0
  6 96  1  0  0  0
  6 97  1  0  0  0
  7  8  2  0  0  0
  7 26  1  0  0  0
  7 29  1  0  0  0
  8  9  1  0  0  0
  8 22  1  0  0  0
  9 10  1  0  0  0
  9 27  2  0  0  0
 10 11  2  0  0  0
 10 15  1  0  0  0
 11 12  1  0  0  0
 11 98  1  0  0  0
 12 13  2  0  0  0
 12 99  1  0  0  0
 13 14  1  0  0  0
 13 31  1  0  0  0
 14 15  2  0  0  0
 14100  1  0  0  0
 15101  1  0  0  0
 16 17  2  0  0  0
 16 21  1  0  0  0
 16 31  1  0  0  0
 17 18  1  0  0  0
 17102  1  0  0  0
 18 19  2  0  0  0
 18103  1  0  0  0
 19 20  1  0  0  0
 19 24  1  0  0  0
 20 21  2  0  0  0
 20104  1  0  0  0
 21 23  1  0  0  0
 22 28  1  0  0  0
 22 32  2  0  0  0
 26 27  1  0  0  0
 28105  1  0  0  0
 28106  1  0  0  0
 29107  1  0  0  0
 29108  1  0  0  0
 33 34  1  0  0  0
 33 66  1  0  0  0
 33 70  2  0  0  0
 34 36  1  0  0  0
 34 59  1  0  0  0
 34109  1  0  0  0
 35 44  2  0  0  0
 35 45  1  0  0  0
 35 68  1  0  0  0
 36 56  1  0  0  0
 36110  1  0  0  0
 37 39  1  0  0  0
 37 47  1  0  0  0
 37 66  1  0  0  0
 37111  1  0  0  0
 38 43  2  0  0  0
 38 46  1  0  0  0
 38 47  1  0  0  0
 39 64  1  0  0  0
 39 67  2  0  0  0
 40 52  1  0  0  0
 40 53  2  0  0  0
 40 58  1  0  0  0
 41112  1  0  0  0
 41113  1  0  0  0
 41114  1  0  0  0
 41 48  1  0  0  0
 42 43  1  0  0  0
 42 66  1  0  0  0
 42115  1  0  0  0
 42116  1  0  0  0
 43 44  1  0  0  0
 44117  1  0  0  0
 45 46  2  0  0  0
 45118  1  0  0  0
 46119  1  0  0  0
 47120  1  0  0  0
 47121  1  0  0  0
 48 56  1  0  0  0
 48 65  1  0  0  0
 48122  1  0  0  0
 49 50  1  0  0  0
 49 53  1  0  0  0
 49 64  1  0  0  0
 49123  1  0  0  0
 50 51  1  0  0  0
 50124  1  0  0  0
 50125  1  0  0  0
 51 52  1  0  0  0
 51126  1  0  0  0
 51127  1  0  0  0
 52128  1  0  0  0
 52129  1  0  0  0
 53 54  1  0  0  0
 54 55  2  0  0  0
 54130  1  0  0  0
 55 57  1  0  0  0
 55131  1  0  0  0
 56 69  2  0  0  0
 57 58  2  0  0  0
 57132  1  0  0  0
 58133  1  0  0  0
 59 60  1  0  0  0
 59 61  1  0  0  0
 59 62  1  0  0  0
 60134  1  0  0  0
 60135  1  0  0  0
 60136  1  0  0  0
 61137  1  0  0  0
 61138  1  0  0  0
 61139  1  0  0  0
 62140  1  0  0  0
 62141  1  0  0  0
 62142  1  0  0  0
 63 65  1  0  0  0
 63143  1  0  0  0
 63144  1  0  0  0
 63145  1  0  0  0
 64146  1  0  0  0
 65147  1  0  0  0
 68 81  1  0  0  0
 71 73  2  0  0  0
 71 74  1  0  0  0
 71148  1  0  0  0
 72 74  2  0  0  0
 72 75  1  0  0  0
 72149  1  0  0  0
 73 76  1  0  0  0
 73 82  1  0  0  0
 74 83  1  0  0  0
 75 76  2  0  0  0
 75 84  1  0  0  0
 76 85  1  0  0  0
 77 79  1  0  0  0
 77 81  1  0  0  0
 77150  1  0  0  0
 77151  1  0  0  0
 78 80  1  0  0  0
 78 81  1  0  0  0
 78152  1  0  0  0
 78153  1  0  0  0
 79 83  1  0  0  0
 79154  1  0  0  0
 79155  1  0  0  0
 80 83  1  0  0  0
 80156  1  0  0  0
 80157  1  0  0  0
 81158  1  0  0  0
 82 86  1  0  0  0
 82 87  1  0  0  0
 82 88  1  0  0  0
 84159  1  0  0  0
M  ISO  4   1 100  68 101  81 101  84 100
M  END
> <chiral flag>
0

> <version>
0

> <s_m_source_file>
/data/baiqing/PycharmProjects/Reinvent-master-3.2/result/LINK_invent/BTK/process_docking_weight1_custom_sum_contain_oxygen_bond_distance_aromatic_linkinvent_7_9_3/rearranged_h_0013.sdf

> <i_m_source_file_index>
37

> <r_mmod_Potential_Energy-OPLS-2005>
418.850006103516

> <r_mmod_Stretch_Energy-OPLS-2005>
209.772003173828

> <r_mmod_Bend_Energy-OPLS-2005>
248.006744384766

> <r_mmod_Torsional_Energy-OPLS-2005>
281.694366455078

> <r_mmod_Improper_Torsional_Energy-OPLS-2005>
10.2653570175171

> <r_mmod_Van_der_Waal_Energy-OPLS-2005>
137.683074951172

> <r_mmod_Electrostatic_Energy-OPLS-2005>
-406.160522460938

> <r_mmod_Solvation_Energy-OPLS-2005>
-233.663436889648

> <b_mmod_Minimization_Converged-OPLS-2005>
0

> <r_mmod_RMS_Derivative-OPLS-2005>
2.62641668319702

$$$$
37
                    3D
 Structure written by MMmdl.
151159  0  0  1  0            999 V2000
  -30.5199  -15.0491   20.4154 C   0  0  0  0  0  0
  -30.4375  -12.6589   19.5053 C   0  0  0  0  0  0
  -29.5229  -12.5429   18.2636 C   0  0  0  0  0  0
  -28.0613  -12.3095   18.6869 C   0  0  0  0  0  0
  -27.6224  -13.2582   19.8323 C   0  0  2  0  0  0
  -28.6641  -13.3389   20.9684 C   0  0  0  0  0  0
  -25.2431  -13.8230   20.5727 C   0  0  0  0  0  0
  -24.1764  -13.0439   20.9245 C   0  0  0  0  0  0
  -24.6396  -11.6930   20.8763 C   0  0  0  0  0  0
  -23.9085  -10.4293   21.0410 C   0  0  0  0  0  0
  -24.3632   -9.4206   21.9186 C   0  0  0  0  0  0
  -23.6302   -8.2243   22.0754 C   0  0  0  0  0  0
  -22.4283   -8.0284   21.3545 C   0  0  0  0  0  0
  -21.9924   -9.0259   20.4647 C   0  0  0  0  0  0
  -22.7258  -10.2135   20.3058 C   0  0  0  0  0  0
  -21.6855   -6.0739   22.5279 C   0  0  0  0  0  0
  -21.4016   -6.5642   23.8213 C   0  0  0  0  0  0
  -21.3659   -5.6794   24.9175 C   0  0  0  0  0  0
  -21.6044   -4.3056   24.7225 C   0  0  0  0  0  0
  -21.8819   -3.8149   23.4345 C   0  0  0  0  0  0
  -21.9193   -4.6966   22.3402 C   0  0  0  0  0  0
  -22.7782  -13.5201   21.1894 C   0  0  0  0  0  0
  -22.1662   -4.2152   21.0980 F   0  0  0  0  0  0
  -21.5628   -3.4539   25.7737 F   0  0  0  0  0  0
  -29.9239  -13.7796   20.3553 N   0  0  0  0  0  0
  -26.2857  -12.9480   20.3239 N   0  0  0  0  0  0
  -25.9330  -11.6600   20.5740 N   0  0  0  0  0  0
  -22.0436  -12.8184   22.0448 N   0  0  0  0  0  0
  -25.4063  -15.1963   20.4147 N   0  0  0  0  0  0
  -31.7260  -15.0719   20.1443 O   0  0  0  0  0  0
  -21.6643   -6.8883   21.4242 O   0  0  0  0  0  0
  -22.3462  -14.5502   20.6734 O   0  0  0  0  0  0
  -24.6505  -31.8369   23.1821 C   0  0  0  0  0  0
  -25.9245  -32.4657   23.8236 C   0  0  1  0  0  0
  -27.2154  -27.0617   20.1627 C   0  0  0  0  0  0
  -25.5965  -33.8466   24.2148 N   0  0  0  0  0  0
  -23.4581  -30.4539   21.5288 C   0  0  2  0  0  0
  -24.9091  -28.8679   20.1094 C   0  0  0  0  0  0
  -22.7604  -29.4510   22.4829 C   0  0  0  0  0  0
  -18.0312  -28.1401   22.8474 C   0  0  0  0  0  0
  -24.1493  -36.7237   23.2644 C   0  0  0  0  0  0
  -26.0193  -30.6866   21.3925 C   0  0  0  0  0  0
  -26.0891  -29.2907   20.7342 C   0  0  0  0  0  0
  -27.2415  -28.4053   20.7413 C   0  0  0  0  0  0
  -26.0093  -26.7607   19.4918 C   0  0  0  0  0  0
  -24.8866  -27.6193   19.4703 C   0  0  0  0  0  0
  -23.6892  -29.7793   20.1501 C   0  0  0  0  0  0
  -25.4129  -36.3009   24.0309 C   0  0  1  0  0  0
  -20.5929  -28.3733   23.1218 C   0  0  2  0  0  0
  -20.6793  -26.9429   22.5404 C   0  0  0  0  0  0
  -19.5766  -26.6380   21.5214 C   0  0  0  0  0  0
  -18.1949  -26.7937   22.1624 C   0  0  0  0  0  0
  -19.1570  -28.8887   23.2836 C   0  0  0  0  0  0
  -18.9484  -30.1480   23.8865 C   0  0  0  0  0  0
  -17.6479  -30.6594   24.0557 C   0  0  0  0  0  0
  -25.9084  -34.9387   23.5042 C   0  0  0  0  0  0
  -16.5369  -29.9085   23.6340 C   0  0  0  0  0  0
  -16.7295  -28.6504   23.0360 C   0  0  0  0  0  0
  -26.4540  -31.6554   25.0711 C   0  0  0  0  0  0
  -25.3702  -31.3768   26.1391 C   0  0  0  0  0  0
  -27.0418  -30.2939   24.6351 C   0  0  0  0  0  0
  -27.6053  -32.4338   25.7504 C   0  0  0  0  0  0
  -27.5572  -37.1778   24.8467 C   0  0  0  0  0  0
  -21.4288  -29.3046   22.3579 N   0  0  0  0  0  0
  -26.4285  -37.3730   23.9406 N   0  0  0  0  0  0
  -24.7296  -31.0157   22.0890 N   0  0  0  0  0  0
  -23.4213  -28.8067   23.3014 O   0  0  0  0  0  0
  -28.2387  -26.0229   20.2461 O   0  0  0  0  0  0
  -26.5678  -34.8897   22.4626 O   0  0  0  0  0  0
  -23.5606  -32.1278   23.6996 O   0  0  0  0  0  0
  -30.6934  -20.6057   21.3971 C   0  0  0  0  0  0
  -31.4560  -19.5153   21.8740 C   0  0  0  0  0  0
  -29.5279  -20.4620   20.6170 C   0  0  0  0  0  0
  -30.0404  -17.7963   20.7528 C   0  0  0  0  0  0
  -31.1313  -18.1583   21.5983 C   0  0  0  0  0  0
  -29.2411  -19.0065   20.3103 C   0  0  0  0  0  0
  -28.9628  -23.2051   20.4415 C   0  0  0  0  0  0
  -32.6559  -19.8375   22.7544 C   0  0  0  0  0  0
  -27.9273  -24.4758   20.0317 C   0  0  0  0  0  0
  -28.7488  -21.7791   20.2470 N   0  0  0  0  0  0
  -29.7477  -16.2690   20.5162 N   0  0  0  0  0  0
  -30.0196  -23.5771   20.9555 O   0  0  0  0  0  0
  -32.0601  -16.9589   22.4408 Cl  0  0  0  0  0  0
  -27.8350  -18.6871   19.3607 Cl  0  0  0  0  0  0
  -31.4673  -12.8260   19.1864 H   0  0  0  0  0  0
  -30.4512  -11.7232   20.0665 H   0  0  0  0  0  0
  -29.8607  -11.7325   17.6162 H   0  0  0  0  0  0
  -29.5917  -13.4575   17.6726 H   0  0  0  0  0  0
  -27.9777  -11.2735   19.0174 H   0  0  0  0  0  0
  -27.3948  -12.4106   17.8296 H   0  0  0  0  0  0
  -27.5678  -14.2482   19.3786 H   0  0  0  0  0  0
  -28.7787  -12.3781   21.4724 H   0  0  0  0  0  0
  -28.3459  -14.0539   21.7288 H   0  0  0  0  0  0
  -25.2774   -9.5682   22.4765 H   0  0  0  0  0  0
  -24.0009   -7.4634   22.7474 H   0  0  0  0  0  0
  -21.0855   -8.8782   19.8951 H   0  0  0  0  0  0
  -22.3716  -10.9677   19.6169 H   0  0  0  0  0  0
  -21.2009   -7.6150   23.9717 H   0  0  0  0  0  0
  -21.1481   -6.0524   25.9078 H   0  0  0  0  0  0
  -22.0597   -2.7611   23.2845 H   0  0  0  0  0  0
  -22.4067  -11.9853   22.4840 H   0  0  0  0  0  0
  -21.1049  -13.1195   22.2651 H   0  0  0  0  0  0
  -24.6310  -15.8409   20.5239 H   0  0  0  0  0  0
  -26.2383  -15.6414   20.0518 H   0  0  0  0  0  0
  -26.7311  -32.5237   23.0958 H   0  0  0  0  0  0
  -25.0082  -33.9568   25.0276 H   0  0  0  0  0  0
  -22.7645  -31.2821   21.3691 H   0  0  0  0  0  0
  -23.3761  -35.9563   23.3295 H   0  0  0  0  0  0
  -24.3572  -36.8885   22.2061 H   0  0  0  0  0  0
  -23.7245  -37.6426   23.6695 H   0  0  0  0  0  0
  -26.1851  -31.4371   20.6185 H   0  0  0  0  0  0
  -26.8854  -30.7378   22.0406 H   0  0  0  0  0  0
  -28.1367  -28.7232   21.2571 H   0  0  0  0  0  0
  -25.8971  -25.8069   18.9986 H   0  0  0  0  0  0
  -23.9878  -27.2912   18.9664 H   0  0  0  0  0  0
  -23.8327  -30.5522   19.3942 H   0  0  0  0  0  0
  -22.8020  -29.2262   19.8367 H   0  0  0  0  0  0
  -25.1323  -36.1824   25.0802 H   0  0  0  0  0  0
  -21.0020  -28.3330   24.1340 H   0  0  0  0  0  0
  -20.5681  -26.2350   23.3631 H   0  0  0  0  0  0
  -21.6658  -26.7424   22.1205 H   0  0  0  0  0  0
  -19.6927  -25.6283   21.1264 H   0  0  0  0  0  0
  -19.6703  -27.3172   20.6729 H   0  0  0  0  0  0
  -17.4217  -26.6680   21.4029 H   0  0  0  0  0  0
  -18.0348  -26.0087   22.9029 H   0  0  0  0  0  0
  -19.7959  -30.7307   24.2219 H   0  0  0  0  0  0
  -17.5031  -31.6271   24.5166 H   0  0  0  0  0  0
  -15.5368  -30.2976   23.7682 H   0  0  0  0  0  0
  -15.8697  -28.0812   22.7093 H   0  0  0  0  0  0
  -24.5894  -30.7102   25.7709 H   0  0  0  0  0  0
  -24.8877  -32.2957   26.4730 H   0  0  0  0  0  0
  -25.7967  -30.8998   27.0224 H   0  0  0  0  0  0
  -26.3056  -29.6644   24.1341 H   0  0  0  0  0  0
  -27.3982  -29.7265   25.4958 H   0  0  0  0  0  0
  -27.8985  -30.4155   23.9719 H   0  0  0  0  0  0
  -27.2634  -33.3665   26.2002 H   0  0  0  0  0  0
  -28.3906  -32.6857   25.0363 H   0  0  0  0  0  0
  -28.0676  -31.8518   26.5486 H   0  0  0  0  0  0
  -28.2586  -38.0077   24.7504 H   0  0  0  0  0  0
  -28.1072  -36.2605   24.6309 H   0  0  0  0  0  0
  -27.2287  -37.1441   25.8870 H   0  0  0  0  0  0
  -20.9514  -29.8747   21.6737 H   0  0  0  0  0  0
  -26.0145  -38.2795   24.1405 H   0  0  0  0  0  0
  -31.0207  -21.5884   21.6916 H   0  0  0  0  0  0
  -32.8443  -20.9096   22.8156 H   0  0  0  0  0  0
  -33.5592  -19.3713   22.3595 H   0  0  0  0  0  0
  -32.4952  -19.4725   23.7694 H   0  0  0  0  0  0
  -26.9936  -24.2676   20.5549 H   0  0  0  0  0  0
  -27.7050  -24.3441   18.9728 H   0  0  0  0  0  0
  -27.8749  -21.5948   19.7724 H   0  0  0  0  0  0
  -28.7608  -16.0795   20.4466 H   0  0  0  0  0  0
  1 25  1  0  0  0
  1 30  2  0  0  0
  1 81  1  0  0  0
  2  3  1  0  0  0
  2 25  1  0  0  0
  2 85  1  0  0  0
  2 86  1  0  0  0
  3  4  1  0  0  0
  3 87  1  0  0  0
  3 88  1  0  0  0
  4  5  1  0  0  0
  4 89  1  0  0  0
  4 90  1  0  0  0
  5  6  1  0  0  0
  5 26  1  0  0  0
  5 91  1  0  0  0
  6 25  1  0  0  0
  6 92  1  0  0  0
  6 93  1  0  0  0
  7  8  2  0  0  0
  7 26  1  0  0  0
  7 29  1  0  0  0
  8  9  1  0  0  0
  8 22  1  0  0  0
  9 10  1  0  0  0
  9 27  2  0  0  0
 10 11  2  0  0  0
 10 15  1  0  0  0
 11 12  1  0  0  0
 11 94  1  0  0  0
 12 13  2  0  0  0
 12 95  1  0  0  0
 13 14  1  0  0  0
 13 31  1  0  0  0
 14 15  2  0  0  0
 14 96  1  0  0  0
 15 97  1  0  0  0
 16 17  2  0  0  0
 16 21  1  0  0  0
 16 31  1  0  0  0
 17 18  1  0  0  0
 17 98  1  0  0  0
 18 19  2  0  0  0
 18 99  1  0  0  0
 19 20  1  0  0  0
 19 24  1  0  0  0
 20 21  2  0  0  0
 20100  1  0  0  0
 21 23  1  0  0  0
 22 28  1  0  0  0
 22 32  2  0  0  0
 26 27  1  0  0  0
 28101  1  0  0  0
 28102  1  0  0  0
 29103  1  0  0  0
 29104  1  0  0  0
 33 34  1  0  0  0
 33 66  1  0  0  0
 33 70  2  0  0  0
 34 36  1  0  0  0
 34 59  1  0  0  0
 34105  1  0  0  0
 35 44  2  0  0  0
 35 45  1  0  0  0
 35 68  1  0  0  0
 36 56  1  0  0  0
 36106  1  0  0  0
 37 39  1  0  0  0
 37 47  1  0  0  0
 37 66  1  0  0  0
 37107  1  0  0  0
 38 43  2  0  0  0
 38 46  1  0  0  0
 38 47  1  0  0  0
 39 64  1  0  0  0
 39 67  2  0  0  0
 40 52  1  0  0  0
 40 53  2  0  0  0
 40 58  1  0  0  0
 41108  1  0  0  0
 41109  1  0  0  0
 41110  1  0  0  0
 41 48  1  0  0  0
 42 43  1  0  0  0
 42 66  1  0  0  0
 42111  1  0  0  0
 42112  1  0  0  0
 43 44  1  0  0  0
 44113  1  0  0  0
 45 46  2  0  0  0
 45114  1  0  0  0
 46115  1  0  0  0
 47116  1  0  0  0
 47117  1  0  0  0
 48 56  1  0  0  0
 48 65  1  0  0  0
 48118  1  0  0  0
 49 50  1  0  0  0
 49 53  1  0  0  0
 49 64  1  0  0  0
 49119  1  0  0  0
 50 51  1  0  0  0
 50120  1  0  0  0
 50121  1  0  0  0
 51 52  1  0  0  0
 51122  1  0  0  0
 51123  1  0  0  0
 52124  1  0  0  0
 52125  1  0  0  0
 53 54  1  0  0  0
 54 55  2  0  0  0
 54126  1  0  0  0
 55 57  1  0  0  0
 55127  1  0  0  0
 56 69  2  0  0  0
 57 58  2  0  0  0
 57128  1  0  0  0
 58129  1  0  0  0
 59 60  1  0  0  0
 59 61  1  0  0  0
 59 62  1  0  0  0
 60130  1  0  0  0
 60131  1  0  0  0
 60132  1  0  0  0
 61133  1  0  0  0
 61134  1  0  0  0
 61135  1  0  0  0
 62136  1  0  0  0
 62137  1  0  0  0
 62138  1  0  0  0
 63 65  1  0  0  0
 63139  1  0  0  0
 63140  1  0  0  0
 63141  1  0  0  0
 64142  1  0  0  0
 65143  1  0  0  0
 68 79  1  0  0  0
 71 72  2  0  0  0
 71 73  1  0  0  0
 71144  1  0  0  0
 72 75  1  0  0  0
 72 78  1  0  0  0
 73 76  2  0  0  0
 73 80  1  0  0  0
 74 75  2  0  0  0
 74 76  1  0  0  0
 74 81  1  0  0  0
 75 83  1  0  0  0
 76 84  1  0  0  0
 77 79  1  0  0  0
 77 80  1  0  0  0
 77 82  2  0  0  0
 78145  1  0  0  0
 78146  1  0  0  0
 78147  1  0  0  0
 79148  1  0  0  0
 79149  1  0  0  0
 80150  1  0  0  0
 81151  1  0  0  0
M  ISO  4   1 100  68 101  79 101  81 100
M  END
> <chiral flag>
0

> <version>
0

> <s_m_source_file>
/data/baiqing/PycharmProjects/Reinvent-master-3.2/result/LINK_invent/BTK/process_docking_weight1_custom_sum_contain_oxygen_bond_distance_aromatic_linkinvent_7_9_3/rearranged_h_0013.sdf

> <i_m_source_file_index>
38

> <r_mmod_Potential_Energy-OPLS-2005>
610.295471191406

> <r_mmod_Stretch_Energy-OPLS-2005>
355.824615478516

> <r_mmod_Bend_Energy-OPLS-2005>
274.385009765625

> <r_mmod_Torsional_Energy-OPLS-2005>
228.461090087891

> <r_mmod_Improper_Torsional_Energy-OPLS-2005>
6.61769390106201

> <r_mmod_Van_der_Waal_Energy-OPLS-2005>
141.548126220703

> <r_mmod_Electrostatic_Energy-OPLS-2005>
-424.98193359375

> <r_mmod_Solvation_Energy-OPLS-2005>
-240.263977050781

> <b_mmod_Minimization_Converged-OPLS-2005>
0

> <r_mmod_RMS_Derivative-OPLS-2005>
0.143039166927338

$$$$
38
                    3D
 Structure written by MMmdl.
152160  0  0  1  0            999 V2000
  -30.6263  -14.7219   20.4572 C   0  0  0  0  0  0
  -30.4321  -12.4427   19.4700 C   0  0  0  0  0  0
  -29.5071  -12.5017   18.2341 C   0  0  0  0  0  0
  -28.0334  -12.3306   18.6489 C   0  0  0  0  0  0
  -27.6433  -13.2302   19.8518 C   0  0  2  0  0  0
  -28.6898  -13.1622   20.9874 C   0  0  0  0  0  0
  -25.2520  -13.8201   20.5698 C   0  0  0  0  0  0
  -24.1812  -13.0451   20.9229 C   0  0  0  0  0  0
  -24.6398  -11.6925   20.8765 C   0  0  0  0  0  0
  -23.9075  -10.4303   21.0413 C   0  0  0  0  0  0
  -24.3619   -9.4216   21.9190 C   0  0  0  0  0  0
  -23.6302   -8.2246   22.0755 C   0  0  0  0  0  0
  -22.4284   -8.0283   21.3545 C   0  0  0  0  0  0
  -21.9916   -9.0258   20.4647 C   0  0  0  0  0  0
  -22.7245  -10.2145   20.3063 C   0  0  0  0  0  0
  -21.6854   -6.0741   22.5277 C   0  0  0  0  0  0
  -21.4016   -6.5644   23.8210 C   0  0  0  0  0  0
  -21.3658   -5.6794   24.9170 C   0  0  0  0  0  0
  -21.6043   -4.3059   24.7221 C   0  0  0  0  0  0
  -21.8818   -3.8152   23.4341 C   0  0  0  0  0  0
  -21.9195   -4.6968   22.3398 C   0  0  0  0  0  0
  -22.7830  -13.5231   21.1867 C   0  0  0  0  0  0
  -22.1662   -4.2154   21.0977 F   0  0  0  0  0  0
  -21.5628   -3.4537   25.7732 F   0  0  0  0  0  0
  -29.9935  -13.5023   20.4047 N   0  0  0  0  0  0
  -26.2945  -12.9401   20.3296 N   0  0  0  0  0  0
  -25.9327  -11.6553   20.5771 N   0  0  0  0  0  0
  -22.0476  -12.8222   22.0423 N   0  0  0  0  0  0
  -25.4212  -15.1921   20.4064 N   0  0  0  0  0  0
  -31.8140  -14.8160   20.1387 O   0  0  0  0  0  0
  -21.6651   -6.8880   21.4238 O   0  0  0  0  0  0
  -22.3515  -14.5538   20.6716 O   0  0  0  0  0  0
  -24.6307  -31.8563   23.1997 C   0  0  0  0  0  0
  -25.9140  -32.4757   23.8334 C   0  0  1  0  0  0
  -27.2143  -27.2616   20.1122 C   0  0  0  0  0  0
  -25.5946  -33.8559   24.2261 N   0  0  0  0  0  0
  -23.4253  -30.4814   21.5433 C   0  0  2  0  0  0
  -24.8703  -28.9307   20.1097 C   0  0  0  0  0  0
  -22.7484  -29.4623   22.4914 C   0  0  0  0  0  0
  -18.0300  -28.1378   22.8487 C   0  0  0  0  0  0
  -24.1494  -36.7283   23.2639 C   0  0  0  0  0  0
  -25.9730  -30.7667   21.3822 C   0  0  0  0  0  0
  -26.0414  -29.3903   20.7220 C   0  0  0  0  0  0
  -27.2110  -28.5650   20.7185 C   0  0  0  0  0  0
  -26.0163  -26.8774   19.4645 C   0  0  0  0  0  0
  -24.8627  -27.6823   19.4742 C   0  0  0  0  0  0
  -23.6432  -29.8191   20.1578 C   0  0  0  0  0  0
  -25.4120  -36.3068   24.0323 C   0  0  1  0  0  0
  -20.5895  -28.3705   23.1274 C   0  0  2  0  0  0
  -20.6790  -26.9420   22.5409 C   0  0  0  0  0  0
  -19.5765  -26.6376   21.5216 C   0  0  0  0  0  0
  -18.1947  -26.7919   22.1628 C   0  0  0  0  0  0
  -19.1546  -28.8860   23.2875 C   0  0  0  0  0  0
  -18.9461  -30.1460   23.8898 C   0  0  0  0  0  0
  -17.6458  -30.6585   24.0564 C   0  0  0  0  0  0
  -25.9056  -34.9437   23.5088 C   0  0  0  0  0  0
  -16.5351  -29.9077   23.6324 C   0  0  0  0  0  0
  -16.7281  -28.6497   23.0348 C   0  0  0  0  0  0
  -26.4510  -31.6579   25.0726 C   0  0  0  0  0  0
  -25.3729  -31.3739   26.1441 C   0  0  0  0  0  0
  -27.0360  -30.2993   24.6223 C   0  0  0  0  0  0
  -27.6055  -32.4326   25.7507 C   0  0  0  0  0  0
  -27.5573  -37.1808   24.8470 C   0  0  0  0  0  0
  -21.4193  -29.3060   22.3659 N   0  0  0  0  0  0
  -26.4298  -37.3762   23.9396 N   0  0  0  0  0  0
  -24.6954  -31.0524   22.0980 N   0  0  0  0  0  0
  -23.4188  -28.8151   23.2998 O   0  0  0  0  0  0
  -28.3318  -26.3946   20.1872 O   0  0  0  0  0  0
  -26.5625  -34.8911   22.4654 O   0  0  0  0  0  0
  -23.5459  -32.1398   23.7292 O   0  0  0  0  0  0
  -28.0715  -18.3783   21.1988 C   0  0  0  0  0  0
  -29.3337  -18.5568   20.5983 C   0  0  0  0  0  0
  -28.8113  -21.0715   20.4408 C   0  0  0  0  0  0
  -27.2075  -19.4725   21.4174 C   0  0  0  0  0  0
  -29.6775  -19.9208   20.2231 C   0  0  0  0  0  0
  -27.5624  -20.7908   21.0471 C   0  0  0  0  0  0
  -30.2987  -17.3064   20.3933 C   0  0  0  0  0  0
  -28.7780  -23.7419   20.6503 C   0  0  0  0  0  0
  -28.3356  -24.9695   19.6976 C   0  0  0  0  0  0
  -29.1587  -22.4162   20.0108 N   0  0  0  0  0  0
  -29.8635  -15.8614   20.6392 N   0  0  0  0  0  0
  -26.0012  -19.2520   21.9923 F   0  0  0  0  0  0
  -30.8790  -20.1393   19.6351 F   0  0  0  0  0  0
  -26.6565  -21.7783   21.2499 F   0  0  0  0  0  0
  -31.4723  -12.5660   19.1636 H   0  0  0  0  0  0
  -30.3755  -11.4657   19.9508 H   0  0  0  0  0  0
  -29.7844  -11.7284   17.5165 H   0  0  0  0  0  0
  -29.6354  -13.4564   17.7208 H   0  0  0  0  0  0
  -27.8847  -11.2820   18.9084 H   0  0  0  0  0  0
  -27.3758  -12.5271   17.8017 H   0  0  0  0  0  0
  -27.6385  -14.2517   19.4716 H   0  0  0  0  0  0
  -28.7215  -12.1667   21.4317 H   0  0  0  0  0  0
  -28.4313  -13.8494   21.7944 H   0  0  0  0  0  0
  -25.2761   -9.5693   22.4767 H   0  0  0  0  0  0
  -24.0008   -7.4638   22.7474 H   0  0  0  0  0  0
  -21.0848   -8.8784   19.8950 H   0  0  0  0  0  0
  -22.3700  -10.9688   19.6177 H   0  0  0  0  0  0
  -21.2009   -7.6151   23.9712 H   0  0  0  0  0  0
  -21.1479   -6.0527   25.9074 H   0  0  0  0  0  0
  -22.0598   -2.7613   23.2842 H   0  0  0  0  0  0
  -22.4101  -11.9890   22.4818 H   0  0  0  0  0  0
  -21.1086  -13.1239   22.2614 H   0  0  0  0  0  0
  -24.6445  -15.8375   20.4998 H   0  0  0  0  0  0
  -26.2425  -15.6203   20.0010 H   0  0  0  0  0  0
  -26.7205  -32.5404   23.1070 H   0  0  0  0  0  0
  -25.0102  -33.9704   25.0415 H   0  0  0  0  0  0
  -22.7215  -31.3038   21.3991 H   0  0  0  0  0  0
  -23.3748  -35.9623   23.3319 H   0  0  0  0  0  0
  -24.3576  -36.8888   22.2049 H   0  0  0  0  0  0
  -23.7261  -37.6493   23.6656 H   0  0  0  0  0  0
  -26.1142  -31.5290   20.6146 H   0  0  0  0  0  0
  -26.8493  -30.8116   22.0167 H   0  0  0  0  0  0
  -28.1051  -28.9106   21.2174 H   0  0  0  0  0  0
  -25.9111  -25.9427   18.9417 H   0  0  0  0  0  0
  -23.9648  -27.3288   18.9858 H   0  0  0  0  0  0
  -23.7709  -30.5975   19.4043 H   0  0  0  0  0  0
  -22.7607  -29.2552   19.8501 H   0  0  0  0  0  0
  -25.1307  -36.1912   25.0816 H   0  0  0  0  0  0
  -20.9994  -28.3280   24.1391 H   0  0  0  0  0  0
  -20.5698  -26.2309   23.3610 H   0  0  0  0  0  0
  -21.6658  -26.7448   22.1198 H   0  0  0  0  0  0
  -19.6927  -25.6281   21.1263 H   0  0  0  0  0  0
  -19.6698  -27.3174   20.6734 H   0  0  0  0  0  0
  -17.4215  -26.6667   21.4029 H   0  0  0  0  0  0
  -18.0355  -26.0057   22.9028 H   0  0  0  0  0  0
  -19.7934  -30.7278   24.2265 H   0  0  0  0  0  0
  -17.5006  -31.6263   24.5166 H   0  0  0  0  0  0
  -15.5350  -30.2977   23.7648 H   0  0  0  0  0  0
  -15.8683  -28.0812   22.7061 H   0  0  0  0  0  0
  -24.5912  -30.7077   25.7775 H   0  0  0  0  0  0
  -24.8916  -32.2913   26.4837 H   0  0  0  0  0  0
  -25.8045  -30.8941   27.0235 H   0  0  0  0  0  0
  -26.2952  -29.6733   24.1235 H   0  0  0  0  0  0
  -27.4019  -29.7261   25.4753 H   0  0  0  0  0  0
  -27.8839  -30.4260   23.9489 H   0  0  0  0  0  0
  -27.2653  -33.3628   26.2066 H   0  0  0  0  0  0
  -28.3879  -32.6877   25.0349 H   0  0  0  0  0  0
  -28.0705  -31.8462   26.5443 H   0  0  0  0  0  0
  -28.2616  -38.0080   24.7467 H   0  0  0  0  0  0
  -28.1045  -36.2604   24.6363 H   0  0  0  0  0  0
  -27.2281  -37.1536   25.8875 H   0  0  0  0  0  0
  -20.9368  -29.8804   21.6891 H   0  0  0  0  0  0
  -26.0173  -38.2840   24.1369 H   0  0  0  0  0  0
  -27.7479  -17.3949   21.5048 H   0  0  0  0  0  0
  -31.1683  -17.4857   21.0260 H   0  0  0  0  0  0
  -30.6749  -17.3620   19.3699 H   0  0  0  0  0  0
  -28.0258  -23.6015   21.4246 H   0  0  0  0  0  0
  -29.6687  -24.0679   21.1881 H   0  0  0  0  0  0
  -27.3921  -24.6631   19.2627 H   0  0  0  0  0  0
  -29.0231  -24.9791   18.8518 H   0  0  0  0  0  0
  -30.0481  -22.4422   19.5191 H   0  0  0  0  0  0
  -28.8938  -15.7084   20.8622 H   0  0  0  0  0  0
  1 25  1  0  0  0
  1 30  2  0  0  0
  1 81  1  0  0  0
  2  3  1  0  0  0
  2 25  1  0  0  0
  2 85  1  0  0  0
  2 86  1  0  0  0
  3  4  1  0  0  0
  3 87  1  0  0  0
  3 88  1  0  0  0
  4  5  1  0  0  0
  4 89  1  0  0  0
  4 90  1  0  0  0
  5  6  1  0  0  0
  5 26  1  0  0  0
  5 91  1  0  0  0
  6 25  1  0  0  0
  6 92  1  0  0  0
  6 93  1  0  0  0
  7  8  2  0  0  0
  7 26  1  0  0  0
  7 29  1  0  0  0
  8  9  1  0  0  0
  8 22  1  0  0  0
  9 10  1  0  0  0
  9 27  2  0  0  0
 10 11  2  0  0  0
 10 15  1  0  0  0
 11 12  1  0  0  0
 11 94  1  0  0  0
 12 13  2  0  0  0
 12 95  1  0  0  0
 13 14  1  0  0  0
 13 31  1  0  0  0
 14 15  2  0  0  0
 14 96  1  0  0  0
 15 97  1  0  0  0
 16 17  2  0  0  0
 16 21  1  0  0  0
 16 31  1  0  0  0
 17 18  1  0  0  0
 17 98  1  0  0  0
 18 19  2  0  0  0
 18 99  1  0  0  0
 19 20  1  0  0  0
 19 24  1  0  0  0
 20 21  2  0  0  0
 20100  1  0  0  0
 21 23  1  0  0  0
 22 28  1  0  0  0
 22 32  2  0  0  0
 26 27  1  0  0  0
 28101  1  0  0  0
 28102  1  0  0  0
 29103  1  0  0  0
 29104  1  0  0  0
 33 34  1  0  0  0
 33 66  1  0  0  0
 33 70  2  0  0  0
 34 36  1  0  0  0
 34 59  1  0  0  0
 34105  1  0  0  0
 35 44  2  0  0  0
 35 45  1  0  0  0
 35 68  1  0  0  0
 36 56  1  0  0  0
 36106  1  0  0  0
 37 39  1  0  0  0
 37 47  1  0  0  0
 37 66  1  0  0  0
 37107  1  0  0  0
 38 43  2  0  0  0
 38 46  1  0  0  0
 38 47  1  0  0  0
 39 64  1  0  0  0
 39 67  2  0  0  0
 40 52  1  0  0  0
 40 53  2  0  0  0
 40 58  1  0  0  0
 41108  1  0  0  0
 41109  1  0  0  0
 41110  1  0  0  0
 41 48  1  0  0  0
 42 43  1  0  0  0
 42 66  1  0  0  0
 42111  1  0  0  0
 42112  1  0  0  0
 43 44  1  0  0  0
 44113  1  0  0  0
 45 46  2  0  0  0
 45114  1  0  0  0
 46115  1  0  0  0
 47116  1  0  0  0
 47117  1  0  0  0
 48 56  1  0  0  0
 48 65  1  0  0  0
 48118  1  0  0  0
 49 50  1  0  0  0
 49 53  1  0  0  0
 49 64  1  0  0  0
 49119  1  0  0  0
 50 51  1  0  0  0
 50120  1  0  0  0
 50121  1  0  0  0
 51 52  1  0  0  0
 51122  1  0  0  0
 51123  1  0  0  0
 52124  1  0  0  0
 52125  1  0  0  0
 53 54  1  0  0  0
 54 55  2  0  0  0
 54126  1  0  0  0
 55 57  1  0  0  0
 55127  1  0  0  0
 56 69  2  0  0  0
 57 58  2  0  0  0
 57128  1  0  0  0
 58129  1  0  0  0
 59 60  1  0  0  0
 59 61  1  0  0  0
 59 62  1  0  0  0
 60130  1  0  0  0
 60131  1  0  0  0
 60132  1  0  0  0
 61133  1  0  0  0
 61134  1  0  0  0
 61135  1  0  0  0
 62136  1  0  0  0
 62137  1  0  0  0
 62138  1  0  0  0
 63 65  1  0  0  0
 63139  1  0  0  0
 63140  1  0  0  0
 63141  1  0  0  0
 64142  1  0  0  0
 65143  1  0  0  0
 68 79  1  0  0  0
 71 72  2  0  0  0
 71 74  1  0  0  0
 71144  1  0  0  0
 72 75  1  0  0  0
 72 77  1  0  0  0
 73 75  2  0  0  0
 73 76  1  0  0  0
 73 80  1  0  0  0
 74 76  2  0  0  0
 74 82  1  0  0  0
 75 83  1  0  0  0
 76 84  1  0  0  0
 77 81  1  0  0  0
 77145  1  0  0  0
 77146  1  0  0  0
 78 79  1  0  0  0
 78 80  1  0  0  0
 78147  1  0  0  0
 78148  1  0  0  0
 79149  1  0  0  0
 79150  1  0  0  0
 80151  1  0  0  0
 81152  1  0  0  0
M  ISO  4   1 100  68 101  79 101  81 100
M  END
> <chiral flag>
0

> <version>
0

> <s_m_source_file>
/data/baiqing/PycharmProjects/Reinvent-master-3.2/result/LINK_invent/BTK/process_docking_weight1_custom_sum_contain_oxygen_bond_distance_aromatic_linkinvent_7_9_3/rearranged_h_0013.sdf

> <i_m_source_file_index>
39

> <r_mmod_Potential_Energy-OPLS-2005>
167.768600463867

> <r_mmod_Stretch_Energy-OPLS-2005>
116.110137939453

> <r_mmod_Bend_Energy-OPLS-2005>
172.483444213867

> <r_mmod_Torsional_Energy-OPLS-2005>
195.051773071289

> <r_mmod_Improper_Torsional_Energy-OPLS-2005>
7.78095149993896

> <r_mmod_Van_der_Waal_Energy-OPLS-2005>
140.662857055664

> <r_mmod_Electrostatic_Energy-OPLS-2005>
-329.847259521484

> <r_mmod_Solvation_Energy-OPLS-2005>
-213.324813842773

> <b_mmod_Minimization_Converged-OPLS-2005>
0

> <r_mmod_RMS_Derivative-OPLS-2005>
1.56746220588684

$$$$
39
                    3D
 Structure written by MMmdl.
156163  0  0  1  0            999 V2000
  -30.7087  -14.5460   20.5131 C   0  0  0  0  0  0
  -30.4220  -12.3283   19.4576 C   0  0  0  0  0  0
  -29.5025  -12.4754   18.2269 C   0  0  0  0  0  0
  -28.0270  -12.3320   18.6448 C   0  0  0  0  0  0
  -27.6580  -13.2167   19.8669 C   0  0  2  0  0  0
  -28.7032  -13.0802   20.9990 C   0  0  0  0  0  0
  -25.2595  -13.8187   20.5668 C   0  0  0  0  0  0
  -24.1855  -13.0435   20.9178 C   0  0  0  0  0  0
  -24.6438  -11.6918   20.8760 C   0  0  0  0  0  0
  -23.9090  -10.4313   21.0419 C   0  0  0  0  0  0
  -24.3636   -9.4216   21.9183 C   0  0  0  0  0  0
  -23.6309   -8.2250   22.0747 C   0  0  0  0  0  0
  -22.4275   -8.0302   21.3555 C   0  0  0  0  0  0
  -21.9925   -9.0272   20.4641 C   0  0  0  0  0  0
  -22.7261  -10.2150   20.3055 C   0  0  0  0  0  0
  -21.6868   -6.0748   22.5277 C   0  0  0  0  0  0
  -21.4029   -6.5648   23.8217 C   0  0  0  0  0  0
  -21.3660   -5.6795   24.9179 C   0  0  0  0  0  0
  -21.6044   -4.3061   24.7228 C   0  0  0  0  0  0
  -21.8816   -3.8152   23.4349 C   0  0  0  0  0  0
  -21.9198   -4.6973   22.3408 C   0  0  0  0  0  0
  -22.7883  -13.5228   21.1847 C   0  0  0  0  0  0
  -22.1667   -4.2161   21.0985 F   0  0  0  0  0  0
  -21.5622   -3.4536   25.7735 F   0  0  0  0  0  0
  -30.0312  -13.3637   20.4302 N   0  0  0  0  0  0
  -26.3037  -12.9368   20.3375 N   0  0  0  0  0  0
  -25.9370  -11.6509   20.5787 N   0  0  0  0  0  0
  -22.0543  -12.8218   22.0422 N   0  0  0  0  0  0
  -25.4282  -15.1893   20.4034 N   0  0  0  0  0  0
  -31.8611  -14.6759   20.0925 O   0  0  0  0  0  0
  -21.6644   -6.8886   21.4238 O   0  0  0  0  0  0
  -22.3560  -14.5545   20.6720 O   0  0  0  0  0  0
  -24.6213  -31.8673   23.2098 C   0  0  0  0  0  0
  -25.9098  -32.4836   23.8366 C   0  0  1  0  0  0
  -27.2152  -27.3835   20.0955 C   0  0  0  0  0  0
  -25.5934  -33.8626   24.2317 N   0  0  0  0  0  0
  -23.4080  -30.4957   21.5520 C   0  0  2  0  0  0
  -24.8482  -28.9657   20.1092 C   0  0  0  0  0  0
  -22.7453  -29.4673   22.4991 C   0  0  0  0  0  0
  -18.0288  -28.1425   22.8476 C   0  0  0  0  0  0
  -24.1480  -36.7294   23.2621 C   0  0  0  0  0  0
  -25.9447  -30.8156   21.3708 C   0  0  0  0  0  0
  -26.0167  -29.4517   20.7100 C   0  0  0  0  0  0
  -27.2032  -28.6717   20.6962 C   0  0  0  0  0  0
  -26.0226  -26.9456   19.4663 C   0  0  0  0  0  0
  -24.8511  -27.7168   19.4763 C   0  0  0  0  0  0
  -23.6146  -29.8365   20.1635 C   0  0  0  0  0  0
  -25.4106  -36.3126   24.0336 C   0  0  1  0  0  0
  -20.5882  -28.3716   23.1323 C   0  0  2  0  0  0
  -20.6803  -26.9453   22.5432 C   0  0  0  0  0  0
  -19.5799  -26.6422   21.5215 C   0  0  0  0  0  0
  -18.1962  -26.7978   22.1599 C   0  0  0  0  0  0
  -19.1534  -28.8885   23.2898 C   0  0  0  0  0  0
  -18.9459  -30.1489   23.8916 C   0  0  0  0  0  0
  -17.6470  -30.6631   24.0572 C   0  0  0  0  0  0
  -25.9050  -34.9491   23.5129 C   0  0  0  0  0  0
  -16.5357  -29.9139   23.6336 C   0  0  0  0  0  0
  -16.7274  -28.6558   23.0346 C   0  0  0  0  0  0
  -26.4486  -31.6612   25.0701 C   0  0  0  0  0  0
  -25.3705  -31.3735   26.1409 C   0  0  0  0  0  0
  -27.0286  -30.3045   24.6094 C   0  0  0  0  0  0
  -27.6098  -32.4263   25.7471 C   0  0  0  0  0  0
  -27.5586  -37.1817   24.8481 C   0  0  0  0  0  0
  -21.4185  -29.3051   22.3704 N   0  0  0  0  0  0
  -26.4300  -37.3814   23.9422 N   0  0  0  0  0  0
  -24.6765  -31.0747   22.1013 N   0  0  0  0  0  0
  -23.4213  -28.8227   23.3055 O   0  0  0  0  0  0
  -28.3406  -26.5613   20.1492 O   0  0  0  0  0  0
  -26.5604  -34.8951   22.4689 O   0  0  0  0  0  0
  -23.5399  -32.1407   23.7511 O   0  0  0  0  0  0
  -29.4573  -20.3665   21.4866 C   0  0  0  0  0  0
  -28.6992  -22.1617   22.9251 C   0  0  0  0  0  0
  -29.1347  -24.1080   20.5561 C   0  0  0  0  0  0
  -28.6100  -22.6159   20.5025 C   0  0  0  0  0  0
  -30.4029  -17.0601   20.7812 C   0  0  0  0  0  0
  -28.0788  -25.1296   20.0270 C   0  0  0  0  0  0
  -29.4227  -19.5411   20.1607 C   0  0  0  0  0  0
  -29.2296  -17.9699   20.2839 C   0  0  0  0  0  0
  -29.9985  -15.6289   20.8993 N   0  0  0  0  0  0
  -29.0584  -21.6846   21.5793 N   0  0  0  0  0  0
  -29.8305  -19.7656   22.5018 O   0  0  0  0  0  0
  -28.3761  -19.9512   19.4411 F   0  0  0  0  0  0
  -30.5376  -19.8096   19.4774 F   0  0  0  0  0  0
  -28.9410  -17.5220   19.0598 F   0  0  0  0  0  0
  -28.1802  -17.7116   21.0692 F   0  0  0  0  0  0
  -31.4716  -12.3967   19.1657 H   0  0  0  0  0  0
  -30.3048  -11.3382   19.9033 H   0  0  0  0  0  0
  -29.7485  -11.7178   17.4800 H   0  0  0  0  0  0
  -29.6633  -13.4440   17.7530 H   0  0  0  0  0  0
  -27.8622  -11.2798   18.8872 H   0  0  0  0  0  0
  -27.3673  -12.5565   17.8052 H   0  0  0  0  0  0
  -27.6803  -14.2486   19.5153 H   0  0  0  0  0  0
  -28.6890  -12.0756   21.4223 H   0  0  0  0  0  0
  -28.4630  -13.7507   21.8243 H   0  0  0  0  0  0
  -25.2771   -9.5694   22.4754 H   0  0  0  0  0  0
  -24.0026   -7.4635   22.7453 H   0  0  0  0  0  0
  -21.0852   -8.8787   19.8935 H   0  0  0  0  0  0
  -22.3712  -10.9693   19.6166 H   0  0  0  0  0  0
  -21.2031   -7.6152   23.9733 H   0  0  0  0  0  0
  -21.1479   -6.0518   25.9083 H   0  0  0  0  0  0
  -22.0592   -2.7611   23.2839 H   0  0  0  0  0  0
  -22.4163  -11.9871   22.4783 H   0  0  0  0  0  0
  -21.1163  -13.1225   22.2644 H   0  0  0  0  0  0
  -24.6492  -15.8330   20.4865 H   0  0  0  0  0  0
  -26.2722  -15.6309   20.0598 H   0  0  0  0  0  0
  -26.7152  -32.5538   23.1106 H   0  0  0  0  0  0
  -25.0125  -33.9762   25.0486 H   0  0  0  0  0  0
  -22.6966  -31.3142   21.4187 H   0  0  0  0  0  0
  -23.3766  -35.9605   23.3315 H   0  0  0  0  0  0
  -24.3553  -36.8872   22.2026 H   0  0  0  0  0  0
  -23.7189  -37.6496   23.6592 H   0  0  0  0  0  0
  -26.0582  -31.5786   20.6006 H   0  0  0  0  0  0
  -26.8352  -30.8648   21.9869 H   0  0  0  0  0  0
  -28.0993  -29.0392   21.1750 H   0  0  0  0  0  0
  -25.9530  -25.9931   18.9643 H   0  0  0  0  0  0
  -23.9587  -27.3412   18.9937 H   0  0  0  0  0  0
  -23.7303  -30.6117   19.4053 H   0  0  0  0  0  0
  -22.7357  -29.2623   19.8618 H   0  0  0  0  0  0
  -25.1273  -36.1986   25.0823 H   0  0  0  0  0  0
  -20.9942  -28.3283   24.1460 H   0  0  0  0  0  0
  -20.5724  -26.2312   23.3605 H   0  0  0  0  0  0
  -21.6685  -26.7525   22.1216 H   0  0  0  0  0  0
  -19.6959  -25.6325   21.1264 H   0  0  0  0  0  0
  -19.6783  -27.3219   20.6732 H   0  0  0  0  0  0
  -17.4247  -26.6735   21.3982 H   0  0  0  0  0  0
  -18.0370  -26.0118   22.8986 H   0  0  0  0  0  0
  -19.7921  -30.7306   24.2313 H   0  0  0  0  0  0
  -17.5012  -31.6304   24.5186 H   0  0  0  0  0  0
  -15.5361  -30.3053   23.7659 H   0  0  0  0  0  0
  -15.8665  -28.0883   22.7069 H   0  0  0  0  0  0
  -24.5995  -30.6940   25.7761 H   0  0  0  0  0  0
  -24.8746  -32.2881   26.4694 H   0  0  0  0  0  0
  -25.8036  -30.9063   27.0261 H   0  0  0  0  0  0
  -26.2861  -29.6874   24.1032 H   0  0  0  0  0  0
  -27.3922  -29.7218   25.4566 H   0  0  0  0  0  0
  -27.8750  -30.4382   23.9346 H   0  0  0  0  0  0
  -27.2859  -33.3677   26.1919 H   0  0  0  0  0  0
  -28.4018  -32.6589   25.0337 H   0  0  0  0  0  0
  -28.0594  -31.8379   26.5491 H   0  0  0  0  0  0
  -28.2643  -38.0085   24.7570 H   0  0  0  0  0  0
  -28.1055  -36.2631   24.6295 H   0  0  0  0  0  0
  -27.2305  -37.1469   25.8884 H   0  0  0  0  0  0
  -20.9369  -29.8680   21.6821 H   0  0  0  0  0  0
  -26.0190  -38.2899   24.1400 H   0  0  0  0  0  0
  -28.2913  -23.1729   22.9255 H   0  0  0  0  0  0
  -29.5559  -22.1466   23.6041 H   0  0  0  0  0  0
  -27.9221  -21.5202   23.3492 H   0  0  0  0  0  0
  -29.4286  -24.3921   21.5643 H   0  0  0  0  0  0
  -30.0401  -24.1975   19.9565 H   0  0  0  0  0  0
  -28.8434  -22.2259   19.5152 H   0  0  0  0  0  0
  -27.5189  -22.6213   20.5615 H   0  0  0  0  0  0
  -31.2399  -17.1608   20.0870 H   0  0  0  0  0  0
  -30.7797  -17.4028   21.7439 H   0  0  0  0  0  0
  -27.1684  -24.9111   20.5887 H   0  0  0  0  0  0
  -27.8746  -24.8930   18.9808 H   0  0  0  0  0  0
  -29.0585  -15.4601   21.2236 H   0  0  0  0  0  0
  1 25  1  0  0  0
  1 30  2  0  0  0
  1 79  1  0  0  0
  2  3  1  0  0  0
  2 25  1  0  0  0
  2 86  1  0  0  0
  2 87  1  0  0  0
  3  4  1  0  0  0
  3 88  1  0  0  0
  3 89  1  0  0  0
  4  5  1  0  0  0
  4 90  1  0  0  0
  4 91  1  0  0  0
  5  6  1  0  0  0
  5 26  1  0  0  0
  5 92  1  0  0  0
  6 25  1  0  0  0
  6 93  1  0  0  0
  6 94  1  0  0  0
  7  8  2  0  0  0
  7 26  1  0  0  0
  7 29  1  0  0  0
  8  9  1  0  0  0
  8 22  1  0  0  0
  9 10  1  0  0  0
  9 27  2  0  0  0
 10 11  2  0  0  0
 10 15  1  0  0  0
 11 12  1  0  0  0
 11 95  1  0  0  0
 12 13  2  0  0  0
 12 96  1  0  0  0
 13 14  1  0  0  0
 13 31  1  0  0  0
 14 15  2  0  0  0
 14 97  1  0  0  0
 15 98  1  0  0  0
 16 17  2  0  0  0
 16 21  1  0  0  0
 16 31  1  0  0  0
 17 18  1  0  0  0
 17 99  1  0  0  0
 18 19  2  0  0  0
 18100  1  0  0  0
 19 20  1  0  0  0
 19 24  1  0  0  0
 20 21  2  0  0  0
 20101  1  0  0  0
 21 23  1  0  0  0
 22 28  1  0  0  0
 22 32  2  0  0  0
 26 27  1  0  0  0
 28102  1  0  0  0
 28103  1  0  0  0
 29104  1  0  0  0
 29105  1  0  0  0
 33 34  1  0  0  0
 33 66  1  0  0  0
 33 70  2  0  0  0
 34 36  1  0  0  0
 34 59  1  0  0  0
 34106  1  0  0  0
 35 44  2  0  0  0
 35 45  1  0  0  0
 35 68  1  0  0  0
 36 56  1  0  0  0
 36107  1  0  0  0
 37 39  1  0  0  0
 37 47  1  0  0  0
 37 66  1  0  0  0
 37108  1  0  0  0
 38 43  2  0  0  0
 38 46  1  0  0  0
 38 47  1  0  0  0
 39 64  1  0  0  0
 39 67  2  0  0  0
 40 52  1  0  0  0
 40 53  2  0  0  0
 40 58  1  0  0  0
 41109  1  0  0  0
 41110  1  0  0  0
 41111  1  0  0  0
 41 48  1  0  0  0
 42 43  1  0  0  0
 42 66  1  0  0  0
 42112  1  0  0  0
 42113  1  0  0  0
 43 44  1  0  0  0
 44114  1  0  0  0
 45 46  2  0  0  0
 45115  1  0  0  0
 46116  1  0  0  0
 47117  1  0  0  0
 47118  1  0  0  0
 48 56  1  0  0  0
 48 65  1  0  0  0
 48119  1  0  0  0
 49 50  1  0  0  0
 49 53  1  0  0  0
 49 64  1  0  0  0
 49120  1  0  0  0
 50 51  1  0  0  0
 50121  1  0  0  0
 50122  1  0  0  0
 51 52  1  0  0  0
 51123  1  0  0  0
 51124  1  0  0  0
 52125  1  0  0  0
 52126  1  0  0  0
 53 54  1  0  0  0
 54 55  2  0  0  0
 54127  1  0  0  0
 55 57  1  0  0  0
 55128  1  0  0  0
 56 69  2  0  0  0
 57 58  2  0  0  0
 57129  1  0  0  0
 58130  1  0  0  0
 59 60  1  0  0  0
 59 61  1  0  0  0
 59 62  1  0  0  0
 60131  1  0  0  0
 60132  1  0  0  0
 60133  1  0  0  0
 61134  1  0  0  0
 61135  1  0  0  0
 61136  1  0  0  0
 62137  1  0  0  0
 62138  1  0  0  0
 62139  1  0  0  0
 63 65  1  0  0  0
 63140  1  0  0  0
 63141  1  0  0  0
 63142  1  0  0  0
 64143  1  0  0  0
 65144  1  0  0  0
 68 76  1  0  0  0
 71 77  1  0  0  0
 71 80  1  0  0  0
 71 81  2  0  0  0
 72 80  1  0  0  0
 72145  1  0  0  0
 72146  1  0  0  0
 72147  1  0  0  0
 73 74  1  0  0  0
 73 76  1  0  0  0
 73148  1  0  0  0
 73149  1  0  0  0
 74 80  1  0  0  0
 74150  1  0  0  0
 74151  1  0  0  0
 75 78  1  0  0  0
 75 79  1  0  0  0
 75152  1  0  0  0
 75153  1  0  0  0
 76154  1  0  0  0
 76155  1  0  0  0
 77 78  1  0  0  0
 77 82  1  0  0  0
 77 83  1  0  0  0
 78 84  1  0  0  0
 78 85  1  0  0  0
 79156  1  0  0  0
M  ISO  4   1 100  68 101  76 101  79 100
M  END
> <chiral flag>
0

> <version>
0

> <s_m_source_file>
/data/baiqing/PycharmProjects/Reinvent-master-3.2/result/LINK_invent/BTK/process_docking_weight1_custom_sum_contain_oxygen_bond_distance_aromatic_linkinvent_7_9_3/rearranged_h_0013.sdf

> <i_m_source_file_index>
40

> <r_mmod_Potential_Energy-OPLS-2005>
6.99271535873413

> <r_mmod_Stretch_Energy-OPLS-2005>
59.6411437988281

> <r_mmod_Bend_Energy-OPLS-2005>
127.30233001709

> <r_mmod_Torsional_Energy-OPLS-2005>
211.193740844727

> <r_mmod_Improper_Torsional_Energy-OPLS-2005>
5.19804048538208

> <r_mmod_Van_der_Waal_Energy-OPLS-2005>
152.794525146484

> <r_mmod_Electrostatic_Energy-OPLS-2005>
-369.663452148438

> <r_mmod_Solvation_Energy-OPLS-2005>
-208.486434936523

> <b_mmod_Minimization_Converged-OPLS-2005>
0

> <r_mmod_RMS_Derivative-OPLS-2005>
4.55846643447876

$$$$
40
                    3D
 Structure written by MMmdl.
151159  0  0  1  0            999 V2000
  -30.6336  -14.7258   20.4395 C   0  0  0  0  0  0
  -30.4283  -12.4400   19.4730 C   0  0  0  0  0  0
  -29.5063  -12.4975   18.2354 C   0  0  0  0  0  0
  -28.0333  -12.3265   18.6507 C   0  0  0  0  0  0
  -27.6426  -13.2305   19.8498 C   0  0  2  0  0  0
  -28.6886  -13.1711   20.9854 C   0  0  0  0  0  0
  -25.2533  -13.8200   20.5698 C   0  0  0  0  0  0
  -24.1813  -13.0451   20.9196 C   0  0  0  0  0  0
  -24.6398  -11.6928   20.8748 C   0  0  0  0  0  0
  -23.9078  -10.4302   21.0417 C   0  0  0  0  0  0
  -24.3627   -9.4209   21.9192 C   0  0  0  0  0  0
  -23.6294   -8.2245   22.0754 C   0  0  0  0  0  0
  -22.4279   -8.0285   21.3544 C   0  0  0  0  0  0
  -21.9921   -9.0265   20.4648 C   0  0  0  0  0  0
  -22.7251  -10.2143   20.3059 C   0  0  0  0  0  0
  -21.6859   -6.0738   22.5278 C   0  0  0  0  0  0
  -21.4012   -6.5641   23.8210 C   0  0  0  0  0  0
  -21.3648   -5.6797   24.9171 C   0  0  0  0  0  0
  -21.6050   -4.3062   24.7227 C   0  0  0  0  0  0
  -21.8817   -3.8150   23.4352 C   0  0  0  0  0  0
  -21.9194   -4.6966   22.3408 C   0  0  0  0  0  0
  -22.7834  -13.5238   21.1851 C   0  0  0  0  0  0
  -22.1665   -4.2152   21.0988 F   0  0  0  0  0  0
  -21.5626   -3.4546   25.7736 F   0  0  0  0  0  0
  -29.9939  -13.5076   20.4037 N   0  0  0  0  0  0
  -26.2953  -12.9402   20.3296 N   0  0  0  0  0  0
  -25.9334  -11.6549   20.5774 N   0  0  0  0  0  0
  -22.0489  -12.8212   22.0403 N   0  0  0  0  0  0
  -25.4240  -15.1922   20.4094 N   0  0  0  0  0  0
  -31.8259  -14.7862   20.1312 O   0  0  0  0  0  0
  -21.6647   -6.8883   21.4240 O   0  0  0  0  0  0
  -22.3516  -14.5551   20.6712 O   0  0  0  0  0  0
  -24.6320  -31.8545   23.1961 C   0  0  0  0  0  0
  -25.9141  -32.4745   23.8310 C   0  0  1  0  0  0
  -27.2266  -27.2773   20.1268 C   0  0  0  0  0  0
  -25.5928  -33.8547   24.2236 N   0  0  0  0  0  0
  -23.4265  -30.4787   21.5381 C   0  0  2  0  0  0
  -24.8749  -28.9268   20.1056 C   0  0  0  0  0  0
  -22.7498  -29.4614   22.4893 C   0  0  0  0  0  0
  -18.0273  -28.1391   22.8471 C   0  0  0  0  0  0
  -24.1478  -36.7265   23.2646 C   0  0  0  0  0  0
  -25.9700  -30.7756   21.3696 C   0  0  0  0  0  0
  -26.0447  -29.3990   20.7124 C   0  0  0  0  0  0
  -27.2220  -28.5872   20.7120 C   0  0  0  0  0  0
  -26.0326  -26.8669   19.4928 C   0  0  0  0  0  0
  -24.8741  -27.6676   19.4856 C   0  0  0  0  0  0
  -23.6433  -29.8098   20.1539 C   0  0  0  0  0  0
  -25.4096  -36.3047   24.0338 C   0  0  1  0  0  0
  -20.5890  -28.3693   23.1257 C   0  0  2  0  0  0
  -20.6766  -26.9409   22.5407 C   0  0  0  0  0  0
  -19.5733  -26.6377   21.5218 C   0  0  0  0  0  0
  -18.1905  -26.7920   22.1620 C   0  0  0  0  0  0
  -19.1537  -28.8848   23.2863 C   0  0  0  0  0  0
  -18.9476  -30.1448   23.8886 C   0  0  0  0  0  0
  -17.6487  -30.6589   24.0563 C   0  0  0  0  0  0
  -25.9058  -34.9437   23.5082 C   0  0  0  0  0  0
  -16.5368  -29.9094   23.6346 C   0  0  0  0  0  0
  -16.7266  -28.6519   23.0348 C   0  0  0  0  0  0
  -26.4504  -31.6583   25.0707 C   0  0  0  0  0  0
  -25.3734  -31.3760   26.1438 C   0  0  0  0  0  0
  -27.0358  -30.3001   24.6180 C   0  0  0  0  0  0
  -27.6035  -32.4354   25.7476 C   0  0  0  0  0  0
  -27.5573  -37.1760   24.8455 C   0  0  0  0  0  0
  -21.4202  -29.3054   22.3649 N   0  0  0  0  0  0
  -26.4239  -37.3778   23.9454 N   0  0  0  0  0  0
  -24.6958  -31.0541   22.0919 N   0  0  0  0  0  0
  -23.4216  -28.8155   23.2981 O   0  0  0  0  0  0
  -28.3258  -26.3919   20.2079 O   0  0  0  0  0  0
  -26.5638  -34.8923   22.4662 O   0  0  0  0  0  0
  -23.5471  -32.1338   23.7285 O   0  0  0  0  0  0
  -31.1566  -17.6004   19.3127 C   0  0  0  0  0  0
  -29.6698  -19.8208   20.3765 C   0  0  0  0  0  0
  -30.1547  -17.2953   20.2658 C   0  0  0  0  0  0
  -31.4318  -18.9256   18.9196 C   0  0  0  0  0  0
  -30.7089  -20.0161   19.4419 C   0  0  0  0  0  0
  -29.4123  -18.4390   20.7792 C   0  0  0  0  0  0
  -28.8368  -23.7171   20.6579 C   0  0  0  0  0  0
  -28.9614  -21.1066   21.0005 C   0  0  0  0  0  0
  -28.1614  -24.9380   19.8566 C   0  0  0  0  0  0
  -29.8834  -15.8766   20.6432 N   0  0  0  0  0  0
  -28.7125  -22.4056   20.2291 N   0  0  0  0  0  0
  -29.4500  -23.9551   21.7061 O   0  0  0  0  0  0
  -32.4246  -19.1559   18.0274 F   0  0  0  0  0  0
  -31.0505  -21.2669   19.0473 F   0  0  0  0  0  0
  -28.1743  -18.1195   21.9434 Cl  0  0  0  0  0  0
  -31.4695  -12.5517   19.1665 H   0  0  0  0  0  0
  -30.3655  -11.4660   19.9598 H   0  0  0  0  0  0
  -29.7858  -11.7221   17.5212 H   0  0  0  0  0  0
  -29.6330  -13.4495   17.7177 H   0  0  0  0  0  0
  -27.8869  -11.2776   18.9128 H   0  0  0  0  0  0
  -27.3750  -12.5184   17.8031 H   0  0  0  0  0  0
  -27.6369  -14.2505   19.4658 H   0  0  0  0  0  0
  -28.7189  -12.1785   21.4363 H   0  0  0  0  0  0
  -28.4263  -13.8625   21.7876 H   0  0  0  0  0  0
  -25.2775   -9.5686   22.4756 H   0  0  0  0  0  0
  -24.0010   -7.4641   22.7468 H   0  0  0  0  0  0
  -21.0854   -8.8788   19.8949 H   0  0  0  0  0  0
  -22.3721  -10.9682   19.6162 H   0  0  0  0  0  0
  -21.1997   -7.6142   23.9715 H   0  0  0  0  0  0
  -21.1470   -6.0524   25.9076 H   0  0  0  0  0  0
  -22.0604   -2.7607   23.2855 H   0  0  0  0  0  0
  -22.4117  -11.9858   22.4747 H   0  0  0  0  0  0
  -21.1110  -13.1225   22.2633 H   0  0  0  0  0  0
  -24.6568  -15.8467   20.5166 H   0  0  0  0  0  0
  -26.2761  -15.6339   20.0892 H   0  0  0  0  0  0
  -26.7211  -32.5397   23.1054 H   0  0  0  0  0  0
  -25.0056  -33.9676   25.0362 H   0  0  0  0  0  0
  -22.7219  -31.3014   21.3905 H   0  0  0  0  0  0
  -23.3759  -35.9581   23.3248 H   0  0  0  0  0  0
  -24.3588  -36.8940   22.2079 H   0  0  0  0  0  0
  -23.7204  -37.6440   23.6700 H   0  0  0  0  0  0
  -26.1046  -31.5366   20.5996 H   0  0  0  0  0  0
  -26.8503  -30.8267   21.9987 H   0  0  0  0  0  0
  -28.1148  -28.9470   21.2022 H   0  0  0  0  0  0
  -25.9674  -25.9006   19.0145 H   0  0  0  0  0  0
  -23.9793  -27.2942   19.0078 H   0  0  0  0  0  0
  -23.7616  -30.5845   19.3949 H   0  0  0  0  0  0
  -22.7628  -29.2402   19.8525 H   0  0  0  0  0  0
  -25.1274  -36.1861   25.0828 H   0  0  0  0  0  0
  -20.9983  -28.3262   24.1378 H   0  0  0  0  0  0
  -20.5653  -26.2315   23.3623 H   0  0  0  0  0  0
  -21.6624  -26.7414   22.1201 H   0  0  0  0  0  0
  -19.6905  -25.6301   21.1218 H   0  0  0  0  0  0
  -19.6659  -27.3209   20.6769 H   0  0  0  0  0  0
  -17.4194  -26.6681   21.4013 H   0  0  0  0  0  0
  -18.0268  -26.0062   22.9008 H   0  0  0  0  0  0
  -19.7972  -30.7242   24.2242 H   0  0  0  0  0  0
  -17.5062  -31.6271   24.5160 H   0  0  0  0  0  0
  -15.5375  -30.3007   23.7687 H   0  0  0  0  0  0
  -15.8654  -28.0852   22.7069 H   0  0  0  0  0  0
  -24.5888  -30.7117   25.7784 H   0  0  0  0  0  0
  -24.8956  -32.2965   26.4830 H   0  0  0  0  0  0
  -25.8051  -30.8967   27.0232 H   0  0  0  0  0  0
  -26.2949  -29.6736   24.1195 H   0  0  0  0  0  0
  -27.4064  -29.7259   25.4678 H   0  0  0  0  0  0
  -27.8797  -30.4287   23.9393 H   0  0  0  0  0  0
  -27.2603  -33.3659   26.2007 H   0  0  0  0  0  0
  -28.3850  -32.6919   25.0314 H   0  0  0  0  0  0
  -28.0687  -31.8530   26.5434 H   0  0  0  0  0  0
  -28.2515  -38.0131   24.7602 H   0  0  0  0  0  0
  -28.1127  -36.2671   24.6105 H   0  0  0  0  0  0
  -27.2321  -37.1203   25.8858 H   0  0  0  0  0  0
  -20.9377  -29.8817   21.6893 H   0  0  0  0  0  0
  -26.0096  -38.2818   24.1552 H   0  0  0  0  0  0
  -31.7422  -16.8244   18.8479 H   0  0  0  0  0  0
  -29.5405  -21.3511   21.8920 H   0  0  0  0  0  0
  -27.9861  -20.7968   21.3746 H   0  0  0  0  0  0
  -27.5644  -24.9255   20.7704 H   0  0  0  0  0  0
  -29.2078  -25.0765   19.5840 H   0  0  0  0  0  0
  -28.9622  -15.7124   21.0199 H   0  0  0  0  0  0
  -28.2251  -22.2936   19.3496 H   0  0  0  0  0  0
  1 25  1  0  0  0
  1 30  2  0  0  0
  1 80  1  0  0  0
  2  3  1  0  0  0
  2 25  1  0  0  0
  2 86  1  0  0  0
  2 87  1  0  0  0
  3  4  1  0  0  0
  3 88  1  0  0  0
  3 89  1  0  0  0
  4  5  1  0  0  0
  4 90  1  0  0  0
  4 91  1  0  0  0
  5  6  1  0  0  0
  5 26  1  0  0  0
  5 92  1  0  0  0
  6 25  1  0  0  0
  6 93  1  0  0  0
  6 94  1  0  0  0
  7  8  2  0  0  0
  7 26  1  0  0  0
  7 29  1  0  0  0
  8  9  1  0  0  0
  8 22  1  0  0  0
  9 10  1  0  0  0
  9 27  2  0  0  0
 10 11  2  0  0  0
 10 15  1  0  0  0
 11 12  1  0  0  0
 11 95  1  0  0  0
 12 13  2  0  0  0
 12 96  1  0  0  0
 13 14  1  0  0  0
 13 31  1  0  0  0
 14 15  2  0  0  0
 14 97  1  0  0  0
 15 98  1  0  0  0
 16 17  2  0  0  0
 16 21  1  0  0  0
 16 31  1  0  0  0
 17 18  1  0  0  0
 17 99  1  0  0  0
 18 19  2  0  0  0
 18100  1  0  0  0
 19 20  1  0  0  0
 19 24  1  0  0  0
 20 21  2  0  0  0
 20101  1  0  0  0
 21 23  1  0  0  0
 22 28  1  0  0  0
 22 32  2  0  0  0
 26 27  1  0  0  0
 28102  1  0  0  0
 28103  1  0  0  0
 29104  1  0  0  0
 29105  1  0  0  0
 33 34  1  0  0  0
 33 66  1  0  0  0
 33 70  2  0  0  0
 34 36  1  0  0  0
 34 59  1  0  0  0
 34106  1  0  0  0
 35 44  2  0  0  0
 35 45  1  0  0  0
 35 68  1  0  0  0
 36 56  1  0  0  0
 36107  1  0  0  0
 37 39  1  0  0  0
 37 47  1  0  0  0
 37 66  1  0  0  0
 37108  1  0  0  0
 38 43  2  0  0  0
 38 46  1  0  0  0
 38 47  1  0  0  0
 39 64  1  0  0  0
 39 67  2  0  0  0
 40 52  1  0  0  0
 40 53  2  0  0  0
 40 58  1  0  0  0
 41109  1  0  0  0
 41110  1  0  0  0
 41111  1  0  0  0
 41 48  1  0  0  0
 42 43  1  0  0  0
 42 66  1  0  0  0
 42112  1  0  0  0
 42113  1  0  0  0
 43 44  1  0  0  0
 44114  1  0  0  0
 45 46  2  0  0  0
 45115  1  0  0  0
 46116  1  0  0  0
 47117  1  0  0  0
 47118  1  0  0  0
 48 56  1  0  0  0
 48 65  1  0  0  0
 48119  1  0  0  0
 49 50  1  0  0  0
 49 53  1  0  0  0
 49 64  1  0  0  0
 49120  1  0  0  0
 50 51  1  0  0  0
 50121  1  0  0  0
 50122  1  0  0  0
 51 52  1  0  0  0
 51123  1  0  0  0
 51124  1  0  0  0
 52125  1  0  0  0
 52126  1  0  0  0
 53 54  1  0  0  0
 54 55  2  0  0  0
 54127  1  0  0  0
 55 57  1  0  0  0
 55128  1  0  0  0
 56 69  2  0  0  0
 57 58  2  0  0  0
 57129  1  0  0  0
 58130  1  0  0  0
 59 60  1  0  0  0
 59 61  1  0  0  0
 59 62  1  0  0  0
 60131  1  0  0  0
 60132  1  0  0  0
 60133  1  0  0  0
 61134  1  0  0  0
 61135  1  0  0  0
 61136  1  0  0  0
 62137  1  0  0  0
 62138  1  0  0  0
 62139  1  0  0  0
 63 65  1  0  0  0
 63140  1  0  0  0
 63141  1  0  0  0
 63142  1  0  0  0
 64143  1  0  0  0
 65144  1  0  0  0
 68 79  1  0  0  0
 71 73  2  0  0  0
 71 74  1  0  0  0
 71145  1  0  0  0
 72 75  1  0  0  0
 72 76  2  0  0  0
 72 78  1  0  0  0
 73 76  1  0  0  0
 73 80  1  0  0  0
 74 75  2  0  0  0
 74 83  1  0  0  0
 75 84  1  0  0  0
 76 85  1  0  0  0
 77 79  1  0  0  0
 77 81  1  0  0  0
 77 82  2  0  0  0
 78 81  1  0  0  0
 78146  1  0  0  0
 78147  1  0  0  0
 79148  1  0  0  0
 79149  1  0  0  0
 80150  1  0  0  0
 81151  1  0  0  0
M  ISO  4   1 100  68 101  79 101  80 100
M  END
> <chiral flag>
0

> <version>
0

> <s_m_source_file>
/data/baiqing/PycharmProjects/Reinvent-master-3.2/result/LINK_invent/BTK/process_docking_weight1_custom_sum_contain_oxygen_bond_distance_aromatic_linkinvent_7_9_3/rearranged_h_0013.sdf

> <i_m_source_file_index>
41

> <r_mmod_Potential_Energy-OPLS-2005>
271.064880371094

> <r_mmod_Stretch_Energy-OPLS-2005>
121.176155090332

> <r_mmod_Bend_Energy-OPLS-2005>
360.179595947266

> <r_mmod_Torsional_Energy-OPLS-2005>
214.859741210938

> <r_mmod_Improper_Torsional_Energy-OPLS-2005>
5.03292036056519

> <r_mmod_Van_der_Waal_Energy-OPLS-2005>
148.129043579102

> <r_mmod_Electrostatic_Energy-OPLS-2005>
-418.556823730469

> <r_mmod_Solvation_Energy-OPLS-2005>
-238.293838500977

> <b_mmod_Minimization_Converged-OPLS-2005>
0

> <r_mmod_RMS_Derivative-OPLS-2005>
2.49845600128174

$$$$
41
                    3D
 Structure written by MMmdl.
154162  0  0  1  0            999 V2000
  -30.6476  -14.7129   20.4612 C   0  0  0  0  0  0
  -30.4208  -12.4329   19.4803 C   0  0  0  0  0  0
  -29.5077  -12.5001   18.2382 C   0  0  0  0  0  0
  -28.0335  -12.3280   18.6504 C   0  0  0  0  0  0
  -27.6401  -13.2330   19.8499 C   0  0  2  0  0  0
  -28.6817  -13.1772   20.9884 C   0  0  0  0  0  0
  -25.2506  -13.8212   20.5674 C   0  0  0  0  0  0
  -24.1792  -13.0456   20.9174 C   0  0  0  0  0  0
  -24.6384  -11.6926   20.8744 C   0  0  0  0  0  0
  -23.9066  -10.4303   21.0413 C   0  0  0  0  0  0
  -24.3619   -9.4222   21.9192 C   0  0  0  0  0  0
  -23.6287   -8.2268   22.0769 C   0  0  0  0  0  0
  -22.4277   -8.0311   21.3553 C   0  0  0  0  0  0
  -21.9914   -9.0275   20.4654 C   0  0  0  0  0  0
  -22.7248  -10.2148   20.3056 C   0  0  0  0  0  0
  -21.6862   -6.0754   22.5285 C   0  0  0  0  0  0
  -21.4016   -6.5648   23.8217 C   0  0  0  0  0  0
  -21.3644   -5.6801   24.9175 C   0  0  0  0  0  0
  -21.6045   -4.3066   24.7230 C   0  0  0  0  0  0
  -21.8817   -3.8151   23.4345 C   0  0  0  0  0  0
  -21.9196   -4.6978   22.3403 C   0  0  0  0  0  0
  -22.7821  -13.5248   21.1846 C   0  0  0  0  0  0
  -22.1662   -4.2163   21.0988 F   0  0  0  0  0  0
  -21.5622   -3.4550   25.7729 F   0  0  0  0  0  0
  -29.9884  -13.5056   20.4068 N   0  0  0  0  0  0
  -26.2922  -12.9410   20.3283 N   0  0  0  0  0  0
  -25.9322  -11.6547   20.5763 N   0  0  0  0  0  0
  -22.0465  -12.8239   22.0395 N   0  0  0  0  0  0
  -25.4187  -15.1933   20.4090 N   0  0  0  0  0  0
  -31.8384  -14.7460   20.1493 O   0  0  0  0  0  0
  -21.6651   -6.8901   21.4245 O   0  0  0  0  0  0
  -22.3527  -14.5572   20.6720 O   0  0  0  0  0  0
  -24.6279  -31.8501   23.1982 C   0  0  0  0  0  0
  -25.9101  -32.4737   23.8318 C   0  0  1  0  0  0
  -27.2297  -27.2707   20.1287 C   0  0  0  0  0  0
  -25.5901  -33.8540   24.2231 N   0  0  0  0  0  0
  -23.4289  -30.4717   21.5342 C   0  0  2  0  0  0
  -24.8808  -28.9194   20.1077 C   0  0  0  0  0  0
  -22.7487  -29.4571   22.4872 C   0  0  0  0  0  0
  -18.0285  -28.1411   22.8432 C   0  0  0  0  0  0
  -24.1484  -36.7225   23.2653 C   0  0  0  0  0  0
  -25.9732  -30.7673   21.3805 C   0  0  0  0  0  0
  -26.0476  -29.3921   20.7175 C   0  0  0  0  0  0
  -27.2225  -28.5775   20.7214 C   0  0  0  0  0  0
  -26.0411  -26.8663   19.4826 C   0  0  0  0  0  0
  -24.8786  -27.6631   19.4827 C   0  0  0  0  0  0
  -23.6496  -29.8005   20.1517 C   0  0  0  0  0  0
  -25.4104  -36.3023   24.0332 C   0  0  1  0  0  0
  -20.5896  -28.3669   23.1239 C   0  0  2  0  0  0
  -20.6778  -26.9376   22.5379 C   0  0  0  0  0  0
  -19.5756  -26.6361   21.5188 C   0  0  0  0  0  0
  -18.1943  -26.7953   22.1590 C   0  0  0  0  0  0
  -19.1550  -28.8862   23.2845 C   0  0  0  0  0  0
  -18.9490  -30.1477   23.8843 C   0  0  0  0  0  0
  -17.6488  -30.6603   24.0556 C   0  0  0  0  0  0
  -25.9037  -34.9410   23.5086 C   0  0  0  0  0  0
  -16.5367  -29.9089   23.6372 C   0  0  0  0  0  0
  -16.7266  -28.6532   23.0330 C   0  0  0  0  0  0
  -26.4482  -31.6608   25.0730 C   0  0  0  0  0  0
  -25.3704  -31.3762   26.1444 C   0  0  0  0  0  0
  -27.0400  -30.3052   24.6252 C   0  0  0  0  0  0
  -27.6038  -32.4364   25.7467 C   0  0  0  0  0  0
  -27.5575  -37.1729   24.8451 C   0  0  0  0  0  0
  -21.4206  -29.3037   22.3630 N   0  0  0  0  0  0
  -26.4252  -37.3740   23.9454 N   0  0  0  0  0  0
  -24.6964  -31.0476   22.0957 N   0  0  0  0  0  0
  -23.4211  -28.8117   23.2967 O   0  0  0  0  0  0
  -28.3315  -26.3886   20.2269 O   0  0  0  0  0  0
  -26.5611  -34.8905   22.4659 O   0  0  0  0  0  0
  -23.5434  -32.1287   23.7273 O   0  0  0  0  0  0
  -30.9492  -20.0936   20.0190 C   0  0  0  0  0  0
  -31.5389  -17.7084   20.0161 C   0  0  0  0  0  0
  -31.8822  -19.0594   19.7957 C   0  0  0  0  0  0
  -29.6555  -19.8168   20.5051 C   0  0  0  0  0  0
  -30.2569  -17.3156   20.4764 C   0  0  0  0  0  0
  -29.3282  -18.4079   20.7286 C   0  0  0  0  0  0
  -28.7239  -23.6832   20.6821 C   0  0  0  0  0  0
  -33.2892  -19.3870   19.3289 C   0  0  0  0  0  0
  -28.7264  -21.0549   20.8841 C   0  0  0  0  0  0
  -28.2346  -24.9462   19.8047 C   0  0  0  0  0  0
  -29.9155  -15.8741   20.6758 N   0  0  0  0  0  0
  -28.7585  -22.4010   20.1549 N   0  0  0  0  0  0
  -29.0305  -23.8569   21.8672 O   0  0  0  0  0  0
  -27.7675  -17.9920   21.3475 Cl  0  0  0  0  0  0
  -31.4666  -12.5254   19.1827 H   0  0  0  0  0  0
  -30.3391  -11.4591   19.9663 H   0  0  0  0  0  0
  -29.7877  -11.7261   17.5225 H   0  0  0  0  0  0
  -29.6396  -13.4575   17.7311 H   0  0  0  0  0  0
  -27.8859  -11.2781   18.9074 H   0  0  0  0  0  0
  -27.3778  -12.5239   17.8005 H   0  0  0  0  0  0
  -27.6346  -14.2539   19.4654 H   0  0  0  0  0  0
  -28.7060  -12.1895   21.4521 H   0  0  0  0  0  0
  -28.4195  -13.8793   21.7804 H   0  0  0  0  0  0
  -25.2776   -9.5725   22.4750 H   0  0  0  0  0  0
  -24.0011   -7.4681   22.7495 H   0  0  0  0  0  0
  -21.0859   -8.8792   19.8952 H   0  0  0  0  0  0
  -22.3722  -10.9685   19.6155 H   0  0  0  0  0  0
  -21.2002   -7.6151   23.9727 H   0  0  0  0  0  0
  -21.1456   -6.0524   25.9080 H   0  0  0  0  0  0
  -22.0602   -2.7613   23.2844 H   0  0  0  0  0  0
  -22.4078  -11.9879   22.4738 H   0  0  0  0  0  0
  -21.1093  -13.1273   22.2619 H   0  0  0  0  0  0
  -24.6471  -15.8414   20.5227 H   0  0  0  0  0  0
  -26.2721  -15.6453   20.1069 H   0  0  0  0  0  0
  -26.7138  -32.5358   23.1026 H   0  0  0  0  0  0
  -25.0089  -33.9654   25.0412 H   0  0  0  0  0  0
  -22.7276  -31.2949   21.3762 H   0  0  0  0  0  0
  -23.3785  -35.9523   23.3254 H   0  0  0  0  0  0
  -24.3583  -36.8899   22.2079 H   0  0  0  0  0  0
  -23.7182  -37.6386   23.6713 H   0  0  0  0  0  0
  -26.1218  -31.5339   20.6202 H   0  0  0  0  0  0
  -26.8467  -30.8006   22.0204 H   0  0  0  0  0  0
  -28.1132  -28.9270   21.2213 H   0  0  0  0  0  0
  -25.9813  -25.9045   18.9958 H   0  0  0  0  0  0
  -23.9813  -27.2875   19.0128 H   0  0  0  0  0  0
  -23.7783  -30.5689   19.3891 H   0  0  0  0  0  0
  -22.7735  -29.2238   19.8483 H   0  0  0  0  0  0
  -25.1286  -36.1830   25.0816 H   0  0  0  0  0  0
  -20.9962  -28.3229   24.1363 H   0  0  0  0  0  0
  -20.5662  -26.2266   23.3578 H   0  0  0  0  0  0
  -21.6642  -26.7385   22.1176 H   0  0  0  0  0  0
  -19.6935  -25.6269   21.1226 H   0  0  0  0  0  0
  -19.6764  -27.3165   20.6738 H   0  0  0  0  0  0
  -17.4204  -26.6661   21.4002 H   0  0  0  0  0  0
  -18.0340  -26.0116   22.9007 H   0  0  0  0  0  0
  -19.7989  -30.7305   24.2151 H   0  0  0  0  0  0
  -17.5067  -31.6285   24.5157 H   0  0  0  0  0  0
  -15.5380  -30.2988   23.7791 H   0  0  0  0  0  0
  -15.8649  -28.0884   22.7035 H   0  0  0  0  0  0
  -24.5841  -30.7163   25.7728 H   0  0  0  0  0  0
  -24.8950  -32.2953   26.4884 H   0  0  0  0  0  0
  -25.7975  -30.8870   27.0214 H   0  0  0  0  0  0
  -26.3041  -29.6721   24.1276 H   0  0  0  0  0  0
  -27.4133  -29.7353   25.4781 H   0  0  0  0  0  0
  -27.8866  -30.4381   23.9516 H   0  0  0  0  0  0
  -27.2673  -33.3693   26.2002 H   0  0  0  0  0  0
  -28.3855  -32.6874   25.0282 H   0  0  0  0  0  0
  -28.0724  -31.8533   26.5398 H   0  0  0  0  0  0
  -28.2481  -38.0139   24.7620 H   0  0  0  0  0  0
  -28.1177  -36.2652   24.6106 H   0  0  0  0  0  0
  -27.2304  -37.1157   25.8856 H   0  0  0  0  0  0
  -20.9386  -29.8738   21.6815 H   0  0  0  0  0  0
  -26.0101  -38.2780   24.1603 H   0  0  0  0  0  0
  -31.2422  -21.1201   19.8552 H   0  0  0  0  0  0
  -32.3159  -16.9887   19.8150 H   0  0  0  0  0  0
  -33.5407  -20.4329   19.5116 H   0  0  0  0  0  0
  -33.3998  -19.1842   18.2628 H   0  0  0  0  0  0
  -34.0220  -18.7767   19.8602 H   0  0  0  0  0  0
  -28.9169  -21.2565   21.9381 H   0  0  0  0  0  0
  -27.6879  -20.7237   20.8505 H   0  0  0  0  0  0
  -27.4498  -24.8834   20.5602 H   0  0  0  0  0  0
  -29.3178  -25.0775   19.7944 H   0  0  0  0  0  0
  -28.9557  -15.7105   20.9384 H   0  0  0  0  0  0
  -28.5536  -22.3450   19.1661 H   0  0  0  0  0  0
  1 25  1  0  0  0
  1 30  2  0  0  0
  1 81  1  0  0  0
  2  3  1  0  0  0
  2 25  1  0  0  0
  2 85  1  0  0  0
  2 86  1  0  0  0
  3  4  1  0  0  0
  3 87  1  0  0  0
  3 88  1  0  0  0
  4  5  1  0  0  0
  4 89  1  0  0  0
  4 90  1  0  0  0
  5  6  1  0  0  0
  5 26  1  0  0  0
  5 91  1  0  0  0
  6 25  1  0  0  0
  6 92  1  0  0  0
  6 93  1  0  0  0
  7  8  2  0  0  0
  7 26  1  0  0  0
  7 29  1  0  0  0
  8  9  1  0  0  0
  8 22  1  0  0  0
  9 10  1  0  0  0
  9 27  2  0  0  0
 10 11  2  0  0  0
 10 15  1  0  0  0
 11 12  1  0  0  0
 11 94  1  0  0  0
 12 13  2  0  0  0
 12 95  1  0  0  0
 13 14  1  0  0  0
 13 31  1  0  0  0
 14 15  2  0  0  0
 14 96  1  0  0  0
 15 97  1  0  0  0
 16 17  2  0  0  0
 16 21  1  0  0  0
 16 31  1  0  0  0
 17 18  1  0  0  0
 17 98  1  0  0  0
 18 19  2  0  0  0
 18 99  1  0  0  0
 19 20  1  0  0  0
 19 24  1  0  0  0
 20 21  2  0  0  0
 20100  1  0  0  0
 21 23  1  0  0  0
 22 28  1  0  0  0
 22 32  2  0  0  0
 26 27  1  0  0  0
 28101  1  0  0  0
 28102  1  0  0  0
 29103  1  0  0  0
 29104  1  0  0  0
 33 34  1  0  0  0
 33 66  1  0  0  0
 33 70  2  0  0  0
 34 36  1  0  0  0
 34 59  1  0  0  0
 34105  1  0  0  0
 35 44  2  0  0  0
 35 45  1  0  0  0
 35 68  1  0  0  0
 36 56  1  0  0  0
 36106  1  0  0  0
 37 39  1  0  0  0
 37 47  1  0  0  0
 37 66  1  0  0  0
 37107  1  0  0  0
 38 43  2  0  0  0
 38 46  1  0  0  0
 38 47  1  0  0  0
 39 64  1  0  0  0
 39 67  2  0  0  0
 40 52  1  0  0  0
 40 53  2  0  0  0
 40 58  1  0  0  0
 41108  1  0  0  0
 41109  1  0  0  0
 41110  1  0  0  0
 41 48  1  0  0  0
 42 43  1  0  0  0
 42 66  1  0  0  0
 42111  1  0  0  0
 42112  1  0  0  0
 43 44  1  0  0  0
 44113  1  0  0  0
 45 46  2  0  0  0
 45114  1  0  0  0
 46115  1  0  0  0
 47116  1  0  0  0
 47117  1  0  0  0
 48 56  1  0  0  0
 48 65  1  0  0  0
 48118  1  0  0  0
 49 50  1  0  0  0
 49 53  1  0  0  0
 49 64  1  0  0  0
 49119  1  0  0  0
 50 51  1  0  0  0
 50120  1  0  0  0
 50121  1  0  0  0
 51 52  1  0  0  0
 51122  1  0  0  0
 51123  1  0  0  0
 52124  1  0  0  0
 52125  1  0  0  0
 53 54  1  0  0  0
 54 55  2  0  0  0
 54126  1  0  0  0
 55 57  1  0  0  0
 55127  1  0  0  0
 56 69  2  0  0  0
 57 58  2  0  0  0
 57128  1  0  0  0
 58129  1  0  0  0
 59 60  1  0  0  0
 59 61  1  0  0  0
 59 62  1  0  0  0
 60130  1  0  0  0
 60131  1  0  0  0
 60132  1  0  0  0
 61133  1  0  0  0
 61134  1  0  0  0
 61135  1  0  0  0
 62136  1  0  0  0
 62137  1  0  0  0
 62138  1  0  0  0
 63 65  1  0  0  0
 63139  1  0  0  0
 63140  1  0  0  0
 63141  1  0  0  0
 64142  1  0  0  0
 65143  1  0  0  0
 68 80  1  0  0  0
 71 73  2  0  0  0
 71 74  1  0  0  0
 71144  1  0  0  0
 72 73  1  0  0  0
 72 75  2  0  0  0
 72145  1  0  0  0
 73 78  1  0  0  0
 74 76  2  0  0  0
 74 79  1  0  0  0
 75 76  1  0  0  0
 75 81  1  0  0  0
 76 84  1  0  0  0
 77 80  1  0  0  0
 77 82  1  0  0  0
 77 83  2  0  0  0
 78146  1  0  0  0
 78147  1  0  0  0
 78148  1  0  0  0
 79 82  1  0  0  0
 79149  1  0  0  0
 79150  1  0  0  0
 80151  1  0  0  0
 80152  1  0  0  0
 81153  1  0  0  0
 82154  1  0  0  0
M  ISO  4   1 100  68 101  80 101  81 100
M  END
> <chiral flag>
0

> <version>
0

> <s_m_source_file>
/data/baiqing/PycharmProjects/Reinvent-master-3.2/result/LINK_invent/BTK/process_docking_weight1_custom_sum_contain_oxygen_bond_distance_aromatic_linkinvent_7_9_3/rearranged_h_0013.sdf

> <i_m_source_file_index>
42

> <r_mmod_Potential_Energy-OPLS-2005>
269.389251708984

> <r_mmod_Stretch_Energy-OPLS-2005>
123.952949523926

> <r_mmod_Bend_Energy-OPLS-2005>
366.957061767578

> <r_mmod_Torsional_Energy-OPLS-2005>
209.532150268555

> <r_mmod_Improper_Torsional_Energy-OPLS-2005>
5.37855768203735

> <r_mmod_Van_der_Waal_Energy-OPLS-2005>
149.191925048828

> <r_mmod_Electrostatic_Energy-OPLS-2005>
-429.201843261719

> <r_mmod_Solvation_Energy-OPLS-2005>
-234.897262573242

> <b_mmod_Minimization_Converged-OPLS-2005>
0

> <r_mmod_RMS_Derivative-OPLS-2005>
4.02419424057007

$$$$
42
                    3D
 Structure written by MMmdl.
161169  0  0  1  0            999 V2000
  -30.6258  -14.6275   20.5173 C   0  0  0  0  0  0
  -30.4419  -12.3886   19.4497 C   0  0  0  0  0  0
  -29.5086  -12.5121   18.2242 C   0  0  0  0  0  0
  -28.0309  -12.3510   18.6350 C   0  0  0  0  0  0
  -27.6565  -13.2151   19.8689 C   0  0  2  0  0  0
  -28.7018  -13.0529   20.9961 C   0  0  0  0  0  0
  -25.2542  -13.8144   20.5629 C   0  0  0  0  0  0
  -24.1820  -13.0415   20.9159 C   0  0  0  0  0  0
  -24.6405  -11.6894   20.8740 C   0  0  0  0  0  0
  -23.9070  -10.4282   21.0406 C   0  0  0  0  0  0
  -24.3619   -9.4199   21.9185 C   0  0  0  0  0  0
  -23.6291   -8.2238   22.0755 C   0  0  0  0  0  0
  -22.4272   -8.0280   21.3545 C   0  0  0  0  0  0
  -21.9910   -9.0252   20.4646 C   0  0  0  0  0  0
  -22.7243  -10.2128   20.3055 C   0  0  0  0  0  0
  -21.6852   -6.0736   22.5280 C   0  0  0  0  0  0
  -21.4013   -6.5640   23.8215 C   0  0  0  0  0  0
  -21.3657   -5.6791   24.9175 C   0  0  0  0  0  0
  -21.6044   -4.3055   24.7225 C   0  0  0  0  0  0
  -21.8820   -3.8147   23.4347 C   0  0  0  0  0  0
  -21.9193   -4.6964   22.3402 C   0  0  0  0  0  0
  -22.7845  -13.5213   21.1828 C   0  0  0  0  0  0
  -22.1662   -4.2150   21.0981 F   0  0  0  0  0  0
  -21.5626   -3.4538   25.7737 F   0  0  0  0  0  0
  -30.0204  -13.4001   20.4385 N   0  0  0  0  0  0
  -26.3006  -12.9343   20.3347 N   0  0  0  0  0  0
  -25.9340  -11.6494   20.5782 N   0  0  0  0  0  0
  -22.0498  -12.8214   22.0403 N   0  0  0  0  0  0
  -25.4185  -15.1851   20.3967 N   0  0  0  0  0  0
  -31.7746  -14.8069   20.1028 O   0  0  0  0  0  0
  -21.6639   -6.8877   21.4241 O   0  0  0  0  0  0
  -22.3515  -14.5514   20.6677 O   0  0  0  0  0  0
  -24.6253  -31.8612   23.2045 C   0  0  0  0  0  0
  -25.9105  -32.4789   23.8367 C   0  0  1  0  0  0
  -27.2234  -27.3297   20.1109 C   0  0  0  0  0  0
  -25.5926  -33.8587   24.2295 N   0  0  0  0  0  0
  -23.4180  -30.4866   21.5470 C   0  0  2  0  0  0
  -24.8633  -28.9466   20.1088 C   0  0  0  0  0  0
  -22.7477  -29.4628   22.4942 C   0  0  0  0  0  0
  -18.0291  -28.1377   22.8487 C   0  0  0  0  0  0
  -24.1491  -36.7293   23.2641 C   0  0  0  0  0  0
  -25.9590  -30.7953   21.3739 C   0  0  0  0  0  0
  -26.0319  -29.4246   20.7139 C   0  0  0  0  0  0
  -27.2146  -28.6278   20.7058 C   0  0  0  0  0  0
  -26.0299  -26.9058   19.4793 C   0  0  0  0  0  0
  -24.8636  -27.6915   19.4826 C   0  0  0  0  0  0
  -23.6300  -29.8242   20.1608 C   0  0  0  0  0  0
  -25.4114  -36.3091   24.0337 C   0  0  1  0  0  0
  -20.5891  -28.3674   23.1288 C   0  0  2  0  0  0
  -20.6784  -26.9398   22.5408 C   0  0  0  0  0  0
  -19.5759  -26.6373   21.5213 C   0  0  0  0  0  0
  -18.1938  -26.7922   22.1622 C   0  0  0  0  0  0
  -19.1542  -28.8843   23.2885 C   0  0  0  0  0  0
  -18.9465  -30.1449   23.8892 C   0  0  0  0  0  0
  -17.6464  -30.6579   24.0559 C   0  0  0  0  0  0
  -25.9045  -34.9459   23.5112 C   0  0  0  0  0  0
  -16.5357  -29.9076   23.6330 C   0  0  0  0  0  0
  -16.7277  -28.6493   23.0349 C   0  0  0  0  0  0
  -26.4489  -31.6595   25.0730 C   0  0  0  0  0  0
  -25.3722  -31.3726   26.1455 C   0  0  0  0  0  0
  -27.0333  -30.3026   24.6164 C   0  0  0  0  0  0
  -27.6055  -32.4320   25.7492 C   0  0  0  0  0  0
  -27.5581  -37.1803   24.8470 C   0  0  0  0  0  0
  -21.4191  -29.3033   22.3684 N   0  0  0  0  0  0
  -26.4297  -37.3783   23.9409 N   0  0  0  0  0  0
  -24.6862  -31.0645   22.0983 N   0  0  0  0  0  0
  -23.4211  -28.8159   23.3009 O   0  0  0  0  0  0
  -28.3428  -26.4834   20.1678 O   0  0  0  0  0  0
  -26.5608  -34.8928   22.4676 O   0  0  0  0  0  0
  -23.5423  -32.1387   23.7387 O   0  0  0  0  0  0
  -30.8772  -17.8626   20.2023 C   0  0  0  0  0  0
  -30.8403  -19.2905   20.1688 C   0  0  0  0  0  0
  -28.7913  -19.2820   21.4663 C   0  0  0  0  0  0
  -29.8808  -17.1055   20.8669 C   0  0  0  0  0  0
  -29.8011  -20.0431   20.7983 C   0  0  0  0  0  0
  -28.8344  -17.8474   21.4801 C   0  0  0  0  0  0
  -31.9728  -20.0176   19.4606 C   0  0  0  0  0  0
  -27.6651  -19.9925   22.2137 C   0  0  0  0  0  0
  -30.6372  -21.8648   22.0877 C   0  0  0  0  0  0
  -29.2312  -24.0013   20.4687 C   0  0  0  0  0  0
  -28.8756  -22.4444   20.3769 C   0  0  0  0  0  0
  -28.1182  -25.0299   20.0035 C   0  0  0  0  0  0
  -29.8268  -15.6458   20.9540 N   0  0  0  0  0  0
  -29.9087  -21.4800   20.8800 N   0  0  0  0  0  0
  -27.5906  -16.9473   22.2872 Cl  0  0  0  0  0  0
  -31.4823  -12.5179   19.1464 H   0  0  0  0  0  0
  -30.3801  -11.3888   19.8825 H   0  0  0  0  0  0
  -29.7714  -11.7648   17.4741 H   0  0  0  0  0  0
  -29.6520  -13.4840   17.7494 H   0  0  0  0  0  0
  -27.8637  -11.2969   18.8581 H   0  0  0  0  0  0
  -27.3777  -12.5894   17.7947 H   0  0  0  0  0  0
  -27.6790  -14.2539   19.5383 H   0  0  0  0  0  0
  -28.7115  -12.0251   21.3622 H   0  0  0  0  0  0
  -28.4446  -13.6681   21.8594 H   0  0  0  0  0  0
  -25.2764   -9.5675   22.4758 H   0  0  0  0  0  0
  -24.0000   -7.4629   22.7474 H   0  0  0  0  0  0
  -21.0841   -8.8771   19.8951 H   0  0  0  0  0  0
  -22.3704  -10.9666   19.6162 H   0  0  0  0  0  0
  -21.2007   -7.6149   23.9718 H   0  0  0  0  0  0
  -21.1475   -6.0522   25.9078 H   0  0  0  0  0  0
  -22.0602   -2.7610   23.2847 H   0  0  0  0  0  0
  -22.4120  -11.9879   22.4792 H   0  0  0  0  0  0
  -21.1120  -13.1240   22.2615 H   0  0  0  0  0  0
  -24.6575  -15.8390   20.5396 H   0  0  0  0  0  0
  -26.2873  -15.6392   20.1486 H   0  0  0  0  0  0
  -26.7168  -32.5453   23.1109 H   0  0  0  0  0  0
  -25.0111  -33.9735   25.0466 H   0  0  0  0  0  0
  -22.7110  -31.3069   21.4077 H   0  0  0  0  0  0
  -23.3761  -35.9616   23.3307 H   0  0  0  0  0  0
  -24.3588  -36.8898   22.2054 H   0  0  0  0  0  0
  -23.7241  -37.6497   23.6647 H   0  0  0  0  0  0
  -26.0924  -31.5605   20.6083 H   0  0  0  0  0  0
  -26.8396  -30.8397   22.0031 H   0  0  0  0  0  0
  -28.1100  -28.9899   21.1902 H   0  0  0  0  0  0
  -25.9668  -25.9500   18.9820 H   0  0  0  0  0  0
  -23.9688  -27.3208   19.0017 H   0  0  0  0  0  0
  -23.7443  -30.6022   19.4053 H   0  0  0  0  0  0
  -22.7501  -29.2517   19.8617 H   0  0  0  0  0  0
  -25.1297  -36.1946   25.0831 H   0  0  0  0  0  0
  -20.9984  -28.3239   24.1408 H   0  0  0  0  0  0
  -20.5696  -26.2279   23.3604 H   0  0  0  0  0  0
  -21.6650  -26.7433   22.1192 H   0  0  0  0  0  0
  -19.6921  -25.6285   21.1236 H   0  0  0  0  0  0
  -19.6700  -27.3196   20.6753 H   0  0  0  0  0  0
  -17.4210  -26.6674   21.4020 H   0  0  0  0  0  0
  -18.0324  -26.0065   22.9015 H   0  0  0  0  0  0
  -19.7941  -30.7266   24.2256 H   0  0  0  0  0  0
  -17.5019  -31.6264   24.5150 H   0  0  0  0  0  0
  -15.5354  -30.2973   23.7666 H   0  0  0  0  0  0
  -15.8678  -28.0816   22.7059 H   0  0  0  0  0  0
  -24.5907  -30.7071   25.7779 H   0  0  0  0  0  0
  -24.8907  -32.2891   26.4869 H   0  0  0  0  0  0
  -25.8043  -30.8909   27.0236 H   0  0  0  0  0  0
  -26.2906  -29.6780   24.1188 H   0  0  0  0  0  0
  -27.4057  -29.7273   25.4651 H   0  0  0  0  0  0
  -27.8761  -30.4340   23.9374 H   0  0  0  0  0  0
  -27.2679  -33.3624   26.2071 H   0  0  0  0  0  0
  -28.3859  -32.6867   25.0308 H   0  0  0  0  0  0
  -28.0729  -31.8443   26.5405 H   0  0  0  0  0  0
  -28.2601  -38.0098   24.7511 H   0  0  0  0  0  0
  -28.1075  -36.2626   24.6297 H   0  0  0  0  0  0
  -27.2300  -37.1456   25.8876 H   0  0  0  0  0  0
  -20.9362  -29.8755   21.6895 H   0  0  0  0  0  0
  -26.0182  -38.2861   24.1402 H   0  0  0  0  0  0
  -31.6932  -17.3494   19.7152 H   0  0  0  0  0  0
  -32.5844  -19.3356   18.8704 H   0  0  0  0  0  0
  -32.6195  -20.5102   20.1875 H   0  0  0  0  0  0
  -31.5782  -20.7770   18.7853 H   0  0  0  0  0  0
  -27.9972  -20.9335   22.6464 H   0  0  0  0  0  0
  -27.2838  -19.4138   23.0528 H   0  0  0  0  0  0
  -26.8358  -20.1957   21.5365 H   0  0  0  0  0  0
  -31.2122  -21.0389   22.5112 H   0  0  0  0  0  0
  -29.9537  -22.2191   22.8603 H   0  0  0  0  0  0
  -31.3404  -22.6682   21.8659 H   0  0  0  0  0  0
  -30.1423  -24.1916   19.9000 H   0  0  0  0  0  0
  -29.4689  -24.2482   21.5029 H   0  0  0  0  0  0
  -28.6755  -22.1965   19.3334 H   0  0  0  0  0  0
  -27.9351  -22.2789   20.8998 H   0  0  0  0  0  0
  -27.2125  -24.7621   20.5502 H   0  0  0  0  0  0
  -27.9138  -24.8369   18.9497 H   0  0  0  0  0  0
  -28.9582  -15.3125   21.3457 H   0  0  0  0  0  0
  1 25  1  0  0  0
  1 30  2  0  0  0
  1 83  1  0  0  0
  2  3  1  0  0  0
  2 25  1  0  0  0
  2 86  1  0  0  0
  2 87  1  0  0  0
  3  4  1  0  0  0
  3 88  1  0  0  0
  3 89  1  0  0  0
  4  5  1  0  0  0
  4 90  1  0  0  0
  4 91  1  0  0  0
  5  6  1  0  0  0
  5 26  1  0  0  0
  5 92  1  0  0  0
  6 25  1  0  0  0
  6 93  1  0  0  0
  6 94  1  0  0  0
  7  8  2  0  0  0
  7 26  1  0  0  0
  7 29  1  0  0  0
  8  9  1  0  0  0
  8 22  1  0  0  0
  9 10  1  0  0  0
  9 27  2  0  0  0
 10 11  2  0  0  0
 10 15  1  0  0  0
 11 12  1  0  0  0
 11 95  1  0  0  0
 12 13  2  0  0  0
 12 96  1  0  0  0
 13 14  1  0  0  0
 13 31  1  0  0  0
 14 15  2  0  0  0
 14 97  1  0  0  0
 15 98  1  0  0  0
 16 17  2  0  0  0
 16 21  1  0  0  0
 16 31  1  0  0  0
 17 18  1  0  0  0
 17 99  1  0  0  0
 18 19  2  0  0  0
 18100  1  0  0  0
 19 20  1  0  0  0
 19 24  1  0  0  0
 20 21  2  0  0  0
 20101  1  0  0  0
 21 23  1  0  0  0
 22 28  1  0  0  0
 22 32  2  0  0  0
 26 27  1  0  0  0
 28102  1  0  0  0
 28103  1  0  0  0
 29104  1  0  0  0
 29105  1  0  0  0
 33 34  1  0  0  0
 33 66  1  0  0  0
 33 70  2  0  0  0
 34 36  1  0  0  0
 34 59  1  0  0  0
 34106  1  0  0  0
 35 44  2  0  0  0
 35 45  1  0  0  0
 35 68  1  0  0  0
 36 56  1  0  0  0
 36107  1  0  0  0
 37 39  1  0  0  0
 37 47  1  0  0  0
 37 66  1  0  0  0
 37108  1  0  0  0
 38 43  2  0  0  0
 38 46  1  0  0  0
 38 47  1  0  0  0
 39 64  1  0  0  0
 39 67  2  0  0  0
 40 52  1  0  0  0
 40 53  2  0  0  0
 40 58  1  0  0  0
 41109  1  0  0  0
 41110  1  0  0  0
 41111  1  0  0  0
 41 48  1  0  0  0
 42 43  1  0  0  0
 42 66  1  0  0  0
 42112  1  0  0  0
 42113  1  0  0  0
 43 44  1  0  0  0
 44114  1  0  0  0
 45 46  2  0  0  0
 45115  1  0  0  0
 46116  1  0  0  0
 47117  1  0  0  0
 47118  1  0  0  0
 48 56  1  0  0  0
 48 65  1  0  0  0
 48119  1  0  0  0
 49 50  1  0  0  0
 49 53  1  0  0  0
 49 64  1  0  0  0
 49120  1  0  0  0
 50 51  1  0  0  0
 50121  1  0  0  0
 50122  1  0  0  0
 51 52  1  0  0  0
 51123  1  0  0  0
 51124  1  0  0  0
 52125  1  0  0  0
 52126  1  0  0  0
 53 54  1  0  0  0
 54 55  2  0  0  0
 54127  1  0  0  0
 55 57  1  0  0  0
 55128  1  0  0  0
 56 69  2  0  0  0
 57 58  2  0  0  0
 57129  1  0  0  0
 58130  1  0  0  0
 59 60  1  0  0  0
 59 61  1  0  0  0
 59 62  1  0  0  0
 60131  1  0  0  0
 60132  1  0  0  0
 60133  1  0  0  0
 61134  1  0  0  0
 61135  1  0  0  0
 61136  1  0  0  0
 62137  1  0  0  0
 62138  1  0  0  0
 62139  1  0  0  0
 63 65  1  0  0  0
 63140  1  0  0  0
 63141  1  0  0  0
 63142  1  0  0  0
 64143  1  0  0  0
 65144  1  0  0  0
 68 82  1  0  0  0
 71 72  2  0  0  0
 71 74  1  0  0  0
 71145  1  0  0  0
 72 75  1  0  0  0
 72 77  1  0  0  0
 73 75  2  0  0  0
 73 76  1  0  0  0
 73 78  1  0  0  0
 74 76  2  0  0  0
 74 83  1  0  0  0
 75 84  1  0  0  0
 76 85  1  0  0  0
 77146  1  0  0  0
 77147  1  0  0  0
 77148  1  0  0  0
 78149  1  0  0  0
 78150  1  0  0  0
 78151  1  0  0  0
 79 84  1  0  0  0
 79152  1  0  0  0
 79153  1  0  0  0
 79154  1  0  0  0
 80 81  1  0  0  0
 80 82  1  0  0  0
 80155  1  0  0  0
 80156  1  0  0  0
 81 84  1  0  0  0
 81157  1  0  0  0
 81158  1  0  0  0
 82159  1  0  0  0
 82160  1  0  0  0
 83161  1  0  0  0
M  ISO  4   1 100  68 101  82 101  83 100
M  END
> <chiral flag>
0

> <version>
0

> <s_m_source_file>
/data/baiqing/PycharmProjects/Reinvent-master-3.2/result/LINK_invent/BTK/process_docking_weight1_custom_sum_contain_oxygen_bond_distance_aromatic_linkinvent_7_9_3/rearranged_h_0013.sdf

> <i_m_source_file_index>
43

> <r_mmod_Potential_Energy-OPLS-2005>
24.1332035064697

> <r_mmod_Stretch_Energy-OPLS-2005>
79.5430450439453

> <r_mmod_Bend_Energy-OPLS-2005>
142.852828979492

> <r_mmod_Torsional_Energy-OPLS-2005>
232.379150390625

> <r_mmod_Improper_Torsional_Energy-OPLS-2005>
6.44365262985229

> <r_mmod_Van_der_Waal_Energy-OPLS-2005>
156.485015869141

> <r_mmod_Electrostatic_Energy-OPLS-2005>
-436.544189453125

> <r_mmod_Solvation_Energy-OPLS-2005>
-201.42268371582

> <b_mmod_Minimization_Converged-OPLS-2005>
0

> <r_mmod_RMS_Derivative-OPLS-2005>
0.949841558933258

$$$$
43
                    3D
 Structure written by MMmdl.
162170  0  0  1  0            999 V2000
  -30.5892  -14.7337   20.4586 C   0  0  0  0  0  0
  -30.4359  -12.4466   19.4512 C   0  0  0  0  0  0
  -29.5030  -12.5017   18.2217 C   0  0  0  0  0  0
  -28.0275  -12.3279   18.6400 C   0  0  0  0  0  0
  -27.6358  -13.2215   19.8464 C   0  0  2  0  0  0
  -28.6890  -13.1465   20.9718 C   0  0  0  0  0  0
  -25.2480  -13.8177   20.5684 C   0  0  0  0  0  0
  -24.1761  -13.0436   20.9233 C   0  0  0  0  0  0
  -24.6333  -11.6914   20.8751 C   0  0  0  0  0  0
  -23.8989  -10.4292   21.0405 C   0  0  0  0  0  0
  -24.3549   -9.4209   21.9180 C   0  0  0  0  0  0
  -23.6249   -8.2230   22.0739 C   0  0  0  0  0  0
  -22.4240   -8.0254   21.3515 C   0  0  0  0  0  0
  -21.9859   -9.0216   20.4625 C   0  0  0  0  0  0
  -22.7164  -10.2120   20.3050 C   0  0  0  0  0  0
  -21.6832   -6.0720   22.5274 C   0  0  0  0  0  0
  -21.4012   -6.5628   23.8207 C   0  0  0  0  0  0
  -21.3664   -5.6779   24.9170 C   0  0  0  0  0  0
  -21.6046   -4.3041   24.7212 C   0  0  0  0  0  0
  -21.8823   -3.8128   23.4334 C   0  0  0  0  0  0
  -21.9184   -4.6948   22.3395 C   0  0  0  0  0  0
  -22.7792  -13.5234   21.1882 C   0  0  0  0  0  0
  -22.1654   -4.2138   21.0971 F   0  0  0  0  0  0
  -21.5607   -3.4533   25.7721 F   0  0  0  0  0  0
  -29.9820  -13.5034   20.3748 N   0  0  0  0  0  0
  -26.2888  -12.9358   20.3286 N   0  0  0  0  0  0
  -25.9264  -11.6509   20.5762 N   0  0  0  0  0  0
  -22.0424  -12.8237   22.0459 N   0  0  0  0  0  0
  -25.4165  -15.1901   20.4049 N   0  0  0  0  0  0
  -31.8047  -14.8458   20.2817 O   0  0  0  0  0  0
  -21.6600   -6.8861   21.4233 O   0  0  0  0  0  0
  -22.3490  -14.5530   20.6715 O   0  0  0  0  0  0
  -24.6312  -31.8551   23.1977 C   0  0  0  0  0  0
  -25.9136  -32.4752   23.8324 C   0  0  1  0  0  0
  -27.2296  -27.2836   20.1171 C   0  0  0  0  0  0
  -25.5956  -33.8552   24.2267 N   0  0  0  0  0  0
  -23.4284  -30.4777   21.5404 C   0  0  2  0  0  0
  -24.8737  -28.9178   20.1164 C   0  0  0  0  0  0
  -22.7499  -29.4623   22.4917 C   0  0  0  0  0  0
  -18.0289  -28.1382   22.8473 C   0  0  0  0  0  0
  -24.1487  -36.7260   23.2645 C   0  0  0  0  0  0
  -25.9706  -30.7736   21.3742 C   0  0  0  0  0  0
  -26.0458  -29.3965   20.7170 C   0  0  0  0  0  0
  -27.2290  -28.5935   20.7027 C   0  0  0  0  0  0
  -26.0375  -26.8649   19.4921 C   0  0  0  0  0  0
  -24.8722  -27.6572   19.4960 C   0  0  0  0  0  0
  -23.6459  -29.8058   20.1592 C   0  0  0  0  0  0
  -25.4113  -36.3066   24.0340 C   0  0  1  0  0  0
  -20.5887  -28.3710   23.1256 C   0  0  2  0  0  0
  -20.6779  -26.9429   22.5397 C   0  0  0  0  0  0
  -19.5760  -26.6376   21.5201 C   0  0  0  0  0  0
  -18.1944  -26.7920   22.1613 C   0  0  0  0  0  0
  -19.1538  -28.8858   23.2857 C   0  0  0  0  0  0
  -18.9463  -30.1458   23.8883 C   0  0  0  0  0  0
  -17.6465  -30.6584   24.0560 C   0  0  0  0  0  0
  -25.9059  -34.9448   23.5100 C   0  0  0  0  0  0
  -16.5354  -29.9082   23.6327 C   0  0  0  0  0  0
  -16.7278  -28.6494   23.0354 C   0  0  0  0  0  0
  -26.4506  -31.6571   25.0710 C   0  0  0  0  0  0
  -25.3744  -31.3707   26.1439 C   0  0  0  0  0  0
  -27.0359  -30.2996   24.6197 C   0  0  0  0  0  0
  -27.6060  -32.4314   25.7480 C   0  0  0  0  0  0
  -27.5574  -37.1790   24.8474 C   0  0  0  0  0  0
  -21.4210  -29.3063   22.3647 N   0  0  0  0  0  0
  -26.4286  -37.3768   23.9436 N   0  0  0  0  0  0
  -24.6954  -31.0549   22.0930 N   0  0  0  0  0  0
  -23.4197  -28.8169   23.3028 O   0  0  0  0  0  0
  -28.3341  -26.4086   20.1046 O   0  0  0  0  0  0
  -26.5610  -34.8929   22.4666 O   0  0  0  0  0  0
  -23.5471  -32.1351   23.7299 O   0  0  0  0  0  0
  -29.6332  -17.1234   22.3940 C   0  0  0  0  0  0
  -29.2662  -18.2684   23.1250 C   0  0  0  0  0  0
  -29.7266  -17.1530   20.9950 C   0  0  0  0  0  0
  -29.2376  -19.6940   21.0813 C   0  0  0  0  0  0
  -29.5387  -18.4536   20.3559 C   0  0  0  0  0  0
  -29.0353  -19.5206   22.4935 C   0  0  0  0  0  0
  -29.0636  -18.1092   24.6251 C   0  0  0  0  0  0
  -30.3480  -22.6804   21.7360 C   0  0  0  0  0  0
  -28.4059  -18.5068   18.3151 C   0  0  0  0  0  0
  -28.7768  -23.6778   19.9996 C   0  0  0  0  0  0
  -28.1627  -25.0274   20.6605 C   0  0  0  0  0  0
  -29.0427  -22.3966   20.9679 C   0  0  1  0  0  0
  -29.7593  -15.8343   20.3252 N   0  0  0  0  0  0
  -29.1136  -20.9869   20.3897 N   0  0  0  0  0  0
  -29.6545  -18.5111   18.9899 O   0  0  0  0  0  0
  -28.4309  -20.7764   23.5271 Cl  0  0  0  0  0  0
  -31.4752  -12.5904   19.1516 H   0  0  0  0  0  0
  -30.3922  -11.4674   19.9304 H   0  0  0  0  0  0
  -29.7792  -11.7302   17.5019 H   0  0  0  0  0  0
  -29.6297  -13.4553   17.7093 H   0  0  0  0  0  0
  -27.8841  -11.2780   18.8987 H   0  0  0  0  0  0
  -27.3660  -12.5225   17.7941 H   0  0  0  0  0  0
  -27.6268  -14.2432   19.4701 H   0  0  0  0  0  0
  -28.7263  -12.1473   21.4095 H   0  0  0  0  0  0
  -28.4359  -13.8304   21.7842 H   0  0  0  0  0  0
  -25.2687   -9.5680   22.4754 H   0  0  0  0  0  0
  -23.9961   -7.4614   22.7459 H   0  0  0  0  0  0
  -21.0782   -8.8686   19.8943 H   0  0  0  0  0  0
  -22.3579  -10.9622   19.6144 H   0  0  0  0  0  0
  -21.2022   -7.6136   23.9709 H   0  0  0  0  0  0
  -21.1488   -6.0510   25.9078 H   0  0  0  0  0  0
  -22.0611   -2.7589   23.2816 H   0  0  0  0  0  0
  -22.4001  -11.9899   22.4863 H   0  0  0  0  0  0
  -21.1040  -13.1289   22.2626 H   0  0  0  0  0  0
  -24.6476  -15.8426   20.5095 H   0  0  0  0  0  0
  -26.2546  -15.6311   20.0525 H   0  0  0  0  0  0
  -26.7213  -32.5409   23.1071 H   0  0  0  0  0  0
  -25.0196  -33.9687   25.0479 H   0  0  0  0  0  0
  -22.7253  -31.2994   21.3907 H   0  0  0  0  0  0
  -23.3762  -35.9579   23.3301 H   0  0  0  0  0  0
  -24.3578  -36.8871   22.2055 H   0  0  0  0  0  0
  -23.7210  -37.6457   23.6655 H   0  0  0  0  0  0
  -26.1153  -31.5360   20.6080 H   0  0  0  0  0  0
  -26.8454  -30.8161   22.0116 H   0  0  0  0  0  0
  -28.1313  -28.9619   21.1693 H   0  0  0  0  0  0
  -26.0048  -25.9040   18.9977 H   0  0  0  0  0  0
  -23.9753  -27.2821   19.0222 H   0  0  0  0  0  0
  -23.7800  -30.5776   19.4002 H   0  0  0  0  0  0
  -22.7627  -29.2421   19.8512 H   0  0  0  0  0  0
  -25.1294  -36.1909   25.0826 H   0  0  0  0  0  0
  -20.9983  -28.3287   24.1378 H   0  0  0  0  0  0
  -20.5660  -26.2343   23.3615 H   0  0  0  0  0  0
  -21.6662  -26.7448   22.1218 H   0  0  0  0  0  0
  -19.6944  -25.6281   21.1258 H   0  0  0  0  0  0
  -19.6693  -27.3159   20.6711 H   0  0  0  0  0  0
  -17.4218  -26.6654   21.4011 H   0  0  0  0  0  0
  -18.0353  -26.0052   22.8999 H   0  0  0  0  0  0
  -19.7948  -30.7266   24.2252 H   0  0  0  0  0  0
  -17.5030  -31.6271   24.5161 H   0  0  0  0  0  0
  -15.5360  -30.2989   23.7663 H   0  0  0  0  0  0
  -15.8675  -28.0815   22.7086 H   0  0  0  0  0  0
  -24.5961  -30.6994   25.7789 H   0  0  0  0  0  0
  -24.8881  -32.2854   26.4838 H   0  0  0  0  0  0
  -25.8084  -30.8934   27.0234 H   0  0  0  0  0  0
  -26.2941  -29.6724   24.1234 H   0  0  0  0  0  0
  -27.4056  -29.7278   25.4719 H   0  0  0  0  0  0
  -27.8817  -30.4268   23.9436 H   0  0  0  0  0  0
  -27.2679  -33.3645   26.2006 H   0  0  0  0  0  0
  -28.3892  -32.6810   25.0307 H   0  0  0  0  0  0
  -28.0706  -31.8464   26.5429 H   0  0  0  0  0  0
  -28.2603  -38.0076   24.7539 H   0  0  0  0  0  0
  -28.1053  -36.2616   24.6279 H   0  0  0  0  0  0
  -27.2308  -37.1421   25.8879 H   0  0  0  0  0  0
  -20.9403  -29.8782   21.6841 H   0  0  0  0  0  0
  -26.0156  -38.2855   24.1403 H   0  0  0  0  0  0
  -29.7519  -16.1861   22.9179 H   0  0  0  0  0  0
  -29.2970  -17.0975   24.9599 H   0  0  0  0  0  0
  -28.0258  -18.3082   24.8954 H   0  0  0  0  0  0
  -29.7072  -18.7935   25.1778 H   0  0  0  0  0  0
  -30.2613  -23.5650   22.3687 H   0  0  0  0  0  0
  -31.1742  -22.8473   21.0462 H   0  0  0  0  0  0
  -30.6499  -21.8577   22.3813 H   0  0  0  0  0  0
  -28.5687  -18.6796   17.2511 H   0  0  0  0  0  0
  -27.7351  -19.2874   18.6779 H   0  0  0  0  0  0
  -27.9102  -17.5411   18.4291 H   0  0  0  0  0  0
  -29.7164  -23.9433   19.5110 H   0  0  0  0  0  0
  -28.1221  -23.3821   19.1804 H   0  0  0  0  0  0
  -28.5805  -25.1023   21.6622 H   0  0  0  0  0  0
  -27.1034  -24.8389   20.8307 H   0  0  0  0  0  0
  -28.2011  -22.4134   21.6582 H   0  0  0  0  0  0
  -28.8567  -15.5580   19.9732 H   0  0  0  0  0  0
  -29.2489  -20.9391   19.3839 H   0  0  0  0  0  0
  1 25  1  0  0  0
  1 30  2  0  0  0
  1 83  1  0  0  0
  2  3  1  0  0  0
  2 25  1  0  0  0
  2 87  1  0  0  0
  2 88  1  0  0  0
  3  4  1  0  0  0
  3 89  1  0  0  0
  3 90  1  0  0  0
  4  5  1  0  0  0
  4 91  1  0  0  0
  4 92  1  0  0  0
  5  6  1  0  0  0
  5 26  1  0  0  0
  5 93  1  0  0  0
  6 25  1  0  0  0
  6 94  1  0  0  0
  6 95  1  0  0  0
  7  8  2  0  0  0
  7 26  1  0  0  0
  7 29  1  0  0  0
  8  9  1  0  0  0
  8 22  1  0  0  0
  9 10  1  0  0  0
  9 27  2  0  0  0
 10 11  2  0  0  0
 10 15  1  0  0  0
 11 12  1  0  0  0
 11 96  1  0  0  0
 12 13  2  0  0  0
 12 97  1  0  0  0
 13 14  1  0  0  0
 13 31  1  0  0  0
 14 15  2  0  0  0
 14 98  1  0  0  0
 15 99  1  0  0  0
 16 17  2  0  0  0
 16 21  1  0  0  0
 16 31  1  0  0  0
 17 18  1  0  0  0
 17100  1  0  0  0
 18 19  2  0  0  0
 18101  1  0  0  0
 19 20  1  0  0  0
 19 24  1  0  0  0
 20 21  2  0  0  0
 20102  1  0  0  0
 21 23  1  0  0  0
 22 28  1  0  0  0
 22 32  2  0  0  0
 26 27  1  0  0  0
 28103  1  0  0  0
 28104  1  0  0  0
 29105  1  0  0  0
 29106  1  0  0  0
 33 34  1  0  0  0
 33 66  1  0  0  0
 33 70  2  0  0  0
 34 36  1  0  0  0
 34 59  1  0  0  0
 34107  1  0  0  0
 35 44  2  0  0  0
 35 45  1  0  0  0
 35 68  1  0  0  0
 36 56  1  0  0  0
 36108  1  0  0  0
 37 39  1  0  0  0
 37 47  1  0  0  0
 37 66  1  0  0  0
 37109  1  0  0  0
 38 43  2  0  0  0
 38 46  1  0  0  0
 38 47  1  0  0  0
 39 64  1  0  0  0
 39 67  2  0  0  0
 40 52  1  0  0  0
 40 53  2  0  0  0
 40 58  1  0  0  0
 41110  1  0  0  0
 41111  1  0  0  0
 41112  1  0  0  0
 41 48  1  0  0  0
 42 43  1  0  0  0
 42 66  1  0  0  0
 42113  1  0  0  0
 42114  1  0  0  0
 43 44  1  0  0  0
 44115  1  0  0  0
 45 46  2  0  0  0
 45116  1  0  0  0
 46117  1  0  0  0
 47118  1  0  0  0
 47119  1  0  0  0
 48 56  1  0  0  0
 48 65  1  0  0  0
 48120  1  0  0  0
 49 50  1  0  0  0
 49 53  1  0  0  0
 49 64  1  0  0  0
 49121  1  0  0  0
 50 51  1  0  0  0
 50122  1  0  0  0
 50123  1  0  0  0
 51 52  1  0  0  0
 51124  1  0  0  0
 51125  1  0  0  0
 52126  1  0  0  0
 52127  1  0  0  0
 53 54  1  0  0  0
 54 55  2  0  0  0
 54128  1  0  0  0
 55 57  1  0  0  0
 55129  1  0  0  0
 56 69  2  0  0  0
 57 58  2  0  0  0
 57130  1  0  0  0
 58131  1  0  0  0
 59 60  1  0  0  0
 59 61  1  0  0  0
 59 62  1  0  0  0
 60132  1  0  0  0
 60133  1  0  0  0
 60134  1  0  0  0
 61135  1  0  0  0
 61136  1  0  0  0
 61137  1  0  0  0
 62138  1  0  0  0
 62139  1  0  0  0
 62140  1  0  0  0
 63 65  1  0  0  0
 63141  1  0  0  0
 63142  1  0  0  0
 63143  1  0  0  0
 64144  1  0  0  0
 65145  1  0  0  0
 68 81  1  0  0  0
 71 72  2  0  0  0
 71 73  1  0  0  0
 71146  1  0  0  0
 72 76  1  0  0  0
 72 77  1  0  0  0
 73 75  2  0  0  0
 73 83  1  0  0  0
 74 75  1  0  0  0
 74 76  2  0  0  0
 74 84  1  0  0  0
 75 85  1  0  0  0
 76 86  1  0  0  0
 77147  1  0  0  0
 77148  1  0  0  0
 77149  1  0  0  0
 78150  1  0  0  0
 78151  1  0  0  0
 78152  1  0  0  0
 78 82  1  0  0  0
 79 85  1  0  0  0
 79153  1  0  0  0
 79154  1  0  0  0
 79155  1  0  0  0
 80 81  1  0  0  0
 80 82  1  0  0  0
 80156  1  0  0  0
 80157  1  0  0  0
 81158  1  0  0  0
 81159  1  0  0  0
 82 84  1  0  0  0
 82160  1  0  0  0
 83161  1  0  0  0
 84162  1  0  0  0
M  ISO  4   1 100  68 101  81 101  83 100
M  END
> <chiral flag>
0

> <version>
0

> <s_m_source_file>
/data/baiqing/PycharmProjects/Reinvent-master-3.2/result/LINK_invent/BTK/process_docking_weight1_custom_sum_contain_oxygen_bond_distance_aromatic_linkinvent_7_9_3/rearranged_h_0013.sdf

> <i_m_source_file_index>
44

> <r_mmod_Potential_Energy-OPLS-2005>
298.277618408203

> <r_mmod_Stretch_Energy-OPLS-2005>
127.664726257324

> <r_mmod_Bend_Energy-OPLS-2005>
185.700256347656

> <r_mmod_Torsional_Energy-OPLS-2005>
310.918243408203

> <r_mmod_Improper_Torsional_Energy-OPLS-2005>
15.0760860443115

> <r_mmod_Van_der_Waal_Energy-OPLS-2005>
142.170532226562

> <r_mmod_Electrostatic_Energy-OPLS-2005>
-346.181396484375

> <r_mmod_Solvation_Energy-OPLS-2005>
-217.494659423828

> <b_mmod_Minimization_Converged-OPLS-2005>
0

> <r_mmod_RMS_Derivative-OPLS-2005>
3.37355947494507

$$$$
44
                    3D
 Structure written by MMmdl.
151159  0  0  1  0            999 V2000
  -30.6292  -14.7427   20.4537 C   0  0  0  0  0  0
  -30.4224  -12.4466   19.4787 C   0  0  0  0  0  0
  -29.5044  -12.5011   18.2384 C   0  0  0  0  0  0
  -28.0320  -12.3284   18.6539 C   0  0  0  0  0  0
  -27.6403  -13.2345   19.8518 C   0  0  2  0  0  0
  -28.6854  -13.1783   20.9886 C   0  0  0  0  0  0
  -25.2495  -13.8193   20.5699 C   0  0  0  0  0  0
  -24.1790  -13.0434   20.9200 C   0  0  0  0  0  0
  -24.6393  -11.6917   20.8754 C   0  0  0  0  0  0
  -23.9073  -10.4289   21.0415 C   0  0  0  0  0  0
  -24.3624   -9.4204   21.9192 C   0  0  0  0  0  0
  -23.6297   -8.2238   22.0760 C   0  0  0  0  0  0
  -22.4277   -8.0279   21.3549 C   0  0  0  0  0  0
  -21.9915   -9.0253   20.4650 C   0  0  0  0  0  0
  -22.7248  -10.2131   20.3061 C   0  0  0  0  0  0
  -21.6853   -6.0734   22.5279 C   0  0  0  0  0  0
  -21.4013   -6.5641   23.8212 C   0  0  0  0  0  0
  -21.3657   -5.6796   24.9178 C   0  0  0  0  0  0
  -21.6043   -4.3058   24.7230 C   0  0  0  0  0  0
  -21.8817   -3.8148   23.4354 C   0  0  0  0  0  0
  -21.9192   -4.6961   22.3408 C   0  0  0  0  0  0
  -22.7811  -13.5217   21.1856 C   0  0  0  0  0  0
  -22.1661   -4.2146   21.0984 F   0  0  0  0  0  0
  -21.5628   -3.4543   25.7745 F   0  0  0  0  0  0
  -29.9877  -13.5222   20.4041 N   0  0  0  0  0  0
  -26.2932  -12.9416   20.3307 N   0  0  0  0  0  0
  -25.9330  -11.6557   20.5781 N   0  0  0  0  0  0
  -22.0465  -12.8203   22.0417 N   0  0  0  0  0  0
  -25.4145  -15.1914   20.4123 N   0  0  0  0  0  0
  -31.8051  -14.7926   20.0912 O   0  0  0  0  0  0
  -21.6641   -6.8878   21.4243 O   0  0  0  0  0  0
  -22.3488  -14.5520   20.6706 O   0  0  0  0  0  0
  -24.6321  -31.8523   23.1942 C   0  0  0  0  0  0
  -25.9149  -32.4730   23.8296 C   0  0  1  0  0  0
  -27.2206  -27.2463   20.1247 C   0  0  0  0  0  0
  -25.5935  -33.8533   24.2216 N   0  0  0  0  0  0
  -23.4287  -30.4738   21.5378 C   0  0  2  0  0  0
  -24.8744  -28.9142   20.1066 C   0  0  0  0  0  0
  -22.7510  -29.4587   22.4898 C   0  0  0  0  0  0
  -18.0295  -28.1396   22.8471 C   0  0  0  0  0  0
  -24.1491  -36.7273   23.2637 C   0  0  0  0  0  0
  -25.9755  -30.7579   21.3774 C   0  0  0  0  0  0
  -26.0440  -29.3800   20.7175 C   0  0  0  0  0  0
  -27.2153  -28.5568   20.7171 C   0  0  0  0  0  0
  -26.0220  -26.8413   19.4975 C   0  0  0  0  0  0
  -24.8684  -27.6530   19.4885 C   0  0  0  0  0  0
  -23.6461  -29.8036   20.1544 C   0  0  0  0  0  0
  -25.4116  -36.3048   24.0321 C   0  0  1  0  0  0
  -20.5897  -28.3697   23.1267 C   0  0  2  0  0  0
  -20.6779  -26.9412   22.5403 C   0  0  0  0  0  0
  -19.5756  -26.6384   21.5205 C   0  0  0  0  0  0
  -18.1936  -26.7937   22.1616 C   0  0  0  0  0  0
  -19.1548  -28.8866   23.2858 C   0  0  0  0  0  0
  -18.9475  -30.1470   23.8874 C   0  0  0  0  0  0
  -17.6469  -30.6589   24.0560 C   0  0  0  0  0  0
  -25.9068  -34.9424   23.5073 C   0  0  0  0  0  0
  -16.5360  -29.9083   23.6343 C   0  0  0  0  0  0
  -16.7280  -28.6509   23.0341 C   0  0  0  0  0  0
  -26.4498  -31.6588   25.0721 C   0  0  0  0  0  0
  -25.3703  -31.3756   26.1434 C   0  0  0  0  0  0
  -27.0352  -30.2999   24.6248 C   0  0  0  0  0  0
  -27.6044  -32.4348   25.7494 C   0  0  0  0  0  0
  -27.5584  -37.1772   24.8451 C   0  0  0  0  0  0
  -21.4215  -29.3036   22.3656 N   0  0  0  0  0  0
  -26.4274  -37.3763   23.9427 N   0  0  0  0  0  0
  -24.6978  -31.0478   22.0917 N   0  0  0  0  0  0
  -23.4214  -28.8137   23.3004 O   0  0  0  0  0  0
  -28.3343  -26.3781   20.2171 O   0  0  0  0  0  0
  -26.5645  -34.8911   22.4648 O   0  0  0  0  0  0
  -23.5477  -32.1353   23.7235 O   0  0  0  0  0  0
  -30.8641  -20.1878   20.5543 C   0  0  0  0  0  0
  -31.8528  -19.1992   20.7171 C   0  0  0  0  0  0
  -29.5051  -19.8395   20.4673 C   0  0  0  0  0  0
  -30.2086  -17.3540   20.6404 C   0  0  0  0  0  0
  -31.5424  -17.8249   20.7932 C   0  0  0  0  0  0
  -29.2013  -18.4052   20.5005 C   0  0  0  0  0  0
  -28.2744  -23.6801   20.4185 C   0  0  0  0  0  0
  -28.4355  -21.0281   20.4217 C   0  0  0  0  0  0
  -28.4427  -25.0272   19.5536 C   0  0  0  0  0  0
  -29.8771  -15.8912   20.6909 N   0  0  0  0  0  0
  -28.7787  -22.4591   19.9794 N   0  0  0  0  0  0
  -27.6309  -23.7382   21.4682 O   0  0  0  0  0  0
  -32.5663  -16.9875   21.0728 F   0  0  0  0  0  0
  -27.5499  -17.9102   20.3861 Cl  0  0  0  0  0  0
  -31.4663  -12.5459   19.1761 H   0  0  0  0  0  0
  -30.3501  -11.4736   19.9673 H   0  0  0  0  0  0
  -29.7838  -11.7241   17.5254 H   0  0  0  0  0  0
  -29.6325  -13.4531   17.7217 H   0  0  0  0  0  0
  -27.8895  -11.2809   18.9223 H   0  0  0  0  0  0
  -27.3721  -12.5152   17.8059 H   0  0  0  0  0  0
  -27.6314  -14.2535   19.4656 H   0  0  0  0  0  0
  -28.7180  -12.1842   21.4373 H   0  0  0  0  0  0
  -28.4218  -13.8678   21.7923 H   0  0  0  0  0  0
  -25.2771   -9.5676   22.4768 H   0  0  0  0  0  0
  -24.0003   -7.4631   22.7480 H   0  0  0  0  0  0
  -21.0847   -8.8778   19.8958 H   0  0  0  0  0  0
  -22.3713  -10.9672   19.6168 H   0  0  0  0  0  0
  -21.2003   -7.6149   23.9716 H   0  0  0  0  0  0
  -21.1479   -6.0528   25.9080 H   0  0  0  0  0  0
  -22.0597   -2.7608   23.2858 H   0  0  0  0  0  0
  -22.4094  -11.9863   22.4790 H   0  0  0  0  0  0
  -21.1088  -13.1227   22.2644 H   0  0  0  0  0  0
  -24.6454  -15.8401   20.5353 H   0  0  0  0  0  0
  -26.2647  -15.6487   20.1089 H   0  0  0  0  0  0
  -26.7215  -32.5359   23.1030 H   0  0  0  0  0  0
  -25.0063  -33.9658   25.0348 H   0  0  0  0  0  0
  -22.7259  -31.2961   21.3892 H   0  0  0  0  0  0
  -23.3763  -35.9590   23.3257 H   0  0  0  0  0  0
  -24.3592  -36.8944   22.2060 H   0  0  0  0  0  0
  -23.7225  -37.6451   23.6698 H   0  0  0  0  0  0
  -26.1232  -31.5181   20.6092 H   0  0  0  0  0  0
  -26.8507  -30.8011   22.0145 H   0  0  0  0  0  0
  -28.1095  -28.9064   21.2126 H   0  0  0  0  0  0
  -25.9339  -25.8658   19.0447 H   0  0  0  0  0  0
  -23.9675  -27.2848   19.0168 H   0  0  0  0  0  0
  -23.7700  -30.5778   19.3966 H   0  0  0  0  0  0
  -22.7645  -29.2366   19.8491 H   0  0  0  0  0  0
  -25.1288  -36.1869   25.0806 H   0  0  0  0  0  0
  -20.9981  -28.3263   24.1390 H   0  0  0  0  0  0
  -20.5688  -26.2290   23.3597 H   0  0  0  0  0  0
  -21.6643  -26.7432   22.1187 H   0  0  0  0  0  0
  -19.6913  -25.6293   21.1238 H   0  0  0  0  0  0
  -19.6707  -27.3191   20.6734 H   0  0  0  0  0  0
  -17.4202  -26.6682   21.4022 H   0  0  0  0  0  0
  -18.0339  -26.0083   22.9020 H   0  0  0  0  0  0
  -19.7948  -30.7299   24.2222 H   0  0  0  0  0  0
  -17.5021  -31.6269   24.5165 H   0  0  0  0  0  0
  -15.5359  -30.2970   23.7700 H   0  0  0  0  0  0
  -15.8676  -28.0835   22.7050 H   0  0  0  0  0  0
  -24.5863  -30.7132   25.7745 H   0  0  0  0  0  0
  -24.8919  -32.2937   26.4858 H   0  0  0  0  0  0
  -25.7997  -30.8914   27.0214 H   0  0  0  0  0  0
  -26.2947  -29.6746   24.1249 H   0  0  0  0  0  0
  -27.3987  -29.7274   25.4792 H   0  0  0  0  0  0
  -27.8843  -30.4265   23.9526 H   0  0  0  0  0  0
  -27.2641  -33.3649   26.2061 H   0  0  0  0  0  0
  -28.3856  -32.6919   25.0327 H   0  0  0  0  0  0
  -28.0718  -31.8493   26.5423 H   0  0  0  0  0  0
  -28.2534  -38.0133   24.7577 H   0  0  0  0  0  0
  -28.1147  -36.2668   24.6165 H   0  0  0  0  0  0
  -27.2326  -37.1276   25.8856 H   0  0  0  0  0  0
  -20.9413  -29.8750   21.6846 H   0  0  0  0  0  0
  -26.0141  -38.2820   24.1483 H   0  0  0  0  0  0
  -31.1580  -21.2281   20.5423 H   0  0  0  0  0  0
  -32.8836  -19.5044   20.8204 H   0  0  0  0  0  0
  -27.9989  -21.0825   21.4198 H   0  0  0  0  0  0
  -27.6223  -20.6975   19.7747 H   0  0  0  0  0  0
  -27.8053  -24.9603   18.6743 H   0  0  0  0  0  0
  -29.4551  -24.9906   19.1505 H   0  0  0  0  0  0
  -28.9007  -15.7022   20.8525 H   0  0  0  0  0  0
  -29.3124  -22.5119   19.1219 H   0  0  0  0  0  0
  1 25  1  0  0  0
  1 30  2  0  0  0
  1 80  1  0  0  0
  2  3  1  0  0  0
  2 25  1  0  0  0
  2 85  1  0  0  0
  2 86  1  0  0  0
  3  4  1  0  0  0
  3 87  1  0  0  0
  3 88  1  0  0  0
  4  5  1  0  0  0
  4 89  1  0  0  0
  4 90  1  0  0  0
  5  6  1  0  0  0
  5 26  1  0  0  0
  5 91  1  0  0  0
  6 25  1  0  0  0
  6 92  1  0  0  0
  6 93  1  0  0  0
  7  8  2  0  0  0
  7 26  1  0  0  0
  7 29  1  0  0  0
  8  9  1  0  0  0
  8 22  1  0  0  0
  9 10  1  0  0  0
  9 27  2  0  0  0
 10 11  2  0  0  0
 10 15  1  0  0  0
 11 12  1  0  0  0
 11 94  1  0  0  0
 12 13  2  0  0  0
 12 95  1  0  0  0
 13 14  1  0  0  0
 13 31  1  0  0  0
 14 15  2  0  0  0
 14 96  1  0  0  0
 15 97  1  0  0  0
 16 17  2  0  0  0
 16 21  1  0  0  0
 16 31  1  0  0  0
 17 18  1  0  0  0
 17 98  1  0  0  0
 18 19  2  0  0  0
 18 99  1  0  0  0
 19 20  1  0  0  0
 19 24  1  0  0  0
 20 21  2  0  0  0
 20100  1  0  0  0
 21 23  1  0  0  0
 22 28  1  0  0  0
 22 32  2  0  0  0
 26 27  1  0  0  0
 28101  1  0  0  0
 28102  1  0  0  0
 29103  1  0  0  0
 29104  1  0  0  0
 33 34  1  0  0  0
 33 66  1  0  0  0
 33 70  2  0  0  0
 34 36  1  0  0  0
 34 59  1  0  0  0
 34105  1  0  0  0
 35 44  2  0  0  0
 35 45  1  0  0  0
 35 68  1  0  0  0
 36 56  1  0  0  0
 36106  1  0  0  0
 37 39  1  0  0  0
 37 47  1  0  0  0
 37 66  1  0  0  0
 37107  1  0  0  0
 38 43  2  0  0  0
 38 46  1  0  0  0
 38 47  1  0  0  0
 39 64  1  0  0  0
 39 67  2  0  0  0
 40 52  1  0  0  0
 40 53  2  0  0  0
 40 58  1  0  0  0
 41108  1  0  0  0
 41109  1  0  0  0
 41110  1  0  0  0
 41 48  1  0  0  0
 42 43  1  0  0  0
 42 66  1  0  0  0
 42111  1  0  0  0
 42112  1  0  0  0
 43 44  1  0  0  0
 44113  1  0  0  0
 45 46  2  0  0  0
 45114  1  0  0  0
 46115  1  0  0  0
 47116  1  0  0  0
 47117  1  0  0  0
 48 56  1  0  0  0
 48 65  1  0  0  0
 48118  1  0  0  0
 49 50  1  0  0  0
 49 53  1  0  0  0
 49 64  1  0  0  0
 49119  1  0  0  0
 50 51  1  0  0  0
 50120  1  0  0  0
 50121  1  0  0  0
 51 52  1  0  0  0
 51122  1  0  0  0
 51123  1  0  0  0
 52124  1  0  0  0
 52125  1  0  0  0
 53 54  1  0  0  0
 54 55  2  0  0  0
 54126  1  0  0  0
 55 57  1  0  0  0
 55127  1  0  0  0
 56 69  2  0  0  0
 57 58  2  0  0  0
 57128  1  0  0  0
 58129  1  0  0  0
 59 60  1  0  0  0
 59 61  1  0  0  0
 59 62  1  0  0  0
 60130  1  0  0  0
 60131  1  0  0  0
 60132  1  0  0  0
 61133  1  0  0  0
 61134  1  0  0  0
 61135  1  0  0  0
 62136  1  0  0  0
 62137  1  0  0  0
 62138  1  0  0  0
 63 65  1  0  0  0
 63139  1  0  0  0
 63140  1  0  0  0
 63141  1  0  0  0
 64142  1  0  0  0
 65143  1  0  0  0
 68 79  1  0  0  0
 71 72  2  0  0  0
 71 73  1  0  0  0
 71144  1  0  0  0
 72 75  1  0  0  0
 72145  1  0  0  0
 73 76  2  0  0  0
 73 78  1  0  0  0
 74 75  2  0  0  0
 74 76  1  0  0  0
 74 80  1  0  0  0
 75 83  1  0  0  0
 76 84  1  0  0  0
 77 79  1  0  0  0
 77 81  1  0  0  0
 77 82  2  0  0  0
 78 81  1  0  0  0
 78146  1  0  0  0
 78147  1  0  0  0
 79148  1  0  0  0
 79149  1  0  0  0
 80150  1  0  0  0
 81151  1  0  0  0
M  ISO  4   1 100  68 101  79 101  80 100
M  END
> <chiral flag>
0

> <version>
0

> <s_m_source_file>
/data/baiqing/PycharmProjects/Reinvent-master-3.2/result/LINK_invent/BTK/process_docking_weight1_custom_sum_contain_oxygen_bond_distance_aromatic_linkinvent_7_9_3/rearranged_h_0013.sdf

> <i_m_source_file_index>
45

> <r_mmod_Potential_Energy-OPLS-2005>
52.3277931213379

> <r_mmod_Stretch_Energy-OPLS-2005>
134.354583740234

> <r_mmod_Bend_Energy-OPLS-2005>
178.123260498047

> <r_mmod_Torsional_Energy-OPLS-2005>
206.126647949219

> <r_mmod_Improper_Torsional_Energy-OPLS-2005>
6.11238765716553

> <r_mmod_Van_der_Waal_Energy-OPLS-2005>
138.984390258789

> <r_mmod_Electrostatic_Energy-OPLS-2005>
-447.700897216797

> <r_mmod_Solvation_Energy-OPLS-2005>
-250.309997558594

> <b_mmod_Minimization_Converged-OPLS-2005>
0

> <r_mmod_RMS_Derivative-OPLS-2005>
1.19467878341675

$$$$
45
                    3D
 Structure written by MMmdl.
157165  0  0  1  0            999 V2000
  -30.6886  -14.4740   20.5475 C   0  0  0  0  0  0
  -30.4229  -12.2998   19.4272 C   0  0  0  0  0  0
  -29.4948  -12.5049   18.2114 C   0  0  0  0  0  0
  -28.0155  -12.3702   18.6212 C   0  0  0  0  0  0
  -27.6625  -13.2073   19.8794 C   0  0  2  0  0  0
  -28.7038  -12.9845   21.0001 C   0  0  0  0  0  0
  -25.2590  -13.8170   20.5706 C   0  0  0  0  0  0
  -24.1836  -13.0439   20.9184 C   0  0  0  0  0  0
  -24.6392  -11.6906   20.8743 C   0  0  0  0  0  0
  -23.9061  -10.4290   21.0415 C   0  0  0  0  0  0
  -24.3617   -9.4201   21.9188 C   0  0  0  0  0  0
  -23.6292   -8.2237   22.0758 C   0  0  0  0  0  0
  -22.4271   -8.0282   21.3548 C   0  0  0  0  0  0
  -21.9910   -9.0256   20.4648 C   0  0  0  0  0  0
  -22.7240  -10.2134   20.3058 C   0  0  0  0  0  0
  -21.6847   -6.0738   22.5285 C   0  0  0  0  0  0
  -21.4008   -6.5643   23.8217 C   0  0  0  0  0  0
  -21.3658   -5.6796   24.9179 C   0  0  0  0  0  0
  -21.6043   -4.3060   24.7229 C   0  0  0  0  0  0
  -21.8816   -3.8151   23.4350 C   0  0  0  0  0  0
  -21.9188   -4.6965   22.3404 C   0  0  0  0  0  0
  -22.7858  -13.5231   21.1846 C   0  0  0  0  0  0
  -22.1659   -4.2152   21.0981 F   0  0  0  0  0  0
  -21.5630   -3.4543   25.7742 F   0  0  0  0  0  0
  -30.0366  -13.2843   20.4496 N   0  0  0  0  0  0
  -26.3027  -12.9339   20.3394 N   0  0  0  0  0  0
  -25.9321  -11.6495   20.5779 N   0  0  0  0  0  0
  -22.0495  -12.8222   22.0402 N   0  0  0  0  0  0
  -25.4320  -15.1891   20.4139 N   0  0  0  0  0  0
  -31.8301  -14.6418   20.1084 O   0  0  0  0  0  0
  -21.6633   -6.8882   21.4246 O   0  0  0  0  0  0
  -22.3539  -14.5539   20.6703 O   0  0  0  0  0  0
  -24.6134  -31.8684   23.2102 C   0  0  0  0  0  0
  -25.9030  -32.4824   23.8400 C   0  0  1  0  0  0
  -27.2350  -27.4426   20.1034 C   0  0  0  0  0  0
  -25.5889  -33.8623   24.2332 N   0  0  0  0  0  0
  -23.4023  -30.4906   21.5493 C   0  0  2  0  0  0
  -24.8513  -28.9548   20.1160 C   0  0  0  0  0  0
  -22.7408  -29.4661   22.4987 C   0  0  0  0  0  0
  -18.0274  -28.1381   22.8492 C   0  0  0  0  0  0
  -24.1486  -36.7318   23.2639 C   0  0  0  0  0  0
  -25.9291  -30.8361   21.3630 C   0  0  0  0  0  0
  -26.0088  -29.4693   20.7153 C   0  0  0  0  0  0
  -27.2058  -28.7187   20.7094 C   0  0  0  0  0  0
  -26.0679  -26.9395   19.4961 C   0  0  0  0  0  0
  -24.8748  -27.6882   19.5042 C   0  0  0  0  0  0
  -23.6116  -29.8200   20.1646 C   0  0  0  0  0  0
  -25.4106  -36.3115   24.0339 C   0  0  1  0  0  0
  -20.5863  -28.3669   23.1319 C   0  0  2  0  0  0
  -20.6766  -26.9406   22.5419 C   0  0  0  0  0  0
  -19.5745  -26.6389   21.5215 C   0  0  0  0  0  0
  -18.1923  -26.7928   22.1624 C   0  0  0  0  0  0
  -19.1522  -28.8841   23.2904 C   0  0  0  0  0  0
  -18.9450  -30.1447   23.8915 C   0  0  0  0  0  0
  -17.6453  -30.6585   24.0569 C   0  0  0  0  0  0
  -25.9030  -34.9478   23.5133 C   0  0  0  0  0  0
  -16.5345  -29.9090   23.6324 C   0  0  0  0  0  0
  -16.7264  -28.6508   23.0343 C   0  0  0  0  0  0
  -26.4466  -31.6599   25.0721 C   0  0  0  0  0  0
  -25.3741  -31.3695   26.1475 C   0  0  0  0  0  0
  -27.0296  -30.3044   24.6084 C   0  0  0  0  0  0
  -27.6043  -32.4318   25.7480 C   0  0  0  0  0  0
  -27.5582  -37.1816   24.8466 C   0  0  0  0  0  0
  -21.4136  -29.3035   22.3725 N   0  0  0  0  0  0
  -26.4296  -37.3795   23.9406 N   0  0  0  0  0  0
  -24.6662  -31.0794   22.0996 N   0  0  0  0  0  0
  -23.4179  -28.8209   23.3034 O   0  0  0  0  0  0
  -28.3842  -26.6886   20.0888 O   0  0  0  0  0  0
  -26.5594  -34.8927   22.4696 O   0  0  0  0  0  0
  -23.5327  -32.1431   23.7500 O   0  0  0  0  0  0
  -29.3916  -19.2110   21.3314 C   0  0  0  0  0  0
  -30.8146  -17.4211   19.7036 C   0  0  0  0  0  0
  -29.3420  -17.8177   21.5965 C   0  0  0  0  0  0
  -30.1516  -19.7181   20.2522 C   0  0  0  0  0  0
  -30.0619  -16.9004   20.7853 C   0  0  0  0  0  0
  -30.8652  -18.8046   19.4476 C   0  0  0  0  0  0
  -29.2672  -23.4524   20.2566 C   0  0  0  0  0  0
  -28.5079  -17.3213   22.7659 C   0  0  0  0  0  0
  -30.2758  -21.2145   19.9345 C   0  0  0  0  0  0
  -28.1313  -24.3009   20.8563 C   0  0  0  0  0  0
  -28.5042  -25.7737   21.1896 C   0  0  0  0  0  0
  -29.9541  -15.4907   21.0469 N   0  0  0  0  0  0
  -29.2541  -22.1223   20.4736 N   0  0  0  0  0  0
  -30.1569  -23.9907   19.5939 O   0  0  0  0  0  0
  -31.6125  -19.2559   18.4112 F   0  0  0  0  0  0
  -31.4678  -12.3958   19.1261 H   0  0  0  0  0  0
  -30.3207  -11.2883   19.8228 H   0  0  0  0  0  0
  -29.7322  -11.7833   17.4288 H   0  0  0  0  0  0
  -29.6652  -13.4924   17.7790 H   0  0  0  0  0  0
  -27.8200  -11.3145   18.8121 H   0  0  0  0  0  0
  -27.3679  -12.6535   17.7907 H   0  0  0  0  0  0
  -27.7075  -14.2558   19.5841 H   0  0  0  0  0  0
  -28.6766  -11.9487   21.3414 H   0  0  0  0  0  0
  -28.4688  -13.5852   21.8799 H   0  0  0  0  0  0
  -25.2763   -9.5673   22.4761 H   0  0  0  0  0  0
  -23.9999   -7.4622   22.7476 H   0  0  0  0  0  0
  -21.0845   -8.8780   19.8946 H   0  0  0  0  0  0
  -22.3709  -10.9678   19.6168 H   0  0  0  0  0  0
  -21.1998   -7.6150   23.9722 H   0  0  0  0  0  0
  -21.1486   -6.0528   25.9083 H   0  0  0  0  0  0
  -22.0593   -2.7612   23.2854 H   0  0  0  0  0  0
  -22.4114  -11.9883   22.4781 H   0  0  0  0  0  0
  -21.1113  -13.1250   22.2609 H   0  0  0  0  0  0
  -24.6670  -15.8461   20.5233 H   0  0  0  0  0  0
  -26.2861  -15.6265   20.0923 H   0  0  0  0  0  0
  -26.7104  -32.5547   23.1172 H   0  0  0  0  0  0
  -25.0049  -33.9788   25.0484 H   0  0  0  0  0  0
  -22.6904  -31.3067   21.4087 H   0  0  0  0  0  0
  -23.3742  -35.9659   23.3316 H   0  0  0  0  0  0
  -24.3579  -36.8917   22.2051 H   0  0  0  0  0  0
  -23.7248  -37.6532   23.6642 H   0  0  0  0  0  0
  -26.0388  -31.6000   20.5920 H   0  0  0  0  0  0
  -26.8180  -30.8932   21.9797 H   0  0  0  0  0  0
  -28.1013  -29.1101   21.1717 H   0  0  0  0  0  0
  -26.0827  -25.9697   19.0197 H   0  0  0  0  0  0
  -23.9862  -27.2865   19.0368 H   0  0  0  0  0  0
  -23.7184  -30.5933   19.4029 H   0  0  0  0  0  0
  -22.7368  -29.2373   19.8704 H   0  0  0  0  0  0
  -25.1284  -36.1984   25.0833 H   0  0  0  0  0  0
  -20.9957  -28.3238   24.1439 H   0  0  0  0  0  0
  -20.5678  -26.2276   23.3605 H   0  0  0  0  0  0
  -21.6637  -26.7457   22.1209 H   0  0  0  0  0  0
  -19.6909  -25.6305   21.1233 H   0  0  0  0  0  0
  -19.6683  -27.3211   20.6753 H   0  0  0  0  0  0
  -17.4194  -26.6682   21.4021 H   0  0  0  0  0  0
  -18.0319  -26.0066   22.9016 H   0  0  0  0  0  0
  -19.7924  -30.7260   24.2290 H   0  0  0  0  0  0
  -17.5008  -31.6265   24.5173 H   0  0  0  0  0  0
  -15.5347  -30.3001   23.7636 H   0  0  0  0  0  0
  -15.8663  -28.0839   22.7041 H   0  0  0  0  0  0
  -24.5900  -30.7058   25.7812 H   0  0  0  0  0  0
  -24.8947  -32.2846   26.4961 H   0  0  0  0  0  0
  -25.8100  -30.8834   27.0212 H   0  0  0  0  0  0
  -26.2834  -29.6809   24.1142 H   0  0  0  0  0  0
  -27.4079  -29.7274   25.4533 H   0  0  0  0  0  0
  -27.8664  -30.4371   23.9222 H   0  0  0  0  0  0
  -27.2662  -33.3606   26.2090 H   0  0  0  0  0  0
  -28.3834  -32.6900   25.0294 H   0  0  0  0  0  0
  -28.0735  -31.8424   26.5371 H   0  0  0  0  0  0
  -28.2609  -38.0104   24.7502 H   0  0  0  0  0  0
  -28.1067  -36.2635   24.6302 H   0  0  0  0  0  0
  -27.2297  -37.1484   25.8869 H   0  0  0  0  0  0
  -20.9297  -29.8749   21.6939 H   0  0  0  0  0  0
  -26.0187  -38.2877   24.1393 H   0  0  0  0  0  0
  -28.8507  -19.8930   21.9713 H   0  0  0  0  0  0
  -31.3628  -16.7762   19.0348 H   0  0  0  0  0  0
  -29.0810  -16.6322   23.3870 H   0  0  0  0  0  0
  -27.6175  -16.8048   22.4063 H   0  0  0  0  0  0
  -28.1841  -18.1438   23.4040 H   0  0  0  0  0  0
  -30.2855  -21.3296   18.8489 H   0  0  0  0  0  0
  -31.2568  -21.5424   20.2829 H   0  0  0  0  0  0
  -27.8256  -23.8156   21.7836 H   0  0  0  0  0  0
  -27.2637  -24.2627   20.1992 H   0  0  0  0  0  0
  -29.5314  -25.8221   21.5532 H   0  0  0  0  0  0
  -27.8947  -26.1099   22.0316 H   0  0  0  0  0  0
  -29.1177  -15.2011   21.5299 H   0  0  0  0  0  0
  -28.4944  -21.7216   21.0055 H   0  0  0  0  0  0
  1 25  1  0  0  0
  1 30  2  0  0  0
  1 82  1  0  0  0
  2  3  1  0  0  0
  2 25  1  0  0  0
  2 86  1  0  0  0
  2 87  1  0  0  0
  3  4  1  0  0  0
  3 88  1  0  0  0
  3 89  1  0  0  0
  4  5  1  0  0  0
  4 90  1  0  0  0
  4 91  1  0  0  0
  5  6  1  0  0  0
  5 26  1  0  0  0
  5 92  1  0  0  0
  6 25  1  0  0  0
  6 93  1  0  0  0
  6 94  1  0  0  0
  7  8  2  0  0  0
  7 26  1  0  0  0
  7 29  1  0  0  0
  8  9  1  0  0  0
  8 22  1  0  0  0
  9 10  1  0  0  0
  9 27  2  0  0  0
 10 11  2  0  0  0
 10 15  1  0  0  0
 11 12  1  0  0  0
 11 95  1  0  0  0
 12 13  2  0  0  0
 12 96  1  0  0  0
 13 14  1  0  0  0
 13 31  1  0  0  0
 14 15  2  0  0  0
 14 97  1  0  0  0
 15 98  1  0  0  0
 16 17  2  0  0  0
 16 21  1  0  0  0
 16 31  1  0  0  0
 17 18  1  0  0  0
 17 99  1  0  0  0
 18 19  2  0  0  0
 18100  1  0  0  0
 19 20  1  0  0  0
 19 24  1  0  0  0
 20 21  2  0  0  0
 20101  1  0  0  0
 21 23  1  0  0  0
 22 28  1  0  0  0
 22 32  2  0  0  0
 26 27  1  0  0  0
 28102  1  0  0  0
 28103  1  0  0  0
 29104  1  0  0  0
 29105  1  0  0  0
 33 34  1  0  0  0
 33 66  1  0  0  0
 33 70  2  0  0  0
 34 36  1  0  0  0
 34 59  1  0  0  0
 34106  1  0  0  0
 35 44  2  0  0  0
 35 45  1  0  0  0
 35 68  1  0  0  0
 36 56  1  0  0  0
 36107  1  0  0  0
 37 39  1  0  0  0
 37 47  1  0  0  0
 37 66  1  0  0  0
 37108  1  0  0  0
 38 43  2  0  0  0
 38 46  1  0  0  0
 38 47  1  0  0  0
 39 64  1  0  0  0
 39 67  2  0  0  0
 40 52  1  0  0  0
 40 53  2  0  0  0
 40 58  1  0  0  0
 41109  1  0  0  0
 41110  1  0  0  0
 41111  1  0  0  0
 41 48  1  0  0  0
 42 43  1  0  0  0
 42 66  1  0  0  0
 42112  1  0  0  0
 42113  1  0  0  0
 43 44  1  0  0  0
 44114  1  0  0  0
 45 46  2  0  0  0
 45115  1  0  0  0
 46116  1  0  0  0
 47117  1  0  0  0
 47118  1  0  0  0
 48 56  1  0  0  0
 48 65  1  0  0  0
 48119  1  0  0  0
 49 50  1  0  0  0
 49 53  1  0  0  0
 49 64  1  0  0  0
 49120  1  0  0  0
 50 51  1  0  0  0
 50121  1  0  0  0
 50122  1  0  0  0
 51 52  1  0  0  0
 51123  1  0  0  0
 51124  1  0  0  0
 52125  1  0  0  0
 52126  1  0  0  0
 53 54  1  0  0  0
 54 55  2  0  0  0
 54127  1  0  0  0
 55 57  1  0  0  0
 55128  1  0  0  0
 56 69  2  0  0  0
 57 58  2  0  0  0
 57129  1  0  0  0
 58130  1  0  0  0
 59 60  1  0  0  0
 59 61  1  0  0  0
 59 62  1  0  0  0
 60131  1  0  0  0
 60132  1  0  0  0
 60133  1  0  0  0
 61134  1  0  0  0
 61135  1  0  0  0
 61136  1  0  0  0
 62137  1  0  0  0
 62138  1  0  0  0
 62139  1  0  0  0
 63 65  1  0  0  0
 63140  1  0  0  0
 63141  1  0  0  0
 63142  1  0  0  0
 64143  1  0  0  0
 65144  1  0  0  0
 68 81  1  0  0  0
 71 73  2  0  0  0
 71 74  1  0  0  0
 71145  1  0  0  0
 72 75  2  0  0  0
 72 76  1  0  0  0
 72146  1  0  0  0
 73 75  1  0  0  0
 73 78  1  0  0  0
 74 76  2  0  0  0
 74 79  1  0  0  0
 75 82  1  0  0  0
 76 85  1  0  0  0
 77 80  1  0  0  0
 77 83  1  0  0  0
 77 84  2  0  0  0
 78147  1  0  0  0
 78148  1  0  0  0
 78149  1  0  0  0
 79 83  1  0  0  0
 79150  1  0  0  0
 79151  1  0  0  0
 80 81  1  0  0  0
 80152  1  0  0  0
 80153  1  0  0  0
 81154  1  0  0  0
 81155  1  0  0  0
 82156  1  0  0  0
 83157  1  0  0  0
M  ISO  4   1 100  68 101  81 101  82 100
M  END
> <chiral flag>
0

> <version>
0

> <s_m_source_file>
/data/baiqing/PycharmProjects/Reinvent-master-3.2/result/LINK_invent/BTK/process_docking_weight1_custom_sum_contain_oxygen_bond_distance_aromatic_linkinvent_7_9_3/rearranged_h_0013.sdf

> <i_m_source_file_index>
46

> <r_mmod_Potential_Energy-OPLS-2005>
-129.337585449219

> <r_mmod_Stretch_Energy-OPLS-2005>
38.0737686157227

> <r_mmod_Bend_Energy-OPLS-2005>
96.3124542236328

> <r_mmod_Torsional_Energy-OPLS-2005>
230.732360839844

> <r_mmod_Improper_Torsional_Energy-OPLS-2005>
3.51146173477173

> <r_mmod_Van_der_Waal_Energy-OPLS-2005>
154.072357177734

> <r_mmod_Electrostatic_Energy-OPLS-2005>
-426.146759033203

> <r_mmod_Solvation_Energy-OPLS-2005>
-238.338333129883

> <b_mmod_Minimization_Converged-OPLS-2005>
0

> <r_mmod_RMS_Derivative-OPLS-2005>
0.655694305896759

$$$$
46
                    3D
 Structure written by MMmdl.
155163  0  0  1  0            999 V2000
  -30.4420  -15.3227   20.3466 C   0  0  0  0  0  0
  -30.4387  -12.8420   19.5353 C   0  0  0  0  0  0
  -29.5404  -12.5873   18.2987 C   0  0  0  0  0  0
  -28.0937  -12.3005   18.7327 C   0  0  0  0  0  0
  -27.6172  -13.2800   19.8303 C   0  0  2  0  0  0
  -28.6507  -13.4846   20.9619 C   0  0  0  0  0  0
  -25.2429  -13.8273   20.5765 C   0  0  0  0  0  0
  -24.1773  -13.0449   20.9265 C   0  0  0  0  0  0
  -24.6444  -11.6955   20.8786 C   0  0  0  0  0  0
  -23.9130  -10.4313   21.0410 C   0  0  0  0  0  0
  -24.3662   -9.4208   21.9202 C   0  0  0  0  0  0
  -23.6325   -8.2244   22.0773 C   0  0  0  0  0  0
  -22.4296   -8.0306   21.3561 C   0  0  0  0  0  0
  -21.9952   -9.0273   20.4649 C   0  0  0  0  0  0
  -22.7300  -10.2144   20.3057 C   0  0  0  0  0  0
  -21.6861   -6.0747   22.5275 C   0  0  0  0  0  0
  -21.4020   -6.5654   23.8208 C   0  0  0  0  0  0
  -21.3654   -5.6807   24.9172 C   0  0  0  0  0  0
  -21.6045   -4.3064   24.7224 C   0  0  0  0  0  0
  -21.8820   -3.8159   23.4348 C   0  0  0  0  0  0
  -21.9201   -4.6981   22.3401 C   0  0  0  0  0  0
  -22.7778  -13.5188   21.1901 C   0  0  0  0  0  0
  -22.1665   -4.2163   21.0972 F   0  0  0  0  0  0
  -21.5622   -3.4546   25.7729 F   0  0  0  0  0  0
  -29.8820  -14.0020   20.3369 N   0  0  0  0  0  0
  -26.2862  -12.9547   20.3277 N   0  0  0  0  0  0
  -25.9380  -11.6654   20.5772 N   0  0  0  0  0  0
  -22.0443  -12.8138   22.0436 N   0  0  0  0  0  0
  -25.4111  -15.2001   20.4194 N   0  0  0  0  0  0
  -31.6600  -15.2943   20.1108 O   0  0  0  0  0  0
  -21.6658   -6.8896   21.4241 O   0  0  0  0  0  0
  -22.3446  -14.5493   20.6755 O   0  0  0  0  0  0
  -24.6658  -31.8154   23.1635 C   0  0  0  0  0  0
  -25.9313  -32.4546   23.8119 C   0  0  1  0  0  0
  -27.2243  -26.8932   20.2017 C   0  0  0  0  0  0
  -25.5973  -33.8370   24.2040 N   0  0  0  0  0  0
  -23.4834  -30.4242   21.5106 C   0  0  2  0  0  0
  -24.9393  -28.8065   20.1044 C   0  0  0  0  0  0
  -22.7682  -29.4358   22.4730 C   0  0  0  0  0  0
  -18.0315  -28.1406   22.8452 C   0  0  0  0  0  0
  -24.1482  -36.7181   23.2663 C   0  0  0  0  0  0
  -26.0517  -30.6159   21.3937 C   0  0  0  0  0  0
  -26.1184  -29.1998   20.7476 C   0  0  0  0  0  0
  -27.2499  -28.2643   20.7748 C   0  0  0  0  0  0
  -26.0232  -26.6644   19.4923 C   0  0  0  0  0  0
  -24.9213  -27.5631   19.4492 C   0  0  0  0  0  0
  -23.7231  -29.7365   20.1380 C   0  0  0  0  0  0
  -25.4113  -36.2943   24.0322 C   0  0  1  0  0  0
  -20.5948  -28.3719   23.1194 C   0  0  2  0  0  0
  -20.6794  -26.9402   22.5408 C   0  0  0  0  0  0
  -19.5764  -26.6371   21.5217 C   0  0  0  0  0  0
  -18.1933  -26.7933   22.1629 C   0  0  0  0  0  0
  -19.1583  -28.8886   23.2813 C   0  0  0  0  0  0
  -18.9510  -30.1477   23.8841 C   0  0  0  0  0  0
  -17.6507  -30.6587   24.0557 C   0  0  0  0  0  0
  -25.9104  -34.9341   23.5003 C   0  0  0  0  0  0
  -16.5383  -29.9080   23.6352 C   0  0  0  0  0  0
  -16.7309  -28.6507   23.0357 C   0  0  0  0  0  0
  -26.4559  -31.6485   25.0650 C   0  0  0  0  0  0
  -25.3692  -31.3734   26.1311 C   0  0  0  0  0  0
  -27.0449  -30.2849   24.6363 C   0  0  0  0  0  0
  -27.6056  -32.4273   25.7446 C   0  0  0  0  0  0
  -27.5548  -37.1737   24.8486 C   0  0  0  0  0  0
  -21.4347  -29.2988   22.3519 N   0  0  0  0  0  0
  -26.4247  -37.3688   23.9447 N   0  0  0  0  0  0
  -24.7549  -30.9807   22.0745 N   0  0  0  0  0  0
  -23.4207  -28.7919   23.2991 O   0  0  0  0  0  0
  -28.2263  -25.7810   20.3298 O   0  0  0  0  0  0
  -26.5725  -34.8890   22.4603 O   0  0  0  0  0  0
  -23.5714  -32.1126   23.6704 O   0  0  0  0  0  0
  -30.0073  -21.0134   18.9324 C   0  0  0  0  0  0
  -29.2320  -20.9820   20.1049 C   0  0  0  0  0  0
  -29.1719  -19.5151   20.6359 C   0  0  0  0  0  0
  -30.4326  -18.5199   18.8011 C   0  0  0  0  0  0
  -30.5783  -19.8672   18.3228 C   0  0  0  0  0  0
  -29.7759  -18.2029   20.0378 C   0  0  0  0  0  0
  -28.4506  -19.3322   21.9566 C   0  0  0  0  0  0
  -30.9861  -17.4049   17.9101 C   0  0  0  0  0  0
  -28.7873  -22.5919   20.7034 C   0  0  0  0  0  0
  -28.1171  -24.1445   20.0028 C   0  0  0  0  0  0
  -31.3375  -20.1191   17.1777 N   0  0  0  0  0  0
  -29.6941  -16.6190   20.4898 N   0  0  0  0  0  0
  -31.4581  -13.0346   19.1967 H   0  0  0  0  0  0
  -30.5046  -11.9415   20.1501 H   0  0  0  0  0  0
  -29.9259  -11.7515   17.7140 H   0  0  0  0  0  0
  -29.5641  -13.4573   17.6411 H   0  0  0  0  0  0
  -28.0647  -11.2799   19.1184 H   0  0  0  0  0  0
  -27.4183  -12.3249   17.8767 H   0  0  0  0  0  0
  -27.5301  -14.2419   19.3239 H   0  0  0  0  0  0
  -28.8290  -12.5575   21.5098 H   0  0  0  0  0  0
  -28.2794  -14.2096   21.6894 H   0  0  0  0  0  0
  -25.2808   -9.5665   22.4787 H   0  0  0  0  0  0
  -24.0026   -7.4629   22.7479 H   0  0  0  0  0  0
  -21.0903   -8.8794   19.8944 H   0  0  0  0  0  0
  -22.3779  -10.9682   19.6166 H   0  0  0  0  0  0
  -21.2010   -7.6160   23.9707 H   0  0  0  0  0  0
  -21.1472   -6.0541   25.9071 H   0  0  0  0  0  0
  -22.0606   -2.7622   23.2838 H   0  0  0  0  0  0
  -22.4104  -11.9797   22.4764 H   0  0  0  0  0  0
  -21.1064  -13.1119   22.2675 H   0  0  0  0  0  0
  -24.6422  -15.8539   20.5196 H   0  0  0  0  0  0
  -26.2550  -15.6290   20.0639 H   0  0  0  0  0  0
  -26.7374  -32.5075   23.0841 H   0  0  0  0  0  0
  -25.0102  -33.9440   25.0180 H   0  0  0  0  0  0
  -22.7993  -31.2566   21.3361 H   0  0  0  0  0  0
  -23.3770  -35.9500   23.3314 H   0  0  0  0  0  0
  -24.3580  -36.8818   22.2083 H   0  0  0  0  0  0
  -23.7212  -37.6372   23.6701 H   0  0  0  0  0  0
  -26.2297  -31.3461   20.6043 H   0  0  0  0  0  0
  -26.9168  -30.6789   22.0451 H   0  0  0  0  0  0
  -28.1340  -28.5644   21.3201 H   0  0  0  0  0  0
  -25.9051  -25.7146   18.9954 H   0  0  0  0  0  0
  -24.0340  -27.2647   18.9085 H   0  0  0  0  0  0
  -23.8699  -30.5030   19.3755 H   0  0  0  0  0  0
  -22.8346  -29.1867   19.8258 H   0  0  0  0  0  0
  -25.1304  -36.1731   25.0811 H   0  0  0  0  0  0
  -21.0059  -28.3337   24.1323 H   0  0  0  0  0  0
  -20.5661  -26.2328   23.3641 H   0  0  0  0  0  0
  -21.6647  -26.7345   22.1224 H   0  0  0  0  0  0
  -19.6922  -25.6284   21.1245 H   0  0  0  0  0  0
  -19.6737  -27.3218   20.6781 H   0  0  0  0  0  0
  -17.4214  -26.6684   21.4031 H   0  0  0  0  0  0
  -18.0289  -26.0095   22.9044 H   0  0  0  0  0  0
  -19.7989  -30.7287   24.2189 H   0  0  0  0  0  0
  -17.5072  -31.6274   24.5160 H   0  0  0  0  0  0
  -15.5387  -30.2988   23.7693 H   0  0  0  0  0  0
  -15.8704  -28.0832   22.7089 H   0  0  0  0  0  0
  -24.5980  -30.6918   25.7688 H   0  0  0  0  0  0
  -24.8754  -32.2913   26.4520 H   0  0  0  0  0  0
  -25.7971  -30.9125   27.0220 H   0  0  0  0  0  0
  -26.3113  -29.6543   24.1328 H   0  0  0  0  0  0
  -27.3973  -29.7183   25.5005 H   0  0  0  0  0  0
  -27.9051  -30.4081   23.9775 H   0  0  0  0  0  0
  -27.2663  -33.3682   26.1791 H   0  0  0  0  0  0
  -28.3978  -32.6627   25.0315 H   0  0  0  0  0  0
  -28.0573  -31.8507   26.5535 H   0  0  0  0  0  0
  -28.2547  -38.0051   24.7530 H   0  0  0  0  0  0
  -28.1036  -36.2579   24.6291 H   0  0  0  0  0  0
  -27.2272  -37.1353   25.8888 H   0  0  0  0  0  0
  -20.9584  -29.8719   21.6699 H   0  0  0  0  0  0
  -26.0097  -38.2740   24.1481 H   0  0  0  0  0  0
  -30.2009  -21.9842   18.4905 H   0  0  0  0  0  0
  -27.6969  -20.1023   22.1176 H   0  0  0  0  0  0
  -29.1677  -19.3744   22.7796 H   0  0  0  0  0  0
  -27.9444  -18.3684   22.0017 H   0  0  0  0  0  0
  -30.9818  -17.6755   16.8558 H   0  0  0  0  0  0
  -30.3737  -16.5068   17.9462 H   0  0  0  0  0  0
  -32.0110  -17.1669   18.1914 H   0  0  0  0  0  0
  -29.7386  -22.9239   21.1183 H   0  0  0  0  0  0
  -28.1878  -22.3973   21.5907 H   0  0  0  0  0  0
  -27.0415  -23.9620   19.9897 H   0  0  0  0  0  0
  -28.4016  -24.1099   18.9507 H   0  0  0  0  0  0
  -31.7508  -21.0399   17.0600 H   0  0  0  0  0  0
  -31.9298  -19.3747   16.8249 H   0  0  0  0  0  0
  -28.8092  -16.4242   20.9355 H   0  0  0  0  0  0
  1 25  1  0  0  0
  1 30  2  0  0  0
  1 82  1  0  0  0
  2  3  1  0  0  0
  2 25  1  0  0  0
  2 83  1  0  0  0
  2 84  1  0  0  0
  3  4  1  0  0  0
  3 85  1  0  0  0
  3 86  1  0  0  0
  4  5  1  0  0  0
  4 87  1  0  0  0
  4 88  1  0  0  0
  5  6  1  0  0  0
  5 26  1  0  0  0
  5 89  1  0  0  0
  6 25  1  0  0  0
  6 90  1  0  0  0
  6 91  1  0  0  0
  7  8  2  0  0  0
  7 26  1  0  0  0
  7 29  1  0  0  0
  8  9  1  0  0  0
  8 22  1  0  0  0
  9 10  1  0  0  0
  9 27  2  0  0  0
 10 11  2  0  0  0
 10 15  1  0  0  0
 11 12  1  0  0  0
 11 92  1  0  0  0
 12 13  2  0  0  0
 12 93  1  0  0  0
 13 14  1  0  0  0
 13 31  1  0  0  0
 14 15  2  0  0  0
 14 94  1  0  0  0
 15 95  1  0  0  0
 16 17  2  0  0  0
 16 21  1  0  0  0
 16 31  1  0  0  0
 17 18  1  0  0  0
 17 96  1  0  0  0
 18 19  2  0  0  0
 18 97  1  0  0  0
 19 20  1  0  0  0
 19 24  1  0  0  0
 20 21  2  0  0  0
 20 98  1  0  0  0
 21 23  1  0  0  0
 22 28  1  0  0  0
 22 32  2  0  0  0
 26 27  1  0  0  0
 28 99  1  0  0  0
 28100  1  0  0  0
 29101  1  0  0  0
 29102  1  0  0  0
 33 34  1  0  0  0
 33 66  1  0  0  0
 33 70  2  0  0  0
 34 36  1  0  0  0
 34 59  1  0  0  0
 34103  1  0  0  0
 35 44  2  0  0  0
 35 45  1  0  0  0
 35 68  1  0  0  0
 36 56  1  0  0  0
 36104  1  0  0  0
 37 39  1  0  0  0
 37 47  1  0  0  0
 37 66  1  0  0  0
 37105  1  0  0  0
 38 43  2  0  0  0
 38 46  1  0  0  0
 38 47  1  0  0  0
 39 64  1  0  0  0
 39 67  2  0  0  0
 40 52  1  0  0  0
 40 53  2  0  0  0
 40 58  1  0  0  0
 41106  1  0  0  0
 41107  1  0  0  0
 41108  1  0  0  0
 41 48  1  0  0  0
 42 43  1  0  0  0
 42 66  1  0  0  0
 42109  1  0  0  0
 42110  1  0  0  0
 43 44  1  0  0  0
 44111  1  0  0  0
 45 46  2  0  0  0
 45112  1  0  0  0
 46113  1  0  0  0
 47114  1  0  0  0
 47115  1  0  0  0
 48 56  1  0  0  0
 48 65  1  0  0  0
 48116  1  0  0  0
 49 50  1  0  0  0
 49 53  1  0  0  0
 49 64  1  0  0  0
 49117  1  0  0  0
 50 51  1  0  0  0
 50118  1  0  0  0
 50119  1  0  0  0
 51 52  1  0  0  0
 51120  1  0  0  0
 51121  1  0  0  0
 52122  1  0  0  0
 52123  1  0  0  0
 53 54  1  0  0  0
 54 55  2  0  0  0
 54124  1  0  0  0
 55 57  1  0  0  0
 55125  1  0  0  0
 56 69  2  0  0  0
 57 58  2  0  0  0
 57126  1  0  0  0
 58127  1  0  0  0
 59 60  1  0  0  0
 59 61  1  0  0  0
 59 62  1  0  0  0
 60128  1  0  0  0
 60129  1  0  0  0
 60130  1  0  0  0
 61131  1  0  0  0
 61132  1  0  0  0
 61133  1  0  0  0
 62134  1  0  0  0
 62135  1  0  0  0
 62136  1  0  0  0
 63 65  1  0  0  0
 63137  1  0  0  0
 63138  1  0  0  0
 63139  1  0  0  0
 64140  1  0  0  0
 65141  1  0  0  0
 68 80  1  0  0  0
 71 72  2  0  0  0
 71 75  1  0  0  0
 71142  1  0  0  0
 72 73  1  0  0  0
 72 79  1  0  0  0
 73 76  2  0  0  0
 73 77  1  0  0  0
 74 75  2  0  0  0
 74 76  1  0  0  0
 74 78  1  0  0  0
 75 81  1  0  0  0
 76 82  1  0  0  0
 77143  1  0  0  0
 77144  1  0  0  0
 77145  1  0  0  0
 78146  1  0  0  0
 78147  1  0  0  0
 78148  1  0  0  0
 79 80  1  0  0  0
 79149  1  0  0  0
 79150  1  0  0  0
 80151  1  0  0  0
 80152  1  0  0  0
 81153  1  0  0  0
 81154  1  0  0  0
 82155  1  0  0  0
M  ISO  4   1 100  68 101  80 101  82 100
M  END
> <chiral flag>
0

> <version>
0

> <s_m_source_file>
/data/baiqing/PycharmProjects/Reinvent-master-3.2/result/LINK_invent/BTK/process_docking_weight1_custom_sum_contain_oxygen_bond_distance_aromatic_linkinvent_7_9_3/rearranged_h_0013.sdf

> <i_m_source_file_index>
47

> <r_mmod_Potential_Energy-OPLS-2005>
1384.61694335938

> <r_mmod_Stretch_Energy-OPLS-2005>
670.190856933594

> <r_mmod_Bend_Energy-OPLS-2005>
449.764892578125

> <r_mmod_Torsional_Energy-OPLS-2005>
240.718383789062

> <r_mmod_Improper_Torsional_Energy-OPLS-2005>
7.44383096694946

> <r_mmod_Van_der_Waal_Energy-OPLS-2005>
133.451751708984

> <r_mmod_Electrostatic_Energy-OPLS-2005>
-411.346740722656

> <r_mmod_Solvation_Energy-OPLS-2005>
-217.897094726562

> <b_mmod_Minimization_Converged-OPLS-2005>
0

> <r_mmod_RMS_Derivative-OPLS-2005>
4.32583236694336

$$$$
47
                    3D
 Structure written by MMmdl.
148156  0  0  1  0            999 V2000
  -30.5225  -15.0487   20.4086 C   0  0  0  0  0  0
  -30.4376  -12.6574   19.5061 C   0  0  0  0  0  0
  -29.5235  -12.5404   18.2643 C   0  0  0  0  0  0
  -28.0618  -12.3080   18.6877 C   0  0  0  0  0  0
  -27.6223  -13.2583   19.8314 C   0  0  2  0  0  0
  -28.6639  -13.3414   20.9674 C   0  0  0  0  0  0
  -25.2431  -13.8231   20.5727 C   0  0  0  0  0  0
  -24.1765  -13.0438   20.9245 C   0  0  0  0  0  0
  -24.6397  -11.6929   20.8761 C   0  0  0  0  0  0
  -23.9087  -10.4293   21.0410 C   0  0  0  0  0  0
  -24.3632   -9.4206   21.9186 C   0  0  0  0  0  0
  -23.6302   -8.2243   22.0755 C   0  0  0  0  0  0
  -22.4284   -8.0283   21.3544 C   0  0  0  0  0  0
  -21.9924   -9.0259   20.4646 C   0  0  0  0  0  0
  -22.7258  -10.2136   20.3057 C   0  0  0  0  0  0
  -21.6855   -6.0738   22.5279 C   0  0  0  0  0  0
  -21.4016   -6.5641   23.8212 C   0  0  0  0  0  0
  -21.3659   -5.6793   24.9174 C   0  0  0  0  0  0
  -21.6044   -4.3056   24.7225 C   0  0  0  0  0  0
  -21.8818   -3.8149   23.4345 C   0  0  0  0  0  0
  -21.9194   -4.6966   22.3402 C   0  0  0  0  0  0
  -22.7782  -13.5200   21.1893 C   0  0  0  0  0  0
  -22.1662   -4.2152   21.0979 F   0  0  0  0  0  0
  -21.5628   -3.4540   25.7737 F   0  0  0  0  0  0
  -29.9245  -13.7799   20.3539 N   0  0  0  0  0  0
  -26.2857  -12.9480   20.3235 N   0  0  0  0  0  0
  -25.9331  -11.6600   20.5739 N   0  0  0  0  0  0
  -22.0437  -12.8182   22.0447 N   0  0  0  0  0  0
  -25.4065  -15.1963   20.4148 N   0  0  0  0  0  0
  -31.7322  -15.0617   20.1561 O   0  0  0  0  0  0
  -21.6644   -6.8883   21.4241 O   0  0  0  0  0  0
  -22.3460  -14.5501   20.6735 O   0  0  0  0  0  0
  -24.6503  -31.8372   23.1824 C   0  0  0  0  0  0
  -25.9245  -32.4659   23.8238 C   0  0  1  0  0  0
  -27.2144  -27.0641   20.1619 C   0  0  0  0  0  0
  -25.5964  -33.8467   24.2151 N   0  0  0  0  0  0
  -23.4575  -30.4548   21.5292 C   0  0  2  0  0  0
  -24.9080  -28.8693   20.1098 C   0  0  0  0  0  0
  -22.7603  -29.4512   22.4830 C   0  0  0  0  0  0
  -18.0310  -28.1404   22.8474 C   0  0  0  0  0  0
  -24.1491  -36.7238   23.2644 C   0  0  0  0  0  0
  -26.0186  -30.6883   21.3917 C   0  0  0  0  0  0
  -26.0886  -29.2923   20.7339 C   0  0  0  0  0  0
  -27.2415  -28.4076   20.7399 C   0  0  0  0  0  0
  -26.0071  -26.7622   19.4935 C   0  0  0  0  0  0
  -24.8846  -27.6205   19.4720 C   0  0  0  0  0  0
  -23.6884  -29.7808   20.1503 C   0  0  0  0  0  0
  -25.4127  -36.3009   24.0309 C   0  0  1  0  0  0
  -20.5927  -28.3734   23.1219 C   0  0  2  0  0  0
  -20.6791  -26.9430   22.5403 C   0  0  0  0  0  0
  -19.5764  -26.6383   21.5213 C   0  0  0  0  0  0
  -18.1946  -26.7940   22.1624 C   0  0  0  0  0  0
  -19.1569  -28.8889   23.2836 C   0  0  0  0  0  0
  -18.9483  -30.1483   23.8865 C   0  0  0  0  0  0
  -17.6478  -30.6597   24.0560 C   0  0  0  0  0  0
  -25.9083  -34.9387   23.5043 C   0  0  0  0  0  0
  -16.5369  -29.9088   23.6342 C   0  0  0  0  0  0
  -16.7293  -28.6508   23.0361 C   0  0  0  0  0  0
  -26.4542  -31.6554   25.0710 C   0  0  0  0  0  0
  -25.3706  -31.3766   26.1392 C   0  0  0  0  0  0
  -27.0419  -30.2940   24.6343 C   0  0  0  0  0  0
  -27.6056  -32.4337   25.7504 C   0  0  0  0  0  0
  -27.5571  -37.1779   24.8467 C   0  0  0  0  0  0
  -21.4286  -29.3048   22.3583 N   0  0  0  0  0  0
  -26.4284  -37.3730   23.9406 N   0  0  0  0  0  0
  -24.7291  -31.0167   22.0890 N   0  0  0  0  0  0
  -23.4214  -28.8065   23.3010 O   0  0  0  0  0  0
  -28.2381  -26.0262   20.2410 O   0  0  0  0  0  0
  -26.5675  -34.8897   22.4626 O   0  0  0  0  0  0
  -23.5606  -32.1279   23.7004 O   0  0  0  0  0  0
  -30.8700  -20.6162   21.0214 C   0  0  0  0  0  0
  -29.5593  -20.4702   20.5148 C   0  0  0  0  0  0
  -30.0656  -17.8042   20.6122 C   0  0  0  0  0  0
  -31.7078  -19.5224   21.3280 C   0  0  0  0  0  0
  -31.3254  -18.1736   21.1468 C   0  0  0  0  0  0
  -29.1958  -19.0115   20.3236 C   0  0  0  0  0  0
  -28.9751  -23.2106   20.4006 C   0  0  0  0  0  0
  -27.9142  -24.4786   20.0568 C   0  0  0  0  0  0
  -28.7340  -21.7847   20.2542 N   0  0  0  0  0  0
  -29.7504  -16.2705   20.4861 N   0  0  0  0  0  0
  -30.0728  -23.5813   20.8213 O   0  0  0  0  0  0
  -32.9357  -19.7819   21.8386 F   0  0  0  0  0  0
  -32.2035  -17.2276   21.5530 F   0  0  0  0  0  0
  -27.6139  -18.6864   19.7142 Cl  0  0  0  0  0  0
  -31.4675  -12.8229   19.1867 H   0  0  0  0  0  0
  -30.4508  -11.7226   20.0688 H   0  0  0  0  0  0
  -29.8610  -11.7289   17.6183 H   0  0  0  0  0  0
  -29.5931  -13.4543   17.6721 H   0  0  0  0  0  0
  -27.9788  -11.2726   19.0201 H   0  0  0  0  0  0
  -27.3954  -12.4074   17.8301 H   0  0  0  0  0  0
  -27.5671  -14.2476   19.3762 H   0  0  0  0  0  0
  -28.7777  -12.3818   21.4739 H   0  0  0  0  0  0
  -28.3458  -14.0585   21.7259 H   0  0  0  0  0  0
  -25.2775   -9.5681   22.4766 H   0  0  0  0  0  0
  -24.0009   -7.4633   22.7474 H   0  0  0  0  0  0
  -21.0856   -8.8781   19.8950 H   0  0  0  0  0  0
  -22.3717  -10.9676   19.6168 H   0  0  0  0  0  0
  -21.2009   -7.6149   23.9717 H   0  0  0  0  0  0
  -21.1481   -6.0524   25.9077 H   0  0  0  0  0  0
  -22.0597   -2.7611   23.2845 H   0  0  0  0  0  0
  -22.4068  -11.9850   22.4837 H   0  0  0  0  0  0
  -21.1049  -13.1189   22.2651 H   0  0  0  0  0  0
  -24.6319  -15.8413   20.5261 H   0  0  0  0  0  0
  -26.2395  -15.6424   20.0555 H   0  0  0  0  0  0
  -26.7310  -32.5241   23.0961 H   0  0  0  0  0  0
  -25.0085  -33.9569   25.0282 H   0  0  0  0  0  0
  -22.7637  -31.2830   21.3701 H   0  0  0  0  0  0
  -23.3757  -35.9564   23.3292 H   0  0  0  0  0  0
  -24.3570  -36.8889   22.2061 H   0  0  0  0  0  0
  -23.7244  -37.6426   23.6697 H   0  0  0  0  0  0
  -26.1830  -31.4385   20.6169 H   0  0  0  0  0  0
  -26.8855  -30.7407   22.0386 H   0  0  0  0  0  0
  -28.1378  -28.7258   21.2539 H   0  0  0  0  0  0
  -25.8931  -25.8085   19.0011 H   0  0  0  0  0  0
  -23.9849  -27.2921   18.9695 H   0  0  0  0  0  0
  -23.8320  -30.5539   19.3945 H   0  0  0  0  0  0
  -22.8010  -29.2282   19.8365 H   0  0  0  0  0  0
  -25.1321  -36.1823   25.0801 H   0  0  0  0  0  0
  -21.0020  -28.3329   24.1340 H   0  0  0  0  0  0
  -20.5679  -26.2350   23.3629 H   0  0  0  0  0  0
  -21.6657  -26.7425   22.1205 H   0  0  0  0  0  0
  -19.6921  -25.6285   21.1264 H   0  0  0  0  0  0
  -19.6700  -27.3176   20.6729 H   0  0  0  0  0  0
  -17.4215  -26.6683   21.4028 H   0  0  0  0  0  0
  -18.0344  -26.0089   22.9029 H   0  0  0  0  0  0
  -19.7957  -30.7310   24.2218 H   0  0  0  0  0  0
  -17.5030  -31.6273   24.5170 H   0  0  0  0  0  0
  -15.5369  -30.2982   23.7683 H   0  0  0  0  0  0
  -15.8693  -28.0818   22.7095 H   0  0  0  0  0  0
  -24.5899  -30.7098   25.7716 H   0  0  0  0  0  0
  -24.8881  -32.2955   26.4732 H   0  0  0  0  0  0
  -25.7975  -30.9001   27.0226 H   0  0  0  0  0  0
  -26.3056  -29.6646   24.1333 H   0  0  0  0  0  0
  -27.3988  -29.7263   25.4946 H   0  0  0  0  0  0
  -27.8981  -30.4158   23.9705 H   0  0  0  0  0  0
  -27.2637  -33.3667   26.1996 H   0  0  0  0  0  0
  -28.3913  -32.6851   25.0368 H   0  0  0  0  0  0
  -28.0669  -31.8518   26.5493 H   0  0  0  0  0  0
  -28.2586  -38.0079   24.7507 H   0  0  0  0  0  0
  -28.1071  -36.2607   24.6305 H   0  0  0  0  0  0
  -27.2286  -37.1438   25.8871 H   0  0  0  0  0  0
  -20.9511  -29.8758   21.6749 H   0  0  0  0  0  0
  -26.0141  -38.2793   24.1410 H   0  0  0  0  0  0
  -31.2817  -21.5923   21.2128 H   0  0  0  0  0  0
  -27.0141  -24.2739   20.6369 H   0  0  0  0  0  0
  -27.6293  -24.3394   19.0141 H   0  0  0  0  0  0
  -27.8047  -21.5985   19.9008 H   0  0  0  0  0  0
  -28.7608  -16.0818   20.4666 H   0  0  0  0  0  0
  1 25  1  0  0  0
  1 30  2  0  0  0
  1 80  1  0  0  0
  2  3  1  0  0  0
  2 25  1  0  0  0
  2 85  1  0  0  0
  2 86  1  0  0  0
  3  4  1  0  0  0
  3 87  1  0  0  0
  3 88  1  0  0  0
  4  5  1  0  0  0
  4 89  1  0  0  0
  4 90  1  0  0  0
  5  6  1  0  0  0
  5 26  1  0  0  0
  5 91  1  0  0  0
  6 25  1  0  0  0
  6 92  1  0  0  0
  6 93  1  0  0  0
  7  8  2  0  0  0
  7 26  1  0  0  0
  7 29  1  0  0  0
  8  9  1  0  0  0
  8 22  1  0  0  0
  9 10  1  0  0  0
  9 27  2  0  0  0
 10 11  2  0  0  0
 10 15  1  0  0  0
 11 12  1  0  0  0
 11 94  1  0  0  0
 12 13  2  0  0  0
 12 95  1  0  0  0
 13 14  1  0  0  0
 13 31  1  0  0  0
 14 15  2  0  0  0
 14 96  1  0  0  0
 15 97  1  0  0  0
 16 17  2  0  0  0
 16 21  1  0  0  0
 16 31  1  0  0  0
 17 18  1  0  0  0
 17 98  1  0  0  0
 18 19  2  0  0  0
 18 99  1  0  0  0
 19 20  1  0  0  0
 19 24  1  0  0  0
 20 21  2  0  0  0
 20100  1  0  0  0
 21 23  1  0  0  0
 22 28  1  0  0  0
 22 32  2  0  0  0
 26 27  1  0  0  0
 28101  1  0  0  0
 28102  1  0  0  0
 29103  1  0  0  0
 29104  1  0  0  0
 33 34  1  0  0  0
 33 66  1  0  0  0
 33 70  2  0  0  0
 34 36  1  0  0  0
 34 59  1  0  0  0
 34105  1  0  0  0
 35 44  2  0  0  0
 35 45  1  0  0  0
 35 68  1  0  0  0
 36 56  1  0  0  0
 36106  1  0  0  0
 37 39  1  0  0  0
 37 47  1  0  0  0
 37 66  1  0  0  0
 37107  1  0  0  0
 38 43  2  0  0  0
 38 46  1  0  0  0
 38 47  1  0  0  0
 39 64  1  0  0  0
 39 67  2  0  0  0
 40 52  1  0  0  0
 40 53  2  0  0  0
 40 58  1  0  0  0
 41108  1  0  0  0
 41109  1  0  0  0
 41110  1  0  0  0
 41 48  1  0  0  0
 42 43  1  0  0  0
 42 66  1  0  0  0
 42111  1  0  0  0
 42112  1  0  0  0
 43 44  1  0  0  0
 44113  1  0  0  0
 45 46  2  0  0  0
 45114  1  0  0  0
 46115  1  0  0  0
 47116  1  0  0  0
 47117  1  0  0  0
 48 56  1  0  0  0
 48 65  1  0  0  0
 48118  1  0  0  0
 49 50  1  0  0  0
 49 53  1  0  0  0
 49 64  1  0  0  0
 49119  1  0  0  0
 50 51  1  0  0  0
 50120  1  0  0  0
 50121  1  0  0  0
 51 52  1  0  0  0
 51122  1  0  0  0
 51123  1  0  0  0
 52124  1  0  0  0
 52125  1  0  0  0
 53 54  1  0  0  0
 54 55  2  0  0  0
 54126  1  0  0  0
 55 57  1  0  0  0
 55127  1  0  0  0
 56 69  2  0  0  0
 57 58  2  0  0  0
 57128  1  0  0  0
 58129  1  0  0  0
 59 60  1  0  0  0
 59 61  1  0  0  0
 59 62  1  0  0  0
 60130  1  0  0  0
 60131  1  0  0  0
 60132  1  0  0  0
 61133  1  0  0  0
 61134  1  0  0  0
 61135  1  0  0  0
 62136  1  0  0  0
 62137  1  0  0  0
 62138  1  0  0  0
 63 65  1  0  0  0
 63139  1  0  0  0
 63140  1  0  0  0
 63141  1  0  0  0
 64142  1  0  0  0
 65143  1  0  0  0
 68 78  1  0  0  0
 71 72  2  0  0  0
 71 74  1  0  0  0
 71144  1  0  0  0
 72 76  1  0  0  0
 72 79  1  0  0  0
 73 75  1  0  0  0
 73 76  2  0  0  0
 73 80  1  0  0  0
 74 75  2  0  0  0
 74 82  1  0  0  0
 75 83  1  0  0  0
 76 84  1  0  0  0
 77 78  1  0  0  0
 77 79  1  0  0  0
 77 81  2  0  0  0
 78145  1  0  0  0
 78146  1  0  0  0
 79147  1  0  0  0
 80148  1  0  0  0
M  ISO  4   1 100  68 101  78 101  80 100
M  END
> <chiral flag>
0

> <version>
0

> <s_m_source_file>
/data/baiqing/PycharmProjects/Reinvent-master-3.2/result/LINK_invent/BTK/process_docking_weight1_custom_sum_contain_oxygen_bond_distance_aromatic_linkinvent_7_9_3/rearranged_h_0013.sdf

> <i_m_source_file_index>
48

> <r_mmod_Potential_Energy-OPLS-2005>
602.855041503906

> <r_mmod_Stretch_Energy-OPLS-2005>
350.820587158203

> <r_mmod_Bend_Energy-OPLS-2005>
271.286529541016

> <r_mmod_Torsional_Energy-OPLS-2005>
221.130035400391

> <r_mmod_Improper_Torsional_Energy-OPLS-2005>
6.02100658416748

> <r_mmod_Van_der_Waal_Energy-OPLS-2005>
134.034942626953

> <r_mmod_Electrostatic_Energy-OPLS-2005>
-403.763122558594

> <r_mmod_Solvation_Energy-OPLS-2005>
-243.672180175781

> <b_mmod_Minimization_Converged-OPLS-2005>
0

> <r_mmod_RMS_Derivative-OPLS-2005>
0.24620409309864

$$$$
48
                    3D
 Structure written by MMmdl.
157165  0  0  1  0            999 V2000
  -30.6341  -14.7562   20.5712 C   0  0  0  0  0  0
  -30.4408  -12.5004   19.4582 C   0  0  0  0  0  0
  -29.5069  -12.5542   18.2283 C   0  0  0  0  0  0
  -28.0338  -12.3697   18.6426 C   0  0  0  0  0  0
  -27.6528  -13.2344   19.8751 C   0  0  2  0  0  0
  -28.7101  -13.0861   20.9900 C   0  0  0  0  0  0
  -25.2453  -13.8133   20.5483 C   0  0  0  0  0  0
  -24.1803  -13.0394   20.9147 C   0  0  0  0  0  0
  -24.6451  -11.6896   20.8787 C   0  0  0  0  0  0
  -23.9140  -10.4270   21.0452 C   0  0  0  0  0  0
  -24.3669   -9.4171   21.9221 C   0  0  0  0  0  0
  -23.6324   -8.2220   22.0766 C   0  0  0  0  0  0
  -22.4299   -8.0286   21.3561 C   0  0  0  0  0  0
  -21.9971   -9.0274   20.4662 C   0  0  0  0  0  0
  -22.7326  -10.2136   20.3085 C   0  0  0  0  0  0
  -21.6843   -6.0763   22.5292 C   0  0  0  0  0  0
  -21.4001   -6.5669   23.8233 C   0  0  0  0  0  0
  -21.3642   -5.6815   24.9185 C   0  0  0  0  0  0
  -21.6033   -4.3076   24.7226 C   0  0  0  0  0  0
  -21.8817   -3.8178   23.4347 C   0  0  0  0  0  0
  -21.9191   -4.7000   22.3406 C   0  0  0  0  0  0
  -22.7830  -13.5175   21.1824 C   0  0  0  0  0  0
  -22.1673   -4.2187   21.0984 F   0  0  0  0  0  0
  -21.5610   -3.4561   25.7733 F   0  0  0  0  0  0
  -29.9894  -13.5329   20.4326 N   0  0  0  0  0  0
  -26.3004  -12.9401   20.3422 N   0  0  0  0  0  0
  -25.9406  -11.6536   20.5885 N   0  0  0  0  0  0
  -22.0517  -12.8173   22.0420 N   0  0  0  0  0  0
  -25.3942  -15.1789   20.3400 N   0  0  0  0  0  0
  -31.7581  -14.8685   20.0701 O   0  0  0  0  0  0
  -21.6629   -6.8910   21.4262 O   0  0  0  0  0  0
  -22.3474  -14.5478   20.6690 O   0  0  0  0  0  0
  -24.6355  -31.8539   23.1987 C   0  0  0  0  0  0
  -25.9164  -32.4742   23.8337 C   0  0  1  0  0  0
  -27.2076  -27.2296   20.1272 C   0  0  0  0  0  0
  -25.5950  -33.8549   24.2256 N   0  0  0  0  0  0
  -23.4314  -30.4810   21.5424 C   0  0  2  0  0  0
  -24.8751  -28.9275   20.1094 C   0  0  0  0  0  0
  -22.7519  -29.4613   22.4890 C   0  0  0  0  0  0
  -18.0324  -28.1405   22.8510 C   0  0  0  0  0  0
  -24.1492  -36.7277   23.2644 C   0  0  0  0  0  0
  -25.9817  -30.7579   21.3829 C   0  0  0  0  0  0
  -26.0512  -29.3799   20.7194 C   0  0  0  0  0  0
  -27.2209  -28.5455   20.7129 C   0  0  0  0  0  0
  -25.9992  -26.8534   19.4943 C   0  0  0  0  0  0
  -24.8545  -27.6726   19.4880 C   0  0  0  0  0  0
  -23.6495  -29.8214   20.1569 C   0  0  0  0  0  0
  -25.4121  -36.3061   24.0324 C   0  0  1  0  0  0
  -20.5915  -28.3730   23.1290 C   0  0  2  0  0  0
  -20.6806  -26.9423   22.5497 C   0  0  0  0  0  0
  -19.5825  -26.6400   21.5265 C   0  0  0  0  0  0
  -18.1989  -26.7944   22.1653 C   0  0  0  0  0  0
  -19.1572  -28.8896   23.2887 C   0  0  0  0  0  0
  -18.9461  -30.1514   23.8864 C   0  0  0  0  0  0
  -17.6441  -30.6596   24.0545 C   0  0  0  0  0  0
  -25.9066  -34.9433   23.5096 C   0  0  0  0  0  0
  -16.5350  -29.9067   23.6321 C   0  0  0  0  0  0
  -16.7307  -28.6492   23.0342 C   0  0  0  0  0  0
  -26.4515  -31.6580   25.0734 C   0  0  0  0  0  0
  -25.3743  -31.3729   26.1454 C   0  0  0  0  0  0
  -27.0384  -30.3003   24.6252 C   0  0  0  0  0  0
  -27.6058  -32.4327   25.7515 C   0  0  0  0  0  0
  -27.5576  -37.1804   24.8467 C   0  0  0  0  0  0
  -21.4225  -29.3058   22.3644 N   0  0  0  0  0  0
  -26.4295  -37.3762   23.9400 N   0  0  0  0  0  0
  -24.7024  -31.0490   22.0971 N   0  0  0  0  0  0
  -23.4212  -28.8146   23.2989 O   0  0  0  0  0  0
  -28.2887  -26.3033   20.1786 O   0  0  0  0  0  0
  -26.5629  -34.8903   22.4659 O   0  0  0  0  0  0
  -23.5499  -32.1366   23.7271 O   0  0  0  0  0  0
  -27.6266  -19.3305   21.1016 C   0  0  0  0  0  0
  -27.1736  -18.1287   21.6643 C   0  0  0  0  0  0
  -28.0391  -17.0136   21.7473 C   0  0  0  0  0  0
  -28.9651  -19.4641   20.7048 C   0  0  0  0  0  0
  -29.3237  -17.0420   21.1328 C   0  0  0  0  0  0
  -25.7871  -18.1048   22.2909 C   0  0  0  0  0  0
  -30.8419  -21.0345   20.7776 C   0  0  0  0  0  0
  -29.0647  -23.5950   20.2877 C   0  0  0  0  0  0
  -28.5249  -22.0512   20.4055 C   0  0  0  0  0  0
  -27.9876  -24.8150   20.1154 C   0  0  0  0  0  0
  -29.7690  -18.3087   20.6903 N   0  0  0  0  0  0
  -30.1511  -15.8105   21.3488 N   0  0  0  0  0  0
  -29.4453  -20.8181   20.4144 N   0  0  0  0  0  0
  -27.5509  -15.7197   22.7850 Cl  0  0  0  0  0  0
  -31.4752  -12.6443   19.1417 H   0  0  0  0  0  0
  -30.4187  -11.5069   19.9085 H   0  0  0  0  0  0
  -29.7927  -11.7947   17.4992 H   0  0  0  0  0  0
  -29.6226  -13.5167   17.7283 H   0  0  0  0  0  0
  -27.8866  -11.3146   18.8729 H   0  0  0  0  0  0
  -27.3727  -12.5911   17.8040 H   0  0  0  0  0  0
  -27.6666  -14.2744   19.5472 H   0  0  0  0  0  0
  -28.7714  -12.0421   21.3030 H   0  0  0  0  0  0
  -28.4686  -13.6157   21.8972 H   0  0  0  0  0  0
  -25.2823   -9.5601   22.4800 H   0  0  0  0  0  0
  -24.0023   -7.4592   22.7474 H   0  0  0  0  0  0
  -21.0917   -8.8834   19.8940 H   0  0  0  0  0  0
  -22.3860  -10.9699   19.6184 H   0  0  0  0  0  0
  -21.1993   -7.6179   23.9759 H   0  0  0  0  0  0
  -21.1467   -6.0529   25.9092 H   0  0  0  0  0  0
  -22.0607   -2.7644   23.2832 H   0  0  0  0  0  0
  -22.4217  -11.9876   22.4806 H   0  0  0  0  0  0
  -21.1134  -13.1154   22.2676 H   0  0  0  0  0  0
  -24.6136  -15.8206   20.4203 H   0  0  0  0  0  0
  -26.2522  -15.6220   20.0427 H   0  0  0  0  0  0
  -26.7211  -32.5379   23.1055 H   0  0  0  0  0  0
  -25.0067  -33.9668   25.0382 H   0  0  0  0  0  0
  -22.7309  -31.3066   21.4007 H   0  0  0  0  0  0
  -23.3747  -35.9620   23.3319 H   0  0  0  0  0  0
  -24.3586  -36.8892   22.2058 H   0  0  0  0  0  0
  -23.7239  -37.6476   23.6670 H   0  0  0  0  0  0
  -26.1258  -31.5231   20.6186 H   0  0  0  0  0  0
  -26.8559  -30.8020   22.0212 H   0  0  0  0  0  0
  -28.1208  -28.8873   21.2039 H   0  0  0  0  0  0
  -25.8927  -25.8977   19.0071 H   0  0  0  0  0  0
  -23.9498  -27.3191   19.0108 H   0  0  0  0  0  0
  -23.7799  -30.6030   19.4088 H   0  0  0  0  0  0
  -22.7623  -29.2663   19.8458 H   0  0  0  0  0  0
  -25.1305  -36.1915   25.0819 H   0  0  0  0  0  0
  -21.0019  -28.3377   24.1418 H   0  0  0  0  0  0
  -20.5669  -26.2343   23.3720 H   0  0  0  0  0  0
  -21.6672  -26.7409   22.1298 H   0  0  0  0  0  0
  -19.7008  -25.6319   21.1285 H   0  0  0  0  0  0
  -19.6796  -27.3218   20.6815 H   0  0  0  0  0  0
  -17.4284  -26.6727   21.4022 H   0  0  0  0  0  0
  -18.0342  -26.0083   22.9020 H   0  0  0  0  0  0
  -19.7931  -30.7390   24.2166 H   0  0  0  0  0  0
  -17.4966  -31.6282   24.5127 H   0  0  0  0  0  0
  -15.5330  -30.2938   23.7620 H   0  0  0  0  0  0
  -15.8735  -28.0781   22.7029 H   0  0  0  0  0  0
  -24.5916  -30.7067   25.7788 H   0  0  0  0  0  0
  -24.8927  -32.2897   26.4880 H   0  0  0  0  0  0
  -25.8075  -30.8908   27.0232 H   0  0  0  0  0  0
  -26.2992  -29.6714   24.1273 H   0  0  0  0  0  0
  -27.4045  -29.7290   25.4789 H   0  0  0  0  0  0
  -27.8872  -30.4245   23.9521 H   0  0  0  0  0  0
  -27.2656  -33.3632   26.2073 H   0  0  0  0  0  0
  -28.3901  -32.6882   25.0374 H   0  0  0  0  0  0
  -28.0701  -31.8462   26.5456 H   0  0  0  0  0  0
  -28.2601  -38.0091   24.7500 H   0  0  0  0  0  0
  -28.1065  -36.2624   24.6327 H   0  0  0  0  0  0
  -27.2297  -37.1486   25.8870 H   0  0  0  0  0  0
  -20.9396  -29.8756   21.6850 H   0  0  0  0  0  0
  -26.0176  -38.2837   24.1406 H   0  0  0  0  0  0
  -26.9434  -20.1657   21.0956 H   0  0  0  0  0  0
  -25.8585  -18.3107   23.3582 H   0  0  0  0  0  0
  -25.2966  -17.1414   22.1662 H   0  0  0  0  0  0
  -25.1370  -18.8582   21.8471 H   0  0  0  0  0  0
  -31.4827  -20.2050   20.4752 H   0  0  0  0  0  0
  -30.9343  -21.1568   21.8577 H   0  0  0  0  0  0
  -31.2407  -21.9287   20.3003 H   0  0  0  0  0  0
  -29.7595  -23.6551   19.4496 H   0  0  0  0  0  0
  -29.6572  -23.8056   21.1773 H   0  0  0  0  0  0
  -27.8323  -21.8904   19.5787 H   0  0  0  0  0  0
  -27.9180  -22.0198   21.3106 H   0  0  0  0  0  0
  -27.1981  -24.6345   20.8467 H   0  0  0  0  0  0
  -27.5387  -24.6281   19.1399 H   0  0  0  0  0  0
  -30.9756  -16.1243   21.8335 H   0  0  0  0  0  0
  1 25  1  0  0  0
  1 30  2  0  0  0
  1 82  1  0  0  0
  2  3  1  0  0  0
  2 25  1  0  0  0
  2 85  1  0  0  0
  2 86  1  0  0  0
  3  4  1  0  0  0
  3 87  1  0  0  0
  3 88  1  0  0  0
  4  5  1  0  0  0
  4 89  1  0  0  0
  4 90  1  0  0  0
  5  6  1  0  0  0
  5 26  1  0  0  0
  5 91  1  0  0  0
  6 25  1  0  0  0
  6 92  1  0  0  0
  6 93  1  0  0  0
  7  8  2  0  0  0
  7 26  1  0  0  0
  7 29  1  0  0  0
  8  9  1  0  0  0
  8 22  1  0  0  0
  9 10  1  0  0  0
  9 27  2  0  0  0
 10 11  2  0  0  0
 10 15  1  0  0  0
 11 12  1  0  0  0
 11 94  1  0  0  0
 12 13  2  0  0  0
 12 95  1  0  0  0
 13 14  1  0  0  0
 13 31  1  0  0  0
 14 15  2  0  0  0
 14 96  1  0  0  0
 15 97  1  0  0  0
 16 17  2  0  0  0
 16 21  1  0  0  0
 16 31  1  0  0  0
 17 18  1  0  0  0
 17 98  1  0  0  0
 18 19  2  0  0  0
 18 99  1  0  0  0
 19 20  1  0  0  0
 19 24  1  0  0  0
 20 21  2  0  0  0
 20100  1  0  0  0
 21 23  1  0  0  0
 22 28  1  0  0  0
 22 32  2  0  0  0
 26 27  1  0  0  0
 28101  1  0  0  0
 28102  1  0  0  0
 29103  1  0  0  0
 29104  1  0  0  0
 33 34  1  0  0  0
 33 66  1  0  0  0
 33 70  2  0  0  0
 34 36  1  0  0  0
 34 59  1  0  0  0
 34105  1  0  0  0
 35 44  2  0  0  0
 35 45  1  0  0  0
 35 68  1  0  0  0
 36 56  1  0  0  0
 36106  1  0  0  0
 37 39  1  0  0  0
 37 47  1  0  0  0
 37 66  1  0  0  0
 37107  1  0  0  0
 38 43  2  0  0  0
 38 46  1  0  0  0
 38 47  1  0  0  0
 39 64  1  0  0  0
 39 67  2  0  0  0
 40 52  1  0  0  0
 40 53  2  0  0  0
 40 58  1  0  0  0
 41108  1  0  0  0
 41109  1  0  0  0
 41110  1  0  0  0
 41 48  1  0  0  0
 42 43  1  0  0  0
 42 66  1  0  0  0
 42111  1  0  0  0
 42112  1  0  0  0
 43 44  1  0  0  0
 44113  1  0  0  0
 45 46  2  0  0  0
 45114  1  0  0  0
 46115  1  0  0  0
 47116  1  0  0  0
 47117  1  0  0  0
 48 56  1  0  0  0
 48 65  1  0  0  0
 48118  1  0  0  0
 49 50  1  0  0  0
 49 53  1  0  0  0
 49 64  1  0  0  0
 49119  1  0  0  0
 50 51  1  0  0  0
 50120  1  0  0  0
 50121  1  0  0  0
 51 52  1  0  0  0
 51122  1  0  0  0
 51123  1  0  0  0
 52124  1  0  0  0
 52125  1  0  0  0
 53 54  1  0  0  0
 54 55  2  0  0  0
 54126  1  0  0  0
 55 57  1  0  0  0
 55127  1  0  0  0
 56 69  2  0  0  0
 57 58  2  0  0  0
 57128  1  0  0  0
 58129  1  0  0  0
 59 60  1  0  0  0
 59 61  1  0  0  0
 59 62  1  0  0  0
 60130  1  0  0  0
 60131  1  0  0  0
 60132  1  0  0  0
 61133  1  0  0  0
 61134  1  0  0  0
 61135  1  0  0  0
 62136  1  0  0  0
 62137  1  0  0  0
 62138  1  0  0  0
 63 65  1  0  0  0
 63139  1  0  0  0
 63140  1  0  0  0
 63141  1  0  0  0
 64142  1  0  0  0
 65143  1  0  0  0
 68 80  1  0  0  0
 71 72  2  0  0  0
 71 74  1  0  0  0
 71144  1  0  0  0
 72 73  1  0  0  0
 72 76  1  0  0  0
 73 75  2  0  0  0
 73 84  1  0  0  0
 74 81  2  0  0  0
 74 83  1  0  0  0
 75 81  1  0  0  0
 75 82  1  0  0  0
 76145  1  0  0  0
 76146  1  0  0  0
 76147  1  0  0  0
 77 83  1  0  0  0
 77148  1  0  0  0
 77149  1  0  0  0
 77150  1  0  0  0
 78 79  1  0  0  0
 78 80  1  0  0  0
 78151  1  0  0  0
 78152  1  0  0  0
 79 83  1  0  0  0
 79153  1  0  0  0
 79154  1  0  0  0
 80155  1  0  0  0
 80156  1  0  0  0
 82157  1  0  0  0
M  ISO  4   1 100  68 101  80 101  82 100
M  END
> <chiral flag>
0

> <version>
0

> <s_m_source_file>
/data/baiqing/PycharmProjects/Reinvent-master-3.2/result/LINK_invent/BTK/process_docking_weight1_custom_sum_contain_oxygen_bond_distance_aromatic_linkinvent_7_9_3/rearranged_h_0013.sdf

> <i_m_source_file_index>
49

> <r_mmod_Potential_Energy-OPLS-2005>
149.890106201172

> <r_mmod_Stretch_Energy-OPLS-2005>
160.3876953125

> <r_mmod_Bend_Energy-OPLS-2005>
242.285171508789

> <r_mmod_Torsional_Energy-OPLS-2005>
266.72607421875

> <r_mmod_Improper_Torsional_Energy-OPLS-2005>
13.550971031189

> <r_mmod_Van_der_Waal_Energy-OPLS-2005>
152.201797485352

> <r_mmod_Electrostatic_Energy-OPLS-2005>
-553.377380371094

> <r_mmod_Solvation_Energy-OPLS-2005>
-224.377502441406

> <b_mmod_Minimization_Converged-OPLS-2005>
0

> <r_mmod_RMS_Derivative-OPLS-2005>
2.85083055496216

$$$$
49
                    3D
 Structure written by MMmdl.
156163  0  0  1  0            999 V2000
  -30.5381  -14.9550   20.4280 C   0  0  0  0  0  0
  -30.4383  -12.5956   19.4965 C   0  0  0  0  0  0
  -29.5200  -12.5333   18.2545 C   0  0  0  0  0  0
  -28.0524  -12.3207   18.6707 C   0  0  0  0  0  0
  -27.6280  -13.2510   19.8378 C   0  0  2  0  0  0
  -28.6700  -13.2793   20.9749 C   0  0  0  0  0  0
  -25.2446  -13.8225   20.5711 C   0  0  0  0  0  0
  -24.1772  -13.0440   20.9234 C   0  0  0  0  0  0
  -24.6391  -11.6927   20.8752 C   0  0  0  0  0  0
  -23.9079  -10.4296   21.0404 C   0  0  0  0  0  0
  -24.3626   -9.4209   21.9179 C   0  0  0  0  0  0
  -23.6299   -8.2245   22.0749 C   0  0  0  0  0  0
  -22.4280   -8.0280   21.3542 C   0  0  0  0  0  0
  -21.9919   -9.0251   20.4644 C   0  0  0  0  0  0
  -22.7250  -10.2132   20.3051 C   0  0  0  0  0  0
  -21.6859   -6.0732   22.5272 C   0  0  0  0  0  0
  -21.4022   -6.5636   23.8206 C   0  0  0  0  0  0
  -21.3668   -5.6787   24.9168 C   0  0  0  0  0  0
  -21.6044   -4.3049   24.7217 C   0  0  0  0  0  0
  -21.8821   -3.8141   23.4337 C   0  0  0  0  0  0
  -21.9196   -4.6959   22.3393 C   0  0  0  0  0  0
  -22.7787  -13.5200   21.1885 C   0  0  0  0  0  0
  -22.1660   -4.2144   21.0972 F   0  0  0  0  0  0
  -21.5635   -3.4535   25.7733 F   0  0  0  0  0  0
  -29.9424  -13.6958   20.3729 N   0  0  0  0  0  0
  -26.2875  -12.9463   20.3238 N   0  0  0  0  0  0
  -25.9329  -11.6590   20.5738 N   0  0  0  0  0  0
  -22.0442  -12.8189   22.0447 N   0  0  0  0  0  0
  -25.4095  -15.1957   20.4132 N   0  0  0  0  0  0
  -31.7427  -15.0120   20.1579 O   0  0  0  0  0  0
  -21.6643   -6.8876   21.4234 O   0  0  0  0  0  0
  -22.3463  -14.5494   20.6717 O   0  0  0  0  0  0
  -24.6442  -31.8432   23.1871 C   0  0  0  0  0  0
  -25.9208  -32.4691   23.8265 C   0  0  1  0  0  0
  -27.2167  -27.1245   20.1528 C   0  0  0  0  0  0
  -25.5954  -33.8501   24.2185 N   0  0  0  0  0  0
  -23.4481  -30.4620   21.5330 C   0  0  2  0  0  0
  -24.8985  -28.8881   20.1080 C   0  0  0  0  0  0
  -22.7572  -29.4538   22.4856 C   0  0  0  0  0  0
  -18.0307  -28.1393   22.8471 C   0  0  0  0  0  0
  -24.1496  -36.7261   23.2643 C   0  0  0  0  0  0
  -26.0052  -30.7130   21.3885 C   0  0  0  0  0  0
  -26.0762  -29.3239   20.7286 C   0  0  0  0  0  0
  -27.2359  -28.4592   20.7325 C   0  0  0  0  0  0
  -26.0136  -26.7955   19.4901 C   0  0  0  0  0  0
  -24.8818  -27.6387   19.4716 C   0  0  0  0  0  0
  -23.6753  -29.7917   20.1522 C   0  0  0  0  0  0
  -25.4129  -36.3038   24.0316 C   0  0  1  0  0  0
  -20.5921  -28.3718   23.1234 C   0  0  2  0  0  0
  -20.6794  -26.9424   22.5404 C   0  0  0  0  0  0
  -19.5767  -26.6377   21.5213 C   0  0  0  0  0  0
  -18.1946  -26.7928   22.1622 C   0  0  0  0  0  0
  -19.1564  -28.8875   23.2843 C   0  0  0  0  0  0
  -18.9477  -30.1472   23.8870 C   0  0  0  0  0  0
  -17.6473  -30.6587   24.0562 C   0  0  0  0  0  0
  -25.9076  -34.9409   23.5061 C   0  0  0  0  0  0
  -16.5364  -29.9078   23.6340 C   0  0  0  0  0  0
  -16.7290  -28.6501   23.0350 C   0  0  0  0  0  0
  -26.4521  -31.6563   25.0713 C   0  0  0  0  0  0
  -25.3700  -31.3752   26.1402 C   0  0  0  0  0  0
  -27.0386  -30.2955   24.6308 C   0  0  0  0  0  0
  -27.6047  -32.4330   25.7503 C   0  0  0  0  0  0
  -27.5581  -37.1791   24.8463 C   0  0  0  0  0  0
  -21.4263  -29.3040   22.3603 N   0  0  0  0  0  0
  -26.4294  -37.3747   23.9403 N   0  0  0  0  0  0
  -24.7189  -31.0273   22.0913 N   0  0  0  0  0  0
  -23.4211  -28.8090   23.3014 O   0  0  0  0  0  0
  -28.2614  -26.1276   20.2320 O   0  0  0  0  0  0
  -26.5662  -34.8908   22.4641 O   0  0  0  0  0  0
  -23.5559  -32.1313   23.7083 O   0  0  0  0  0  0
  -29.1362  -18.9445   20.2796 C   0  0  0  0  0  0
  -29.5071  -17.5987   23.2679 C   0  0  0  0  0  0
  -31.9138  -17.2349   22.5853 C   0  0  0  0  0  0
  -28.9500  -23.2532   20.3978 C   0  0  0  0  0  0
  -28.5160  -21.6307   20.1453 C   0  0  0  0  0  0
  -27.9728  -24.5988   20.0570 C   0  0  0  0  0  0
  -30.1096  -17.6829   20.7681 C   0  0  1  0  0  0
  -30.5918  -17.9360   22.2275 C   0  0  0  0  0  0
  -29.3769  -20.3381   20.4820 N   0  0  0  0  0  0
  -29.7666  -16.1384   20.6081 N   0  0  0  0  0  0
  -28.1003  -18.6190   19.6995 O   0  0  0  0  0  0
  -31.4713  -12.7560   19.1841 H   0  0  0  0  0  0
  -30.4335  -11.6444   20.0316 H   0  0  0  0  0  0
  -29.8400  -11.7344   17.5841 H   0  0  0  0  0  0
  -29.6078  -13.4624   17.6900 H   0  0  0  0  0  0
  -27.9460  -11.2783   18.9737 H   0  0  0  0  0  0
  -27.3910  -12.4578   17.8143 H   0  0  0  0  0  0
  -27.5902  -14.2539   19.4122 H   0  0  0  0  0  0
  -28.7602  -12.3021   21.4511 H   0  0  0  0  0  0
  -28.3686  -13.9791   21.7565 H   0  0  0  0  0  0
  -25.2772   -9.5691   22.4758 H   0  0  0  0  0  0
  -24.0011   -7.4639   22.7473 H   0  0  0  0  0  0
  -21.0850   -8.8764   19.8947 H   0  0  0  0  0  0
  -22.3702  -10.9665   19.6158 H   0  0  0  0  0  0
  -21.2013   -7.6142   23.9709 H   0  0  0  0  0  0
  -21.1495   -6.0515   25.9071 H   0  0  0  0  0  0
  -22.0595   -2.7605   23.2834 H   0  0  0  0  0  0
  -22.4064  -11.9860   22.4841 H   0  0  0  0  0  0
  -21.1047  -13.1196   22.2629 H   0  0  0  0  0  0
  -24.6381  -15.8445   20.5274 H   0  0  0  0  0  0
  -26.2446  -15.6399   20.0541 H   0  0  0  0  0  0
  -26.7272  -32.5291   23.0993 H   0  0  0  0  0  0
  -25.0076  -33.9615   25.0316 H   0  0  0  0  0  0
  -22.7510  -31.2880   21.3787 H   0  0  0  0  0  0
  -23.3766  -35.9583   23.3284 H   0  0  0  0  0  0
  -24.3584  -36.8915   22.2062 H   0  0  0  0  0  0
  -23.7241  -37.6448   23.6693 H   0  0  0  0  0  0
  -26.1637  -31.4675   20.6166 H   0  0  0  0  0  0
  -26.8745  -30.7623   22.0324 H   0  0  0  0  0  0
  -28.1314  -28.7881   21.2408 H   0  0  0  0  0  0
  -25.9113  -25.8399   18.9989 H   0  0  0  0  0  0
  -23.9853  -27.3000   18.9709 H   0  0  0  0  0  0
  -23.8134  -30.5673   19.3979 H   0  0  0  0  0  0
  -22.7896  -29.2353   19.8399 H   0  0  0  0  0  0
  -25.1317  -36.1869   25.0806 H   0  0  0  0  0  0
  -21.0012  -28.3309   24.1355 H   0  0  0  0  0  0
  -20.5696  -26.2328   23.3619 H   0  0  0  0  0  0
  -21.6654  -26.7430   22.1196 H   0  0  0  0  0  0
  -19.6930  -25.6281   21.1253 H   0  0  0  0  0  0
  -19.6708  -27.3178   20.6734 H   0  0  0  0  0  0
  -17.4219  -26.6675   21.4023 H   0  0  0  0  0  0
  -18.0348  -26.0074   22.9023 H   0  0  0  0  0  0
  -19.7952  -30.7299   24.2220 H   0  0  0  0  0  0
  -17.5023  -31.6263   24.5165 H   0  0  0  0  0  0
  -15.5363  -30.2970   23.7675 H   0  0  0  0  0  0
  -15.8689  -28.0811   22.7073 H   0  0  0  0  0  0
  -24.5884  -30.7096   25.7714 H   0  0  0  0  0  0
  -24.8884  -32.2933   26.4774 H   0  0  0  0  0  0
  -25.7976  -30.8953   27.0213 H   0  0  0  0  0  0
  -26.2999  -29.6669   24.1319 H   0  0  0  0  0  0
  -27.3988  -29.7265   25.4888 H   0  0  0  0  0  0
  -27.8913  -30.4178   23.9629 H   0  0  0  0  0  0
  -27.2632  -33.3648   26.2023 H   0  0  0  0  0  0
  -28.3889  -32.6861   25.0356 H   0  0  0  0  0  0
  -28.0676  -31.8493   26.5469 H   0  0  0  0  0  0
  -28.2583  -38.0102   24.7517 H   0  0  0  0  0  0
  -28.1096  -36.2632   24.6283 H   0  0  0  0  0  0
  -27.2299  -37.1425   25.8865 H   0  0  0  0  0  0
  -20.9476  -29.8752   21.6779 H   0  0  0  0  0  0
  -26.0164  -38.2817   24.1399 H   0  0  0  0  0  0
  -29.8251  -17.8805   24.2723 H   0  0  0  0  0  0
  -29.2806  -16.5323   23.2865 H   0  0  0  0  0  0
  -28.5773  -18.1304   23.0632 H   0  0  0  0  0  0
  -32.2935  -17.5959   23.5420 H   0  0  0  0  0  0
  -32.6840  -17.4288   21.8380 H   0  0  0  0  0  0
  -31.7953  -16.1560   22.6787 H   0  0  0  0  0  0
  -29.8822  -23.4093   19.8547 H   0  0  0  0  0  0
  -29.2286  -23.3388   21.4473 H   0  0  0  0  0  0
  -28.2554  -21.5402   19.0904 H   0  0  0  0  0  0
  -27.5695  -21.4834   20.6674 H   0  0  0  0  0  0
  -27.0470  -24.4219   20.6051 H   0  0  0  0  0  0
  -27.7033  -24.4850   19.0072 H   0  0  0  0  0  0
  -30.9828  -17.8162   20.1281 H   0  0  0  0  0  0
  -30.8007  -19.0023   22.3264 H   0  0  0  0  0  0
  -30.2465  -20.5347   20.9601 H   0  0  0  0  0  0
  -28.7801  -15.9563   20.7087 H   0  0  0  0  0  0
  1 25  1  0  0  0
  1 30  2  0  0  0
  1 80  1  0  0  0
  2  3  1  0  0  0
  2 25  1  0  0  0
  2 82  1  0  0  0
  2 83  1  0  0  0
  3  4  1  0  0  0
  3 84  1  0  0  0
  3 85  1  0  0  0
  4  5  1  0  0  0
  4 86  1  0  0  0
  4 87  1  0  0  0
  5  6  1  0  0  0
  5 26  1  0  0  0
  5 88  1  0  0  0
  6 25  1  0  0  0
  6 89  1  0  0  0
  6 90  1  0  0  0
  7  8  2  0  0  0
  7 26  1  0  0  0
  7 29  1  0  0  0
  8  9  1  0  0  0
  8 22  1  0  0  0
  9 10  1  0  0  0
  9 27  2  0  0  0
 10 11  2  0  0  0
 10 15  1  0  0  0
 11 12  1  0  0  0
 11 91  1  0  0  0
 12 13  2  0  0  0
 12 92  1  0  0  0
 13 14  1  0  0  0
 13 31  1  0  0  0
 14 15  2  0  0  0
 14 93  1  0  0  0
 15 94  1  0  0  0
 16 17  2  0  0  0
 16 21  1  0  0  0
 16 31  1  0  0  0
 17 18  1  0  0  0
 17 95  1  0  0  0
 18 19  2  0  0  0
 18 96  1  0  0  0
 19 20  1  0  0  0
 19 24  1  0  0  0
 20 21  2  0  0  0
 20 97  1  0  0  0
 21 23  1  0  0  0
 22 28  1  0  0  0
 22 32  2  0  0  0
 26 27  1  0  0  0
 28 98  1  0  0  0
 28 99  1  0  0  0
 29100  1  0  0  0
 29101  1  0  0  0
 33 34  1  0  0  0
 33 66  1  0  0  0
 33 70  2  0  0  0
 34 36  1  0  0  0
 34 59  1  0  0  0
 34102  1  0  0  0
 35 44  2  0  0  0
 35 45  1  0  0  0
 35 68  1  0  0  0
 36 56  1  0  0  0
 36103  1  0  0  0
 37 39  1  0  0  0
 37 47  1  0  0  0
 37 66  1  0  0  0
 37104  1  0  0  0
 38 43  2  0  0  0
 38 46  1  0  0  0
 38 47  1  0  0  0
 39 64  1  0  0  0
 39 67  2  0  0  0
 40 52  1  0  0  0
 40 53  2  0  0  0
 40 58  1  0  0  0
 41105  1  0  0  0
 41106  1  0  0  0
 41107  1  0  0  0
 41 48  1  0  0  0
 42 43  1  0  0  0
 42 66  1  0  0  0
 42108  1  0  0  0
 42109  1  0  0  0
 43 44  1  0  0  0
 44110  1  0  0  0
 45 46  2  0  0  0
 45111  1  0  0  0
 46112  1  0  0  0
 47113  1  0  0  0
 47114  1  0  0  0
 48 56  1  0  0  0
 48 65  1  0  0  0
 48115  1  0  0  0
 49 50  1  0  0  0
 49 53  1  0  0  0
 49 64  1  0  0  0
 49116  1  0  0  0
 50 51  1  0  0  0
 50117  1  0  0  0
 50118  1  0  0  0
 51 52  1  0  0  0
 51119  1  0  0  0
 51120  1  0  0  0
 52121  1  0  0  0
 52122  1  0  0  0
 53 54  1  0  0  0
 54 55  2  0  0  0
 54123  1  0  0  0
 55 57  1  0  0  0
 55124  1  0  0  0
 56 69  2  0  0  0
 57 58  2  0  0  0
 57125  1  0  0  0
 58126  1  0  0  0
 59 60  1  0  0  0
 59 61  1  0  0  0
 59 62  1  0  0  0
 60127  1  0  0  0
 60128  1  0  0  0
 60129  1  0  0  0
 61130  1  0  0  0
 61131  1  0  0  0
 61132  1  0  0  0
 62133  1  0  0  0
 62134  1  0  0  0
 62135  1  0  0  0
 63 65  1  0  0  0
 63136  1  0  0  0
 63137  1  0  0  0
 63138  1  0  0  0
 64139  1  0  0  0
 65140  1  0  0  0
 68 76  1  0  0  0
 71 77  1  0  0  0
 71 79  1  0  0  0
 71 81  2  0  0  0
 72141  1  0  0  0
 72142  1  0  0  0
 72143  1  0  0  0
 72 78  1  0  0  0
 73 78  1  0  0  0
 73144  1  0  0  0
 73145  1  0  0  0
 73146  1  0  0  0
 74 75  1  0  0  0
 74 76  1  0  0  0
 74147  1  0  0  0
 74148  1  0  0  0
 75 79  1  0  0  0
 75149  1  0  0  0
 75150  1  0  0  0
 76151  1  0  0  0
 76152  1  0  0  0
 77 78  1  0  0  0
 77 80  1  0  0  0
 77153  1  0  0  0
 78154  1  0  0  0
 79155  1  0  0  0
 80156  1  0  0  0
M  ISO  4   1 100  68 101  76 101  80 100
M  END
> <chiral flag>
0

> <version>
0

> <s_m_source_file>
/data/baiqing/PycharmProjects/Reinvent-master-3.2/result/LINK_invent/BTK/process_docking_weight1_custom_sum_contain_oxygen_bond_distance_aromatic_linkinvent_7_9_3/rearranged_h_0013.sdf

> <i_m_source_file_index>
50

> <r_mmod_Potential_Energy-OPLS-2005>
365.244445800781

> <r_mmod_Stretch_Energy-OPLS-2005>
278.736114501953

> <r_mmod_Bend_Energy-OPLS-2005>
261.3486328125

> <r_mmod_Torsional_Energy-OPLS-2005>
211.696563720703

> <r_mmod_Improper_Torsional_Energy-OPLS-2005>
3.68332815170288

> <r_mmod_Van_der_Waal_Energy-OPLS-2005>
111.965782165527

> <r_mmod_Electrostatic_Energy-OPLS-2005>
-477.005615234375

> <r_mmod_Solvation_Energy-OPLS-2005>
-225.850204467773

> <b_mmod_Minimization_Converged-OPLS-2005>
0

> <r_mmod_RMS_Derivative-OPLS-2005>
0.993006706237793

$$$$
50
                    3D
 Structure written by MMmdl.
151159  0  0  1  0            999 V2000
  -30.5079  -15.0518   20.3861 C   0  0  0  0  0  0
  -30.4383  -12.6562   19.5109 C   0  0  0  0  0  0
  -29.5234  -12.5416   18.2685 C   0  0  0  0  0  0
  -28.0637  -12.3035   18.6928 C   0  0  0  0  0  0
  -27.6221  -13.2576   19.8320 C   0  0  2  0  0  0
  -28.6604  -13.3390   20.9703 C   0  0  0  0  0  0
  -25.2436  -13.8232   20.5737 C   0  0  0  0  0  0
  -24.1762  -13.0438   20.9233 C   0  0  0  0  0  0
  -24.6396  -11.6927   20.8757 C   0  0  0  0  0  0
  -23.9090  -10.4291   21.0414 C   0  0  0  0  0  0
  -24.3636   -9.4202   21.9188 C   0  0  0  0  0  0
  -23.6299   -8.2245   22.0760 C   0  0  0  0  0  0
  -22.4278   -8.0291   21.3553 C   0  0  0  0  0  0
  -21.9924   -9.0269   20.4655 C   0  0  0  0  0  0
  -22.7268  -10.2136   20.3060 C   0  0  0  0  0  0
  -21.6850   -6.0738   22.5280 C   0  0  0  0  0  0
  -21.4009   -6.5638   23.8214 C   0  0  0  0  0  0
  -21.3656   -5.6790   24.9178 C   0  0  0  0  0  0
  -21.6044   -4.3055   24.7227 C   0  0  0  0  0  0
  -21.8819   -3.8147   23.4350 C   0  0  0  0  0  0
  -21.9192   -4.6964   22.3406 C   0  0  0  0  0  0
  -22.7785  -13.5210   21.1879 C   0  0  0  0  0  0
  -22.1663   -4.2148   21.0984 F   0  0  0  0  0  0
  -21.5626   -3.4541   25.7742 F   0  0  0  0  0  0
  -29.9243  -13.7754   20.3630 N   0  0  0  0  0  0
  -26.2856  -12.9477   20.3241 N   0  0  0  0  0  0
  -25.9325  -11.6596   20.5736 N   0  0  0  0  0  0
  -22.0438  -12.8197   22.0437 N   0  0  0  0  0  0
  -25.4088  -15.1967   20.4199 N   0  0  0  0  0  0
  -31.7190  -15.0727   20.1363 O   0  0  0  0  0  0
  -21.6637   -6.8890   21.4247 O   0  0  0  0  0  0
  -22.3469  -14.5512   20.6722 O   0  0  0  0  0  0
  -24.6490  -31.8384   23.1850 C   0  0  0  0  0  0
  -25.9243  -32.4662   23.8252 C   0  0  1  0  0  0
  -27.2057  -27.0675   20.1568 C   0  0  0  0  0  0
  -25.5970  -33.8482   24.2145 N   0  0  0  0  0  0
  -23.4551  -30.4585   21.5313 C   0  0  2  0  0  0
  -24.9052  -28.8779   20.1059 C   0  0  0  0  0  0
  -22.7593  -29.4517   22.4826 C   0  0  0  0  0  0
  -18.0309  -28.1422   22.8457 C   0  0  0  0  0  0
  -24.1490  -36.7237   23.2640 C   0  0  0  0  0  0
  -26.0161  -30.6898   21.3951 C   0  0  0  0  0  0
  -26.0851  -29.2959   20.7350 C   0  0  0  0  0  0
  -27.2355  -28.4081   20.7422 C   0  0  0  0  0  0
  -25.9998  -26.7739   19.4811 C   0  0  0  0  0  0
  -24.8797  -27.6333   19.4629 C   0  0  0  0  0  0
  -23.6865  -29.7909   20.1500 C   0  0  0  0  0  0
  -25.4134  -36.2996   24.0282 C   0  0  1  0  0  0
  -20.5919  -28.3740   23.1211 C   0  0  2  0  0  0
  -20.6795  -26.9431   22.5400 C   0  0  0  0  0  0
  -19.5768  -26.6385   21.5213 C   0  0  0  0  0  0
  -18.1949  -26.7954   22.1619 C   0  0  0  0  0  0
  -19.1569  -28.8901   23.2824 C   0  0  0  0  0  0
  -18.9492  -30.1504   23.8836 C   0  0  0  0  0  0
  -17.6491  -30.6610   24.0564 C   0  0  0  0  0  0
  -25.9090  -34.9383   23.5016 C   0  0  0  0  0  0
  -16.5377  -29.9104   23.6358 C   0  0  0  0  0  0
  -16.7296  -28.6539   23.0332 C   0  0  0  0  0  0
  -26.4535  -31.6569   25.0738 C   0  0  0  0  0  0
  -25.3690  -31.3841   26.1421 C   0  0  0  0  0  0
  -27.0377  -30.2930   24.6394 C   0  0  0  0  0  0
  -27.6082  -32.4328   25.7505 C   0  0  0  0  0  0
  -27.5557  -37.1782   24.8467 C   0  0  0  0  0  0
  -21.4274  -29.3058   22.3579 N   0  0  0  0  0  0
  -26.4278  -37.3726   23.9393 N   0  0  0  0  0  0
  -24.7268  -31.0179   22.0922 N   0  0  0  0  0  0
  -23.4212  -28.8048   23.2980 O   0  0  0  0  0  0
  -28.2192  -26.0203   20.2413 O   0  0  0  0  0  0
  -26.5692  -34.8888   22.4605 O   0  0  0  0  0  0
  -23.5591  -32.1299   23.7032 O   0  0  0  0  0  0
  -31.2593  -18.1592   19.7589 C   0  0  0  0  0  0
  -31.5970  -19.4924   19.4448 C   0  0  0  0  0  0
  -29.9922  -17.7927   20.2592 C   0  0  0  0  0  0
  -29.4084  -20.4419   20.1241 C   0  0  0  0  0  0
  -30.7186  -20.5859   19.6026 C   0  0  0  0  0  0
  -29.0846  -18.9889   20.4377 C   0  0  0  0  0  0
  -28.8496  -23.1537   20.3451 C   0  0  0  0  0  0
  -27.1162  -21.5138   19.7945 C   0  0  0  0  0  0
  -27.8740  -24.4903   19.9835 C   0  0  0  0  0  0
  -29.7308  -16.2670   20.5062 N   0  0  0  0  0  0
  -28.5236  -21.7474   20.1327 N   0  0  0  0  0  0
  -29.9215  -23.4367   20.8881 O   0  0  0  0  0  0
  -31.1530  -21.7893   19.1599 F   0  0  0  0  0  0
  -27.5242  -18.6208   21.0848 Cl  0  0  0  0  0  0
  -31.4678  -12.8237   19.1904 H   0  0  0  0  0  0
  -30.4556  -11.7213   20.0740 H   0  0  0  0  0  0
  -29.8642  -11.7345   17.6191 H   0  0  0  0  0  0
  -29.5868  -13.4584   17.6804 H   0  0  0  0  0  0
  -27.9851  -11.2694   19.0313 H   0  0  0  0  0  0
  -27.3960  -12.3951   17.8359 H   0  0  0  0  0  0
  -27.5680  -14.2466   19.3757 H   0  0  0  0  0  0
  -28.7704  -12.3773   21.4728 H   0  0  0  0  0  0
  -28.3417  -14.0531   21.7312 H   0  0  0  0  0  0
  -25.2779   -9.5662   22.4769 H   0  0  0  0  0  0
  -23.9994   -7.4632   22.7485 H   0  0  0  0  0  0
  -21.0851   -8.8811   19.8965 H   0  0  0  0  0  0
  -22.3746  -10.9681   19.6170 H   0  0  0  0  0  0
  -21.1998   -7.6143   23.9721 H   0  0  0  0  0  0
  -21.1473   -6.0518   25.9081 H   0  0  0  0  0  0
  -22.0599   -2.7607   23.2855 H   0  0  0  0  0  0
  -22.4062  -11.9858   22.4814 H   0  0  0  0  0  0
  -21.1066  -13.1231   22.2662 H   0  0  0  0  0  0
  -24.6410  -15.8465   20.5507 H   0  0  0  0  0  0
  -26.2554  -15.6473   20.0995 H   0  0  0  0  0  0
  -26.7308  -32.5223   23.0975 H   0  0  0  0  0  0
  -25.0066  -33.9599   25.0243 H   0  0  0  0  0  0
  -22.7599  -31.2871   21.3778 H   0  0  0  0  0  0
  -23.3756  -35.9558   23.3260 H   0  0  0  0  0  0
  -24.3550  -36.8948   22.2059 H   0  0  0  0  0  0
  -23.7248  -37.6403   23.6746 H   0  0  0  0  0  0
  -26.1778  -31.4423   20.6222 H   0  0  0  0  0  0
  -26.8820  -30.7406   22.0430 H   0  0  0  0  0  0
  -28.1298  -28.7195   21.2643 H   0  0  0  0  0  0
  -25.8789  -25.8255   18.9797 H   0  0  0  0  0  0
  -23.9806  -27.3107   18.9554 H   0  0  0  0  0  0
  -23.8298  -30.5695   19.4000 H   0  0  0  0  0  0
  -22.7981  -29.2414   19.8332 H   0  0  0  0  0  0
  -25.1333  -36.1789   25.0771 H   0  0  0  0  0  0
  -21.0000  -28.3347   24.1339 H   0  0  0  0  0  0
  -20.5705  -26.2349   23.3630 H   0  0  0  0  0  0
  -21.6662  -26.7456   22.1192 H   0  0  0  0  0  0
  -19.6929  -25.6286   21.1275 H   0  0  0  0  0  0
  -19.6720  -27.3172   20.6722 H   0  0  0  0  0  0
  -17.4220  -26.6677   21.4026 H   0  0  0  0  0  0
  -18.0347  -26.0122   22.9038 H   0  0  0  0  0  0
  -19.7975  -30.7335   24.2153 H   0  0  0  0  0  0
  -17.5056  -31.6278   24.5193 H   0  0  0  0  0  0
  -15.5376  -30.2986   23.7748 H   0  0  0  0  0  0
  -15.8688  -28.0881   22.7026 H   0  0  0  0  0  0
  -24.5819  -30.7258   25.7732 H   0  0  0  0  0  0
  -24.8940  -32.3060   26.4782 H   0  0  0  0  0  0
  -25.7905  -30.9021   27.0250 H   0  0  0  0  0  0
  -26.3004  -29.6637   24.1392 H   0  0  0  0  0  0
  -27.3914  -29.7277   25.5025 H   0  0  0  0  0  0
  -27.8954  -30.4104   23.9770 H   0  0  0  0  0  0
  -27.2771  -33.3773   26.1833 H   0  0  0  0  0  0
  -28.4023  -32.6623   25.0391 H   0  0  0  0  0  0
  -28.0566  -31.8575   26.5611 H   0  0  0  0  0  0
  -28.2586  -38.0065   24.7460 H   0  0  0  0  0  0
  -28.1041  -36.2581   24.6368 H   0  0  0  0  0  0
  -27.2253  -37.1517   25.8869 H   0  0  0  0  0  0
  -20.9487  -29.8789   21.6766 H   0  0  0  0  0  0
  -26.0116  -38.2778   24.1414 H   0  0  0  0  0  0
  -32.0136  -17.4118   19.5760 H   0  0  0  0  0  0
  -32.5753  -19.6881   19.0299 H   0  0  0  0  0  0
  -26.5166  -21.4173   20.7003 H   0  0  0  0  0  0
  -26.9998  -20.6014   19.2100 H   0  0  0  0  0  0
  -26.6770  -22.2989   19.1803 H   0  0  0  0  0  0
  -26.9187  -24.2973   20.4717 H   0  0  0  0  0  0
  -27.6843  -24.4171   18.9125 H   0  0  0  0  0  0
  -28.7722  -16.0715   20.7519 H   0  0  0  0  0  0
  1 25  1  0  0  0
  1 30  2  0  0  0
  1 80  1  0  0  0
  2  3  1  0  0  0
  2 25  1  0  0  0
  2 85  1  0  0  0
  2 86  1  0  0  0
  3  4  1  0  0  0
  3 87  1  0  0  0
  3 88  1  0  0  0
  4  5  1  0  0  0
  4 89  1  0  0  0
  4 90  1  0  0  0
  5  6  1  0  0  0
  5 26  1  0  0  0
  5 91  1  0  0  0
  6 25  1  0  0  0
  6 92  1  0  0  0
  6 93  1  0  0  0
  7  8  2  0  0  0
  7 26  1  0  0  0
  7 29  1  0  0  0
  8  9  1  0  0  0
  8 22  1  0  0  0
  9 10  1  0  0  0
  9 27  2  0  0  0
 10 11  2  0  0  0
 10 15  1  0  0  0
 11 12  1  0  0  0
 11 94  1  0  0  0
 12 13  2  0  0  0
 12 95  1  0  0  0
 13 14  1  0  0  0
 13 31  1  0  0  0
 14 15  2  0  0  0
 14 96  1  0  0  0
 15 97  1  0  0  0
 16 17  2  0  0  0
 16 21  1  0  0  0
 16 31  1  0  0  0
 17 18  1  0  0  0
 17 98  1  0  0  0
 18 19  2  0  0  0
 18 99  1  0  0  0
 19 20  1  0  0  0
 19 24  1  0  0  0
 20 21  2  0  0  0
 20100  1  0  0  0
 21 23  1  0  0  0
 22 28  1  0  0  0
 22 32  2  0  0  0
 26 27  1  0  0  0
 28101  1  0  0  0
 28102  1  0  0  0
 29103  1  0  0  0
 29104  1  0  0  0
 33 34  1  0  0  0
 33 66  1  0  0  0
 33 70  2  0  0  0
 34 36  1  0  0  0
 34 59  1  0  0  0
 34105  1  0  0  0
 35 44  2  0  0  0
 35 45  1  0  0  0
 35 68  1  0  0  0
 36 56  1  0  0  0
 36106  1  0  0  0
 37 39  1  0  0  0
 37 47  1  0  0  0
 37 66  1  0  0  0
 37107  1  0  0  0
 38 43  2  0  0  0
 38 46  1  0  0  0
 38 47  1  0  0  0
 39 64  1  0  0  0
 39 67  2  0  0  0
 40 52  1  0  0  0
 40 53  2  0  0  0
 40 58  1  0  0  0
 41108  1  0  0  0
 41109  1  0  0  0
 41110  1  0  0  0
 41 48  1  0  0  0
 42 43  1  0  0  0
 42 66  1  0  0  0
 42111  1  0  0  0
 42112  1  0  0  0
 43 44  1  0  0  0
 44113  1  0  0  0
 45 46  2  0  0  0
 45114  1  0  0  0
 46115  1  0  0  0
 47116  1  0  0  0
 47117  1  0  0  0
 48 56  1  0  0  0
 48 65  1  0  0  0
 48118  1  0  0  0
 49 50  1  0  0  0
 49 53  1  0  0  0
 49 64  1  0  0  0
 49119  1  0  0  0
 50 51  1  0  0  0
 50120  1  0  0  0
 50121  1  0  0  0
 51 52  1  0  0  0
 51122  1  0  0  0
 51123  1  0  0  0
 52124  1  0  0  0
 52125  1  0  0  0
 53 54  1  0  0  0
 54 55  2  0  0  0
 54126  1  0  0  0
 55 57  1  0  0  0
 55127  1  0  0  0
 56 69  2  0  0  0
 57 58  2  0  0  0
 57128  1  0  0  0
 58129  1  0  0  0
 59 60  1  0  0  0
 59 61  1  0  0  0
 59 62  1  0  0  0
 60130  1  0  0  0
 60131  1  0  0  0
 60132  1  0  0  0
 61133  1  0  0  0
 61134  1  0  0  0
 61135  1  0  0  0
 62136  1  0  0  0
 62137  1  0  0  0
 62138  1  0  0  0
 63 65  1  0  0  0
 63139  1  0  0  0
 63140  1  0  0  0
 63141  1  0  0  0
 64142  1  0  0  0
 65143  1  0  0  0
 68 79  1  0  0  0
 71 72  2  0  0  0
 71 73  1  0  0  0
 71144  1  0  0  0
 72 75  1  0  0  0
 72145  1  0  0  0
 73 76  2  0  0  0
 73 80  1  0  0  0
 74 75  2  0  0  0
 74 76  1  0  0  0
 74 81  1  0  0  0
 75 83  1  0  0  0
 76 84  1  0  0  0
 77 79  1  0  0  0
 77 81  1  0  0  0
 77 82  2  0  0  0
 78 81  1  0  0  0
 78146  1  0  0  0
 78147  1  0  0  0
 78148  1  0  0  0
 79149  1  0  0  0
 79150  1  0  0  0
 80151  1  0  0  0
M  ISO  4   1 100  68 101  79 101  80 100
M  END
> <chiral flag>
0

> <version>
0

> <s_m_source_file>
/data/baiqing/PycharmProjects/Reinvent-master-3.2/result/LINK_invent/BTK/process_docking_weight1_custom_sum_contain_oxygen_bond_distance_aromatic_linkinvent_7_9_3/rearranged_h_0013.sdf

> <i_m_source_file_index>
51

> <r_mmod_Potential_Energy-OPLS-2005>
686.557006835938

> <r_mmod_Stretch_Energy-OPLS-2005>
355.823272705078

> <r_mmod_Bend_Energy-OPLS-2005>
274.360809326172

> <r_mmod_Torsional_Energy-OPLS-2005>
255.414749145508

> <r_mmod_Improper_Torsional_Energy-OPLS-2005>
4.69326019287109

> <r_mmod_Van_der_Waal_Energy-OPLS-2005>
140.23503112793

> <r_mmod_Electrostatic_Energy-OPLS-2005>
-383.887268066406

> <r_mmod_Solvation_Energy-OPLS-2005>
-229.748886108398

> <b_mmod_Minimization_Converged-OPLS-2005>
0

> <r_mmod_RMS_Derivative-OPLS-2005>
1.79916799068451

$$$$
51
                    3D
 Structure written by MMmdl.
153161  0  0  1  0            999 V2000
  -30.6002  -14.7342   20.4522 C   0  0  0  0  0  0
  -30.4399  -12.4382   19.4885 C   0  0  0  0  0  0
  -29.5158  -12.4802   18.2503 C   0  0  0  0  0  0
  -28.0388  -12.3259   18.6605 C   0  0  0  0  0  0
  -27.6480  -13.2292   19.8603 C   0  0  2  0  0  0
  -28.6898  -13.1442   20.9981 C   0  0  0  0  0  0
  -25.2520  -13.8203   20.5724 C   0  0  0  0  0  0
  -24.1800  -13.0444   20.9194 C   0  0  0  0  0  0
  -24.6385  -11.6921   20.8749 C   0  0  0  0  0  0
  -23.9063  -10.4295   21.0411 C   0  0  0  0  0  0
  -24.3616   -9.4210   21.9191 C   0  0  0  0  0  0
  -23.6289   -8.2249   22.0760 C   0  0  0  0  0  0
  -22.4276   -8.0282   21.3550 C   0  0  0  0  0  0
  -21.9909   -9.0259   20.4656 C   0  0  0  0  0  0
  -22.7237  -10.2134   20.3062 C   0  0  0  0  0  0
  -21.6851   -6.0739   22.5288 C   0  0  0  0  0  0
  -21.4016   -6.5640   23.8223 C   0  0  0  0  0  0
  -21.3658   -5.6788   24.9180 C   0  0  0  0  0  0
  -21.6047   -4.3057   24.7230 C   0  0  0  0  0  0
  -21.8819   -3.8149   23.4353 C   0  0  0  0  0  0
  -21.9192   -4.6964   22.3408 C   0  0  0  0  0  0
  -22.7819  -13.5219   21.1847 C   0  0  0  0  0  0
  -22.1659   -4.2145   21.0982 F   0  0  0  0  0  0
  -21.5621   -3.4544   25.7745 F   0  0  0  0  0  0
  -29.9979  -13.4954   20.4290 N   0  0  0  0  0  0
  -26.2957  -12.9413   20.3332 N   0  0  0  0  0  0
  -25.9322  -11.6561   20.5784 N   0  0  0  0  0  0
  -22.0461  -12.8234   22.0425 N   0  0  0  0  0  0
  -25.4240  -15.1919   20.4167 N   0  0  0  0  0  0
  -31.7598  -14.8646   20.0476 O   0  0  0  0  0  0
  -21.6637   -6.8881   21.4252 O   0  0  0  0  0  0
  -22.3510  -14.5531   20.6691 O   0  0  0  0  0  0
  -24.6309  -31.8536   23.1983 C   0  0  0  0  0  0
  -25.9132  -32.4746   23.8333 C   0  0  1  0  0  0
  -27.2207  -27.2537   20.1300 C   0  0  0  0  0  0
  -25.5936  -33.8558   24.2254 N   0  0  0  0  0  0
  -23.4293  -30.4756   21.5407 C   0  0  2  0  0  0
  -24.8782  -28.9237   20.1096 C   0  0  0  0  0  0
  -22.7507  -29.4579   22.4899 C   0  0  0  0  0  0
  -18.0287  -28.1388   22.8478 C   0  0  0  0  0  0
  -24.1493  -36.7290   23.2637 C   0  0  0  0  0  0
  -25.9760  -30.7635   21.3813 C   0  0  0  0  0  0
  -26.0496  -29.3860   20.7228 C   0  0  0  0  0  0
  -27.2228  -28.5627   20.7241 C   0  0  0  0  0  0
  -26.0276  -26.8679   19.4760 C   0  0  0  0  0  0
  -24.8731  -27.6736   19.4740 C   0  0  0  0  0  0
  -23.6490  -29.8115   20.1566 C   0  0  0  0  0  0
  -25.4120  -36.3075   24.0325 C   0  0  1  0  0  0
  -20.5893  -28.3689   23.1270 C   0  0  2  0  0  0
  -20.6781  -26.9405   22.5410 C   0  0  0  0  0  0
  -19.5756  -26.6377   21.5213 C   0  0  0  0  0  0
  -18.1935  -26.7929   22.1621 C   0  0  0  0  0  0
  -19.1543  -28.8854   23.2868 C   0  0  0  0  0  0
  -18.9465  -30.1466   23.8875 C   0  0  0  0  0  0
  -17.6462  -30.6583   24.0563 C   0  0  0  0  0  0
  -25.9059  -34.9439   23.5093 C   0  0  0  0  0  0
  -16.5352  -29.9080   23.6340 C   0  0  0  0  0  0
  -16.7277  -28.6504   23.0342 C   0  0  0  0  0  0
  -26.4507  -31.6574   25.0728 C   0  0  0  0  0  0
  -25.3727  -31.3728   26.1444 C   0  0  0  0  0  0
  -27.0361  -30.2991   24.6224 C   0  0  0  0  0  0
  -27.6057  -32.4318   25.7498 C   0  0  0  0  0  0
  -27.5580  -37.1800   24.8463 C   0  0  0  0  0  0
  -21.4208  -29.3036   22.3658 N   0  0  0  0  0  0
  -26.4294  -37.3771   23.9405 N   0  0  0  0  0  0
  -24.6976  -31.0489   22.0964 N   0  0  0  0  0  0
  -23.4204  -28.8103   23.2989 O   0  0  0  0  0  0
  -28.3102  -26.3497   20.2070 O   0  0  0  0  0  0
  -26.5628  -34.8910   22.4659 O   0  0  0  0  0  0
  -23.5460  -32.1369   23.7273 O   0  0  0  0  0  0
  -29.1642  -19.6091   18.7565 C   0  0  0  0  0  0
  -29.4556  -19.7214   20.1330 C   0  0  0  0  0  0
  -29.1250  -18.3599   18.1072 C   0  0  0  0  0  0
  -29.7174  -17.1567   20.1734 C   0  0  0  0  0  0
  -29.3970  -17.1584   18.7971 C   0  0  0  0  0  0
  -29.7264  -18.4573   20.8349 C   0  0  0  0  0  0
  -29.5617  -21.1652   20.7313 C   0  0  0  0  0  0
  -29.1090  -23.7427   20.5282 C   0  0  0  0  0  0
  -28.0808  -24.8733   19.9878 C   0  0  0  0  0  0
  -28.7898  -18.3023   16.7545 N   0  0  0  0  0  0
  -29.8545  -15.8339   20.8406 N   0  0  0  0  0  0
  -28.9171  -22.2600   20.1702 N   0  0  0  0  0  0
  -30.2754  -21.3477   21.7165 O   0  0  0  0  0  0
  -29.2903  -15.9864   18.1212 F   0  0  0  0  0  0
  -30.0683  -18.4516   22.5324 Cl  0  0  0  0  0  0
  -31.4792  -12.5646   19.1820 H   0  0  0  0  0  0
  -30.3937  -11.4613   19.9731 H   0  0  0  0  0  0
  -29.7894  -11.6822   17.5582 H   0  0  0  0  0  0
  -29.6575  -13.4178   17.7108 H   0  0  0  0  0  0
  -27.8836  -11.2795   18.9266 H   0  0  0  0  0  0
  -27.3855  -12.5216   17.8086 H   0  0  0  0  0  0
  -27.6511  -14.2523   19.4837 H   0  0  0  0  0  0
  -28.7182  -12.1386   21.4195 H   0  0  0  0  0  0
  -28.4210  -13.8098   21.8189 H   0  0  0  0  0  0
  -25.2764   -9.5677   22.4763 H   0  0  0  0  0  0
  -24.0004   -7.4639   22.7475 H   0  0  0  0  0  0
  -21.0843   -8.8775   19.8957 H   0  0  0  0  0  0
  -22.3704  -10.9674   19.6167 H   0  0  0  0  0  0
  -21.2020   -7.6145   23.9726 H   0  0  0  0  0  0
  -21.1474   -6.0515   25.9076 H   0  0  0  0  0  0
  -22.0603   -2.7611   23.2854 H   0  0  0  0  0  0
  -22.4077  -11.9894   22.4822 H   0  0  0  0  0  0
  -21.1089  -13.1279   22.2644 H   0  0  0  0  0  0
  -24.6570  -15.8480   20.5154 H   0  0  0  0  0  0
  -26.2825  -15.6313   20.1130 H   0  0  0  0  0  0
  -26.7185  -32.5395   23.1058 H   0  0  0  0  0  0
  -25.0110  -33.9700   25.0416 H   0  0  0  0  0  0
  -22.7269  -31.2979   21.3934 H   0  0  0  0  0  0
  -23.3757  -35.9619   23.3292 H   0  0  0  0  0  0
  -24.3584  -36.8923   22.2052 H   0  0  0  0  0  0
  -23.7243  -37.6489   23.6665 H   0  0  0  0  0  0
  -26.1175  -31.5228   20.6107 H   0  0  0  0  0  0
  -26.8528  -30.8127   22.0158 H   0  0  0  0  0  0
  -28.1163  -28.9076   21.2260 H   0  0  0  0  0  0
  -25.9554  -25.9163   18.9709 H   0  0  0  0  0  0
  -23.9798  -27.3170   18.9804 H   0  0  0  0  0  0
  -23.7771  -30.5876   19.4011 H   0  0  0  0  0  0
  -22.7688  -29.2450   19.8483 H   0  0  0  0  0  0
  -25.1297  -36.1924   25.0819 H   0  0  0  0  0  0
  -20.9990  -28.3267   24.1390 H   0  0  0  0  0  0
  -20.5688  -26.2292   23.3612 H   0  0  0  0  0  0
  -21.6647  -26.7431   22.1196 H   0  0  0  0  0  0
  -19.6919  -25.6287   21.1242 H   0  0  0  0  0  0
  -19.6702  -27.3190   20.6746 H   0  0  0  0  0  0
  -17.4208  -26.6673   21.4019 H   0  0  0  0  0  0
  -18.0329  -26.0074   22.9022 H   0  0  0  0  0  0
  -19.7943  -30.7299   24.2218 H   0  0  0  0  0  0
  -17.5014  -31.6255   24.5178 H   0  0  0  0  0  0
  -15.5354  -30.2970   23.7685 H   0  0  0  0  0  0
  -15.8679  -28.0833   22.7044 H   0  0  0  0  0  0
  -24.5908  -30.7069   25.7774 H   0  0  0  0  0  0
  -24.8915  -32.2901   26.4851 H   0  0  0  0  0  0
  -25.8049  -30.8921   27.0228 H   0  0  0  0  0  0
  -26.2954  -29.6719   24.1254 H   0  0  0  0  0  0
  -27.4043  -29.7276   25.4752 H   0  0  0  0  0  0
  -27.8828  -30.4264   23.9477 H   0  0  0  0  0  0
  -27.2666  -33.3620   26.2063 H   0  0  0  0  0  0
  -28.3875  -32.6867   25.0333 H   0  0  0  0  0  0
  -28.0711  -31.8450   26.5423 H   0  0  0  0  0  0
  -28.2593  -38.0103   24.7525 H   0  0  0  0  0  0
  -28.1085  -36.2635   24.6275 H   0  0  0  0  0  0
  -27.2303  -37.1439   25.8868 H   0  0  0  0  0  0
  -20.9389  -29.8789   21.6890 H   0  0  0  0  0  0
  -26.0174  -38.2845   24.1409 H   0  0  0  0  0  0
  -28.9842  -20.5030   18.1768 H   0  0  0  0  0  0
  -29.1401  -23.8178   21.6151 H   0  0  0  0  0  0
  -30.1094  -24.0159   20.1924 H   0  0  0  0  0  0
  -27.9731  -24.7331   18.9122 H   0  0  0  0  0  0
  -27.1129  -24.6166   20.4203 H   0  0  0  0  0  0
  -28.5601  -17.3749   16.4108 H   0  0  0  0  0  0
  -28.1477  -19.0052   16.4042 H   0  0  0  0  0  0
  -29.0549  -15.5901   21.4029 H   0  0  0  0  0  0
  -28.3163  -22.0665   19.3811 H   0  0  0  0  0  0
  1 25  1  0  0  0
  1 30  2  0  0  0
  1 81  1  0  0  0
  2  3  1  0  0  0
  2 25  1  0  0  0
  2 86  1  0  0  0
  2 87  1  0  0  0
  3  4  1  0  0  0
  3 88  1  0  0  0
  3 89  1  0  0  0
  4  5  1  0  0  0
  4 90  1  0  0  0
  4 91  1  0  0  0
  5  6  1  0  0  0
  5 26  1  0  0  0
  5 92  1  0  0  0
  6 25  1  0  0  0
  6 93  1  0  0  0
  6 94  1  0  0  0
  7  8  2  0  0  0
  7 26  1  0  0  0
  7 29  1  0  0  0
  8  9  1  0  0  0
  8 22  1  0  0  0
  9 10  1  0  0  0
  9 27  2  0  0  0
 10 11  2  0  0  0
 10 15  1  0  0  0
 11 12  1  0  0  0
 11 95  1  0  0  0
 12 13  2  0  0  0
 12 96  1  0  0  0
 13 14  1  0  0  0
 13 31  1  0  0  0
 14 15  2  0  0  0
 14 97  1  0  0  0
 15 98  1  0  0  0
 16 17  2  0  0  0
 16 21  1  0  0  0
 16 31  1  0  0  0
 17 18  1  0  0  0
 17 99  1  0  0  0
 18 19  2  0  0  0
 18100  1  0  0  0
 19 20  1  0  0  0
 19 24  1  0  0  0
 20 21  2  0  0  0
 20101  1  0  0  0
 21 23  1  0  0  0
 22 28  1  0  0  0
 22 32  2  0  0  0
 26 27  1  0  0  0
 28102  1  0  0  0
 28103  1  0  0  0
 29104  1  0  0  0
 29105  1  0  0  0
 33 34  1  0  0  0
 33 66  1  0  0  0
 33 70  2  0  0  0
 34 36  1  0  0  0
 34 59  1  0  0  0
 34106  1  0  0  0
 35 44  2  0  0  0
 35 45  1  0  0  0
 35 68  1  0  0  0
 36 56  1  0  0  0
 36107  1  0  0  0
 37 39  1  0  0  0
 37 47  1  0  0  0
 37 66  1  0  0  0
 37108  1  0  0  0
 38 43  2  0  0  0
 38 46  1  0  0  0
 38 47  1  0  0  0
 39 64  1  0  0  0
 39 67  2  0  0  0
 40 52  1  0  0  0
 40 53  2  0  0  0
 40 58  1  0  0  0
 41109  1  0  0  0
 41110  1  0  0  0
 41111  1  0  0  0
 41 48  1  0  0  0
 42 43  1  0  0  0
 42 66  1  0  0  0
 42112  1  0  0  0
 42113  1  0  0  0
 43 44  1  0  0  0
 44114  1  0  0  0
 45 46  2  0  0  0
 45115  1  0  0  0
 46116  1  0  0  0
 47117  1  0  0  0
 47118  1  0  0  0
 48 56  1  0  0  0
 48 65  1  0  0  0
 48119  1  0  0  0
 49 50  1  0  0  0
 49 53  1  0  0  0
 49 64  1  0  0  0
 49120  1  0  0  0
 50 51  1  0  0  0
 50121  1  0  0  0
 50122  1  0  0  0
 51 52  1  0  0  0
 51123  1  0  0  0
 51124  1  0  0  0
 52125  1  0  0  0
 52126  1  0  0  0
 53 54  1  0  0  0
 54 55  2  0  0  0
 54127  1  0  0  0
 55 57  1  0  0  0
 55128  1  0  0  0
 56 69  2  0  0  0
 57 58  2  0  0  0
 57129  1  0  0  0
 58130  1  0  0  0
 59 60  1  0  0  0
 59 61  1  0  0  0
 59 62  1  0  0  0
 60131  1  0  0  0
 60132  1  0  0  0
 60133  1  0  0  0
 61134  1  0  0  0
 61135  1  0  0  0
 61136  1  0  0  0
 62137  1  0  0  0
 62138  1  0  0  0
 62139  1  0  0  0
 63 65  1  0  0  0
 63140  1  0  0  0
 63141  1  0  0  0
 63142  1  0  0  0
 64143  1  0  0  0
 65144  1  0  0  0
 68 79  1  0  0  0
 71 72  2  0  0  0
 71 73  1  0  0  0
 71145  1  0  0  0
 72 76  1  0  0  0
 72 77  1  0  0  0
 73 75  2  0  0  0
 73 80  1  0  0  0
 74 75  1  0  0  0
 74 76  2  0  0  0
 74 81  1  0  0  0
 75 84  1  0  0  0
 76 85  1  0  0  0
 77 82  1  0  0  0
 77 83  2  0  0  0
 78 79  1  0  0  0
 78 82  1  0  0  0
 78146  1  0  0  0
 78147  1  0  0  0
 79148  1  0  0  0
 79149  1  0  0  0
 80150  1  0  0  0
 80151  1  0  0  0
 81152  1  0  0  0
 82153  1  0  0  0
M  ISO  4   1 100  68 101  79 101  81 100
M  END
> <chiral flag>
0

> <version>
0

> <s_m_source_file>
/data/baiqing/PycharmProjects/Reinvent-master-3.2/result/LINK_invent/BTK/process_docking_weight1_custom_sum_contain_oxygen_bond_distance_aromatic_linkinvent_7_9_3/rearranged_h_0013.sdf

> <i_m_source_file_index>
52

> <r_mmod_Potential_Energy-OPLS-2005>
35.272518157959

> <r_mmod_Stretch_Energy-OPLS-2005>
127.279685974121

> <r_mmod_Bend_Energy-OPLS-2005>
156.236373901367

> <r_mmod_Torsional_Energy-OPLS-2005>
258.14990234375

> <r_mmod_Improper_Torsional_Energy-OPLS-2005>
9.66306209564209

> <r_mmod_Van_der_Waal_Energy-OPLS-2005>
141.20085144043

> <r_mmod_Electrostatic_Energy-OPLS-2005>
-483.831817626953

> <r_mmod_Solvation_Energy-OPLS-2005>
-259.736541748047

> <b_mmod_Minimization_Converged-OPLS-2005>
0

> <r_mmod_RMS_Derivative-OPLS-2005>
1.93675875663757

$$$$
52
                    3D
 Structure written by MMmdl.
157165  0  0  1  0            999 V2000
  -30.6824  -14.4685   20.6203 C   0  0  0  0  0  0
  -30.4304  -12.3221   19.4105 C   0  0  0  0  0  0
  -29.4981  -12.5178   18.1961 C   0  0  0  0  0  0
  -28.0164  -12.3691   18.6036 C   0  0  0  0  0  0
  -27.6576  -13.1991   19.8649 C   0  0  2  0  0  0
  -28.6974  -12.9569   20.9807 C   0  0  0  0  0  0
  -25.2578  -13.8141   20.5586 C   0  0  0  0  0  0
  -24.1826  -13.0419   20.9133 C   0  0  0  0  0  0
  -24.6372  -11.6889   20.8696 C   0  0  0  0  0  0
  -23.9024  -10.4271   21.0372 C   0  0  0  0  0  0
  -24.3589   -9.4217   21.9169 C   0  0  0  0  0  0
  -23.6280   -8.2251   22.0756 C   0  0  0  0  0  0
  -22.4265   -8.0270   21.3549 C   0  0  0  0  0  0
  -21.9880   -9.0230   20.4648 C   0  0  0  0  0  0
  -22.7194  -10.2110   20.3040 C   0  0  0  0  0  0
  -21.6863   -6.0713   22.5271 C   0  0  0  0  0  0
  -21.4017   -6.5620   23.8199 C   0  0  0  0  0  0
  -21.3653   -5.6777   24.9162 C   0  0  0  0  0  0
  -21.6051   -4.3039   24.7214 C   0  0  0  0  0  0
  -21.8826   -3.8124   23.4337 C   0  0  0  0  0  0
  -21.9198   -4.6940   22.3396 C   0  0  0  0  0  0
  -22.7856  -13.5226   21.1805 C   0  0  0  0  0  0
  -22.1673   -4.2121   21.0971 F   0  0  0  0  0  0
  -21.5614   -3.4526   25.7727 F   0  0  0  0  0  0
  -30.0269  -13.2883   20.4414 N   0  0  0  0  0  0
  -26.2984  -12.9278   20.3263 N   0  0  0  0  0  0
  -25.9292  -11.6447   20.5722 N   0  0  0  0  0  0
  -22.0496  -12.8219   22.0364 N   0  0  0  0  0  0
  -25.4304  -15.1840   20.3897 N   0  0  0  0  0  0
  -31.8013  -14.6944   20.1529 O   0  0  0  0  0  0
  -21.6662   -6.8850   21.4230 O   0  0  0  0  0  0
  -22.3528  -14.5525   20.6651 O   0  0  0  0  0  0
  -24.6162  -31.8605   23.2141 C   0  0  0  0  0  0
  -25.9053  -32.4794   23.8393 C   0  0  1  0  0  0
  -27.2220  -27.4133   20.1035 C   0  0  0  0  0  0
  -25.5902  -33.8593   24.2281 N   0  0  0  0  0  0
  -23.4071  -30.4938   21.5498 C   0  0  2  0  0  0
  -24.8567  -28.9771   20.1048 C   0  0  0  0  0  0
  -22.7404  -29.4603   22.4906 C   0  0  0  0  0  0
  -18.0296  -28.1352   22.8528 C   0  0  0  0  0  0
  -24.1489  -36.7317   23.2631 C   0  0  0  0  0  0
  -25.9386  -30.8309   21.3740 C   0  0  0  0  0  0
  -26.0182  -29.4676   20.7142 C   0  0  0  0  0  0
  -27.2026  -28.6909   20.7170 C   0  0  0  0  0  0
  -26.0452  -26.9711   19.4482 C   0  0  0  0  0  0
  -24.8632  -27.7281   19.4697 C   0  0  0  0  0  0
  -23.6229  -29.8466   20.1591 C   0  0  0  0  0  0
  -25.4113  -36.3082   24.0303 C   0  0  1  0  0  0
  -20.5878  -28.3616   23.1320 C   0  0  2  0  0  0
  -20.6781  -26.9355   22.5393 C   0  0  0  0  0  0
  -19.5764  -26.6404   21.5185 C   0  0  0  0  0  0
  -18.1953  -26.7918   22.1619 C   0  0  0  0  0  0
  -19.1547  -28.8805   23.2946 C   0  0  0  0  0  0
  -18.9478  -30.1424   23.8962 C   0  0  0  0  0  0
  -17.6479  -30.6563   24.0595 C   0  0  0  0  0  0
  -25.9019  -34.9461   23.5069 C   0  0  0  0  0  0
  -16.5368  -29.9057   23.6360 C   0  0  0  0  0  0
  -16.7295  -28.6482   23.0373 C   0  0  0  0  0  0
  -26.4501  -31.6594   25.0746 C   0  0  0  0  0  0
  -25.3821  -31.3689   26.1528 C   0  0  0  0  0  0
  -27.0305  -30.3034   24.6123 C   0  0  0  0  0  0
  -27.6062  -32.4305   25.7535 C   0  0  0  0  0  0
  -27.5563  -37.1825   24.8449 C   0  0  0  0  0  0
  -21.4117  -29.3004   22.3708 N   0  0  0  0  0  0
  -26.4282  -37.3786   23.9389 N   0  0  0  0  0  0
  -24.6719  -31.0720   22.1059 N   0  0  0  0  0  0
  -23.4168  -28.8107   23.2919 O   0  0  0  0  0  0
  -28.3592  -26.6184   20.1689 O   0  0  0  0  0  0
  -26.5551  -34.8923   22.4609 O   0  0  0  0  0  0
  -23.5347  -32.1339   23.7523 O   0  0  0  0  0  0
  -31.3163  -16.9885   22.5176 C   0  0  0  0  0  0
  -31.6033  -18.3013   22.9371 C   0  0  0  0  0  0
  -29.8927  -19.1968   21.4051 C   0  0  0  0  0  0
  -30.3196  -16.7541   21.5559 C   0  0  0  0  0  0
  -30.9088  -19.4078   22.3856 C   0  0  0  0  0  0
  -29.5983  -17.8514   21.0206 C   0  0  0  0  0  0
  -28.8705  -22.7424   20.1865 C   0  0  0  0  0  0
  -32.6347  -18.5081   24.0310 C   0  0  0  0  0  0
  -29.0511  -20.3190   20.7437 C   0  0  0  0  0  0
  -29.2137  -24.2170   20.5221 C   0  0  0  0  0  0
  -28.1428  -25.1993   19.9710 C   0  0  0  0  0  0
  -29.9495  -15.4146   21.2404 N   0  0  0  0  0  0
  -29.3755  -21.7466   20.9410 N   0  0  0  0  0  0
  -28.1253  -22.4957   19.2355 O   0  0  0  0  0  0
  -31.3294  -20.9864   22.9758 Cl  0  0  0  0  0  0
  -28.3162  -17.5171   19.8994 Cl  0  0  0  0  0  0
  -31.4736  -12.4436   19.1148 H   0  0  0  0  0  0
  -30.3470  -11.3075   19.8031 H   0  0  0  0  0  0
  -29.7452  -11.7940   17.4172 H   0  0  0  0  0  0
  -29.6623  -13.5054   17.7606 H   0  0  0  0  0  0
  -27.8346  -11.3100   18.7944 H   0  0  0  0  0  0
  -27.3650  -12.6452   17.7716 H   0  0  0  0  0  0
  -27.7027  -14.2487   19.5746 H   0  0  0  0  0  0
  -28.6857  -11.9104   21.2872 H   0  0  0  0  0  0
  -28.4465  -13.5178   21.8808 H   0  0  0  0  0  0
  -25.2747   -9.5703   22.4717 H   0  0  0  0  0  0
  -24.0010   -7.4638   22.7461 H   0  0  0  0  0  0
  -21.0816   -8.8708   19.8953 H   0  0  0  0  0  0
  -22.3643  -10.9624   19.6123 H   0  0  0  0  0  0
  -21.2026   -7.6133   23.9689 H   0  0  0  0  0  0
  -21.1472   -6.0512   25.9058 H   0  0  0  0  0  0
  -22.0618   -2.7587   23.2851 H   0  0  0  0  0  0
  -22.4151  -11.9959   22.4879 H   0  0  0  0  0  0
  -21.1103  -13.1239   22.2498 H   0  0  0  0  0  0
  -24.6479  -15.8270   20.4365 H   0  0  0  0  0  0
  -26.2703  -15.6144   20.0208 H   0  0  0  0  0  0
  -26.7121  -32.5538   23.1152 H   0  0  0  0  0  0
  -25.0217  -33.9740   25.0532 H   0  0  0  0  0  0
  -22.7000  -31.3125   21.4111 H   0  0  0  0  0  0
  -23.3720  -35.9677   23.3303 H   0  0  0  0  0  0
  -24.3600  -36.8945   22.2051 H   0  0  0  0  0  0
  -23.7284  -37.6546   23.6647 H   0  0  0  0  0  0
  -26.0472  -31.6088   20.6157 H   0  0  0  0  0  0
  -26.8217  -30.8779   21.9982 H   0  0  0  0  0  0
  -28.0908  -29.0556   21.2145 H   0  0  0  0  0  0
  -26.0137  -26.0357   18.9117 H   0  0  0  0  0  0
  -23.9724  -27.3557   18.9841 H   0  0  0  0  0  0
  -23.7434  -30.6276   19.4050 H   0  0  0  0  0  0
  -22.7444  -29.2708   19.8658 H   0  0  0  0  0  0
  -25.1301  -36.1952   25.0796 H   0  0  0  0  0  0
  -21.0017  -28.3149   24.1417 H   0  0  0  0  0  0
  -20.5697  -26.2182   23.3548 H   0  0  0  0  0  0
  -21.6647  -26.7429   22.1171 H   0  0  0  0  0  0
  -19.6926  -25.6342   21.1159 H   0  0  0  0  0  0
  -19.6712  -27.3270   20.6759 H   0  0  0  0  0  0
  -17.4210  -26.6695   21.4035 H   0  0  0  0  0  0
  -18.0379  -26.0026   22.8994 H   0  0  0  0  0  0
  -19.7952  -30.7249   24.2324 H   0  0  0  0  0  0
  -17.5041  -31.6276   24.5129 H   0  0  0  0  0  0
  -15.5370  -30.2974   23.7680 H   0  0  0  0  0  0
  -15.8703  -28.0842   22.7003 H   0  0  0  0  0  0
  -24.5983  -30.7002   25.7940 H   0  0  0  0  0  0
  -24.9020  -32.2840   26.5016 H   0  0  0  0  0  0
  -25.8270  -30.8894   27.0263 H   0  0  0  0  0  0
  -26.2843  -29.6819   24.1157 H   0  0  0  0  0  0
  -27.4035  -29.7257   25.4592 H   0  0  0  0  0  0
  -27.8697  -30.4312   23.9281 H   0  0  0  0  0  0
  -27.2647  -33.3568   26.2170 H   0  0  0  0  0  0
  -28.3907  -32.6920   25.0421 H   0  0  0  0  0  0
  -28.0695  -31.8397   26.5457 H   0  0  0  0  0  0
  -28.2575  -38.0124   24.7474 H   0  0  0  0  0  0
  -28.1063  -36.2653   24.6297 H   0  0  0  0  0  0
  -27.2258  -37.1503   25.8846 H   0  0  0  0  0  0
  -20.9173  -29.8848   21.7115 H   0  0  0  0  0  0
  -26.0151  -38.2838   24.1459 H   0  0  0  0  0  0
  -31.8297  -16.1518   22.9708 H   0  0  0  0  0  0
  -33.1118  -17.5742   24.3313 H   0  0  0  0  0  0
  -32.1510  -18.9354   24.9109 H   0  0  0  0  0  0
  -33.4126  -19.1940   23.6963 H   0  0  0  0  0  0
  -28.0174  -20.1775   21.0590 H   0  0  0  0  0  0
  -29.0656  -20.1233   19.6705 H   0  0  0  0  0  0
  -30.1878  -24.4520   20.0932 H   0  0  0  0  0  0
  -29.2935  -24.3322   21.6045 H   0  0  0  0  0  0
  -27.2047  -24.9066   20.4462 H   0  0  0  0  0  0
  -28.0207  -25.0264   18.9008 H   0  0  0  0  0  0
  -28.9968  -15.1560   21.4427 H   0  0  0  0  0  0
  -29.9851  -21.9765   21.7173 H   0  0  0  0  0  0
  1 25  1  0  0  0
  1 30  2  0  0  0
  1 82  1  0  0  0
  2  3  1  0  0  0
  2 25  1  0  0  0
  2 87  1  0  0  0
  2 88  1  0  0  0
  3  4  1  0  0  0
  3 89  1  0  0  0
  3 90  1  0  0  0
  4  5  1  0  0  0
  4 91  1  0  0  0
  4 92  1  0  0  0
  5  6  1  0  0  0
  5 26  1  0  0  0
  5 93  1  0  0  0
  6 25  1  0  0  0
  6 94  1  0  0  0
  6 95  1  0  0  0
  7  8  2  0  0  0
  7 26  1  0  0  0
  7 29  1  0  0  0
  8  9  1  0  0  0
  8 22  1  0  0  0
  9 10  1  0  0  0
  9 27  2  0  0  0
 10 11  2  0  0  0
 10 15  1  0  0  0
 11 12  1  0  0  0
 11 96  1  0  0  0
 12 13  2  0  0  0
 12 97  1  0  0  0
 13 14  1  0  0  0
 13 31  1  0  0  0
 14 15  2  0  0  0
 14 98  1  0  0  0
 15 99  1  0  0  0
 16 17  2  0  0  0
 16 21  1  0  0  0
 16 31  1  0  0  0
 17 18  1  0  0  0
 17100  1  0  0  0
 18 19  2  0  0  0
 18101  1  0  0  0
 19 20  1  0  0  0
 19 24  1  0  0  0
 20 21  2  0  0  0
 20102  1  0  0  0
 21 23  1  0  0  0
 22 28  1  0  0  0
 22 32  2  0  0  0
 26 27  1  0  0  0
 28103  1  0  0  0
 28104  1  0  0  0
 29105  1  0  0  0
 29106  1  0  0  0
 33 34  1  0  0  0
 33 66  1  0  0  0
 33 70  2  0  0  0
 34 36  1  0  0  0
 34 59  1  0  0  0
 34107  1  0  0  0
 35 44  2  0  0  0
 35 45  1  0  0  0
 35 68  1  0  0  0
 36 56  1  0  0  0
 36108  1  0  0  0
 37 39  1  0  0  0
 37 47  1  0  0  0
 37 66  1  0  0  0
 37109  1  0  0  0
 38 43  2  0  0  0
 38 46  1  0  0  0
 38 47  1  0  0  0
 39 64  1  0  0  0
 39 67  2  0  0  0
 40 52  1  0  0  0
 40 53  2  0  0  0
 40 58  1  0  0  0
 41110  1  0  0  0
 41111  1  0  0  0
 41112  1  0  0  0
 41 48  1  0  0  0
 42 43  1  0  0  0
 42 66  1  0  0  0
 42113  1  0  0  0
 42114  1  0  0  0
 43 44  1  0  0  0
 44115  1  0  0  0
 45 46  2  0  0  0
 45116  1  0  0  0
 46117  1  0  0  0
 47118  1  0  0  0
 47119  1  0  0  0
 48 56  1  0  0  0
 48 65  1  0  0  0
 48120  1  0  0  0
 49 50  1  0  0  0
 49 53  1  0  0  0
 49 64  1  0  0  0
 49121  1  0  0  0
 50 51  1  0  0  0
 50122  1  0  0  0
 50123  1  0  0  0
 51 52  1  0  0  0
 51124  1  0  0  0
 51125  1  0  0  0
 52126  1  0  0  0
 52127  1  0  0  0
 53 54  1  0  0  0
 54 55  2  0  0  0
 54128  1  0  0  0
 55 57  1  0  0  0
 55129  1  0  0  0
 56 69  2  0  0  0
 57 58  2  0  0  0
 57130  1  0  0  0
 58131  1  0  0  0
 59 60  1  0  0  0
 59 61  1  0  0  0
 59 62  1  0  0  0
 60132  1  0  0  0
 60133  1  0  0  0
 60134  1  0  0  0
 61135  1  0  0  0
 61136  1  0  0  0
 61137  1  0  0  0
 62138  1  0  0  0
 62139  1  0  0  0
 62140  1  0  0  0
 63 65  1  0  0  0
 63141  1  0  0  0
 63142  1  0  0  0
 63143  1  0  0  0
 64144  1  0  0  0
 65145  1  0  0  0
 68 81  1  0  0  0
 71 72  2  0  0  0
 71 74  1  0  0  0
 71146  1  0  0  0
 72 75  1  0  0  0
 72 78  1  0  0  0
 73 75  2  0  0  0
 73 76  1  0  0  0
 73 79  1  0  0  0
 74 76  2  0  0  0
 74 82  1  0  0  0
 75 85  1  0  0  0
 76 86  1  0  0  0
 77 80  1  0  0  0
 77 83  1  0  0  0
 77 84  2  0  0  0
 78147  1  0  0  0
 78148  1  0  0  0
 78149  1  0  0  0
 79 83  1  0  0  0
 79150  1  0  0  0
 79151  1  0  0  0
 80 81  1  0  0  0
 80152  1  0  0  0
 80153  1  0  0  0
 81154  1  0  0  0
 81155  1  0  0  0
 82156  1  0  0  0
 83157  1  0  0  0
M  ISO  4   1 100  68 101  81 101  82 100
M  END
> <chiral flag>
0

> <version>
0

> <s_m_source_file>
/data/baiqing/PycharmProjects/Reinvent-master-3.2/result/LINK_invent/BTK/process_docking_weight1_custom_sum_contain_oxygen_bond_distance_aromatic_linkinvent_7_9_3/rearranged_h_0013.sdf

> <i_m_source_file_index>
53

> <r_mmod_Potential_Energy-OPLS-2005>
-127.197563171387

> <r_mmod_Stretch_Energy-OPLS-2005>
44.0906524658203

> <r_mmod_Bend_Energy-OPLS-2005>
106.25789642334

> <r_mmod_Torsional_Energy-OPLS-2005>
222.736511230469

> <r_mmod_Improper_Torsional_Energy-OPLS-2005>
3.84698438644409

> <r_mmod_Van_der_Waal_Energy-OPLS-2005>
174.673446655273

> <r_mmod_Electrostatic_Energy-OPLS-2005>
-474.798187255859

> <r_mmod_Solvation_Energy-OPLS-2005>
-221.618881225586

> <b_mmod_Minimization_Converged-OPLS-2005>
0

> <r_mmod_RMS_Derivative-OPLS-2005>
4.07455158233643

$$$$
53
                    3D
 Structure written by MMmdl.
151159  0  0  1  0            999 V2000
  -30.6044  -14.7354   20.4841 C   0  0  0  0  0  0
  -30.4347  -12.4574   19.4596 C   0  0  0  0  0  0
  -29.5036  -12.5020   18.2282 C   0  0  0  0  0  0
  -28.0318  -12.3216   18.6490 C   0  0  0  0  0  0
  -27.6397  -13.2255   19.8477 C   0  0  2  0  0  0
  -28.6852  -13.1493   20.9803 C   0  0  0  0  0  0
  -25.2505  -13.8184   20.5678 C   0  0  0  0  0  0
  -24.1799  -13.0442   20.9211 C   0  0  0  0  0  0
  -24.6387  -11.6910   20.8760 C   0  0  0  0  0  0
  -23.9070  -10.4292   21.0420 C   0  0  0  0  0  0
  -24.3618   -9.4202   21.9195 C   0  0  0  0  0  0
  -23.6291   -8.2241   22.0759 C   0  0  0  0  0  0
  -22.4276   -8.0285   21.3548 C   0  0  0  0  0  0
  -21.9915   -9.0259   20.4653 C   0  0  0  0  0  0
  -22.7243  -10.2138   20.3066 C   0  0  0  0  0  0
  -21.6854   -6.0740   22.5279 C   0  0  0  0  0  0
  -21.4007   -6.5643   23.8212 C   0  0  0  0  0  0
  -21.3654   -5.6793   24.9175 C   0  0  0  0  0  0
  -21.6043   -4.3058   24.7226 C   0  0  0  0  0  0
  -21.8819   -3.8152   23.4347 C   0  0  0  0  0  0
  -21.9189   -4.6967   22.3401 C   0  0  0  0  0  0
  -22.7816  -13.5220   21.1867 C   0  0  0  0  0  0
  -22.1660   -4.2152   21.0979 F   0  0  0  0  0  0
  -21.5629   -3.4539   25.7740 F   0  0  0  0  0  0
  -29.9830  -13.5107   20.3971 N   0  0  0  0  0  0
  -26.2925  -12.9379   20.3261 N   0  0  0  0  0  0
  -25.9313  -11.6533   20.5762 N   0  0  0  0  0  0
  -22.0465  -12.8211   22.0429 N   0  0  0  0  0  0
  -25.4170  -15.1908   20.4042 N   0  0  0  0  0  0
  -31.7979  -14.8367   20.1837 O   0  0  0  0  0  0
  -21.6635   -6.8882   21.4246 O   0  0  0  0  0  0
  -22.3497  -14.5526   20.6714 O   0  0  0  0  0  0
  -24.6299  -31.8549   23.1961 C   0  0  0  0  0  0
  -25.9106  -32.4767   23.8316 C   0  0  1  0  0  0
  -27.2211  -27.2672   20.1438 C   0  0  0  0  0  0
  -25.5895  -33.8559   24.2248 N   0  0  0  0  0  0
  -23.4289  -30.4735   21.5393 C   0  0  2  0  0  0
  -24.8786  -28.9183   20.1102 C   0  0  0  0  0  0
  -22.7509  -29.4582   22.4910 C   0  0  0  0  0  0
  -18.0295  -28.1398   22.8463 C   0  0  0  0  0  0
  -24.1486  -36.7299   23.2644 C   0  0  0  0  0  0
  -25.9701  -30.7722   21.3719 C   0  0  0  0  0  0
  -26.0465  -29.3901   20.7247 C   0  0  0  0  0  0
  -27.2236  -28.5770   20.7289 C   0  0  0  0  0  0
  -26.0384  -26.8601   19.4946 C   0  0  0  0  0  0
  -24.8805  -27.6628   19.4798 C   0  0  0  0  0  0
  -23.6488  -29.8050   20.1549 C   0  0  0  0  0  0
  -25.4112  -36.3085   24.0337 C   0  0  1  0  0  0
  -20.5898  -28.3700   23.1278 C   0  0  2  0  0  0
  -20.6783  -26.9421   22.5417 C   0  0  0  0  0  0
  -19.5754  -26.6394   21.5220 C   0  0  0  0  0  0
  -18.1935  -26.7932   22.1624 C   0  0  0  0  0  0
  -19.1546  -28.8867   23.2857 C   0  0  0  0  0  0
  -18.9467  -30.1463   23.8888 C   0  0  0  0  0  0
  -17.6467  -30.6588   24.0570 C   0  0  0  0  0  0
  -25.9050  -34.9452   23.5105 C   0  0  0  0  0  0
  -16.5360  -29.9096   23.6326 C   0  0  0  0  0  0
  -16.7283  -28.6523   23.0325 C   0  0  0  0  0  0
  -26.4472  -31.6581   25.0694 C   0  0  0  0  0  0
  -25.3706  -31.3722   26.1424 C   0  0  0  0  0  0
  -27.0307  -30.3012   24.6126 C   0  0  0  0  0  0
  -27.6029  -32.4322   25.7460 C   0  0  0  0  0  0
  -27.5582  -37.1804   24.8467 C   0  0  0  0  0  0
  -21.4216  -29.3044   22.3673 N   0  0  0  0  0  0
  -26.4291  -37.3786   23.9422 N   0  0  0  0  0  0
  -24.6959  -31.0515   22.0935 N   0  0  0  0  0  0
  -23.4210  -28.8127   23.3008 O   0  0  0  0  0  0
  -28.3119  -26.3758   20.1558 O   0  0  0  0  0  0
  -26.5643  -34.8932   22.4684 O   0  0  0  0  0  0
  -23.5443  -32.1372   23.7248 O   0  0  0  0  0  0
  -31.3528  -17.6307   21.5032 C   0  0  0  0  0  0
  -31.7087  -18.9750   21.7296 C   0  0  0  0  0  0
  -30.1552  -17.2959   20.8367 C   0  0  0  0  0  0
  -29.6589  -19.8252   20.6505 C   0  0  0  0  0  0
  -30.8991  -20.0481   21.3034 C   0  0  0  0  0  0
  -29.3144  -18.4190   20.4314 C   0  0  0  0  0  0
  -28.6155  -23.6346   19.9920 C   0  0  0  0  0  0
  -28.1177  -24.9967   20.7223 C   0  0  0  0  0  0
  -28.7093  -22.2483   20.8364 C   0  0  0  0  0  0
  -29.8080  -15.8596   20.6645 N   0  0  0  0  0  0
  -28.8715  -20.9191   20.1583 O   0  0  0  0  0  0
  -31.3738  -21.3012   21.4936 F   0  0  0  0  0  0
  -27.8239  -18.0597   19.6332 Cl  0  0  0  0  0  0
  -31.4705  -12.5994   19.1469 H   0  0  0  0  0  0
  -30.3978  -11.4780   19.9385 H   0  0  0  0  0  0
  -29.7849  -11.7271   17.5137 H   0  0  0  0  0  0
  -29.6222  -13.4537   17.7089 H   0  0  0  0  0  0
  -27.8957  -11.2742   18.9196 H   0  0  0  0  0  0
  -27.3690  -12.5037   17.8022 H   0  0  0  0  0  0
  -27.6367  -14.2468   19.4665 H   0  0  0  0  0  0
  -28.7228  -12.1451   21.4065 H   0  0  0  0  0  0
  -28.4199  -13.8195   21.7996 H   0  0  0  0  0  0
  -25.2767   -9.5673   22.4767 H   0  0  0  0  0  0
  -23.9997   -7.4631   22.7476 H   0  0  0  0  0  0
  -21.0849   -8.8785   19.8956 H   0  0  0  0  0  0
  -22.3712  -10.9679   19.6174 H   0  0  0  0  0  0
  -21.2000   -7.6149   23.9718 H   0  0  0  0  0  0
  -21.1471   -6.0522   25.9074 H   0  0  0  0  0  0
  -22.0604   -2.7616   23.2847 H   0  0  0  0  0  0
  -22.4070  -11.9856   22.4791 H   0  0  0  0  0  0
  -21.1091  -13.1239   22.2646 H   0  0  0  0  0  0
  -24.6419  -15.8360   20.5071 H   0  0  0  0  0  0
  -26.2449  -15.6346   20.0297 H   0  0  0  0  0  0
  -26.7163  -32.5425   23.1052 H   0  0  0  0  0  0
  -24.9995  -33.9690   25.0357 H   0  0  0  0  0  0
  -22.7246  -31.2952   21.3900 H   0  0  0  0  0  0
  -23.3747  -35.9629   23.3304 H   0  0  0  0  0  0
  -24.3581  -36.8931   22.2062 H   0  0  0  0  0  0
  -23.7232  -37.6500   23.6668 H   0  0  0  0  0  0
  -26.0958  -31.5275   20.5944 H   0  0  0  0  0  0
  -26.8530  -30.8345   21.9963 H   0  0  0  0  0  0
  -28.1198  -28.9313   21.2185 H   0  0  0  0  0  0
  -26.0091  -25.8980   19.0035 H   0  0  0  0  0  0
  -23.9931  -27.3032   18.9785 H   0  0  0  0  0  0
  -23.7784  -30.5833   19.4010 H   0  0  0  0  0  0
  -22.7671  -29.2411   19.8445 H   0  0  0  0  0  0
  -25.1285  -36.1947   25.0830 H   0  0  0  0  0  0
  -20.9967  -28.3272   24.1409 H   0  0  0  0  0  0
  -20.5703  -26.2305   23.3613 H   0  0  0  0  0  0
  -21.6640  -26.7464   22.1192 H   0  0  0  0  0  0
  -19.6931  -25.6315   21.1234 H   0  0  0  0  0  0
  -19.6690  -27.3216   20.6755 H   0  0  0  0  0  0
  -17.4206  -26.6678   21.4025 H   0  0  0  0  0  0
  -18.0324  -26.0091   22.9036 H   0  0  0  0  0  0
  -19.7954  -30.7272   24.2240 H   0  0  0  0  0  0
  -17.5037  -31.6260   24.5183 H   0  0  0  0  0  0
  -15.5361  -30.2992   23.7661 H   0  0  0  0  0  0
  -15.8687  -28.0862   22.6997 H   0  0  0  0  0  0
  -24.5871  -30.7078   25.7760 H   0  0  0  0  0  0
  -24.8887  -32.2889   26.4845 H   0  0  0  0  0  0
  -25.8022  -30.8909   27.0205 H   0  0  0  0  0  0
  -26.2863  -29.6774   24.1164 H   0  0  0  0  0  0
  -27.4054  -29.7253   25.4591 H   0  0  0  0  0  0
  -27.8712  -30.4318   23.9299 H   0  0  0  0  0  0
  -27.2635  -33.3641   26.1991 H   0  0  0  0  0  0
  -28.3842  -32.6855   25.0283 H   0  0  0  0  0  0
  -28.0679  -31.8475   26.5410 H   0  0  0  0  0  0
  -28.2584  -38.0112   24.7523 H   0  0  0  0  0  0
  -28.1086  -36.2647   24.6264 H   0  0  0  0  0  0
  -27.2308  -37.1424   25.8869 H   0  0  0  0  0  0
  -20.9417  -29.8796   21.6900 H   0  0  0  0  0  0
  -26.0176  -38.2861   24.1433 H   0  0  0  0  0  0
  -32.0177  -16.8580   21.8632 H   0  0  0  0  0  0
  -32.6400  -19.1917   22.2331 H   0  0  0  0  0  0
  -29.5998  -23.8218   19.5658 H   0  0  0  0  0  0
  -27.9596  -23.4639   19.1376 H   0  0  0  0  0  0
  -28.6263  -25.0306   21.6861 H   0  0  0  0  0  0
  -27.0672  -24.8600   20.9831 H   0  0  0  0  0  0
  -27.7680  -22.1576   21.3794 H   0  0  0  0  0  0
  -29.4408  -22.3917   21.6242 H   0  0  0  0  0  0
  -28.8189  -15.6646   20.6719 H   0  0  0  0  0  0
  1 25  1  0  0  0
  1 30  2  0  0  0
  1 80  1  0  0  0
  2  3  1  0  0  0
  2 25  1  0  0  0
  2 84  1  0  0  0
  2 85  1  0  0  0
  3  4  1  0  0  0
  3 86  1  0  0  0
  3 87  1  0  0  0
  4  5  1  0  0  0
  4 88  1  0  0  0
  4 89  1  0  0  0
  5  6  1  0  0  0
  5 26  1  0  0  0
  5 90  1  0  0  0
  6 25  1  0  0  0
  6 91  1  0  0  0
  6 92  1  0  0  0
  7  8  2  0  0  0
  7 26  1  0  0  0
  7 29  1  0  0  0
  8  9  1  0  0  0
  8 22  1  0  0  0
  9 10  1  0  0  0
  9 27  2  0  0  0
 10 11  2  0  0  0
 10 15  1  0  0  0
 11 12  1  0  0  0
 11 93  1  0  0  0
 12 13  2  0  0  0
 12 94  1  0  0  0
 13 14  1  0  0  0
 13 31  1  0  0  0
 14 15  2  0  0  0
 14 95  1  0  0  0
 15 96  1  0  0  0
 16 17  2  0  0  0
 16 21  1  0  0  0
 16 31  1  0  0  0
 17 18  1  0  0  0
 17 97  1  0  0  0
 18 19  2  0  0  0
 18 98  1  0  0  0
 19 20  1  0  0  0
 19 24  1  0  0  0
 20 21  2  0  0  0
 20 99  1  0  0  0
 21 23  1  0  0  0
 22 28  1  0  0  0
 22 32  2  0  0  0
 26 27  1  0  0  0
 28100  1  0  0  0
 28101  1  0  0  0
 29102  1  0  0  0
 29103  1  0  0  0
 33 34  1  0  0  0
 33 66  1  0  0  0
 33 70  2  0  0  0
 34 36  1  0  0  0
 34 59  1  0  0  0
 34104  1  0  0  0
 35 44  2  0  0  0
 35 45  1  0  0  0
 35 68  1  0  0  0
 36 56  1  0  0  0
 36105  1  0  0  0
 37 39  1  0  0  0
 37 47  1  0  0  0
 37 66  1  0  0  0
 37106  1  0  0  0
 38 43  2  0  0  0
 38 46  1  0  0  0
 38 47  1  0  0  0
 39 64  1  0  0  0
 39 67  2  0  0  0
 40 52  1  0  0  0
 40 53  2  0  0  0
 40 58  1  0  0  0
 41107  1  0  0  0
 41108  1  0  0  0
 41109  1  0  0  0
 41 48  1  0  0  0
 42 43  1  0  0  0
 42 66  1  0  0  0
 42110  1  0  0  0
 42111  1  0  0  0
 43 44  1  0  0  0
 44112  1  0  0  0
 45 46  2  0  0  0
 45113  1  0  0  0
 46114  1  0  0  0
 47115  1  0  0  0
 47116  1  0  0  0
 48 56  1  0  0  0
 48 65  1  0  0  0
 48117  1  0  0  0
 49 50  1  0  0  0
 49 53  1  0  0  0
 49 64  1  0  0  0
 49118  1  0  0  0
 50 51  1  0  0  0
 50119  1  0  0  0
 50120  1  0  0  0
 51 52  1  0  0  0
 51121  1  0  0  0
 51122  1  0  0  0
 52123  1  0  0  0
 52124  1  0  0  0
 53 54  1  0  0  0
 54 55  2  0  0  0
 54125  1  0  0  0
 55 57  1  0  0  0
 55126  1  0  0  0
 56 69  2  0  0  0
 57 58  2  0  0  0
 57127  1  0  0  0
 58128  1  0  0  0
 59 60  1  0  0  0
 59 61  1  0  0  0
 59 62  1  0  0  0
 60129  1  0  0  0
 60130  1  0  0  0
 60131  1  0  0  0
 61132  1  0  0  0
 61133  1  0  0  0
 61134  1  0  0  0
 62135  1  0  0  0
 62136  1  0  0  0
 62137  1  0  0  0
 63 65  1  0  0  0
 63138  1  0  0  0
 63139  1  0  0  0
 63140  1  0  0  0
 64141  1  0  0  0
 65142  1  0  0  0
 68 78  1  0  0  0
 71 72  2  0  0  0
 71 73  1  0  0  0
 71143  1  0  0  0
 72 75  1  0  0  0
 72144  1  0  0  0
 73 76  2  0  0  0
 73 80  1  0  0  0
 74 75  2  0  0  0
 74 76  1  0  0  0
 74 81  1  0  0  0
 75 82  1  0  0  0
 76 83  1  0  0  0
 77 78  1  0  0  0
 77 79  1  0  0  0
 77145  1  0  0  0
 77146  1  0  0  0
 78147  1  0  0  0
 78148  1  0  0  0
 79 81  1  0  0  0
 79149  1  0  0  0
 79150  1  0  0  0
 80151  1  0  0  0
M  ISO  4   1 100  68 101  78 101  80 100
M  END
> <chiral flag>
0

> <version>
0

> <s_m_source_file>
/data/baiqing/PycharmProjects/Reinvent-master-3.2/result/LINK_invent/BTK/process_docking_weight1_custom_sum_contain_oxygen_bond_distance_aromatic_linkinvent_7_9_3/rearranged_h_0013.sdf

> <i_m_source_file_index>
54

> <r_mmod_Potential_Energy-OPLS-2005>
192.271575927734

> <r_mmod_Stretch_Energy-OPLS-2005>
126.502326965332

> <r_mmod_Bend_Energy-OPLS-2005>
168.957397460938

> <r_mmod_Torsional_Energy-OPLS-2005>
249.421981811523

> <r_mmod_Improper_Torsional_Energy-OPLS-2005>
6.16399955749512

> <r_mmod_Van_der_Waal_Energy-OPLS-2005>
136.738082885742

> <r_mmod_Electrostatic_Energy-OPLS-2005>
-376.349029541016

> <r_mmod_Solvation_Energy-OPLS-2005>
-200.685516357422

> <b_mmod_Minimization_Converged-OPLS-2005>
0

> <r_mmod_RMS_Derivative-OPLS-2005>
1.90946519374847

$$$$
54
                    3D
 Structure written by MMmdl.
157165  0  0  1  0            999 V2000
  -30.5683  -14.7681   20.4833 C   0  0  0  0  0  0
  -30.4491  -12.4693   19.4772 C   0  0  0  0  0  0
  -29.5212  -12.4827   18.2417 C   0  0  0  0  0  0
  -28.0471  -12.2958   18.6561 C   0  0  0  0  0  0
  -27.6420  -13.2149   19.8387 C   0  0  2  0  0  0
  -28.6820  -13.1521   20.9750 C   0  0  0  0  0  0
  -25.2552  -13.8160   20.5649 C   0  0  0  0  0  0
  -24.1828  -13.0447   20.9175 C   0  0  0  0  0  0
  -24.6388  -11.6908   20.8722 C   0  0  0  0  0  0
  -23.9058  -10.4303   21.0396 C   0  0  0  0  0  0
  -24.3618   -9.4221   21.9171 C   0  0  0  0  0  0
  -23.6289   -8.2264   22.0753 C   0  0  0  0  0  0
  -22.4262   -8.0302   21.3554 C   0  0  0  0  0  0
  -21.9898   -9.0263   20.4647 C   0  0  0  0  0  0
  -22.7228  -10.2137   20.3054 C   0  0  0  0  0  0
  -21.6852   -6.0744   22.5271 C   0  0  0  0  0  0
  -21.4010   -6.5641   23.8205 C   0  0  0  0  0  0
  -21.3649   -5.6790   24.9167 C   0  0  0  0  0  0
  -21.6047   -4.3058   24.7209 C   0  0  0  0  0  0
  -21.8824   -3.8151   23.4330 C   0  0  0  0  0  0
  -21.9192   -4.6972   22.3390 C   0  0  0  0  0  0
  -22.7856  -13.5254   21.1821 C   0  0  0  0  0  0
  -22.1665   -4.2162   21.0968 F   0  0  0  0  0  0
  -21.5620   -3.4537   25.7717 F   0  0  0  0  0  0
  -29.9783  -13.5270   20.3963 N   0  0  0  0  0  0
  -26.2949  -12.9327   20.3204 N   0  0  0  0  0  0
  -25.9309  -11.6497   20.5718 N   0  0  0  0  0  0
  -22.0496  -12.8261   22.0378 N   0  0  0  0  0  0
  -25.4270  -15.1890   20.4063 N   0  0  0  0  0  0
  -31.7658  -14.9043   20.2180 O   0  0  0  0  0  0
  -21.6634   -6.8892   21.4239 O   0  0  0  0  0  0
  -22.3548  -14.5557   20.6650 O   0  0  0  0  0  0
  -24.6279  -31.8551   23.1958 C   0  0  0  0  0  0
  -25.9087  -32.4758   23.8355 C   0  0  1  0  0  0
  -27.2254  -27.2599   20.1491 C   0  0  0  0  0  0
  -25.5903  -33.8569   24.2255 N   0  0  0  0  0  0
  -23.4269  -30.4718   21.5397 C   0  0  2  0  0  0
  -24.8795  -28.9208   20.1118 C   0  0  0  0  0  0
  -22.7485  -29.4554   22.4905 C   0  0  0  0  0  0
  -18.0299  -28.1347   22.8459 C   0  0  0  0  0  0
  -24.1486  -36.7303   23.2641 C   0  0  0  0  0  0
  -25.9717  -30.7752   21.3736 C   0  0  0  0  0  0
  -26.0519  -29.3936   20.7189 C   0  0  0  0  0  0
  -27.2294  -28.5774   20.7206 C   0  0  0  0  0  0
  -26.0343  -26.8535   19.5127 C   0  0  0  0  0  0
  -24.8783  -27.6586   19.4943 C   0  0  0  0  0  0
  -23.6491  -29.8072   20.1556 C   0  0  0  0  0  0
  -25.4111  -36.3068   24.0325 C   0  0  1  0  0  0
  -20.5900  -28.3655   23.1249 C   0  0  2  0  0  0
  -20.6769  -26.9368   22.5386 C   0  0  0  0  0  0
  -19.5758  -26.6347   21.5168 C   0  0  0  0  0  0
  -18.1938  -26.7887   22.1591 C   0  0  0  0  0  0
  -19.1555  -28.8819   23.2831 C   0  0  0  0  0  0
  -18.9483  -30.1432   23.8846 C   0  0  0  0  0  0
  -17.6476  -30.6548   24.0549 C   0  0  0  0  0  0
  -25.9045  -34.9438   23.5086 C   0  0  0  0  0  0
  -16.5361  -29.9057   23.6290 C   0  0  0  0  0  0
  -16.7288  -28.6474   23.0312 C   0  0  0  0  0  0
  -26.4479  -31.6601   25.0745 C   0  0  0  0  0  0
  -25.3699  -31.3775   26.1454 C   0  0  0  0  0  0
  -27.0350  -30.3030   24.6242 C   0  0  0  0  0  0
  -27.6028  -32.4378   25.7504 C   0  0  0  0  0  0
  -27.5572  -37.1788   24.8455 C   0  0  0  0  0  0
  -21.4195  -29.3024   22.3657 N   0  0  0  0  0  0
  -26.4289  -37.3752   23.9395 N   0  0  0  0  0  0
  -24.6944  -31.0525   22.0926 N   0  0  0  0  0  0
  -23.4180  -28.8069   23.2980 O   0  0  0  0  0  0
  -28.3193  -26.3668   20.1635 O   0  0  0  0  0  0
  -26.5624  -34.8896   22.4654 O   0  0  0  0  0  0
  -23.5419  -32.1413   23.7204 O   0  0  0  0  0  0
  -29.6209  -18.4529   20.2996 C   0  0  0  0  0  0
  -29.8706  -18.7602   23.0424 C   0  0  0  0  0  0
  -29.5278  -19.8047   20.8478 C   0  0  0  0  0  0
  -29.8979  -17.4507   22.5055 C   0  0  0  0  0  0
  -29.8277  -17.2468   21.0981 C   0  0  0  0  0  0
  -29.6916  -19.9092   22.2450 C   0  0  0  0  0  0
  -28.7286  -23.7113   19.9718 C   0  0  0  0  0  0
  -28.4641  -15.8909   23.9009 C   0  0  0  0  0  0
  -29.8945  -16.2920   23.4979 C   0  0  0  0  0  0
  -29.2680  -21.1238   19.9765 C   0  0  0  0  0  0
  -28.1205  -24.9869   20.7386 C   0  0  0  0  0  0
  -29.7035  -15.8544   20.5858 N   0  0  0  0  0  0
  -28.8765  -22.4748   20.5889 N   0  0  0  0  0  0
  -29.0324  -23.8372   18.7836 O   0  0  0  0  0  0
  -29.6445  -21.1206   22.8523 F   0  0  0  0  0  0
  -31.4856  -12.6279   19.1750 H   0  0  0  0  0  0
  -30.4246  -11.4995   19.9770 H   0  0  0  0  0  0
  -29.8172  -11.6923   17.5505 H   0  0  0  0  0  0
  -29.6353  -13.4235   17.7017 H   0  0  0  0  0  0
  -27.9268  -11.2517   18.9492 H   0  0  0  0  0  0
  -27.3859  -12.4522   17.8031 H   0  0  0  0  0  0
  -27.6357  -14.2273   19.4358 H   0  0  0  0  0  0
  -28.7252  -12.1537   21.4138 H   0  0  0  0  0  0
  -28.4020  -13.8244   21.7861 H   0  0  0  0  0  0
  -25.2775   -9.5691   22.4719 H   0  0  0  0  0  0
  -23.9994   -7.4664   22.7480 H   0  0  0  0  0  0
  -21.0827   -8.8781   19.8955 H   0  0  0  0  0  0
  -22.3698  -10.9666   19.6150 H   0  0  0  0  0  0
  -21.2007   -7.6150   23.9709 H   0  0  0  0  0  0
  -21.1457   -6.0522   25.9068 H   0  0  0  0  0  0
  -22.0609   -2.7620   23.2820 H   0  0  0  0  0  0
  -22.4118  -11.9937   22.4787 H   0  0  0  0  0  0
  -21.1117  -13.1283   22.2563 H   0  0  0  0  0  0
  -24.6560  -15.8379   20.5158 H   0  0  0  0  0  0
  -26.2650  -15.6313   20.0519 H   0  0  0  0  0  0
  -26.7172  -32.5426   23.1126 H   0  0  0  0  0  0
  -25.0063  -33.9751   25.0402 H   0  0  0  0  0  0
  -22.7218  -31.2918   21.3901 H   0  0  0  0  0  0
  -23.3735  -35.9641   23.3300 H   0  0  0  0  0  0
  -24.3599  -36.8940   22.2060 H   0  0  0  0  0  0
  -23.7250  -37.6505   23.6691 H   0  0  0  0  0  0
  -26.1041  -31.5410   20.6075 H   0  0  0  0  0  0
  -26.8480  -30.8307   22.0083 H   0  0  0  0  0  0
  -28.1345  -28.9324   21.1940 H   0  0  0  0  0  0
  -25.9968  -25.8848   19.0327 H   0  0  0  0  0  0
  -23.9840  -27.2932   19.0072 H   0  0  0  0  0  0
  -23.7721  -30.5869   19.4021 H   0  0  0  0  0  0
  -22.7691  -29.2415   19.8457 H   0  0  0  0  0  0
  -25.1273  -36.1925   25.0817 H   0  0  0  0  0  0
  -20.9996  -28.3234   24.1371 H   0  0  0  0  0  0
  -20.5610  -26.2268   23.3591 H   0  0  0  0  0  0
  -21.6634  -26.7331   22.1217 H   0  0  0  0  0  0
  -19.6893  -25.6240   21.1232 H   0  0  0  0  0  0
  -19.6701  -27.3127   20.6666 H   0  0  0  0  0  0
  -17.4177  -26.6620   21.4018 H   0  0  0  0  0  0
  -18.0350  -26.0032   22.8987 H   0  0  0  0  0  0
  -19.7968  -30.7245   24.2187 H   0  0  0  0  0  0
  -17.5031  -31.6214   24.5176 H   0  0  0  0  0  0
  -15.5353  -30.2929   23.7639 H   0  0  0  0  0  0
  -15.8689  -28.0779   22.7013 H   0  0  0  0  0  0
  -24.5860  -30.7129   25.7791 H   0  0  0  0  0  0
  -24.8890  -32.2957   26.4856 H   0  0  0  0  0  0
  -25.7987  -30.8980   27.0255 H   0  0  0  0  0  0
  -26.2967  -29.6758   24.1232 H   0  0  0  0  0  0
  -27.4013  -29.7301   25.4767 H   0  0  0  0  0  0
  -27.8830  -30.4324   23.9508 H   0  0  0  0  0  0
  -27.2647  -33.3698   26.2043 H   0  0  0  0  0  0
  -28.3836  -32.6926   25.0324 H   0  0  0  0  0  0
  -28.0698  -31.8548   26.5441 H   0  0  0  0  0  0
  -28.2547  -38.0114   24.7489 H   0  0  0  0  0  0
  -28.1107  -36.2635   24.6290 H   0  0  0  0  0  0
  -27.2308  -37.1442   25.8864 H   0  0  0  0  0  0
  -20.9340  -29.8868   21.6997 H   0  0  0  0  0  0
  -26.0170  -38.2816   24.1423 H   0  0  0  0  0  0
  -29.4961  -18.3386   19.2316 H   0  0  0  0  0  0
  -29.9267  -18.8994   24.1135 H   0  0  0  0  0  0
  -28.4639  -15.0081   24.5431 H   0  0  0  0  0  0
  -27.8474  -15.6668   23.0287 H   0  0  0  0  0  0
  -27.9648  -16.6921   24.4479 H   0  0  0  0  0  0
  -30.4497  -16.5906   24.3885 H   0  0  0  0  0  0
  -30.4319  -15.4314   23.1051 H   0  0  0  0  0  0
  -28.4921  -20.8667   19.2536 H   0  0  0  0  0  0
  -30.1657  -21.2952   19.3843 H   0  0  0  0  0  0
  -27.0606  -24.7938   20.9001 H   0  0  0  0  0  0
  -28.5569  -24.9939   21.7366 H   0  0  0  0  0  0
  -28.7478  -15.5383   20.5526 H   0  0  0  0  0  0
  -28.6670  -22.4419   21.5805 H   0  0  0  0  0  0
  1 25  1  0  0  0
  1 30  2  0  0  0
  1 82  1  0  0  0
  2  3  1  0  0  0
  2 25  1  0  0  0
  2 86  1  0  0  0
  2 87  1  0  0  0
  3  4  1  0  0  0
  3 88  1  0  0  0
  3 89  1  0  0  0
  4  5  1  0  0  0
  4 90  1  0  0  0
  4 91  1  0  0  0
  5  6  1  0  0  0
  5 26  1  0  0  0
  5 92  1  0  0  0
  6 25  1  0  0  0
  6 93  1  0  0  0
  6 94  1  0  0  0
  7  8  2  0  0  0
  7 26  1  0  0  0
  7 29  1  0  0  0
  8  9  1  0  0  0
  8 22  1  0  0  0
  9 10  1  0  0  0
  9 27  2  0  0  0
 10 11  2  0  0  0
 10 15  1  0  0  0
 11 12  1  0  0  0
 11 95  1  0  0  0
 12 13  2  0  0  0
 12 96  1  0  0  0
 13 14  1  0  0  0
 13 31  1  0  0  0
 14 15  2  0  0  0
 14 97  1  0  0  0
 15 98  1  0  0  0
 16 17  2  0  0  0
 16 21  1  0  0  0
 16 31  1  0  0  0
 17 18  1  0  0  0
 17 99  1  0  0  0
 18 19  2  0  0  0
 18100  1  0  0  0
 19 20  1  0  0  0
 19 24  1  0  0  0
 20 21  2  0  0  0
 20101  1  0  0  0
 21 23  1  0  0  0
 22 28  1  0  0  0
 22 32  2  0  0  0
 26 27  1  0  0  0
 28102  1  0  0  0
 28103  1  0  0  0
 29104  1  0  0  0
 29105  1  0  0  0
 33 34  1  0  0  0
 33 66  1  0  0  0
 33 70  2  0  0  0
 34 36  1  0  0  0
 34 59  1  0  0  0
 34106  1  0  0  0
 35 44  2  0  0  0
 35 45  1  0  0  0
 35 68  1  0  0  0
 36 56  1  0  0  0
 36107  1  0  0  0
 37 39  1  0  0  0
 37 47  1  0  0  0
 37 66  1  0  0  0
 37108  1  0  0  0
 38 43  2  0  0  0
 38 46  1  0  0  0
 38 47  1  0  0  0
 39 64  1  0  0  0
 39 67  2  0  0  0
 40 52  1  0  0  0
 40 53  2  0  0  0
 40 58  1  0  0  0
 41109  1  0  0  0
 41110  1  0  0  0
 41111  1  0  0  0
 41 48  1  0  0  0
 42 43  1  0  0  0
 42 66  1  0  0  0
 42112  1  0  0  0
 42113  1  0  0  0
 43 44  1  0  0  0
 44114  1  0  0  0
 45 46  2  0  0  0
 45115  1  0  0  0
 46116  1  0  0  0
 47117  1  0  0  0
 47118  1  0  0  0
 48 56  1  0  0  0
 48 65  1  0  0  0
 48119  1  0  0  0
 49 50  1  0  0  0
 49 53  1  0  0  0
 49 64  1  0  0  0
 49120  1  0  0  0
 50 51  1  0  0  0
 50121  1  0  0  0
 50122  1  0  0  0
 51 52  1  0  0  0
 51123  1  0  0  0
 51124  1  0  0  0
 52125  1  0  0  0
 52126  1  0  0  0
 53 54  1  0  0  0
 54 55  2  0  0  0
 54127  1  0  0  0
 55 57  1  0  0  0
 55128  1  0  0  0
 56 69  2  0  0  0
 57 58  2  0  0  0
 57129  1  0  0  0
 58130  1  0  0  0
 59 60  1  0  0  0
 59 61  1  0  0  0
 59 62  1  0  0  0
 60131  1  0  0  0
 60132  1  0  0  0
 60133  1  0  0  0
 61134  1  0  0  0
 61135  1  0  0  0
 61136  1  0  0  0
 62137  1  0  0  0
 62138  1  0  0  0
 62139  1  0  0  0
 63 65  1  0  0  0
 63140  1  0  0  0
 63141  1  0  0  0
 63142  1  0  0  0
 64143  1  0  0  0
 65144  1  0  0  0
 68 81  1  0  0  0
 71 73  2  0  0  0
 71 75  1  0  0  0
 71145  1  0  0  0
 72 74  1  0  0  0
 72 76  2  0  0  0
 72146  1  0  0  0
 73 76  1  0  0  0
 73 80  1  0  0  0
 74 75  2  0  0  0
 74 79  1  0  0  0
 75 82  1  0  0  0
 76 85  1  0  0  0
 77 81  1  0  0  0
 77 83  1  0  0  0
 77 84  2  0  0  0
 78 79  1  0  0  0
 78147  1  0  0  0
 78148  1  0  0  0
 78149  1  0  0  0
 79150  1  0  0  0
 79151  1  0  0  0
 80 83  1  0  0  0
 80152  1  0  0  0
 80153  1  0  0  0
 81154  1  0  0  0
 81155  1  0  0  0
 82156  1  0  0  0
 83157  1  0  0  0
M  ISO  4   1 100  68 101  81 101  82 100
M  END
> <chiral flag>
0

> <version>
0

> <s_m_source_file>
/data/baiqing/PycharmProjects/Reinvent-master-3.2/result/LINK_invent/BTK/process_docking_weight1_custom_sum_contain_oxygen_bond_distance_aromatic_linkinvent_7_9_3/rearranged_h_0013.sdf

> <i_m_source_file_index>
55

> <r_mmod_Potential_Energy-OPLS-2005>
133.311309814453

> <r_mmod_Stretch_Energy-OPLS-2005>
127.171897888184

> <r_mmod_Bend_Energy-OPLS-2005>
161.159866333008

> <r_mmod_Torsional_Energy-OPLS-2005>
262.156707763672

> <r_mmod_Improper_Torsional_Energy-OPLS-2005>
10.0377225875854

> <r_mmod_Van_der_Waal_Energy-OPLS-2005>
129.100524902344

> <r_mmod_Electrostatic_Energy-OPLS-2005>
-416.143981933594

> <r_mmod_Solvation_Energy-OPLS-2005>
-233.803405761719

> <b_mmod_Minimization_Converged-OPLS-2005>
0

> <r_mmod_RMS_Derivative-OPLS-2005>
4.02487754821777

$$$$
55
                    3D
 Structure written by MMmdl.
152160  0  0  1  0            999 V2000
  -30.6179  -14.7082   20.4480 C   0  0  0  0  0  0
  -30.4247  -12.4219   19.4866 C   0  0  0  0  0  0
  -29.5091  -12.5004   18.2449 C   0  0  0  0  0  0
  -28.0337  -12.3302   18.6517 C   0  0  0  0  0  0
  -27.6423  -13.2286   19.8551 C   0  0  2  0  0  0
  -28.6827  -13.1522   20.9950 C   0  0  0  0  0  0
  -25.2503  -13.8213   20.5683 C   0  0  0  0  0  0
  -24.1788  -13.0464   20.9198 C   0  0  0  0  0  0
  -24.6375  -11.6935   20.8750 C   0  0  0  0  0  0
  -23.9056  -10.4305   21.0418 C   0  0  0  0  0  0
  -24.3611   -9.4214   21.9185 C   0  0  0  0  0  0
  -23.6292   -8.2246   22.0751 C   0  0  0  0  0  0
  -22.4276   -8.0281   21.3542 C   0  0  0  0  0  0
  -21.9914   -9.0254   20.4643 C   0  0  0  0  0  0
  -22.7237  -10.2136   20.3054 C   0  0  0  0  0  0
  -21.6853   -6.0741   22.5279 C   0  0  0  0  0  0
  -21.4019   -6.5642   23.8216 C   0  0  0  0  0  0
  -21.3660   -5.6796   24.9179 C   0  0  0  0  0  0
  -21.6038   -4.3059   24.7227 C   0  0  0  0  0  0
  -21.8819   -3.8153   23.4352 C   0  0  0  0  0  0
  -21.9193   -4.6968   22.3408 C   0  0  0  0  0  0
  -22.7808  -13.5235   21.1868 C   0  0  0  0  0  0
  -22.1654   -4.2153   21.0986 F   0  0  0  0  0  0
  -21.5632   -3.4542   25.7743 F   0  0  0  0  0  0
  -29.9950  -13.4828   20.4256 N   0  0  0  0  0  0
  -26.2927  -12.9404   20.3293 N   0  0  0  0  0  0
  -25.9303  -11.6555   20.5768 N   0  0  0  0  0  0
  -22.0463  -12.8206   22.0424 N   0  0  0  0  0  0
  -25.4235  -15.1924   20.4079 N   0  0  0  0  0  0
  -31.8020  -14.8050   20.1138 O   0  0  0  0  0  0
  -21.6644   -6.8878   21.4238 O   0  0  0  0  0  0
  -22.3480  -14.5543   20.6726 O   0  0  0  0  0  0
  -24.6303  -31.8576   23.2003 C   0  0  0  0  0  0
  -25.9135  -32.4768   23.8331 C   0  0  1  0  0  0
  -27.2105  -27.2638   20.1321 C   0  0  0  0  0  0
  -25.5931  -33.8565   24.2269 N   0  0  0  0  0  0
  -23.4268  -30.4843   21.5428 C   0  0  2  0  0  0
  -24.8724  -28.9363   20.1062 C   0  0  0  0  0  0
  -22.7512  -29.4619   22.4887 C   0  0  0  0  0  0
  -18.0306  -28.1383   22.8472 C   0  0  0  0  0  0
  -24.1496  -36.7282   23.2646 C   0  0  0  0  0  0
  -25.9721  -30.7745   21.3771 C   0  0  0  0  0  0
  -26.0436  -29.3963   20.7204 C   0  0  0  0  0  0
  -27.2158  -28.5713   20.7240 C   0  0  0  0  0  0
  -26.0178  -26.8829   19.4733 C   0  0  0  0  0  0
  -24.8642  -27.6875   19.4713 C   0  0  0  0  0  0
  -23.6444  -29.8239   20.1563 C   0  0  0  0  0  0
  -25.4120  -36.3073   24.0342 C   0  0  1  0  0  0
  -20.5910  -28.3699   23.1254 C   0  0  2  0  0  0
  -20.6800  -26.9415   22.5405 C   0  0  0  0  0  0
  -19.5779  -26.6386   21.5205 C   0  0  0  0  0  0
  -18.1953  -26.7925   22.1612 C   0  0  0  0  0  0
  -19.1555  -28.8858   23.2856 C   0  0  0  0  0  0
  -18.9477  -30.1455   23.8880 C   0  0  0  0  0  0
  -17.6476  -30.6575   24.0557 C   0  0  0  0  0  0
  -25.9061  -34.9445   23.5107 C   0  0  0  0  0  0
  -16.5370  -29.9080   23.6328 C   0  0  0  0  0  0
  -16.7290  -28.6503   23.0340 C   0  0  0  0  0  0
  -26.4498  -31.6583   25.0702 C   0  0  0  0  0  0
  -25.3713  -31.3735   26.1417 C   0  0  0  0  0  0
  -27.0356  -30.3018   24.6151 C   0  0  0  0  0  0
  -27.6063  -32.4312   25.7467 C   0  0  0  0  0  0
  -27.5581  -37.1797   24.8470 C   0  0  0  0  0  0
  -21.4217  -29.3045   22.3638 N   0  0  0  0  0  0
  -26.4290  -37.3777   23.9415 N   0  0  0  0  0  0
  -24.6958  -31.0568   22.0968 N   0  0  0  0  0  0
  -23.4221  -28.8151   23.2974 O   0  0  0  0  0  0
  -28.2896  -26.3509   20.2179 O   0  0  0  0  0  0
  -26.5628  -34.8922   22.4677 O   0  0  0  0  0  0
  -23.5457  -32.1380   23.7316 O   0  0  0  0  0  0
  -30.3264  -18.4967   18.0257 C   0  0  0  0  0  0
  -29.9370  -17.1714   20.0588 C   0  0  0  0  0  0
  -29.5897  -19.7207   20.0320 C   0  0  0  0  0  0
  -30.2908  -17.2580   18.6906 C   0  0  0  0  0  0
  -29.9977  -19.7026   18.6730 C   0  0  0  0  0  0
  -29.5692  -18.4236   20.7029 C   0  0  0  0  0  0
  -28.9550  -23.6804   20.5138 C   0  0  0  0  0  0
  -28.5638  -22.1705   20.0762 C   0  0  0  0  0  0
  -28.0137  -24.8885   19.9944 C   0  0  0  0  0  0
  -29.8580  -15.8351   20.6997 N   0  0  0  0  0  0
  -29.2812  -20.9812   20.6909 N   0  0  0  0  0  0
  -30.5598  -16.1415   17.9706 F   0  0  0  0  0  0
  -30.1095  -20.8517   17.9634 F   0  0  0  0  0  0
  -29.1830  -18.3819   22.0026 F   0  0  0  0  0  0
  -31.4710  -12.5261   19.1943 H   0  0  0  0  0  0
  -30.3448  -11.4433   19.9634 H   0  0  0  0  0  0
  -29.7867  -11.7342   17.5201 H   0  0  0  0  0  0
  -29.6431  -13.4630   17.7466 H   0  0  0  0  0  0
  -27.8828  -11.2799   18.9069 H   0  0  0  0  0  0
  -27.3784  -12.5298   17.8032 H   0  0  0  0  0  0
  -27.6431  -14.2508   19.4749 H   0  0  0  0  0  0
  -28.7024  -12.1546   21.4361 H   0  0  0  0  0  0
  -28.4193  -13.8370   21.8026 H   0  0  0  0  0  0
  -25.2758   -9.5697   22.4757 H   0  0  0  0  0  0
  -24.0007   -7.4639   22.7470 H   0  0  0  0  0  0
  -21.0849   -8.8766   19.8942 H   0  0  0  0  0  0
  -22.3692  -10.9671   19.6158 H   0  0  0  0  0  0
  -21.2009   -7.6146   23.9720 H   0  0  0  0  0  0
  -21.1480   -6.0528   25.9081 H   0  0  0  0  0  0
  -22.0596   -2.7614   23.2855 H   0  0  0  0  0  0
  -22.4087  -11.9851   22.4782 H   0  0  0  0  0  0
  -21.1076  -13.1211   22.2672 H   0  0  0  0  0  0
  -24.6583  -15.8508   20.5043 H   0  0  0  0  0  0
  -26.2765  -15.6242   20.0776 H   0  0  0  0  0  0
  -26.7211  -32.5431   23.1083 H   0  0  0  0  0  0
  -25.0070  -33.9704   25.0404 H   0  0  0  0  0  0
  -22.7218  -31.3060   21.4020 H   0  0  0  0  0  0
  -23.3748  -35.9620   23.3319 H   0  0  0  0  0  0
  -24.3596  -36.8886   22.2058 H   0  0  0  0  0  0
  -23.7251  -37.6494   23.6644 H   0  0  0  0  0  0
  -26.1048  -31.5356   20.6061 H   0  0  0  0  0  0
  -26.8535  -30.8296   22.0036 H   0  0  0  0  0  0
  -28.1078  -28.9145   21.2280 H   0  0  0  0  0  0
  -25.9367  -25.9338   18.9647 H   0  0  0  0  0  0
  -23.9692  -27.3331   18.9788 H   0  0  0  0  0  0
  -23.7719  -30.6038   19.4051 H   0  0  0  0  0  0
  -22.7609  -29.2617   19.8456 H   0  0  0  0  0  0
  -25.1302  -36.1933   25.0837 H   0  0  0  0  0  0
  -21.0012  -28.3288   24.1365 H   0  0  0  0  0  0
  -20.5736  -26.2297   23.3609 H   0  0  0  0  0  0
  -21.6668  -26.7463   22.1177 H   0  0  0  0  0  0
  -19.6952  -25.6301   21.1230 H   0  0  0  0  0  0
  -19.6713  -27.3200   20.6739 H   0  0  0  0  0  0
  -17.4227  -26.6665   21.4003 H   0  0  0  0  0  0
  -18.0344  -26.0062   22.9004 H   0  0  0  0  0  0
  -19.7965  -30.7259   24.2235 H   0  0  0  0  0  0
  -17.5051  -31.6259   24.5153 H   0  0  0  0  0  0
  -15.5376  -30.2977   23.7671 H   0  0  0  0  0  0
  -15.8690  -28.0832   22.7040 H   0  0  0  0  0  0
  -24.5904  -30.7065   25.7746 H   0  0  0  0  0  0
  -24.8861  -32.2895   26.4787 H   0  0  0  0  0  0
  -25.8017  -30.8955   27.0226 H   0  0  0  0  0  0
  -26.2934  -29.6752   24.1182 H   0  0  0  0  0  0
  -27.4093  -29.7294   25.4645 H   0  0  0  0  0  0
  -27.8782  -30.4345   23.9364 H   0  0  0  0  0  0
  -27.2699  -33.3641   26.2016 H   0  0  0  0  0  0
  -28.3873  -32.6826   25.0273 H   0  0  0  0  0  0
  -28.0711  -31.8427   26.5398 H   0  0  0  0  0  0
  -28.2595  -38.0100   24.7518 H   0  0  0  0  0  0
  -28.1082  -36.2623   24.6289 H   0  0  0  0  0  0
  -27.2293  -37.1437   25.8876 H   0  0  0  0  0  0
  -20.9389  -29.8781   21.6860 H   0  0  0  0  0  0
  -26.0168  -38.2854   24.1427 H   0  0  0  0  0  0
  -30.6114  -18.5209   16.9848 H   0  0  0  0  0  0
  -29.9780  -23.8749   20.1932 H   0  0  0  0  0  0
  -28.9803  -23.7262   21.6029 H   0  0  0  0  0  0
  -28.5783  -22.1129   18.9898 H   0  0  0  0  0  0
  -27.5123  -22.0362   20.3303 H   0  0  0  0  0  0
  -27.0391  -24.6716   20.4333 H   0  0  0  0  0  0
  -27.8979  -24.7541   18.9178 H   0  0  0  0  0  0
  -29.0142  -15.6722   21.2271 H   0  0  0  0  0  0
  -29.1087  -20.8615   21.6862 H   0  0  0  0  0  0
  1 25  1  0  0  0
  1 30  2  0  0  0
  1 80  1  0  0  0
  2  3  1  0  0  0
  2 25  1  0  0  0
  2 85  1  0  0  0
  2 86  1  0  0  0
  3  4  1  0  0  0
  3 87  1  0  0  0
  3 88  1  0  0  0
  4  5  1  0  0  0
  4 89  1  0  0  0
  4 90  1  0  0  0
  5  6  1  0  0  0
  5 26  1  0  0  0
  5 91  1  0  0  0
  6 25  1  0  0  0
  6 92  1  0  0  0
  6 93  1  0  0  0
  7  8  2  0  0  0
  7 26  1  0  0  0
  7 29  1  0  0  0
  8  9  1  0  0  0
  8 22  1  0  0  0
  9 10  1  0  0  0
  9 27  2  0  0  0
 10 11  2  0  0  0
 10 15  1  0  0  0
 11 12  1  0  0  0
 11 94  1  0  0  0
 12 13  2  0  0  0
 12 95  1  0  0  0
 13 14  1  0  0  0
 13 31  1  0  0  0
 14 15  2  0  0  0
 14 96  1  0  0  0
 15 97  1  0  0  0
 16 17  2  0  0  0
 16 21  1  0  0  0
 16 31  1  0  0  0
 17 18  1  0  0  0
 17 98  1  0  0  0
 18 19  2  0  0  0
 18 99  1  0  0  0
 19 20  1  0  0  0
 19 24  1  0  0  0
 20 21  2  0  0  0
 20100  1  0  0  0
 21 23  1  0  0  0
 22 28  1  0  0  0
 22 32  2  0  0  0
 26 27  1  0  0  0
 28101  1  0  0  0
 28102  1  0  0  0
 29103  1  0  0  0
 29104  1  0  0  0
 33 34  1  0  0  0
 33 66  1  0  0  0
 33 70  2  0  0  0
 34 36  1  0  0  0
 34 59  1  0  0  0
 34105  1  0  0  0
 35 44  2  0  0  0
 35 45  1  0  0  0
 35 68  1  0  0  0
 36 56  1  0  0  0
 36106  1  0  0  0
 37 39  1  0  0  0
 37 47  1  0  0  0
 37 66  1  0  0  0
 37107  1  0  0  0
 38 43  2  0  0  0
 38 46  1  0  0  0
 38 47  1  0  0  0
 39 64  1  0  0  0
 39 67  2  0  0  0
 40 52  1  0  0  0
 40 53  2  0  0  0
 40 58  1  0  0  0
 41108  1  0  0  0
 41109  1  0  0  0
 41110  1  0  0  0
 41 48  1  0  0  0
 42 43  1  0  0  0
 42 66  1  0  0  0
 42111  1  0  0  0
 42112  1  0  0  0
 43 44  1  0  0  0
 44113  1  0  0  0
 45 46  2  0  0  0
 45114  1  0  0  0
 46115  1  0  0  0
 47116  1  0  0  0
 47117  1  0  0  0
 48 56  1  0  0  0
 48 65  1  0  0  0
 48118  1  0  0  0
 49 50  1  0  0  0
 49 53  1  0  0  0
 49 64  1  0  0  0
 49119  1  0  0  0
 50 51  1  0  0  0
 50120  1  0  0  0
 50121  1  0  0  0
 51 52  1  0  0  0
 51122  1  0  0  0
 51123  1  0  0  0
 52124  1  0  0  0
 52125  1  0  0  0
 53 54  1  0  0  0
 54 55  2  0  0  0
 54126  1  0  0  0
 55 57  1  0  0  0
 55127  1  0  0  0
 56 69  2  0  0  0
 57 58  2  0  0  0
 57128  1  0  0  0
 58129  1  0  0  0
 59 60  1  0  0  0
 59 61  1  0  0  0
 59 62  1  0  0  0
 60130  1  0  0  0
 60131  1  0  0  0
 60132  1  0  0  0
 61133  1  0  0  0
 61134  1  0  0  0
 61135  1  0  0  0
 62136  1  0  0  0
 62137  1  0  0  0
 62138  1  0  0  0
 63 65  1  0  0  0
 63139  1  0  0  0
 63140  1  0  0  0
 63141  1  0  0  0
 64142  1  0  0  0
 65143  1  0  0  0
 68 79  1  0  0  0
 71 74  2  0  0  0
 71 75  1  0  0  0
 71144  1  0  0  0
 72 74  1  0  0  0
 72 76  2  0  0  0
 72 80  1  0  0  0
 73 75  2  0  0  0
 73 76  1  0  0  0
 73 81  1  0  0  0
 74 82  1  0  0  0
 75 83  1  0  0  0
 76 84  1  0  0  0
 77 78  1  0  0  0
 77 79  1  0  0  0
 77145  1  0  0  0
 77146  1  0  0  0
 78 81  1  0  0  0
 78147  1  0  0  0
 78148  1  0  0  0
 79149  1  0  0  0
 79150  1  0  0  0
 80151  1  0  0  0
 81152  1  0  0  0
M  ISO  4   1 100  68 101  79 101  80 100
M  END
> <chiral flag>
0

> <version>
0

> <s_m_source_file>
/data/baiqing/PycharmProjects/Reinvent-master-3.2/result/LINK_invent/BTK/process_docking_weight1_custom_sum_contain_oxygen_bond_distance_aromatic_linkinvent_7_9_3/rearranged_h_0013.sdf

> <i_m_source_file_index>
56

> <r_mmod_Potential_Energy-OPLS-2005>
139.255661010742

> <r_mmod_Stretch_Energy-OPLS-2005>
116.956077575684

> <r_mmod_Bend_Energy-OPLS-2005>
158.672592163086

> <r_mmod_Torsional_Energy-OPLS-2005>
232.234298706055

> <r_mmod_Improper_Torsional_Energy-OPLS-2005>
6.86407804489136

> <r_mmod_Van_der_Waal_Energy-OPLS-2005>
149.051116943359

> <r_mmod_Electrostatic_Energy-OPLS-2005>
-384.604187011719

> <r_mmod_Solvation_Energy-OPLS-2005>
-219.958740234375

> <b_mmod_Minimization_Converged-OPLS-2005>
0

> <r_mmod_RMS_Derivative-OPLS-2005>
2.131591796875

$$$$
56
                    3D
 Structure written by MMmdl.
144152  0  0  1  0            999 V2000
  -30.0953  -16.1334   20.2912 C   0  0  0  0  0  0
  -30.3811  -13.4612   19.5381 C   0  0  0  0  0  0
  -29.5663  -12.7953   18.3739 C   0  0  0  0  0  0
  -28.1833  -12.3278   18.8413 C   0  0  0  0  0  0
  -27.5815  -13.3610   19.8107 C   0  0  2  0  0  0
  -28.5630  -13.8937   20.8958 C   0  0  0  0  0  0
  -25.2244  -13.8357   20.5881 C   0  0  0  0  0  0
  -24.1684  -13.0435   20.9328 C   0  0  0  0  0  0
  -24.6460  -11.6971   20.8759 C   0  0  0  0  0  0
  -23.9168  -10.4296   21.0374 C   0  0  0  0  0  0
  -24.3684   -9.4206   21.9164 C   0  0  0  0  0  0
  -23.6332   -8.2254   22.0748 C   0  0  0  0  0  0
  -22.4310   -8.0295   21.3544 C   0  0  0  0  0  0
  -21.9967   -9.0271   20.4637 C   0  0  0  0  0  0
  -22.7324  -10.2136   20.3034 C   0  0  0  0  0  0
  -21.6864   -6.0747   22.5279 C   0  0  0  0  0  0
  -21.4022   -6.5645   23.8213 C   0  0  0  0  0  0
  -21.3663   -5.6796   24.9174 C   0  0  0  0  0  0
  -21.6046   -4.3059   24.7223 C   0  0  0  0  0  0
  -21.8816   -3.8152   23.4343 C   0  0  0  0  0  0
  -21.9195   -4.6971   22.3400 C   0  0  0  0  0  0
  -22.7682  -13.5123   21.1944 C   0  0  0  0  0  0
  -22.1662   -4.2157   21.0978 F   0  0  0  0  0  0
  -21.5629   -3.4540   25.7734 F   0  0  0  0  0  0
  -29.6476  -14.6759   20.2078 N   0  0  0  0  0  0
  -26.2760  -12.9794   20.3325 N   0  0  0  0  0  0
  -25.9428  -11.6803   20.5676 N   0  0  0  0  0  0
  -22.0361  -12.8085   22.0494 N   0  0  0  0  0  0
  -25.3751  -15.2109   20.4329 N   0  0  0  0  0  0
  -31.3439  -16.0043   20.2012 O   0  0  0  0  0  0
  -21.6658   -6.8899   21.4245 O   0  0  0  0  0  0
  -22.3341  -14.5415   20.6777 O   0  0  0  0  0  0
  -24.7152  -31.7589   23.1239 C   0  0  0  0  0  0
  -25.9569  -32.4259   23.7910 C   0  0  1  0  0  0
  -27.2406  -26.3532   20.2516 C   0  0  0  0  0  0
  -25.6004  -33.8110   24.1752 N   0  0  0  0  0  0
  -23.5570  -30.3444   21.4856 C   0  0  2  0  0  0
  -25.0170  -28.6098   20.1306 C   0  0  0  0  0  0
  -22.7906  -29.4091   22.4628 C   0  0  0  0  0  0
  -18.0354  -28.1431   22.8431 C   0  0  0  0  0  0
  -24.1501  -36.7071   23.2664 C   0  0  0  0  0  0
  -26.1494  -30.3743   21.4438 C   0  0  0  0  0  0
  -26.2084  -28.8991   20.8040 C   0  0  0  0  0  0
  -27.2840  -27.8100   20.8234 C   0  0  0  0  0  0
  -26.0163  -26.3642   19.5065 C   0  0  0  0  0  0
  -24.9801  -27.3713   19.4578 C   0  0  0  0  0  0
  -23.8299  -29.6082   20.1363 C   0  0  0  0  0  0
  -25.4167  -36.2781   24.0253 C   0  0  1  0  0  0
  -20.6003  -28.3805   23.1081 C   0  0  2  0  0  0
  -20.6800  -26.9432   22.5412 C   0  0  0  0  0  0
  -19.5787  -26.6350   21.5217 C   0  0  0  0  0  0
  -18.1967  -26.7950   22.1606 C   0  0  0  0  0  0
  -19.1627  -28.8950   23.2723 C   0  0  0  0  0  0
  -18.9526  -30.1524   23.8783 C   0  0  0  0  0  0
  -17.6511  -30.6603   24.0540 C   0  0  0  0  0  0
  -25.9161  -34.9175   23.4871 C   0  0  0  0  0  0
  -16.5398  -29.9078   23.6356 C   0  0  0  0  0  0
  -16.7331  -28.6505   23.0366 C   0  0  0  0  0  0
  -26.4647  -31.6448   25.0679 C   0  0  0  0  0  0
  -25.3627  -31.3861   26.1231 C   0  0  0  0  0  0
  -27.0636  -30.2745   24.6839 C   0  0  0  0  0  0
  -27.6025  -32.4402   25.7512 C   0  0  0  0  0  0
  -27.5552  -37.1699   24.8474 C   0  0  0  0  0  0
  -21.4523  -29.2984   22.3368 N   0  0  0  0  0  0
  -26.4272  -37.3572   23.9390 N   0  0  0  0  0  0
  -24.8347  -30.8686   22.0690 N   0  0  0  0  0  0
  -23.4191  -28.7752   23.3131 O   0  0  0  0  0  0
  -28.2092  -25.0120   20.2787 O   0  0  0  0  0  0
  -26.5864  -34.8817   22.4527 O   0  0  0  0  0  0
  -23.6100  -32.0832   23.5974 O   0  0  0  0  0  0
  -27.5642  -21.9704   20.0512 C   0  0  0  0  0  0
  -29.5866  -22.3288   20.4930 C   0  0  0  0  0  0
  -27.8508  -20.3931   20.0539 C   0  0  0  0  0  0
  -29.0874  -19.4772   20.2797 C   0  0  0  0  0  0
  -28.3699  -23.2673   20.2774 C   0  0  0  0  0  0
  -29.9114  -20.7625   20.5010 C   0  0  0  0  0  0
  -26.5989  -19.5944   19.7369 C   0  0  0  0  0  0
  -29.2855  -17.5987   20.2824 N   0  0  0  0  0  0
  -31.5686  -20.4224   20.8437 Cl  0  0  0  0  0  0
  -31.3262  -13.8022   19.1148 H   0  0  0  0  0  0
  -30.6736  -12.7157   20.2798 H   0  0  0  0  0  0
  -30.1221  -11.9613   17.9436 H   0  0  0  0  0  0
  -29.4423  -13.5256   17.5728 H   0  0  0  0  0  0
  -28.3000  -11.3741   19.3574 H   0  0  0  0  0  0
  -27.5221  -12.1475   17.9923 H   0  0  0  0  0  0
  -27.3794  -14.2156   19.1625 H   0  0  0  0  0  0
  -28.9382  -13.0930   21.5353 H   0  0  0  0  0  0
  -28.0377  -14.5780   21.5631 H   0  0  0  0  0  0
  -25.2815   -9.5679   22.4760 H   0  0  0  0  0  0
  -24.0025   -7.4647   22.7479 H   0  0  0  0  0  0
  -21.0894   -8.8801   19.8946 H   0  0  0  0  0  0
  -22.3775  -10.9678   19.6151 H   0  0  0  0  0  0
  -21.2018   -7.6153   23.9721 H   0  0  0  0  0  0
  -21.1490   -6.0525   25.9079 H   0  0  0  0  0  0
  -22.0592   -2.7614   23.2839 H   0  0  0  0  0  0
  -22.4020  -11.9774   22.4899 H   0  0  0  0  0  0
  -21.0956  -13.1055   22.2682 H   0  0  0  0  0  0
  -24.5998  -15.8546   20.5469 H   0  0  0  0  0  0
  -26.2138  -15.6546   20.0858 H   0  0  0  0  0  0
  -26.7684  -32.4643   23.0641 H   0  0  0  0  0  0
  -24.9974  -33.9092   24.9786 H   0  0  0  0  0  0
  -22.9017  -31.1898   21.2659 H   0  0  0  0  0  0
  -23.3800  -35.9360   23.3224 H   0  0  0  0  0  0
  -24.3557  -36.8870   22.2101 H   0  0  0  0  0  0
  -23.7224  -37.6186   23.6849 H   0  0  0  0  0  0
  -26.3895  -31.0733   20.6419 H   0  0  0  0  0  0
  -26.9880  -30.4546   22.1222 H   0  0  0  0  0  0
  -28.1780  -28.0568   21.3779 H   0  0  0  0  0  0
  -25.8046  -25.4567   18.9594 H   0  0  0  0  0  0
  -24.0943  -27.1363   18.8838 H   0  0  0  0  0  0
  -24.0336  -30.3530   19.3664 H   0  0  0  0  0  0
  -22.9279  -29.0916   19.8044 H   0  0  0  0  0  0
  -25.1401  -36.1503   25.0744 H   0  0  0  0  0  0
  -21.0062  -28.3453   24.1218 H   0  0  0  0  0  0
  -20.5619  -26.2440   23.3705 H   0  0  0  0  0  0
  -21.6661  -26.7313   22.1260 H   0  0  0  0  0  0
  -19.6941  -25.6233   21.1315 H   0  0  0  0  0  0
  -19.6744  -27.3103   20.6704 H   0  0  0  0  0  0
  -17.4239  -26.6690   21.4006 H   0  0  0  0  0  0
  -18.0341  -26.0117   22.9026 H   0  0  0  0  0  0
  -19.8001  -30.7362   24.2112 H   0  0  0  0  0  0
  -17.5060  -31.6271   24.5163 H   0  0  0  0  0  0
  -15.5395  -30.2943   23.7744 H   0  0  0  0  0  0
  -15.8732  -28.0788   22.7145 H   0  0  0  0  0  0
  -24.5863  -30.7159   25.7525 H   0  0  0  0  0  0
  -24.8763  -32.3108   26.4347 H   0  0  0  0  0  0
  -25.7728  -30.9229   27.0215 H   0  0  0  0  0  0
  -26.3418  -29.6238   24.1894 H   0  0  0  0  0  0
  -27.3980  -29.7349   25.5712 H   0  0  0  0  0  0
  -27.9430  -30.3790   24.0482 H   0  0  0  0  0  0
  -27.2515  -33.3819   26.1747 H   0  0  0  0  0  0
  -28.3999  -32.6778   25.0458 H   0  0  0  0  0  0
  -28.0513  -31.8770   26.5706 H   0  0  0  0  0  0
  -28.2553  -38.0003   24.7461 H   0  0  0  0  0  0
  -28.1060  -36.2516   24.6385 H   0  0  0  0  0  0
  -27.2249  -37.1429   25.8873 H   0  0  0  0  0  0
  -20.9912  -29.8590   21.6336 H   0  0  0  0  0  0
  -26.0073  -38.2616   24.1364 H   0  0  0  0  0  0
  -26.5324  -22.2018   19.8250 H   0  0  0  0  0  0
  -30.4755  -22.9073   20.6970 H   0  0  0  0  0  0
  -25.7237  -20.0232   20.2255 H   0  0  0  0  0  0
  -26.6791  -18.5593   20.0679 H   0  0  0  0  0  0
  -26.4195  -19.5915   18.6614 H   0  0  0  0  0  0
  -28.3391  -17.2510   20.2466 H   0  0  0  0  0  0
  1 25  1  0  0  0
  1 30  2  0  0  0
  1 78  1  0  0  0
  2  3  1  0  0  0
  2 25  1  0  0  0
  2 80  1  0  0  0
  2 81  1  0  0  0
  3  4  1  0  0  0
  3 82  1  0  0  0
  3 83  1  0  0  0
  4  5  1  0  0  0
  4 84  1  0  0  0
  4 85  1  0  0  0
  5  6  1  0  0  0
  5 26  1  0  0  0
  5 86  1  0  0  0
  6 25  1  0  0  0
  6 87  1  0  0  0
  6 88  1  0  0  0
  7  8  2  0  0  0
  7 26  1  0  0  0
  7 29  1  0  0  0
  8  9  1  0  0  0
  8 22  1  0  0  0
  9 10  1  0  0  0
  9 27  2  0  0  0
 10 11  2  0  0  0
 10 15  1  0  0  0
 11 12  1  0  0  0
 11 89  1  0  0  0
 12 13  2  0  0  0
 12 90  1  0  0  0
 13 14  1  0  0  0
 13 31  1  0  0  0
 14 15  2  0  0  0
 14 91  1  0  0  0
 15 92  1  0  0  0
 16 17  2  0  0  0
 16 21  1  0  0  0
 16 31  1  0  0  0
 17 18  1  0  0  0
 17 93  1  0  0  0
 18 19  2  0  0  0
 18 94  1  0  0  0
 19 20  1  0  0  0
 19 24  1  0  0  0
 20 21  2  0  0  0
 20 95  1  0  0  0
 21 23  1  0  0  0
 22 28  1  0  0  0
 22 32  2  0  0  0
 26 27  1  0  0  0
 28 96  1  0  0  0
 28 97  1  0  0  0
 29 98  1  0  0  0
 29 99  1  0  0  0
 33 34  1  0  0  0
 33 66  1  0  0  0
 33 70  2  0  0  0
 34 36  1  0  0  0
 34 59  1  0  0  0
 34100  1  0  0  0
 35 44  2  0  0  0
 35 45  1  0  0  0
 35 68  1  0  0  0
 36 56  1  0  0  0
 36101  1  0  0  0
 37 39  1  0  0  0
 37 47  1  0  0  0
 37 66  1  0  0  0
 37102  1  0  0  0
 38 43  2  0  0  0
 38 46  1  0  0  0
 38 47  1  0  0  0
 39 64  1  0  0  0
 39 67  2  0  0  0
 40 52  1  0  0  0
 40 53  2  0  0  0
 40 58  1  0  0  0
 41103  1  0  0  0
 41104  1  0  0  0
 41105  1  0  0  0
 41 48  1  0  0  0
 42 43  1  0  0  0
 42 66  1  0  0  0
 42106  1  0  0  0
 42107  1  0  0  0
 43 44  1  0  0  0
 44108  1  0  0  0
 45 46  2  0  0  0
 45109  1  0  0  0
 46110  1  0  0  0
 47111  1  0  0  0
 47112  1  0  0  0
 48 56  1  0  0  0
 48 65  1  0  0  0
 48113  1  0  0  0
 49 50  1  0  0  0
 49 53  1  0  0  0
 49 64  1  0  0  0
 49114  1  0  0  0
 50 51  1  0  0  0
 50115  1  0  0  0
 50116  1  0  0  0
 51 52  1  0  0  0
 51117  1  0  0  0
 51118  1  0  0  0
 52119  1  0  0  0
 52120  1  0  0  0
 53 54  1  0  0  0
 54 55  2  0  0  0
 54121  1  0  0  0
 55 57  1  0  0  0
 55122  1  0  0  0
 56 69  2  0  0  0
 57 58  2  0  0  0
 57123  1  0  0  0
 58124  1  0  0  0
 59 60  1  0  0  0
 59 61  1  0  0  0
 59 62  1  0  0  0
 60125  1  0  0  0
 60126  1  0  0  0
 60127  1  0  0  0
 61128  1  0  0  0
 61129  1  0  0  0
 61130  1  0  0  0
 62131  1  0  0  0
 62132  1  0  0  0
 62133  1  0  0  0
 63 65  1  0  0  0
 63134  1  0  0  0
 63135  1  0  0  0
 63136  1  0  0  0
 64137  1  0  0  0
 65138  1  0  0  0
 68 75  1  0  0  0
 71 73  2  0  0  0
 71 75  1  0  0  0
 71139  1  0  0  0
 72 75  2  0  0  0
 72 76  1  0  0  0
 72140  1  0  0  0
 73 74  1  0  0  0
 73 77  1  0  0  0
 74 76  2  0  0  0
 74 78  1  0  0  0
 76 79  1  0  0  0
 77141  1  0  0  0
 77142  1  0  0  0
 77143  1  0  0  0
 78144  1  0  0  0
M  ISO  4   1 100  68 101  75 101  78 100
M  END
> <chiral flag>
0

> <version>
0

> <s_m_source_file>
/data/baiqing/PycharmProjects/Reinvent-master-3.2/result/LINK_invent/BTK/process_docking_weight1_custom_sum_contain_oxygen_bond_distance_aromatic_linkinvent_7_9_3/rearranged_h_0013.sdf

> <i_m_source_file_index>
57

> <r_mmod_Potential_Energy-OPLS-2005>
4189.05712890625

> <r_mmod_Stretch_Energy-OPLS-2005>
1619.95056152344

> <r_mmod_Bend_Energy-OPLS-2005>
1012.03265380859

> <r_mmod_Torsional_Energy-OPLS-2005>
215.875289916992

> <r_mmod_Improper_Torsional_Energy-OPLS-2005>
4.61825037002563

> <r_mmod_Van_der_Waal_Energy-OPLS-2005>
140.080856323242

> <r_mmod_Electrostatic_Energy-OPLS-2005>
-371.059509277344

> <r_mmod_Solvation_Energy-OPLS-2005>
-222.58447265625

> <b_mmod_Minimization_Converged-OPLS-2005>
0

> <r_mmod_RMS_Derivative-OPLS-2005>
0.751278162002563

$$$$
57
                    3D
 Structure written by MMmdl.
163171  0  0  1  0            999 V2000
  -30.7160  -14.5167   20.4536 C   0  0  0  0  0  0
  -30.4237  -12.3098   19.4285 C   0  0  0  0  0  0
  -29.4898  -12.4394   18.2069 C   0  0  0  0  0  0
  -28.0164  -12.3156   18.6353 C   0  0  0  0  0  0
  -27.6559  -13.1959   19.8619 C   0  0  2  0  0  0
  -28.7089  -13.0612   20.9832 C   0  0  0  0  0  0
  -25.2622  -13.8129   20.5702 C   0  0  0  0  0  0
  -24.1868  -13.0417   20.9198 C   0  0  0  0  0  0
  -24.6407  -11.6884   20.8776 C   0  0  0  0  0  0
  -23.9066  -10.4283   21.0445 C   0  0  0  0  0  0
  -24.3621   -9.4188   21.9212 C   0  0  0  0  0  0
  -23.6279   -8.2232   22.0785 C   0  0  0  0  0  0
  -22.4256   -8.0291   21.3570 C   0  0  0  0  0  0
  -21.9894   -9.0275   20.4671 C   0  0  0  0  0  0
  -22.7240  -10.2149   20.3085 C   0  0  0  0  0  0
  -21.6830   -6.0732   22.5290 C   0  0  0  0  0  0
  -21.3997   -6.5638   23.8224 C   0  0  0  0  0  0
  -21.3658   -5.6791   24.9185 C   0  0  0  0  0  0
  -21.6044   -4.3054   24.7226 C   0  0  0  0  0  0
  -21.8813   -3.8152   23.4343 C   0  0  0  0  0  0
  -21.9182   -4.6968   22.3404 C   0  0  0  0  0  0
  -22.7897  -13.5263   21.1833 C   0  0  0  0  0  0
  -22.1644   -4.2162   21.0974 F   0  0  0  0  0  0
  -21.5633   -3.4533   25.7732 F   0  0  0  0  0  0
  -30.0209  -13.3467   20.3898 N   0  0  0  0  0  0
  -26.3025  -12.9269   20.3356 N   0  0  0  0  0  0
  -25.9333  -11.6452   20.5821 N   0  0  0  0  0  0
  -22.0505  -12.8283   22.0387 N   0  0  0  0  0  0
  -25.4364  -15.1827   20.4051 N   0  0  0  0  0  0
  -31.9254  -14.5535   20.2128 O   0  0  0  0  0  0
  -21.6620   -6.8892   21.4254 O   0  0  0  0  0  0
  -22.3603  -14.5553   20.6649 O   0  0  0  0  0  0
  -24.6144  -31.8671   23.2110 C   0  0  0  0  0  0
  -25.9043  -32.4819   23.8396 C   0  0  1  0  0  0
  -27.2203  -27.4183   20.1092 C   0  0  0  0  0  0
  -25.5902  -33.8623   24.2329 N   0  0  0  0  0  0
  -23.4016  -30.4934   21.5509 C   0  0  2  0  0  0
  -24.8465  -28.9588   20.1177 C   0  0  0  0  0  0
  -22.7391  -29.4661   22.4963 C   0  0  0  0  0  0
  -18.0276  -28.1370   22.8482 C   0  0  0  0  0  0
  -24.1484  -36.7317   23.2630 C   0  0  0  0  0  0
  -25.9334  -30.8280   21.3667 C   0  0  0  0  0  0
  -26.0095  -29.4626   20.7138 C   0  0  0  0  0  0
  -27.2014  -28.7006   20.7064 C   0  0  0  0  0  0
  -26.0415  -26.9400   19.4904 C   0  0  0  0  0  0
  -24.8574  -27.6979   19.5013 C   0  0  0  0  0  0
  -23.6112  -29.8276   20.1659 C   0  0  0  0  0  0
  -25.4109  -36.3107   24.0326 C   0  0  1  0  0  0
  -20.5862  -28.3669   23.1305 C   0  0  2  0  0  0
  -20.6778  -26.9401   22.5428 C   0  0  0  0  0  0
  -19.5772  -26.6396   21.5215 C   0  0  0  0  0  0
  -18.1938  -26.7924   22.1596 C   0  0  0  0  0  0
  -19.1524  -28.8830   23.2887 C   0  0  0  0  0  0
  -18.9448  -30.1419   23.8922 C   0  0  0  0  0  0
  -17.6451  -30.6565   24.0549 C   0  0  0  0  0  0
  -25.9042  -34.9471   23.5120 C   0  0  0  0  0  0
  -16.5341  -29.9078   23.6300 C   0  0  0  0  0  0
  -16.7261  -28.6485   23.0343 C   0  0  0  0  0  0
  -26.4493  -31.6589   25.0716 C   0  0  0  0  0  0
  -25.3774  -31.3686   26.1474 C   0  0  0  0  0  0
  -27.0309  -30.3017   24.6093 C   0  0  0  0  0  0
  -27.6060  -32.4305   25.7488 C   0  0  0  0  0  0
  -27.5571  -37.1823   24.8467 C   0  0  0  0  0  0
  -21.4114  -29.3043   22.3698 N   0  0  0  0  0  0
  -26.4298  -37.3792   23.9395 N   0  0  0  0  0  0
  -24.6677  -31.0780   22.1007 N   0  0  0  0  0  0
  -23.4151  -28.8189   23.3000 O   0  0  0  0  0  0
  -28.3664  -26.6474   20.1551 O   0  0  0  0  0  0
  -26.5605  -34.8928   22.4680 O   0  0  0  0  0  0
  -23.5349  -32.1417   23.7534 O   0  0  0  0  0  0
  -28.1634  -18.3973   20.7337 C   0  0  0  0  0  0
  -27.9930  -19.7800   20.4919 C   0  0  0  0  0  0
  -30.4326  -18.8125   21.4856 C   0  0  0  0  0  0
  -29.4059  -17.8942   21.1771 C   0  0  0  0  0  0
  -29.0463  -20.6943   20.7251 C   0  0  0  0  0  0
  -30.2670  -20.1929   21.2483 C   0  0  0  0  0  0
  -29.6618  -16.4140   21.3460 C   0  0  0  0  0  0
  -28.7892  -16.6668   18.1815 C   0  0  0  0  0  0
  -31.2464  -17.2228   18.6231 C   0  0  0  0  0  0
  -29.3903  -24.4859   20.8652 C   0  0  0  0  0  0
  -29.1153  -23.0605   21.4177 C   0  0  0  0  0  0
  -28.1406  -25.2359   20.3560 C   0  0  0  0  0  0
  -30.1060  -16.2041   18.8489 C   0  0  0  0  0  0
  -28.8563  -22.0516   20.3856 N   0  0  0  0  0  0
  -29.9948  -15.6604   20.2505 N   0  0  0  0  0  0
  -29.6239  -15.9728   22.5008 O   0  0  0  0  0  0
  -31.3162  -21.0198   21.4817 F   0  0  0  0  0  0
  -31.4640  -12.4027   19.1085 H   0  0  0  0  0  0
  -30.3414  -11.3227   19.8832 H   0  0  0  0  0  0
  -29.7277  -11.6685   17.4725 H   0  0  0  0  0  0
  -29.6468  -13.3902   17.7021 H   0  0  0  0  0  0
  -27.8446  -11.2658   18.8748 H   0  0  0  0  0  0
  -27.3562  -12.5457   17.7991 H   0  0  0  0  0  0
  -27.6746  -14.2243   19.5208 H   0  0  0  0  0  0
  -28.7036  -12.0557   21.4052 H   0  0  0  0  0  0
  -28.4819  -13.7316   21.8123 H   0  0  0  0  0  0
  -25.2785   -9.5623   22.4767 H   0  0  0  0  0  0
  -23.9981   -7.4602   22.7478 H   0  0  0  0  0  0
  -21.0837   -8.8810   19.8955 H   0  0  0  0  0  0
  -22.3739  -10.9698   19.6187 H   0  0  0  0  0  0
  -21.1987   -7.6147   23.9729 H   0  0  0  0  0  0
  -21.1482   -6.0519   25.9083 H   0  0  0  0  0  0
  -22.0597   -2.7617   23.2839 H   0  0  0  0  0  0
  -22.4059  -11.9927   22.4783 H   0  0  0  0  0  0
  -21.1152  -13.1395   22.2582 H   0  0  0  0  0  0
  -24.6598  -15.8306   20.4799 H   0  0  0  0  0  0
  -26.2700  -15.6050   20.0200 H   0  0  0  0  0  0
  -26.7099  -32.5520   23.1151 H   0  0  0  0  0  0
  -25.0085  -33.9803   25.0496 H   0  0  0  0  0  0
  -22.6915  -31.3119   21.4143 H   0  0  0  0  0  0
  -23.3734  -35.9663   23.3322 H   0  0  0  0  0  0
  -24.3570  -36.8908   22.2036 H   0  0  0  0  0  0
  -23.7266  -37.6540   23.6640 H   0  0  0  0  0  0
  -26.0486  -31.5883   20.5923 H   0  0  0  0  0  0
  -26.8197  -30.8801   21.9866 H   0  0  0  0  0  0
  -28.0953  -29.0767   21.1850 H   0  0  0  0  0  0
  -26.0172  -25.9774   19.0008 H   0  0  0  0  0  0
  -23.9620  -27.3082   19.0367 H   0  0  0  0  0  0
  -23.7232  -30.6028   19.4073 H   0  0  0  0  0  0
  -22.7345  -29.2507   19.8664 H   0  0  0  0  0  0
  -25.1289  -36.1967   25.0822 H   0  0  0  0  0  0
  -20.9963  -28.3250   24.1422 H   0  0  0  0  0  0
  -20.5728  -26.2252   23.3608 H   0  0  0  0  0  0
  -21.6647  -26.7487   22.1200 H   0  0  0  0  0  0
  -19.6951  -25.6324   21.1203 H   0  0  0  0  0  0
  -19.6732  -27.3232   20.6764 H   0  0  0  0  0  0
  -17.4249  -26.6725   21.3956 H   0  0  0  0  0  0
  -18.0289  -26.0048   22.8963 H   0  0  0  0  0  0
  -19.7926  -30.7221   24.2318 H   0  0  0  0  0  0
  -17.4991  -31.6240   24.5173 H   0  0  0  0  0  0
  -15.5344  -30.2972   23.7635 H   0  0  0  0  0  0
  -15.8651  -28.0823   22.7032 H   0  0  0  0  0  0
  -24.5965  -30.7001   25.7824 H   0  0  0  0  0  0
  -24.8962  -32.2839   26.4932 H   0  0  0  0  0  0
  -25.8163  -30.8867   27.0221 H   0  0  0  0  0  0
  -26.2839  -29.6789   24.1152 H   0  0  0  0  0  0
  -27.4054  -29.7248   25.4561 H   0  0  0  0  0  0
  -27.8698  -30.4304   23.9243 H   0  0  0  0  0  0
  -27.2663  -33.3590   26.2097 H   0  0  0  0  0  0
  -28.3871  -32.6882   25.0316 H   0  0  0  0  0  0
  -28.0726  -31.8404   26.5391 H   0  0  0  0  0  0
  -28.2619  -38.0093   24.7478 H   0  0  0  0  0  0
  -28.1038  -36.2622   24.6339 H   0  0  0  0  0  0
  -27.2285  -37.1523   25.8874 H   0  0  0  0  0  0
  -20.9265  -29.8719   21.6900 H   0  0  0  0  0  0
  -26.0178  -38.2865   24.1398 H   0  0  0  0  0  0
  -27.3494  -17.7191   20.5206 H   0  0  0  0  0  0
  -27.0437  -20.1252   20.1070 H   0  0  0  0  0  0
  -31.3819  -18.4541   21.8566 H   0  0  0  0  0  0
  -27.9125  -16.1237   18.5252 H   0  0  0  0  0  0
  -28.6066  -17.7316   18.3137 H   0  0  0  0  0  0
  -28.8434  -16.5247   17.1016 H   0  0  0  0  0  0
  -32.1792  -16.9061   19.0887 H   0  0  0  0  0  0
  -31.4479  -17.3379   17.5579 H   0  0  0  0  0  0
  -31.0084  -18.2165   18.9941 H   0  0  0  0  0  0
  -30.1564  -24.4525   20.0905 H   0  0  0  0  0  0
  -29.8148  -25.0702   21.6837 H   0  0  0  0  0  0
  -28.2635  -23.0877   22.1008 H   0  0  0  0  0  0
  -29.9665  -22.7698   22.0319 H   0  0  0  0  0  0
  -27.3443  -25.0947   21.0899 H   0  0  0  0  0  0
  -27.8031  -24.7731   19.4282 H   0  0  0  0  0  0
  -30.3977  -15.3676   18.2126 H   0  0  0  0  0  0
  -28.0077  -22.2190   19.8543 H   0  0  0  0  0  0
  1 25  1  0  0  0
  1 30  2  0  0  0
  1 85  1  0  0  0
  2  3  1  0  0  0
  2 25  1  0  0  0
  2 88  1  0  0  0
  2 89  1  0  0  0
  3  4  1  0  0  0
  3 90  1  0  0  0
  3 91  1  0  0  0
  4  5  1  0  0  0
  4 92  1  0  0  0
  4 93  1  0  0  0
  5  6  1  0  0  0
  5 26  1  0  0  0
  5 94  1  0  0  0
  6 25  1  0  0  0
  6 95  1  0  0  0
  6 96  1  0  0  0
  7  8  2  0  0  0
  7 26  1  0  0  0
  7 29  1  0  0  0
  8  9  1  0  0  0
  8 22  1  0  0  0
  9 10  1  0  0  0
  9 27  2  0  0  0
 10 11  2  0  0  0
 10 15  1  0  0  0
 11 12  1  0  0  0
 11 97  1  0  0  0
 12 13  2  0  0  0
 12 98  1  0  0  0
 13 14  1  0  0  0
 13 31  1  0  0  0
 14 15  2  0  0  0
 14 99  1  0  0  0
 15100  1  0  0  0
 16 17  2  0  0  0
 16 21  1  0  0  0
 16 31  1  0  0  0
 17 18  1  0  0  0
 17101  1  0  0  0
 18 19  2  0  0  0
 18102  1  0  0  0
 19 20  1  0  0  0
 19 24  1  0  0  0
 20 21  2  0  0  0
 20103  1  0  0  0
 21 23  1  0  0  0
 22 28  1  0  0  0
 22 32  2  0  0  0
 26 27  1  0  0  0
 28104  1  0  0  0
 28105  1  0  0  0
 29106  1  0  0  0
 29107  1  0  0  0
 33 34  1  0  0  0
 33 66  1  0  0  0
 33 70  2  0  0  0
 34 36  1  0  0  0
 34 59  1  0  0  0
 34108  1  0  0  0
 35 44  2  0  0  0
 35 45  1  0  0  0
 35 68  1  0  0  0
 36 56  1  0  0  0
 36109  1  0  0  0
 37 39  1  0  0  0
 37 47  1  0  0  0
 37 66  1  0  0  0
 37110  1  0  0  0
 38 43  2  0  0  0
 38 46  1  0  0  0
 38 47  1  0  0  0
 39 64  1  0  0  0
 39 67  2  0  0  0
 40 52  1  0  0  0
 40 53  2  0  0  0
 40 58  1  0  0  0
 41111  1  0  0  0
 41112  1  0  0  0
 41113  1  0  0  0
 41 48  1  0  0  0
 42 43  1  0  0  0
 42 66  1  0  0  0
 42114  1  0  0  0
 42115  1  0  0  0
 43 44  1  0  0  0
 44116  1  0  0  0
 45 46  2  0  0  0
 45117  1  0  0  0
 46118  1  0  0  0
 47119  1  0  0  0
 47120  1  0  0  0
 48 56  1  0  0  0
 48 65  1  0  0  0
 48121  1  0  0  0
 49 50  1  0  0  0
 49 53  1  0  0  0
 49 64  1  0  0  0
 49122  1  0  0  0
 50 51  1  0  0  0
 50123  1  0  0  0
 50124  1  0  0  0
 51 52  1  0  0  0
 51125  1  0  0  0
 51126  1  0  0  0
 52127  1  0  0  0
 52128  1  0  0  0
 53 54  1  0  0  0
 54 55  2  0  0  0
 54129  1  0  0  0
 55 57  1  0  0  0
 55130  1  0  0  0
 56 69  2  0  0  0
 57 58  2  0  0  0
 57131  1  0  0  0
 58132  1  0  0  0
 59 60  1  0  0  0
 59 61  1  0  0  0
 59 62  1  0  0  0
 60133  1  0  0  0
 60134  1  0  0  0
 60135  1  0  0  0
 61136  1  0  0  0
 61137  1  0  0  0
 61138  1  0  0  0
 62139  1  0  0  0
 62140  1  0  0  0
 62141  1  0  0  0
 63 65  1  0  0  0
 63142  1  0  0  0
 63143  1  0  0  0
 63144  1  0  0  0
 64145  1  0  0  0
 65146  1  0  0  0
 68 82  1  0  0  0
 71 72  2  0  0  0
 71 74  1  0  0  0
 71147  1  0  0  0
 72 75  1  0  0  0
 72148  1  0  0  0
 73 74  2  0  0  0
 73 76  1  0  0  0
 73149  1  0  0  0
 74 77  1  0  0  0
 75 76  2  0  0  0
 75 84  1  0  0  0
 76 87  1  0  0  0
 77 85  1  0  0  0
 77 86  2  0  0  0
 78150  1  0  0  0
 78151  1  0  0  0
 78152  1  0  0  0
 78 83  1  0  0  0
 79 83  1  0  0  0
 79153  1  0  0  0
 79154  1  0  0  0
 79155  1  0  0  0
 80 81  1  0  0  0
 80 82  1  0  0  0
 80156  1  0  0  0
 80157  1  0  0  0
 81 84  1  0  0  0
 81158  1  0  0  0
 81159  1  0  0  0
 82160  1  0  0  0
 82161  1  0  0  0
 83 85  1  0  0  0
 83162  1  0  0  0
 84163  1  0  0  0
M  ISO  4   1 100  68 101  82 101  85 100
M  END
> <chiral flag>
0

> <version>
0

> <s_m_source_file>
/data/baiqing/PycharmProjects/Reinvent-master-3.2/result/LINK_invent/BTK/process_docking_weight1_custom_sum_contain_oxygen_bond_distance_aromatic_linkinvent_7_9_3/rearranged_h_0013.sdf

> <i_m_source_file_index>
58

> <r_mmod_Potential_Energy-OPLS-2005>
280.630462646484

> <r_mmod_Stretch_Energy-OPLS-2005>
46.8160018920898

> <r_mmod_Bend_Energy-OPLS-2005>
117.138542175293

> <r_mmod_Torsional_Energy-OPLS-2005>
352.187194824219

> <r_mmod_Improper_Torsional_Energy-OPLS-2005>
23.2281532287598

> <r_mmod_Van_der_Waal_Energy-OPLS-2005>
161.492813110352

> <r_mmod_Electrostatic_Energy-OPLS-2005>
-249.995834350586

> <r_mmod_Solvation_Energy-OPLS-2005>
-199.763275146484

> <b_mmod_Minimization_Converged-OPLS-2005>
0

> <r_mmod_RMS_Derivative-OPLS-2005>
2.88576006889343

$$$$
58
                    3D
 Structure written by MMmdl.
148156  0  0  1  0            999 V2000
  -30.5225  -15.0487   20.4086 C   0  0  0  0  0  0
  -30.4376  -12.6574   19.5061 C   0  0  0  0  0  0
  -29.5235  -12.5404   18.2643 C   0  0  0  0  0  0
  -28.0618  -12.3080   18.6877 C   0  0  0  0  0  0
  -27.6223  -13.2583   19.8314 C   0  0  2  0  0  0
  -28.6639  -13.3414   20.9674 C   0  0  0  0  0  0
  -25.2431  -13.8231   20.5727 C   0  0  0  0  0  0
  -24.1765  -13.0438   20.9245 C   0  0  0  0  0  0
  -24.6397  -11.6929   20.8761 C   0  0  0  0  0  0
  -23.9087  -10.4293   21.0410 C   0  0  0  0  0  0
  -24.3632   -9.4206   21.9186 C   0  0  0  0  0  0
  -23.6302   -8.2243   22.0755 C   0  0  0  0  0  0
  -22.4284   -8.0283   21.3544 C   0  0  0  0  0  0
  -21.9924   -9.0259   20.4646 C   0  0  0  0  0  0
  -22.7258  -10.2136   20.3057 C   0  0  0  0  0  0
  -21.6855   -6.0738   22.5279 C   0  0  0  0  0  0
  -21.4016   -6.5641   23.8212 C   0  0  0  0  0  0
  -21.3659   -5.6793   24.9174 C   0  0  0  0  0  0
  -21.6044   -4.3056   24.7225 C   0  0  0  0  0  0
  -21.8818   -3.8149   23.4345 C   0  0  0  0  0  0
  -21.9194   -4.6966   22.3402 C   0  0  0  0  0  0
  -22.7782  -13.5200   21.1893 C   0  0  0  0  0  0
  -22.1662   -4.2152   21.0979 F   0  0  0  0  0  0
  -21.5628   -3.4540   25.7737 F   0  0  0  0  0  0
  -29.9245  -13.7799   20.3539 N   0  0  0  0  0  0
  -26.2857  -12.9480   20.3235 N   0  0  0  0  0  0
  -25.9331  -11.6600   20.5739 N   0  0  0  0  0  0
  -22.0437  -12.8182   22.0447 N   0  0  0  0  0  0
  -25.4065  -15.1963   20.4148 N   0  0  0  0  0  0
  -31.7322  -15.0617   20.1561 O   0  0  0  0  0  0
  -21.6644   -6.8883   21.4241 O   0  0  0  0  0  0
  -22.3460  -14.5501   20.6735 O   0  0  0  0  0  0
  -24.6503  -31.8372   23.1824 C   0  0  0  0  0  0
  -25.9245  -32.4659   23.8238 C   0  0  1  0  0  0
  -27.2144  -27.0641   20.1619 C   0  0  0  0  0  0
  -25.5964  -33.8467   24.2151 N   0  0  0  0  0  0
  -23.4575  -30.4548   21.5292 C   0  0  2  0  0  0
  -24.9080  -28.8693   20.1098 C   0  0  0  0  0  0
  -22.7603  -29.4512   22.4830 C   0  0  0  0  0  0
  -18.0310  -28.1404   22.8474 C   0  0  0  0  0  0
  -24.1491  -36.7238   23.2644 C   0  0  0  0  0  0
  -26.0186  -30.6883   21.3917 C   0  0  0  0  0  0
  -26.0886  -29.2923   20.7339 C   0  0  0  0  0  0
  -27.2415  -28.4076   20.7399 C   0  0  0  0  0  0
  -26.0071  -26.7622   19.4935 C   0  0  0  0  0  0
  -24.8846  -27.6205   19.4720 C   0  0  0  0  0  0
  -23.6884  -29.7808   20.1503 C   0  0  0  0  0  0
  -25.4127  -36.3009   24.0309 C   0  0  1  0  0  0
  -20.5927  -28.3734   23.1219 C   0  0  2  0  0  0
  -20.6791  -26.9430   22.5403 C   0  0  0  0  0  0
  -19.5764  -26.6383   21.5213 C   0  0  0  0  0  0
  -18.1946  -26.7940   22.1624 C   0  0  0  0  0  0
  -19.1569  -28.8889   23.2836 C   0  0  0  0  0  0
  -18.9483  -30.1483   23.8865 C   0  0  0  0  0  0
  -17.6478  -30.6597   24.0560 C   0  0  0  0  0  0
  -25.9083  -34.9387   23.5043 C   0  0  0  0  0  0
  -16.5369  -29.9088   23.6342 C   0  0  0  0  0  0
  -16.7293  -28.6508   23.0361 C   0  0  0  0  0  0
  -26.4542  -31.6554   25.0710 C   0  0  0  0  0  0
  -25.3706  -31.3766   26.1392 C   0  0  0  0  0  0
  -27.0419  -30.2940   24.6343 C   0  0  0  0  0  0
  -27.6056  -32.4337   25.7504 C   0  0  0  0  0  0
  -27.5571  -37.1779   24.8467 C   0  0  0  0  0  0
  -21.4286  -29.3048   22.3583 N   0  0  0  0  0  0
  -26.4284  -37.3730   23.9406 N   0  0  0  0  0  0
  -24.7291  -31.0167   22.0890 N   0  0  0  0  0  0
  -23.4214  -28.8065   23.3010 O   0  0  0  0  0  0
  -28.2381  -26.0262   20.2410 O   0  0  0  0  0  0
  -26.5675  -34.8897   22.4626 O   0  0  0  0  0  0
  -23.5606  -32.1279   23.7004 O   0  0  0  0  0  0
  -30.8700  -20.6162   21.0214 C   0  0  0  0  0  0
  -29.5593  -20.4702   20.5148 C   0  0  0  0  0  0
  -30.0656  -17.8042   20.6122 C   0  0  0  0  0  0
  -31.7078  -19.5224   21.3280 C   0  0  0  0  0  0
  -31.3254  -18.1736   21.1468 C   0  0  0  0  0  0
  -29.1958  -19.0115   20.3236 C   0  0  0  0  0  0
  -28.9751  -23.2106   20.4006 C   0  0  0  0  0  0
  -27.9142  -24.4786   20.0568 C   0  0  0  0  0  0
  -28.7340  -21.7847   20.2542 N   0  0  0  0  0  0
  -29.7504  -16.2705   20.4861 N   0  0  0  0  0  0
  -30.0728  -23.5813   20.8213 O   0  0  0  0  0  0
  -32.9357  -19.7819   21.8386 F   0  0  0  0  0  0
  -32.2035  -17.2276   21.5530 F   0  0  0  0  0  0
  -27.6139  -18.6864   19.7142 Cl  0  0  0  0  0  0
  -31.4675  -12.8229   19.1867 H   0  0  0  0  0  0
  -30.4508  -11.7226   20.0688 H   0  0  0  0  0  0
  -29.8610  -11.7289   17.6183 H   0  0  0  0  0  0
  -29.5931  -13.4543   17.6721 H   0  0  0  0  0  0
  -27.9788  -11.2726   19.0201 H   0  0  0  0  0  0
  -27.3954  -12.4074   17.8301 H   0  0  0  0  0  0
  -27.5671  -14.2476   19.3762 H   0  0  0  0  0  0
  -28.7777  -12.3818   21.4739 H   0  0  0  0  0  0
  -28.3458  -14.0585   21.7259 H   0  0  0  0  0  0
  -25.2775   -9.5681   22.4766 H   0  0  0  0  0  0
  -24.0009   -7.4633   22.7474 H   0  0  0  0  0  0
  -21.0856   -8.8781   19.8950 H   0  0  0  0  0  0
  -22.3717  -10.9676   19.6168 H   0  0  0  0  0  0
  -21.2009   -7.6149   23.9717 H   0  0  0  0  0  0
  -21.1481   -6.0524   25.9077 H   0  0  0  0  0  0
  -22.0597   -2.7611   23.2845 H   0  0  0  0  0  0
  -22.4068  -11.9850   22.4837 H   0  0  0  0  0  0
  -21.1049  -13.1189   22.2651 H   0  0  0  0  0  0
  -24.6319  -15.8413   20.5261 H   0  0  0  0  0  0
  -26.2395  -15.6424   20.0555 H   0  0  0  0  0  0
  -26.7310  -32.5241   23.0961 H   0  0  0  0  0  0
  -25.0085  -33.9569   25.0282 H   0  0  0  0  0  0
  -22.7637  -31.2830   21.3701 H   0  0  0  0  0  0
  -23.3757  -35.9564   23.3292 H   0  0  0  0  0  0
  -24.3570  -36.8889   22.2061 H   0  0  0  0  0  0
  -23.7244  -37.6426   23.6697 H   0  0  0  0  0  0
  -26.1830  -31.4385   20.6169 H   0  0  0  0  0  0
  -26.8855  -30.7407   22.0386 H   0  0  0  0  0  0
  -28.1378  -28.7258   21.2539 H   0  0  0  0  0  0
  -25.8931  -25.8085   19.0011 H   0  0  0  0  0  0
  -23.9849  -27.2921   18.9695 H   0  0  0  0  0  0
  -23.8320  -30.5539   19.3945 H   0  0  0  0  0  0
  -22.8010  -29.2282   19.8365 H   0  0  0  0  0  0
  -25.1321  -36.1823   25.0801 H   0  0  0  0  0  0
  -21.0020  -28.3329   24.1340 H   0  0  0  0  0  0
  -20.5679  -26.2350   23.3629 H   0  0  0  0  0  0
  -21.6657  -26.7425   22.1205 H   0  0  0  0  0  0
  -19.6921  -25.6285   21.1264 H   0  0  0  0  0  0
  -19.6700  -27.3176   20.6729 H   0  0  0  0  0  0
  -17.4215  -26.6683   21.4028 H   0  0  0  0  0  0
  -18.0344  -26.0089   22.9029 H   0  0  0  0  0  0
  -19.7957  -30.7310   24.2218 H   0  0  0  0  0  0
  -17.5030  -31.6273   24.5170 H   0  0  0  0  0  0
  -15.5369  -30.2982   23.7683 H   0  0  0  0  0  0
  -15.8693  -28.0818   22.7095 H   0  0  0  0  0  0
  -24.5899  -30.7098   25.7716 H   0  0  0  0  0  0
  -24.8881  -32.2955   26.4732 H   0  0  0  0  0  0
  -25.7975  -30.9001   27.0226 H   0  0  0  0  0  0
  -26.3056  -29.6646   24.1333 H   0  0  0  0  0  0
  -27.3988  -29.7263   25.4946 H   0  0  0  0  0  0
  -27.8981  -30.4158   23.9705 H   0  0  0  0  0  0
  -27.2637  -33.3667   26.1996 H   0  0  0  0  0  0
  -28.3913  -32.6851   25.0368 H   0  0  0  0  0  0
  -28.0669  -31.8518   26.5493 H   0  0  0  0  0  0
  -28.2586  -38.0079   24.7507 H   0  0  0  0  0  0
  -28.1071  -36.2607   24.6305 H   0  0  0  0  0  0
  -27.2286  -37.1438   25.8871 H   0  0  0  0  0  0
  -20.9511  -29.8758   21.6749 H   0  0  0  0  0  0
  -26.0141  -38.2793   24.1410 H   0  0  0  0  0  0
  -31.2817  -21.5923   21.2128 H   0  0  0  0  0  0
  -27.0141  -24.2739   20.6369 H   0  0  0  0  0  0
  -27.6293  -24.3394   19.0141 H   0  0  0  0  0  0
  -27.8047  -21.5985   19.9008 H   0  0  0  0  0  0
  -28.7608  -16.0818   20.4666 H   0  0  0  0  0  0
  1 25  1  0  0  0
  1 30  2  0  0  0
  1 80  1  0  0  0
  2  3  1  0  0  0
  2 25  1  0  0  0
  2 85  1  0  0  0
  2 86  1  0  0  0
  3  4  1  0  0  0
  3 87  1  0  0  0
  3 88  1  0  0  0
  4  5  1  0  0  0
  4 89  1  0  0  0
  4 90  1  0  0  0
  5  6  1  0  0  0
  5 26  1  0  0  0
  5 91  1  0  0  0
  6 25  1  0  0  0
  6 92  1  0  0  0
  6 93  1  0  0  0
  7  8  2  0  0  0
  7 26  1  0  0  0
  7 29  1  0  0  0
  8  9  1  0  0  0
  8 22  1  0  0  0
  9 10  1  0  0  0
  9 27  2  0  0  0
 10 11  2  0  0  0
 10 15  1  0  0  0
 11 12  1  0  0  0
 11 94  1  0  0  0
 12 13  2  0  0  0
 12 95  1  0  0  0
 13 14  1  0  0  0
 13 31  1  0  0  0
 14 15  2  0  0  0
 14 96  1  0  0  0
 15 97  1  0  0  0
 16 17  2  0  0  0
 16 21  1  0  0  0
 16 31  1  0  0  0
 17 18  1  0  0  0
 17 98  1  0  0  0
 18 19  2  0  0  0
 18 99  1  0  0  0
 19 20  1  0  0  0
 19 24  1  0  0  0
 20 21  2  0  0  0
 20100  1  0  0  0
 21 23  1  0  0  0
 22 28  1  0  0  0
 22 32  2  0  0  0
 26 27  1  0  0  0
 28101  1  0  0  0
 28102  1  0  0  0
 29103  1  0  0  0
 29104  1  0  0  0
 33 34  1  0  0  0
 33 66  1  0  0  0
 33 70  2  0  0  0
 34 36  1  0  0  0
 34 59  1  0  0  0
 34105  1  0  0  0
 35 44  2  0  0  0
 35 45  1  0  0  0
 35 68  1  0  0  0
 36 56  1  0  0  0
 36106  1  0  0  0
 37 39  1  0  0  0
 37 47  1  0  0  0
 37 66  1  0  0  0
 37107  1  0  0  0
 38 43  2  0  0  0
 38 46  1  0  0  0
 38 47  1  0  0  0
 39 64  1  0  0  0
 39 67  2  0  0  0
 40 52  1  0  0  0
 40 53  2  0  0  0
 40 58  1  0  0  0
 41108  1  0  0  0
 41109  1  0  0  0
 41110  1  0  0  0
 41 48  1  0  0  0
 42 43  1  0  0  0
 42 66  1  0  0  0
 42111  1  0  0  0
 42112  1  0  0  0
 43 44  1  0  0  0
 44113  1  0  0  0
 45 46  2  0  0  0
 45114  1  0  0  0
 46115  1  0  0  0
 47116  1  0  0  0
 47117  1  0  0  0
 48 56  1  0  0  0
 48 65  1  0  0  0
 48118  1  0  0  0
 49 50  1  0  0  0
 49 53  1  0  0  0
 49 64  1  0  0  0
 49119  1  0  0  0
 50 51  1  0  0  0
 50120  1  0  0  0
 50121  1  0  0  0
 51 52  1  0  0  0
 51122  1  0  0  0
 51123  1  0  0  0
 52124  1  0  0  0
 52125  1  0  0  0
 53 54  1  0  0  0
 54 55  2  0  0  0
 54126  1  0  0  0
 55 57  1  0  0  0
 55127  1  0  0  0
 56 69  2  0  0  0
 57 58  2  0  0  0
 57128  1  0  0  0
 58129  1  0  0  0
 59 60  1  0  0  0
 59 61  1  0  0  0
 59 62  1  0  0  0
 60130  1  0  0  0
 60131  1  0  0  0
 60132  1  0  0  0
 61133  1  0  0  0
 61134  1  0  0  0
 61135  1  0  0  0
 62136  1  0  0  0
 62137  1  0  0  0
 62138  1  0  0  0
 63 65  1  0  0  0
 63139  1  0  0  0
 63140  1  0  0  0
 63141  1  0  0  0
 64142  1  0  0  0
 65143  1  0  0  0
 68 78  1  0  0  0
 71 72  2  0  0  0
 71 74  1  0  0  0
 71144  1  0  0  0
 72 76  1  0  0  0
 72 79  1  0  0  0
 73 75  1  0  0  0
 73 76  2  0  0  0
 73 80  1  0  0  0
 74 75  2  0  0  0
 74 82  1  0  0  0
 75 83  1  0  0  0
 76 84  1  0  0  0
 77 78  1  0  0  0
 77 79  1  0  0  0
 77 81  2  0  0  0
 78145  1  0  0  0
 78146  1  0  0  0
 79147  1  0  0  0
 80148  1  0  0  0
M  ISO  4   1 100  68 101  78 101  80 100
M  END
> <chiral flag>
0

> <version>
0

> <s_m_source_file>
/data/baiqing/PycharmProjects/Reinvent-master-3.2/result/LINK_invent/BTK/process_docking_weight1_custom_sum_contain_oxygen_bond_distance_aromatic_linkinvent_7_9_3/rearranged_h_0013.sdf

> <i_m_source_file_index>
59

> <r_mmod_Potential_Energy-OPLS-2005>
602.855041503906

> <r_mmod_Stretch_Energy-OPLS-2005>
350.820587158203

> <r_mmod_Bend_Energy-OPLS-2005>
271.286529541016

> <r_mmod_Torsional_Energy-OPLS-2005>
221.130035400391

> <r_mmod_Improper_Torsional_Energy-OPLS-2005>
6.02100658416748

> <r_mmod_Van_der_Waal_Energy-OPLS-2005>
134.034942626953

> <r_mmod_Electrostatic_Energy-OPLS-2005>
-403.763122558594

> <r_mmod_Solvation_Energy-OPLS-2005>
-243.672180175781

> <b_mmod_Minimization_Converged-OPLS-2005>
0

> <r_mmod_RMS_Derivative-OPLS-2005>
0.24620409309864

$$$$
59
                    3D
 Structure written by MMmdl.
154162  0  0  1  0            999 V2000
  -30.5956  -14.7553   20.4031 C   0  0  0  0  0  0
  -30.4422  -12.4308   19.5034 C   0  0  0  0  0  0
  -29.5277  -12.4023   18.2586 C   0  0  0  0  0  0
  -28.0386  -12.3083   18.6530 C   0  0  0  0  0  0
  -27.6431  -13.2259   19.8434 C   0  0  2  0  0  0
  -28.6839  -13.1787   20.9811 C   0  0  0  0  0  0
  -25.2529  -13.8190   20.5678 C   0  0  0  0  0  0
  -24.1812  -13.0447   20.9199 C   0  0  0  0  0  0
  -24.6388  -11.6920   20.8749 C   0  0  0  0  0  0
  -23.9063  -10.4300   21.0410 C   0  0  0  0  0  0
  -24.3621   -9.4214   21.9185 C   0  0  0  0  0  0
  -23.6298   -8.2250   22.0756 C   0  0  0  0  0  0
  -22.4277   -8.0286   21.3547 C   0  0  0  0  0  0
  -21.9910   -9.0257   20.4647 C   0  0  0  0  0  0
  -22.7235  -10.2138   20.3059 C   0  0  0  0  0  0
  -21.6858   -6.0735   22.5273 C   0  0  0  0  0  0
  -21.4020   -6.5639   23.8206 C   0  0  0  0  0  0
  -21.3660   -5.6791   24.9169 C   0  0  0  0  0  0
  -21.6046   -4.3055   24.7220 C   0  0  0  0  0  0
  -21.8821   -3.8146   23.4340 C   0  0  0  0  0  0
  -21.9196   -4.6963   22.3396 C   0  0  0  0  0  0
  -22.7833  -13.5233   21.1854 C   0  0  0  0  0  0
  -22.1664   -4.2149   21.0975 F   0  0  0  0  0  0
  -21.5627   -3.4538   25.7733 F   0  0  0  0  0  0
  -29.9847  -13.5212   20.3952 N   0  0  0  0  0  0
  -26.2946  -12.9382   20.3249 N   0  0  0  0  0  0
  -25.9318  -11.6538   20.5768 N   0  0  0  0  0  0
  -22.0485  -12.8223   22.0414 N   0  0  0  0  0  0
  -25.4232  -15.1914   20.4091 N   0  0  0  0  0  0
  -31.7980  -14.8448   20.1449 O   0  0  0  0  0  0
  -21.6647   -6.8878   21.4233 O   0  0  0  0  0  0
  -22.3515  -14.5538   20.6701 O   0  0  0  0  0  0
  -24.6305  -31.8567   23.1997 C   0  0  0  0  0  0
  -25.9139  -32.4762   23.8340 C   0  0  1  0  0  0
  -27.2215  -27.2676   20.1204 C   0  0  0  0  0  0
  -25.5935  -33.8566   24.2260 N   0  0  0  0  0  0
  -23.4266  -30.4796   21.5436 C   0  0  2  0  0  0
  -24.8717  -28.9304   20.1093 C   0  0  0  0  0  0
  -22.7505  -29.4604   22.4923 C   0  0  0  0  0  0
  -18.0288  -28.1375   22.8478 C   0  0  0  0  0  0
  -24.1494  -36.7282   23.2639 C   0  0  0  0  0  0
  -25.9729  -30.7684   21.3816 C   0  0  0  0  0  0
  -26.0421  -29.3933   20.7213 C   0  0  0  0  0  0
  -27.2143  -28.5737   20.7181 C   0  0  0  0  0  0
  -26.0218  -26.8725   19.4805 C   0  0  0  0  0  0
  -24.8673  -27.6778   19.4805 C   0  0  0  0  0  0
  -23.6431  -29.8169   20.1584 C   0  0  0  0  0  0
  -25.4121  -36.3075   24.0325 C   0  0  1  0  0  0
  -20.5892  -28.3689   23.1265 C   0  0  2  0  0  0
  -20.6774  -26.9407   22.5404 C   0  0  0  0  0  0
  -19.5753  -26.6374   21.5206 C   0  0  0  0  0  0
  -18.1934  -26.7918   22.1617 C   0  0  0  0  0  0
  -19.1544  -28.8850   23.2863 C   0  0  0  0  0  0
  -18.9466  -30.1447   23.8884 C   0  0  0  0  0  0
  -17.6467  -30.6580   24.0556 C   0  0  0  0  0  0
  -25.9058  -34.9445   23.5095 C   0  0  0  0  0  0
  -16.5356  -29.9076   23.6329 C   0  0  0  0  0  0
  -16.7275  -28.6491   23.0357 C   0  0  0  0  0  0
  -26.4500  -31.6590   25.0734 C   0  0  0  0  0  0
  -25.3719  -31.3739   26.1453 C   0  0  0  0  0  0
  -27.0347  -30.3004   24.6235 C   0  0  0  0  0  0
  -27.6047  -32.4341   25.7511 C   0  0  0  0  0  0
  -27.5585  -37.1799   24.8463 C   0  0  0  0  0  0
  -21.4212  -29.3041   22.3665 N   0  0  0  0  0  0
  -26.4296  -37.3775   23.9406 N   0  0  0  0  0  0
  -24.6956  -31.0536   22.0971 N   0  0  0  0  0  0
  -23.4212  -28.8143   23.3016 O   0  0  0  0  0  0
  -28.3465  -26.4120   20.2064 O   0  0  0  0  0  0
  -26.5633  -34.8918   22.4669 O   0  0  0  0  0  0
  -23.5455  -32.1394   23.7293 O   0  0  0  0  0  0
  -30.4156  -18.6149   17.8856 C   0  0  0  0  0  0
  -30.1645  -19.8082   18.5730 C   0  0  0  0  0  0
  -29.6138  -18.4995   20.5398 C   0  0  0  0  0  0
  -30.2164  -17.3445   18.4680 C   0  0  0  0  0  0
  -29.6664  -19.8088   19.8910 C   0  0  0  0  0  0
  -29.9250  -17.2337   19.8690 C   0  0  0  0  0  0
  -28.8982  -22.2985   19.8583 C   0  0  0  0  0  0
  -28.7797  -23.7188   20.5866 C   0  0  0  0  0  0
  -28.3855  -25.0033   19.6797 C   0  0  0  0  0  0
  -30.1735  -16.1670   17.4882 C   0  0  0  0  0  0
  -29.3092  -21.1254   20.4914 N   0  0  0  0  0  0
  -29.8060  -15.8944   20.5286 N   0  0  0  0  0  0
  -28.5585  -22.2739   18.6730 O   0  0  0  0  0  0
  -31.2588  -15.4012   17.5492 F   0  0  0  0  0  0
  -29.0809  -15.4520   17.7428 F   0  0  0  0  0  0
  -30.0600  -16.5727   16.2214 F   0  0  0  0  0  0
  -31.4832  -12.5555   19.2004 H   0  0  0  0  0  0
  -30.3980  -11.4763   20.0301 H   0  0  0  0  0  0
  -29.7892  -11.5462   17.6359 H   0  0  0  0  0  0
  -29.7144  -13.2663   17.6307 H   0  0  0  0  0  0
  -27.8520  -11.2678   18.9196 H   0  0  0  0  0  0
  -27.4049  -12.5148   17.7902 H   0  0  0  0  0  0
  -27.6321  -14.2420   19.4518 H   0  0  0  0  0  0
  -28.7167  -12.1894   21.4394 H   0  0  0  0  0  0
  -28.4182  -13.8763   21.7771 H   0  0  0  0  0  0
  -25.2767   -9.5695   22.4754 H   0  0  0  0  0  0
  -24.0010   -7.4640   22.7476 H   0  0  0  0  0  0
  -21.0843   -8.8771   19.8951 H   0  0  0  0  0  0
  -22.3690  -10.9678   19.6168 H   0  0  0  0  0  0
  -21.2017   -7.6149   23.9707 H   0  0  0  0  0  0
  -21.1480   -6.0524   25.9070 H   0  0  0  0  0  0
  -22.0601   -2.7607   23.2839 H   0  0  0  0  0  0
  -22.4111  -11.9891   22.4803 H   0  0  0  0  0  0
  -21.1102  -13.1239   22.2618 H   0  0  0  0  0  0
  -24.6528  -15.8429   20.5120 H   0  0  0  0  0  0
  -26.2644  -15.6269   20.0529 H   0  0  0  0  0  0
  -26.7207  -32.5399   23.1079 H   0  0  0  0  0  0
  -25.0085  -33.9711   25.0407 H   0  0  0  0  0  0
  -22.7215  -31.3009   21.3999 H   0  0  0  0  0  0
  -23.3766  -35.9606   23.3298 H   0  0  0  0  0  0
  -24.3579  -36.8911   22.2054 H   0  0  0  0  0  0
  -23.7239  -37.6478   23.6667 H   0  0  0  0  0  0
  -26.1202  -31.5313   20.6163 H   0  0  0  0  0  0
  -26.8472  -30.8093   22.0193 H   0  0  0  0  0  0
  -28.1100  -28.9254   21.2112 H   0  0  0  0  0  0
  -25.9118  -25.9265   18.9800 H   0  0  0  0  0  0
  -23.9705  -27.3185   18.9940 H   0  0  0  0  0  0
  -23.7658  -30.5945   19.4034 H   0  0  0  0  0  0
  -22.7614  -29.2495   19.8546 H   0  0  0  0  0  0
  -25.1306  -36.1926   25.0818 H   0  0  0  0  0  0
  -20.9975  -28.3263   24.1388 H   0  0  0  0  0  0
  -20.5665  -26.2301   23.3609 H   0  0  0  0  0  0
  -21.6643  -26.7420   22.1203 H   0  0  0  0  0  0
  -19.6913  -25.6284   21.1239 H   0  0  0  0  0  0
  -19.6688  -27.3181   20.6733 H   0  0  0  0  0  0
  -17.4201  -26.6661   21.4022 H   0  0  0  0  0  0
  -18.0330  -26.0060   22.9012 H   0  0  0  0  0  0
  -19.7943  -30.7261   24.2257 H   0  0  0  0  0  0
  -17.5021  -31.6260   24.5156 H   0  0  0  0  0  0
  -15.5356  -30.2975   23.7654 H   0  0  0  0  0  0
  -15.8674  -28.0799   22.7089 H   0  0  0  0  0  0
  -24.5890  -30.7097   25.7775 H   0  0  0  0  0  0
  -24.8913  -32.2904   26.4884 H   0  0  0  0  0  0
  -25.8027  -30.8906   27.0232 H   0  0  0  0  0  0
  -26.2933  -29.6759   24.1239 H   0  0  0  0  0  0
  -27.3996  -29.7265   25.4764 H   0  0  0  0  0  0
  -27.8829  -30.4272   23.9505 H   0  0  0  0  0  0
  -27.2646  -33.3642   26.2086 H   0  0  0  0  0  0
  -28.3859  -32.6915   25.0344 H   0  0  0  0  0  0
  -28.0724  -31.8480   26.5436 H   0  0  0  0  0  0
  -28.2596  -38.0104   24.7521 H   0  0  0  0  0  0
  -28.1087  -36.2632   24.6277 H   0  0  0  0  0  0
  -27.2296  -37.1435   25.8864 H   0  0  0  0  0  0
  -20.9403  -29.8771   21.6873 H   0  0  0  0  0  0
  -26.0175  -38.2850   24.1410 H   0  0  0  0  0  0
  -30.7028  -18.6929   16.8478 H   0  0  0  0  0  0
  -30.3208  -20.7297   18.0321 H   0  0  0  0  0  0
  -29.3020  -18.4612   21.5737 H   0  0  0  0  0  0
  -29.7340  -23.9148   21.0752 H   0  0  0  0  0  0
  -28.0455  -23.6163   21.3853 H   0  0  0  0  0  0
  -27.4808  -24.7272   19.1517 H   0  0  0  0  0  0
  -29.1302  -25.0492   18.8844 H   0  0  0  0  0  0
  -29.4029  -21.1889   21.4970 H   0  0  0  0  0  0
  -28.9137  -15.7239   20.9673 H   0  0  0  0  0  0
  1 25  1  0  0  0
  1 30  2  0  0  0
  1 82  1  0  0  0
  2  3  1  0  0  0
  2 25  1  0  0  0
  2 87  1  0  0  0
  2 88  1  0  0  0
  3  4  1  0  0  0
  3 89  1  0  0  0
  3 90  1  0  0  0
  4  5  1  0  0  0
  4 91  1  0  0  0
  4 92  1  0  0  0
  5  6  1  0  0  0
  5 26  1  0  0  0
  5 93  1  0  0  0
  6 25  1  0  0  0
  6 94  1  0  0  0
  6 95  1  0  0  0
  7  8  2  0  0  0
  7 26  1  0  0  0
  7 29  1  0  0  0
  8  9  1  0  0  0
  8 22  1  0  0  0
  9 10  1  0  0  0
  9 27  2  0  0  0
 10 11  2  0  0  0
 10 15  1  0  0  0
 11 12  1  0  0  0
 11 96  1  0  0  0
 12 13  2  0  0  0
 12 97  1  0  0  0
 13 14  1  0  0  0
 13 31  1  0  0  0
 14 15  2  0  0  0
 14 98  1  0  0  0
 15 99  1  0  0  0
 16 17  2  0  0  0
 16 21  1  0  0  0
 16 31  1  0  0  0
 17 18  1  0  0  0
 17100  1  0  0  0
 18 19  2  0  0  0
 18101  1  0  0  0
 19 20  1  0  0  0
 19 24  1  0  0  0
 20 21  2  0  0  0
 20102  1  0  0  0
 21 23  1  0  0  0
 22 28  1  0  0  0
 22 32  2  0  0  0
 26 27  1  0  0  0
 28103  1  0  0  0
 28104  1  0  0  0
 29105  1  0  0  0
 29106  1  0  0  0
 33 34  1  0  0  0
 33 66  1  0  0  0
 33 70  2  0  0  0
 34 36  1  0  0  0
 34 59  1  0  0  0
 34107  1  0  0  0
 35 44  2  0  0  0
 35 45  1  0  0  0
 35 68  1  0  0  0
 36 56  1  0  0  0
 36108  1  0  0  0
 37 39  1  0  0  0
 37 47  1  0  0  0
 37 66  1  0  0  0
 37109  1  0  0  0
 38 43  2  0  0  0
 38 46  1  0  0  0
 38 47  1  0  0  0
 39 64  1  0  0  0
 39 67  2  0  0  0
 40 52  1  0  0  0
 40 53  2  0  0  0
 40 58  1  0  0  0
 41110  1  0  0  0
 41111  1  0  0  0
 41112  1  0  0  0
 41 48  1  0  0  0
 42 43  1  0  0  0
 42 66  1  0  0  0
 42113  1  0  0  0
 42114  1  0  0  0
 43 44  1  0  0  0
 44115  1  0  0  0
 45 46  2  0  0  0
 45116  1  0  0  0
 46117  1  0  0  0
 47118  1  0  0  0
 47119  1  0  0  0
 48 56  1  0  0  0
 48 65  1  0  0  0
 48120  1  0  0  0
 49 50  1  0  0  0
 49 53  1  0  0  0
 49 64  1  0  0  0
 49121  1  0  0  0
 50 51  1  0  0  0
 50122  1  0  0  0
 50123  1  0  0  0
 51 52  1  0  0  0
 51124  1  0  0  0
 51125  1  0  0  0
 52126  1  0  0  0
 52127  1  0  0  0
 53 54  1  0  0  0
 54 55  2  0  0  0
 54128  1  0  0  0
 55 57  1  0  0  0
 55129  1  0  0  0
 56 69  2  0  0  0
 57 58  2  0  0  0
 57130  1  0  0  0
 58131  1  0  0  0
 59 60  1  0  0  0
 59 61  1  0  0  0
 59 62  1  0  0  0
 60132  1  0  0  0
 60133  1  0  0  0
 60134  1  0  0  0
 61135  1  0  0  0
 61136  1  0  0  0
 61137  1  0  0  0
 62138  1  0  0  0
 62139  1  0  0  0
 62140  1  0  0  0
 63 65  1  0  0  0
 63141  1  0  0  0
 63142  1  0  0  0
 63143  1  0  0  0
 64144  1  0  0  0
 65145  1  0  0  0
 68 79  1  0  0  0
 71 72  2  0  0  0
 71 74  1  0  0  0
 71146  1  0  0  0
 72 75  1  0  0  0
 72147  1  0  0  0
 73 75  2  0  0  0
 73 76  1  0  0  0
 73148  1  0  0  0
 74 76  2  0  0  0
 74 80  1  0  0  0
 75 81  1  0  0  0
 76 82  1  0  0  0
 77 78  1  0  0  0
 77 81  1  0  0  0
 77 83  2  0  0  0
 78 79  1  0  0  0
 78149  1  0  0  0
 78150  1  0  0  0
 79151  1  0  0  0
 79152  1  0  0  0
 80 84  1  0  0  0
 80 85  1  0  0  0
 80 86  1  0  0  0
 81153  1  0  0  0
 82154  1  0  0  0
M  ISO  4   1 100  68 101  79 101  82 100
M  END
> <chiral flag>
0

> <version>
0

> <s_m_source_file>
/data/baiqing/PycharmProjects/Reinvent-master-3.2/result/LINK_invent/BTK/process_docking_weight1_custom_sum_contain_oxygen_bond_distance_aromatic_linkinvent_7_9_3/rearranged_h_0013.sdf

> <i_m_source_file_index>
60

> <r_mmod_Potential_Energy-OPLS-2005>
233.136642456055

> <r_mmod_Stretch_Energy-OPLS-2005>
130.647567749023

> <r_mmod_Bend_Energy-OPLS-2005>
170.660385131836

> <r_mmod_Torsional_Energy-OPLS-2005>
263.181121826172

> <r_mmod_Improper_Torsional_Energy-OPLS-2005>
5.73695802688599

> <r_mmod_Van_der_Waal_Energy-OPLS-2005>
155.915939331055

> <r_mmod_Electrostatic_Energy-OPLS-2005>
-349.967895507812

> <r_mmod_Solvation_Energy-OPLS-2005>
-232.175888061523

> <b_mmod_Minimization_Converged-OPLS-2005>
0

> <r_mmod_RMS_Derivative-OPLS-2005>
0.801718771457672

$$$$
60
                    3D
 Structure written by MMmdl.
160168  0  0  1  0            999 V2000
  -30.7415  -14.4515   20.5153 C   0  0  0  0  0  0
  -30.4111  -12.2889   19.4175 C   0  0  0  0  0  0
  -29.4925  -12.5004   18.1998 C   0  0  0  0  0  0
  -28.0146  -12.3623   18.6108 C   0  0  0  0  0  0
  -27.6548  -13.2079   19.8636 C   0  0  2  0  0  0
  -28.7025  -13.0336   20.9892 C   0  0  0  0  0  0
  -25.2516  -13.8092   20.5708 C   0  0  0  0  0  0
  -24.1781  -13.0354   20.9172 C   0  0  0  0  0  0
  -24.6364  -11.6834   20.8703 C   0  0  0  0  0  0
  -23.9025  -10.4240   21.0354 C   0  0  0  0  0  0
  -24.3573   -9.4158   21.9137 C   0  0  0  0  0  0
  -23.6248   -8.2209   22.0729 C   0  0  0  0  0  0
  -22.4231   -8.0248   21.3511 C   0  0  0  0  0  0
  -21.9882   -9.0207   20.4587 C   0  0  0  0  0  0
  -22.7202  -10.2090   20.2992 C   0  0  0  0  0  0
  -21.6813   -6.0719   22.5260 C   0  0  0  0  0  0
  -21.3970   -6.5605   23.8196 C   0  0  0  0  0  0
  -21.3669   -5.6743   24.9148 C   0  0  0  0  0  0
  -21.6065   -4.3015   24.7178 C   0  0  0  0  0  0
  -21.8826   -3.8131   23.4288 C   0  0  0  0  0  0
  -21.9171   -4.6966   22.3364 C   0  0  0  0  0  0
  -22.7823  -13.5182   21.1834 C   0  0  0  0  0  0
  -22.1639   -4.2178   21.0935 F   0  0  0  0  0  0
  -21.5663   -3.4480   25.7683 F   0  0  0  0  0  0
  -30.0355  -13.2948   20.4239 N   0  0  0  0  0  0
  -26.2973  -12.9309   20.3310 N   0  0  0  0  0  0
  -25.9294  -11.6445   20.5715 N   0  0  0  0  0  0
  -22.0403  -12.8202   22.0358 N   0  0  0  0  0  0
  -25.4014  -15.1824   20.4247 N   0  0  0  0  0  0
  -31.9093  -14.5382   20.1316 O   0  0  0  0  0  0
  -21.6587   -6.8857   21.4218 O   0  0  0  0  0  0
  -22.3539  -14.5531   20.6715 O   0  0  0  0  0  0
  -24.6064  -31.8734   23.2174 C   0  0  0  0  0  0
  -25.8984  -32.4853   23.8437 C   0  0  1  0  0  0
  -27.2246  -27.4784   20.0856 C   0  0  0  0  0  0
  -25.5861  -33.8659   24.2376 N   0  0  0  0  0  0
  -23.3903  -30.4991   21.5590 C   0  0  2  0  0  0
  -24.8342  -28.9743   20.1131 C   0  0  0  0  0  0
  -22.7355  -29.4688   22.5042 C   0  0  0  0  0  0
  -18.0251  -28.1357   22.8485 C   0  0  0  0  0  0
  -24.1473  -36.7302   23.2637 C   0  0  0  0  0  0
  -25.9149  -30.8504   21.3654 C   0  0  0  0  0  0
  -25.9926  -29.4908   20.7068 C   0  0  0  0  0  0
  -27.1926  -28.7503   20.6895 C   0  0  0  0  0  0
  -26.0540  -26.9702   19.4793 C   0  0  0  0  0  0
  -24.8591  -27.7116   19.4965 C   0  0  0  0  0  0
  -23.5938  -29.8357   20.1709 C   0  0  0  0  0  0
  -25.4097  -36.3143   24.0358 C   0  0  1  0  0  0
  -20.5837  -28.3640   23.1337 C   0  0  2  0  0  0
  -20.6752  -26.9388   22.5420 C   0  0  0  0  0  0
  -19.5745  -26.6386   21.5187 C   0  0  0  0  0  0
  -18.1916  -26.7912   22.1599 C   0  0  0  0  0  0
  -19.1507  -28.8813   23.2908 C   0  0  0  0  0  0
  -18.9442  -30.1413   23.8922 C   0  0  0  0  0  0
  -17.6460  -30.6573   24.0567 C   0  0  0  0  0  0
  -25.9025  -34.9497   23.5168 C   0  0  0  0  0  0
  -16.5345  -29.9082   23.6320 C   0  0  0  0  0  0
  -16.7251  -28.6493   23.0348 C   0  0  0  0  0  0
  -26.4441  -31.6603   25.0727 C   0  0  0  0  0  0
  -25.3749  -31.3662   26.1500 C   0  0  0  0  0  0
  -27.0266  -30.3070   24.6026 C   0  0  0  0  0  0
  -27.6015  -32.4316   25.7495 C   0  0  0  0  0  0
  -27.5583  -37.1830   24.8465 C   0  0  0  0  0  0
  -21.4100  -29.3022   22.3765 N   0  0  0  0  0  0
  -26.4286  -37.3826   23.9417 N   0  0  0  0  0  0
  -24.6554  -31.0872   22.1055 N   0  0  0  0  0  0
  -23.4152  -28.8218   23.3063 O   0  0  0  0  0  0
  -28.3915  -26.7563   20.1061 O   0  0  0  0  0  0
  -26.5591  -34.8936   22.4735 O   0  0  0  0  0  0
  -23.5284  -32.1474   23.7597 O   0  0  0  0  0  0
  -31.6750  -17.3858   20.4371 C   0  0  0  0  0  0
  -32.0226  -18.5867   19.7869 C   0  0  0  0  0  0
  -30.3671  -16.8524   20.3298 C   0  0  0  0  0  0
  -29.7026  -18.8521   19.0649 C   0  0  0  0  0  0
  -31.0382  -19.3108   19.0829 C   0  0  0  0  0  0
  -29.3773  -17.6118   19.6628 C   0  0  0  0  0  0
  -33.4630  -19.0717   19.8127 C   0  0  0  0  0  0
  -27.9860  -23.0014   19.9206 C   0  0  0  0  0  0
  -28.4052  -24.4093   19.4786 C   0  0  0  0  0  0
  -28.2418  -21.9483   18.8351 C   0  0  0  0  0  0
  -28.2503  -25.4307   20.6103 C   0  0  0  0  0  0
  -28.0939  -20.5163   19.3647 C   0  0  0  0  0  0
  -30.0459  -15.5546   20.8419 N   0  0  0  0  0  0
  -28.7179  -19.6039   18.4662 O   0  0  0  0  0  0
  -31.4864  -20.7433   18.2204 Cl  0  0  0  0  0  0
  -27.7655  -17.0101   19.5225 Cl  0  0  0  0  0  0
  -31.4562  -12.3638   19.1076 H   0  0  0  0  0  0
  -30.2998  -11.2827   19.8232 H   0  0  0  0  0  0
  -29.7326  -11.7840   17.4131 H   0  0  0  0  0  0
  -29.6694  -13.4883   17.7702 H   0  0  0  0  0  0
  -27.8182  -11.3049   18.7987 H   0  0  0  0  0  0
  -27.3712  -12.6460   17.7760 H   0  0  0  0  0  0
  -27.6828  -14.2475   19.5424 H   0  0  0  0  0  0
  -28.6761  -12.0200   21.3889 H   0  0  0  0  0  0
  -28.4799  -13.6986   21.8256 H   0  0  0  0  0  0
  -25.2713   -9.5624   22.4712 H   0  0  0  0  0  0
  -23.9903   -7.4620   22.7490 H   0  0  0  0  0  0
  -21.0799   -8.8712   19.8921 H   0  0  0  0  0  0
  -22.3628  -10.9616   19.6087 H   0  0  0  0  0  0
  -21.1930   -7.6106   23.9701 H   0  0  0  0  0  0
  -21.1514   -6.0459   25.9065 H   0  0  0  0  0  0
  -22.0623   -2.7595   23.2758 H   0  0  0  0  0  0
  -22.3911  -11.9791   22.4685 H   0  0  0  0  0  0
  -21.1025  -13.1283   22.2527 H   0  0  0  0  0  0
  -24.6227  -15.8174   20.5605 H   0  0  0  0  0  0
  -26.2367  -15.6564   20.0996 H   0  0  0  0  0  0
  -26.7041  -32.5573   23.1195 H   0  0  0  0  0  0
  -25.0033  -33.9851   25.0534 H   0  0  0  0  0  0
  -22.6745  -31.3135   21.4283 H   0  0  0  0  0  0
  -23.3769  -35.9599   23.3310 H   0  0  0  0  0  0
  -24.3575  -36.8906   22.2051 H   0  0  0  0  0  0
  -23.7177  -37.6494   23.6635 H   0  0  0  0  0  0
  -26.0260  -31.6229   20.6038 H   0  0  0  0  0  0
  -26.8021  -30.8987   21.9849 H   0  0  0  0  0  0
  -28.0854  -29.1453   21.1545 H   0  0  0  0  0  0
  -26.0549  -26.0087   18.9879 H   0  0  0  0  0  0
  -23.9695  -27.3121   19.0295 H   0  0  0  0  0  0
  -23.6923  -30.6146   19.4148 H   0  0  0  0  0  0
  -22.7155  -29.2579   19.8787 H   0  0  0  0  0  0
  -25.1260  -36.2048   25.0852 H   0  0  0  0  0  0
  -20.9901  -28.3200   24.1468 H   0  0  0  0  0  0
  -20.5640  -26.2245   23.3594 H   0  0  0  0  0  0
  -21.6638  -26.7452   22.1235 H   0  0  0  0  0  0
  -19.6935  -25.6304   21.1195 H   0  0  0  0  0  0
  -19.6691  -27.3217   20.6731 H   0  0  0  0  0  0
  -17.4193  -26.6647   21.3995 H   0  0  0  0  0  0
  -18.0331  -26.0033   22.8976 H   0  0  0  0  0  0
  -19.7928  -30.7198   24.2316 H   0  0  0  0  0  0
  -17.5032  -31.6264   24.5152 H   0  0  0  0  0  0
  -15.5357  -30.3006   23.7630 H   0  0  0  0  0  0
  -15.8640  -28.0818   22.7075 H   0  0  0  0  0  0
  -24.5908  -30.7019   25.7848 H   0  0  0  0  0  0
  -24.8953  -32.2798   26.5023 H   0  0  0  0  0  0
  -25.8146  -30.8784   27.0209 H   0  0  0  0  0  0
  -26.2797  -29.6877   24.1042 H   0  0  0  0  0  0
  -27.4056  -29.7244   25.4431 H   0  0  0  0  0  0
  -27.8621  -30.4443   23.9155 H   0  0  0  0  0  0
  -27.2638  -33.3635   26.2050 H   0  0  0  0  0  0
  -28.3837  -32.6846   25.0321 H   0  0  0  0  0  0
  -28.0647  -31.8441   26.5439 H   0  0  0  0  0  0
  -28.2597  -38.0134   24.7551 H   0  0  0  0  0  0
  -28.1084  -36.2677   24.6234 H   0  0  0  0  0  0
  -27.2315  -37.1426   25.8870 H   0  0  0  0  0  0
  -20.9232  -29.8738   21.7001 H   0  0  0  0  0  0
  -26.0186  -38.2912   24.1420 H   0  0  0  0  0  0
  -32.4396  -16.8413   20.9704 H   0  0  0  0  0  0
  -34.0739  -18.4775   20.4921 H   0  0  0  0  0  0
  -33.5206  -20.1086   20.1421 H   0  0  0  0  0  0
  -33.9000  -19.0103   18.8146 H   0  0  0  0  0  0
  -26.9308  -22.9926   20.2022 H   0  0  0  0  0  0
  -28.5490  -22.7408   20.8191 H   0  0  0  0  0  0
  -27.8188  -24.7030   18.6089 H   0  0  0  0  0  0
  -29.4472  -24.4018   19.1582 H   0  0  0  0  0  0
  -29.2481  -22.0955   18.4526 H   0  0  0  0  0  0
  -27.5790  -22.0999   17.9818 H   0  0  0  0  0  0
  -29.0223  -25.2704   21.3640 H   0  0  0  0  0  0
  -27.3000  -25.2871   21.1311 H   0  0  0  0  0  0
  -27.0379  -20.2626   19.4688 H   0  0  0  0  0  0
  -28.5201  -20.4504   20.3704 H   0  0  0  0  0  0
  -29.0797  -15.3999   21.0893 H   0  0  0  0  0  0
  1 25  1  0  0  0
  1 30  2  0  0  0
  1 83  1  0  0  0
  2  3  1  0  0  0
  2 25  1  0  0  0
  2 87  1  0  0  0
  2 88  1  0  0  0
  3  4  1  0  0  0
  3 89  1  0  0  0
  3 90  1  0  0  0
  4  5  1  0  0  0
  4 91  1  0  0  0
  4 92  1  0  0  0
  5  6  1  0  0  0
  5 26  1  0  0  0
  5 93  1  0  0  0
  6 25  1  0  0  0
  6 94  1  0  0  0
  6 95  1  0  0  0
  7  8  2  0  0  0
  7 26  1  0  0  0
  7 29  1  0  0  0
  8  9  1  0  0  0
  8 22  1  0  0  0
  9 10  1  0  0  0
  9 27  2  0  0  0
 10 11  2  0  0  0
 10 15  1  0  0  0
 11 12  1  0  0  0
 11 96  1  0  0  0
 12 13  2  0  0  0
 12 97  1  0  0  0
 13 14  1  0  0  0
 13 31  1  0  0  0
 14 15  2  0  0  0
 14 98  1  0  0  0
 15 99  1  0  0  0
 16 17  2  0  0  0
 16 21  1  0  0  0
 16 31  1  0  0  0
 17 18  1  0  0  0
 17100  1  0  0  0
 18 19  2  0  0  0
 18101  1  0  0  0
 19 20  1  0  0  0
 19 24  1  0  0  0
 20 21  2  0  0  0
 20102  1  0  0  0
 21 23  1  0  0  0
 22 28  1  0  0  0
 22 32  2  0  0  0
 26 27  1  0  0  0
 28103  1  0  0  0
 28104  1  0  0  0
 29105  1  0  0  0
 29106  1  0  0  0
 33 34  1  0  0  0
 33 66  1  0  0  0
 33 70  2  0  0  0
 34 36  1  0  0  0
 34 59  1  0  0  0
 34107  1  0  0  0
 35 44  2  0  0  0
 35 45  1  0  0  0
 35 68  1  0  0  0
 36 56  1  0  0  0
 36108  1  0  0  0
 37 39  1  0  0  0
 37 47  1  0  0  0
 37 66  1  0  0  0
 37109  1  0  0  0
 38 43  2  0  0  0
 38 46  1  0  0  0
 38 47  1  0  0  0
 39 64  1  0  0  0
 39 67  2  0  0  0
 40 52  1  0  0  0
 40 53  2  0  0  0
 40 58  1  0  0  0
 41110  1  0  0  0
 41111  1  0  0  0
 41112  1  0  0  0
 41 48  1  0  0  0
 42 43  1  0  0  0
 42 66  1  0  0  0
 42113  1  0  0  0
 42114  1  0  0  0
 43 44  1  0  0  0
 44115  1  0  0  0
 45 46  2  0  0  0
 45116  1  0  0  0
 46117  1  0  0  0
 47118  1  0  0  0
 47119  1  0  0  0
 48 56  1  0  0  0
 48 65  1  0  0  0
 48120  1  0  0  0
 49 50  1  0  0  0
 49 53  1  0  0  0
 49 64  1  0  0  0
 49121  1  0  0  0
 50 51  1  0  0  0
 50122  1  0  0  0
 50123  1  0  0  0
 51 52  1  0  0  0
 51124  1  0  0  0
 51125  1  0  0  0
 52126  1  0  0  0
 52127  1  0  0  0
 53 54  1  0  0  0
 54 55  2  0  0  0
 54128  1  0  0  0
 55 57  1  0  0  0
 55129  1  0  0  0
 56 69  2  0  0  0
 57 58  2  0  0  0
 57130  1  0  0  0
 58131  1  0  0  0
 59 60  1  0  0  0
 59 61  1  0  0  0
 59 62  1  0  0  0
 60132  1  0  0  0
 60133  1  0  0  0
 60134  1  0  0  0
 61135  1  0  0  0
 61136  1  0  0  0
 61137  1  0  0  0
 62138  1  0  0  0
 62139  1  0  0  0
 62140  1  0  0  0
 63 65  1  0  0  0
 63141  1  0  0  0
 63142  1  0  0  0
 63143  1  0  0  0
 64144  1  0  0  0
 65145  1  0  0  0
 68 81  1  0  0  0
 71 72  2  0  0  0
 71 73  1  0  0  0
 71146  1  0  0  0
 72 75  1  0  0  0
 72 77  1  0  0  0
 73 76  2  0  0  0
 73 83  1  0  0  0
 74 75  2  0  0  0
 74 76  1  0  0  0
 74 84  1  0  0  0
 75 85  1  0  0  0
 76 86  1  0  0  0
 77147  1  0  0  0
 77148  1  0  0  0
 77149  1  0  0  0
 78 79  1  0  0  0
 78 80  1  0  0  0
 78150  1  0  0  0
 78151  1  0  0  0
 79 81  1  0  0  0
 79152  1  0  0  0
 79153  1  0  0  0
 80 82  1  0  0  0
 80154  1  0  0  0
 80155  1  0  0  0
 81156  1  0  0  0
 81157  1  0  0  0
 82 84  1  0  0  0
 82158  1  0  0  0
 82159  1  0  0  0
 83160  1  0  0  0
M  ISO  4   1 100  68 101  81 101  83 100
M  END
> <chiral flag>
0

> <version>
0

> <s_m_source_file>
/data/baiqing/PycharmProjects/Reinvent-master-3.2/result/LINK_invent/BTK/process_docking_weight1_custom_sum_contain_oxygen_bond_distance_aromatic_linkinvent_7_9_3/rearranged_h_0013.sdf

> <i_m_source_file_index>
61

> <r_mmod_Potential_Energy-OPLS-2005>
24.3853797912598

> <r_mmod_Stretch_Energy-OPLS-2005>
32.207878112793

> <r_mmod_Bend_Energy-OPLS-2005>
85.0735397338867

> <r_mmod_Torsional_Energy-OPLS-2005>
279.031372070312

> <r_mmod_Improper_Torsional_Energy-OPLS-2005>
6.62657451629639

> <r_mmod_Van_der_Waal_Energy-OPLS-2005>
162.302627563477

> <r_mmod_Electrostatic_Energy-OPLS-2005>
-365.736602783203

> <r_mmod_Solvation_Energy-OPLS-2005>
-191.515625

> <b_mmod_Minimization_Converged-OPLS-2005>
0

> <r_mmod_RMS_Derivative-OPLS-2005>
3.33342957496643

$$$$
61
                    3D
 Structure written by MMmdl.
171179  0  0  1  0            999 V2000
  -30.7431  -14.4268   20.6213 C   0  0  0  0  0  0
  -30.4170  -12.3002   19.4150 C   0  0  0  0  0  0
  -29.4911  -12.5204   18.2040 C   0  0  0  0  0  0
  -28.0108  -12.3885   18.6145 C   0  0  0  0  0  0
  -27.6634  -13.2108   19.8846 C   0  0  2  0  0  0
  -28.7051  -12.9790   21.0009 C   0  0  0  0  0  0
  -25.2557  -13.8129   20.5691 C   0  0  0  0  0  0
  -24.1802  -13.0403   20.9135 C   0  0  0  0  0  0
  -24.6376  -11.6881   20.8687 C   0  0  0  0  0  0
  -23.9049  -10.4275   21.0372 C   0  0  0  0  0  0
  -24.3590   -9.4206   21.9171 C   0  0  0  0  0  0
  -23.6268   -8.2241   22.0745 C   0  0  0  0  0  0
  -22.4260   -8.0277   21.3530 C   0  0  0  0  0  0
  -21.9890   -9.0249   20.4633 C   0  0  0  0  0  0
  -22.7217  -10.2121   20.3033 C   0  0  0  0  0  0
  -21.6857   -6.0731   22.5270 C   0  0  0  0  0  0
  -21.4025   -6.5632   23.8207 C   0  0  0  0  0  0
  -21.3645   -5.6780   24.9169 C   0  0  0  0  0  0
  -21.6020   -4.3042   24.7221 C   0  0  0  0  0  0
  -21.8833   -3.8138   23.4342 C   0  0  0  0  0  0
  -21.9206   -4.6958   22.3398 C   0  0  0  0  0  0
  -22.7830  -13.5229   21.1805 C   0  0  0  0  0  0
  -22.1671   -4.2141   21.0987 F   0  0  0  0  0  0
  -21.5600   -3.4534   25.7736 F   0  0  0  0  0  0
  -30.0398  -13.2760   20.4480 N   0  0  0  0  0  0
  -26.3034  -12.9332   20.3433 N   0  0  0  0  0  0
  -25.9318  -11.6472   20.5754 N   0  0  0  0  0  0
  -22.0455  -12.8218   22.0352 N   0  0  0  0  0  0
  -25.4200  -15.1825   20.4177 N   0  0  0  0  0  0
  -31.8445  -14.6195   20.0969 O   0  0  0  0  0  0
  -21.6629   -6.8871   21.4229 O   0  0  0  0  0  0
  -22.3533  -14.5569   20.6700 O   0  0  0  0  0  0
  -24.6133  -31.8699   23.2116 C   0  0  0  0  0  0
  -25.9026  -32.4828   23.8416 C   0  0  1  0  0  0
  -27.2354  -27.4377   20.0896 C   0  0  0  0  0  0
  -25.5876  -33.8625   24.2336 N   0  0  0  0  0  0
  -23.4010  -30.4947   21.5529 C   0  0  2  0  0  0
  -24.8462  -28.9652   20.1154 C   0  0  0  0  0  0
  -22.7393  -29.4682   22.4997 C   0  0  0  0  0  0
  -18.0263  -28.1383   22.8497 C   0  0  0  0  0  0
  -24.1480  -36.7320   23.2641 C   0  0  0  0  0  0
  -25.9300  -30.8368   21.3646 C   0  0  0  0  0  0
  -26.0069  -29.4715   20.7111 C   0  0  0  0  0  0
  -27.2012  -28.7150   20.6969 C   0  0  0  0  0  0
  -26.0486  -26.9484   19.4887 C   0  0  0  0  0  0
  -24.8617  -27.7020   19.5037 C   0  0  0  0  0  0
  -23.6084  -29.8315   20.1669 C   0  0  0  0  0  0
  -25.4096  -36.3118   24.0347 C   0  0  1  0  0  0
  -20.5854  -28.3668   23.1321 C   0  0  2  0  0  0
  -20.6748  -26.9409   22.5415 C   0  0  0  0  0  0
  -19.5732  -26.6409   21.5199 C   0  0  0  0  0  0
  -18.1906  -26.7934   22.1616 C   0  0  0  0  0  0
  -19.1513  -28.8838   23.2908 C   0  0  0  0  0  0
  -18.9441  -30.1436   23.8936 C   0  0  0  0  0  0
  -17.6447  -30.6589   24.0565 C   0  0  0  0  0  0
  -25.9021  -34.9479   23.5139 C   0  0  0  0  0  0
  -16.5336  -29.9093   23.6335 C   0  0  0  0  0  0
  -16.7257  -28.6509   23.0362 C   0  0  0  0  0  0
  -26.4463  -31.6595   25.0743 C   0  0  0  0  0  0
  -25.3745  -31.3686   26.1500 C   0  0  0  0  0  0
  -27.0274  -30.3039   24.6102 C   0  0  0  0  0  0
  -27.6044  -32.4322   25.7495 C   0  0  0  0  0  0
  -27.5580  -37.1812   24.8465 C   0  0  0  0  0  0
  -21.4121  -29.3044   22.3731 N   0  0  0  0  0  0
  -26.4285  -37.3803   23.9416 N   0  0  0  0  0  0
  -24.6664  -31.0814   22.1010 N   0  0  0  0  0  0
  -23.4157  -28.8214   23.3036 O   0  0  0  0  0  0
  -28.4178  -26.7175   20.1109 O   0  0  0  0  0  0
  -26.5598  -34.8925   22.4710 O   0  0  0  0  0  0
  -23.5325  -32.1452   23.7504 O   0  0  0  0  0  0
  -30.0013  -19.0957   21.7424 C   0  0  0  0  0  0
  -31.8989  -17.0293   21.8955 C   0  0  0  0  0  0
  -31.3419  -19.4103   22.0580 C   0  0  0  0  0  0
  -29.6104  -17.7626   21.4758 C   0  0  0  0  0  0
  -30.5625  -16.7189   21.5510 C   0  0  0  0  0  0
  -32.2843  -18.3619   22.1403 C   0  0  0  0  0  0
  -31.0113  -23.0111   21.3491 C   0  0  0  0  0  0
  -26.3808  -18.8210   20.1663 C   0  0  0  0  0  0
  -27.8400  -17.3194   18.7169 C   0  0  0  0  0  0
  -27.4634  -17.2891   22.3449 C   0  0  0  0  0  0
  -31.8003  -20.8449   22.3234 C   0  0  0  0  0  0
  -29.8524  -24.0127   21.2443 C   0  0  0  0  0  0
  -29.7100  -24.6221   19.8306 C   0  0  0  0  0  0
  -28.3895  -25.3804   19.6013 C   0  0  0  0  0  0
  -27.7749  -18.2020   19.9682 C   0  0  0  0  0  0
  -30.1209  -15.3838   21.3246 N   0  0  0  0  0  0
  -30.8061  -21.8951   22.0662 N   0  0  0  0  0  0
  -28.2759  -17.4683   21.1425 N   0  0  0  0  0  0
  -32.0819  -23.2537   20.7892 O   0  0  0  0  0  0
  -33.5714  -18.6314   22.4658 F   0  0  0  0  0  0
  -31.4612  -12.3899   19.1090 H   0  0  0  0  0  0
  -30.3067  -11.2869   19.8035 H   0  0  0  0  0  0
  -29.7254  -11.8065   17.4133 H   0  0  0  0  0  0
  -29.6696  -13.5115   17.7829 H   0  0  0  0  0  0
  -27.8079  -11.3321   18.7918 H   0  0  0  0  0  0
  -27.3671  -12.6902   17.7873 H   0  0  0  0  0  0
  -27.7106  -14.2631   19.6048 H   0  0  0  0  0  0
  -28.6746  -11.9423   21.3406 H   0  0  0  0  0  0
  -28.4635  -13.5784   21.8798 H   0  0  0  0  0  0
  -25.2722   -9.5693   22.4760 H   0  0  0  0  0  0
  -23.9957   -7.4636   22.7465 H   0  0  0  0  0  0
  -21.0823   -8.8771   19.8941 H   0  0  0  0  0  0
  -22.3664  -10.9660   19.6145 H   0  0  0  0  0  0
  -21.2023   -7.6137   23.9711 H   0  0  0  0  0  0
  -21.1444   -6.0507   25.9069 H   0  0  0  0  0  0
  -22.0627   -2.7606   23.2850 H   0  0  0  0  0  0
  -22.4040  -11.9879   22.4772 H   0  0  0  0  0  0
  -21.1098  -13.1295   22.2586 H   0  0  0  0  0  0
  -24.6470  -15.8282   20.5303 H   0  0  0  0  0  0
  -26.3023  -15.6484   20.2418 H   0  0  0  0  0  0
  -26.7092  -32.5546   23.1175 H   0  0  0  0  0  0
  -24.9982  -33.9798   25.0453 H   0  0  0  0  0  0
  -22.6892  -31.3115   21.4152 H   0  0  0  0  0  0
  -23.3741  -35.9653   23.3311 H   0  0  0  0  0  0
  -24.3578  -36.8933   22.2057 H   0  0  0  0  0  0
  -23.7230  -37.6527   23.6646 H   0  0  0  0  0  0
  -26.0435  -31.6045   20.5966 H   0  0  0  0  0  0
  -26.8152  -30.8873   21.9859 H   0  0  0  0  0  0
  -28.0974  -29.1055   21.1586 H   0  0  0  0  0  0
  -26.0076  -25.9862   19.0014 H   0  0  0  0  0  0
  -23.9671  -27.3071   19.0420 H   0  0  0  0  0  0
  -23.7137  -30.6077   19.4079 H   0  0  0  0  0  0
  -22.7316  -29.2529   19.8729 H   0  0  0  0  0  0
  -25.1256  -36.1990   25.0840 H   0  0  0  0  0  0
  -20.9949  -28.3231   24.1438 H   0  0  0  0  0  0
  -20.5647  -26.2265   23.3586 H   0  0  0  0  0  0
  -21.6616  -26.7443   22.1213 H   0  0  0  0  0  0
  -19.6888  -25.6326   21.1212 H   0  0  0  0  0  0
  -19.6675  -27.3233   20.6735 H   0  0  0  0  0  0
  -17.4171  -26.6694   21.4021 H   0  0  0  0  0  0
  -18.0309  -26.0065   22.9008 H   0  0  0  0  0  0
  -19.7908  -30.7228   24.2353 H   0  0  0  0  0  0
  -17.5003  -31.6280   24.5145 H   0  0  0  0  0  0
  -15.5340  -30.3004   23.7646 H   0  0  0  0  0  0
  -15.8647  -28.0827   22.7088 H   0  0  0  0  0  0
  -24.5907  -30.7040   25.7847 H   0  0  0  0  0  0
  -24.8939  -32.2827   26.4998 H   0  0  0  0  0  0
  -25.8120  -30.8831   27.0234 H   0  0  0  0  0  0
  -26.2796  -29.6825   24.1164 H   0  0  0  0  0  0
  -27.4041  -29.7252   25.4545 H   0  0  0  0  0  0
  -27.8637  -30.4341   23.9231 H   0  0  0  0  0  0
  -27.2660  -33.3620   26.2078 H   0  0  0  0  0  0
  -28.3837  -32.6899   25.0311 H   0  0  0  0  0  0
  -28.0724  -31.8452   26.5407 H   0  0  0  0  0  0
  -28.2591  -38.0115   24.7506 H   0  0  0  0  0  0
  -28.1075  -36.2645   24.6271 H   0  0  0  0  0  0
  -27.2306  -37.1445   25.8872 H   0  0  0  0  0  0
  -20.9265  -29.8760   21.6959 H   0  0  0  0  0  0
  -26.0183  -38.2884   24.1415 H   0  0  0  0  0  0
  -29.2576  -19.8769   21.7005 H   0  0  0  0  0  0
  -32.6432  -16.2513   21.9808 H   0  0  0  0  0  0
  -26.1033  -19.4274   19.3032 H   0  0  0  0  0  0
  -26.3588  -19.4820   21.0335 H   0  0  0  0  0  0
  -25.6066  -18.0650   20.2911 H   0  0  0  0  0  0
  -27.5579  -17.8897   17.8313 H   0  0  0  0  0  0
  -27.1711  -16.4639   18.7796 H   0  0  0  0  0  0
  -28.8495  -16.9418   18.5500 H   0  0  0  0  0  0
  -27.9241  -16.5711   23.0258 H   0  0  0  0  0  0
  -26.4680  -16.9173   22.1053 H   0  0  0  0  0  0
  -27.3480  -18.2316   22.8824 H   0  0  0  0  0  0
  -32.7040  -21.0129   21.7342 H   0  0  0  0  0  0
  -32.1057  -20.9135   23.3678 H   0  0  0  0  0  0
  -30.0033  -24.8068   21.9760 H   0  0  0  0  0  0
  -28.9284  -23.5023   21.5185 H   0  0  0  0  0  0
  -29.7463  -23.8047   19.1086 H   0  0  0  0  0  0
  -30.5575  -25.2673   19.5934 H   0  0  0  0  0  0
  -27.5767  -24.8089   20.0546 H   0  0  0  0  0  0
  -28.1990  -25.4275   18.5278 H   0  0  0  0  0  0
  -28.4365  -19.0433   19.7587 H   0  0  0  0  0  0
  -29.1450  -15.2202   21.5245 H   0  0  0  0  0  0
  -29.9066  -21.7863   22.5139 H   0  0  0  0  0  0
  1 25  1  0  0  0
  1 30  2  0  0  0
  1 86  1  0  0  0
  2  3  1  0  0  0
  2 25  1  0  0  0
  2 91  1  0  0  0
  2 92  1  0  0  0
  3  4  1  0  0  0
  3 93  1  0  0  0
  3 94  1  0  0  0
  4  5  1  0  0  0
  4 95  1  0  0  0
  4 96  1  0  0  0
  5  6  1  0  0  0
  5 26  1  0  0  0
  5 97  1  0  0  0
  6 25  1  0  0  0
  6 98  1  0  0  0
  6 99  1  0  0  0
  7  8  2  0  0  0
  7 26  1  0  0  0
  7 29  1  0  0  0
  8  9  1  0  0  0
  8 22  1  0  0  0
  9 10  1  0  0  0
  9 27  2  0  0  0
 10 11  2  0  0  0
 10 15  1  0  0  0
 11 12  1  0  0  0
 11100  1  0  0  0
 12 13  2  0  0  0
 12101  1  0  0  0
 13 14  1  0  0  0
 13 31  1  0  0  0
 14 15  2  0  0  0
 14102  1  0  0  0
 15103  1  0  0  0
 16 17  2  0  0  0
 16 21  1  0  0  0
 16 31  1  0  0  0
 17 18  1  0  0  0
 17104  1  0  0  0
 18 19  2  0  0  0
 18105  1  0  0  0
 19 20  1  0  0  0
 19 24  1  0  0  0
 20 21  2  0  0  0
 20106  1  0  0  0
 21 23  1  0  0  0
 22 28  1  0  0  0
 22 32  2  0  0  0
 26 27  1  0  0  0
 28107  1  0  0  0
 28108  1  0  0  0
 29109  1  0  0  0
 29110  1  0  0  0
 33 34  1  0  0  0
 33 66  1  0  0  0
 33 70  2  0  0  0
 34 36  1  0  0  0
 34 59  1  0  0  0
 34111  1  0  0  0
 35 44  2  0  0  0
 35 45  1  0  0  0
 35 68  1  0  0  0
 36 56  1  0  0  0
 36112  1  0  0  0
 37 39  1  0  0  0
 37 47  1  0  0  0
 37 66  1  0  0  0
 37113  1  0  0  0
 38 43  2  0  0  0
 38 46  1  0  0  0
 38 47  1  0  0  0
 39 64  1  0  0  0
 39 67  2  0  0  0
 40 52  1  0  0  0
 40 53  2  0  0  0
 40 58  1  0  0  0
 41114  1  0  0  0
 41115  1  0  0  0
 41116  1  0  0  0
 41 48  1  0  0  0
 42 43  1  0  0  0
 42 66  1  0  0  0
 42117  1  0  0  0
 42118  1  0  0  0
 43 44  1  0  0  0
 44119  1  0  0  0
 45 46  2  0  0  0
 45120  1  0  0  0
 46121  1  0  0  0
 47122  1  0  0  0
 47123  1  0  0  0
 48 56  1  0  0  0
 48 65  1  0  0  0
 48124  1  0  0  0
 49 50  1  0  0  0
 49 53  1  0  0  0
 49 64  1  0  0  0
 49125  1  0  0  0
 50 51  1  0  0  0
 50126  1  0  0  0
 50127  1  0  0  0
 51 52  1  0  0  0
 51128  1  0  0  0
 51129  1  0  0  0
 52130  1  0  0  0
 52131  1  0  0  0
 53 54  1  0  0  0
 54 55  2  0  0  0
 54132  1  0  0  0
 55 57  1  0  0  0
 55133  1  0  0  0
 56 69  2  0  0  0
 57 58  2  0  0  0
 57134  1  0  0  0
 58135  1  0  0  0
 59 60  1  0  0  0
 59 61  1  0  0  0
 59 62  1  0  0  0
 60136  1  0  0  0
 60137  1  0  0  0
 60138  1  0  0  0
 61139  1  0  0  0
 61140  1  0  0  0
 61141  1  0  0  0
 62142  1  0  0  0
 62143  1  0  0  0
 62144  1  0  0  0
 63 65  1  0  0  0
 63145  1  0  0  0
 63146  1  0  0  0
 63147  1  0  0  0
 64148  1  0  0  0
 65149  1  0  0  0
 68 84  1  0  0  0
 71 73  2  0  0  0
 71 74  1  0  0  0
 71150  1  0  0  0
 72 75  1  0  0  0
 72 76  2  0  0  0
 72151  1  0  0  0
 73 76  1  0  0  0
 73 81  1  0  0  0
 74 75  2  0  0  0
 74 88  1  0  0  0
 75 86  1  0  0  0
 76 90  1  0  0  0
 77 82  1  0  0  0
 77 87  1  0  0  0
 77 89  2  0  0  0
 78152  1  0  0  0
 78153  1  0  0  0
 78154  1  0  0  0
 78 85  1  0  0  0
 79 85  1  0  0  0
 79155  1  0  0  0
 79156  1  0  0  0
 79157  1  0  0  0
 80 88  1  0  0  0
 80158  1  0  0  0
 80159  1  0  0  0
 80160  1  0  0  0
 81 87  1  0  0  0
 81161  1  0  0  0
 81162  1  0  0  0
 82 83  1  0  0  0
 82163  1  0  0  0
 82164  1  0  0  0
 83 84  1  0  0  0
 83165  1  0  0  0
 83166  1  0  0  0
 84167  1  0  0  0
 84168  1  0  0  0
 85 88  1  0  0  0
 85169  1  0  0  0
 86170  1  0  0  0
 87171  1  0  0  0
M  ISO  4   1 100  68 101  84 101  86 100
M  END
> <chiral flag>
0

> <version>
0

> <s_m_source_file>
/data/baiqing/PycharmProjects/Reinvent-master-3.2/result/LINK_invent/BTK/process_docking_weight1_custom_sum_contain_oxygen_bond_distance_aromatic_linkinvent_7_9_3/rearranged_h_0013.sdf

> <i_m_source_file_index>
62

> <r_mmod_Potential_Energy-OPLS-2005>
-238.053894042969

> <r_mmod_Stretch_Energy-OPLS-2005>
36.8488731384277

> <r_mmod_Bend_Energy-OPLS-2005>
103.005546569824

> <r_mmod_Torsional_Energy-OPLS-2005>
245.757308959961

> <r_mmod_Improper_Torsional_Energy-OPLS-2005>
6.04324150085449

> <r_mmod_Van_der_Waal_Energy-OPLS-2005>
162.803619384766

> <r_mmod_Electrostatic_Energy-OPLS-2005>
-579.96826171875

> <r_mmod_Solvation_Energy-OPLS-2005>
-222.989364624023

> <b_mmod_Minimization_Converged-OPLS-2005>
0

> <r_mmod_RMS_Derivative-OPLS-2005>
2.15420579910278

$$$$
62
                    3D
 Structure written by MMmdl.
160168  0  0  1  0            999 V2000
  -30.4940  -14.9544   20.4194 C   0  0  0  0  0  0
  -30.4442  -12.5857   19.4962 C   0  0  0  0  0  0
  -29.5189  -12.5223   18.2559 C   0  0  0  0  0  0
  -28.0517  -12.3004   18.6724 C   0  0  0  0  0  0
  -27.6283  -13.2321   19.8374 C   0  0  2  0  0  0
  -28.6702  -13.2417   20.9761 C   0  0  0  0  0  0
  -25.2442  -13.8170   20.5664 C   0  0  0  0  0  0
  -24.1751  -13.0409   20.9172 C   0  0  0  0  0  0
  -24.6349  -11.6887   20.8714 C   0  0  0  0  0  0
  -23.9059  -10.4257   21.0402 C   0  0  0  0  0  0
  -24.3611   -9.4176   21.9195 C   0  0  0  0  0  0
  -23.6275   -8.2216   22.0756 C   0  0  0  0  0  0
  -22.4255   -8.0269   21.3555 C   0  0  0  0  0  0
  -21.9891   -9.0238   20.4642 C   0  0  0  0  0  0
  -22.7226  -10.2113   20.3053 C   0  0  0  0  0  0
  -21.6848   -6.0729   22.5280 C   0  0  0  0  0  0
  -21.4014   -6.5631   23.8215 C   0  0  0  0  0  0
  -21.3666   -5.6781   24.9176 C   0  0  0  0  0  0
  -21.6049   -4.3044   24.7222 C   0  0  0  0  0  0
  -21.8823   -3.8150   23.4330 C   0  0  0  0  0  0
  -21.9170   -4.6957   22.3391 C   0  0  0  0  0  0
  -22.7789  -13.5189   21.1869 C   0  0  0  0  0  0
  -22.1641   -4.2148   21.0963 F   0  0  0  0  0  0
  -21.5637   -3.4521   25.7725 F   0  0  0  0  0  0
  -29.9441  -13.6734   20.3824 N   0  0  0  0  0  0
  -26.2845  -12.9376   20.3194 N   0  0  0  0  0  0
  -25.9271  -11.6506   20.5703 N   0  0  0  0  0  0
  -22.0472  -12.8182   22.0441 N   0  0  0  0  0  0
  -25.4079  -15.1913   20.4102 N   0  0  0  0  0  0
  -31.6991  -15.0658   20.1645 O   0  0  0  0  0  0
  -21.6625   -6.8871   21.4254 O   0  0  0  0  0  0
  -22.3452  -14.5515   20.6734 O   0  0  0  0  0  0
  -24.6378  -31.8425   23.1919 C   0  0  0  0  0  0
  -25.9184  -32.4704   23.8251 C   0  0  1  0  0  0
  -27.2159  -27.1390   20.1479 C   0  0  0  0  0  0
  -25.5963  -33.8498   24.2186 N   0  0  0  0  0  0
  -23.4402  -30.4680   21.5331 C   0  0  2  0  0  0
  -24.8933  -28.8957   20.1074 C   0  0  0  0  0  0
  -22.7592  -29.4526   22.4842 C   0  0  0  0  0  0
  -18.0345  -28.1400   22.8431 C   0  0  0  0  0  0
  -24.1514  -36.7245   23.2626 C   0  0  0  0  0  0
  -25.9930  -30.7192   21.3886 C   0  0  0  0  0  0
  -26.0659  -29.3303   20.7321 C   0  0  0  0  0  0
  -27.2240  -28.4662   20.7397 C   0  0  0  0  0  0
  -26.0199  -26.8096   19.4716 C   0  0  0  0  0  0
  -24.8827  -27.6499   19.4614 C   0  0  0  0  0  0
  -23.6689  -29.7987   20.1489 C   0  0  0  0  0  0
  -25.4147  -36.3040   24.0312 C   0  0  1  0  0  0
  -20.5949  -28.3707   23.1207 C   0  0  2  0  0  0
  -20.6841  -26.9401   22.5405 C   0  0  0  0  0  0
  -19.5798  -26.6243   21.5284 C   0  0  0  0  0  0
  -18.1977  -26.7895   22.1664 C   0  0  0  0  0  0
  -19.1609  -28.8854   23.2815 C   0  0  0  0  0  0
  -18.9552  -30.1450   23.8858 C   0  0  0  0  0  0
  -17.6547  -30.6568   24.0582 C   0  0  0  0  0  0
  -25.9075  -34.9419   23.5054 C   0  0  0  0  0  0
  -16.5433  -29.9069   23.6356 C   0  0  0  0  0  0
  -16.7343  -28.6527   23.0314 C   0  0  0  0  0  0
  -26.4535  -31.6551   25.0680 C   0  0  0  0  0  0
  -25.3755  -31.3675   26.1391 C   0  0  0  0  0  0
  -27.0374  -30.2958   24.6224 C   0  0  0  0  0  0
  -27.6097  -32.4281   25.7455 C   0  0  0  0  0  0
  -27.5588  -37.1789   24.8458 C   0  0  0  0  0  0
  -21.4294  -29.3047   22.3620 N   0  0  0  0  0  0
  -26.4309  -37.3762   23.9406 N   0  0  0  0  0  0
  -24.7094  -31.0323   22.0919 N   0  0  0  0  0  0
  -23.4276  -28.8094   23.2966 O   0  0  0  0  0  0
  -28.2960  -26.1878   20.2430 O   0  0  0  0  0  0
  -26.5645  -34.8921   22.4617 O   0  0  0  0  0  0
  -23.5530  -32.1255   23.7221 O   0  0  0  0  0  0
  -28.6068  -19.8338   19.6393 C   0  0  0  0  0  0
  -30.1234  -18.4515   21.5099 C   0  0  0  0  0  0
  -29.0315  -20.6640   20.7344 C   0  0  0  0  0  0
  -28.8676  -18.3938   19.5176 C   0  0  0  0  0  0
  -29.8305  -19.8743   21.6506 C   0  0  0  0  0  0
  -29.6319  -17.6078   20.4636 C   0  0  0  0  0  0
  -28.4585  -22.1024   21.1924 C   0  0  0  0  0  0
  -28.1345  -23.4917   21.0043 C   0  0  0  0  0  0
  -28.2232  -17.6659   18.3483 C   0  0  0  0  0  0
  -30.3205  -20.5336   22.9331 C   0  0  0  0  0  0
  -25.8857  -24.1637   22.0241 C   0  0  0  0  0  0
  -27.4130  -24.1337   22.2014 C   0  0  0  0  0  0
  -28.2851  -24.6640   19.8791 C   0  0  0  0  0  0
  -29.6118  -16.0675   20.5145 N   0  0  0  0  0  0
  -31.4773  -12.7540   19.1868 H   0  0  0  0  0  0
  -30.4419  -11.6344   20.0309 H   0  0  0  0  0  0
  -29.8430  -11.7273   17.5809 H   0  0  0  0  0  0
  -29.5969  -13.4526   17.6922 H   0  0  0  0  0  0
  -27.9497  -11.2588   18.9747 H   0  0  0  0  0  0
  -27.3845  -12.4348   17.8193 H   0  0  0  0  0  0
  -27.6045  -14.2358   19.4129 H   0  0  0  0  0  0
  -28.7559  -12.2517   21.4291 H   0  0  0  0  0  0
  -28.3589  -13.9160   21.7763 H   0  0  0  0  0  0
  -25.2755   -9.5639   22.4777 H   0  0  0  0  0  0
  -23.9977   -7.4591   22.7455 H   0  0  0  0  0  0
  -21.0835   -8.8742   19.8917 H   0  0  0  0  0  0
  -22.3689  -10.9655   19.6148 H   0  0  0  0  0  0
  -21.2036   -7.6135   23.9724 H   0  0  0  0  0  0
  -21.1484   -6.0503   25.9077 H   0  0  0  0  0  0
  -22.0590   -2.7602   23.2828 H   0  0  0  0  0  0
  -22.4100  -11.9858   22.4849 H   0  0  0  0  0  0
  -21.1085  -13.1187   22.2662 H   0  0  0  0  0  0
  -24.6398  -15.8421   20.5440 H   0  0  0  0  0  0
  -26.2420  -15.6348   20.0562 H   0  0  0  0  0  0
  -26.7234  -32.5336   23.0953 H   0  0  0  0  0  0
  -25.0166  -33.9590   25.0388 H   0  0  0  0  0  0
  -22.7406  -31.2957   21.3895 H   0  0  0  0  0  0
  -23.3811  -35.9536   23.3272 H   0  0  0  0  0  0
  -24.3565  -36.8894   22.2028 H   0  0  0  0  0  0
  -23.7262  -37.6435   23.6672 H   0  0  0  0  0  0
  -26.1422  -31.4745   20.6142 H   0  0  0  0  0  0
  -26.8539  -30.7658   22.0421 H   0  0  0  0  0  0
  -28.1225  -28.7896   21.2470 H   0  0  0  0  0  0
  -25.9256  -25.8629   18.9663 H   0  0  0  0  0  0
  -23.9860  -27.3179   18.9596 H   0  0  0  0  0  0
  -23.8110  -30.5688   19.3905 H   0  0  0  0  0  0
  -22.7791  -29.2473   19.8379 H   0  0  0  0  0  0
  -25.1358  -36.1819   25.0809 H   0  0  0  0  0  0
  -21.0063  -28.3285   24.1318 H   0  0  0  0  0  0
  -20.5811  -26.2328   23.3642 H   0  0  0  0  0  0
  -21.6678  -26.7434   22.1137 H   0  0  0  0  0  0
  -19.6947  -25.6070   21.1520 H   0  0  0  0  0  0
  -19.6727  -27.2901   20.6697 H   0  0  0  0  0  0
  -17.4263  -26.6575   21.4066 H   0  0  0  0  0  0
  -18.0394  -26.0090   22.9118 H   0  0  0  0  0  0
  -19.8030  -30.7236   24.2243 H   0  0  0  0  0  0
  -17.5127  -31.6219   24.5249 H   0  0  0  0  0  0
  -15.5453  -30.2951   23.7753 H   0  0  0  0  0  0
  -15.8732  -28.0877   22.7002 H   0  0  0  0  0  0
  -24.6032  -30.6923   25.7696 H   0  0  0  0  0  0
  -24.8847  -32.2811   26.4738 H   0  0  0  0  0  0
  -25.8060  -30.8918   27.0214 H   0  0  0  0  0  0
  -26.2936  -29.6696   24.1298 H   0  0  0  0  0  0
  -27.4066  -29.7249   25.4746 H   0  0  0  0  0  0
  -27.8830  -30.4199   23.9465 H   0  0  0  0  0  0
  -27.2758  -33.3643   26.1931 H   0  0  0  0  0  0
  -28.3945  -32.6710   25.0280 H   0  0  0  0  0  0
  -28.0709  -31.8451   26.5430 H   0  0  0  0  0  0
  -28.2605  -38.0098   24.7542 H   0  0  0  0  0  0
  -28.1109  -36.2629   24.6270 H   0  0  0  0  0  0
  -27.2288  -37.1406   25.8859 H   0  0  0  0  0  0
  -20.9504  -29.8836   21.6864 H   0  0  0  0  0  0
  -26.0169  -38.2824   24.1449 H   0  0  0  0  0  0
  -27.9564  -20.2928   18.9064 H   0  0  0  0  0  0
  -30.6754  -17.9732   22.3063 H   0  0  0  0  0  0
  -28.0614  -21.8408   22.1597 H   0  0  0  0  0  0
  -27.3270  -17.1391   18.6749 H   0  0  0  0  0  0
  -28.9107  -16.9339   17.9203 H   0  0  0  0  0  0
  -27.9334  -18.3517   17.5499 H   0  0  0  0  0  0
  -31.1168  -19.9646   23.4160 H   0  0  0  0  0  0
  -29.5014  -20.6311   23.6476 H   0  0  0  0  0  0
  -30.7159  -21.5280   22.7306 H   0  0  0  0  0  0
  -25.3916  -24.4790   22.9421 H   0  0  0  0  0  0
  -25.4978  -23.1755   21.7692 H   0  0  0  0  0  0
  -25.5808  -24.8564   21.2406 H   0  0  0  0  0  0
  -27.7811  -25.1451   22.3843 H   0  0  0  0  0  0
  -27.6460  -23.6135   23.1306 H   0  0  0  0  0  0
  -27.5232  -24.4875   19.1223 H   0  0  0  0  0  0
  -29.2258  -24.4567   19.3653 H   0  0  0  0  0  0
  -28.6702  -15.7245   20.5987 H   0  0  0  0  0  0
  1 25  1  0  0  0
  1 30  2  0  0  0
  1 84  1  0  0  0
  2  3  1  0  0  0
  2 25  1  0  0  0
  2 85  1  0  0  0
  2 86  1  0  0  0
  3  4  1  0  0  0
  3 87  1  0  0  0
  3 88  1  0  0  0
  4  5  1  0  0  0
  4 89  1  0  0  0
  4 90  1  0  0  0
  5  6  1  0  0  0
  5 26  1  0  0  0
  5 91  1  0  0  0
  6 25  1  0  0  0
  6 92  1  0  0  0
  6 93  1  0  0  0
  7  8  2  0  0  0
  7 26  1  0  0  0
  7 29  1  0  0  0
  8  9  1  0  0  0
  8 22  1  0  0  0
  9 10  1  0  0  0
  9 27  2  0  0  0
 10 11  2  0  0  0
 10 15  1  0  0  0
 11 12  1  0  0  0
 11 94  1  0  0  0
 12 13  2  0  0  0
 12 95  1  0  0  0
 13 14  1  0  0  0
 13 31  1  0  0  0
 14 15  2  0  0  0
 14 96  1  0  0  0
 15 97  1  0  0  0
 16 17  2  0  0  0
 16 21  1  0  0  0
 16 31  1  0  0  0
 17 18  1  0  0  0
 17 98  1  0  0  0
 18 19  2  0  0  0
 18 99  1  0  0  0
 19 20  1  0  0  0
 19 24  1  0  0  0
 20 21  2  0  0  0
 20100  1  0  0  0
 21 23  1  0  0  0
 22 28  1  0  0  0
 22 32  2  0  0  0
 26 27  1  0  0  0
 28101  1  0  0  0
 28102  1  0  0  0
 29103  1  0  0  0
 29104  1  0  0  0
 33 34  1  0  0  0
 33 66  1  0  0  0
 33 70  2  0  0  0
 34 36  1  0  0  0
 34 59  1  0  0  0
 34105  1  0  0  0
 35 44  2  0  0  0
 35 45  1  0  0  0
 35 68  1  0  0  0
 36 56  1  0  0  0
 36106  1  0  0  0
 37 39  1  0  0  0
 37 47  1  0  0  0
 37 66  1  0  0  0
 37107  1  0  0  0
 38 43  2  0  0  0
 38 46  1  0  0  0
 38 47  1  0  0  0
 39 64  1  0  0  0
 39 67  2  0  0  0
 40 52  1  0  0  0
 40 53  2  0  0  0
 40 58  1  0  0  0
 41108  1  0  0  0
 41109  1  0  0  0
 41110  1  0  0  0
 41 48  1  0  0  0
 42 43  1  0  0  0
 42 66  1  0  0  0
 42111  1  0  0  0
 42112  1  0  0  0
 43 44  1  0  0  0
 44113  1  0  0  0
 45 46  2  0  0  0
 45114  1  0  0  0
 46115  1  0  0  0
 47116  1  0  0  0
 47117  1  0  0  0
 48 56  1  0  0  0
 48 65  1  0  0  0
 48118  1  0  0  0
 49 50  1  0  0  0
 49 53  1  0  0  0
 49 64  1  0  0  0
 49119  1  0  0  0
 50 51  1  0  0  0
 50120  1  0  0  0
 50121  1  0  0  0
 51 52  1  0  0  0
 51122  1  0  0  0
 51123  1  0  0  0
 52124  1  0  0  0
 52125  1  0  0  0
 53 54  1  0  0  0
 54 55  2  0  0  0
 54126  1  0  0  0
 55 57  1  0  0  0
 55127  1  0  0  0
 56 69  2  0  0  0
 57 58  2  0  0  0
 57128  1  0  0  0
 58129  1  0  0  0
 59 60  1  0  0  0
 59 61  1  0  0  0
 59 62  1  0  0  0
 60130  1  0  0  0
 60131  1  0  0  0
 60132  1  0  0  0
 61133  1  0  0  0
 61134  1  0  0  0
 61135  1  0  0  0
 62136  1  0  0  0
 62137  1  0  0  0
 62138  1  0  0  0
 63 65  1  0  0  0
 63139  1  0  0  0
 63140  1  0  0  0
 63141  1  0  0  0
 64142  1  0  0  0
 65143  1  0  0  0
 68 83  1  0  0  0
 71 73  2  0  0  0
 71 74  1  0  0  0
 71144  1  0  0  0
 72 75  2  0  0  0
 72 76  1  0  0  0
 72145  1  0  0  0
 73 75  1  0  0  0
 73 77  1  0  0  0
 74 76  2  0  0  0
 74 79  1  0  0  0
 75 80  1  0  0  0
 76 84  1  0  0  0
 77 78  2  0  0  0
 77146  1  0  0  0
 78 82  1  0  0  0
 78 83  1  0  0  0
 79147  1  0  0  0
 79148  1  0  0  0
 79149  1  0  0  0
 80150  1  0  0  0
 80151  1  0  0  0
 80152  1  0  0  0
 81 82  1  0  0  0
 81153  1  0  0  0
 81154  1  0  0  0
 81155  1  0  0  0
 82156  1  0  0  0
 82157  1  0  0  0
 83158  1  0  0  0
 83159  1  0  0  0
 84160  1  0  0  0
M  ISO  4   1 100  68 101  83 101  84 100
M  END
> <chiral flag>
0

> <version>
0

> <s_m_source_file>
/data/baiqing/PycharmProjects/Reinvent-master-3.2/result/LINK_invent/BTK/process_docking_weight1_custom_sum_contain_oxygen_bond_distance_aromatic_linkinvent_7_9_3/rearranged_h_0013.sdf

> <i_m_source_file_index>
63

> <r_mmod_Potential_Energy-OPLS-2005>
635.303894042969

> <r_mmod_Stretch_Energy-OPLS-2005>
244.327651977539

> <r_mmod_Bend_Energy-OPLS-2005>
362.850128173828

> <r_mmod_Torsional_Energy-OPLS-2005>
271.423797607422

> <r_mmod_Improper_Torsional_Energy-OPLS-2005>
11.5041198730469

> <r_mmod_Van_der_Waal_Energy-OPLS-2005>
131.847091674805

> <r_mmod_Electrostatic_Energy-OPLS-2005>
-377.072784423828

> <r_mmod_Solvation_Energy-OPLS-2005>
-201.587280273438

> <b_mmod_Minimization_Converged-OPLS-2005>
0

> <r_mmod_RMS_Derivative-OPLS-2005>
4.47093391418457

$$$$
63
                    3D
 Structure written by MMmdl.
143150  0  0  1  0            999 V2000
  -30.1636  -16.0165   20.2837 C   0  0  0  0  0  0
  -30.4021  -13.3807   19.5097 C   0  0  0  0  0  0
  -29.5672  -12.7447   18.3499 C   0  0  0  0  0  0
  -28.1808  -12.2975   18.8321 C   0  0  0  0  0  0
  -27.5888  -13.3376   19.8001 C   0  0  2  0  0  0
  -28.5861  -13.8471   20.8777 C   0  0  0  0  0  0
  -25.2337  -13.8308   20.5832 C   0  0  0  0  0  0
  -24.1745  -13.0427   20.9297 C   0  0  0  0  0  0
  -24.6485  -11.6955   20.8763 C   0  0  0  0  0  0
  -23.9183  -10.4297   21.0405 C   0  0  0  0  0  0
  -24.3690   -9.4205   21.9200 C   0  0  0  0  0  0
  -23.6323   -8.2263   22.0773 C   0  0  0  0  0  0
  -22.4301   -8.0322   21.3557 C   0  0  0  0  0  0
  -21.9971   -9.0311   20.4658 C   0  0  0  0  0  0
  -22.7347  -10.2160   20.3056 C   0  0  0  0  0  0
  -21.6865   -6.0767   22.5277 C   0  0  0  0  0  0
  -21.4023   -6.5660   23.8211 C   0  0  0  0  0  0
  -21.3650   -5.6801   24.9170 C   0  0  0  0  0  0
  -21.6034   -4.3069   24.7210 C   0  0  0  0  0  0
  -21.8818   -3.8167   23.4328 C   0  0  0  0  0  0
  -21.9194   -4.6989   22.3390 C   0  0  0  0  0  0
  -22.7748  -13.5156   21.1899 C   0  0  0  0  0  0
  -22.1667   -4.2180   21.0968 F   0  0  0  0  0  0
  -21.5617   -3.4544   25.7721 F   0  0  0  0  0  0
  -29.6793  -14.5908   20.1704 N   0  0  0  0  0  0
  -26.2827  -12.9698   20.3296 N   0  0  0  0  0  0
  -25.9450  -11.6736   20.5678 N   0  0  0  0  0  0
  -22.0376  -12.8144   22.0431 N   0  0  0  0  0  0
  -25.3914  -15.2038   20.4227 N   0  0  0  0  0  0
  -31.4110  -15.8730   20.3150 O   0  0  0  0  0  0
  -21.6650   -6.8922   21.4243 O   0  0  0  0  0  0
  -22.3446  -14.5464   20.6738 O   0  0  0  0  0  0
  -24.7056  -31.7721   23.1279 C   0  0  0  0  0  0
  -25.9532  -32.4316   23.7901 C   0  0  1  0  0  0
  -27.2397  -26.4470   20.2423 C   0  0  0  0  0  0
  -25.6018  -33.8158   24.1777 N   0  0  0  0  0  0
  -23.5424  -30.3631   21.4905 C   0  0  2  0  0  0
  -25.0002  -28.6446   20.1351 C   0  0  0  0  0  0
  -22.7854  -29.4187   22.4644 C   0  0  0  0  0  0
  -18.0371  -28.1416   22.8423 C   0  0  0  0  0  0
  -24.1517  -36.7085   23.2660 C   0  0  0  0  0  0
  -26.1337  -30.4200   21.4327 C   0  0  0  0  0  0
  -26.1981  -28.9547   20.7902 C   0  0  0  0  0  0
  -27.2916  -27.8963   20.7967 C   0  0  0  0  0  0
  -26.0015  -26.4115   19.5305 C   0  0  0  0  0  0
  -24.9557  -27.3989   19.4822 C   0  0  0  0  0  0
  -23.8105  -29.6337   20.1397 C   0  0  0  0  0  0
  -25.4171  -36.2793   24.0256 C   0  0  1  0  0  0
  -20.6014  -28.3800   23.1070 C   0  0  2  0  0  0
  -20.6839  -26.9442   22.5381 C   0  0  0  0  0  0
  -19.5827  -26.6358   21.5191 C   0  0  0  0  0  0
  -18.2003  -26.7940   22.1583 C   0  0  0  0  0  0
  -19.1638  -28.8931   23.2716 C   0  0  0  0  0  0
  -18.9548  -30.1508   23.8772 C   0  0  0  0  0  0
  -17.6539  -30.6592   24.0541 C   0  0  0  0  0  0
  -25.9163  -34.9196   23.4875 C   0  0  0  0  0  0
  -16.5425  -29.9075   23.6350 C   0  0  0  0  0  0
  -16.7348  -28.6498   23.0359 C   0  0  0  0  0  0
  -26.4636  -31.6450   25.0620 C   0  0  0  0  0  0
  -25.3610  -31.3840   26.1159 C   0  0  0  0  0  0
  -27.0610  -30.2754   24.6715 C   0  0  0  0  0  0
  -27.6057  -32.4362   25.7419 C   0  0  0  0  0  0
  -27.5566  -37.1691   24.8469 C   0  0  0  0  0  0
  -21.4482  -29.3015   22.3371 N   0  0  0  0  0  0
  -26.4271  -37.3581   23.9410 N   0  0  0  0  0  0
  -24.8204  -30.8911   22.0685 N   0  0  0  0  0  0
  -23.4189  -28.7845   23.3110 O   0  0  0  0  0  0
  -28.2103  -25.1382   20.2091 O   0  0  0  0  0  0
  -26.5834  -34.8827   22.4520 O   0  0  0  0  0  0
  -23.6030  -32.0923   23.6086 O   0  0  0  0  0  0
  -28.1464  -17.3478   19.4672 C   0  0  0  0  0  0
  -28.8124  -21.3013   19.9737 C   0  0  0  0  0  0
  -29.3809  -19.3622   20.5689 C   0  0  0  0  0  0
  -28.2518  -23.2636   20.5080 C   0  0  0  0  0  0
  -29.4090  -17.4905   20.1879 N   0  0  0  0  0  0
  -31.3491  -13.7206   19.0871 H   0  0  0  0  0  0
  -30.6891  -12.6298   20.2484 H   0  0  0  0  0  0
  -30.1007  -11.9032   17.9056 H   0  0  0  0  0  0
  -29.4507  -13.4882   17.5599 H   0  0  0  0  0  0
  -28.2969  -11.3475   19.3561 H   0  0  0  0  0  0
  -27.5119  -12.1116   17.9905 H   0  0  0  0  0  0
  -27.3888  -14.1854   19.1460 H   0  0  0  0  0  0
  -28.9521  -13.0395   21.5131 H   0  0  0  0  0  0
  -28.0824  -14.5461   21.5462 H   0  0  0  0  0  0
  -25.2818   -9.5670   22.4811 H   0  0  0  0  0  0
  -24.0006   -7.4646   22.7503 H   0  0  0  0  0  0
  -21.0901   -8.8859   19.8964 H   0  0  0  0  0  0
  -22.3825  -10.9720   19.6176 H   0  0  0  0  0  0
  -21.2033   -7.6171   23.9723 H   0  0  0  0  0  0
  -21.1463   -6.0535   25.9069 H   0  0  0  0  0  0
  -22.0599   -2.7631   23.2819 H   0  0  0  0  0  0
  -22.3953  -11.9803   22.4832 H   0  0  0  0  0  0
  -21.0994  -13.1198   22.2586 H   0  0  0  0  0  0
  -24.6180  -15.8537   20.5135 H   0  0  0  0  0  0
  -26.2365  -15.6377   20.0778 H   0  0  0  0  0  0
  -26.7628  -32.4715   23.0604 H   0  0  0  0  0  0
  -25.0022  -33.9142   24.9835 H   0  0  0  0  0  0
  -22.8827  -31.2078   21.2796 H   0  0  0  0  0  0
  -23.3793  -35.9400   23.3237 H   0  0  0  0  0  0
  -24.3589  -36.8852   22.2098 H   0  0  0  0  0  0
  -23.7284  -37.6231   23.6819 H   0  0  0  0  0  0
  -26.3696  -31.1317   20.6405 H   0  0  0  0  0  0
  -26.9701  -30.4928   22.1139 H   0  0  0  0  0  0
  -28.1969  -28.1645   21.3228 H   0  0  0  0  0  0
  -25.7942  -25.4939   18.9988 H   0  0  0  0  0  0
  -24.0597  -27.1443   18.9321 H   0  0  0  0  0  0
  -24.0068  -30.3831   19.3723 H   0  0  0  0  0  0
  -22.9079  -29.1151   19.8100 H   0  0  0  0  0  0
  -25.1403  -36.1503   25.0741 H   0  0  0  0  0  0
  -21.0074  -28.3462   24.1202 H   0  0  0  0  0  0
  -20.5710  -26.2429   23.3662 H   0  0  0  0  0  0
  -21.6702  -26.7377   22.1213 H   0  0  0  0  0  0
  -19.7002  -25.6243   21.1297 H   0  0  0  0  0  0
  -19.6788  -27.3096   20.6667 H   0  0  0  0  0  0
  -17.4282  -26.6659   21.3976 H   0  0  0  0  0  0
  -18.0400  -26.0087   22.8982 H   0  0  0  0  0  0
  -19.8041  -30.7337   24.2090 H   0  0  0  0  0  0
  -17.5110  -31.6270   24.5154 H   0  0  0  0  0  0
  -15.5426  -30.2945   23.7749 H   0  0  0  0  0  0
  -15.8745  -28.0788   22.7127 H   0  0  0  0  0  0
  -24.5835  -30.7168   25.7404 H   0  0  0  0  0  0
  -24.8745  -32.3083   26.4274 H   0  0  0  0  0  0
  -25.7670  -30.9167   27.0138 H   0  0  0  0  0  0
  -26.3378  -29.6279   24.1734 H   0  0  0  0  0  0
  -27.3964  -29.7306   25.5554 H   0  0  0  0  0  0
  -27.9394  -30.3809   24.0341 H   0  0  0  0  0  0
  -27.2609  -33.3796   26.1651 H   0  0  0  0  0  0
  -28.4001  -32.6704   25.0320 H   0  0  0  0  0  0
  -28.0563  -31.8717   26.5586 H   0  0  0  0  0  0
  -28.2518  -38.0043   24.7519 H   0  0  0  0  0  0
  -28.1127  -36.2561   24.6293 H   0  0  0  0  0  0
  -27.2274  -37.1305   25.8866 H   0  0  0  0  0  0
  -20.9828  -29.8607   21.6350 H   0  0  0  0  0  0
  -26.0066  -38.2612   24.1440 H   0  0  0  0  0  0
  -28.1011  -18.0711   18.6522 H   0  0  0  0  0  0
  -27.3084  -17.5390   20.1372 H   0  0  0  0  0  0
  -28.0019  -16.3666   19.0140 H   0  0  0  0  0  0
  -28.0363  -21.0683   19.2450 H   0  0  0  0  0  0
  -29.6673  -21.5348   19.3396 H   0  0  0  0  0  0
  -28.8748  -19.3113   21.5346 H   0  0  0  0  0  0
  -30.4241  -19.5134   20.8524 H   0  0  0  0  0  0
  -27.2187  -23.1099   20.8199 H   0  0  0  0  0  0
  -28.7962  -23.3194   21.4512 H   0  0  0  0  0  0
  1 25  1  0  0  0
  1 30  2  0  0  0
  1 75  1  0  0  0
  2  3  1  0  0  0
  2 25  1  0  0  0
  2 76  1  0  0  0
  2 77  1  0  0  0
  3  4  1  0  0  0
  3 78  1  0  0  0
  3 79  1  0  0  0
  4  5  1  0  0  0
  4 80  1  0  0  0
  4 81  1  0  0  0
  5  6  1  0  0  0
  5 26  1  0  0  0
  5 82  1  0  0  0
  6 25  1  0  0  0
  6 83  1  0  0  0
  6 84  1  0  0  0
  7  8  2  0  0  0
  7 26  1  0  0  0
  7 29  1  0  0  0
  8  9  1  0  0  0
  8 22  1  0  0  0
  9 10  1  0  0  0
  9 27  2  0  0  0
 10 11  2  0  0  0
 10 15  1  0  0  0
 11 12  1  0  0  0
 11 85  1  0  0  0
 12 13  2  0  0  0
 12 86  1  0  0  0
 13 14  1  0  0  0
 13 31  1  0  0  0
 14 15  2  0  0  0
 14 87  1  0  0  0
 15 88  1  0  0  0
 16 17  2  0  0  0
 16 21  1  0  0  0
 16 31  1  0  0  0
 17 18  1  0  0  0
 17 89  1  0  0  0
 18 19  2  0  0  0
 18 90  1  0  0  0
 19 20  1  0  0  0
 19 24  1  0  0  0
 20 21  2  0  0  0
 20 91  1  0  0  0
 21 23  1  0  0  0
 22 28  1  0  0  0
 22 32  2  0  0  0
 26 27  1  0  0  0
 28 92  1  0  0  0
 28 93  1  0  0  0
 29 94  1  0  0  0
 29 95  1  0  0  0
 33 34  1  0  0  0
 33 66  1  0  0  0
 33 70  2  0  0  0
 34 36  1  0  0  0
 34 59  1  0  0  0
 34 96  1  0  0  0
 35 44  2  0  0  0
 35 45  1  0  0  0
 35 68  1  0  0  0
 36 56  1  0  0  0
 36 97  1  0  0  0
 37 39  1  0  0  0
 37 47  1  0  0  0
 37 66  1  0  0  0
 37 98  1  0  0  0
 38 43  2  0  0  0
 38 46  1  0  0  0
 38 47  1  0  0  0
 39 64  1  0  0  0
 39 67  2  0  0  0
 40 52  1  0  0  0
 40 53  2  0  0  0
 40 58  1  0  0  0
 41 99  1  0  0  0
 41100  1  0  0  0
 41101  1  0  0  0
 41 48  1  0  0  0
 42 43  1  0  0  0
 42 66  1  0  0  0
 42102  1  0  0  0
 42103  1  0  0  0
 43 44  1  0  0  0
 44104  1  0  0  0
 45 46  2  0  0  0
 45105  1  0  0  0
 46106  1  0  0  0
 47107  1  0  0  0
 47108  1  0  0  0
 48 56  1  0  0  0
 48 65  1  0  0  0
 48109  1  0  0  0
 49 50  1  0  0  0
 49 53  1  0  0  0
 49 64  1  0  0  0
 49110  1  0  0  0
 50 51  1  0  0  0
 50111  1  0  0  0
 50112  1  0  0  0
 51 52  1  0  0  0
 51113  1  0  0  0
 51114  1  0  0  0
 52115  1  0  0  0
 52116  1  0  0  0
 53 54  1  0  0  0
 54 55  2  0  0  0
 54117  1  0  0  0
 55 57  1  0  0  0
 55118  1  0  0  0
 56 69  2  0  0  0
 57 58  2  0  0  0
 57119  1  0  0  0
 58120  1  0  0  0
 59 60  1  0  0  0
 59 61  1  0  0  0
 59 62  1  0  0  0
 60121  1  0  0  0
 60122  1  0  0  0
 60123  1  0  0  0
 61124  1  0  0  0
 61125  1  0  0  0
 61126  1  0  0  0
 62127  1  0  0  0
 62128  1  0  0  0
 62129  1  0  0  0
 63 65  1  0  0  0
 63130  1  0  0  0
 63131  1  0  0  0
 63132  1  0  0  0
 64133  1  0  0  0
 65134  1  0  0  0
 68 74  1  0  0  0
 71 75  1  0  0  0
 71135  1  0  0  0
 71136  1  0  0  0
 71137  1  0  0  0
 72 73  1  0  0  0
 72 74  1  0  0  0
 72138  1  0  0  0
 72139  1  0  0  0
 73 75  1  0  0  0
 73140  1  0  0  0
 73141  1  0  0  0
 74142  1  0  0  0
 74143  1  0  0  0
M  ISO  4   1 100  68 101  74 101  75 100
M  END
> <chiral flag>
0

> <version>
0

> <s_m_source_file>
/data/baiqing/PycharmProjects/Reinvent-master-3.2/result/LINK_invent/BTK/process_docking_weight1_custom_sum_contain_oxygen_bond_distance_aromatic_linkinvent_7_9_3/rearranged_h_0013.sdf

> <i_m_source_file_index>
64

> <r_mmod_Potential_Energy-OPLS-2005>
4303.49072265625

> <r_mmod_Stretch_Energy-OPLS-2005>
1937.3203125

> <r_mmod_Bend_Energy-OPLS-2005>
891.069641113281

> <r_mmod_Torsional_Energy-OPLS-2005>
308.0107421875

> <r_mmod_Improper_Torsional_Energy-OPLS-2005>
4.89766931533813

> <r_mmod_Van_der_Waal_Energy-OPLS-2005>
112.25927734375

> <r_mmod_Electrostatic_Energy-OPLS-2005>
-274.442291259766

> <r_mmod_Solvation_Energy-OPLS-2005>
-215.008483886719

> <b_mmod_Minimization_Converged-OPLS-2005>
0

> <r_mmod_RMS_Derivative-OPLS-2005>
2.3036835193634

$$$$
64
                    3D
 Structure written by MMmdl.
157165  0  0  1  0            999 V2000
  -30.7879  -14.3882   20.6439 C   0  0  0  0  0  0
  -30.4068  -12.2889   19.4102 C   0  0  0  0  0  0
  -29.4827  -12.5156   18.1995 C   0  0  0  0  0  0
  -28.0079  -12.3739   18.6173 C   0  0  0  0  0  0
  -27.6633  -13.2112   19.8777 C   0  0  2  0  0  0
  -28.7047  -12.9921   20.9998 C   0  0  0  0  0  0
  -25.2589  -13.8172   20.5693 C   0  0  0  0  0  0
  -24.1832  -13.0445   20.9158 C   0  0  0  0  0  0
  -24.6392  -11.6907   20.8717 C   0  0  0  0  0  0
  -23.9053  -10.4295   21.0387 C   0  0  0  0  0  0
  -24.3611   -9.4211   21.9169 C   0  0  0  0  0  0
  -23.6287   -8.2249   22.0746 C   0  0  0  0  0  0
  -22.4273   -8.0282   21.3538 C   0  0  0  0  0  0
  -21.9902   -9.0252   20.4637 C   0  0  0  0  0  0
  -22.7225  -10.2133   20.3039 C   0  0  0  0  0  0
  -21.6859   -6.0729   22.5272 C   0  0  0  0  0  0
  -21.4021   -6.5633   23.8204 C   0  0  0  0  0  0
  -21.3662   -5.6786   24.9167 C   0  0  0  0  0  0
  -21.6043   -4.3049   24.7218 C   0  0  0  0  0  0
  -21.8821   -3.8141   23.4341 C   0  0  0  0  0  0
  -21.9196   -4.6956   22.3396 C   0  0  0  0  0  0
  -22.7857  -13.5230   21.1837 C   0  0  0  0  0  0
  -22.1663   -4.2144   21.0973 F   0  0  0  0  0  0
  -21.5629   -3.4533   25.7731 F   0  0  0  0  0  0
  -30.0459  -13.2643   20.4517 N   0  0  0  0  0  0
  -26.3034  -12.9359   20.3390 N   0  0  0  0  0  0
  -25.9325  -11.6508   20.5770 N   0  0  0  0  0  0
  -22.0502  -12.8230   22.0401 N   0  0  0  0  0  0
  -25.4302  -15.1894   20.4137 N   0  0  0  0  0  0
  -31.8310  -14.6064   20.0226 O   0  0  0  0  0  0
  -21.6642   -6.8881   21.4237 O   0  0  0  0  0  0
  -22.3540  -14.5541   20.6686 O   0  0  0  0  0  0
  -24.6129  -31.8701   23.2131 C   0  0  0  0  0  0
  -25.9032  -32.4834   23.8406 C   0  0  1  0  0  0
  -27.2339  -27.4469   20.0843 C   0  0  0  0  0  0
  -25.5901  -33.8627   24.2349 N   0  0  0  0  0  0
  -23.3993  -30.4971   21.5520 C   0  0  2  0  0  0
  -24.8418  -28.9646   20.1139 C   0  0  0  0  0  0
  -22.7405  -29.4688   22.4994 C   0  0  0  0  0  0
  -18.0288  -28.1377   22.8494 C   0  0  0  0  0  0
  -24.1487  -36.7315   23.2647 C   0  0  0  0  0  0
  -25.9272  -30.8377   21.3666 C   0  0  0  0  0  0
  -26.0007  -29.4735   20.7115 C   0  0  0  0  0  0
  -27.1937  -28.7201   20.6953 C   0  0  0  0  0  0
  -26.0555  -26.9544   19.4718 C   0  0  0  0  0  0
  -24.8628  -27.7036   19.4940 C   0  0  0  0  0  0
  -23.6054  -29.8318   20.1649 C   0  0  0  0  0  0
  -25.4109  -36.3121   24.0353 C   0  0  1  0  0  0
  -20.5874  -28.3658   23.1317 C   0  0  2  0  0  0
  -20.6773  -26.9396   22.5424 C   0  0  0  0  0  0
  -19.5751  -26.6385   21.5216 C   0  0  0  0  0  0
  -18.1928  -26.7931   22.1620 C   0  0  0  0  0  0
  -19.1535  -28.8831   23.2908 C   0  0  0  0  0  0
  -18.9463  -30.1443   23.8908 C   0  0  0  0  0  0
  -17.6463  -30.6571   24.0565 C   0  0  0  0  0  0
  -25.9030  -34.9486   23.5152 C   0  0  0  0  0  0
  -16.5352  -29.9085   23.6323 C   0  0  0  0  0  0
  -16.7274  -28.6510   23.0329 C   0  0  0  0  0  0
  -26.4450  -31.6609   25.0727 C   0  0  0  0  0  0
  -25.3712  -31.3711   26.1479 C   0  0  0  0  0  0
  -27.0284  -30.3069   24.6087 C   0  0  0  0  0  0
  -27.6045  -32.4314   25.7474 C   0  0  0  0  0  0
  -27.5584  -37.1820   24.8473 C   0  0  0  0  0  0
  -21.4140  -29.3036   22.3724 N   0  0  0  0  0  0
  -26.4302  -37.3806   23.9414 N   0  0  0  0  0  0
  -24.6651  -31.0823   22.1028 N   0  0  0  0  0  0
  -23.4190  -28.8227   23.3021 O   0  0  0  0  0  0
  -28.4371  -26.7685   20.1054 O   0  0  0  0  0  0
  -26.5581  -34.8936   22.4709 O   0  0  0  0  0  0
  -23.5332  -32.1440   23.7554 O   0  0  0  0  0  0
  -32.3074  -16.6310   22.1141 C   0  0  0  0  0  0
  -30.6385  -18.8637   22.5756 C   0  0  0  0  0  0
  -30.9102  -16.5065   21.9212 C   0  0  0  0  0  0
  -32.8667  -17.8550   22.5180 C   0  0  0  0  0  0
  -32.0364  -18.9662   22.7500 C   0  0  0  0  0  0
  -30.0762  -17.6270   22.1587 C   0  0  0  0  0  0
  -29.9651  -22.3322   21.8112 C   0  0  0  0  0  0
  -29.7702  -20.0818   22.8844 C   0  0  0  0  0  0
  -29.5946  -23.1755   20.5852 C   0  0  0  0  0  0
  -29.2895  -24.6549   20.9204 C   0  0  0  0  0  0
  -28.5013  -25.3693   19.8100 C   0  0  0  0  0  0
  -30.3134  -15.2661   21.5418 N   0  0  0  0  0  0
  -29.6431  -21.0301   21.7733 N   0  0  0  0  0  0
  -30.5094  -22.8585   22.7839 O   0  0  0  0  0  0
  -34.2050  -17.9601   22.6962 F   0  0  0  0  0  0
  -32.5919  -20.1326   23.1588 F   0  0  0  0  0  0
  -28.3675  -17.4635   21.9221 Cl  0  0  0  0  0  0
  -31.4528  -12.3584   19.1053 H   0  0  0  0  0  0
  -30.2842  -11.2756   19.7954 H   0  0  0  0  0  0
  -29.7146  -11.7966   17.4123 H   0  0  0  0  0  0
  -29.6556  -13.5066   17.7767 H   0  0  0  0  0  0
  -27.8197  -11.3175   18.8107 H   0  0  0  0  0  0
  -27.3521  -12.6525   17.7909 H   0  0  0  0  0  0
  -27.7113  -14.2597   19.5830 H   0  0  0  0  0  0
  -28.6648  -11.9621   21.3557 H   0  0  0  0  0  0
  -28.4611  -13.6076   21.8661 H   0  0  0  0  0  0
  -25.2758   -9.5696   22.4740 H   0  0  0  0  0  0
  -23.9999   -7.4648   22.7467 H   0  0  0  0  0  0
  -21.0834   -8.8754   19.8953 H   0  0  0  0  0  0
  -22.3665  -10.9665   19.6148 H   0  0  0  0  0  0
  -21.2014   -7.6142   23.9706 H   0  0  0  0  0  0
  -21.1486   -6.0515   25.9068 H   0  0  0  0  0  0
  -22.0601   -2.7604   23.2834 H   0  0  0  0  0  0
  -22.4131  -11.9898   22.4798 H   0  0  0  0  0  0
  -21.1117  -13.1249   22.2607 H   0  0  0  0  0  0
  -24.6692  -15.8472   20.5400 H   0  0  0  0  0  0
  -26.2984  -15.6360   20.1461 H   0  0  0  0  0  0
  -26.7095  -32.5546   23.1166 H   0  0  0  0  0  0
  -25.0055  -33.9782   25.0495 H   0  0  0  0  0  0
  -22.6877  -31.3145   21.4147 H   0  0  0  0  0  0
  -23.3753  -35.9641   23.3323 H   0  0  0  0  0  0
  -24.3594  -36.8910   22.2058 H   0  0  0  0  0  0
  -23.7214  -37.6527   23.6633 H   0  0  0  0  0  0
  -26.0361  -31.6071   20.6012 H   0  0  0  0  0  0
  -26.8188  -30.8915   21.9801 H   0  0  0  0  0  0
  -28.0904  -29.1121   21.1535 H   0  0  0  0  0  0
  -26.0287  -26.0094   18.9505 H   0  0  0  0  0  0
  -23.9721  -27.3131   19.0195 H   0  0  0  0  0  0
  -23.7122  -30.6090   19.4066 H   0  0  0  0  0  0
  -22.7281  -29.2540   19.8672 H   0  0  0  0  0  0
  -25.1279  -36.2010   25.0843 H   0  0  0  0  0  0
  -20.9967  -28.3222   24.1437 H   0  0  0  0  0  0
  -20.5692  -26.2253   23.3609 H   0  0  0  0  0  0
  -21.6633  -26.7453   22.1193 H   0  0  0  0  0  0
  -19.6911  -25.6306   21.1227 H   0  0  0  0  0  0
  -19.6692  -27.3201   20.6753 H   0  0  0  0  0  0
  -17.4202  -26.6704   21.4014 H   0  0  0  0  0  0
  -18.0319  -26.0068   22.9010 H   0  0  0  0  0  0
  -19.7934  -30.7269   24.2268 H   0  0  0  0  0  0
  -17.5016  -31.6254   24.5162 H   0  0  0  0  0  0
  -15.5350  -30.2979   23.7650 H   0  0  0  0  0  0
  -15.8686  -28.0841   22.7001 H   0  0  0  0  0  0
  -24.5885  -30.7059   25.7820 H   0  0  0  0  0  0
  -24.8878  -32.2854   26.4932 H   0  0  0  0  0  0
  -25.8055  -30.8877   27.0238 H   0  0  0  0  0  0
  -26.2831  -29.6847   24.1127 H   0  0  0  0  0  0
  -27.4065  -29.7294   25.4534 H   0  0  0  0  0  0
  -27.8652  -30.4423   23.9231 H   0  0  0  0  0  0
  -27.2698  -33.3624   26.2070 H   0  0  0  0  0  0
  -28.3831  -32.6872   25.0265 H   0  0  0  0  0  0
  -28.0731  -31.8415   26.5364 H   0  0  0  0  0  0
  -28.2624  -38.0101   24.7516 H   0  0  0  0  0  0
  -28.1063  -36.2639   24.6304 H   0  0  0  0  0  0
  -27.2309  -37.1476   25.8881 H   0  0  0  0  0  0
  -20.9302  -29.8771   21.6960 H   0  0  0  0  0  0
  -26.0207  -38.2899   24.1400 H   0  0  0  0  0  0
  -32.9713  -15.7930   21.9618 H   0  0  0  0  0  0
  -30.1776  -20.5726   23.7697 H   0  0  0  0  0  0
  -28.7712  -19.7714   23.1881 H   0  0  0  0  0  0
  -28.7205  -22.7249   20.1147 H   0  0  0  0  0  0
  -30.4055  -23.1181   19.8563 H   0  0  0  0  0  0
  -30.2289  -25.1782   21.0979 H   0  0  0  0  0  0
  -28.7226  -24.7264   21.8523 H   0  0  0  0  0  0
  -28.9999  -25.2456   18.8482 H   0  0  0  0  0  0
  -27.5391  -24.8694   19.7309 H   0  0  0  0  0  0
  -29.3880  -15.0838   21.8986 H   0  0  0  0  0  0
  -29.1841  -20.6912   20.9385 H   0  0  0  0  0  0
  1 25  1  0  0  0
  1 30  2  0  0  0
  1 82  1  0  0  0
  2  3  1  0  0  0
  2 25  1  0  0  0
  2 88  1  0  0  0
  2 89  1  0  0  0
  3  4  1  0  0  0
  3 90  1  0  0  0
  3 91  1  0  0  0
  4  5  1  0  0  0
  4 92  1  0  0  0
  4 93  1  0  0  0
  5  6  1  0  0  0
  5 26  1  0  0  0
  5 94  1  0  0  0
  6 25  1  0  0  0
  6 95  1  0  0  0
  6 96  1  0  0  0
  7  8  2  0  0  0
  7 26  1  0  0  0
  7 29  1  0  0  0
  8  9  1  0  0  0
  8 22  1  0  0  0
  9 10  1  0  0  0
  9 27  2  0  0  0
 10 11  2  0  0  0
 10 15  1  0  0  0
 11 12  1  0  0  0
 11 97  1  0  0  0
 12 13  2  0  0  0
 12 98  1  0  0  0
 13 14  1  0  0  0
 13 31  1  0  0  0
 14 15  2  0  0  0
 14 99  1  0  0  0
 15100  1  0  0  0
 16 17  2  0  0  0
 16 21  1  0  0  0
 16 31  1  0  0  0
 17 18  1  0  0  0
 17101  1  0  0  0
 18 19  2  0  0  0
 18102  1  0  0  0
 19 20  1  0  0  0
 19 24  1  0  0  0
 20 21  2  0  0  0
 20103  1  0  0  0
 21 23  1  0  0  0
 22 28  1  0  0  0
 22 32  2  0  0  0
 26 27  1  0  0  0
 28104  1  0  0  0
 28105  1  0  0  0
 29106  1  0  0  0
 29107  1  0  0  0
 33 34  1  0  0  0
 33 66  1  0  0  0
 33 70  2  0  0  0
 34 36  1  0  0  0
 34 59  1  0  0  0
 34108  1  0  0  0
 35 44  2  0  0  0
 35 45  1  0  0  0
 35 68  1  0  0  0
 36 56  1  0  0  0
 36109  1  0  0  0
 37 39  1  0  0  0
 37 47  1  0  0  0
 37 66  1  0  0  0
 37110  1  0  0  0
 38 43  2  0  0  0
 38 46  1  0  0  0
 38 47  1  0  0  0
 39 64  1  0  0  0
 39 67  2  0  0  0
 40 52  1  0  0  0
 40 53  2  0  0  0
 40 58  1  0  0  0
 41111  1  0  0  0
 41112  1  0  0  0
 41113  1  0  0  0
 41 48  1  0  0  0
 42 43  1  0  0  0
 42 66  1  0  0  0
 42114  1  0  0  0
 42115  1  0  0  0
 43 44  1  0  0  0
 44116  1  0  0  0
 45 46  2  0  0  0
 45117  1  0  0  0
 46118  1  0  0  0
 47119  1  0  0  0
 47120  1  0  0  0
 48 56  1  0  0  0
 48 65  1  0  0  0
 48121  1  0  0  0
 49 50  1  0  0  0
 49 53  1  0  0  0
 49 64  1  0  0  0
 49122  1  0  0  0
 50 51  1  0  0  0
 50123  1  0  0  0
 50124  1  0  0  0
 51 52  1  0  0  0
 51125  1  0  0  0
 51126  1  0  0  0
 52127  1  0  0  0
 52128  1  0  0  0
 53 54  1  0  0  0
 54 55  2  0  0  0
 54129  1  0  0  0
 55 57  1  0  0  0
 55130  1  0  0  0
 56 69  2  0  0  0
 57 58  2  0  0  0
 57131  1  0  0  0
 58132  1  0  0  0
 59 60  1  0  0  0
 59 61  1  0  0  0
 59 62  1  0  0  0
 60133  1  0  0  0
 60134  1  0  0  0
 60135  1  0  0  0
 61136  1  0  0  0
 61137  1  0  0  0
 61138  1  0  0  0
 62139  1  0  0  0
 62140  1  0  0  0
 62141  1  0  0  0
 63 65  1  0  0  0
 63142  1  0  0  0
 63143  1  0  0  0
 63144  1  0  0  0
 64145  1  0  0  0
 65146  1  0  0  0
 68 81  1  0  0  0
 71 73  2  0  0  0
 71 74  1  0  0  0
 71147  1  0  0  0
 72 75  1  0  0  0
 72 76  2  0  0  0
 72 78  1  0  0  0
 73 76  1  0  0  0
 73 82  1  0  0  0
 74 75  2  0  0  0
 74 85  1  0  0  0
 75 86  1  0  0  0
 76 87  1  0  0  0
 77 79  1  0  0  0
 77 83  1  0  0  0
 77 84  2  0  0  0
 78 83  1  0  0  0
 78148  1  0  0  0
 78149  1  0  0  0
 79 80  1  0  0  0
 79150  1  0  0  0
 79151  1  0  0  0
 80 81  1  0  0  0
 80152  1  0  0  0
 80153  1  0  0  0
 81154  1  0  0  0
 81155  1  0  0  0
 82156  1  0  0  0
 83157  1  0  0  0
M  ISO  4   1 100  68 101  81 101  82 100
M  END
> <chiral flag>
0

> <version>
0

> <s_m_source_file>
/data/baiqing/PycharmProjects/Reinvent-master-3.2/result/LINK_invent/BTK/process_docking_weight1_custom_sum_contain_oxygen_bond_distance_aromatic_linkinvent_7_9_3/rearranged_h_0013.sdf

> <i_m_source_file_index>
65

> <r_mmod_Potential_Energy-OPLS-2005>
-187.0859375

> <r_mmod_Stretch_Energy-OPLS-2005>
35.0114364624023

> <r_mmod_Bend_Energy-OPLS-2005>
99.9114074707031

> <r_mmod_Torsional_Energy-OPLS-2005>
211.815002441406

> <r_mmod_Improper_Torsional_Energy-OPLS-2005>
1.99002981185913

> <r_mmod_Van_der_Waal_Energy-OPLS-2005>
163.051742553711

> <r_mmod_Electrostatic_Energy-OPLS-2005>
-479.5927734375

> <r_mmod_Solvation_Energy-OPLS-2005>
-229.074356079102

> <b_mmod_Minimization_Converged-OPLS-2005>
0

> <r_mmod_RMS_Derivative-OPLS-2005>
2.25961661338806

$$$$
65
                    3D
 Structure written by MMmdl.
160168  0  0  1  0            999 V2000
  -30.7691  -14.3819   20.6574 C   0  0  0  0  0  0
  -30.4121  -12.2874   19.4031 C   0  0  0  0  0  0
  -29.4846  -12.5250   18.1969 C   0  0  0  0  0  0
  -28.0084  -12.3838   18.6133 C   0  0  0  0  0  0
  -27.6660  -13.2081   19.8830 C   0  0  2  0  0  0
  -28.7058  -12.9607   20.9992 C   0  0  0  0  0  0
  -25.2593  -13.8167   20.5682 C   0  0  0  0  0  0
  -24.1838  -13.0439   20.9157 C   0  0  0  0  0  0
  -24.6397  -11.6909   20.8727 C   0  0  0  0  0  0
  -23.9063  -10.4295   21.0401 C   0  0  0  0  0  0
  -24.3614   -9.4210   21.9181 C   0  0  0  0  0  0
  -23.6291   -8.2244   22.0753 C   0  0  0  0  0  0
  -22.4273   -8.0281   21.3546 C   0  0  0  0  0  0
  -21.9907   -9.0253   20.4645 C   0  0  0  0  0  0
  -22.7236  -10.2131   20.3051 C   0  0  0  0  0  0
  -21.6853   -6.0732   22.5280 C   0  0  0  0  0  0
  -21.4014   -6.5638   23.8212 C   0  0  0  0  0  0
  -21.3659   -5.6792   24.9175 C   0  0  0  0  0  0
  -21.6045   -4.3054   24.7225 C   0  0  0  0  0  0
  -21.8820   -3.8144   23.4347 C   0  0  0  0  0  0
  -21.9192   -4.6961   22.3404 C   0  0  0  0  0  0
  -22.7861  -13.5236   21.1830 C   0  0  0  0  0  0
  -22.1663   -4.2146   21.0980 F   0  0  0  0  0  0
  -21.5628   -3.4536   25.7736 F   0  0  0  0  0  0
  -30.0470  -13.2476   20.4566 N   0  0  0  0  0  0
  -26.3047  -12.9346   20.3412 N   0  0  0  0  0  0
  -25.9330  -11.6500   20.5783 N   0  0  0  0  0  0
  -22.0499  -12.8227   22.0381 N   0  0  0  0  0  0
  -25.4314  -15.1881   20.4102 N   0  0  0  0  0  0
  -31.8130  -14.6203   20.0425 O   0  0  0  0  0  0
  -21.6640   -6.8876   21.4241 O   0  0  0  0  0  0
  -22.3546  -14.5547   20.6690 O   0  0  0  0  0  0
  -24.6131  -31.8696   23.2124 C   0  0  0  0  0  0
  -25.9033  -32.4830   23.8408 C   0  0  1  0  0  0
  -27.2327  -27.4439   20.0904 C   0  0  0  0  0  0
  -25.5901  -33.8626   24.2340 N   0  0  0  0  0  0
  -23.3996  -30.4957   21.5522 C   0  0  2  0  0  0
  -24.8441  -28.9651   20.1133 C   0  0  0  0  0  0
  -22.7398  -29.4674   22.4989 C   0  0  0  0  0  0
  -18.0273  -28.1374   22.8504 C   0  0  0  0  0  0
  -24.1483  -36.7311   23.2640 C   0  0  0  0  0  0
  -25.9285  -30.8369   21.3655 C   0  0  0  0  0  0
  -26.0035  -29.4732   20.7109 C   0  0  0  0  0  0
  -27.1982  -28.7193   20.6980 C   0  0  0  0  0  0
  -26.0545  -26.9566   19.4740 C   0  0  0  0  0  0
  -24.8641  -27.7051   19.4935 C   0  0  0  0  0  0
  -23.6064  -29.8309   20.1653 C   0  0  0  0  0  0
  -25.4104  -36.3117   24.0345 C   0  0  1  0  0  0
  -20.5864  -28.3658   23.1322 C   0  0  2  0  0  0
  -20.6760  -26.9397   22.5414 C   0  0  0  0  0  0
  -19.5738  -26.6393   21.5208 C   0  0  0  0  0  0
  -18.1920  -26.7927   22.1625 C   0  0  0  0  0  0
  -19.1523  -28.8831   23.2915 C   0  0  0  0  0  0
  -18.9450  -30.1439   23.8920 C   0  0  0  0  0  0
  -17.6454  -30.6581   24.0570 C   0  0  0  0  0  0
  -25.9032  -34.9481   23.5139 C   0  0  0  0  0  0
  -16.5345  -29.9085   23.6328 C   0  0  0  0  0  0
  -16.7264  -28.6502   23.0352 C   0  0  0  0  0  0
  -26.4469  -31.6605   25.0728 C   0  0  0  0  0  0
  -25.3747  -31.3698   26.1486 C   0  0  0  0  0  0
  -27.0303  -30.3056   24.6092 C   0  0  0  0  0  0
  -27.6055  -32.4319   25.7483 C   0  0  0  0  0  0
  -27.5581  -37.1817   24.8466 C   0  0  0  0  0  0
  -21.4129  -29.3033   22.3729 N   0  0  0  0  0  0
  -26.4292  -37.3799   23.9410 N   0  0  0  0  0  0
  -24.6653  -31.0809   22.1019 N   0  0  0  0  0  0
  -23.4180  -28.8216   23.3023 O   0  0  0  0  0  0
  -28.4131  -26.7273   20.1220 O   0  0  0  0  0  0
  -26.5585  -34.8933   22.4694 O   0  0  0  0  0  0
  -23.5329  -32.1441   23.7531 O   0  0  0  0  0  0
  -31.6737  -19.1196   22.5561 C   0  0  0  0  0  0
  -32.1410  -16.7932   22.0161 C   0  0  0  0  0  0
  -32.6005  -18.0829   22.3398 C   0  0  0  0  0  0
  -30.2873  -18.8754   22.4693 C   0  0  0  0  0  0
  -30.7556  -16.5332   21.8900 C   0  0  0  0  0  0
  -29.8268  -17.5730   22.1375 C   0  0  0  0  0  0
  -29.8351  -22.1884   21.5787 C   0  0  0  0  0  0
  -34.0875  -18.3540   22.4520 C   0  0  0  0  0  0
  -29.3356  -20.0334   22.7569 C   0  0  0  0  0  0
  -29.4730  -23.0608   20.3693 C   0  0  0  0  0  0
  -29.4643  -24.5843   20.6526 C   0  0  0  0  0  0
  -28.3521  -25.3167   19.8845 C   0  0  0  0  0  0
  -30.2637  -15.2373   21.5595 N   0  0  0  0  0  0
  -29.2357  -20.9919   21.6553 N   0  0  0  0  0  0
  -30.6307  -22.5935   22.4282 O   0  0  0  0  0  0
  -28.1323  -17.2307   22.0083 Cl  0  0  0  0  0  0
  -31.4574  -12.3703   19.0992 H   0  0  0  0  0  0
  -30.2965  -11.2684   19.7756 H   0  0  0  0  0  0
  -29.7165  -11.8209   17.3965 H   0  0  0  0  0  0
  -29.6583  -13.5219   17.7884 H   0  0  0  0  0  0
  -27.8138  -11.3261   18.7944 H   0  0  0  0  0  0
  -27.3554  -12.6753   17.7900 H   0  0  0  0  0  0
  -27.7204  -14.2617   19.6074 H   0  0  0  0  0  0
  -28.6676  -11.9201   21.3248 H   0  0  0  0  0  0
  -28.4596  -13.5454   21.8857 H   0  0  0  0  0  0
  -25.2759   -9.5683   22.4756 H   0  0  0  0  0  0
  -23.9998   -7.4634   22.7472 H   0  0  0  0  0  0
  -21.0838   -8.8768   19.8954 H   0  0  0  0  0  0
  -22.3696  -10.9665   19.6153 H   0  0  0  0  0  0
  -21.2007   -7.6146   23.9714 H   0  0  0  0  0  0
  -21.1483   -6.0522   25.9077 H   0  0  0  0  0  0
  -22.0600   -2.7607   23.2845 H   0  0  0  0  0  0
  -22.4105  -11.9871   22.4750 H   0  0  0  0  0  0
  -21.1118  -13.1260   22.2591 H   0  0  0  0  0  0
  -24.6730  -15.8482   20.5405 H   0  0  0  0  0  0
  -26.3061  -15.6334   20.1623 H   0  0  0  0  0  0
  -26.7103  -32.5540   23.1173 H   0  0  0  0  0  0
  -25.0067  -33.9787   25.0497 H   0  0  0  0  0  0
  -22.6885  -31.3132   21.4157 H   0  0  0  0  0  0
  -23.3745  -35.9644   23.3317 H   0  0  0  0  0  0
  -24.3579  -36.8902   22.2050 H   0  0  0  0  0  0
  -23.7236  -37.6527   23.6631 H   0  0  0  0  0  0
  -26.0426  -31.6051   20.5993 H   0  0  0  0  0  0
  -26.8162  -30.8867   21.9840 H   0  0  0  0  0  0
  -28.0927  -29.1086   21.1645 H   0  0  0  0  0  0
  -26.0339  -26.0048   18.9636 H   0  0  0  0  0  0
  -23.9744  -27.3117   19.0208 H   0  0  0  0  0  0
  -23.7136  -30.6074   19.4070 H   0  0  0  0  0  0
  -22.7303  -29.2509   19.8693 H   0  0  0  0  0  0
  -25.1281  -36.1989   25.0840 H   0  0  0  0  0  0
  -20.9968  -28.3214   24.1437 H   0  0  0  0  0  0
  -20.5659  -26.2262   23.3595 H   0  0  0  0  0  0
  -21.6628  -26.7438   22.1204 H   0  0  0  0  0  0
  -19.6895  -25.6313   21.1215 H   0  0  0  0  0  0
  -19.6679  -27.3221   20.6752 H   0  0  0  0  0  0
  -17.4194  -26.6693   21.4023 H   0  0  0  0  0  0
  -18.0318  -26.0053   22.9004 H   0  0  0  0  0  0
  -19.7925  -30.7250   24.2298 H   0  0  0  0  0  0
  -17.5009  -31.6263   24.5167 H   0  0  0  0  0  0
  -15.5347  -30.2993   23.7633 H   0  0  0  0  0  0
  -15.8667  -28.0826   22.7049 H   0  0  0  0  0  0
  -24.5899  -30.7074   25.7815 H   0  0  0  0  0  0
  -24.8963  -32.2850   26.4981 H   0  0  0  0  0  0
  -25.8109  -30.8824   27.0214 H   0  0  0  0  0  0
  -26.2843  -29.6816   24.1155 H   0  0  0  0  0  0
  -27.4099  -29.7291   25.4537 H   0  0  0  0  0  0
  -27.8666  -30.4389   23.9225 H   0  0  0  0  0  0
  -27.2688  -33.3615   26.2081 H   0  0  0  0  0  0
  -28.3850  -32.6883   25.0295 H   0  0  0  0  0  0
  -28.0737  -31.8425   26.5377 H   0  0  0  0  0  0
  -28.2611  -38.0104   24.7503 H   0  0  0  0  0  0
  -28.1069  -36.2638   24.6302 H   0  0  0  0  0  0
  -27.2302  -37.1479   25.8871 H   0  0  0  0  0  0
  -20.9276  -29.8766   21.6969 H   0  0  0  0  0  0
  -26.0188  -38.2884   24.1395 H   0  0  0  0  0  0
  -32.0247  -20.1121   22.8049 H   0  0  0  0  0  0
  -32.8638  -16.0045   21.8631 H   0  0  0  0  0  0
  -34.2884  -19.1458   23.1741 H   0  0  0  0  0  0
  -34.4907  -18.6613   21.4867 H   0  0  0  0  0  0
  -34.6250  -17.4627   22.7777 H   0  0  0  0  0  0
  -29.6696  -20.5325   23.6683 H   0  0  0  0  0  0
  -28.3350  -19.6732   22.9917 H   0  0  0  0  0  0
  -28.4860  -22.7520   20.0222 H   0  0  0  0  0  0
  -30.1610  -22.8376   19.5534 H   0  0  0  0  0  0
  -30.4355  -25.0068   20.3945 H   0  0  0  0  0  0
  -29.3231  -24.7766   21.7175 H   0  0  0  0  0  0
  -27.4078  -24.8911   20.2269 H   0  0  0  0  0  0
  -28.4336  -25.1279   18.8130 H   0  0  0  0  0  0
  -29.3457  -15.0098   21.9104 H   0  0  0  0  0  0
  -28.6033  -20.7433   20.9066 H   0  0  0  0  0  0
  1 25  1  0  0  0
  1 30  2  0  0  0
  1 83  1  0  0  0
  2  3  1  0  0  0
  2 25  1  0  0  0
  2 87  1  0  0  0
  2 88  1  0  0  0
  3  4  1  0  0  0
  3 89  1  0  0  0
  3 90  1  0  0  0
  4  5  1  0  0  0
  4 91  1  0  0  0
  4 92  1  0  0  0
  5  6  1  0  0  0
  5 26  1  0  0  0
  5 93  1  0  0  0
  6 25  1  0  0  0
  6 94  1  0  0  0
  6 95  1  0  0  0
  7  8  2  0  0  0
  7 26  1  0  0  0
  7 29  1  0  0  0
  8  9  1  0  0  0
  8 22  1  0  0  0
  9 10  1  0  0  0
  9 27  2  0  0  0
 10 11  2  0  0  0
 10 15  1  0  0  0
 11 12  1  0  0  0
 11 96  1  0  0  0
 12 13  2  0  0  0
 12 97  1  0  0  0
 13 14  1  0  0  0
 13 31  1  0  0  0
 14 15  2  0  0  0
 14 98  1  0  0  0
 15 99  1  0  0  0
 16 17  2  0  0  0
 16 21  1  0  0  0
 16 31  1  0  0  0
 17 18  1  0  0  0
 17100  1  0  0  0
 18 19  2  0  0  0
 18101  1  0  0  0
 19 20  1  0  0  0
 19 24  1  0  0  0
 20 21  2  0  0  0
 20102  1  0  0  0
 21 23  1  0  0  0
 22 28  1  0  0  0
 22 32  2  0  0  0
 26 27  1  0  0  0
 28103  1  0  0  0
 28104  1  0  0  0
 29105  1  0  0  0
 29106  1  0  0  0
 33 34  1  0  0  0
 33 66  1  0  0  0
 33 70  2  0  0  0
 34 36  1  0  0  0
 34 59  1  0  0  0
 34107  1  0  0  0
 35 44  2  0  0  0
 35 45  1  0  0  0
 35 68  1  0  0  0
 36 56  1  0  0  0
 36108  1  0  0  0
 37 39  1  0  0  0
 37 47  1  0  0  0
 37 66  1  0  0  0
 37109  1  0  0  0
 38 43  2  0  0  0
 38 46  1  0  0  0
 38 47  1  0  0  0
 39 64  1  0  0  0
 39 67  2  0  0  0
 40 52  1  0  0  0
 40 53  2  0  0  0
 40 58  1  0  0  0
 41110  1  0  0  0
 41111  1  0  0  0
 41112  1  0  0  0
 41 48  1  0  0  0
 42 43  1  0  0  0
 42 66  1  0  0  0
 42113  1  0  0  0
 42114  1  0  0  0
 43 44  1  0  0  0
 44115  1  0  0  0
 45 46  2  0  0  0
 45116  1  0  0  0
 46117  1  0  0  0
 47118  1  0  0  0
 47119  1  0  0  0
 48 56  1  0  0  0
 48 65  1  0  0  0
 48120  1  0  0  0
 49 50  1  0  0  0
 49 53  1  0  0  0
 49 64  1  0  0  0
 49121  1  0  0  0
 50 51  1  0  0  0
 50122  1  0  0  0
 50123  1  0  0  0
 51 52  1  0  0  0
 51124  1  0  0  0
 51125  1  0  0  0
 52126  1  0  0  0
 52127  1  0  0  0
 53 54  1  0  0  0
 54 55  2  0  0  0
 54128  1  0  0  0
 55 57  1  0  0  0
 55129  1  0  0  0
 56 69  2  0  0  0
 57 58  2  0  0  0
 57130  1  0  0  0
 58131  1  0  0  0
 59 60  1  0  0  0
 59 61  1  0  0  0
 59 62  1  0  0  0
 60132  1  0  0  0
 60133  1  0  0  0
 60134  1  0  0  0
 61135  1  0  0  0
 61136  1  0  0  0
 61137  1  0  0  0
 62138  1  0  0  0
 62139  1  0  0  0
 62140  1  0  0  0
 63 65  1  0  0  0
 63141  1  0  0  0
 63142  1  0  0  0
 63143  1  0  0  0
 64144  1  0  0  0
 65145  1  0  0  0
 68 82  1  0  0  0
 71 73  2  0  0  0
 71 74  1  0  0  0
 71146  1  0  0  0
 72 73  1  0  0  0
 72 75  2  0  0  0
 72147  1  0  0  0
 73 78  1  0  0  0
 74 76  2  0  0  0
 74 79  1  0  0  0
 75 76  1  0  0  0
 75 83  1  0  0  0
 76 86  1  0  0  0
 77 80  1  0  0  0
 77 84  1  0  0  0
 77 85  2  0  0  0
 78148  1  0  0  0
 78149  1  0  0  0
 78150  1  0  0  0
 79 84  1  0  0  0
 79151  1  0  0  0
 79152  1  0  0  0
 80 81  1  0  0  0
 80153  1  0  0  0
 80154  1  0  0  0
 81 82  1  0  0  0
 81155  1  0  0  0
 81156  1  0  0  0
 82157  1  0  0  0
 82158  1  0  0  0
 83159  1  0  0  0
 84160  1  0  0  0
M  ISO  4   1 100  68 101  82 101  83 100
M  END
> <chiral flag>
0

> <version>
0

> <s_m_source_file>
/data/baiqing/PycharmProjects/Reinvent-master-3.2/result/LINK_invent/BTK/process_docking_weight1_custom_sum_contain_oxygen_bond_distance_aromatic_linkinvent_7_9_3/rearranged_h_0013.sdf

> <i_m_source_file_index>
66

> <r_mmod_Potential_Energy-OPLS-2005>
-200.541351318359

> <r_mmod_Stretch_Energy-OPLS-2005>
34.7705879211426

> <r_mmod_Bend_Energy-OPLS-2005>
93.7963104248047

> <r_mmod_Torsional_Energy-OPLS-2005>
211.257949829102

> <r_mmod_Improper_Torsional_Energy-OPLS-2005>
2.05996179580688

> <r_mmod_Van_der_Waal_Energy-OPLS-2005>
163.012680053711

> <r_mmod_Electrostatic_Energy-OPLS-2005>
-488.616180419922

> <r_mmod_Solvation_Energy-OPLS-2005>
-225.678405761719

> <b_mmod_Minimization_Converged-OPLS-2005>
0

> <r_mmod_RMS_Derivative-OPLS-2005>
0.711164772510529

$$$$
66
                    3D
 Structure written by MMmdl.
151159  0  0  1  0            999 V2000
  -30.6272  -14.7417   20.4570 C   0  0  0  0  0  0
  -30.4228  -12.4511   19.4775 C   0  0  0  0  0  0
  -29.5053  -12.5033   18.2373 C   0  0  0  0  0  0
  -28.0315  -12.3323   18.6509 C   0  0  0  0  0  0
  -27.6379  -13.2362   19.8499 C   0  0  2  0  0  0
  -28.6819  -13.1807   20.9862 C   0  0  0  0  0  0
  -25.2480  -13.8205   20.5697 C   0  0  0  0  0  0
  -24.1779  -13.0440   20.9203 C   0  0  0  0  0  0
  -24.6385  -11.6924   20.8751 C   0  0  0  0  0  0
  -23.9068  -10.4295   21.0410 C   0  0  0  0  0  0
  -24.3618   -9.4209   21.9187 C   0  0  0  0  0  0
  -23.6293   -8.2243   22.0755 C   0  0  0  0  0  0
  -22.4276   -8.0279   21.3544 C   0  0  0  0  0  0
  -21.9912   -9.0255   20.4647 C   0  0  0  0  0  0
  -22.7241  -10.2134   20.3058 C   0  0  0  0  0  0
  -21.6853   -6.0735   22.5278 C   0  0  0  0  0  0
  -21.4014   -6.5640   23.8210 C   0  0  0  0  0  0
  -21.3659   -5.6793   24.9173 C   0  0  0  0  0  0
  -21.6040   -4.3055   24.7223 C   0  0  0  0  0  0
  -21.8821   -3.8147   23.4344 C   0  0  0  0  0  0
  -21.9193   -4.6962   22.3401 C   0  0  0  0  0  0
  -22.7800  -13.5217   21.1867 C   0  0  0  0  0  0
  -22.1661   -4.2147   21.0978 F   0  0  0  0  0  0
  -21.5628   -3.4540   25.7737 F   0  0  0  0  0  0
  -29.9825  -13.5249   20.4007 N   0  0  0  0  0  0
  -26.2913  -12.9428   20.3290 N   0  0  0  0  0  0
  -25.9318  -11.6564   20.5763 N   0  0  0  0  0  0
  -22.0455  -12.8206   22.0430 N   0  0  0  0  0  0
  -25.4149  -15.1929   20.4130 N   0  0  0  0  0  0
  -31.8174  -14.7883   20.1381 O   0  0  0  0  0  0
  -21.6640   -6.8877   21.4239 O   0  0  0  0  0  0
  -22.3479  -14.5522   20.6719 O   0  0  0  0  0  0
  -24.6305  -31.8538   23.1963 C   0  0  0  0  0  0
  -25.9127  -32.4746   23.8310 C   0  0  1  0  0  0
  -27.2240  -27.2595   20.1249 C   0  0  0  0  0  0
  -25.5921  -33.8550   24.2234 N   0  0  0  0  0  0
  -23.4270  -30.4751   21.5396 C   0  0  2  0  0  0
  -24.8738  -28.9192   20.1070 C   0  0  0  0  0  0
  -22.7495  -29.4595   22.4906 C   0  0  0  0  0  0
  -18.0287  -28.1387   22.8487 C   0  0  0  0  0  0
  -24.1484  -36.7276   23.2644 C   0  0  0  0  0  0
  -25.9718  -30.7659   21.3750 C   0  0  0  0  0  0
  -26.0428  -29.3881   20.7169 C   0  0  0  0  0  0
  -27.2158  -28.5690   20.7163 C   0  0  0  0  0  0
  -26.0267  -26.8507   19.4962 C   0  0  0  0  0  0
  -24.8714  -27.6596   19.4865 C   0  0  0  0  0  0
  -23.6435  -29.8060   20.1557 C   0  0  0  0  0  0
  -25.4114  -36.3064   24.0325 C   0  0  1  0  0  0
  -20.5892  -28.3695   23.1270 C   0  0  2  0  0  0
  -20.6773  -26.9411   22.5411 C   0  0  0  0  0  0
  -19.5749  -26.6381   21.5216 C   0  0  0  0  0  0
  -18.1931  -26.7929   22.1627 C   0  0  0  0  0  0
  -19.1543  -28.8858   23.2874 C   0  0  0  0  0  0
  -18.9465  -30.1459   23.8896 C   0  0  0  0  0  0
  -17.6466  -30.6590   24.0563 C   0  0  0  0  0  0
  -25.9058  -34.9439   23.5086 C   0  0  0  0  0  0
  -16.5355  -29.9088   23.6331 C   0  0  0  0  0  0
  -16.7275  -28.6504   23.0358 C   0  0  0  0  0  0
  -26.4497  -31.6580   25.0707 C   0  0  0  0  0  0
  -25.3712  -31.3739   26.1422 C   0  0  0  0  0  0
  -27.0349  -30.2998   24.6196 C   0  0  0  0  0  0
  -27.6045  -32.4332   25.7481 C   0  0  0  0  0  0
  -27.5576  -37.1791   24.8469 C   0  0  0  0  0  0
  -21.4202  -29.3040   22.3659 N   0  0  0  0  0  0
  -26.4285  -37.3767   23.9416 N   0  0  0  0  0  0
  -24.6955  -31.0502   22.0933 N   0  0  0  0  0  0
  -23.4197  -28.8143   23.3012 O   0  0  0  0  0  0
  -28.3450  -26.4022   20.2146 O   0  0  0  0  0  0
  -26.5643  -34.8921   22.4662 O   0  0  0  0  0  0
  -23.5455  -32.1358   23.7264 O   0  0  0  0  0  0
  -31.6044  -17.7393   20.5371 C   0  0  0  0  0  0
  -31.9883  -19.0902   20.4785 C   0  0  0  0  0  0
  -29.6581  -19.8769   20.5245 C   0  0  0  0  0  0
  -30.2462  -17.3519   20.5843 C   0  0  0  0  0  0
  -31.0521  -20.1414   20.4763 C   0  0  0  0  0  0
  -29.2879  -18.4560   20.5872 C   0  0  0  0  0  0
  -28.3484  -23.7261   20.4870 C   0  0  0  0  0  0
  -28.6035  -21.0875   20.6243 C   0  0  0  0  0  0
  -28.4478  -25.0434   19.5745 C   0  0  0  0  0  0
  -29.8790  -15.9016   20.6580 N   0  0  0  0  0  0
  -28.8078  -22.4933   20.0391 N   0  0  0  0  0  0
  -27.8126  -23.8201   21.5932 O   0  0  0  0  0  0
  -31.6991  -21.7452   20.4653 Cl  0  0  0  0  0  0
  -27.6146  -18.0353   20.6919 Cl  0  0  0  0  0  0
  -31.4655  -12.5586   19.1745 H   0  0  0  0  0  0
  -30.3559  -11.4779   19.9661 H   0  0  0  0  0  0
  -29.7858  -11.7263   17.5250 H   0  0  0  0  0  0
  -29.6357  -13.4551   17.7203 H   0  0  0  0  0  0
  -27.8860  -11.2843   18.9152 H   0  0  0  0  0  0
  -27.3748  -12.5237   17.8013 H   0  0  0  0  0  0
  -27.6294  -14.2561   19.4646 H   0  0  0  0  0  0
  -28.7149  -12.1879   21.4375 H   0  0  0  0  0  0
  -28.4180  -13.8730   21.7871 H   0  0  0  0  0  0
  -25.2764   -9.5682   22.4762 H   0  0  0  0  0  0
  -23.9998   -7.4634   22.7477 H   0  0  0  0  0  0
  -21.0843   -8.8772   19.8954 H   0  0  0  0  0  0
  -22.3698  -10.9672   19.6165 H   0  0  0  0  0  0
  -21.2008   -7.6150   23.9711 H   0  0  0  0  0  0
  -21.1477   -6.0526   25.9074 H   0  0  0  0  0  0
  -22.0601   -2.7609   23.2846 H   0  0  0  0  0  0
  -22.4077  -11.9861   22.4799 H   0  0  0  0  0  0
  -21.1078  -13.1231   22.2662 H   0  0  0  0  0  0
  -24.6485  -15.8441   20.5401 H   0  0  0  0  0  0
  -26.2664  -15.6465   20.1091 H   0  0  0  0  0  0
  -26.7186  -32.5390   23.1043 H   0  0  0  0  0  0
  -25.0050  -33.9684   25.0366 H   0  0  0  0  0  0
  -22.7235  -31.2973   21.3924 H   0  0  0  0  0  0
  -23.3753  -35.9601   23.3305 H   0  0  0  0  0  0
  -24.3573  -36.8903   22.2059 H   0  0  0  0  0  0
  -23.7232  -37.6473   23.6669 H   0  0  0  0  0  0
  -26.1101  -31.5258   20.6049 H   0  0  0  0  0  0
  -26.8496  -30.8146   22.0078 H   0  0  0  0  0  0
  -28.1109  -28.9235   21.2074 H   0  0  0  0  0  0
  -25.9380  -25.8798   19.0357 H   0  0  0  0  0  0
  -23.9730  -27.2919   19.0105 H   0  0  0  0  0  0
  -23.7641  -30.5806   19.3974 H   0  0  0  0  0  0
  -22.7619  -29.2373   19.8540 H   0  0  0  0  0  0
  -25.1296  -36.1903   25.0816 H   0  0  0  0  0  0
  -20.9984  -28.3270   24.1390 H   0  0  0  0  0  0
  -20.5670  -26.2308   23.3618 H   0  0  0  0  0  0
  -21.6639  -26.7430   22.1205 H   0  0  0  0  0  0
  -19.6912  -25.6290   21.1249 H   0  0  0  0  0  0
  -19.6685  -27.3189   20.6744 H   0  0  0  0  0  0
  -17.4198  -26.6677   21.4033 H   0  0  0  0  0  0
  -18.0327  -26.0073   22.9025 H   0  0  0  0  0  0
  -19.7946  -30.7272   24.2266 H   0  0  0  0  0  0
  -17.5024  -31.6273   24.5159 H   0  0  0  0  0  0
  -15.5359  -30.2995   23.7659 H   0  0  0  0  0  0
  -15.8672  -28.0821   22.7082 H   0  0  0  0  0  0
  -24.5889  -30.7085   25.7750 H   0  0  0  0  0  0
  -24.8899  -32.2915   26.4816 H   0  0  0  0  0  0
  -25.8017  -30.8936   27.0217 H   0  0  0  0  0  0
  -26.2932  -29.6745   24.1211 H   0  0  0  0  0  0
  -27.4029  -29.7259   25.4711 H   0  0  0  0  0  0
  -27.8806  -30.4280   23.9436 H   0  0  0  0  0  0
  -27.2642  -33.3646   26.2020 H   0  0  0  0  0  0
  -28.3869  -32.6875   25.0317 H   0  0  0  0  0  0
  -28.0690  -31.8482   26.5429 H   0  0  0  0  0  0
  -28.2587  -38.0094   24.7520 H   0  0  0  0  0  0
  -28.1076  -36.2627   24.6281 H   0  0  0  0  0  0
  -27.2299  -37.1421   25.8873 H   0  0  0  0  0  0
  -20.9387  -29.8760   21.6861 H   0  0  0  0  0  0
  -26.0163  -38.2837   24.1423 H   0  0  0  0  0  0
  -32.4027  -17.0162   20.5622 H   0  0  0  0  0  0
  -33.0420  -19.3281   20.4546 H   0  0  0  0  0  0
  -28.3908  -21.2054   21.6876 H   0  0  0  0  0  0
  -27.6704  -20.7317   20.1881 H   0  0  0  0  0  0
  -27.7754  -24.9358   18.7264 H   0  0  0  0  0  0
  -29.4410  -25.0159   19.1264 H   0  0  0  0  0  0
  -28.8992  -15.7319   20.8262 H   0  0  0  0  0  0
  -29.2676  -22.5123   19.1388 H   0  0  0  0  0  0
  1 25  1  0  0  0
  1 30  2  0  0  0
  1 80  1  0  0  0
  2  3  1  0  0  0
  2 25  1  0  0  0
  2 85  1  0  0  0
  2 86  1  0  0  0
  3  4  1  0  0  0
  3 87  1  0  0  0
  3 88  1  0  0  0
  4  5  1  0  0  0
  4 89  1  0  0  0
  4 90  1  0  0  0
  5  6  1  0  0  0
  5 26  1  0  0  0
  5 91  1  0  0  0
  6 25  1  0  0  0
  6 92  1  0  0  0
  6 93  1  0  0  0
  7  8  2  0  0  0
  7 26  1  0  0  0
  7 29  1  0  0  0
  8  9  1  0  0  0
  8 22  1  0  0  0
  9 10  1  0  0  0
  9 27  2  0  0  0
 10 11  2  0  0  0
 10 15  1  0  0  0
 11 12  1  0  0  0
 11 94  1  0  0  0
 12 13  2  0  0  0
 12 95  1  0  0  0
 13 14  1  0  0  0
 13 31  1  0  0  0
 14 15  2  0  0  0
 14 96  1  0  0  0
 15 97  1  0  0  0
 16 17  2  0  0  0
 16 21  1  0  0  0
 16 31  1  0  0  0
 17 18  1  0  0  0
 17 98  1  0  0  0
 18 19  2  0  0  0
 18 99  1  0  0  0
 19 20  1  0  0  0
 19 24  1  0  0  0
 20 21  2  0  0  0
 20100  1  0  0  0
 21 23  1  0  0  0
 22 28  1  0  0  0
 22 32  2  0  0  0
 26 27  1  0  0  0
 28101  1  0  0  0
 28102  1  0  0  0
 29103  1  0  0  0
 29104  1  0  0  0
 33 34  1  0  0  0
 33 66  1  0  0  0
 33 70  2  0  0  0
 34 36  1  0  0  0
 34 59  1  0  0  0
 34105  1  0  0  0
 35 44  2  0  0  0
 35 45  1  0  0  0
 35 68  1  0  0  0
 36 56  1  0  0  0
 36106  1  0  0  0
 37 39  1  0  0  0
 37 47  1  0  0  0
 37 66  1  0  0  0
 37107  1  0  0  0
 38 43  2  0  0  0
 38 46  1  0  0  0
 38 47  1  0  0  0
 39 64  1  0  0  0
 39 67  2  0  0  0
 40 52  1  0  0  0
 40 53  2  0  0  0
 40 58  1  0  0  0
 41108  1  0  0  0
 41109  1  0  0  0
 41110  1  0  0  0
 41 48  1  0  0  0
 42 43  1  0  0  0
 42 66  1  0  0  0
 42111  1  0  0  0
 42112  1  0  0  0
 43 44  1  0  0  0
 44113  1  0  0  0
 45 46  2  0  0  0
 45114  1  0  0  0
 46115  1  0  0  0
 47116  1  0  0  0
 47117  1  0  0  0
 48 56  1  0  0  0
 48 65  1  0  0  0
 48118  1  0  0  0
 49 50  1  0  0  0
 49 53  1  0  0  0
 49 64  1  0  0  0
 49119  1  0  0  0
 50 51  1  0  0  0
 50120  1  0  0  0
 50121  1  0  0  0
 51 52  1  0  0  0
 51122  1  0  0  0
 51123  1  0  0  0
 52124  1  0  0  0
 52125  1  0  0  0
 53 54  1  0  0  0
 54 55  2  0  0  0
 54126  1  0  0  0
 55 57  1  0  0  0
 55127  1  0  0  0
 56 69  2  0  0  0
 57 58  2  0  0  0
 57128  1  0  0  0
 58129  1  0  0  0
 59 60  1  0  0  0
 59 61  1  0  0  0
 59 62  1  0  0  0
 60130  1  0  0  0
 60131  1  0  0  0
 60132  1  0  0  0
 61133  1  0  0  0
 61134  1  0  0  0
 61135  1  0  0  0
 62136  1  0  0  0
 62137  1  0  0  0
 62138  1  0  0  0
 63 65  1  0  0  0
 63139  1  0  0  0
 63140  1  0  0  0
 63141  1  0  0  0
 64142  1  0  0  0
 65143  1  0  0  0
 68 79  1  0  0  0
 71 72  2  0  0  0
 71 74  1  0  0  0
 71144  1  0  0  0
 72 75  1  0  0  0
 72145  1  0  0  0
 73 75  2  0  0  0
 73 76  1  0  0  0
 73 78  1  0  0  0
 74 76  2  0  0  0
 74 80  1  0  0  0
 75 83  1  0  0  0
 76 84  1  0  0  0
 77 79  1  0  0  0
 77 81  1  0  0  0
 77 82  2  0  0  0
 78 81  1  0  0  0
 78146  1  0  0  0
 78147  1  0  0  0
 79148  1  0  0  0
 79149  1  0  0  0
 80150  1  0  0  0
 81151  1  0  0  0
M  ISO  4   1 100  68 101  79 101  80 100
M  END
> <chiral flag>
0

> <version>
0

> <s_m_source_file>
/data/baiqing/PycharmProjects/Reinvent-master-3.2/result/LINK_invent/BTK/process_docking_weight1_custom_sum_contain_oxygen_bond_distance_aromatic_linkinvent_7_9_3/rearranged_h_0013.sdf

> <i_m_source_file_index>
67

> <r_mmod_Potential_Energy-OPLS-2005>
80.2558975219727

> <r_mmod_Stretch_Energy-OPLS-2005>
133.087020874023

> <r_mmod_Bend_Energy-OPLS-2005>
178.474182128906

> <r_mmod_Torsional_Energy-OPLS-2005>
202.679824829102

> <r_mmod_Improper_Torsional_Energy-OPLS-2005>
5.28032827377319

> <r_mmod_Van_der_Waal_Energy-OPLS-2005>
142.770431518555

> <r_mmod_Electrostatic_Energy-OPLS-2005>
-426.509857177734

> <r_mmod_Solvation_Energy-OPLS-2005>
-238.741622924805

> <b_mmod_Minimization_Converged-OPLS-2005>
0

> <r_mmod_RMS_Derivative-OPLS-2005>
0.741690874099731

$$$$
67
                    3D
 Structure written by MMmdl.
154162  0  0  1  0            999 V2000
  -30.6476  -14.7129   20.4612 C   0  0  0  0  0  0
  -30.4208  -12.4329   19.4803 C   0  0  0  0  0  0
  -29.5077  -12.5001   18.2382 C   0  0  0  0  0  0
  -28.0335  -12.3280   18.6504 C   0  0  0  0  0  0
  -27.6401  -13.2330   19.8499 C   0  0  2  0  0  0
  -28.6817  -13.1772   20.9884 C   0  0  0  0  0  0
  -25.2506  -13.8212   20.5674 C   0  0  0  0  0  0
  -24.1792  -13.0456   20.9174 C   0  0  0  0  0  0
  -24.6384  -11.6926   20.8744 C   0  0  0  0  0  0
  -23.9066  -10.4303   21.0413 C   0  0  0  0  0  0
  -24.3619   -9.4222   21.9192 C   0  0  0  0  0  0
  -23.6287   -8.2268   22.0769 C   0  0  0  0  0  0
  -22.4277   -8.0311   21.3553 C   0  0  0  0  0  0
  -21.9914   -9.0275   20.4654 C   0  0  0  0  0  0
  -22.7248  -10.2148   20.3056 C   0  0  0  0  0  0
  -21.6862   -6.0754   22.5285 C   0  0  0  0  0  0
  -21.4016   -6.5648   23.8217 C   0  0  0  0  0  0
  -21.3644   -5.6801   24.9175 C   0  0  0  0  0  0
  -21.6045   -4.3066   24.7230 C   0  0  0  0  0  0
  -21.8817   -3.8151   23.4345 C   0  0  0  0  0  0
  -21.9196   -4.6978   22.3403 C   0  0  0  0  0  0
  -22.7821  -13.5248   21.1846 C   0  0  0  0  0  0
  -22.1662   -4.2163   21.0988 F   0  0  0  0  0  0
  -21.5622   -3.4550   25.7729 F   0  0  0  0  0  0
  -29.9884  -13.5056   20.4068 N   0  0  0  0  0  0
  -26.2922  -12.9410   20.3283 N   0  0  0  0  0  0
  -25.9322  -11.6547   20.5763 N   0  0  0  0  0  0
  -22.0465  -12.8239   22.0395 N   0  0  0  0  0  0
  -25.4187  -15.1933   20.4090 N   0  0  0  0  0  0
  -31.8384  -14.7460   20.1493 O   0  0  0  0  0  0
  -21.6651   -6.8901   21.4245 O   0  0  0  0  0  0
  -22.3527  -14.5572   20.6720 O   0  0  0  0  0  0
  -24.6279  -31.8501   23.1982 C   0  0  0  0  0  0
  -25.9101  -32.4737   23.8318 C   0  0  1  0  0  0
  -27.2297  -27.2707   20.1287 C   0  0  0  0  0  0
  -25.5901  -33.8540   24.2231 N   0  0  0  0  0  0
  -23.4289  -30.4717   21.5342 C   0  0  2  0  0  0
  -24.8808  -28.9194   20.1077 C   0  0  0  0  0  0
  -22.7487  -29.4571   22.4872 C   0  0  0  0  0  0
  -18.0285  -28.1411   22.8432 C   0  0  0  0  0  0
  -24.1484  -36.7225   23.2653 C   0  0  0  0  0  0
  -25.9732  -30.7673   21.3805 C   0  0  0  0  0  0
  -26.0476  -29.3921   20.7175 C   0  0  0  0  0  0
  -27.2225  -28.5775   20.7214 C   0  0  0  0  0  0
  -26.0411  -26.8663   19.4826 C   0  0  0  0  0  0
  -24.8786  -27.6631   19.4827 C   0  0  0  0  0  0
  -23.6496  -29.8005   20.1517 C   0  0  0  0  0  0
  -25.4104  -36.3023   24.0332 C   0  0  1  0  0  0
  -20.5896  -28.3669   23.1239 C   0  0  2  0  0  0
  -20.6778  -26.9376   22.5379 C   0  0  0  0  0  0
  -19.5756  -26.6361   21.5188 C   0  0  0  0  0  0
  -18.1943  -26.7953   22.1590 C   0  0  0  0  0  0
  -19.1550  -28.8862   23.2845 C   0  0  0  0  0  0
  -18.9490  -30.1477   23.8843 C   0  0  0  0  0  0
  -17.6488  -30.6603   24.0556 C   0  0  0  0  0  0
  -25.9037  -34.9410   23.5086 C   0  0  0  0  0  0
  -16.5367  -29.9089   23.6372 C   0  0  0  0  0  0
  -16.7266  -28.6532   23.0330 C   0  0  0  0  0  0
  -26.4482  -31.6608   25.0730 C   0  0  0  0  0  0
  -25.3704  -31.3762   26.1444 C   0  0  0  0  0  0
  -27.0400  -30.3052   24.6252 C   0  0  0  0  0  0
  -27.6038  -32.4364   25.7467 C   0  0  0  0  0  0
  -27.5575  -37.1729   24.8451 C   0  0  0  0  0  0
  -21.4206  -29.3037   22.3630 N   0  0  0  0  0  0
  -26.4252  -37.3740   23.9454 N   0  0  0  0  0  0
  -24.6964  -31.0476   22.0957 N   0  0  0  0  0  0
  -23.4211  -28.8117   23.2967 O   0  0  0  0  0  0
  -28.3315  -26.3886   20.2269 O   0  0  0  0  0  0
  -26.5611  -34.8905   22.4659 O   0  0  0  0  0  0
  -23.5434  -32.1287   23.7273 O   0  0  0  0  0  0
  -30.9492  -20.0936   20.0190 C   0  0  0  0  0  0
  -31.5389  -17.7084   20.0161 C   0  0  0  0  0  0
  -31.8822  -19.0594   19.7957 C   0  0  0  0  0  0
  -29.6555  -19.8168   20.5051 C   0  0  0  0  0  0
  -30.2569  -17.3156   20.4764 C   0  0  0  0  0  0
  -29.3282  -18.4079   20.7286 C   0  0  0  0  0  0
  -28.7239  -23.6832   20.6821 C   0  0  0  0  0  0
  -33.2892  -19.3870   19.3289 C   0  0  0  0  0  0
  -28.7264  -21.0549   20.8841 C   0  0  0  0  0  0
  -28.2346  -24.9462   19.8047 C   0  0  0  0  0  0
  -29.9155  -15.8741   20.6758 N   0  0  0  0  0  0
  -28.7585  -22.4010   20.1549 N   0  0  0  0  0  0
  -29.0305  -23.8569   21.8672 O   0  0  0  0  0  0
  -27.7675  -17.9920   21.3475 Cl  0  0  0  0  0  0
  -31.4666  -12.5254   19.1827 H   0  0  0  0  0  0
  -30.3391  -11.4591   19.9663 H   0  0  0  0  0  0
  -29.7877  -11.7261   17.5225 H   0  0  0  0  0  0
  -29.6396  -13.4575   17.7311 H   0  0  0  0  0  0
  -27.8859  -11.2781   18.9074 H   0  0  0  0  0  0
  -27.3778  -12.5239   17.8005 H   0  0  0  0  0  0
  -27.6346  -14.2539   19.4654 H   0  0  0  0  0  0
  -28.7060  -12.1895   21.4521 H   0  0  0  0  0  0
  -28.4195  -13.8793   21.7804 H   0  0  0  0  0  0
  -25.2776   -9.5725   22.4750 H   0  0  0  0  0  0
  -24.0011   -7.4681   22.7495 H   0  0  0  0  0  0
  -21.0859   -8.8792   19.8952 H   0  0  0  0  0  0
  -22.3722  -10.9685   19.6155 H   0  0  0  0  0  0
  -21.2002   -7.6151   23.9727 H   0  0  0  0  0  0
  -21.1456   -6.0524   25.9080 H   0  0  0  0  0  0
  -22.0602   -2.7613   23.2844 H   0  0  0  0  0  0
  -22.4078  -11.9879   22.4738 H   0  0  0  0  0  0
  -21.1093  -13.1273   22.2619 H   0  0  0  0  0  0
  -24.6471  -15.8414   20.5227 H   0  0  0  0  0  0
  -26.2721  -15.6453   20.1069 H   0  0  0  0  0  0
  -26.7138  -32.5358   23.1026 H   0  0  0  0  0  0
  -25.0089  -33.9654   25.0412 H   0  0  0  0  0  0
  -22.7276  -31.2949   21.3762 H   0  0  0  0  0  0
  -23.3785  -35.9523   23.3254 H   0  0  0  0  0  0
  -24.3583  -36.8899   22.2079 H   0  0  0  0  0  0
  -23.7182  -37.6386   23.6713 H   0  0  0  0  0  0
  -26.1218  -31.5339   20.6202 H   0  0  0  0  0  0
  -26.8467  -30.8006   22.0204 H   0  0  0  0  0  0
  -28.1132  -28.9270   21.2213 H   0  0  0  0  0  0
  -25.9813  -25.9045   18.9958 H   0  0  0  0  0  0
  -23.9813  -27.2875   19.0128 H   0  0  0  0  0  0
  -23.7783  -30.5689   19.3891 H   0  0  0  0  0  0
  -22.7735  -29.2238   19.8483 H   0  0  0  0  0  0
  -25.1286  -36.1830   25.0816 H   0  0  0  0  0  0
  -20.9962  -28.3229   24.1363 H   0  0  0  0  0  0
  -20.5662  -26.2266   23.3578 H   0  0  0  0  0  0
  -21.6642  -26.7385   22.1176 H   0  0  0  0  0  0
  -19.6935  -25.6269   21.1226 H   0  0  0  0  0  0
  -19.6764  -27.3165   20.6738 H   0  0  0  0  0  0
  -17.4204  -26.6661   21.4002 H   0  0  0  0  0  0
  -18.0340  -26.0116   22.9007 H   0  0  0  0  0  0
  -19.7989  -30.7305   24.2151 H   0  0  0  0  0  0
  -17.5067  -31.6285   24.5157 H   0  0  0  0  0  0
  -15.5380  -30.2988   23.7791 H   0  0  0  0  0  0
  -15.8649  -28.0884   22.7035 H   0  0  0  0  0  0
  -24.5841  -30.7163   25.7728 H   0  0  0  0  0  0
  -24.8950  -32.2953   26.4884 H   0  0  0  0  0  0
  -25.7975  -30.8870   27.0214 H   0  0  0  0  0  0
  -26.3041  -29.6721   24.1276 H   0  0  0  0  0  0
  -27.4133  -29.7353   25.4781 H   0  0  0  0  0  0
  -27.8866  -30.4381   23.9516 H   0  0  0  0  0  0
  -27.2673  -33.3693   26.2002 H   0  0  0  0  0  0
  -28.3855  -32.6874   25.0282 H   0  0  0  0  0  0
  -28.0724  -31.8533   26.5398 H   0  0  0  0  0  0
  -28.2481  -38.0139   24.7620 H   0  0  0  0  0  0
  -28.1177  -36.2652   24.6106 H   0  0  0  0  0  0
  -27.2304  -37.1157   25.8856 H   0  0  0  0  0  0
  -20.9386  -29.8738   21.6815 H   0  0  0  0  0  0
  -26.0101  -38.2780   24.1603 H   0  0  0  0  0  0
  -31.2422  -21.1201   19.8552 H   0  0  0  0  0  0
  -32.3159  -16.9887   19.8150 H   0  0  0  0  0  0
  -33.5407  -20.4329   19.5116 H   0  0  0  0  0  0
  -33.3998  -19.1842   18.2628 H   0  0  0  0  0  0
  -34.0220  -18.7767   19.8602 H   0  0  0  0  0  0
  -28.9169  -21.2565   21.9381 H   0  0  0  0  0  0
  -27.6879  -20.7237   20.8505 H   0  0  0  0  0  0
  -27.4498  -24.8834   20.5602 H   0  0  0  0  0  0
  -29.3178  -25.0775   19.7944 H   0  0  0  0  0  0
  -28.9557  -15.7105   20.9384 H   0  0  0  0  0  0
  -28.5536  -22.3450   19.1661 H   0  0  0  0  0  0
  1 25  1  0  0  0
  1 30  2  0  0  0
  1 81  1  0  0  0
  2  3  1  0  0  0
  2 25  1  0  0  0
  2 85  1  0  0  0
  2 86  1  0  0  0
  3  4  1  0  0  0
  3 87  1  0  0  0
  3 88  1  0  0  0
  4  5  1  0  0  0
  4 89  1  0  0  0
  4 90  1  0  0  0
  5  6  1  0  0  0
  5 26  1  0  0  0
  5 91  1  0  0  0
  6 25  1  0  0  0
  6 92  1  0  0  0
  6 93  1  0  0  0
  7  8  2  0  0  0
  7 26  1  0  0  0
  7 29  1  0  0  0
  8  9  1  0  0  0
  8 22  1  0  0  0
  9 10  1  0  0  0
  9 27  2  0  0  0
 10 11  2  0  0  0
 10 15  1  0  0  0
 11 12  1  0  0  0
 11 94  1  0  0  0
 12 13  2  0  0  0
 12 95  1  0  0  0
 13 14  1  0  0  0
 13 31  1  0  0  0
 14 15  2  0  0  0
 14 96  1  0  0  0
 15 97  1  0  0  0
 16 17  2  0  0  0
 16 21  1  0  0  0
 16 31  1  0  0  0
 17 18  1  0  0  0
 17 98  1  0  0  0
 18 19  2  0  0  0
 18 99  1  0  0  0
 19 20  1  0  0  0
 19 24  1  0  0  0
 20 21  2  0  0  0
 20100  1  0  0  0
 21 23  1  0  0  0
 22 28  1  0  0  0
 22 32  2  0  0  0
 26 27  1  0  0  0
 28101  1  0  0  0
 28102  1  0  0  0
 29103  1  0  0  0
 29104  1  0  0  0
 33 34  1  0  0  0
 33 66  1  0  0  0
 33 70  2  0  0  0
 34 36  1  0  0  0
 34 59  1  0  0  0
 34105  1  0  0  0
 35 44  2  0  0  0
 35 45  1  0  0  0
 35 68  1  0  0  0
 36 56  1  0  0  0
 36106  1  0  0  0
 37 39  1  0  0  0
 37 47  1  0  0  0
 37 66  1  0  0  0
 37107  1  0  0  0
 38 43  2  0  0  0
 38 46  1  0  0  0
 38 47  1  0  0  0
 39 64  1  0  0  0
 39 67  2  0  0  0
 40 52  1  0  0  0
 40 53  2  0  0  0
 40 58  1  0  0  0
 41108  1  0  0  0
 41109  1  0  0  0
 41110  1  0  0  0
 41 48  1  0  0  0
 42 43  1  0  0  0
 42 66  1  0  0  0
 42111  1  0  0  0
 42112  1  0  0  0
 43 44  1  0  0  0
 44113  1  0  0  0
 45 46  2  0  0  0
 45114  1  0  0  0
 46115  1  0  0  0
 47116  1  0  0  0
 47117  1  0  0  0
 48 56  1  0  0  0
 48 65  1  0  0  0
 48118  1  0  0  0
 49 50  1  0  0  0
 49 53  1  0  0  0
 49 64  1  0  0  0
 49119  1  0  0  0
 50 51  1  0  0  0
 50120  1  0  0  0
 50121  1  0  0  0
 51 52  1  0  0  0
 51122  1  0  0  0
 51123  1  0  0  0
 52124  1  0  0  0
 52125  1  0  0  0
 53 54  1  0  0  0
 54 55  2  0  0  0
 54126  1  0  0  0
 55 57  1  0  0  0
 55127  1  0  0  0
 56 69  2  0  0  0
 57 58  2  0  0  0
 57128  1  0  0  0
 58129  1  0  0  0
 59 60  1  0  0  0
 59 61  1  0  0  0
 59 62  1  0  0  0
 60130  1  0  0  0
 60131  1  0  0  0
 60132  1  0  0  0
 61133  1  0  0  0
 61134  1  0  0  0
 61135  1  0  0  0
 62136  1  0  0  0
 62137  1  0  0  0
 62138  1  0  0  0
 63 65  1  0  0  0
 63139  1  0  0  0
 63140  1  0  0  0
 63141  1  0  0  0
 64142  1  0  0  0
 65143  1  0  0  0
 68 80  1  0  0  0
 71 73  2  0  0  0
 71 74  1  0  0  0
 71144  1  0  0  0
 72 73  1  0  0  0
 72 75  2  0  0  0
 72145  1  0  0  0
 73 78  1  0  0  0
 74 76  2  0  0  0
 74 79  1  0  0  0
 75 76  1  0  0  0
 75 81  1  0  0  0
 76 84  1  0  0  0
 77 80  1  0  0  0
 77 82  1  0  0  0
 77 83  2  0  0  0
 78146  1  0  0  0
 78147  1  0  0  0
 78148  1  0  0  0
 79 82  1  0  0  0
 79149  1  0  0  0
 79150  1  0  0  0
 80151  1  0  0  0
 80152  1  0  0  0
 81153  1  0  0  0
 82154  1  0  0  0
M  ISO  4   1 100  68 101  80 101  81 100
M  END
> <chiral flag>
0

> <version>
0

> <s_m_source_file>
/data/baiqing/PycharmProjects/Reinvent-master-3.2/result/LINK_invent/BTK/process_docking_weight1_custom_sum_contain_oxygen_bond_distance_aromatic_linkinvent_7_9_3/rearranged_h_0013.sdf

> <i_m_source_file_index>
68

> <r_mmod_Potential_Energy-OPLS-2005>
269.389251708984

> <r_mmod_Stretch_Energy-OPLS-2005>
123.952949523926

> <r_mmod_Bend_Energy-OPLS-2005>
366.957061767578

> <r_mmod_Torsional_Energy-OPLS-2005>
209.532150268555

> <r_mmod_Improper_Torsional_Energy-OPLS-2005>
5.37855768203735

> <r_mmod_Van_der_Waal_Energy-OPLS-2005>
149.191925048828

> <r_mmod_Electrostatic_Energy-OPLS-2005>
-429.201843261719

> <r_mmod_Solvation_Energy-OPLS-2005>
-234.897262573242

> <b_mmod_Minimization_Converged-OPLS-2005>
0

> <r_mmod_RMS_Derivative-OPLS-2005>
4.02419424057007

$$$$
68
                    3D
 Structure written by MMmdl.
144152  0  0  1  0            999 V2000
  -30.2514  -15.7731   20.3176 C   0  0  0  0  0  0
  -30.4148  -13.1847   19.5386 C   0  0  0  0  0  0
  -29.5548  -12.6896   18.3366 C   0  0  0  0  0  0
  -28.1396  -12.3027   18.7879 C   0  0  0  0  0  0
  -27.5910  -13.3212   19.8101 C   0  0  2  0  0  0
  -28.5992  -13.7141   20.9191 C   0  0  0  0  0  0
  -25.2302  -13.8301   20.5816 C   0  0  0  0  0  0
  -24.1705  -13.0433   20.9300 C   0  0  0  0  0  0
  -24.6425  -11.6950   20.8765 C   0  0  0  0  0  0
  -23.9131  -10.4293   21.0393 C   0  0  0  0  0  0
  -24.3661   -9.4205   21.9177 C   0  0  0  0  0  0
  -23.6318   -8.2248   22.0753 C   0  0  0  0  0  0
  -22.4298   -8.0290   21.3544 C   0  0  0  0  0  0
  -21.9947   -9.0266   20.4643 C   0  0  0  0  0  0
  -22.7294  -10.2135   20.3047 C   0  0  0  0  0  0
  -21.6860   -6.0743   22.5279 C   0  0  0  0  0  0
  -21.4020   -6.5644   23.8213 C   0  0  0  0  0  0
  -21.3661   -5.6795   24.9174 C   0  0  0  0  0  0
  -21.6044   -4.3057   24.7223 C   0  0  0  0  0  0
  -21.8818   -3.8151   23.4344 C   0  0  0  0  0  0
  -21.9195   -4.6969   22.3401 C   0  0  0  0  0  0
  -22.7713  -13.5153   21.1929 C   0  0  0  0  0  0
  -22.1662   -4.2154   21.0978 F   0  0  0  0  0  0
  -21.5627   -3.4540   25.7735 F   0  0  0  0  0  0
  -29.7492  -14.3809   20.2518 N   0  0  0  0  0  0
  -26.2765  -12.9658   20.3252 N   0  0  0  0  0  0
  -25.9377  -11.6714   20.5695 N   0  0  0  0  0  0
  -22.0382  -12.8125   22.0479 N   0  0  0  0  0  0
  -25.3870  -15.2045   20.4257 N   0  0  0  0  0  0
  -31.4901  -15.6806   20.1854 O   0  0  0  0  0  0
  -21.6651   -6.8891   21.4243 O   0  0  0  0  0  0
  -22.3384  -14.5449   20.6763 O   0  0  0  0  0  0
  -24.6939  -31.7879   23.1426 C   0  0  0  0  0  0
  -25.9469  -32.4407   23.8012 C   0  0  1  0  0  0
  -27.2310  -26.5983   20.2258 C   0  0  0  0  0  0
  -25.6005  -33.8238   24.1888 N   0  0  0  0  0  0
  -23.5249  -30.3851   21.4991 C   0  0  2  0  0  0
  -24.9836  -28.7038   20.1217 C   0  0  0  0  0  0
  -22.7813  -29.4252   22.4682 C   0  0  0  0  0  0
  -18.0346  -28.1427   22.8450 C   0  0  0  0  0  0
  -24.1495  -36.7127   23.2655 C   0  0  0  0  0  0
  -26.1102  -30.4866   21.4227 C   0  0  0  0  0  0
  -26.1750  -29.0397   20.7752 C   0  0  0  0  0  0
  -27.2791  -28.0187   20.7902 C   0  0  0  0  0  0
  -26.0048  -26.4983   19.5131 C   0  0  0  0  0  0
  -24.9439  -27.4602   19.4660 C   0  0  0  0  0  0
  -23.7849  -29.6721   20.1392 C   0  0  0  0  0  0
  -25.4150  -36.2860   24.0274 C   0  0  1  0  0  0
  -20.5987  -28.3793   23.1122 C   0  0  2  0  0  0
  -20.6807  -26.9442   22.5405 C   0  0  0  0  0  0
  -19.5784  -26.6368   21.5218 C   0  0  0  0  0  0
  -18.1967  -26.7953   22.1618 C   0  0  0  0  0  0
  -19.1615  -28.8937   23.2763 C   0  0  0  0  0  0
  -18.9518  -30.1517   23.8814 C   0  0  0  0  0  0
  -17.6506  -30.6607   24.0548 C   0  0  0  0  0  0
  -25.9137  -34.9253   23.4926 C   0  0  0  0  0  0
  -16.5395  -29.9086   23.6353 C   0  0  0  0  0  0
  -16.7325  -28.6509   23.0370 C   0  0  0  0  0  0
  -26.4613  -31.6486   25.0678 C   0  0  0  0  0  0
  -25.3650  -31.3834   26.1273 C   0  0  0  0  0  0
  -27.0563  -30.2813   24.6655 C   0  0  0  0  0  0
  -27.6040  -32.4373   25.7504 C   0  0  0  0  0  0
  -27.5562  -37.1718   24.8464 C   0  0  0  0  0  0
  -21.4450  -29.3019   22.3430 N   0  0  0  0  0  0
  -26.4265  -37.3634   23.9410 N   0  0  0  0  0  0
  -24.8010  -30.9222   22.0736 N   0  0  0  0  0  0
  -23.4207  -28.7870   23.3075 O   0  0  0  0  0  0
  -28.1803  -25.3311   20.2928 O   0  0  0  0  0  0
  -26.5793  -34.8852   22.4554 O   0  0  0  0  0  0
  -23.5935  -32.1002   23.6314 O   0  0  0  0  0  0
  -30.3232  -21.9765   20.4043 C   0  0  0  0  0  0
  -31.2194  -20.8575   20.4729 C   0  0  0  0  0  0
  -28.9167  -21.8796   20.2897 C   0  0  0  0  0  0
  -29.5938  -18.9265   20.3329 C   0  0  0  0  0  0
  -30.9058  -19.4567   20.4417 C   0  0  0  0  0  0
  -28.6407  -20.2604   20.2616 C   0  0  0  0  0  0
  -27.9556  -23.5358   20.1904 C   0  0  0  0  0  0
  -29.4724  -17.1627   20.3319 N   0  0  0  0  0  0
  -31.9426  -18.5909   20.5315 F   0  0  0  0  0  0
  -27.3255  -19.9533   20.1525 F   0  0  0  0  0  0
  -31.3961  -13.4679   19.1565 H   0  0  0  0  0  0
  -30.6123  -12.3683   20.2355 H   0  0  0  0  0  0
  -30.0373  -11.8464   17.8405 H   0  0  0  0  0  0
  -29.4908  -13.4867   17.5944 H   0  0  0  0  0  0
  -28.1927  -11.3169   19.2515 H   0  0  0  0  0  0
  -27.4711  -12.2077   17.9312 H   0  0  0  0  0  0
  -27.4338  -14.2231   19.2165 H   0  0  0  0  0  0
  -28.8929  -12.8561   21.5259 H   0  0  0  0  0  0
  -28.1391  -14.4275   21.6044 H   0  0  0  0  0  0
  -25.2799   -9.5678   22.4764 H   0  0  0  0  0  0
  -24.0016   -7.4641   22.7480 H   0  0  0  0  0  0
  -21.0876   -8.8796   19.8949 H   0  0  0  0  0  0
  -22.3753  -10.9677   19.6159 H   0  0  0  0  0  0
  -21.2015   -7.6152   23.9718 H   0  0  0  0  0  0
  -21.1483   -6.0524   25.9077 H   0  0  0  0  0  0
  -22.0595   -2.7613   23.2842 H   0  0  0  0  0  0
  -22.4031  -11.9804   22.4876 H   0  0  0  0  0  0
  -21.0986  -13.1112   22.2676 H   0  0  0  0  0  0
  -24.6127  -15.8500   20.5378 H   0  0  0  0  0  0
  -26.2238  -15.6483   20.0726 H   0  0  0  0  0  0
  -26.7561  -32.4853   23.0728 H   0  0  0  0  0  0
  -25.0045  -33.9258   24.9971 H   0  0  0  0  0  0
  -22.8562  -31.2251   21.2999 H   0  0  0  0  0  0
  -23.3782  -35.9429   23.3247 H   0  0  0  0  0  0
  -24.3562  -36.8866   22.2083 H   0  0  0  0  0  0
  -23.7230  -37.6271   23.6786 H   0  0  0  0  0  0
  -26.3239  -31.2042   20.6295 H   0  0  0  0  0  0
  -26.9570  -30.5588   22.0926 H   0  0  0  0  0  0
  -28.1738  -28.2869   21.3340 H   0  0  0  0  0  0
  -25.8203  -25.5633   19.0033 H   0  0  0  0  0  0
  -24.0479  -27.1922   18.9230 H   0  0  0  0  0  0
  -23.9692  -30.4274   19.3745 H   0  0  0  0  0  0
  -22.8875  -29.1440   19.8124 H   0  0  0  0  0  0
  -25.1364  -36.1604   25.0763 H   0  0  0  0  0  0
  -21.0065  -28.3426   24.1250 H   0  0  0  0  0  0
  -20.5661  -26.2420   23.3677 H   0  0  0  0  0  0
  -21.6667  -26.7368   22.1229 H   0  0  0  0  0  0
  -19.6938  -25.6256   21.1302 H   0  0  0  0  0  0
  -19.6730  -27.3132   20.6712 H   0  0  0  0  0  0
  -17.4237  -26.6696   21.4021 H   0  0  0  0  0  0
  -18.0351  -26.0115   22.9033 H   0  0  0  0  0  0
  -19.7993  -30.7355   24.2147 H   0  0  0  0  0  0
  -17.5056  -31.6278   24.5167 H   0  0  0  0  0  0
  -15.5392  -30.2962   23.7725 H   0  0  0  0  0  0
  -15.8726  -28.0800   22.7133 H   0  0  0  0  0  0
  -24.5868  -30.7151   25.7568 H   0  0  0  0  0  0
  -24.8805  -32.3065   26.4464 H   0  0  0  0  0  0
  -25.7802  -30.9150   27.0205 H   0  0  0  0  0  0
  -26.3301  -29.6394   24.1659 H   0  0  0  0  0  0
  -27.3959  -29.7303   25.5436 H   0  0  0  0  0  0
  -27.9293  -30.3914   24.0221 H   0  0  0  0  0  0
  -27.2565  -33.3758   26.1838 H   0  0  0  0  0  0
  -28.3975  -32.6802   25.0424 H   0  0  0  0  0  0
  -28.0571  -31.8668   26.5622 H   0  0  0  0  0  0
  -28.2532  -38.0056   24.7526 H   0  0  0  0  0  0
  -28.1104  -36.2578   24.6274 H   0  0  0  0  0  0
  -27.2278  -37.1328   25.8866 H   0  0  0  0  0  0
  -20.9780  -29.8658   21.6465 H   0  0  0  0  0  0
  -26.0081  -38.2674   24.1435 H   0  0  0  0  0  0
  -30.7538  -22.9673   20.4398 H   0  0  0  0  0  0
  -32.2691  -21.0980   20.5600 H   0  0  0  0  0  0
  -27.1636  -23.3707   20.9208 H   0  0  0  0  0  0
  -27.4432  -23.4311   19.2341 H   0  0  0  0  0  0
  -28.4935  -16.9199   20.3445 H   0  0  0  0  0  0
  1 25  1  0  0  0
  1 30  2  0  0  0
  1 78  1  0  0  0
  2  3  1  0  0  0
  2 25  1  0  0  0
  2 81  1  0  0  0
  2 82  1  0  0  0
  3  4  1  0  0  0
  3 83  1  0  0  0
  3 84  1  0  0  0
  4  5  1  0  0  0
  4 85  1  0  0  0
  4 86  1  0  0  0
  5  6  1  0  0  0
  5 26  1  0  0  0
  5 87  1  0  0  0
  6 25  1  0  0  0
  6 88  1  0  0  0
  6 89  1  0  0  0
  7  8  2  0  0  0
  7 26  1  0  0  0
  7 29  1  0  0  0
  8  9  1  0  0  0
  8 22  1  0  0  0
  9 10  1  0  0  0
  9 27  2  0  0  0
 10 11  2  0  0  0
 10 15  1  0  0  0
 11 12  1  0  0  0
 11 90  1  0  0  0
 12 13  2  0  0  0
 12 91  1  0  0  0
 13 14  1  0  0  0
 13 31  1  0  0  0
 14 15  2  0  0  0
 14 92  1  0  0  0
 15 93  1  0  0  0
 16 17  2  0  0  0
 16 21  1  0  0  0
 16 31  1  0  0  0
 17 18  1  0  0  0
 17 94  1  0  0  0
 18 19  2  0  0  0
 18 95  1  0  0  0
 19 20  1  0  0  0
 19 24  1  0  0  0
 20 21  2  0  0  0
 20 96  1  0  0  0
 21 23  1  0  0  0
 22 28  1  0  0  0
 22 32  2  0  0  0
 26 27  1  0  0  0
 28 97  1  0  0  0
 28 98  1  0  0  0
 29 99  1  0  0  0
 29100  1  0  0  0
 33 34  1  0  0  0
 33 66  1  0  0  0
 33 70  2  0  0  0
 34 36  1  0  0  0
 34 59  1  0  0  0
 34101  1  0  0  0
 35 44  2  0  0  0
 35 45  1  0  0  0
 35 68  1  0  0  0
 36 56  1  0  0  0
 36102  1  0  0  0
 37 39  1  0  0  0
 37 47  1  0  0  0
 37 66  1  0  0  0
 37103  1  0  0  0
 38 43  2  0  0  0
 38 46  1  0  0  0
 38 47  1  0  0  0
 39 64  1  0  0  0
 39 67  2  0  0  0
 40 52  1  0  0  0
 40 53  2  0  0  0
 40 58  1  0  0  0
 41104  1  0  0  0
 41105  1  0  0  0
 41106  1  0  0  0
 41 48  1  0  0  0
 42 43  1  0  0  0
 42 66  1  0  0  0
 42107  1  0  0  0
 42108  1  0  0  0
 43 44  1  0  0  0
 44109  1  0  0  0
 45 46  2  0  0  0
 45110  1  0  0  0
 46111  1  0  0  0
 47112  1  0  0  0
 47113  1  0  0  0
 48 56  1  0  0  0
 48 65  1  0  0  0
 48114  1  0  0  0
 49 50  1  0  0  0
 49 53  1  0  0  0
 49 64  1  0  0  0
 49115  1  0  0  0
 50 51  1  0  0  0
 50116  1  0  0  0
 50117  1  0  0  0
 51 52  1  0  0  0
 51118  1  0  0  0
 51119  1  0  0  0
 52120  1  0  0  0
 52121  1  0  0  0
 53 54  1  0  0  0
 54 55  2  0  0  0
 54122  1  0  0  0
 55 57  1  0  0  0
 55123  1  0  0  0
 56 69  2  0  0  0
 57 58  2  0  0  0
 57124  1  0  0  0
 58125  1  0  0  0
 59 60  1  0  0  0
 59 61  1  0  0  0
 59 62  1  0  0  0
 60126  1  0  0  0
 60127  1  0  0  0
 60128  1  0  0  0
 61129  1  0  0  0
 61130  1  0  0  0
 61131  1  0  0  0
 62132  1  0  0  0
 62133  1  0  0  0
 62134  1  0  0  0
 63 65  1  0  0  0
 63135  1  0  0  0
 63136  1  0  0  0
 63137  1  0  0  0
 64138  1  0  0  0
 65139  1  0  0  0
 68 77  1  0  0  0
 71 72  2  0  0  0
 71 73  1  0  0  0
 71140  1  0  0  0
 72 75  1  0  0  0
 72141  1  0  0  0
 73 76  2  0  0  0
 73 77  1  0  0  0
 74 75  2  0  0  0
 74 76  1  0  0  0
 74 78  1  0  0  0
 75 79  1  0  0  0
 76 80  1  0  0  0
 77142  1  0  0  0
 77143  1  0  0  0
 78144  1  0  0  0
M  ISO  4   1 100  68 101  77 101  78 100
M  END
> <chiral flag>
0

> <version>
0

> <s_m_source_file>
/data/baiqing/PycharmProjects/Reinvent-master-3.2/result/LINK_invent/BTK/process_docking_weight1_custom_sum_contain_oxygen_bond_distance_aromatic_linkinvent_7_9_3/rearranged_h_0013.sdf

> <i_m_source_file_index>
69

> <r_mmod_Potential_Energy-OPLS-2005>
2767.984375

> <r_mmod_Stretch_Energy-OPLS-2005>
1263.42407226562

> <r_mmod_Bend_Energy-OPLS-2005>
639.894104003906

> <r_mmod_Torsional_Energy-OPLS-2005>
222.82795715332

> <r_mmod_Improper_Torsional_Energy-OPLS-2005>
4.20815420150757

> <r_mmod_Van_der_Waal_Energy-OPLS-2005>
125.955642700195

> <r_mmod_Electrostatic_Energy-OPLS-2005>
-397.965270996094

> <r_mmod_Solvation_Energy-OPLS-2005>
-214.875427246094

> <b_mmod_Minimization_Converged-OPLS-2005>
1

> <r_mmod_RMS_Derivative-OPLS-2005>
0.0456672459840775

$$$$
69
                    3D
 Structure written by MMmdl.
159167  0  0  1  0            999 V2000
  -30.6206  -14.7717   20.4006 C   0  0  0  0  0  0
  -30.4306  -12.4690   19.4687 C   0  0  0  0  0  0
  -29.5093  -12.4924   18.2304 C   0  0  0  0  0  0
  -28.0369  -12.3149   18.6510 C   0  0  0  0  0  0
  -27.6341  -13.2357   19.8343 C   0  0  2  0  0  0
  -28.6818  -13.2155   20.9665 C   0  0  0  0  0  0
  -25.2486  -13.8201   20.5683 C   0  0  0  0  0  0
  -24.1788  -13.0443   20.9216 C   0  0  0  0  0  0
  -24.6384  -11.6921   20.8754 C   0  0  0  0  0  0
  -23.9066  -10.4294   21.0406 C   0  0  0  0  0  0
  -24.3617   -9.4211   21.9188 C   0  0  0  0  0  0
  -23.6288   -8.2248   22.0765 C   0  0  0  0  0  0
  -22.4270   -8.0279   21.3554 C   0  0  0  0  0  0
  -21.9899   -9.0253   20.4660 C   0  0  0  0  0  0
  -22.7232  -10.2132   20.3059 C   0  0  0  0  0  0
  -21.6849   -6.0728   22.5279 C   0  0  0  0  0  0
  -21.4016   -6.5640   23.8210 C   0  0  0  0  0  0
  -21.3659   -5.6793   24.9173 C   0  0  0  0  0  0
  -21.6039   -4.3055   24.7224 C   0  0  0  0  0  0
  -21.8820   -3.8145   23.4347 C   0  0  0  0  0  0
  -21.9193   -4.6958   22.3401 C   0  0  0  0  0  0
  -22.7813  -13.5223   21.1869 C   0  0  0  0  0  0
  -22.1662   -4.2145   21.0979 F   0  0  0  0  0  0
  -21.5627   -3.4540   25.7738 F   0  0  0  0  0  0
  -29.9743  -13.5558   20.3643 N   0  0  0  0  0  0
  -26.2906  -12.9415   20.3225 N   0  0  0  0  0  0
  -25.9312  -11.6557   20.5728 N   0  0  0  0  0  0
  -22.0451  -12.8220   22.0427 N   0  0  0  0  0  0
  -25.4149  -15.1924   20.4087 N   0  0  0  0  0  0
  -31.8464  -14.7794   20.2933 O   0  0  0  0  0  0
  -21.6638   -6.8872   21.4238 O   0  0  0  0  0  0
  -22.3495  -14.5522   20.6705 O   0  0  0  0  0  0
  -24.6303  -31.8554   23.1957 C   0  0  0  0  0  0
  -25.9135  -32.4758   23.8306 C   0  0  1  0  0  0
  -27.2219  -27.2664   20.1432 C   0  0  0  0  0  0
  -25.5935  -33.8555   24.2247 N   0  0  0  0  0  0
  -23.4257  -30.4760   21.5383 C   0  0  2  0  0  0
  -24.8735  -28.9112   20.1180 C   0  0  0  0  0  0
  -22.7487  -29.4614   22.4915 C   0  0  0  0  0  0
  -18.0289  -28.1385   22.8480 C   0  0  0  0  0  0
  -24.1488  -36.7278   23.2643 C   0  0  0  0  0  0
  -25.9695  -30.7716   21.3708 C   0  0  0  0  0  0
  -26.0438  -29.3900   20.7217 C   0  0  0  0  0  0
  -27.2235  -28.5822   20.7151 C   0  0  0  0  0  0
  -26.0292  -26.8380   19.5287 C   0  0  0  0  0  0
  -24.8703  -27.6429   19.5112 C   0  0  0  0  0  0
  -23.6449  -29.8006   20.1576 C   0  0  0  0  0  0
  -25.4114  -36.3068   24.0329 C   0  0  1  0  0  0
  -20.5892  -28.3698   23.1276 C   0  0  2  0  0  0
  -20.6781  -26.9418   22.5414 C   0  0  0  0  0  0
  -19.5760  -26.6385   21.5212 C   0  0  0  0  0  0
  -18.1937  -26.7926   22.1620 C   0  0  0  0  0  0
  -19.1541  -28.8854   23.2874 C   0  0  0  0  0  0
  -18.9471  -30.1451   23.8902 C   0  0  0  0  0  0
  -17.6472  -30.6590   24.0557 C   0  0  0  0  0  0
  -25.9055  -34.9442   23.5093 C   0  0  0  0  0  0
  -16.5362  -29.9089   23.6329 C   0  0  0  0  0  0
  -16.7275  -28.6503   23.0356 C   0  0  0  0  0  0
  -26.4504  -31.6579   25.0691 C   0  0  0  0  0  0
  -25.3734  -31.3735   26.1418 C   0  0  0  0  0  0
  -27.0354  -30.3000   24.6171 C   0  0  0  0  0  0
  -27.6055  -32.4313   25.7477 C   0  0  0  0  0  0
  -27.5575  -37.1794   24.8467 C   0  0  0  0  0  0
  -21.4194  -29.3046   22.3659 N   0  0  0  0  0  0
  -26.4287  -37.3770   23.9410 N   0  0  0  0  0  0
  -24.6942  -31.0527   22.0922 N   0  0  0  0  0  0
  -23.4188  -28.8173   23.3023 O   0  0  0  0  0  0
  -28.3423  -26.4146   20.1141 O   0  0  0  0  0  0
  -26.5627  -34.8923   22.4661 O   0  0  0  0  0  0
  -23.5456  -32.1377   23.7260 O   0  0  0  0  0  0
  -30.8358  -20.0894   19.1703 C   0  0  0  0  0  0
  -29.3808  -18.5247   20.3065 C   0  0  0  0  0  0
  -31.6179  -19.0127   18.7225 C   0  0  0  0  0  0
  -31.2484  -17.6665   18.9892 C   0  0  0  0  0  0
  -29.6581  -19.9100   19.9211 C   0  0  0  0  0  0
  -30.1883  -17.3632   19.9089 C   0  0  0  0  0  0
  -29.1316  -22.3315   20.3229 C   0  0  0  0  0  0
  -32.8449  -19.3497   17.8840 C   0  0  0  0  0  0
  -31.9532  -16.5999   18.1538 C   0  0  0  0  0  0
  -30.4167  -22.6705   21.0630 C   0  0  0  0  0  0
  -28.3520  -23.6640   19.8361 C   0  0  0  0  0  0
  -28.2964  -25.0352   20.7090 C   0  0  0  0  0  0
  -28.7799  -21.0783   20.0531 N   0  0  0  0  0  0
  -29.8636  -15.9480   20.3236 N   0  0  0  0  0  0
  -31.4699  -12.5956   19.1608 H   0  0  0  0  0  0
  -30.3827  -11.5052   19.9788 H   0  0  0  0  0  0
  -29.7964  -11.7069   17.5304 H   0  0  0  0  0  0
  -29.6293  -13.4371   17.6971 H   0  0  0  0  0  0
  -27.9048  -11.2711   18.9389 H   0  0  0  0  0  0
  -27.3765  -12.4808   17.7985 H   0  0  0  0  0  0
  -27.6140  -14.2464   19.4262 H   0  0  0  0  0  0
  -28.7253  -12.2367   21.4460 H   0  0  0  0  0  0
  -28.4204  -13.9330   21.7462 H   0  0  0  0  0  0
  -25.2761   -9.5684   22.4766 H   0  0  0  0  0  0
  -23.9999   -7.4631   22.7484 H   0  0  0  0  0  0
  -21.0831   -8.8766   19.8959 H   0  0  0  0  0  0
  -22.3689  -10.9669   19.6169 H   0  0  0  0  0  0
  -21.2015   -7.6149   23.9708 H   0  0  0  0  0  0
  -21.1479   -6.0528   25.9074 H   0  0  0  0  0  0
  -22.0598   -2.7605   23.2845 H   0  0  0  0  0  0
  -22.4054  -11.9893   22.4851 H   0  0  0  0  0  0
  -21.1069  -13.1252   22.2617 H   0  0  0  0  0  0
  -24.6404  -15.8393   20.5125 H   0  0  0  0  0  0
  -26.2497  -15.6339   20.0470 H   0  0  0  0  0  0
  -26.7198  -32.5413   23.1042 H   0  0  0  0  0  0
  -25.0081  -33.9689   25.0394 H   0  0  0  0  0  0
  -22.7213  -31.2971   21.3873 H   0  0  0  0  0  0
  -23.3753  -35.9607   23.3308 H   0  0  0  0  0  0
  -24.3580  -36.8897   22.2058 H   0  0  0  0  0  0
  -23.7244  -37.6481   23.6662 H   0  0  0  0  0  0
  -26.1029  -31.5285   20.5963 H   0  0  0  0  0  0
  -26.8495  -30.8268   22.0002 H   0  0  0  0  0  0
  -28.1271  -28.9517   21.1799 H   0  0  0  0  0  0
  -25.9933  -25.8639   19.0606 H   0  0  0  0  0  0
  -23.9725  -27.2699   19.0371 H   0  0  0  0  0  0
  -23.7701  -30.5717   19.3963 H   0  0  0  0  0  0
  -22.7634  -29.2322   19.8554 H   0  0  0  0  0  0
  -25.1299  -36.1907   25.0822 H   0  0  0  0  0  0
  -20.9982  -28.3280   24.1397 H   0  0  0  0  0  0
  -20.5676  -26.2312   23.3617 H   0  0  0  0  0  0
  -21.6653  -26.7439   22.1217 H   0  0  0  0  0  0
  -19.6925  -25.6294   21.1247 H   0  0  0  0  0  0
  -19.6701  -27.3190   20.6736 H   0  0  0  0  0  0
  -17.4208  -26.6668   21.4021 H   0  0  0  0  0  0
  -18.0335  -26.0072   22.9019 H   0  0  0  0  0  0
  -19.7951  -30.7251   24.2288 H   0  0  0  0  0  0
  -17.5037  -31.6278   24.5147 H   0  0  0  0  0  0
  -15.5366  -30.2997   23.7656 H   0  0  0  0  0  0
  -15.8671  -28.0819   22.7085 H   0  0  0  0  0  0
  -24.5916  -30.7069   25.7762 H   0  0  0  0  0  0
  -24.8915  -32.2906   26.4814 H   0  0  0  0  0  0
  -25.8065  -30.8946   27.0209 H   0  0  0  0  0  0
  -26.2934  -29.6736   24.1205 H   0  0  0  0  0  0
  -27.4062  -29.7273   25.4682 H   0  0  0  0  0  0
  -27.8793  -30.4285   23.9390 H   0  0  0  0  0  0
  -27.2671  -33.3631   26.2019 H   0  0  0  0  0  0
  -28.3896  -32.6840   25.0328 H   0  0  0  0  0  0
  -28.0679  -31.8448   26.5428 H   0  0  0  0  0  0
  -28.2597  -38.0086   24.7508 H   0  0  0  0  0  0
  -28.1066  -36.2618   24.6295 H   0  0  0  0  0  0
  -27.2291  -37.1444   25.8870 H   0  0  0  0  0  0
  -20.9377  -29.8758   21.6857 H   0  0  0  0  0  0
  -26.0162  -38.2844   24.1408 H   0  0  0  0  0  0
  -31.1153  -21.0817   18.8447 H   0  0  0  0  0  0
  -28.4940  -18.3441   20.8971 H   0  0  0  0  0  0
  -33.1807  -20.3716   18.0656 H   0  0  0  0  0  0
  -32.6255  -19.2575   16.8200 H   0  0  0  0  0  0
  -33.6827  -18.6951   18.1265 H   0  0  0  0  0  0
  -32.1838  -16.9612   17.1522 H   0  0  0  0  0  0
  -31.3229  -15.7296   17.9811 H   0  0  0  0  0  0
  -32.8924  -16.2957   18.6155 H   0  0  0  0  0  0
  -30.9568  -23.4660   20.5490 H   0  0  0  0  0  0
  -31.0828  -21.8166   21.1657 H   0  0  0  0  0  0
  -30.1774  -23.0098   22.0709 H   0  0  0  0  0  0
  -27.3299  -23.3837   19.5827 H   0  0  0  0  0  0
  -28.8062  -23.9308   18.8819 H   0  0  0  0  0  0
  -29.1610  -25.0322   21.3705 H   0  0  0  0  0  0
  -27.4447  -24.9761   21.3877 H   0  0  0  0  0  0
  -28.8910  -15.7967   20.5403 H   0  0  0  0  0  0
  1 25  1  0  0  0
  1 30  2  0  0  0
  1 84  1  0  0  0
  2  3  1  0  0  0
  2 25  1  0  0  0
  2 85  1  0  0  0
  2 86  1  0  0  0
  3  4  1  0  0  0
  3 87  1  0  0  0
  3 88  1  0  0  0
  4  5  1  0  0  0
  4 89  1  0  0  0
  4 90  1  0  0  0
  5  6  1  0  0  0
  5 26  1  0  0  0
  5 91  1  0  0  0
  6 25  1  0  0  0
  6 92  1  0  0  0
  6 93  1  0  0  0
  7  8  2  0  0  0
  7 26  1  0  0  0
  7 29  1  0  0  0
  8  9  1  0  0  0
  8 22  1  0  0  0
  9 10  1  0  0  0
  9 27  2  0  0  0
 10 11  2  0  0  0
 10 15  1  0  0  0
 11 12  1  0  0  0
 11 94  1  0  0  0
 12 13  2  0  0  0
 12 95  1  0  0  0
 13 14  1  0  0  0
 13 31  1  0  0  0
 14 15  2  0  0  0
 14 96  1  0  0  0
 15 97  1  0  0  0
 16 17  2  0  0  0
 16 21  1  0  0  0
 16 31  1  0  0  0
 17 18  1  0  0  0
 17 98  1  0  0  0
 18 19  2  0  0  0
 18 99  1  0  0  0
 19 20  1  0  0  0
 19 24  1  0  0  0
 20 21  2  0  0  0
 20100  1  0  0  0
 21 23  1  0  0  0
 22 28  1  0  0  0
 22 32  2  0  0  0
 26 27  1  0  0  0
 28101  1  0  0  0
 28102  1  0  0  0
 29103  1  0  0  0
 29104  1  0  0  0
 33 34  1  0  0  0
 33 66  1  0  0  0
 33 70  2  0  0  0
 34 36  1  0  0  0
 34 59  1  0  0  0
 34105  1  0  0  0
 35 44  2  0  0  0
 35 45  1  0  0  0
 35 68  1  0  0  0
 36 56  1  0  0  0
 36106  1  0  0  0
 37 39  1  0  0  0
 37 47  1  0  0  0
 37 66  1  0  0  0
 37107  1  0  0  0
 38 43  2  0  0  0
 38 46  1  0  0  0
 38 47  1  0  0  0
 39 64  1  0  0  0
 39 67  2  0  0  0
 40 52  1  0  0  0
 40 53  2  0  0  0
 40 58  1  0  0  0
 41108  1  0  0  0
 41109  1  0  0  0
 41110  1  0  0  0
 41 48  1  0  0  0
 42 43  1  0  0  0
 42 66  1  0  0  0
 42111  1  0  0  0
 42112  1  0  0  0
 43 44  1  0  0  0
 44113  1  0  0  0
 45 46  2  0  0  0
 45114  1  0  0  0
 46115  1  0  0  0
 47116  1  0  0  0
 47117  1  0  0  0
 48 56  1  0  0  0
 48 65  1  0  0  0
 48118  1  0  0  0
 49 50  1  0  0  0
 49 53  1  0  0  0
 49 64  1  0  0  0
 49119  1  0  0  0
 50 51  1  0  0  0
 50120  1  0  0  0
 50121  1  0  0  0
 51 52  1  0  0  0
 51122  1  0  0  0
 51123  1  0  0  0
 52124  1  0  0  0
 52125  1  0  0  0
 53 54  1  0  0  0
 54 55  2  0  0  0
 54126  1  0  0  0
 55 57  1  0  0  0
 55127  1  0  0  0
 56 69  2  0  0  0
 57 58  2  0  0  0
 57128  1  0  0  0
 58129  1  0  0  0
 59 60  1  0  0  0
 59 61  1  0  0  0
 59 62  1  0  0  0
 60130  1  0  0  0
 60131  1  0  0  0
 60132  1  0  0  0
 61133  1  0  0  0
 61134  1  0  0  0
 61135  1  0  0  0
 62136  1  0  0  0
 62137  1  0  0  0
 62138  1  0  0  0
 63 65  1  0  0  0
 63139  1  0  0  0
 63140  1  0  0  0
 63141  1  0  0  0
 64142  1  0  0  0
 65143  1  0  0  0
 68 82  1  0  0  0
 71 73  2  0  0  0
 71 75  1  0  0  0
 71144  1  0  0  0
 72 75  2  0  0  0
 72 76  1  0  0  0
 72145  1  0  0  0
 73 74  1  0  0  0
 73 78  1  0  0  0
 74 76  2  0  0  0
 74 79  1  0  0  0
 75 83  1  0  0  0
 76 84  1  0  0  0
 77 80  1  0  0  0
 77 81  1  0  0  0
 77 83  2  0  0  0
 78146  1  0  0  0
 78147  1  0  0  0
 78148  1  0  0  0
 79149  1  0  0  0
 79150  1  0  0  0
 79151  1  0  0  0
 80152  1  0  0  0
 80153  1  0  0  0
 80154  1  0  0  0
 81 82  1  0  0  0
 81155  1  0  0  0
 81156  1  0  0  0
 82157  1  0  0  0
 82158  1  0  0  0
 84159  1  0  0  0
M  ISO  4   1 100  68 101  82 101  84 100
M  END
> <chiral flag>
0

> <version>
0

> <s_m_source_file>
/data/baiqing/PycharmProjects/Reinvent-master-3.2/result/LINK_invent/BTK/process_docking_weight1_custom_sum_contain_oxygen_bond_distance_aromatic_linkinvent_7_9_3/rearranged_h_0013.sdf

> <i_m_source_file_index>
70

> <r_mmod_Potential_Energy-OPLS-2005>
277.340789794922

> <r_mmod_Stretch_Energy-OPLS-2005>
145.844512939453

> <r_mmod_Bend_Energy-OPLS-2005>
186.811431884766

> <r_mmod_Torsional_Energy-OPLS-2005>
300.053527832031

> <r_mmod_Improper_Torsional_Energy-OPLS-2005>
7.49762439727783

> <r_mmod_Van_der_Waal_Energy-OPLS-2005>
154.739791870117

> <r_mmod_Electrostatic_Energy-OPLS-2005>
-403.76513671875

> <r_mmod_Solvation_Energy-OPLS-2005>
-208.513092041016

> <b_mmod_Minimization_Converged-OPLS-2005>
0

> <r_mmod_RMS_Derivative-OPLS-2005>
1.31815612316132

$$$$
70
                    3D
 Structure written by MMmdl.
158166  0  0  1  0            999 V2000
  -30.5271  -14.8954   20.4491 C   0  0  0  0  0  0
  -30.4486  -12.5507   19.4971 C   0  0  0  0  0  0
  -29.5244  -12.5302   18.2558 C   0  0  0  0  0  0
  -28.0539  -12.3239   18.6682 C   0  0  0  0  0  0
  -27.6394  -13.2374   19.8502 C   0  0  2  0  0  0
  -28.6804  -13.2135   20.9908 C   0  0  0  0  0  0
  -25.2502  -13.8200   20.5700 C   0  0  0  0  0  0
  -24.1796  -13.0441   20.9210 C   0  0  0  0  0  0
  -24.6395  -11.6920   20.8755 C   0  0  0  0  0  0
  -23.9074  -10.4292   21.0408 C   0  0  0  0  0  0
  -24.3624   -9.4211   21.9190 C   0  0  0  0  0  0
  -23.6297   -8.2247   22.0762 C   0  0  0  0  0  0
  -22.4278   -8.0282   21.3553 C   0  0  0  0  0  0
  -21.9914   -9.0257   20.4655 C   0  0  0  0  0  0
  -22.7243  -10.2135   20.3061 C   0  0  0  0  0  0
  -21.6852   -6.0733   22.5279 C   0  0  0  0  0  0
  -21.4014   -6.5638   23.8212 C   0  0  0  0  0  0
  -21.3665   -5.6794   24.9175 C   0  0  0  0  0  0
  -21.6048   -4.3056   24.7229 C   0  0  0  0  0  0
  -21.8820   -3.8146   23.4348 C   0  0  0  0  0  0
  -21.9191   -4.6960   22.3402 C   0  0  0  0  0  0
  -22.7818  -13.5226   21.1869 C   0  0  0  0  0  0
  -22.1663   -4.2144   21.0981 F   0  0  0  0  0  0
  -21.5631   -3.4542   25.7741 F   0  0  0  0  0  0
  -29.9686  -13.6224   20.4119 N   0  0  0  0  0  0
  -26.2925  -12.9410   20.3270 N   0  0  0  0  0  0
  -25.9328  -11.6549   20.5746 N   0  0  0  0  0  0
  -22.0460  -12.8230   22.0429 N   0  0  0  0  0  0
  -25.4201  -15.1926   20.4134 N   0  0  0  0  0  0
  -31.7064  -15.0258   20.1029 O   0  0  0  0  0  0
  -21.6645   -6.8876   21.4240 O   0  0  0  0  0  0
  -22.3511  -14.5532   20.6706 O   0  0  0  0  0  0
  -24.6417  -31.8465   23.1901 C   0  0  0  0  0  0
  -25.9210  -32.4705   23.8271 C   0  0  1  0  0  0
  -27.2192  -27.1557   20.1521 C   0  0  0  0  0  0
  -25.5970  -33.8510   24.2204 N   0  0  0  0  0  0
  -23.4439  -30.4664   21.5347 C   0  0  2  0  0  0
  -24.8942  -28.8946   20.1130 C   0  0  0  0  0  0
  -22.7556  -29.4559   22.4866 C   0  0  0  0  0  0
  -18.0309  -28.1395   22.8479 C   0  0  0  0  0  0
  -24.1490  -36.7260   23.2638 C   0  0  0  0  0  0
  -25.9980  -30.7250   21.3879 C   0  0  0  0  0  0
  -26.0705  -29.3369   20.7328 C   0  0  0  0  0  0
  -27.2350  -28.4835   20.7355 C   0  0  0  0  0  0
  -26.0218  -26.8175   19.4843 C   0  0  0  0  0  0
  -24.8819  -27.6474   19.4723 C   0  0  0  0  0  0
  -23.6711  -29.7954   20.1540 C   0  0  0  0  0  0
  -25.4120  -36.3037   24.0315 C   0  0  1  0  0  0
  -20.5916  -28.3721   23.1253 C   0  0  2  0  0  0
  -20.6792  -26.9426   22.5412 C   0  0  0  0  0  0
  -19.5765  -26.6369   21.5221 C   0  0  0  0  0  0
  -18.1945  -26.7935   22.1615 C   0  0  0  0  0  0
  -19.1564  -28.8872   23.2858 C   0  0  0  0  0  0
  -18.9483  -30.1465   23.8886 C   0  0  0  0  0  0
  -17.6480  -30.6591   24.0566 C   0  0  0  0  0  0
  -25.9072  -34.9413   23.5068 C   0  0  0  0  0  0
  -16.5369  -29.9091   23.6333 C   0  0  0  0  0  0
  -16.7296  -28.6516   23.0345 C   0  0  0  0  0  0
  -26.4537  -31.6559   25.0706 C   0  0  0  0  0  0
  -25.3731  -31.3751   26.1412 C   0  0  0  0  0  0
  -27.0401  -30.2955   24.6276 C   0  0  0  0  0  0
  -27.6067  -32.4325   25.7500 C   0  0  0  0  0  0
  -27.5571  -37.1783   24.8465 C   0  0  0  0  0  0
  -21.4248  -29.3061   22.3632 N   0  0  0  0  0  0
  -26.4282  -37.3750   23.9412 N   0  0  0  0  0  0
  -24.7139  -31.0335   22.0929 N   0  0  0  0  0  0
  -23.4212  -28.8098   23.2999 O   0  0  0  0  0  0
  -28.2804  -26.1841   20.1878 O   0  0  0  0  0  0
  -26.5643  -34.8908   22.4636 O   0  0  0  0  0  0
  -23.5548  -32.1332   23.7142 O   0  0  0  0  0  0
  -29.3807  -19.7560   19.4698 C   0  0  0  0  0  0
  -29.1562  -19.7323   21.8120 C   0  0  0  0  0  0
  -29.6615  -18.3195   19.4822 C   0  0  0  0  0  0
  -29.4499  -18.3129   21.8479 C   0  0  0  0  0  0
  -29.0699  -20.5420   20.6320 C   0  0  0  0  0  0
  -29.6986  -17.5149   20.6795 C   0  0  0  0  0  0
  -29.8391  -17.6168   18.1493 C   0  0  0  0  0  0
  -29.4396  -17.6313   23.2053 C   0  0  0  0  0  0
  -27.0856  -21.8358   21.0840 C   0  0  0  0  0  0
  -28.9247  -23.3183   20.1620 C   0  0  0  0  0  0
  -27.9856  -24.6858   20.4677 C   0  0  0  0  0  0
  -29.6831  -15.9887   20.7468 N   0  0  0  0  0  0
  -28.4878  -21.9122   20.6758 N   0  0  0  0  0  0
  -31.4833  -12.7120   19.1912 H   0  0  0  0  0  0
  -30.4357  -11.5844   20.0038 H   0  0  0  0  0  0
  -29.8328  -11.7427   17.5667 H   0  0  0  0  0  0
  -29.6238  -13.4710   17.7116 H   0  0  0  0  0  0
  -27.9371  -11.2774   18.9528 H   0  0  0  0  0  0
  -27.3945  -12.4824   17.8146 H   0  0  0  0  0  0
  -27.6192  -14.2494   19.4460 H   0  0  0  0  0  0
  -28.7509  -12.2203   21.4370 H   0  0  0  0  0  0
  -28.3825  -13.8844   21.7981 H   0  0  0  0  0  0
  -25.2761   -9.5688   22.4778 H   0  0  0  0  0  0
  -24.0000   -7.4641   22.7489 H   0  0  0  0  0  0
  -21.0844   -8.8787   19.8967 H   0  0  0  0  0  0
  -22.3701  -10.9685   19.6183 H   0  0  0  0  0  0
  -21.2009   -7.6146   23.9713 H   0  0  0  0  0  0
  -21.1484   -6.0524   25.9078 H   0  0  0  0  0  0
  -22.0591   -2.7607   23.2856 H   0  0  0  0  0  0
  -22.4063  -11.9894   22.4828 H   0  0  0  0  0  0
  -21.1083  -13.1280   22.2631 H   0  0  0  0  0  0
  -24.6508  -15.8444   20.5228 H   0  0  0  0  0  0
  -26.2625  -15.6355   20.0702 H   0  0  0  0  0  0
  -26.7274  -32.5316   23.0994 H   0  0  0  0  0  0
  -25.0114  -33.9617   25.0351 H   0  0  0  0  0  0
  -22.7440  -31.2897   21.3805 H   0  0  0  0  0  0
  -23.3748  -35.9595   23.3292 H   0  0  0  0  0  0
  -24.3568  -36.8900   22.2052 H   0  0  0  0  0  0
  -23.7244  -37.6455   23.6676 H   0  0  0  0  0  0
  -26.1485  -31.4788   20.6139 H   0  0  0  0  0  0
  -26.8700  -30.7774   22.0279 H   0  0  0  0  0  0
  -28.1320  -28.8177   21.2373 H   0  0  0  0  0  0
  -25.9406  -25.8797   18.9572 H   0  0  0  0  0  0
  -23.9896  -27.3072   18.9644 H   0  0  0  0  0  0
  -23.8116  -30.5698   19.3985 H   0  0  0  0  0  0
  -22.7863  -29.2384   19.8409 H   0  0  0  0  0  0
  -25.1300  -36.1859   25.0803 H   0  0  0  0  0  0
  -20.9998  -28.3307   24.1377 H   0  0  0  0  0  0
  -20.5671  -26.2339   23.3634 H   0  0  0  0  0  0
  -21.6660  -26.7430   22.1215 H   0  0  0  0  0  0
  -19.6925  -25.6272   21.1273 H   0  0  0  0  0  0
  -19.6707  -27.3160   20.6729 H   0  0  0  0  0  0
  -17.4218  -26.6698   21.4007 H   0  0  0  0  0  0
  -18.0326  -26.0081   22.9010 H   0  0  0  0  0  0
  -19.7961  -30.7274   24.2253 H   0  0  0  0  0  0
  -17.5040  -31.6257   24.5201 H   0  0  0  0  0  0
  -15.5376  -30.2991   23.7661 H   0  0  0  0  0  0
  -15.8695  -28.0828   22.7076 H   0  0  0  0  0  0
  -24.5920  -30.7087   25.7734 H   0  0  0  0  0  0
  -24.8916  -32.2940   26.4770 H   0  0  0  0  0  0
  -25.8033  -30.8970   27.0223 H   0  0  0  0  0  0
  -26.3019  -29.6672   24.1283 H   0  0  0  0  0  0
  -27.4011  -29.7256   25.4844 H   0  0  0  0  0  0
  -27.8927  -30.4177   23.9595 H   0  0  0  0  0  0
  -27.2653  -33.3638   26.2031 H   0  0  0  0  0  0
  -28.3915  -32.6865   25.0363 H   0  0  0  0  0  0
  -28.0696  -31.8479   26.5460 H   0  0  0  0  0  0
  -28.2582  -38.0084   24.7499 H   0  0  0  0  0  0
  -28.1071  -36.2608   24.6303 H   0  0  0  0  0  0
  -27.2286  -37.1449   25.8868 H   0  0  0  0  0  0
  -20.9443  -29.8841   21.6868 H   0  0  0  0  0  0
  -26.0148  -38.2818   24.1411 H   0  0  0  0  0  0
  -29.3168  -20.2509   18.5114 H   0  0  0  0  0  0
  -28.9244  -20.2171   22.7505 H   0  0  0  0  0  0
  -29.8490  -18.3218   17.3178 H   0  0  0  0  0  0
  -29.0251  -16.9098   17.9856 H   0  0  0  0  0  0
  -30.7774  -17.0629   18.1325 H   0  0  0  0  0  0
  -29.5652  -18.3536   24.0121 H   0  0  0  0  0  0
  -30.2549  -16.9111   23.2871 H   0  0  0  0  0  0
  -28.4973  -17.1063   23.3633 H   0  0  0  0  0  0
  -26.8924  -22.4939   21.9323 H   0  0  0  0  0  0
  -26.7762  -20.8311   21.3803 H   0  0  0  0  0  0
  -26.4338  -22.1417   20.2639 H   0  0  0  0  0  0
  -29.9199  -23.5019   20.5682 H   0  0  0  0  0  0
  -29.0668  -23.2417   19.0832 H   0  0  0  0  0  0
  -27.7940  -24.6717   21.5403 H   0  0  0  0  0  0
  -27.0215  -24.4505   20.0275 H   0  0  0  0  0  0
  -28.8099  -15.6416   21.1131 H   0  0  0  0  0  0
  1 25  1  0  0  0
  1 30  2  0  0  0
  1 82  1  0  0  0
  2  3  1  0  0  0
  2 25  1  0  0  0
  2 84  1  0  0  0
  2 85  1  0  0  0
  3  4  1  0  0  0
  3 86  1  0  0  0
  3 87  1  0  0  0
  4  5  1  0  0  0
  4 88  1  0  0  0
  4 89  1  0  0  0
  5  6  1  0  0  0
  5 26  1  0  0  0
  5 90  1  0  0  0
  6 25  1  0  0  0
  6 91  1  0  0  0
  6 92  1  0  0  0
  7  8  2  0  0  0
  7 26  1  0  0  0
  7 29  1  0  0  0
  8  9  1  0  0  0
  8 22  1  0  0  0
  9 10  1  0  0  0
  9 27  2  0  0  0
 10 11  2  0  0  0
 10 15  1  0  0  0
 11 12  1  0  0  0
 11 93  1  0  0  0
 12 13  2  0  0  0
 12 94  1  0  0  0
 13 14  1  0  0  0
 13 31  1  0  0  0
 14 15  2  0  0  0
 14 95  1  0  0  0
 15 96  1  0  0  0
 16 17  2  0  0  0
 16 21  1  0  0  0
 16 31  1  0  0  0
 17 18  1  0  0  0
 17 97  1  0  0  0
 18 19  2  0  0  0
 18 98  1  0  0  0
 19 20  1  0  0  0
 19 24  1  0  0  0
 20 21  2  0  0  0
 20 99  1  0  0  0
 21 23  1  0  0  0
 22 28  1  0  0  0
 22 32  2  0  0  0
 26 27  1  0  0  0
 28100  1  0  0  0
 28101  1  0  0  0
 29102  1  0  0  0
 29103  1  0  0  0
 33 34  1  0  0  0
 33 66  1  0  0  0
 33 70  2  0  0  0
 34 36  1  0  0  0
 34 59  1  0  0  0
 34104  1  0  0  0
 35 44  2  0  0  0
 35 45  1  0  0  0
 35 68  1  0  0  0
 36 56  1  0  0  0
 36105  1  0  0  0
 37 39  1  0  0  0
 37 47  1  0  0  0
 37 66  1  0  0  0
 37106  1  0  0  0
 38 43  2  0  0  0
 38 46  1  0  0  0
 38 47  1  0  0  0
 39 64  1  0  0  0
 39 67  2  0  0  0
 40 52  1  0  0  0
 40 53  2  0  0  0
 40 58  1  0  0  0
 41107  1  0  0  0
 41108  1  0  0  0
 41109  1  0  0  0
 41 48  1  0  0  0
 42 43  1  0  0  0
 42 66  1  0  0  0
 42110  1  0  0  0
 42111  1  0  0  0
 43 44  1  0  0  0
 44112  1  0  0  0
 45 46  2  0  0  0
 45113  1  0  0  0
 46114  1  0  0  0
 47115  1  0  0  0
 47116  1  0  0  0
 48 56  1  0  0  0
 48 65  1  0  0  0
 48117  1  0  0  0
 49 50  1  0  0  0
 49 53  1  0  0  0
 49 64  1  0  0  0
 49118  1  0  0  0
 50 51  1  0  0  0
 50119  1  0  0  0
 50120  1  0  0  0
 51 52  1  0  0  0
 51121  1  0  0  0
 51122  1  0  0  0
 52123  1  0  0  0
 52124  1  0  0  0
 53 54  1  0  0  0
 54 55  2  0  0  0
 54125  1  0  0  0
 55 57  1  0  0  0
 55126  1  0  0  0
 56 69  2  0  0  0
 57 58  2  0  0  0
 57127  1  0  0  0
 58128  1  0  0  0
 59 60  1  0  0  0
 59 61  1  0  0  0
 59 62  1  0  0  0
 60129  1  0  0  0
 60130  1  0  0  0
 60131  1  0  0  0
 61132  1  0  0  0
 61133  1  0  0  0
 61134  1  0  0  0
 62135  1  0  0  0
 62136  1  0  0  0
 62137  1  0  0  0
 63 65  1  0  0  0
 63138  1  0  0  0
 63139  1  0  0  0
 63140  1  0  0  0
 64141  1  0  0  0
 65142  1  0  0  0
 68 81  1  0  0  0
 71 73  2  0  0  0
 71 75  1  0  0  0
 71143  1  0  0  0
 72 74  1  0  0  0
 72 75  2  0  0  0
 72144  1  0  0  0
 73 76  1  0  0  0
 73 77  1  0  0  0
 74 76  2  0  0  0
 74 78  1  0  0  0
 75 83  1  0  0  0
 76 82  1  0  0  0
 77145  1  0  0  0
 77146  1  0  0  0
 77147  1  0  0  0
 78148  1  0  0  0
 78149  1  0  0  0
 78150  1  0  0  0
 79 83  1  0  0  0
 79151  1  0  0  0
 79152  1  0  0  0
 79153  1  0  0  0
 80 81  1  0  0  0
 80 83  1  0  0  0
 80154  1  0  0  0
 80155  1  0  0  0
 81156  1  0  0  0
 81157  1  0  0  0
 82158  1  0  0  0
M  ISO  4   1 100  68 101  81 101  82 100
M  END
> <chiral flag>
0

> <version>
0

> <s_m_source_file>
/data/baiqing/PycharmProjects/Reinvent-master-3.2/result/LINK_invent/BTK/process_docking_weight1_custom_sum_contain_oxygen_bond_distance_aromatic_linkinvent_7_9_3/rearranged_h_0013.sdf

> <i_m_source_file_index>
71

> <r_mmod_Potential_Energy-OPLS-2005>
436.157867431641

> <r_mmod_Stretch_Energy-OPLS-2005>
211.839492797852

> <r_mmod_Bend_Energy-OPLS-2005>
257.324096679688

> <r_mmod_Torsional_Energy-OPLS-2005>
278.222259521484

> <r_mmod_Improper_Torsional_Energy-OPLS-2005>
7.32334566116333

> <r_mmod_Van_der_Waal_Energy-OPLS-2005>
134.159210205078

> <r_mmod_Electrostatic_Energy-OPLS-2005>
-392.381958007812

> <r_mmod_Solvation_Energy-OPLS-2005>
-224.421890258789

> <b_mmod_Minimization_Converged-OPLS-2005>
0

> <r_mmod_RMS_Derivative-OPLS-2005>
1.43441820144653

$$$$
71
                    3D
 Structure written by MMmdl.
150158  0  0  1  0            999 V2000
  -30.5221  -15.0527   20.4029 C   0  0  0  0  0  0
  -30.4364  -12.6592   19.5045 C   0  0  0  0  0  0
  -29.5218  -12.5400   18.2631 C   0  0  0  0  0  0
  -28.0600  -12.3085   18.6860 C   0  0  0  0  0  0
  -27.6207  -13.2585   19.8299 C   0  0  2  0  0  0
  -28.6627  -13.3435   20.9651 C   0  0  0  0  0  0
  -25.2423  -13.8229   20.5727 C   0  0  0  0  0  0
  -24.1758  -13.0439   20.9251 C   0  0  0  0  0  0
  -24.6392  -11.6929   20.8765 C   0  0  0  0  0  0
  -23.9083  -10.4294   21.0411 C   0  0  0  0  0  0
  -24.3629   -9.4206   21.9187 C   0  0  0  0  0  0
  -23.6300   -8.2243   22.0753 C   0  0  0  0  0  0
  -22.4283   -8.0283   21.3543 C   0  0  0  0  0  0
  -21.9924   -9.0257   20.4645 C   0  0  0  0  0  0
  -22.7255  -10.2135   20.3058 C   0  0  0  0  0  0
  -21.6855   -6.0737   22.5279 C   0  0  0  0  0  0
  -21.4016   -6.5640   23.8212 C   0  0  0  0  0  0
  -21.3660   -5.6792   24.9173 C   0  0  0  0  0  0
  -21.6043   -4.3055   24.7224 C   0  0  0  0  0  0
  -21.8819   -3.8148   23.4345 C   0  0  0  0  0  0
  -21.9194   -4.6965   22.3401 C   0  0  0  0  0  0
  -22.7777  -13.5199   21.1900 C   0  0  0  0  0  0
  -22.1662   -4.2150   21.0978 F   0  0  0  0  0  0
  -21.5629   -3.4538   25.7736 F   0  0  0  0  0  0
  -29.9226  -13.7831   20.3502 N   0  0  0  0  0  0
  -26.2846  -12.9479   20.3228 N   0  0  0  0  0  0
  -25.9326  -11.6600   20.5738 N   0  0  0  0  0  0
  -22.0433  -12.8179   22.0452 N   0  0  0  0  0  0
  -25.4065  -15.1961   20.4141 N   0  0  0  0  0  0
  -31.7405  -15.0547   20.1791 O   0  0  0  0  0  0
  -21.6643   -6.8882   21.4241 O   0  0  0  0  0  0
  -22.3460  -14.5503   20.6742 O   0  0  0  0  0  0
  -24.6503  -31.8380   23.1830 C   0  0  0  0  0  0
  -25.9244  -32.4663   23.8244 C   0  0  1  0  0  0
  -27.2107  -27.0594   20.1674 C   0  0  0  0  0  0
  -25.5967  -33.8472   24.2154 N   0  0  0  0  0  0
  -23.4579  -30.4556   21.5305 C   0  0  2  0  0  0
  -24.9082  -28.8700   20.1136 C   0  0  0  0  0  0
  -22.7608  -29.4514   22.4838 C   0  0  0  0  0  0
  -18.0312  -28.1404   22.8476 C   0  0  0  0  0  0
  -24.1493  -36.7239   23.2644 C   0  0  0  0  0  0
  -26.0195  -30.6873   21.3941 C   0  0  0  0  0  0
  -26.0891  -29.2904   20.7384 C   0  0  0  0  0  0
  -27.2416  -28.4040   20.7440 C   0  0  0  0  0  0
  -26.0051  -26.7653   19.4929 C   0  0  0  0  0  0
  -24.8836  -27.6236   19.4728 C   0  0  0  0  0  0
  -23.6893  -29.7823   20.1522 C   0  0  0  0  0  0
  -25.4128  -36.3013   24.0309 C   0  0  1  0  0  0
  -20.5930  -28.3734   23.1225 C   0  0  2  0  0  0
  -20.6797  -26.9432   22.5407 C   0  0  0  0  0  0
  -19.5769  -26.6385   21.5219 C   0  0  0  0  0  0
  -18.1948  -26.7941   22.1626 C   0  0  0  0  0  0
  -19.1570  -28.8888   23.2839 C   0  0  0  0  0  0
  -18.9484  -30.1482   23.8867 C   0  0  0  0  0  0
  -17.6478  -30.6597   24.0559 C   0  0  0  0  0  0
  -25.9086  -34.9391   23.5045 C   0  0  0  0  0  0
  -16.5369  -29.9087   23.6341 C   0  0  0  0  0  0
  -16.7295  -28.6508   23.0358 C   0  0  0  0  0  0
  -26.4537  -31.6554   25.0714 C   0  0  0  0  0  0
  -25.3696  -31.3764   26.1390 C   0  0  0  0  0  0
  -27.0414  -30.2940   24.6347 C   0  0  0  0  0  0
  -27.6055  -32.4334   25.7505 C   0  0  0  0  0  0
  -27.5573  -37.1775   24.8466 C   0  0  0  0  0  0
  -21.4292  -29.3047   22.3586 N   0  0  0  0  0  0
  -26.4286  -37.3734   23.9405 N   0  0  0  0  0  0
  -24.7296  -31.0166   22.0904 N   0  0  0  0  0  0
  -23.4217  -28.8067   23.3018 O   0  0  0  0  0  0
  -28.2362  -26.0205   20.2105 O   0  0  0  0  0  0
  -26.5682  -34.8902   22.4630 O   0  0  0  0  0  0
  -23.5603  -32.1289   23.7002 O   0  0  0  0  0  0
  -29.1838  -19.0042   20.4053 C   0  0  0  0  0  0
  -31.7814  -19.4096   20.8570 C   0  0  0  0  0  0
  -29.5762  -20.4652   20.5219 C   0  0  0  0  0  0
  -30.9655  -20.5636   20.8224 C   0  0  0  0  0  0
  -30.0925  -17.8022   20.5114 C   0  0  0  0  0  0
  -28.9126  -23.1631   20.1502 C   0  0  0  0  0  0
  -27.2911  -21.5164   20.9209 C   0  0  0  0  0  0
  -27.8812  -24.4801   20.4180 C   0  0  0  0  0  0
  -31.3860  -18.1231   20.7061 N   0  0  0  0  0  0
  -29.7528  -16.2796   20.4679 N   0  0  0  0  0  0
  -28.6735  -21.7638   20.5047 N   0  0  0  0  0  0
  -29.9260  -23.4530   19.5099 O   0  0  0  0  0  0
  -31.7417  -22.0357   21.2967 Cl  0  0  0  0  0  0
  -31.4660  -12.8249   19.1839 H   0  0  0  0  0  0
  -30.4500  -11.7256   20.0691 H   0  0  0  0  0  0
  -29.8594  -11.7270   17.6189 H   0  0  0  0  0  0
  -29.5912  -13.4521   17.6683 H   0  0  0  0  0  0
  -27.9750  -11.2726   19.0164 H   0  0  0  0  0  0
  -27.3940  -12.4098   17.8281 H   0  0  0  0  0  0
  -27.5643  -14.2473   19.3735 H   0  0  0  0  0  0
  -28.7779  -12.3841   21.4714 H   0  0  0  0  0  0
  -28.3436  -14.0596   21.7240 H   0  0  0  0  0  0
  -25.2774   -9.5680   22.4765 H   0  0  0  0  0  0
  -24.0008   -7.4633   22.7470 H   0  0  0  0  0  0
  -21.0857   -8.8778   19.8950 H   0  0  0  0  0  0
  -22.3714  -10.9675   19.6167 H   0  0  0  0  0  0
  -21.2009   -7.6148   23.9715 H   0  0  0  0  0  0
  -21.1482   -6.0522   25.9074 H   0  0  0  0  0  0
  -22.0599   -2.7610   23.2842 H   0  0  0  0  0  0
  -22.4063  -11.9842   22.4832 H   0  0  0  0  0  0
  -21.1045  -13.1185   22.2661 H   0  0  0  0  0  0
  -24.6317  -15.8420   20.5204 H   0  0  0  0  0  0
  -26.2360  -15.6360   20.0394 H   0  0  0  0  0  0
  -26.7310  -32.5245   23.0966 H   0  0  0  0  0  0
  -25.0076  -33.9574   25.0276 H   0  0  0  0  0  0
  -22.7641  -31.2834   21.3717 H   0  0  0  0  0  0
  -23.3764  -35.9561   23.3291 H   0  0  0  0  0  0
  -24.3573  -36.8894   22.2062 H   0  0  0  0  0  0
  -23.7241  -37.6425   23.6699 H   0  0  0  0  0  0
  -26.1839  -31.4361   20.6182 H   0  0  0  0  0  0
  -26.8862  -30.7408   22.0412 H   0  0  0  0  0  0
  -28.1401  -28.7222   21.2536 H   0  0  0  0  0  0
  -25.8952  -25.8250   18.9753 H   0  0  0  0  0  0
  -23.9869  -27.3003   18.9625 H   0  0  0  0  0  0
  -23.8343  -30.5556   19.3969 H   0  0  0  0  0  0
  -22.8018  -29.2307   19.8375 H   0  0  0  0  0  0
  -25.1317  -36.1832   25.0800 H   0  0  0  0  0  0
  -21.0011  -28.3332   24.1351 H   0  0  0  0  0  0
  -20.5701  -26.2344   23.3631 H   0  0  0  0  0  0
  -21.6659  -26.7440   22.1197 H   0  0  0  0  0  0
  -19.6930  -25.6291   21.1264 H   0  0  0  0  0  0
  -19.6707  -27.3180   20.6738 H   0  0  0  0  0  0
  -17.4218  -26.6687   21.4028 H   0  0  0  0  0  0
  -18.0343  -26.0092   22.9031 H   0  0  0  0  0  0
  -19.7958  -30.7307   24.2219 H   0  0  0  0  0  0
  -17.5031  -31.6274   24.5167 H   0  0  0  0  0  0
  -15.5367  -30.2976   23.7686 H   0  0  0  0  0  0
  -15.8696  -28.0816   22.7089 H   0  0  0  0  0  0
  -24.5897  -30.7091   25.7702 H   0  0  0  0  0  0
  -24.8860  -32.2952   26.4723 H   0  0  0  0  0  0
  -25.7956  -30.9000   27.0228 H   0  0  0  0  0  0
  -26.3051  -29.6650   24.1334 H   0  0  0  0  0  0
  -27.3982  -29.7262   25.4949 H   0  0  0  0  0  0
  -27.8978  -30.4158   23.9711 H   0  0  0  0  0  0
  -27.2643  -33.3667   26.1994 H   0  0  0  0  0  0
  -28.3911  -32.6840   25.0364 H   0  0  0  0  0  0
  -28.0671  -31.8517   26.5495 H   0  0  0  0  0  0
  -28.2575  -38.0085   24.7514 H   0  0  0  0  0  0
  -28.1084  -36.2613   24.6292 H   0  0  0  0  0  0
  -27.2290  -37.1418   25.8869 H   0  0  0  0  0  0
  -20.9518  -29.8747   21.6741 H   0  0  0  0  0  0
  -26.0148  -38.2797   24.1418 H   0  0  0  0  0  0
  -28.1381  -18.7941   20.2360 H   0  0  0  0  0  0
  -32.8321  -19.5226   21.0803 H   0  0  0  0  0  0
  -26.9841  -22.1900   21.7214 H   0  0  0  0  0  0
  -27.1484  -20.5103   21.3126 H   0  0  0  0  0  0
  -26.6065  -21.6411   20.0809 H   0  0  0  0  0  0
  -26.9960  -24.2445   19.8326 H   0  0  0  0  0  0
  -27.5598  -24.4039   21.4563 H   0  0  0  0  0  0
  -28.7633  -16.0969   20.5069 H   0  0  0  0  0  0
  1 25  1  0  0  0
  1 30  2  0  0  0
  1 80  1  0  0  0
  2  3  1  0  0  0
  2 25  1  0  0  0
  2 84  1  0  0  0
  2 85  1  0  0  0
  3  4  1  0  0  0
  3 86  1  0  0  0
  3 87  1  0  0  0
  4  5  1  0  0  0
  4 88  1  0  0  0
  4 89  1  0  0  0
  5  6  1  0  0  0
  5 26  1  0  0  0
  5 90  1  0  0  0
  6 25  1  0  0  0
  6 91  1  0  0  0
  6 92  1  0  0  0
  7  8  2  0  0  0
  7 26  1  0  0  0
  7 29  1  0  0  0
  8  9  1  0  0  0
  8 22  1  0  0  0
  9 10  1  0  0  0
  9 27  2  0  0  0
 10 11  2  0  0  0
 10 15  1  0  0  0
 11 12  1  0  0  0
 11 93  1  0  0  0
 12 13  2  0  0  0
 12 94  1  0  0  0
 13 14  1  0  0  0
 13 31  1  0  0  0
 14 15  2  0  0  0
 14 95  1  0  0  0
 15 96  1  0  0  0
 16 17  2  0  0  0
 16 21  1  0  0  0
 16 31  1  0  0  0
 17 18  1  0  0  0
 17 97  1  0  0  0
 18 19  2  0  0  0
 18 98  1  0  0  0
 19 20  1  0  0  0
 19 24  1  0  0  0
 20 21  2  0  0  0
 20 99  1  0  0  0
 21 23  1  0  0  0
 22 28  1  0  0  0
 22 32  2  0  0  0
 26 27  1  0  0  0
 28100  1  0  0  0
 28101  1  0  0  0
 29102  1  0  0  0
 29103  1  0  0  0
 33 34  1  0  0  0
 33 66  1  0  0  0
 33 70  2  0  0  0
 34 36  1  0  0  0
 34 59  1  0  0  0
 34104  1  0  0  0
 35 44  2  0  0  0
 35 45  1  0  0  0
 35 68  1  0  0  0
 36 56  1  0  0  0
 36105  1  0  0  0
 37 39  1  0  0  0
 37 47  1  0  0  0
 37 66  1  0  0  0
 37106  1  0  0  0
 38 43  2  0  0  0
 38 46  1  0  0  0
 38 47  1  0  0  0
 39 64  1  0  0  0
 39 67  2  0  0  0
 40 52  1  0  0  0
 40 53  2  0  0  0
 40 58  1  0  0  0
 41107  1  0  0  0
 41108  1  0  0  0
 41109  1  0  0  0
 41 48  1  0  0  0
 42 43  1  0  0  0
 42 66  1  0  0  0
 42110  1  0  0  0
 42111  1  0  0  0
 43 44  1  0  0  0
 44112  1  0  0  0
 45 46  2  0  0  0
 45113  1  0  0  0
 46114  1  0  0  0
 47115  1  0  0  0
 47116  1  0  0  0
 48 56  1  0  0  0
 48 65  1  0  0  0
 48117  1  0  0  0
 49 50  1  0  0  0
 49 53  1  0  0  0
 49 64  1  0  0  0
 49118  1  0  0  0
 50 51  1  0  0  0
 50119  1  0  0  0
 50120  1  0  0  0
 51 52  1  0  0  0
 51121  1  0  0  0
 51122  1  0  0  0
 52123  1  0  0  0
 52124  1  0  0  0
 53 54  1  0  0  0
 54 55  2  0  0  0
 54125  1  0  0  0
 55 57  1  0  0  0
 55126  1  0  0  0
 56 69  2  0  0  0
 57 58  2  0  0  0
 57127  1  0  0  0
 58128  1  0  0  0
 59 60  1  0  0  0
 59 61  1  0  0  0
 59 62  1  0  0  0
 60129  1  0  0  0
 60130  1  0  0  0
 60131  1  0  0  0
 61132  1  0  0  0
 61133  1  0  0  0
 61134  1  0  0  0
 62135  1  0  0  0
 62136  1  0  0  0
 62137  1  0  0  0
 63 65  1  0  0  0
 63138  1  0  0  0
 63139  1  0  0  0
 63140  1  0  0  0
 64141  1  0  0  0
 65142  1  0  0  0
 68 78  1  0  0  0
 71 73  2  0  0  0
 71 75  1  0  0  0
 71143  1  0  0  0
 72 74  2  0  0  0
 72 79  1  0  0  0
 72144  1  0  0  0
 73 74  1  0  0  0
 73 81  1  0  0  0
 74 83  1  0  0  0
 75 79  2  0  0  0
 75 80  1  0  0  0
 76 78  1  0  0  0
 76 81  1  0  0  0
 76 82  2  0  0  0
 77 81  1  0  0  0
 77145  1  0  0  0
 77146  1  0  0  0
 77147  1  0  0  0
 78148  1  0  0  0
 78149  1  0  0  0
 80150  1  0  0  0
M  ISO  4   1 100  68 101  78 101  80 100
M  END
> <chiral flag>
0

> <version>
0

> <s_m_source_file>
/data/baiqing/PycharmProjects/Reinvent-master-3.2/result/LINK_invent/BTK/process_docking_weight1_custom_sum_contain_oxygen_bond_distance_aromatic_linkinvent_7_9_3/rearranged_h_0013.sdf

> <i_m_source_file_index>
72

> <r_mmod_Potential_Energy-OPLS-2005>
643.49658203125

> <r_mmod_Stretch_Energy-OPLS-2005>
359.847839355469

> <r_mmod_Bend_Energy-OPLS-2005>
286.49169921875

> <r_mmod_Torsional_Energy-OPLS-2005>
254.544464111328

> <r_mmod_Improper_Torsional_Energy-OPLS-2005>
6.66618824005127

> <r_mmod_Van_der_Waal_Energy-OPLS-2005>
145.146850585938

> <r_mmod_Electrostatic_Energy-OPLS-2005>
-410.667602539062

> <r_mmod_Solvation_Energy-OPLS-2005>
-267.386810302734

> <b_mmod_Minimization_Converged-OPLS-2005>
0

> <r_mmod_RMS_Derivative-OPLS-2005>
0.482982516288757

$$$$
72
                    3D
 Structure written by MMmdl.
155163  0  0  1  0            999 V2000
  -30.7323  -14.3897   20.6316 C   0  0  0  0  0  0
  -30.4228  -12.2793   19.3979 C   0  0  0  0  0  0
  -29.4888  -12.5092   18.1935 C   0  0  0  0  0  0
  -28.0101  -12.3773   18.6110 C   0  0  0  0  0  0
  -27.6674  -13.1998   19.8824 C   0  0  2  0  0  0
  -28.7061  -12.9343   20.9945 C   0  0  0  0  0  0
  -25.2614  -13.8153   20.5680 C   0  0  0  0  0  0
  -24.1852  -13.0441   20.9162 C   0  0  0  0  0  0
  -24.6388  -11.6901   20.8736 C   0  0  0  0  0  0
  -23.9047  -10.4292   21.0397 C   0  0  0  0  0  0
  -24.3605   -9.4206   21.9173 C   0  0  0  0  0  0
  -23.6294   -8.2233   22.0741 C   0  0  0  0  0  0
  -22.4272   -8.0275   21.3529 C   0  0  0  0  0  0
  -21.9901   -9.0246   20.4643 C   0  0  0  0  0  0
  -22.7218  -10.2132   20.3048 C   0  0  0  0  0  0
  -21.6860   -6.0729   22.5269 C   0  0  0  0  0  0
  -21.4015   -6.5629   23.8199 C   0  0  0  0  0  0
  -21.3658   -5.6771   24.9167 C   0  0  0  0  0  0
  -21.6040   -4.3037   24.7205 C   0  0  0  0  0  0
  -21.8828   -3.8130   23.4326 C   0  0  0  0  0  0
  -21.9198   -4.6955   22.3392 C   0  0  0  0  0  0
  -22.7881  -13.5248   21.1822 C   0  0  0  0  0  0
  -22.1668   -4.2145   21.0967 F   0  0  0  0  0  0
  -21.5629   -3.4510   25.7720 F   0  0  0  0  0  0
  -30.0450  -13.2333   20.4504 N   0  0  0  0  0  0
  -26.3053  -12.9307   20.3390 N   0  0  0  0  0  0
  -25.9310  -11.6470   20.5776 N   0  0  0  0  0  0
  -22.0518  -12.8259   22.0402 N   0  0  0  0  0  0
  -25.4368  -15.1877   20.4112 N   0  0  0  0  0  0
  -31.8065  -14.6317   20.0712 O   0  0  0  0  0  0
  -21.6637   -6.8867   21.4229 O   0  0  0  0  0  0
  -22.3562  -14.5558   20.6679 O   0  0  0  0  0  0
  -24.6119  -31.8683   23.2085 C   0  0  0  0  0  0
  -25.9024  -32.4813   23.8380 C   0  0  1  0  0  0
  -27.2561  -27.4683   20.0713 C   0  0  0  0  0  0
  -25.5901  -33.8611   24.2322 N   0  0  0  0  0  0
  -23.3988  -30.4901   21.5467 C   0  0  2  0  0  0
  -24.8468  -28.9519   20.1148 C   0  0  0  0  0  0
  -22.7397  -29.4665   22.4984 C   0  0  0  0  0  0
  -18.0271  -28.1384   22.8494 C   0  0  0  0  0  0
  -24.1485  -36.7312   23.2641 C   0  0  0  0  0  0
  -25.9233  -30.8404   21.3559 C   0  0  0  0  0  0
  -26.0018  -29.4738   20.7087 C   0  0  0  0  0  0
  -27.2020  -28.7346   20.6916 C   0  0  0  0  0  0
  -26.0759  -26.9453   19.4896 C   0  0  0  0  0  0
  -24.8757  -27.6833   19.5100 C   0  0  0  0  0  0
  -23.6061  -29.8141   20.1636 C   0  0  0  0  0  0
  -25.4098  -36.3105   24.0354 C   0  0  1  0  0  0
  -20.5864  -28.3662   23.1336 C   0  0  2  0  0  0
  -20.6745  -26.9394   22.5449 C   0  0  0  0  0  0
  -19.5746  -26.6390   21.5216 C   0  0  0  0  0  0
  -18.1913  -26.7945   22.1597 C   0  0  0  0  0  0
  -19.1518  -28.8835   23.2919 C   0  0  0  0  0  0
  -18.9446  -30.1431   23.8936 C   0  0  0  0  0  0
  -17.6450  -30.6589   24.0566 C   0  0  0  0  0  0
  -25.9033  -34.9474   23.5132 C   0  0  0  0  0  0
  -16.5340  -29.9102   23.6325 C   0  0  0  0  0  0
  -16.7261  -28.6517   23.0348 C   0  0  0  0  0  0
  -26.4480  -31.6593   25.0699 C   0  0  0  0  0  0
  -25.3785  -31.3782   26.1506 C   0  0  0  0  0  0
  -27.0229  -30.3001   24.6074 C   0  0  0  0  0  0
  -27.6123  -32.4288   25.7387 C   0  0  0  0  0  0
  -27.5599  -37.1764   24.8452 C   0  0  0  0  0  0
  -21.4129  -29.3028   22.3731 N   0  0  0  0  0  0
  -26.4279  -37.3798   23.9453 N   0  0  0  0  0  0
  -24.6630  -31.0812   22.0961 N   0  0  0  0  0  0
  -23.4180  -28.8219   23.3027 O   0  0  0  0  0  0
  -28.4747  -26.8221   20.0606 O   0  0  0  0  0  0
  -26.5580  -34.8931   22.4682 O   0  0  0  0  0  0
  -23.5327  -32.1414   23.7505 O   0  0  0  0  0  0
  -31.1765  -19.3842   21.6080 C   0  0  0  0  0  0
  -29.9094  -19.0007   21.1059 C   0  0  0  0  0  0
  -30.4897  -16.6514   21.4977 C   0  0  0  0  0  0
  -32.0875  -18.4107   22.0579 C   0  0  0  0  0  0
  -29.5661  -17.6305   21.0725 C   0  0  0  0  0  0
  -31.7476  -17.0455   22.0100 C   0  0  0  0  0  0
  -29.1373  -21.1417   20.0988 C   0  0  0  0  0  0
  -28.3385  -24.3875   19.9811 C   0  0  0  0  0  0
  -27.8755  -21.9499   19.7652 C   0  0  0  0  0  0
  -28.6802  -25.6805   19.2256 C   0  0  0  0  0  0
  -28.9368  -19.9430   20.6692 N   0  0  0  0  0  0
  -30.1249  -15.2868   21.4151 N   0  0  0  0  0  0
  -28.1768  -23.2841   19.2415 N   0  0  0  0  0  0
  -30.2557  -21.5832   19.8123 O   0  0  0  0  0  0
  -28.2193  -24.3824   21.2096 O   0  0  0  0  0  0
  -33.2930  -18.7919   22.5453 F   0  0  0  0  0  0
  -28.3492  -17.2505   20.6040 F   0  0  0  0  0  0
  -32.6242  -16.1220   22.4755 F   0  0  0  0  0  0
  -31.4650  -12.3832   19.0913 H   0  0  0  0  0  0
  -30.3251  -11.2579   19.7690 H   0  0  0  0  0  0
  -29.7200  -11.7991   17.3972 H   0  0  0  0  0  0
  -29.6643  -13.5013   17.7764 H   0  0  0  0  0  0
  -27.8096  -11.3200   18.7899 H   0  0  0  0  0  0
  -27.3596  -12.6732   17.7863 H   0  0  0  0  0  0
  -27.7272  -14.2551   19.6129 H   0  0  0  0  0  0
  -28.6684  -11.8874   21.3012 H   0  0  0  0  0  0
  -28.4634  -13.5005   21.8945 H   0  0  0  0  0  0
  -25.2755   -9.5683   22.4730 H   0  0  0  0  0  0
  -24.0008   -7.4618   22.7446 H   0  0  0  0  0  0
  -21.0827   -8.8760   19.8956 H   0  0  0  0  0  0
  -22.3674  -10.9666   19.6148 H   0  0  0  0  0  0
  -21.2007   -7.6136   23.9708 H   0  0  0  0  0  0
  -21.1472   -6.0496   25.9071 H   0  0  0  0  0  0
  -22.0613   -2.7595   23.2806 H   0  0  0  0  0  0
  -22.4135  -11.9929   22.4813 H   0  0  0  0  0  0
  -21.1140  -13.1291   22.2592 H   0  0  0  0  0  0
  -24.6757  -15.8467   20.5325 H   0  0  0  0  0  0
  -26.3037  -15.6327   20.1363 H   0  0  0  0  0  0
  -26.7093  -32.5522   23.1150 H   0  0  0  0  0  0
  -25.0109  -33.9774   25.0505 H   0  0  0  0  0  0
  -22.6861  -31.3049   21.4033 H   0  0  0  0  0  0
  -23.3771  -35.9614   23.3244 H   0  0  0  0  0  0
  -24.3625  -36.8963   22.2072 H   0  0  0  0  0  0
  -23.7189  -37.6489   23.6671 H   0  0  0  0  0  0
  -26.0293  -31.6028   20.5825 H   0  0  0  0  0  0
  -26.8150  -30.8979   21.9691 H   0  0  0  0  0  0
  -28.0980  -29.1427   21.1378 H   0  0  0  0  0  0
  -26.0601  -25.9740   19.0175 H   0  0  0  0  0  0
  -23.9859  -27.2719   19.0535 H   0  0  0  0  0  0
  -23.7071  -30.5816   19.3959 H   0  0  0  0  0  0
  -22.7333  -29.2257   19.8738 H   0  0  0  0  0  0
  -25.1267  -36.1958   25.0848 H   0  0  0  0  0  0
  -20.9967  -28.3215   24.1451 H   0  0  0  0  0  0
  -20.5590  -26.2285   23.3644 H   0  0  0  0  0  0
  -21.6616  -26.7401   22.1260 H   0  0  0  0  0  0
  -19.6902  -25.6301   21.1237 H   0  0  0  0  0  0
  -19.6727  -27.3205   20.6752 H   0  0  0  0  0  0
  -17.4211  -26.6738   21.3957 H   0  0  0  0  0  0
  -18.0269  -26.0069   22.8966 H   0  0  0  0  0  0
  -19.7924  -30.7224   24.2338 H   0  0  0  0  0  0
  -17.5013  -31.6271   24.5165 H   0  0  0  0  0  0
  -15.5345  -30.3010   23.7645 H   0  0  0  0  0  0
  -15.8652  -28.0843   22.7054 H   0  0  0  0  0  0
  -24.5902  -30.7169   25.7908 H   0  0  0  0  0  0
  -24.9057  -32.2975   26.4965 H   0  0  0  0  0  0
  -25.8153  -30.8959   27.0254 H   0  0  0  0  0  0
  -26.2691  -29.6755   24.1264 H   0  0  0  0  0  0
  -27.4108  -29.7281   25.4510 H   0  0  0  0  0  0
  -27.8514  -30.4277   23.9110 H   0  0  0  0  0  0
  -27.2828  -33.3638   26.1940 H   0  0  0  0  0  0
  -28.3911  -32.6737   25.0146 H   0  0  0  0  0  0
  -28.0807  -31.8403   26.5286 H   0  0  0  0  0  0
  -28.2591  -38.0087   24.7536 H   0  0  0  0  0  0
  -28.1113  -36.2625   24.6181 H   0  0  0  0  0  0
  -27.2363  -37.1291   25.8864 H   0  0  0  0  0  0
  -20.9295  -29.8769   21.6967 H   0  0  0  0  0  0
  -26.0176  -38.2870   24.1504 H   0  0  0  0  0  0
  -31.4634  -20.4230   21.6733 H   0  0  0  0  0  0
  -27.2452  -22.0187   20.6529 H   0  0  0  0  0  0
  -27.2959  -21.4104   19.0171 H   0  0  0  0  0  0
  -28.1471  -25.7532   18.2766 H   0  0  0  0  0  0
  -29.7390  -25.6474   18.9663 H   0  0  0  0  0  0
  -27.9750  -19.6317   20.7247 H   0  0  0  0  0  0
  -29.1891  -15.0475   21.7043 H   0  0  0  0  0  0
  -28.3373  -23.3564   18.2452 H   0  0  0  0  0  0
  1 25  1  0  0  0
  1 30  2  0  0  0
  1 82  1  0  0  0
  2  3  1  0  0  0
  2 25  1  0  0  0
  2 89  1  0  0  0
  2 90  1  0  0  0
  3  4  1  0  0  0
  3 91  1  0  0  0
  3 92  1  0  0  0
  4  5  1  0  0  0
  4 93  1  0  0  0
  4 94  1  0  0  0
  5  6  1  0  0  0
  5 26  1  0  0  0
  5 95  1  0  0  0
  6 25  1  0  0  0
  6 96  1  0  0  0
  6 97  1  0  0  0
  7  8  2  0  0  0
  7 26  1  0  0  0
  7 29  1  0  0  0
  8  9  1  0  0  0
  8 22  1  0  0  0
  9 10  1  0  0  0
  9 27  2  0  0  0
 10 11  2  0  0  0
 10 15  1  0  0  0
 11 12  1  0  0  0
 11 98  1  0  0  0
 12 13  2  0  0  0
 12 99  1  0  0  0
 13 14  1  0  0  0
 13 31  1  0  0  0
 14 15  2  0  0  0
 14100  1  0  0  0
 15101  1  0  0  0
 16 17  2  0  0  0
 16 21  1  0  0  0
 16 31  1  0  0  0
 17 18  1  0  0  0
 17102  1  0  0  0
 18 19  2  0  0  0
 18103  1  0  0  0
 19 20  1  0  0  0
 19 24  1  0  0  0
 20 21  2  0  0  0
 20104  1  0  0  0
 21 23  1  0  0  0
 22 28  1  0  0  0
 22 32  2  0  0  0
 26 27  1  0  0  0
 28105  1  0  0  0
 28106  1  0  0  0
 29107  1  0  0  0
 29108  1  0  0  0
 33 34  1  0  0  0
 33 66  1  0  0  0
 33 70  2  0  0  0
 34 36  1  0  0  0
 34 59  1  0  0  0
 34109  1  0  0  0
 35 44  2  0  0  0
 35 45  1  0  0  0
 35 68  1  0  0  0
 36 56  1  0  0  0
 36110  1  0  0  0
 37 39  1  0  0  0
 37 47  1  0  0  0
 37 66  1  0  0  0
 37111  1  0  0  0
 38 43  2  0  0  0
 38 46  1  0  0  0
 38 47  1  0  0  0
 39 64  1  0  0  0
 39 67  2  0  0  0
 40 52  1  0  0  0
 40 53  2  0  0  0
 40 58  1  0  0  0
 41112  1  0  0  0
 41113  1  0  0  0
 41114  1  0  0  0
 41 48  1  0  0  0
 42 43  1  0  0  0
 42 66  1  0  0  0
 42115  1  0  0  0
 42116  1  0  0  0
 43 44  1  0  0  0
 44117  1  0  0  0
 45 46  2  0  0  0
 45118  1  0  0  0
 46119  1  0  0  0
 47120  1  0  0  0
 47121  1  0  0  0
 48 56  1  0  0  0
 48 65  1  0  0  0
 48122  1  0  0  0
 49 50  1  0  0  0
 49 53  1  0  0  0
 49 64  1  0  0  0
 49123  1  0  0  0
 50 51  1  0  0  0
 50124  1  0  0  0
 50125  1  0  0  0
 51 52  1  0  0  0
 51126  1  0  0  0
 51127  1  0  0  0
 52128  1  0  0  0
 52129  1  0  0  0
 53 54  1  0  0  0
 54 55  2  0  0  0
 54130  1  0  0  0
 55 57  1  0  0  0
 55131  1  0  0  0
 56 69  2  0  0  0
 57 58  2  0  0  0
 57132  1  0  0  0
 58133  1  0  0  0
 59 60  1  0  0  0
 59 61  1  0  0  0
 59 62  1  0  0  0
 60134  1  0  0  0
 60135  1  0  0  0
 60136  1  0  0  0
 61137  1  0  0  0
 61138  1  0  0  0
 61139  1  0  0  0
 62140  1  0  0  0
 62141  1  0  0  0
 62142  1  0  0  0
 63 65  1  0  0  0
 63143  1  0  0  0
 63144  1  0  0  0
 63145  1  0  0  0
 64146  1  0  0  0
 65147  1  0  0  0
 68 80  1  0  0  0
 71 72  2  0  0  0
 71 74  1  0  0  0
 71148  1  0  0  0
 72 75  1  0  0  0
 72 81  1  0  0  0
 73 75  2  0  0  0
 73 76  1  0  0  0
 73 82  1  0  0  0
 74 76  2  0  0  0
 74 86  1  0  0  0
 75 87  1  0  0  0
 76 88  1  0  0  0
 77 79  1  0  0  0
 77 81  1  0  0  0
 77 84  2  0  0  0
 78 80  1  0  0  0
 78 83  1  0  0  0
 78 85  2  0  0  0
 79 83  1  0  0  0
 79149  1  0  0  0
 79150  1  0  0  0
 80151  1  0  0  0
 80152  1  0  0  0
 81153  1  0  0  0
 82154  1  0  0  0
 83155  1  0  0  0
M  ISO  4   1 100  68 101  80 101  82 100
M  END
> <chiral flag>
0

> <version>
0

> <s_m_source_file>
/data/baiqing/PycharmProjects/Reinvent-master-3.2/result/LINK_invent/BTK/process_docking_weight1_custom_sum_contain_oxygen_bond_distance_aromatic_linkinvent_7_9_3/rearranged_h_0013.sdf

> <i_m_source_file_index>
73

> <r_mmod_Potential_Energy-OPLS-2005>
-262.926727294922

> <r_mmod_Stretch_Energy-OPLS-2005>
33.5689735412598

> <r_mmod_Bend_Energy-OPLS-2005>
98.0532379150391

> <r_mmod_Torsional_Energy-OPLS-2005>
218.463424682617

> <r_mmod_Improper_Torsional_Energy-OPLS-2005>
3.44465208053589

> <r_mmod_Van_der_Waal_Energy-OPLS-2005>
164.324768066406

> <r_mmod_Electrostatic_Energy-OPLS-2005>
-521.529541015625

> <r_mmod_Solvation_Energy-OPLS-2005>
-268.130737304688

> <b_mmod_Minimization_Converged-OPLS-2005>
0

> <r_mmod_RMS_Derivative-OPLS-2005>
2.51739549636841

$$$$
73
                    3D
 Structure written by MMmdl.
151159  0  0  1  0            999 V2000
  -30.6152  -14.6427   20.4949 C   0  0  0  0  0  0
  -30.4401  -12.3929   19.4526 C   0  0  0  0  0  0
  -29.5095  -12.5094   18.2244 C   0  0  0  0  0  0
  -28.0314  -12.3498   18.6341 C   0  0  0  0  0  0
  -27.6555  -13.2170   19.8648 C   0  0  2  0  0  0
  -28.6997  -13.0665   20.9943 C   0  0  0  0  0  0
  -25.2571  -13.8170   20.5674 C   0  0  0  0  0  0
  -24.1839  -13.0438   20.9194 C   0  0  0  0  0  0
  -24.6405  -11.6908   20.8743 C   0  0  0  0  0  0
  -23.9068  -10.4294   21.0411 C   0  0  0  0  0  0
  -24.3618   -9.4209   21.9190 C   0  0  0  0  0  0
  -23.6296   -8.2242   22.0754 C   0  0  0  0  0  0
  -22.4277   -8.0282   21.3544 C   0  0  0  0  0  0
  -21.9912   -9.0257   20.4645 C   0  0  0  0  0  0
  -22.7240  -10.2137   20.3059 C   0  0  0  0  0  0
  -21.6855   -6.0739   22.5281 C   0  0  0  0  0  0
  -21.4012   -6.5641   23.8214 C   0  0  0  0  0  0
  -21.3657   -5.6793   24.9177 C   0  0  0  0  0  0
  -21.6045   -4.3058   24.7228 C   0  0  0  0  0  0
  -21.8818   -3.8148   23.4348 C   0  0  0  0  0  0
  -21.9194   -4.6965   22.3406 C   0  0  0  0  0  0
  -22.7858  -13.5236   21.1854 C   0  0  0  0  0  0
  -22.1665   -4.2150   21.0984 F   0  0  0  0  0  0
  -21.5628   -3.4540   25.7742 F   0  0  0  0  0  0
  -30.0155  -13.4116   20.4334 N   0  0  0  0  0  0
  -26.3005  -12.9352   20.3327 N   0  0  0  0  0  0
  -25.9337  -11.6506   20.5757 N   0  0  0  0  0  0
  -22.0499  -12.8227   22.0405 N   0  0  0  0  0  0
  -25.4278  -15.1885   20.4058 N   0  0  0  0  0  0
  -31.7756  -14.8107   20.1105 O   0  0  0  0  0  0
  -21.6641   -6.8880   21.4242 O   0  0  0  0  0  0
  -22.3545  -14.5549   20.6710 O   0  0  0  0  0  0
  -24.6273  -31.8598   23.2025 C   0  0  0  0  0  0
  -25.9117  -32.4777   23.8359 C   0  0  1  0  0  0
  -27.2217  -27.3135   20.1101 C   0  0  0  0  0  0
  -25.5932  -33.8578   24.2289 N   0  0  0  0  0  0
  -23.4213  -30.4850   21.5459 C   0  0  2  0  0  0
  -24.8667  -28.9431   20.1099 C   0  0  0  0  0  0
  -22.7484  -29.4620   22.4927 C   0  0  0  0  0  0
  -18.0292  -28.1390   22.8496 C   0  0  0  0  0  0
  -24.1489  -36.7286   23.2638 C   0  0  0  0  0  0
  -25.9643  -30.7889   21.3753 C   0  0  0  0  0  0
  -26.0376  -29.4171   20.7148 C   0  0  0  0  0  0
  -27.2183  -28.6143   20.7054 C   0  0  0  0  0  0
  -26.0252  -26.8986   19.4781 C   0  0  0  0  0  0
  -24.8630  -27.6899   19.4830 C   0  0  0  0  0  0
  -23.6357  -29.8229   20.1604 C   0  0  0  0  0  0
  -25.4113  -36.3081   24.0333 C   0  0  1  0  0  0
  -20.5898  -28.3690   23.1281 C   0  0  2  0  0  0
  -20.6776  -26.9412   22.5406 C   0  0  0  0  0  0
  -19.5743  -26.6392   21.5217 C   0  0  0  0  0  0
  -18.1930  -26.7933   22.1635 C   0  0  0  0  0  0
  -19.1549  -28.8856   23.2886 C   0  0  0  0  0  0
  -18.9462  -30.1462   23.8898 C   0  0  0  0  0  0
  -17.6460  -30.6589   24.0565 C   0  0  0  0  0  0
  -25.9046  -34.9450   23.5105 C   0  0  0  0  0  0
  -16.5353  -29.9086   23.6334 C   0  0  0  0  0  0
  -16.7278  -28.6502   23.0357 C   0  0  0  0  0  0
  -26.4488  -31.6590   25.0733 C   0  0  0  0  0  0
  -25.3716  -31.3746   26.1460 C   0  0  0  0  0  0
  -27.0319  -30.3004   24.6198 C   0  0  0  0  0  0
  -27.6056  -32.4314   25.7500 C   0  0  0  0  0  0
  -27.5583  -37.1802   24.8465 C   0  0  0  0  0  0
  -21.4197  -29.3043   22.3673 N   0  0  0  0  0  0
  -26.4290  -37.3777   23.9413 N   0  0  0  0  0  0
  -24.6899  -31.0612   22.0979 N   0  0  0  0  0  0
  -23.4207  -28.8154   23.3002 O   0  0  0  0  0  0
  -28.3327  -26.4515   20.1618 O   0  0  0  0  0  0
  -26.5615  -34.8912   22.4672 O   0  0  0  0  0  0
  -23.5430  -32.1396   23.7348 O   0  0  0  0  0  0
  -29.5603  -19.3967   21.7209 C   0  0  0  0  0  0
  -30.2164  -19.2382   19.4183 C   0  0  0  0  0  0
  -29.9124  -20.0756   20.5269 C   0  0  0  0  0  0
  -29.9119  -17.1342   20.7213 C   0  0  0  0  0  0
  -29.5539  -17.9725   21.8156 C   0  0  0  0  0  0
  -30.2079  -17.8101   19.4982 C   0  0  0  0  0  0
  -29.2528  -24.0104   20.3459 C   0  0  0  0  0  0
  -30.1688  -21.6301   20.4977 C   0  0  0  0  0  0
  -28.0865  -24.9986   19.9536 C   0  0  0  0  0  0
  -29.8082  -15.6789   20.8764 N   0  0  0  0  0  0
  -29.0885  -22.6465   20.2564 N   0  0  0  0  0  0
  -30.3275  -24.4873   20.7208 O   0  0  0  0  0  0
  -29.1081  -17.2540   23.3243 Cl  0  0  0  0  0  0
  -30.5110  -16.9252   18.0437 Cl  0  0  0  0  0  0
  -31.4812  -12.5203   19.1503 H   0  0  0  0  0  0
  -30.3767  -11.3964   19.8917 H   0  0  0  0  0  0
  -29.7731  -11.7579   17.4792 H   0  0  0  0  0  0
  -29.6539  -13.4786   17.7443 H   0  0  0  0  0  0
  -27.8631  -11.2965   18.8609 H   0  0  0  0  0  0
  -27.3791  -12.5872   17.7929 H   0  0  0  0  0  0
  -27.6753  -14.2534   19.5278 H   0  0  0  0  0  0
  -28.7105  -12.0432   21.3722 H   0  0  0  0  0  0
  -28.4440  -13.6935   21.8497 H   0  0  0  0  0  0
  -25.2765   -9.5688   22.4766 H   0  0  0  0  0  0
  -24.0010   -7.4632   22.7473 H   0  0  0  0  0  0
  -21.0845   -8.8773   19.8952 H   0  0  0  0  0  0
  -22.3700  -10.9675   19.6167 H   0  0  0  0  0  0
  -21.2001   -7.6147   23.9717 H   0  0  0  0  0  0
  -21.1482   -6.0525   25.9081 H   0  0  0  0  0  0
  -22.0598   -2.7609   23.2851 H   0  0  0  0  0  0
  -22.4107  -11.9881   22.4787 H   0  0  0  0  0  0
  -21.1117  -13.1252   22.2613 H   0  0  0  0  0  0
  -24.6566  -15.8402   20.5018 H   0  0  0  0  0  0
  -26.2715  -15.6231   20.0541 H   0  0  0  0  0  0
  -26.7189  -32.5442   23.1113 H   0  0  0  0  0  0
  -25.0076  -33.9721   25.0430 H   0  0  0  0  0  0
  -22.7158  -31.3065   21.4044 H   0  0  0  0  0  0
  -23.3750  -35.9618   23.3293 H   0  0  0  0  0  0
  -24.3579  -36.8905   22.2052 H   0  0  0  0  0  0
  -23.7235  -37.6486   23.6654 H   0  0  0  0  0  0
  -26.1020  -31.5542   20.6097 H   0  0  0  0  0  0
  -26.8421  -30.8333   22.0083 H   0  0  0  0  0  0
  -28.1163  -28.9739   21.1888 H   0  0  0  0  0  0
  -25.9513  -25.9447   18.9779 H   0  0  0  0  0  0
  -23.9665  -27.3241   19.0018 H   0  0  0  0  0  0
  -23.7546  -30.5997   19.4042 H   0  0  0  0  0  0
  -22.7551  -29.2531   19.8579 H   0  0  0  0  0  0
  -25.1290  -36.1937   25.0826 H   0  0  0  0  0  0
  -21.0007  -28.3264   24.1394 H   0  0  0  0  0  0
  -20.5684  -26.2294   23.3602 H   0  0  0  0  0  0
  -21.6642  -26.7438   22.1198 H   0  0  0  0  0  0
  -19.6891  -25.6304   21.1241 H   0  0  0  0  0  0
  -19.6679  -27.3205   20.6748 H   0  0  0  0  0  0
  -17.4200  -26.6686   21.4040 H   0  0  0  0  0  0
  -18.0329  -26.0075   22.9033 H   0  0  0  0  0  0
  -19.7932  -30.7289   24.2265 H   0  0  0  0  0  0
  -17.5006  -31.6267   24.5172 H   0  0  0  0  0  0
  -15.5351  -30.2985   23.7647 H   0  0  0  0  0  0
  -15.8678  -28.0817   22.7074 H   0  0  0  0  0  0
  -24.5884  -30.7100   25.7799 H   0  0  0  0  0  0
  -24.8912  -32.2919   26.4878 H   0  0  0  0  0  0
  -25.8032  -30.8935   27.0245 H   0  0  0  0  0  0
  -26.2894  -29.6770   24.1204 H   0  0  0  0  0  0
  -27.3979  -29.7252   25.4713 H   0  0  0  0  0  0
  -27.8783  -30.4272   23.9443 H   0  0  0  0  0  0
  -27.2691  -33.3640   26.2045 H   0  0  0  0  0  0
  -28.3888  -32.6832   25.0338 H   0  0  0  0  0  0
  -28.0690  -31.8451   26.5444 H   0  0  0  0  0  0
  -28.2601  -38.0102   24.7530 H   0  0  0  0  0  0
  -28.1081  -36.2636   24.6272 H   0  0  0  0  0  0
  -27.2302  -37.1436   25.8868 H   0  0  0  0  0  0
  -20.9369  -29.8778   21.6896 H   0  0  0  0  0  0
  -26.0168  -38.2848   24.1415 H   0  0  0  0  0  0
  -29.3303  -19.9751   22.6047 H   0  0  0  0  0  0
  -30.4927  -19.6965   18.4791 H   0  0  0  0  0  0
  -30.9445  -21.8125   19.7516 H   0  0  0  0  0  0
  -30.6396  -21.8808   21.4498 H   0  0  0  0  0  0
  -27.2079  -24.6897   20.5213 H   0  0  0  0  0  0
  -27.8718  -24.8254   18.8989 H   0  0  0  0  0  0
  -28.9715  -15.3782   21.3506 H   0  0  0  0  0  0
  -28.1904  -22.2995   19.9464 H   0  0  0  0  0  0
  1 25  1  0  0  0
  1 30  2  0  0  0
  1 80  1  0  0  0
  2  3  1  0  0  0
  2 25  1  0  0  0
  2 85  1  0  0  0
  2 86  1  0  0  0
  3  4  1  0  0  0
  3 87  1  0  0  0
  3 88  1  0  0  0
  4  5  1  0  0  0
  4 89  1  0  0  0
  4 90  1  0  0  0
  5  6  1  0  0  0
  5 26  1  0  0  0
  5 91  1  0  0  0
  6 25  1  0  0  0
  6 92  1  0  0  0
  6 93  1  0  0  0
  7  8  2  0  0  0
  7 26  1  0  0  0
  7 29  1  0  0  0
  8  9  1  0  0  0
  8 22  1  0  0  0
  9 10  1  0  0  0
  9 27  2  0  0  0
 10 11  2  0  0  0
 10 15  1  0  0  0
 11 12  1  0  0  0
 11 94  1  0  0  0
 12 13  2  0  0  0
 12 95  1  0  0  0
 13 14  1  0  0  0
 13 31  1  0  0  0
 14 15  2  0  0  0
 14 96  1  0  0  0
 15 97  1  0  0  0
 16 17  2  0  0  0
 16 21  1  0  0  0
 16 31  1  0  0  0
 17 18  1  0  0  0
 17 98  1  0  0  0
 18 19  2  0  0  0
 18 99  1  0  0  0
 19 20  1  0  0  0
 19 24  1  0  0  0
 20 21  2  0  0  0
 20100  1  0  0  0
 21 23  1  0  0  0
 22 28  1  0  0  0
 22 32  2  0  0  0
 26 27  1  0  0  0
 28101  1  0  0  0
 28102  1  0  0  0
 29103  1  0  0  0
 29104  1  0  0  0
 33 34  1  0  0  0
 33 66  1  0  0  0
 33 70  2  0  0  0
 34 36  1  0  0  0
 34 59  1  0  0  0
 34105  1  0  0  0
 35 44  2  0  0  0
 35 45  1  0  0  0
 35 68  1  0  0  0
 36 56  1  0  0  0
 36106  1  0  0  0
 37 39  1  0  0  0
 37 47  1  0  0  0
 37 66  1  0  0  0
 37107  1  0  0  0
 38 43  2  0  0  0
 38 46  1  0  0  0
 38 47  1  0  0  0
 39 64  1  0  0  0
 39 67  2  0  0  0
 40 52  1  0  0  0
 40 53  2  0  0  0
 40 58  1  0  0  0
 41108  1  0  0  0
 41109  1  0  0  0
 41110  1  0  0  0
 41 48  1  0  0  0
 42 43  1  0  0  0
 42 66  1  0  0  0
 42111  1  0  0  0
 42112  1  0  0  0
 43 44  1  0  0  0
 44113  1  0  0  0
 45 46  2  0  0  0
 45114  1  0  0  0
 46115  1  0  0  0
 47116  1  0  0  0
 47117  1  0  0  0
 48 56  1  0  0  0
 48 65  1  0  0  0
 48118  1  0  0  0
 49 50  1  0  0  0
 49 53  1  0  0  0
 49 64  1  0  0  0
 49119  1  0  0  0
 50 51  1  0  0  0
 50120  1  0  0  0
 50121  1  0  0  0
 51 52  1  0  0  0
 51122  1  0  0  0
 51123  1  0  0  0
 52124  1  0  0  0
 52125  1  0  0  0
 53 54  1  0  0  0
 54 55  2  0  0  0
 54126  1  0  0  0
 55 57  1  0  0  0
 55127  1  0  0  0
 56 69  2  0  0  0
 57 58  2  0  0  0
 57128  1  0  0  0
 58129  1  0  0  0
 59 60  1  0  0  0
 59 61  1  0  0  0
 59 62  1  0  0  0
 60130  1  0  0  0
 60131  1  0  0  0
 60132  1  0  0  0
 61133  1  0  0  0
 61134  1  0  0  0
 61135  1  0  0  0
 62136  1  0  0  0
 62137  1  0  0  0
 62138  1  0  0  0
 63 65  1  0  0  0
 63139  1  0  0  0
 63140  1  0  0  0
 63141  1  0  0  0
 64142  1  0  0  0
 65143  1  0  0  0
 68 79  1  0  0  0
 71 73  2  0  0  0
 71 75  1  0  0  0
 71144  1  0  0  0
 72 73  1  0  0  0
 72 76  2  0  0  0
 72145  1  0  0  0
 73 78  1  0  0  0
 74 75  2  0  0  0
 74 76  1  0  0  0
 74 80  1  0  0  0
 75 83  1  0  0  0
 76 84  1  0  0  0
 77 79  1  0  0  0
 77 81  1  0  0  0
 77 82  2  0  0  0
 78 81  1  0  0  0
 78146  1  0  0  0
 78147  1  0  0  0
 79148  1  0  0  0
 79149  1  0  0  0
 80150  1  0  0  0
 81151  1  0  0  0
M  ISO  4   1 100  68 101  79 101  80 100
M  END
> <chiral flag>
0

> <version>
0

> <s_m_source_file>
/data/baiqing/PycharmProjects/Reinvent-master-3.2/result/LINK_invent/BTK/process_docking_weight1_custom_sum_contain_oxygen_bond_distance_aromatic_linkinvent_7_9_3/rearranged_h_0013.sdf

> <i_m_source_file_index>
74

> <r_mmod_Potential_Energy-OPLS-2005>
-71.0148162841797

> <r_mmod_Stretch_Energy-OPLS-2005>
79.9680099487305

> <r_mmod_Bend_Energy-OPLS-2005>
133.84538269043

> <r_mmod_Torsional_Energy-OPLS-2005>
234.402572631836

> <r_mmod_Improper_Torsional_Energy-OPLS-2005>
4.98801851272583

> <r_mmod_Van_der_Waal_Energy-OPLS-2005>
142.467361450195

> <r_mmod_Electrostatic_Energy-OPLS-2005>
-465.565521240234

> <r_mmod_Solvation_Energy-OPLS-2005>
-251.981658935547

> <b_mmod_Minimization_Converged-OPLS-2005>
0

> <r_mmod_RMS_Derivative-OPLS-2005>
1.08929097652435

$$$$
74
                    3D
 Structure written by MMmdl.
148156  0  0  1  0            999 V2000
  -30.5303  -15.0216   20.4194 C   0  0  0  0  0  0
  -30.4373  -12.6396   19.5039 C   0  0  0  0  0  0
  -29.5221  -12.5395   18.2617 C   0  0  0  0  0  0
  -28.0591  -12.3119   18.6835 C   0  0  0  0  0  0
  -27.6243  -13.2563   19.8341 C   0  0  2  0  0  0
  -28.6665  -13.3244   20.9708 C   0  0  0  0  0  0
  -25.2437  -13.8229   20.5725 C   0  0  0  0  0  0
  -24.1767  -13.0439   20.9241 C   0  0  0  0  0  0
  -24.6396  -11.6929   20.8761 C   0  0  0  0  0  0
  -23.9084  -10.4294   21.0408 C   0  0  0  0  0  0
  -24.3631   -9.4207   21.9185 C   0  0  0  0  0  0
  -23.6301   -8.2244   22.0754 C   0  0  0  0  0  0
  -22.4283   -8.0283   21.3544 C   0  0  0  0  0  0
  -21.9923   -9.0258   20.4646 C   0  0  0  0  0  0
  -22.7256  -10.2135   20.3056 C   0  0  0  0  0  0
  -21.6856   -6.0738   22.5279 C   0  0  0  0  0  0
  -21.4016   -6.5641   23.8212 C   0  0  0  0  0  0
  -21.3660   -5.6793   24.9174 C   0  0  0  0  0  0
  -21.6044   -4.3056   24.7225 C   0  0  0  0  0  0
  -21.8819   -3.8148   23.4346 C   0  0  0  0  0  0
  -21.9193   -4.6965   22.3402 C   0  0  0  0  0  0
  -22.7785  -13.5202   21.1891 C   0  0  0  0  0  0
  -22.1662   -4.2150   21.0980 F   0  0  0  0  0  0
  -21.5628   -3.4539   25.7737 F   0  0  0  0  0  0
  -29.9308  -13.7563   20.3609 N   0  0  0  0  0  0
  -26.2865  -12.9476   20.3243 N   0  0  0  0  0  0
  -25.9331  -11.6597   20.5741 N   0  0  0  0  0  0
  -22.0440  -12.8185   22.0446 N   0  0  0  0  0  0
  -25.4072  -15.1961   20.4146 N   0  0  0  0  0  0
  -31.7339  -15.0485   20.1403 O   0  0  0  0  0  0
  -21.6644   -6.8882   21.4241 O   0  0  0  0  0  0
  -22.3464  -14.5503   20.6733 O   0  0  0  0  0  0
  -24.6489  -31.8386   23.1837 C   0  0  0  0  0  0
  -25.9236  -32.4666   23.8246 C   0  0  1  0  0  0
  -27.2152  -27.0788   20.1589 C   0  0  0  0  0  0
  -25.5961  -33.8474   24.2158 N   0  0  0  0  0  0
  -23.4555  -30.4564   21.5302 C   0  0  2  0  0  0
  -24.9062  -28.8742   20.1090 C   0  0  0  0  0  0
  -22.7596  -29.4519   22.4836 C   0  0  0  0  0  0
  -18.0310  -28.1399   22.8474 C   0  0  0  0  0  0
  -24.1492  -36.7242   23.2644 C   0  0  0  0  0  0
  -26.0157  -30.6936   21.3920 C   0  0  0  0  0  0
  -26.0857  -29.2996   20.7333 C   0  0  0  0  0  0
  -27.2396  -28.4190   20.7400 C   0  0  0  0  0  0
  -26.0104  -26.7727   19.4874 C   0  0  0  0  0  0
  -24.8851  -27.6266   19.4688 C   0  0  0  0  0  0
  -23.6856  -29.7833   20.1508 C   0  0  0  0  0  0
  -25.4127  -36.3014   24.0311 C   0  0  1  0  0  0
  -20.5926  -28.3731   23.1221 C   0  0  2  0  0  0
  -20.6792  -26.9428   22.5403 C   0  0  0  0  0  0
  -19.5765  -26.6380   21.5213 C   0  0  0  0  0  0
  -18.1947  -26.7936   22.1624 C   0  0  0  0  0  0
  -19.1568  -28.8884   23.2838 C   0  0  0  0  0  0
  -18.9483  -30.1478   23.8867 C   0  0  0  0  0  0
  -17.6478  -30.6593   24.0558 C   0  0  0  0  0  0
  -25.9082  -34.9392   23.5047 C   0  0  0  0  0  0
  -16.5369  -29.9084   23.6339 C   0  0  0  0  0  0
  -16.7294  -28.6503   23.0359 C   0  0  0  0  0  0
  -26.4537  -31.6556   25.0713 C   0  0  0  0  0  0
  -25.3703  -31.3763   26.1395 C   0  0  0  0  0  0
  -27.0415  -30.2944   24.6342 C   0  0  0  0  0  0
  -27.6053  -32.4338   25.7506 C   0  0  0  0  0  0
  -27.5574  -37.1779   24.8466 C   0  0  0  0  0  0
  -21.4282  -29.3047   22.3585 N   0  0  0  0  0  0
  -26.4285  -37.3734   23.9407 N   0  0  0  0  0  0
  -24.7269  -31.0190   22.0899 N   0  0  0  0  0  0
  -23.4213  -28.8072   23.3012 O   0  0  0  0  0  0
  -28.2418  -26.0486   20.2441 O   0  0  0  0  0  0
  -26.5675  -34.8899   22.4631 O   0  0  0  0  0  0
  -23.5594  -32.1289   23.7022 O   0  0  0  0  0  0
  -30.7092  -20.5799   21.3077 C   0  0  0  0  0  0
  -31.4915  -19.4975   21.7585 C   0  0  0  0  0  0
  -29.5138  -20.4098   20.5814 C   0  0  0  0  0  0
  -30.0555  -17.7559   20.7337 C   0  0  0  0  0  0
  -31.1793  -18.1413   21.5202 C   0  0  0  0  0  0
  -29.2300  -18.9488   20.3078 C   0  0  0  0  0  0
  -28.7020  -21.7852   20.2183 C   0  0  0  0  0  0
  -28.8872  -23.2014   20.4215 C   0  0  0  0  0  0
  -27.9327  -24.5121   20.0121 C   0  0  0  0  0  0
  -29.7573  -16.2336   20.5275 N   0  0  0  0  0  0
  -30.0178  -23.5510   21.0563 F   0  0  0  0  0  0
  -32.1900  -17.0028   22.3419 Cl  0  0  0  0  0  0
  -27.7912  -18.5947   19.4209 Cl  0  0  0  0  0  0
  -31.4686  -12.8012   19.1870 H   0  0  0  0  0  0
  -30.4433  -11.6999   20.0586 H   0  0  0  0  0  0
  -29.8545  -11.7320   17.6081 H   0  0  0  0  0  0
  -29.5967  -13.4582   17.6777 H   0  0  0  0  0  0
  -27.9697  -11.2743   19.0075 H   0  0  0  0  0  0
  -27.3934  -12.4219   17.8266 H   0  0  0  0  0  0
  -27.5739  -14.2495   19.3869 H   0  0  0  0  0  0
  -28.7734  -12.3602   21.4699 H   0  0  0  0  0  0
  -28.3534  -14.0376   21.7350 H   0  0  0  0  0  0
  -25.2773   -9.5683   22.4764 H   0  0  0  0  0  0
  -24.0008   -7.4635   22.7475 H   0  0  0  0  0  0
  -21.0854   -8.8780   19.8951 H   0  0  0  0  0  0
  -22.3714  -10.9676   19.6168 H   0  0  0  0  0  0
  -21.2010   -7.6149   23.9716 H   0  0  0  0  0  0
  -21.1482   -6.0523   25.9077 H   0  0  0  0  0  0
  -22.0597   -2.7610   23.2846 H   0  0  0  0  0  0
  -22.4070  -11.9854   22.4836 H   0  0  0  0  0  0
  -21.1052  -13.1194   22.2649 H   0  0  0  0  0  0
  -24.6320  -15.8407   20.5245 H   0  0  0  0  0  0
  -26.2394  -15.6419   20.0530 H   0  0  0  0  0  0
  -26.7302  -32.5252   23.0969 H   0  0  0  0  0  0
  -25.0077  -33.9579   25.0285 H   0  0  0  0  0  0
  -22.7610  -31.2841   21.3720 H   0  0  0  0  0  0
  -23.3761  -35.9566   23.3288 H   0  0  0  0  0  0
  -24.3574  -36.8896   22.2062 H   0  0  0  0  0  0
  -23.7242  -37.6428   23.6698 H   0  0  0  0  0  0
  -26.1795  -31.4450   20.6184 H   0  0  0  0  0  0
  -26.8827  -30.7443   22.0390 H   0  0  0  0  0  0
  -28.1343  -28.7381   21.2558 H   0  0  0  0  0  0
  -25.8998  -25.8208   18.9905 H   0  0  0  0  0  0
  -23.9867  -27.2970   18.9651 H   0  0  0  0  0  0
  -23.8273  -30.5569   19.3952 H   0  0  0  0  0  0
  -22.7988  -29.2292   19.8379 H   0  0  0  0  0  0
  -25.1319  -36.1833   25.0803 H   0  0  0  0  0  0
  -21.0018  -28.3327   24.1342 H   0  0  0  0  0  0
  -20.5682  -26.2347   23.3629 H   0  0  0  0  0  0
  -21.6657  -26.7425   22.1204 H   0  0  0  0  0  0
  -19.6925  -25.6283   21.1262 H   0  0  0  0  0  0
  -19.6701  -27.3174   20.6729 H   0  0  0  0  0  0
  -17.4215  -26.6679   21.4029 H   0  0  0  0  0  0
  -18.0347  -26.0086   22.9028 H   0  0  0  0  0  0
  -19.7958  -30.7303   24.2223 H   0  0  0  0  0  0
  -17.5030  -31.6270   24.5165 H   0  0  0  0  0  0
  -15.5368  -30.2976   23.7680 H   0  0  0  0  0  0
  -15.8695  -28.0811   22.7091 H   0  0  0  0  0  0
  -24.5895  -30.7098   25.7713 H   0  0  0  0  0  0
  -24.8879  -32.2950   26.4742 H   0  0  0  0  0  0
  -25.7971  -30.8988   27.0224 H   0  0  0  0  0  0
  -26.3050  -29.6650   24.1333 H   0  0  0  0  0  0
  -27.3986  -29.7266   25.4944 H   0  0  0  0  0  0
  -27.8975  -30.4164   23.9702 H   0  0  0  0  0  0
  -27.2635  -33.3664   26.2007 H   0  0  0  0  0  0
  -28.3904  -32.6858   25.0365 H   0  0  0  0  0  0
  -28.0675  -31.8515   26.5487 H   0  0  0  0  0  0
  -28.2582  -38.0083   24.7510 H   0  0  0  0  0  0
  -28.1079  -36.2611   24.6298 H   0  0  0  0  0  0
  -27.2289  -37.1429   25.8868 H   0  0  0  0  0  0
  -20.9505  -29.8753   21.6750 H   0  0  0  0  0  0
  -26.0146  -38.2799   24.1410 H   0  0  0  0  0  0
  -31.0464  -21.5680   21.5752 H   0  0  0  0  0  0
  -32.3646  -19.7215   22.3544 H   0  0  0  0  0  0
  -27.7820  -21.5617   19.6980 H   0  0  0  0  0  0
  -26.9776  -24.3162   20.5001 H   0  0  0  0  0  0
  -27.7389  -24.4000   18.9453 H   0  0  0  0  0  0
  -28.7694  -16.0433   20.4772 H   0  0  0  0  0  0
  1 25  1  0  0  0
  1 30  2  0  0  0
  1 80  1  0  0  0
  2  3  1  0  0  0
  2 25  1  0  0  0
  2 84  1  0  0  0
  2 85  1  0  0  0
  3  4  1  0  0  0
  3 86  1  0  0  0
  3 87  1  0  0  0
  4  5  1  0  0  0
  4 88  1  0  0  0
  4 89  1  0  0  0
  5  6  1  0  0  0
  5 26  1  0  0  0
  5 90  1  0  0  0
  6 25  1  0  0  0
  6 91  1  0  0  0
  6 92  1  0  0  0
  7  8  2  0  0  0
  7 26  1  0  0  0
  7 29  1  0  0  0
  8  9  1  0  0  0
  8 22  1  0  0  0
  9 10  1  0  0  0
  9 27  2  0  0  0
 10 11  2  0  0  0
 10 15  1  0  0  0
 11 12  1  0  0  0
 11 93  1  0  0  0
 12 13  2  0  0  0
 12 94  1  0  0  0
 13 14  1  0  0  0
 13 31  1  0  0  0
 14 15  2  0  0  0
 14 95  1  0  0  0
 15 96  1  0  0  0
 16 17  2  0  0  0
 16 21  1  0  0  0
 16 31  1  0  0  0
 17 18  1  0  0  0
 17 97  1  0  0  0
 18 19  2  0  0  0
 18 98  1  0  0  0
 19 20  1  0  0  0
 19 24  1  0  0  0
 20 21  2  0  0  0
 20 99  1  0  0  0
 21 23  1  0  0  0
 22 28  1  0  0  0
 22 32  2  0  0  0
 26 27  1  0  0  0
 28100  1  0  0  0
 28101  1  0  0  0
 29102  1  0  0  0
 29103  1  0  0  0
 33 34  1  0  0  0
 33 66  1  0  0  0
 33 70  2  0  0  0
 34 36  1  0  0  0
 34 59  1  0  0  0
 34104  1  0  0  0
 35 44  2  0  0  0
 35 45  1  0  0  0
 35 68  1  0  0  0
 36 56  1  0  0  0
 36105  1  0  0  0
 37 39  1  0  0  0
 37 47  1  0  0  0
 37 66  1  0  0  0
 37106  1  0  0  0
 38 43  2  0  0  0
 38 46  1  0  0  0
 38 47  1  0  0  0
 39 64  1  0  0  0
 39 67  2  0  0  0
 40 52  1  0  0  0
 40 53  2  0  0  0
 40 58  1  0  0  0
 41107  1  0  0  0
 41108  1  0  0  0
 41109  1  0  0  0
 41 48  1  0  0  0
 42 43  1  0  0  0
 42 66  1  0  0  0
 42110  1  0  0  0
 42111  1  0  0  0
 43 44  1  0  0  0
 44112  1  0  0  0
 45 46  2  0  0  0
 45113  1  0  0  0
 46114  1  0  0  0
 47115  1  0  0  0
 47116  1  0  0  0
 48 56  1  0  0  0
 48 65  1  0  0  0
 48117  1  0  0  0
 49 50  1  0  0  0
 49 53  1  0  0  0
 49 64  1  0  0  0
 49118  1  0  0  0
 50 51  1  0  0  0
 50119  1  0  0  0
 50120  1  0  0  0
 51 52  1  0  0  0
 51121  1  0  0  0
 51122  1  0  0  0
 52123  1  0  0  0
 52124  1  0  0  0
 53 54  1  0  0  0
 54 55  2  0  0  0
 54125  1  0  0  0
 55 57  1  0  0  0
 55126  1  0  0  0
 56 69  2  0  0  0
 57 58  2  0  0  0
 57127  1  0  0  0
 58128  1  0  0  0
 59 60  1  0  0  0
 59 61  1  0  0  0
 59 62  1  0  0  0
 60129  1  0  0  0
 60130  1  0  0  0
 60131  1  0  0  0
 61132  1  0  0  0
 61133  1  0  0  0
 61134  1  0  0  0
 62135  1  0  0  0
 62136  1  0  0  0
 62137  1  0  0  0
 63 65  1  0  0  0
 63138  1  0  0  0
 63139  1  0  0  0
 63140  1  0  0  0
 64141  1  0  0  0
 65142  1  0  0  0
 68 79  1  0  0  0
 71 72  2  0  0  0
 71 73  1  0  0  0
 71143  1  0  0  0
 72 75  1  0  0  0
 72144  1  0  0  0
 73 76  2  0  0  0
 73 77  1  0  0  0
 74 75  2  0  0  0
 74 76  1  0  0  0
 74 80  1  0  0  0
 75 82  1  0  0  0
 76 83  1  0  0  0
 77 78  2  0  0  0
 77145  1  0  0  0
 78 79  1  0  0  0
 78 81  1  0  0  0
 79146  1  0  0  0
 79147  1  0  0  0
 80148  1  0  0  0
M  ISO  4   1 100  68 101  79 101  80 100
M  END
> <chiral flag>
0

> <version>
0

> <s_m_source_file>
/data/baiqing/PycharmProjects/Reinvent-master-3.2/result/LINK_invent/BTK/process_docking_weight1_custom_sum_contain_oxygen_bond_distance_aromatic_linkinvent_7_9_3/rearranged_h_0013.sdf

> <i_m_source_file_index>
75

> <r_mmod_Potential_Energy-OPLS-2005>
584.076232910156

> <r_mmod_Stretch_Energy-OPLS-2005>
328.564819335938

> <r_mmod_Bend_Energy-OPLS-2005>
257.161102294922

> <r_mmod_Torsional_Energy-OPLS-2005>
216.492309570312

> <r_mmod_Improper_Torsional_Energy-OPLS-2005>
6.55369520187378

> <r_mmod_Van_der_Waal_Energy-OPLS-2005>
136.1083984375

> <r_mmod_Electrostatic_Energy-OPLS-2005>
-399.109008789062

> <r_mmod_Solvation_Energy-OPLS-2005>
-210.004302978516

> <b_mmod_Minimization_Converged-OPLS-2005>
1

> <r_mmod_RMS_Derivative-OPLS-2005>
0.0356811322271824

$$$$
75
                    3D
 Structure written by MMmdl.
153161  0  0  1  0            999 V2000
  -30.5393  -14.8464   20.4454 C   0  0  0  0  0  0
  -30.4495  -12.5178   19.4841 C   0  0  0  0  0  0
  -29.5222  -12.5325   18.2452 C   0  0  0  0  0  0
  -28.0491  -12.3360   18.6556 C   0  0  0  0  0  0
  -27.6429  -13.2349   19.8530 C   0  0  2  0  0  0
  -28.6878  -13.1748   20.9894 C   0  0  0  0  0  0
  -25.2499  -13.8183   20.5674 C   0  0  0  0  0  0
  -24.1795  -13.0426   20.9194 C   0  0  0  0  0  0
  -24.6392  -11.6906   20.8735 C   0  0  0  0  0  0
  -23.9067  -10.4283   21.0390 C   0  0  0  0  0  0
  -24.3617   -9.4199   21.9169 C   0  0  0  0  0  0
  -23.6295   -8.2235   22.0744 C   0  0  0  0  0  0
  -22.4278   -8.0269   21.3538 C   0  0  0  0  0  0
  -21.9910   -9.0238   20.4640 C   0  0  0  0  0  0
  -22.7236  -10.2119   20.3045 C   0  0  0  0  0  0
  -21.6853   -6.0731   22.5276 C   0  0  0  0  0  0
  -21.4012   -6.5633   23.8208 C   0  0  0  0  0  0
  -21.3662   -5.6786   24.9171 C   0  0  0  0  0  0
  -21.6048   -4.3049   24.7220 C   0  0  0  0  0  0
  -21.8819   -3.8140   23.4341 C   0  0  0  0  0  0
  -21.9189   -4.6958   22.3397 C   0  0  0  0  0  0
  -22.7817  -13.5204   21.1861 C   0  0  0  0  0  0
  -22.1659   -4.2142   21.0978 F   0  0  0  0  0  0
  -21.5633   -3.4536   25.7735 F   0  0  0  0  0  0
  -29.9821  -13.5761   20.4168 N   0  0  0  0  0  0
  -26.2937  -12.9398   20.3273 N   0  0  0  0  0  0
  -25.9330  -11.6535   20.5745 N   0  0  0  0  0  0
  -22.0466  -12.8195   22.0428 N   0  0  0  0  0  0
  -25.4161  -15.1905   20.4076 N   0  0  0  0  0  0
  -31.7095  -14.9925   20.0767 O   0  0  0  0  0  0
  -21.6638   -6.8871   21.4236 O   0  0  0  0  0  0
  -22.3487  -14.5498   20.6693 O   0  0  0  0  0  0
  -24.6411  -31.8484   23.1907 C   0  0  0  0  0  0
  -25.9198  -32.4714   23.8289 C   0  0  1  0  0  0
  -27.2223  -27.1829   20.1436 C   0  0  0  0  0  0
  -25.5967  -33.8518   24.2221 N   0  0  0  0  0  0
  -23.4422  -30.4692   21.5352 C   0  0  2  0  0  0
  -24.8919  -28.9049   20.1078 C   0  0  0  0  0  0
  -22.7557  -29.4566   22.4861 C   0  0  0  0  0  0
  -18.0303  -28.1395   22.8476 C   0  0  0  0  0  0
  -24.1494  -36.7268   23.2638 C   0  0  0  0  0  0
  -25.9947  -30.7362   21.3825 C   0  0  0  0  0  0
  -26.0664  -29.3515   20.7262 C   0  0  0  0  0  0
  -27.2323  -28.5054   20.7309 C   0  0  0  0  0  0
  -26.0229  -26.8294   19.4833 C   0  0  0  0  0  0
  -24.8803  -27.6551   19.4725 C   0  0  0  0  0  0
  -23.6670  -29.8026   20.1525 C   0  0  0  0  0  0
  -25.4116  -36.3040   24.0326 C   0  0  1  0  0  0
  -20.5914  -28.3725   23.1239 C   0  0  2  0  0  0
  -20.6798  -26.9429   22.5407 C   0  0  0  0  0  0
  -19.5768  -26.6381   21.5220 C   0  0  0  0  0  0
  -18.1947  -26.7933   22.1626 C   0  0  0  0  0  0
  -19.1558  -28.8876   23.2853 C   0  0  0  0  0  0
  -18.9475  -30.1470   23.8880 C   0  0  0  0  0  0
  -17.6473  -30.6592   24.0555 C   0  0  0  0  0  0
  -25.9071  -34.9416   23.5078 C   0  0  0  0  0  0
  -16.5363  -29.9088   23.6327 C   0  0  0  0  0  0
  -16.7288  -28.6506   23.0349 C   0  0  0  0  0  0
  -26.4522  -31.6563   25.0716 C   0  0  0  0  0  0
  -25.3716  -31.3753   26.1423 C   0  0  0  0  0  0
  -27.0387  -30.2968   24.6262 C   0  0  0  0  0  0
  -27.6059  -32.4315   25.7507 C   0  0  0  0  0  0
  -27.5575  -37.1783   24.8454 C   0  0  0  0  0  0
  -21.4251  -29.3057   22.3615 N   0  0  0  0  0  0
  -26.4275  -37.3755   23.9414 N   0  0  0  0  0  0
  -24.7121  -31.0382   22.0918 N   0  0  0  0  0  0
  -23.4222  -28.8113   23.2996 O   0  0  0  0  0  0
  -28.2859  -26.2242   20.2274 O   0  0  0  0  0  0
  -26.5639  -34.8906   22.4644 O   0  0  0  0  0  0
  -23.5542  -32.1340   23.7156 O   0  0  0  0  0  0
  -30.3999  -18.2744   19.7474 C   0  0  0  0  0  0
  -28.3940  -19.5726   21.1693 C   0  0  0  0  0  0
  -30.1376  -19.6987   19.5659 C   0  0  0  0  0  0
  -29.1012  -20.4200   20.2635 C   0  0  0  0  0  0
  -29.6411  -17.4256   20.6192 C   0  0  0  0  0  0
  -28.6392  -18.1594   21.3339 C   0  0  0  0  0  0
  -30.9543  -20.4453   18.5277 C   0  0  0  0  0  0
  -28.5314  -21.9034   19.8618 C   0  0  0  0  0  0
  -28.9400  -23.4127   20.4099 C   0  0  0  0  0  0
  -28.0264  -24.7309   19.9629 C   0  0  0  0  0  0
  -29.7017  -15.9180   20.7801 N   0  0  0  0  0  0
  -27.6153  -17.2926   22.4236 Cl  0  0  0  0  0  0
  -31.4863  -12.6711   19.1798 H   0  0  0  0  0  0
  -30.4258  -11.5413   19.9705 H   0  0  0  0  0  0
  -29.8224  -11.7570   17.5389 H   0  0  0  0  0  0
  -29.6294  -13.4830   17.7202 H   0  0  0  0  0  0
  -27.9186  -11.2868   18.9227 H   0  0  0  0  0  0
  -27.3900  -12.5157   17.8052 H   0  0  0  0  0  0
  -27.6328  -14.2565   19.4711 H   0  0  0  0  0  0
  -28.7459  -12.1682   21.4058 H   0  0  0  0  0  0
  -28.4025  -13.8274   21.8156 H   0  0  0  0  0  0
  -25.2758   -9.5683   22.4746 H   0  0  0  0  0  0
  -24.0004   -7.4627   22.7462 H   0  0  0  0  0  0
  -21.0841   -8.8745   19.8953 H   0  0  0  0  0  0
  -22.3676  -10.9649   19.6158 H   0  0  0  0  0  0
  -21.2007   -7.6143   23.9712 H   0  0  0  0  0  0
  -21.1491   -6.0518   25.9077 H   0  0  0  0  0  0
  -22.0601   -2.7602   23.2839 H   0  0  0  0  0  0
  -22.4100  -11.9875   22.4834 H   0  0  0  0  0  0
  -21.1076  -13.1205   22.2629 H   0  0  0  0  0  0
  -24.6532  -15.8442   20.5451 H   0  0  0  0  0  0
  -26.2691  -15.6369   20.0989 H   0  0  0  0  0  0
  -26.7272  -32.5335   23.1029 H   0  0  0  0  0  0
  -25.0114  -33.9637   25.0367 H   0  0  0  0  0  0
  -22.7422  -31.2939   21.3843 H   0  0  0  0  0  0
  -23.3764  -35.9589   23.3259 H   0  0  0  0  0  0
  -24.3598  -36.8937   22.2062 H   0  0  0  0  0  0
  -23.7243  -37.6454   23.6693 H   0  0  0  0  0  0
  -26.1437  -31.4889   20.6069 H   0  0  0  0  0  0
  -26.8686  -30.7866   22.0209 H   0  0  0  0  0  0
  -28.1245  -28.8418   21.2406 H   0  0  0  0  0  0
  -25.9301  -25.8759   18.9856 H   0  0  0  0  0  0
  -23.9854  -27.3076   18.9751 H   0  0  0  0  0  0
  -23.8010  -30.5792   19.3981 H   0  0  0  0  0  0
  -22.7837  -29.2434   19.8405 H   0  0  0  0  0  0
  -25.1296  -36.1868   25.0820 H   0  0  0  0  0  0
  -21.0002  -28.3317   24.1362 H   0  0  0  0  0  0
  -20.5713  -26.2334   23.3625 H   0  0  0  0  0  0
  -21.6662  -26.7456   22.1189 H   0  0  0  0  0  0
  -19.6930  -25.6289   21.1259 H   0  0  0  0  0  0
  -19.6704  -27.3181   20.6742 H   0  0  0  0  0  0
  -17.4223  -26.6678   21.4021 H   0  0  0  0  0  0
  -18.0334  -26.0081   22.9027 H   0  0  0  0  0  0
  -19.7953  -30.7285   24.2248 H   0  0  0  0  0  0
  -17.5030  -31.6267   24.5165 H   0  0  0  0  0  0
  -15.5365  -30.2988   23.7662 H   0  0  0  0  0  0
  -15.8686  -28.0824   22.7073 H   0  0  0  0  0  0
  -24.5896  -30.7093   25.7757 H   0  0  0  0  0  0
  -24.8903  -32.2939   26.4793 H   0  0  0  0  0  0
  -25.8011  -30.8973   27.0237 H   0  0  0  0  0  0
  -26.2999  -29.6694   24.1263 H   0  0  0  0  0  0
  -27.4020  -29.7258   25.4818 H   0  0  0  0  0  0
  -27.8890  -30.4226   23.9556 H   0  0  0  0  0  0
  -27.2654  -33.3627   26.2044 H   0  0  0  0  0  0
  -28.3894  -32.6854   25.0355 H   0  0  0  0  0  0
  -28.0689  -31.8463   26.5463 H   0  0  0  0  0  0
  -28.2556  -38.0114   24.7537 H   0  0  0  0  0  0
  -28.1108  -36.2650   24.6221 H   0  0  0  0  0  0
  -27.2301  -37.1352   25.8855 H   0  0  0  0  0  0
  -20.9462  -29.8787   21.6808 H   0  0  0  0  0  0
  -26.0143  -38.2817   24.1439 H   0  0  0  0  0  0
  -31.1734  -17.8107   19.1507 H   0  0  0  0  0  0
  -27.5662  -19.9982   21.7182 H   0  0  0  0  0  0
  -31.7979  -19.8526   18.1709 H   0  0  0  0  0  0
  -31.3480  -21.3736   18.9430 H   0  0  0  0  0  0
  -30.3339  -20.6947   17.6669 H   0  0  0  0  0  0
  -27.4574  -21.8254   20.0330 H   0  0  0  0  0  0
  -28.6047  -21.9541   18.7757 H   0  0  0  0  0  0
  -29.9753  -23.6014   20.1228 H   0  0  0  0  0  0
  -28.9451  -23.3789   21.4992 H   0  0  0  0  0  0
  -27.0397  -24.5149   20.3748 H   0  0  0  0  0  0
  -27.9078  -24.6555   18.8814 H   0  0  0  0  0  0
  -28.8560  -15.5689   21.2056 H   0  0  0  0  0  0
  1 25  1  0  0  0
  1 30  2  0  0  0
  1 81  1  0  0  0
  2  3  1  0  0  0
  2 25  1  0  0  0
  2 83  1  0  0  0
  2 84  1  0  0  0
  3  4  1  0  0  0
  3 85  1  0  0  0
  3 86  1  0  0  0
  4  5  1  0  0  0
  4 87  1  0  0  0
  4 88  1  0  0  0
  5  6  1  0  0  0
  5 26  1  0  0  0
  5 89  1  0  0  0
  6 25  1  0  0  0
  6 90  1  0  0  0
  6 91  1  0  0  0
  7  8  2  0  0  0
  7 26  1  0  0  0
  7 29  1  0  0  0
  8  9  1  0  0  0
  8 22  1  0  0  0
  9 10  1  0  0  0
  9 27  2  0  0  0
 10 11  2  0  0  0
 10 15  1  0  0  0
 11 12  1  0  0  0
 11 92  1  0  0  0
 12 13  2  0  0  0
 12 93  1  0  0  0
 13 14  1  0  0  0
 13 31  1  0  0  0
 14 15  2  0  0  0
 14 94  1  0  0  0
 15 95  1  0  0  0
 16 17  2  0  0  0
 16 21  1  0  0  0
 16 31  1  0  0  0
 17 18  1  0  0  0
 17 96  1  0  0  0
 18 19  2  0  0  0
 18 97  1  0  0  0
 19 20  1  0  0  0
 19 24  1  0  0  0
 20 21  2  0  0  0
 20 98  1  0  0  0
 21 23  1  0  0  0
 22 28  1  0  0  0
 22 32  2  0  0  0
 26 27  1  0  0  0
 28 99  1  0  0  0
 28100  1  0  0  0
 29101  1  0  0  0
 29102  1  0  0  0
 33 34  1  0  0  0
 33 66  1  0  0  0
 33 70  2  0  0  0
 34 36  1  0  0  0
 34 59  1  0  0  0
 34103  1  0  0  0
 35 44  2  0  0  0
 35 45  1  0  0  0
 35 68  1  0  0  0
 36 56  1  0  0  0
 36104  1  0  0  0
 37 39  1  0  0  0
 37 47  1  0  0  0
 37 66  1  0  0  0
 37105  1  0  0  0
 38 43  2  0  0  0
 38 46  1  0  0  0
 38 47  1  0  0  0
 39 64  1  0  0  0
 39 67  2  0  0  0
 40 52  1  0  0  0
 40 53  2  0  0  0
 40 58  1  0  0  0
 41106  1  0  0  0
 41107  1  0  0  0
 41108  1  0  0  0
 41 48  1  0  0  0
 42 43  1  0  0  0
 42 66  1  0  0  0
 42109  1  0  0  0
 42110  1  0  0  0
 43 44  1  0  0  0
 44111  1  0  0  0
 45 46  2  0  0  0
 45112  1  0  0  0
 46113  1  0  0  0
 47114  1  0  0  0
 47115  1  0  0  0
 48 56  1  0  0  0
 48 65  1  0  0  0
 48116  1  0  0  0
 49 50  1  0  0  0
 49 53  1  0  0  0
 49 64  1  0  0  0
 49117  1  0  0  0
 50 51  1  0  0  0
 50118  1  0  0  0
 50119  1  0  0  0
 51 52  1  0  0  0
 51120  1  0  0  0
 51121  1  0  0  0
 52122  1  0  0  0
 52123  1  0  0  0
 53 54  1  0  0  0
 54 55  2  0  0  0
 54124  1  0  0  0
 55 57  1  0  0  0
 55125  1  0  0  0
 56 69  2  0  0  0
 57 58  2  0  0  0
 57126  1  0  0  0
 58127  1  0  0  0
 59 60  1  0  0  0
 59 61  1  0  0  0
 59 62  1  0  0  0
 60128  1  0  0  0
 60129  1  0  0  0
 60130  1  0  0  0
 61131  1  0  0  0
 61132  1  0  0  0
 61133  1  0  0  0
 62134  1  0  0  0
 62135  1  0  0  0
 62136  1  0  0  0
 63 65  1  0  0  0
 63137  1  0  0  0
 63138  1  0  0  0
 63139  1  0  0  0
 64140  1  0  0  0
 65141  1  0  0  0
 68 80  1  0  0  0
 71 73  2  0  0  0
 71 75  1  0  0  0
 71142  1  0  0  0
 72 74  2  0  0  0
 72 76  1  0  0  0
 72143  1  0  0  0
 73 74  1  0  0  0
 73 77  1  0  0  0
 74 78  1  0  0  0
 75 76  2  0  0  0
 75 81  1  0  0  0
 76 82  1  0  0  0
 77144  1  0  0  0
 77145  1  0  0  0
 77146  1  0  0  0
 78 79  1  0  0  0
 78147  1  0  0  0
 78148  1  0  0  0
 79 80  1  0  0  0
 79149  1  0  0  0
 79150  1  0  0  0
 80151  1  0  0  0
 80152  1  0  0  0
 81153  1  0  0  0
M  ISO  4   1 100  68 101  80 101  81 100
M  END
> <chiral flag>
0

> <version>
0

> <s_m_source_file>
/data/baiqing/PycharmProjects/Reinvent-master-3.2/result/LINK_invent/BTK/process_docking_weight1_custom_sum_contain_oxygen_bond_distance_aromatic_linkinvent_7_9_3/rearranged_h_0013.sdf

> <i_m_source_file_index>
76

> <r_mmod_Potential_Energy-OPLS-2005>
321.187286376953

> <r_mmod_Stretch_Energy-OPLS-2005>
186.123046875

> <r_mmod_Bend_Energy-OPLS-2005>
237.920974731445

> <r_mmod_Torsional_Energy-OPLS-2005>
218.845367431641

> <r_mmod_Improper_Torsional_Energy-OPLS-2005>
5.68469333648682

> <r_mmod_Van_der_Waal_Energy-OPLS-2005>
131.009506225586

> <r_mmod_Electrostatic_Energy-OPLS-2005>
-398.998657226562

> <r_mmod_Solvation_Energy-OPLS-2005>
-199.488006591797

> <b_mmod_Minimization_Converged-OPLS-2005>
0

> <r_mmod_RMS_Derivative-OPLS-2005>
1.26475822925568

$$$$
76
                    3D
 Structure written by MMmdl.
155163  0  0  1  0            999 V2000
  -30.5247  -14.9343   20.4192 C   0  0  0  0  0  0
  -30.4474  -12.5758   19.4951 C   0  0  0  0  0  0
  -29.5246  -12.5436   18.2528 C   0  0  0  0  0  0
  -28.0526  -12.3355   18.6620 C   0  0  0  0  0  0
  -27.6339  -13.2492   19.8427 C   0  0  2  0  0  0
  -28.6779  -13.2417   20.9804 C   0  0  0  0  0  0
  -25.2460  -13.8218   20.5695 C   0  0  0  0  0  0
  -24.1774  -13.0444   20.9227 C   0  0  0  0  0  0
  -24.6392  -11.6930   20.8744 C   0  0  0  0  0  0
  -23.9062  -10.4301   21.0406 C   0  0  0  0  0  0
  -24.3615   -9.4207   21.9177 C   0  0  0  0  0  0
  -23.6297   -8.2232   22.0741 C   0  0  0  0  0  0
  -22.4279   -8.0270   21.3536 C   0  0  0  0  0  0
  -21.9908   -9.0238   20.4627 C   0  0  0  0  0  0
  -22.7234  -10.2121   20.3043 C   0  0  0  0  0  0
  -21.6849   -6.0721   22.5278 C   0  0  0  0  0  0
  -21.4013   -6.5624   23.8212 C   0  0  0  0  0  0
  -21.3678   -5.6777   24.9178 C   0  0  0  0  0  0
  -21.6055   -4.3041   24.7228 C   0  0  0  0  0  0
  -21.8816   -3.8125   23.4348 C   0  0  0  0  0  0
  -21.9185   -4.6942   22.3403 C   0  0  0  0  0  0
  -22.7793  -13.5194   21.1899 C   0  0  0  0  0  0
  -22.1658   -4.2121   21.0987 F   0  0  0  0  0  0
  -21.5642   -3.4532   25.7747 F   0  0  0  0  0  0
  -29.9627  -13.6580   20.3984 N   0  0  0  0  0  0
  -26.2897  -12.9455   20.3237 N   0  0  0  0  0  0
  -25.9325  -11.6587   20.5723 N   0  0  0  0  0  0
  -22.0431  -12.8185   22.0457 N   0  0  0  0  0  0
  -25.4122  -15.1941   20.4102 N   0  0  0  0  0  0
  -31.7130  -15.0369   20.1006 O   0  0  0  0  0  0
  -21.6646   -6.8864   21.4238 O   0  0  0  0  0  0
  -22.3476  -14.5501   20.6751 O   0  0  0  0  0  0
  -24.6436  -31.8454   23.1905 C   0  0  0  0  0  0
  -25.9209  -32.4697   23.8294 C   0  0  1  0  0  0
  -27.2213  -27.1364   20.1627 C   0  0  0  0  0  0
  -25.5972  -33.8501   24.2222 N   0  0  0  0  0  0
  -23.4482  -30.4660   21.5360 C   0  0  2  0  0  0
  -24.9019  -28.8972   20.1123 C   0  0  0  0  0  0
  -22.7574  -29.4549   22.4856 C   0  0  0  0  0  0
  -18.0304  -28.1391   22.8480 C   0  0  0  0  0  0
  -24.1502  -36.7233   23.2643 C   0  0  0  0  0  0
  -26.0052  -30.7213   21.3925 C   0  0  0  0  0  0
  -26.0783  -29.3322   20.7348 C   0  0  0  0  0  0
  -27.2365  -28.4665   20.7493 C   0  0  0  0  0  0
  -26.0223  -26.8159   19.4819 C   0  0  0  0  0  0
  -24.8861  -27.6518   19.4715 C   0  0  0  0  0  0
  -23.6772  -29.7976   20.1552 C   0  0  0  0  0  0
  -25.4138  -36.3027   24.0325 C   0  0  1  0  0  0
  -20.5919  -28.3713   23.1236 C   0  0  2  0  0  0
  -20.6783  -26.9409   22.5414 C   0  0  0  0  0  0
  -19.5759  -26.6371   21.5222 C   0  0  0  0  0  0
  -18.1943  -26.7927   22.1635 C   0  0  0  0  0  0
  -19.1558  -28.8868   23.2852 C   0  0  0  0  0  0
  -18.9478  -30.1470   23.8867 C   0  0  0  0  0  0
  -17.6470  -30.6587   24.0553 C   0  0  0  0  0  0
  -25.9086  -34.9400   23.5074 C   0  0  0  0  0  0
  -16.5356  -29.9084   23.6330 C   0  0  0  0  0  0
  -16.7285  -28.6501   23.0349 C   0  0  0  0  0  0
  -26.4543  -31.6538   25.0715 C   0  0  0  0  0  0
  -25.3740  -31.3712   26.1416 C   0  0  0  0  0  0
  -27.0390  -30.2924   24.6279 C   0  0  0  0  0  0
  -27.6114  -32.4269   25.7479 C   0  0  0  0  0  0
  -27.5579  -37.1781   24.8463 C   0  0  0  0  0  0
  -21.4261  -29.3035   22.3593 N   0  0  0  0  0  0
  -26.4291  -37.3747   23.9406 N   0  0  0  0  0  0
  -24.7186  -31.0316   22.0947 N   0  0  0  0  0  0
  -23.4209  -28.8095   23.3006 O   0  0  0  0  0  0
  -28.2554  -26.1308   20.2747 O   0  0  0  0  0  0
  -26.5658  -34.8887   22.4648 O   0  0  0  0  0  0
  -23.5555  -32.1321   23.7137 O   0  0  0  0  0  0
  -28.5739  -19.8446   21.0321 C   0  0  0  0  0  0
  -30.3783  -19.8243   19.5290 C   0  0  0  0  0  0
  -29.3870  -20.6592   20.1724 C   0  0  0  0  0  0
  -29.7003  -17.5808   20.5163 C   0  0  0  0  0  0
  -28.7040  -18.3873   21.1801 C   0  0  0  0  0  0
  -30.5359  -18.3862   19.6767 C   0  0  0  0  0  0
  -28.7012  -23.2867   20.5596 C   0  0  0  0  0  0
  -29.7751  -22.5217   18.5231 C   0  0  0  0  0  0
  -26.6615  -18.2715   22.4486 C   0  0  0  0  0  0
  -27.9637  -24.6412   19.9148 C   0  0  0  0  0  0
  -29.6927  -16.0520   20.6794 N   0  0  0  0  0  0
  -29.1862  -22.1602   19.8212 N   0  0  0  0  0  0
  -28.7550  -23.2419   21.7936 O   0  0  0  0  0  0
  -27.8421  -17.6483   21.9650 O   0  0  0  0  0  0
  -31.4906  -17.7787   18.9348 F   0  0  0  0  0  0
  -31.4798  -12.7387   19.1837 H   0  0  0  0  0  0
  -30.4419  -11.6122   20.0086 H   0  0  0  0  0  0
  -29.8407  -11.7567   17.5660 H   0  0  0  0  0  0
  -29.6197  -13.4827   17.7051 H   0  0  0  0  0  0
  -27.9321  -11.2896   18.9463 H   0  0  0  0  0  0
  -27.3935  -12.4966   17.8070 H   0  0  0  0  0  0
  -27.6055  -14.2612   19.4365 H   0  0  0  0  0  0
  -28.7551  -12.2499   21.4291 H   0  0  0  0  0  0
  -28.3784  -13.9173   21.7830 H   0  0  0  0  0  0
  -25.2758   -9.5683   22.4751 H   0  0  0  0  0  0
  -23.9999   -7.4620   22.7466 H   0  0  0  0  0  0
  -21.0830   -8.8745   19.8939 H   0  0  0  0  0  0
  -22.3684  -10.9648   19.6144 H   0  0  0  0  0  0
  -21.2001   -7.6134   23.9711 H   0  0  0  0  0  0
  -21.1526   -6.0514   25.9087 H   0  0  0  0  0  0
  -22.0583   -2.7585   23.2859 H   0  0  0  0  0  0
  -22.4039  -11.9830   22.4822 H   0  0  0  0  0  0
  -21.1034  -13.1190   22.2645 H   0  0  0  0  0  0
  -24.6401  -15.8433   20.5113 H   0  0  0  0  0  0
  -26.2499  -15.6287   20.0452 H   0  0  0  0  0  0
  -26.7272  -32.5319   23.1030 H   0  0  0  0  0  0
  -25.0100  -33.9623   25.0349 H   0  0  0  0  0  0
  -22.7518  -31.2931   21.3825 H   0  0  0  0  0  0
  -23.3772  -35.9554   23.3304 H   0  0  0  0  0  0
  -24.3584  -36.8851   22.2052 H   0  0  0  0  0  0
  -23.7239  -37.6430   23.6662 H   0  0  0  0  0  0
  -26.1625  -31.4782   20.6232 H   0  0  0  0  0  0
  -26.8750  -30.7727   22.0347 H   0  0  0  0  0  0
  -28.1244  -28.7913   21.2728 H   0  0  0  0  0  0
  -25.9111  -25.8699   18.9753 H   0  0  0  0  0  0
  -23.9887  -27.3113   18.9734 H   0  0  0  0  0  0
  -23.8165  -30.5742   19.4029 H   0  0  0  0  0  0
  -22.7927  -29.2415   19.8391 H   0  0  0  0  0  0
  -25.1330  -36.1868   25.0818 H   0  0  0  0  0  0
  -21.0029  -28.3307   24.1352 H   0  0  0  0  0  0
  -20.5685  -26.2319   23.3637 H   0  0  0  0  0  0
  -21.6648  -26.7417   22.1206 H   0  0  0  0  0  0
  -19.6919  -25.6284   21.1254 H   0  0  0  0  0  0
  -19.6700  -27.3181   20.6757 H   0  0  0  0  0  0
  -17.4217  -26.6671   21.4033 H   0  0  0  0  0  0
  -18.0335  -26.0074   22.9037 H   0  0  0  0  0  0
  -19.7953  -30.7298   24.2212 H   0  0  0  0  0  0
  -17.5021  -31.6264   24.5169 H   0  0  0  0  0  0
  -15.5358  -30.2975   23.7666 H   0  0  0  0  0  0
  -15.8688  -28.0818   22.7067 H   0  0  0  0  0  0
  -24.5952  -30.7025   25.7727 H   0  0  0  0  0  0
  -24.8892  -32.2876   26.4785 H   0  0  0  0  0  0
  -25.8045  -30.8923   27.0218 H   0  0  0  0  0  0
  -26.2988  -29.6649   24.1302 H   0  0  0  0  0  0
  -27.4006  -29.7227   25.4847 H   0  0  0  0  0  0
  -27.8904  -30.4132   23.9583 H   0  0  0  0  0  0
  -27.2768  -33.3617   26.1986 H   0  0  0  0  0  0
  -28.3965  -32.6731   25.0315 H   0  0  0  0  0  0
  -28.0726  -31.8408   26.5439 H   0  0  0  0  0  0
  -28.2598  -38.0078   24.7522 H   0  0  0  0  0  0
  -28.1082  -36.2611   24.6301 H   0  0  0  0  0  0
  -27.2282  -37.1425   25.8860 H   0  0  0  0  0  0
  -20.9467  -29.8723   21.6752 H   0  0  0  0  0  0
  -26.0160  -38.2813   24.1419 H   0  0  0  0  0  0
  -27.7885  -20.3653   21.5585 H   0  0  0  0  0  0
  -31.0681  -20.2885   18.8412 H   0  0  0  0  0  0
  -30.8603  -22.5862   18.6209 H   0  0  0  0  0  0
  -29.4628  -23.4699   18.0972 H   0  0  0  0  0  0
  -29.5467  -21.7672   17.7703 H   0  0  0  0  0  0
  -26.0088  -17.5110   22.8784 H   0  0  0  0  0  0
  -26.1061  -18.7599   21.6468 H   0  0  0  0  0  0
  -26.8913  -18.9982   23.2278 H   0  0  0  0  0  0
  -26.9451  -24.4695   20.2625 H   0  0  0  0  0  0
  -27.8795  -24.5676   18.8339 H   0  0  0  0  0  0
  -28.8110  -15.7422   21.0555 H   0  0  0  0  0  0
  1 25  1  0  0  0
  1 30  2  0  0  0
  1 81  1  0  0  0
  2  3  1  0  0  0
  2 25  1  0  0  0
  2 86  1  0  0  0
  2 87  1  0  0  0
  3  4  1  0  0  0
  3 88  1  0  0  0
  3 89  1  0  0  0
  4  5  1  0  0  0
  4 90  1  0  0  0
  4 91  1  0  0  0
  5  6  1  0  0  0
  5 26  1  0  0  0
  5 92  1  0  0  0
  6 25  1  0  0  0
  6 93  1  0  0  0
  6 94  1  0  0  0
  7  8  2  0  0  0
  7 26  1  0  0  0
  7 29  1  0  0  0
  8  9  1  0  0  0
  8 22  1  0  0  0
  9 10  1  0  0  0
  9 27  2  0  0  0
 10 11  2  0  0  0
 10 15  1  0  0  0
 11 12  1  0  0  0
 11 95  1  0  0  0
 12 13  2  0  0  0
 12 96  1  0  0  0
 13 14  1  0  0  0
 13 31  1  0  0  0
 14 15  2  0  0  0
 14 97  1  0  0  0
 15 98  1  0  0  0
 16 17  2  0  0  0
 16 21  1  0  0  0
 16 31  1  0  0  0
 17 18  1  0  0  0
 17 99  1  0  0  0
 18 19  2  0  0  0
 18100  1  0  0  0
 19 20  1  0  0  0
 19 24  1  0  0  0
 20 21  2  0  0  0
 20101  1  0  0  0
 21 23  1  0  0  0
 22 28  1  0  0  0
 22 32  2  0  0  0
 26 27  1  0  0  0
 28102  1  0  0  0
 28103  1  0  0  0
 29104  1  0  0  0
 29105  1  0  0  0
 33 34  1  0  0  0
 33 66  1  0  0  0
 33 70  2  0  0  0
 34 36  1  0  0  0
 34 59  1  0  0  0
 34106  1  0  0  0
 35 44  2  0  0  0
 35 45  1  0  0  0
 35 68  1  0  0  0
 36 56  1  0  0  0
 36107  1  0  0  0
 37 39  1  0  0  0
 37 47  1  0  0  0
 37 66  1  0  0  0
 37108  1  0  0  0
 38 43  2  0  0  0
 38 46  1  0  0  0
 38 47  1  0  0  0
 39 64  1  0  0  0
 39 67  2  0  0  0
 40 52  1  0  0  0
 40 53  2  0  0  0
 40 58  1  0  0  0
 41109  1  0  0  0
 41110  1  0  0  0
 41111  1  0  0  0
 41 48  1  0  0  0
 42 43  1  0  0  0
 42 66  1  0  0  0
 42112  1  0  0  0
 42113  1  0  0  0
 43 44  1  0  0  0
 44114  1  0  0  0
 45 46  2  0  0  0
 45115  1  0  0  0
 46116  1  0  0  0
 47117  1  0  0  0
 47118  1  0  0  0
 48 56  1  0  0  0
 48 65  1  0  0  0
 48119  1  0  0  0
 49 50  1  0  0  0
 49 53  1  0  0  0
 49 64  1  0  0  0
 49120  1  0  0  0
 50 51  1  0  0  0
 50121  1  0  0  0
 50122  1  0  0  0
 51 52  1  0  0  0
 51123  1  0  0  0
 51124  1  0  0  0
 52125  1  0  0  0
 52126  1  0  0  0
 53 54  1  0  0  0
 54 55  2  0  0  0
 54127  1  0  0  0
 55 57  1  0  0  0
 55128  1  0  0  0
 56 69  2  0  0  0
 57 58  2  0  0  0
 57129  1  0  0  0
 58130  1  0  0  0
 59 60  1  0  0  0
 59 61  1  0  0  0
 59 62  1  0  0  0
 60131  1  0  0  0
 60132  1  0  0  0
 60133  1  0  0  0
 61134  1  0  0  0
 61135  1  0  0  0
 61136  1  0  0  0
 62137  1  0  0  0
 62138  1  0  0  0
 62139  1  0  0  0
 63 65  1  0  0  0
 63140  1  0  0  0
 63141  1  0  0  0
 63142  1  0  0  0
 64143  1  0  0  0
 65144  1  0  0  0
 68 80  1  0  0  0
 71 73  2  0  0  0
 71 75  1  0  0  0
 71145  1  0  0  0
 72 73  1  0  0  0
 72 76  2  0  0  0
 72146  1  0  0  0
 73 82  1  0  0  0
 74 75  2  0  0  0
 74 76  1  0  0  0
 74 81  1  0  0  0
 75 84  1  0  0  0
 76 85  1  0  0  0
 77 80  1  0  0  0
 77 82  1  0  0  0
 77 83  2  0  0  0
 78 82  1  0  0  0
 78147  1  0  0  0
 78148  1  0  0  0
 78149  1  0  0  0
 79 84  1  0  0  0
 79150  1  0  0  0
 79151  1  0  0  0
 79152  1  0  0  0
 80153  1  0  0  0
 80154  1  0  0  0
 81155  1  0  0  0
M  ISO  4   1 100  68 101  80 101  81 100
M  END
> <chiral flag>
0

> <version>
0

> <s_m_source_file>
/data/baiqing/PycharmProjects/Reinvent-master-3.2/result/LINK_invent/BTK/process_docking_weight1_custom_sum_contain_oxygen_bond_distance_aromatic_linkinvent_7_9_3/rearranged_h_0013.sdf

> <i_m_source_file_index>
77

> <r_mmod_Potential_Energy-OPLS-2005>
524.196594238281

> <r_mmod_Stretch_Energy-OPLS-2005>
246.807525634766

> <r_mmod_Bend_Energy-OPLS-2005>
278.330810546875

> <r_mmod_Torsional_Energy-OPLS-2005>
269.218536376953

> <r_mmod_Improper_Torsional_Energy-OPLS-2005>
4.81239891052246

> <r_mmod_Van_der_Waal_Energy-OPLS-2005>
147.905014038086

> <r_mmod_Electrostatic_Energy-OPLS-2005>
-378.975128173828

> <r_mmod_Solvation_Energy-OPLS-2005>
-234.96923828125

> <b_mmod_Minimization_Converged-OPLS-2005>
0

> <r_mmod_RMS_Derivative-OPLS-2005>
2.25318646430969

$$$$
77
                    3D
 Structure written by MMmdl.
157165  0  0  1  0            999 V2000
  -30.6132  -14.7679   20.4615 C   0  0  0  0  0  0
  -30.4314  -12.4729   19.4683 C   0  0  0  0  0  0
  -29.5097  -12.5219   18.2297 C   0  0  0  0  0  0
  -28.0329  -12.3471   18.6390 C   0  0  0  0  0  0
  -27.6396  -13.2371   19.8498 C   0  0  2  0  0  0
  -28.6887  -13.1780   20.9810 C   0  0  0  0  0  0
  -25.2497  -13.8195   20.5707 C   0  0  0  0  0  0
  -24.1796  -13.0433   20.9219 C   0  0  0  0  0  0
  -24.6391  -11.6920   20.8725 C   0  0  0  0  0  0
  -23.9068  -10.4301   21.0390 C   0  0  0  0  0  0
  -24.3620   -9.4221   21.9171 C   0  0  0  0  0  0
  -23.6298   -8.2250   22.0745 C   0  0  0  0  0  0
  -22.4282   -8.0278   21.3536 C   0  0  0  0  0  0
  -21.9915   -9.0252   20.4639 C   0  0  0  0  0  0
  -22.7237  -10.2137   20.3049 C   0  0  0  0  0  0
  -21.6861   -6.0739   22.5282 C   0  0  0  0  0  0
  -21.4015   -6.5642   23.8215 C   0  0  0  0  0  0
  -21.3658   -5.6790   24.9170 C   0  0  0  0  0  0
  -21.6050   -4.3057   24.7222 C   0  0  0  0  0  0
  -21.8818   -3.8151   23.4342 C   0  0  0  0  0  0
  -21.9194   -4.6966   22.3398 C   0  0  0  0  0  0
  -22.7821  -13.5215   21.1870 C   0  0  0  0  0  0
  -22.1668   -4.2154   21.0975 F   0  0  0  0  0  0
  -21.5626   -3.4538   25.7731 F   0  0  0  0  0  0
  -29.9814  -13.5420   20.3902 N   0  0  0  0  0  0
  -26.2930  -12.9419   20.3291 N   0  0  0  0  0  0
  -25.9328  -11.6559   20.5745 N   0  0  0  0  0  0
  -22.0465  -12.8198   22.0422 N   0  0  0  0  0  0
  -25.4155  -15.1914   20.4119 N   0  0  0  0  0  0
  -31.8111  -14.8394   20.1763 O   0  0  0  0  0  0
  -21.6644   -6.8879   21.4245 O   0  0  0  0  0  0
  -22.3508  -14.5518   20.6714 O   0  0  0  0  0  0
  -24.6335  -31.8513   23.1964 C   0  0  0  0  0  0
  -25.9140  -32.4734   23.8314 C   0  0  1  0  0  0
  -27.2158  -27.2336   20.1310 C   0  0  0  0  0  0
  -25.5917  -33.8540   24.2226 N   0  0  0  0  0  0
  -23.4315  -30.4735   21.5397 C   0  0  2  0  0  0
  -24.8765  -28.9150   20.1144 C   0  0  0  0  0  0
  -22.7518  -29.4561   22.4898 C   0  0  0  0  0  0
  -18.0286  -28.1397   22.8480 C   0  0  0  0  0  0
  -24.1481  -36.7284   23.2645 C   0  0  0  0  0  0
  -25.9800  -30.7576   21.3776 C   0  0  0  0  0  0
  -26.0518  -29.3770   20.7205 C   0  0  0  0  0  0
  -27.2258  -28.5518   20.7109 C   0  0  0  0  0  0
  -26.0172  -26.8467   19.4911 C   0  0  0  0  0  0
  -24.8658  -27.6588   19.4890 C   0  0  0  0  0  0
  -23.6518  -29.8091   20.1563 C   0  0  0  0  0  0
  -25.4111  -36.3053   24.0322 C   0  0  1  0  0  0
  -20.5892  -28.3686   23.1278 C   0  0  2  0  0  0
  -20.6769  -26.9402   22.5416 C   0  0  0  0  0  0
  -19.5741  -26.6380   21.5218 C   0  0  0  0  0  0
  -18.1922  -26.7937   22.1631 C   0  0  0  0  0  0
  -19.1546  -28.8855   23.2873 C   0  0  0  0  0  0
  -18.9471  -30.1467   23.8871 C   0  0  0  0  0  0
  -17.6468  -30.6590   24.0562 C   0  0  0  0  0  0
  -25.9054  -34.9426   23.5077 C   0  0  0  0  0  0
  -16.5357  -29.9093   23.6334 C   0  0  0  0  0  0
  -16.7275  -28.6522   23.0337 C   0  0  0  0  0  0
  -26.4493  -31.6575   25.0711 C   0  0  0  0  0  0
  -25.3702  -31.3745   26.1426 C   0  0  0  0  0  0
  -27.0316  -30.2978   24.6216 C   0  0  0  0  0  0
  -27.6043  -32.4318   25.7485 C   0  0  0  0  0  0
  -27.5572  -37.1796   24.8462 C   0  0  0  0  0  0
  -21.4215  -29.3037   22.3669 N   0  0  0  0  0  0
  -26.4279  -37.3770   23.9408 N   0  0  0  0  0  0
  -24.7012  -31.0465   22.0939 N   0  0  0  0  0  0
  -23.4217  -28.8087   23.2981 O   0  0  0  0  0  0
  -28.3141  -26.3357   20.1533 O   0  0  0  0  0  0
  -26.5655  -34.8909   22.4664 O   0  0  0  0  0  0
  -23.5482  -32.1337   23.7257 O   0  0  0  0  0  0
  -31.4434  -17.6634   21.3596 C   0  0  0  0  0  0
  -29.7493  -19.9268   20.7284 C   0  0  0  0  0  0
  -29.3712  -18.5326   20.4340 C   0  0  0  0  0  0
  -30.9885  -20.0920   21.4194 C   0  0  0  0  0  0
  -30.2043  -17.3661   20.7611 C   0  0  0  0  0  0
  -31.8294  -18.9775   21.6748 C   0  0  0  0  0  0
  -29.3223  -23.9108   19.8641 C   0  0  0  0  0  0
  -28.0375  -18.2801   19.7495 C   0  0  0  0  0  0
  -31.4475  -21.4460   21.9597 C   0  0  0  0  0  0
  -28.8419  -21.2340   20.4067 C   0  0  0  0  0  0
  -28.1097  -24.8383   20.3459 C   0  0  0  0  0  0
  -29.8353  -15.9216   20.5922 N   0  0  0  0  0  0
  -29.5029  -22.5269   19.9338 N   0  0  0  0  0  0
  -30.2542  -24.5217   19.3373 O   0  0  0  0  0  0
  -33.3765  -19.1839   22.4217 Cl  0  0  0  0  0  0
  -31.4729  -12.5960   19.1657 H   0  0  0  0  0  0
  -30.3738  -11.4978   19.9543 H   0  0  0  0  0  0
  -29.7938  -11.7519   17.5111 H   0  0  0  0  0  0
  -29.6356  -13.4792   17.7194 H   0  0  0  0  0  0
  -27.8774  -11.2952   18.8822 H   0  0  0  0  0  0
  -27.3814  -12.5619   17.7909 H   0  0  0  0  0  0
  -27.6286  -14.2601   19.4724 H   0  0  0  0  0  0
  -28.7337  -12.1794   21.4167 H   0  0  0  0  0  0
  -28.4245  -13.8555   21.7944 H   0  0  0  0  0  0
  -25.2768   -9.5701   22.4746 H   0  0  0  0  0  0
  -24.0017   -7.4642   22.7459 H   0  0  0  0  0  0
  -21.0853   -8.8764   19.8939 H   0  0  0  0  0  0
  -22.3689  -10.9672   19.6160 H   0  0  0  0  0  0
  -21.2010   -7.6149   23.9717 H   0  0  0  0  0  0
  -21.1482   -6.0518   25.9071 H   0  0  0  0  0  0
  -22.0596   -2.7616   23.2835 H   0  0  0  0  0  0
  -22.4104  -11.9883   22.4833 H   0  0  0  0  0  0
  -21.1072  -13.1205   22.2599 H   0  0  0  0  0  0
  -24.6410  -15.8372   20.5165 H   0  0  0  0  0  0
  -26.2480  -15.6329   20.0481 H   0  0  0  0  0  0
  -26.7193  -32.5365   23.1039 H   0  0  0  0  0  0
  -24.9989  -33.9664   25.0320 H   0  0  0  0  0  0
  -22.7287  -31.2953   21.3917 H   0  0  0  0  0  0
  -23.3733  -35.9623   23.3302 H   0  0  0  0  0  0
  -24.3550  -36.8930   22.2058 H   0  0  0  0  0  0
  -23.7258  -37.6484   23.6693 H   0  0  0  0  0  0
  -26.1238  -31.5170   20.6075 H   0  0  0  0  0  0
  -26.8567  -30.8049   22.0121 H   0  0  0  0  0  0
  -28.1303  -28.9053   21.1867 H   0  0  0  0  0  0
  -25.9452  -25.8987   18.9799 H   0  0  0  0  0  0
  -23.9693  -27.3020   19.0014 H   0  0  0  0  0  0
  -23.7899  -30.5877   19.4053 H   0  0  0  0  0  0
  -22.7675  -29.2512   19.8424 H   0  0  0  0  0  0
  -25.1304  -36.1882   25.0818 H   0  0  0  0  0  0
  -20.9985  -28.3256   24.1402 H   0  0  0  0  0  0
  -20.5659  -26.2290   23.3617 H   0  0  0  0  0  0
  -21.6633  -26.7414   22.1210 H   0  0  0  0  0  0
  -19.6894  -25.6288   21.1252 H   0  0  0  0  0  0
  -19.6684  -27.3184   20.6744 H   0  0  0  0  0  0
  -17.4192  -26.6683   21.4037 H   0  0  0  0  0  0
  -18.0316  -26.0094   22.9046 H   0  0  0  0  0  0
  -19.7948  -30.7299   24.2223 H   0  0  0  0  0  0
  -17.5019  -31.6266   24.5167 H   0  0  0  0  0  0
  -15.5356  -30.2980   23.7667 H   0  0  0  0  0  0
  -15.8684  -28.0839   22.7037 H   0  0  0  0  0  0
  -24.5976  -30.6950   25.7814 H   0  0  0  0  0  0
  -24.8759  -32.2895   26.4692 H   0  0  0  0  0  0
  -25.8035  -30.9108   27.0292 H   0  0  0  0  0  0
  -26.2891  -29.6752   24.1213 H   0  0  0  0  0  0
  -27.3932  -29.7235   25.4751 H   0  0  0  0  0  0
  -27.8803  -30.4218   23.9491 H   0  0  0  0  0  0
  -27.2674  -33.3682   26.1942 H   0  0  0  0  0  0
  -28.3918  -32.6761   25.0344 H   0  0  0  0  0  0
  -28.0608  -31.8495   26.5495 H   0  0  0  0  0  0
  -28.2581  -38.0105   24.7512 H   0  0  0  0  0  0
  -28.1079  -36.2631   24.6280 H   0  0  0  0  0  0
  -27.2285  -37.1442   25.8867 H   0  0  0  0  0  0
  -20.9391  -29.8803   21.6911 H   0  0  0  0  0  0
  -26.0141  -38.2824   24.1442 H   0  0  0  0  0  0
  -32.1207  -16.8686   21.6350 H   0  0  0  0  0  0
  -28.0189  -18.7513   18.7659 H   0  0  0  0  0  0
  -27.2174  -18.6839   20.3433 H   0  0  0  0  0  0
  -27.8390  -17.2201   19.5991 H   0  0  0  0  0  0
  -32.1754  -21.9020   21.2901 H   0  0  0  0  0  0
  -31.9156  -21.3355   22.9380 H   0  0  0  0  0  0
  -30.6331  -22.1435   22.1357 H   0  0  0  0  0  0
  -28.2380  -21.4482   21.2884 H   0  0  0  0  0  0
  -28.1315  -20.9703   19.6244 H   0  0  0  0  0  0
  -27.9745  -24.6620   21.4124 H   0  0  0  0  0  0
  -27.2097  -24.4654   19.8623 H   0  0  0  0  0  0
  -28.8459  -15.7334   20.6043 H   0  0  0  0  0  0
  -30.3941  -22.3011   19.5149 H   0  0  0  0  0  0
  1 25  1  0  0  0
  1 30  2  0  0  0
  1 82  1  0  0  0
  2  3  1  0  0  0
  2 25  1  0  0  0
  2 86  1  0  0  0
  2 87  1  0  0  0
  3  4  1  0  0  0
  3 88  1  0  0  0
  3 89  1  0  0  0
  4  5  1  0  0  0
  4 90  1  0  0  0
  4 91  1  0  0  0
  5  6  1  0  0  0
  5 26  1  0  0  0
  5 92  1  0  0  0
  6 25  1  0  0  0
  6 93  1  0  0  0
  6 94  1  0  0  0
  7  8  2  0  0  0
  7 26  1  0  0  0
  7 29  1  0  0  0
  8  9  1  0  0  0
  8 22  1  0  0  0
  9 10  1  0  0  0
  9 27  2  0  0  0
 10 11  2  0  0  0
 10 15  1  0  0  0
 11 12  1  0  0  0
 11 95  1  0  0  0
 12 13  2  0  0  0
 12 96  1  0  0  0
 13 14  1  0  0  0
 13 31  1  0  0  0
 14 15  2  0  0  0
 14 97  1  0  0  0
 15 98  1  0  0  0
 16 17  2  0  0  0
 16 21  1  0  0  0
 16 31  1  0  0  0
 17 18  1  0  0  0
 17 99  1  0  0  0
 18 19  2  0  0  0
 18100  1  0  0  0
 19 20  1  0  0  0
 19 24  1  0  0  0
 20 21  2  0  0  0
 20101  1  0  0  0
 21 23  1  0  0  0
 22 28  1  0  0  0
 22 32  2  0  0  0
 26 27  1  0  0  0
 28102  1  0  0  0
 28103  1  0  0  0
 29104  1  0  0  0
 29105  1  0  0  0
 33 34  1  0  0  0
 33 66  1  0  0  0
 33 70  2  0  0  0
 34 36  1  0  0  0
 34 59  1  0  0  0
 34106  1  0  0  0
 35 44  2  0  0  0
 35 45  1  0  0  0
 35 68  1  0  0  0
 36 56  1  0  0  0
 36107  1  0  0  0
 37 39  1  0  0  0
 37 47  1  0  0  0
 37 66  1  0  0  0
 37108  1  0  0  0
 38 43  2  0  0  0
 38 46  1  0  0  0
 38 47  1  0  0  0
 39 64  1  0  0  0
 39 67  2  0  0  0
 40 52  1  0  0  0
 40 53  2  0  0  0
 40 58  1  0  0  0
 41109  1  0  0  0
 41110  1  0  0  0
 41111  1  0  0  0
 41 48  1  0  0  0
 42 43  1  0  0  0
 42 66  1  0  0  0
 42112  1  0  0  0
 42113  1  0  0  0
 43 44  1  0  0  0
 44114  1  0  0  0
 45 46  2  0  0  0
 45115  1  0  0  0
 46116  1  0  0  0
 47117  1  0  0  0
 47118  1  0  0  0
 48 56  1  0  0  0
 48 65  1  0  0  0
 48119  1  0  0  0
 49 50  1  0  0  0
 49 53  1  0  0  0
 49 64  1  0  0  0
 49120  1  0  0  0
 50 51  1  0  0  0
 50121  1  0  0  0
 50122  1  0  0  0
 51 52  1  0  0  0
 51123  1  0  0  0
 51124  1  0  0  0
 52125  1  0  0  0
 52126  1  0  0  0
 53 54  1  0  0  0
 54 55  2  0  0  0
 54127  1  0  0  0
 55 57  1  0  0  0
 55128  1  0  0  0
 56 69  2  0  0  0
 57 58  2  0  0  0
 57129  1  0  0  0
 58130  1  0  0  0
 59 60  1  0  0  0
 59 61  1  0  0  0
 59 62  1  0  0  0
 60131  1  0  0  0
 60132  1  0  0  0
 60133  1  0  0  0
 61134  1  0  0  0
 61135  1  0  0  0
 61136  1  0  0  0
 62137  1  0  0  0
 62138  1  0  0  0
 62139  1  0  0  0
 63 65  1  0  0  0
 63140  1  0  0  0
 63141  1  0  0  0
 63142  1  0  0  0
 64143  1  0  0  0
 65144  1  0  0  0
 68 81  1  0  0  0
 71 75  2  0  0  0
 71 76  1  0  0  0
 71145  1  0  0  0
 72 73  2  0  0  0
 72 74  1  0  0  0
 72 80  1  0  0  0
 73 75  1  0  0  0
 73 78  1  0  0  0
 74 76  2  0  0  0
 74 79  1  0  0  0
 75 82  1  0  0  0
 76 85  1  0  0  0
 77 81  1  0  0  0
 77 83  1  0  0  0
 77 84  2  0  0  0
 78146  1  0  0  0
 78147  1  0  0  0
 78148  1  0  0  0
 79149  1  0  0  0
 79150  1  0  0  0
 79151  1  0  0  0
 80 83  1  0  0  0
 80152  1  0  0  0
 80153  1  0  0  0
 81154  1  0  0  0
 81155  1  0  0  0
 82156  1  0  0  0
 83157  1  0  0  0
M  ISO  4   1 100  68 101  81 101  82 100
M  END
> <chiral flag>
0

> <version>
0

> <s_m_source_file>
/data/baiqing/PycharmProjects/Reinvent-master-3.2/result/LINK_invent/BTK/process_docking_weight1_custom_sum_contain_oxygen_bond_distance_aromatic_linkinvent_7_9_3/rearranged_h_0013.sdf

> <i_m_source_file_index>
78

> <r_mmod_Potential_Energy-OPLS-2005>
185.010879516602

> <r_mmod_Stretch_Energy-OPLS-2005>
150.436111450195

> <r_mmod_Bend_Energy-OPLS-2005>
212.345672607422

> <r_mmod_Torsional_Energy-OPLS-2005>
238.427780151367

> <r_mmod_Improper_Torsional_Energy-OPLS-2005>
6.43357515335083

> <r_mmod_Van_der_Waal_Energy-OPLS-2005>
144.226837158203

> <r_mmod_Electrostatic_Energy-OPLS-2005>
-419.819854736328

> <r_mmod_Solvation_Energy-OPLS-2005>
-242.961441040039

> <b_mmod_Minimization_Converged-OPLS-2005>
0

> <r_mmod_RMS_Derivative-OPLS-2005>
2.28756856918335

$$$$
78
                    3D
 Structure written by MMmdl.
163171  0  0  1  0            999 V2000
  -30.7380  -14.4044   20.6650 C   0  0  0  0  0  0
  -30.4535  -12.3025   19.4053 C   0  0  0  0  0  0
  -29.5144  -12.5228   18.2047 C   0  0  0  0  0  0
  -28.0336  -12.3960   18.6157 C   0  0  0  0  0  0
  -27.6870  -13.1964   19.9000 C   0  0  2  0  0  0
  -28.7289  -12.9188   21.0043 C   0  0  0  0  0  0
  -25.2759  -13.8115   20.5709 C   0  0  0  0  0  0
  -24.1977  -13.0468   20.9187 C   0  0  0  0  0  0
  -24.6452  -11.6900   20.8771 C   0  0  0  0  0  0
  -23.9065  -10.4310   21.0409 C   0  0  0  0  0  0
  -24.3603   -9.4245   21.9199 C   0  0  0  0  0  0
  -23.6289   -8.2281   22.0766 C   0  0  0  0  0  0
  -22.4280   -8.0304   21.3528 C   0  0  0  0  0  0
  -21.9904   -9.0292   20.4650 C   0  0  0  0  0  0
  -22.7232  -10.2177   20.3060 C   0  0  0  0  0  0
  -21.6860   -6.0733   22.5264 C   0  0  0  0  0  0
  -21.4007   -6.5615   23.8208 C   0  0  0  0  0  0
  -21.3654   -5.6777   24.9170 C   0  0  0  0  0  0
  -21.6043   -4.3036   24.7222 C   0  0  0  0  0  0
  -21.8845   -3.8131   23.4342 C   0  0  0  0  0  0
  -21.9215   -4.6949   22.3407 C   0  0  0  0  0  0
  -22.8002  -13.5345   21.1743 C   0  0  0  0  0  0
  -22.1683   -4.2139   21.0974 F   0  0  0  0  0  0
  -21.5634   -3.4522   25.7735 F   0  0  0  0  0  0
  -30.0712  -13.2351   20.4739 N   0  0  0  0  0  0
  -26.3189  -12.9240   20.3512 N   0  0  0  0  0  0
  -25.9393  -11.6415   20.5863 N   0  0  0  0  0  0
  -22.0462  -12.8465   22.0230 N   0  0  0  0  0  0
  -25.4663  -15.1795   20.4005 N   0  0  0  0  0  0
  -31.7601  -14.7214   20.0451 O   0  0  0  0  0  0
  -21.6643   -6.8873   21.4231 O   0  0  0  0  0  0
  -22.3778  -14.5675   20.6538 O   0  0  0  0  0  0
  -24.6185  -31.8703   23.2139 C   0  0  0  0  0  0
  -25.9090  -32.4826   23.8415 C   0  0  1  0  0  0
  -27.2137  -27.4196   20.0713 C   0  0  0  0  0  0
  -25.5944  -33.8624   24.2321 N   0  0  0  0  0  0
  -23.4005  -30.5047   21.5564 C   0  0  2  0  0  0
  -24.8343  -28.9681   20.1271 C   0  0  0  0  0  0
  -22.7428  -29.4714   22.4990 C   0  0  0  0  0  0
  -18.0275  -28.1400   22.8484 C   0  0  0  0  0  0
  -24.1470  -36.7316   23.2632 C   0  0  0  0  0  0
  -25.9365  -30.8347   21.3618 C   0  0  0  0  0  0
  -26.0078  -29.4702   20.7020 C   0  0  0  0  0  0
  -27.2048  -28.7128   20.6522 C   0  0  0  0  0  0
  -25.9993  -26.9213   19.5363 C   0  0  0  0  0  0
  -24.8230  -27.6900   19.5516 C   0  0  0  0  0  0
  -23.6079  -29.8496   20.1694 C   0  0  0  0  0  0
  -25.4094  -36.3106   24.0326 C   0  0  1  0  0  0
  -20.5873  -28.3689   23.1315 C   0  0  2  0  0  0
  -20.6760  -26.9412   22.5424 C   0  0  0  0  0  0
  -19.5743  -26.6379   21.5223 C   0  0  0  0  0  0
  -18.1916  -26.7943   22.1608 C   0  0  0  0  0  0
  -19.1525  -28.8863   23.2909 C   0  0  0  0  0  0
  -18.9459  -30.1460   23.8930 C   0  0  0  0  0  0
  -17.6466  -30.6603   24.0571 C   0  0  0  0  0  0
  -25.9036  -34.9472   23.5102 C   0  0  0  0  0  0
  -16.5355  -29.9117   23.6321 C   0  0  0  0  0  0
  -16.7266  -28.6535   23.0337 C   0  0  0  0  0  0
  -26.4499  -31.6629   25.0769 C   0  0  0  0  0  0
  -25.3752  -31.3780   26.1522 C   0  0  0  0  0  0
  -27.0337  -30.3064   24.6184 C   0  0  0  0  0  0
  -27.6072  -32.4355   25.7546 C   0  0  0  0  0  0
  -27.5582  -37.1814   24.8443 C   0  0  0  0  0  0
  -21.4163  -29.3077   22.3742 N   0  0  0  0  0  0
  -26.4271  -37.3809   23.9421 N   0  0  0  0  0  0
  -24.6713  -31.0827   22.1025 N   0  0  0  0  0  0
  -23.4212  -28.8205   23.2981 O   0  0  0  0  0  0
  -28.3923  -26.6938   20.0288 O   0  0  0  0  0  0
  -26.5598  -34.8925   22.4655 O   0  0  0  0  0  0
  -23.5392  -32.1473   23.7538 O   0  0  0  0  0  0
  -29.4112  -19.3129   21.8665 C   0  0  0  0  0  0
  -29.7065  -18.5681   23.0239 C   0  0  0  0  0  0
  -29.4670  -18.7052   20.5963 C   0  0  0  0  0  0
  -30.0794  -16.5746   21.6560 C   0  0  0  0  0  0
  -30.0364  -17.2035   22.9171 C   0  0  0  0  0  0
  -29.8038  -17.3328   20.4869 C   0  0  0  0  0  0
  -29.0592  -19.4661   19.3695 C   0  0  0  0  0  0
  -29.9182  -20.4234   17.3121 C   0  0  0  0  0  0
  -29.7231  -23.1068   19.7888 C   0  0  0  0  0  0
  -31.0611  -22.4720   19.3596 C   0  0  0  0  0  0
  -29.7075  -24.6530   19.6756 C   0  0  0  0  0  0
  -31.1184  -20.9211   19.4303 C   0  0  0  0  0  0
  -28.3139  -25.2611   19.8874 C   0  0  0  0  0  0
  -30.2439  -15.1631   21.6451 N   0  0  0  0  0  0
  -29.9754  -20.2646   18.7689 N   0  0  0  0  0  0
  -27.9465  -19.2421   18.8798 O   0  0  0  0  0  0
  -30.2800  -16.4774   24.0354 F   0  0  0  0  0  0
  -29.7872  -16.7370   19.2711 F   0  0  0  0  0  0
  -31.4908  -12.4390   19.0929 H   0  0  0  0  0  0
  -30.3892  -11.2757   19.7669 H   0  0  0  0  0  0
  -29.7552  -11.8123   17.4152 H   0  0  0  0  0  0
  -29.6981  -13.5092   17.7803 H   0  0  0  0  0  0
  -27.8181  -11.3400   18.7705 H   0  0  0  0  0  0
  -27.3957  -12.7165   17.7935 H   0  0  0  0  0  0
  -27.7480  -14.2555   19.6541 H   0  0  0  0  0  0
  -28.7138  -11.8654   21.2898 H   0  0  0  0  0  0
  -28.4782  -13.4614   21.9150 H   0  0  0  0  0  0
  -25.2694   -9.5771   22.4869 H   0  0  0  0  0  0
  -23.9971   -7.4677   22.7498 H   0  0  0  0  0  0
  -21.0829   -8.8834   19.8962 H   0  0  0  0  0  0
  -22.3636  -10.9767   19.6237 H   0  0  0  0  0  0
  -21.1963   -7.6110   23.9717 H   0  0  0  0  0  0
  -21.1453   -6.0480   25.9088 H   0  0  0  0  0  0
  -22.0632   -2.7582   23.2855 H   0  0  0  0  0  0
  -22.3834  -12.0140   22.4826 H   0  0  0  0  0  0
  -21.1075  -13.1692   22.2171 H   0  0  0  0  0  0
  -24.7388  -15.8704   20.5330 H   0  0  0  0  0  0
  -26.3274  -15.5776   20.0474 H   0  0  0  0  0  0
  -26.7147  -32.5515   23.1166 H   0  0  0  0  0  0
  -25.0126  -33.9785   25.0485 H   0  0  0  0  0  0
  -22.6911  -31.3249   21.4275 H   0  0  0  0  0  0
  -23.3735  -35.9641   23.3268 H   0  0  0  0  0  0
  -24.3583  -36.8980   22.2058 H   0  0  0  0  0  0
  -23.7200  -37.6497   23.6675 H   0  0  0  0  0  0
  -26.0586  -31.6066   20.5993 H   0  0  0  0  0  0
  -26.8187  -30.8759   21.9884 H   0  0  0  0  0  0
  -28.1149  -29.1222   21.0659 H   0  0  0  0  0  0
  -25.9139  -25.9407   19.0973 H   0  0  0  0  0  0
  -23.9087  -27.2882   19.1380 H   0  0  0  0  0  0
  -23.7519  -30.6362   19.4277 H   0  0  0  0  0  0
  -22.7202  -29.3021   19.8459 H   0  0  0  0  0  0
  -25.1270  -36.1959   25.0825 H   0  0  0  0  0  0
  -20.9978  -28.3231   24.1426 H   0  0  0  0  0  0
  -20.5632  -26.2301   23.3621 H   0  0  0  0  0  0
  -21.6630  -26.7421   22.1228 H   0  0  0  0  0  0
  -19.6879  -25.6287   21.1271 H   0  0  0  0  0  0
  -19.6688  -27.3159   20.6740 H   0  0  0  0  0  0
  -17.4195  -26.6736   21.3995 H   0  0  0  0  0  0
  -18.0274  -26.0076   22.8990 H   0  0  0  0  0  0
  -19.7944  -30.7256   24.2292 H   0  0  0  0  0  0
  -17.5033  -31.6269   24.5172 H   0  0  0  0  0  0
  -15.5356  -30.3032   23.7622 H   0  0  0  0  0  0
  -15.8674  -28.0857   22.7039 H   0  0  0  0  0  0
  -24.5887  -30.7167   25.7881 H   0  0  0  0  0  0
  -24.8983  -32.2963   26.4972 H   0  0  0  0  0  0
  -25.8088  -30.8952   27.0291 H   0  0  0  0  0  0
  -26.2918  -29.6837   24.1181 H   0  0  0  0  0  0
  -27.4046  -29.7310   25.4681 H   0  0  0  0  0  0
  -27.8774  -30.4376   23.9401 H   0  0  0  0  0  0
  -27.2686  -33.3650   26.2140 H   0  0  0  0  0  0
  -28.3898  -32.6934   25.0396 H   0  0  0  0  0  0
  -28.0722  -31.8472   26.5475 H   0  0  0  0  0  0
  -28.2548  -38.0163   24.7560 H   0  0  0  0  0  0
  -28.1139  -36.2706   24.6157 H   0  0  0  0  0  0
  -27.2342  -37.1330   25.8857 H   0  0  0  0  0  0
  -20.9307  -29.8914   21.7089 H   0  0  0  0  0  0
  -26.0151  -38.2871   24.1492 H   0  0  0  0  0  0
  -29.1206  -20.3482   21.9604 H   0  0  0  0  0  0
  -29.6449  -19.0353   23.9967 H   0  0  0  0  0  0
  -30.1698  -19.4768   16.8324 H   0  0  0  0  0  0
  -30.6260  -21.1668   16.9459 H   0  0  0  0  0  0
  -28.9219  -20.7225   16.9822 H   0  0  0  0  0  0
  -29.4956  -22.8156   20.8160 H   0  0  0  0  0  0
  -28.9231  -22.6903   19.1753 H   0  0  0  0  0  0
  -31.8696  -22.8749   19.9722 H   0  0  0  0  0  0
  -31.2889  -22.7981   18.3440 H   0  0  0  0  0  0
  -30.0694  -24.9561   18.6907 H   0  0  0  0  0  0
  -30.3983  -25.0837   20.3975 H   0  0  0  0  0  0
  -31.2050  -20.6371   20.4776 H   0  0  0  0  0  0
  -32.0390  -20.5597   18.9729 H   0  0  0  0  0  0
  -27.8651  -24.8444   20.7920 H   0  0  0  0  0  0
  -27.7121  -24.9379   19.0360 H   0  0  0  0  0  0
  -29.6640  -14.6746   22.3099 H   0  0  0  0  0  0
  1 25  1  0  0  0
  1 30  2  0  0  0
  1 84  1  0  0  0
  2  3  1  0  0  0
  2 25  1  0  0  0
  2 89  1  0  0  0
  2 90  1  0  0  0
  3  4  1  0  0  0
  3 91  1  0  0  0
  3 92  1  0  0  0
  4  5  1  0  0  0
  4 93  1  0  0  0
  4 94  1  0  0  0
  5  6  1  0  0  0
  5 26  1  0  0  0
  5 95  1  0  0  0
  6 25  1  0  0  0
  6 96  1  0  0  0
  6 97  1  0  0  0
  7  8  2  0  0  0
  7 26  1  0  0  0
  7 29  1  0  0  0
  8  9  1  0  0  0
  8 22  1  0  0  0
  9 10  1  0  0  0
  9 27  2  0  0  0
 10 11  2  0  0  0
 10 15  1  0  0  0
 11 12  1  0  0  0
 11 98  1  0  0  0
 12 13  2  0  0  0
 12 99  1  0  0  0
 13 14  1  0  0  0
 13 31  1  0  0  0
 14 15  2  0  0  0
 14100  1  0  0  0
 15101  1  0  0  0
 16 17  2  0  0  0
 16 21  1  0  0  0
 16 31  1  0  0  0
 17 18  1  0  0  0
 17102  1  0  0  0
 18 19  2  0  0  0
 18103  1  0  0  0
 19 20  1  0  0  0
 19 24  1  0  0  0
 20 21  2  0  0  0
 20104  1  0  0  0
 21 23  1  0  0  0
 22 28  1  0  0  0
 22 32  2  0  0  0
 26 27  1  0  0  0
 28105  1  0  0  0
 28106  1  0  0  0
 29107  1  0  0  0
 29108  1  0  0  0
 33 34  1  0  0  0
 33 66  1  0  0  0
 33 70  2  0  0  0
 34 36  1  0  0  0
 34 59  1  0  0  0
 34109  1  0  0  0
 35 44  2  0  0  0
 35 45  1  0  0  0
 35 68  1  0  0  0
 36 56  1  0  0  0
 36110  1  0  0  0
 37 39  1  0  0  0
 37 47  1  0  0  0
 37 66  1  0  0  0
 37111  1  0  0  0
 38 43  2  0  0  0
 38 46  1  0  0  0
 38 47  1  0  0  0
 39 64  1  0  0  0
 39 67  2  0  0  0
 40 52  1  0  0  0
 40 53  2  0  0  0
 40 58  1  0  0  0
 41112  1  0  0  0
 41113  1  0  0  0
 41114  1  0  0  0
 41 48  1  0  0  0
 42 43  1  0  0  0
 42 66  1  0  0  0
 42115  1  0  0  0
 42116  1  0  0  0
 43 44  1  0  0  0
 44117  1  0  0  0
 45 46  2  0  0  0
 45118  1  0  0  0
 46119  1  0  0  0
 47120  1  0  0  0
 47121  1  0  0  0
 48 56  1  0  0  0
 48 65  1  0  0  0
 48122  1  0  0  0
 49 50  1  0  0  0
 49 53  1  0  0  0
 49 64  1  0  0  0
 49123  1  0  0  0
 50 51  1  0  0  0
 50124  1  0  0  0
 50125  1  0  0  0
 51 52  1  0  0  0
 51126  1  0  0  0
 51127  1  0  0  0
 52128  1  0  0  0
 52129  1  0  0  0
 53 54  1  0  0  0
 54 55  2  0  0  0
 54130  1  0  0  0
 55 57  1  0  0  0
 55131  1  0  0  0
 56 69  2  0  0  0
 57 58  2  0  0  0
 57132  1  0  0  0
 58133  1  0  0  0
 59 60  1  0  0  0
 59 61  1  0  0  0
 59 62  1  0  0  0
 60134  1  0  0  0
 60135  1  0  0  0
 60136  1  0  0  0
 61137  1  0  0  0
 61138  1  0  0  0
 61139  1  0  0  0
 62140  1  0  0  0
 62141  1  0  0  0
 62142  1  0  0  0
 63 65  1  0  0  0
 63143  1  0  0  0
 63144  1  0  0  0
 63145  1  0  0  0
 64146  1  0  0  0
 65147  1  0  0  0
 68 83  1  0  0  0
 71 72  2  0  0  0
 71 73  1  0  0  0
 71148  1  0  0  0
 72 75  1  0  0  0
 72149  1  0  0  0
 73 76  2  0  0  0
 73 77  1  0  0  0
 74 75  2  0  0  0
 74 76  1  0  0  0
 74 84  1  0  0  0
 75 87  1  0  0  0
 76 88  1  0  0  0
 77 85  1  0  0  0
 77 86  2  0  0  0
 78 85  1  0  0  0
 78150  1  0  0  0
 78151  1  0  0  0
 78152  1  0  0  0
 79 80  1  0  0  0
 79 81  1  0  0  0
 79153  1  0  0  0
 79154  1  0  0  0
 80 82  1  0  0  0
 80155  1  0  0  0
 80156  1  0  0  0
 81 83  1  0  0  0
 81157  1  0  0  0
 81158  1  0  0  0
 82 85  1  0  0  0
 82159  1  0  0  0
 82160  1  0  0  0
 83161  1  0  0  0
 83162  1  0  0  0
 84163  1  0  0  0
M  ISO  4   1 100  68 101  83 101  84 100
M  END
> <chiral flag>
0

> <version>
0

> <s_m_source_file>
/data/baiqing/PycharmProjects/Reinvent-master-3.2/result/LINK_invent/BTK/process_docking_weight1_custom_sum_contain_oxygen_bond_distance_aromatic_linkinvent_7_9_3/rearranged_h_0013.sdf

> <i_m_source_file_index>
79

> <r_mmod_Potential_Energy-OPLS-2005>
-15.3061494827271

> <r_mmod_Stretch_Energy-OPLS-2005>
39.3012504577637

> <r_mmod_Bend_Energy-OPLS-2005>
101.227165222168

> <r_mmod_Torsional_Energy-OPLS-2005>
300.964538574219

> <r_mmod_Improper_Torsional_Energy-OPLS-2005>
5.88214015960693

> <r_mmod_Van_der_Waal_Energy-OPLS-2005>
160.40788269043

> <r_mmod_Electrostatic_Energy-OPLS-2005>
-422.238159179688

> <r_mmod_Solvation_Energy-OPLS-2005>
-213.226486206055

> <b_mmod_Minimization_Converged-OPLS-2005>
0

> <r_mmod_RMS_Derivative-OPLS-2005>
5.96464395523071

$$$$
79
                    3D
 Structure written by MMmdl.
181189  0  0  1  0            999 V2000
  -30.6520  -14.4929   20.3901 C   0  0  0  0  0  0
  -30.4265  -12.2477   19.4310 C   0  0  0  0  0  0
  -29.5064  -12.3494   18.1991 C   0  0  0  0  0  0
  -28.0031  -12.3471   18.5869 C   0  0  0  0  0  0
  -27.6486  -13.1867   19.8525 C   0  0  2  0  0  0
  -28.7006  -12.9931   20.9615 C   0  0  0  0  0  0
  -25.2597  -13.8134   20.5623 C   0  0  0  0  0  0
  -24.1846  -13.0434   20.9164 C   0  0  0  0  0  0
  -24.6396  -11.6874   20.8792 C   0  0  0  0  0  0
  -23.9101  -10.4270   21.0475 C   0  0  0  0  0  0
  -24.3607   -9.4166   21.9250 C   0  0  0  0  0  0
  -23.6255   -8.2195   22.0782 C   0  0  0  0  0  0
  -22.4246   -8.0253   21.3569 C   0  0  0  0  0  0
  -21.9907   -9.0243   20.4678 C   0  0  0  0  0  0
  -22.7283  -10.2098   20.3123 C   0  0  0  0  0  0
  -21.6836   -6.0726   22.5294 C   0  0  0  0  0  0
  -21.4013   -6.5631   23.8218 C   0  0  0  0  0  0
  -21.3650   -5.6786   24.9180 C   0  0  0  0  0  0
  -21.6027   -4.3057   24.7243 C   0  0  0  0  0  0
  -21.8816   -3.8148   23.4372 C   0  0  0  0  0  0
  -21.9157   -4.6957   22.3426 C   0  0  0  0  0  0
  -22.7873  -13.5224   21.1879 C   0  0  0  0  0  0
  -22.1624   -4.2145   21.1002 F   0  0  0  0  0  0
  -21.5607   -3.4533   25.7756 F   0  0  0  0  0  0
  -30.0117  -13.2939   20.3728 N   0  0  0  0  0  0
  -26.2967  -12.9213   20.3291 N   0  0  0  0  0  0
  -25.9309  -11.6425   20.5825 N   0  0  0  0  0  0
  -22.0492  -12.8172   22.0371 N   0  0  0  0  0  0
  -25.4432  -15.1853   20.4026 N   0  0  0  0  0  0
  -31.8788  -14.5755   20.2769 O   0  0  0  0  0  0
  -21.6612   -6.8851   21.4254 O   0  0  0  0  0  0
  -22.3591  -14.5607   20.6868 O   0  0  0  0  0  0
  -24.6102  -31.8725   23.2153 C   0  0  0  0  0  0
  -25.9013  -32.4866   23.8414 C   0  0  1  0  0  0
  -27.2248  -27.4814   20.0883 C   0  0  0  0  0  0
  -25.5886  -33.8666   24.2345 N   0  0  0  0  0  0
  -23.3936  -30.4974   21.5573 C   0  0  2  0  0  0
  -24.8359  -28.9705   20.1178 C   0  0  0  0  0  0
  -22.7380  -29.4677   22.5041 C   0  0  0  0  0  0
  -18.0262  -28.1362   22.8518 C   0  0  0  0  0  0
  -24.1480  -36.7334   23.2637 C   0  0  0  0  0  0
  -25.9151  -30.8566   21.3573 C   0  0  0  0  0  0
  -25.9956  -29.4934   20.7059 C   0  0  0  0  0  0
  -27.1967  -28.7551   20.6947 C   0  0  0  0  0  0
  -26.0532  -26.9550   19.5142 C   0  0  0  0  0  0
  -24.8565  -27.6970   19.5223 C   0  0  0  0  0  0
  -23.5983  -29.8356   20.1685 C   0  0  0  0  0  0
  -25.4106  -36.3150   24.0334 C   0  0  1  0  0  0
  -20.5848  -28.3640   23.1338 C   0  0  2  0  0  0
  -20.6750  -26.9387   22.5416 C   0  0  0  0  0  0
  -19.5726  -26.6374   21.5223 C   0  0  0  0  0  0
  -18.1896  -26.7908   22.1627 C   0  0  0  0  0  0
  -19.1504  -28.8817   23.2911 C   0  0  0  0  0  0
  -18.9444  -30.1429   23.8913 C   0  0  0  0  0  0
  -17.6446  -30.6587   24.0565 C   0  0  0  0  0  0
  -25.9035  -34.9505   23.5138 C   0  0  0  0  0  0
  -16.5339  -29.9090   23.6311 C   0  0  0  0  0  0
  -16.7259  -28.6496   23.0358 C   0  0  0  0  0  0
  -26.4455  -31.6631   25.0721 C   0  0  0  0  0  0
  -25.3742  -31.3686   26.1483 C   0  0  0  0  0  0
  -27.0286  -30.3095   24.6030 C   0  0  0  0  0  0
  -27.5984  -32.4361   25.7545 C   0  0  0  0  0  0
  -27.5583  -37.1839   24.8464 C   0  0  0  0  0  0
  -21.4107  -29.3039   22.3790 N   0  0  0  0  0  0
  -26.4303  -37.3821   23.9412 N   0  0  0  0  0  0
  -24.6573  -31.0868   22.1034 N   0  0  0  0  0  0
  -23.4189  -28.8192   23.3031 O   0  0  0  0  0  0
  -28.3382  -26.6896   20.0917 O   0  0  0  0  0  0
  -26.5569  -34.8950   22.4693 O   0  0  0  0  0  0
  -23.5300  -32.1456   23.7577 O   0  0  0  0  0  0
  -30.3095  -15.0515   14.7814 C   0  0  0  0  0  0
  -28.7121  -15.8938   17.7747 C   0  0  0  0  0  0
  -31.2800  -15.9528   17.8741 C   0  0  0  0  0  0
  -28.8289  -16.3961   16.3234 C   0  0  0  0  0  0
  -31.2321  -16.5848   16.4783 C   0  0  0  0  0  0
  -29.9603  -16.2003   18.6574 C   0  0  0  0  0  0
  -29.1125  -14.3693   14.1217 C   0  0  0  0  0  0
  -30.3828  -21.0602   19.7450 C   0  0  0  0  0  0
  -29.8394  -22.2998   19.0163 C   0  0  0  0  0  0
  -29.3352  -19.9365   19.8159 C   0  0  0  0  0  0
  -30.7674  -23.5318   19.0867 C   0  0  0  0  0  0
  -29.7118  -18.7991   20.7820 C   0  0  0  0  0  0
  -30.0238  -24.8367   18.7296 C   0  0  0  0  0  0
  -28.6268  -17.7015   20.8164 C   0  0  0  0  0  0
  -30.5307  -26.0714   19.5095 C   0  0  0  0  0  0
  -29.1385  -16.2665   21.0919 C   0  0  0  0  0  0
  -29.5229  -27.2329   19.5369 C   0  0  0  0  0  0
  -30.1157  -15.9748   15.7559 N   0  0  0  0  0  0
  -29.8686  -15.5492   20.0125 N   0  0  0  0  0  0
  -31.4358  -14.7260   14.3994 O   0  0  0  0  0  0
  -31.4719  -12.3398   19.1303 H   0  0  0  0  0  0
  -30.3292  -11.2628   19.8862 H   0  0  0  0  0  0
  -29.6940  -11.5030   17.5362 H   0  0  0  0  0  0
  -29.7876  -13.2186   17.6130 H   0  0  0  0  0  0
  -27.7194  -11.3093   18.7556 H   0  0  0  0  0  0
  -27.4019  -12.6829   17.7403 H   0  0  0  0  0  0
  -27.6599  -14.2303   19.5626 H   0  0  0  0  0  0
  -28.6739  -11.9631   21.3221 H   0  0  0  0  0  0
  -28.4947  -13.6091   21.8355 H   0  0  0  0  0  0
  -25.2743   -9.5541   22.4854 H   0  0  0  0  0  0
  -23.9938   -7.4558   22.7449 H   0  0  0  0  0  0
  -21.0852   -8.8782   19.8955 H   0  0  0  0  0  0
  -22.3817  -10.9634   19.6199 H   0  0  0  0  0  0
  -21.2057   -7.6147   23.9754 H   0  0  0  0  0  0
  -21.1449   -6.0516   25.9077 H   0  0  0  0  0  0
  -22.0613   -2.7613   23.2907 H   0  0  0  0  0  0
  -22.4038  -11.9800   22.4764 H   0  0  0  0  0  0
  -21.1175  -13.1301   22.2663 H   0  0  0  0  0  0
  -24.6829  -15.8513   20.4895 H   0  0  0  0  0  0
  -26.3174  -15.6153   20.1316 H   0  0  0  0  0  0
  -26.7089  -32.5598   23.1187 H   0  0  0  0  0  0
  -25.0080  -33.9851   25.0519 H   0  0  0  0  0  0
  -22.6796  -31.3117   21.4245 H   0  0  0  0  0  0
  -23.3757  -35.9652   23.3299 H   0  0  0  0  0  0
  -24.3577  -36.8956   22.2051 H   0  0  0  0  0  0
  -23.7207  -37.6528   23.6653 H   0  0  0  0  0  0
  -26.0106  -31.6186   20.5834 H   0  0  0  0  0  0
  -26.8104  -30.9170   21.9654 H   0  0  0  0  0  0
  -28.0855  -29.1508   21.1662 H   0  0  0  0  0  0
  -26.0689  -25.9718   19.0625 H   0  0  0  0  0  0
  -23.9618  -27.2801   19.0810 H   0  0  0  0  0  0
  -23.7125  -30.6156   19.4145 H   0  0  0  0  0  0
  -22.7198  -29.2618   19.8685 H   0  0  0  0  0  0
  -25.1292  -36.2015   25.0821 H   0  0  0  0  0  0
  -20.9927  -28.3185   24.1461 H   0  0  0  0  0  0
  -20.5669  -26.2254   23.3601 H   0  0  0  0  0  0
  -21.6612  -26.7442   22.1197 H   0  0  0  0  0  0
  -19.6873  -25.6282   21.1255 H   0  0  0  0  0  0
  -19.6649  -27.3191   20.6756 H   0  0  0  0  0  0
  -17.4169  -26.6695   21.4010 H   0  0  0  0  0  0
  -18.0264  -26.0034   22.9002 H   0  0  0  0  0  0
  -19.7910  -30.7240   24.2284 H   0  0  0  0  0  0
  -17.5006  -31.6276   24.5139 H   0  0  0  0  0  0
  -15.5346  -30.3010   23.7614 H   0  0  0  0  0  0
  -15.8652  -28.0834   22.7067 H   0  0  0  0  0  0
  -24.5904  -30.7047   25.7820 H   0  0  0  0  0  0
  -24.8954  -32.2823   26.5009 H   0  0  0  0  0  0
  -25.8124  -30.8801   27.0196 H   0  0  0  0  0  0
  -26.2816  -29.6908   24.1041 H   0  0  0  0  0  0
  -27.4051  -29.7269   25.4446 H   0  0  0  0  0  0
  -27.8641  -30.4463   23.9164 H   0  0  0  0  0  0
  -27.2553  -33.3656   26.2116 H   0  0  0  0  0  0
  -28.3845  -32.6947   25.0437 H   0  0  0  0  0  0
  -28.0595  -31.8494   26.5513 H   0  0  0  0  0  0
  -28.2579  -38.0156   24.7561 H   0  0  0  0  0  0
  -28.1111  -36.2695   24.6247 H   0  0  0  0  0  0
  -27.2308  -37.1434   25.8867 H   0  0  0  0  0  0
  -20.9252  -29.8845   21.7092 H   0  0  0  0  0  0
  -26.0194  -38.2906   24.1404 H   0  0  0  0  0  0
  -28.5229  -14.8347   17.7062 H   0  0  0  0  0  0
  -27.8093  -16.3166   18.2196 H   0  0  0  0  0  0
  -32.1216  -16.3868   18.4162 H   0  0  0  0  0  0
  -31.4882  -14.8895   17.7651 H   0  0  0  0  0  0
  -28.7566  -17.4841   16.2982 H   0  0  0  0  0  0
  -27.9743  -16.0269   15.7562 H   0  0  0  0  0  0
  -32.1915  -16.4594   15.9759 H   0  0  0  0  0  0
  -31.0868  -17.6660   16.5556 H   0  0  0  0  0  0
  -29.9797  -17.2758   18.7649 H   0  0  0  0  0  0
  -28.4613  -15.1057   13.6519 H   0  0  0  0  0  0
  -28.5357  -13.7930   14.8476 H   0  0  0  0  0  0
  -29.4457  -13.6841   13.3419 H   0  0  0  0  0  0
  -30.6712  -21.3426   20.7581 H   0  0  0  0  0  0
  -31.2886  -20.6969   19.2552 H   0  0  0  0  0  0
  -28.8855  -22.5522   19.4808 H   0  0  0  0  0  0
  -29.6083  -22.0565   17.9761 H   0  0  0  0  0  0
  -29.1826  -19.5393   18.8109 H   0  0  0  0  0  0
  -28.3730  -20.3481   20.1171 H   0  0  0  0  0  0
  -31.6281  -23.4026   18.4288 H   0  0  0  0  0  0
  -31.1715  -23.6034   20.0980 H   0  0  0  0  0  0
  -29.8496  -19.1872   21.7901 H   0  0  0  0  0  0
  -30.6792  -18.3861   20.4954 H   0  0  0  0  0  0
  -28.9637  -24.6949   18.9425 H   0  0  0  0  0  0
  -30.0714  -25.0186   17.6558 H   0  0  0  0  0  0
  -28.0298  -17.7134   19.9064 H   0  0  0  0  0  0
  -27.9126  -17.9724   21.5975 H   0  0  0  0  0  0
  -31.4817  -26.4080   19.0979 H   0  0  0  0  0  0
  -30.7303  -25.7901   20.5439 H   0  0  0  0  0  0
  -28.2540  -15.6887   21.3452 H   0  0  0  0  0  0
  -29.7482  -16.2869   21.9972 H   0  0  0  0  0  0
  -29.3359  -27.6192   18.5339 H   0  0  0  0  0  0
  -29.9000  -28.0539   20.1502 H   0  0  0  0  0  0
  1 25  1  0  0  0
  1 30  2  0  0  0
  1 89  1  0  0  0
  2  3  1  0  0  0
  2 25  1  0  0  0
  2 91  1  0  0  0
  2 92  1  0  0  0
  3  4  1  0  0  0
  3 93  1  0  0  0
  3 94  1  0  0  0
  4  5  1  0  0  0
  4 95  1  0  0  0
  4 96  1  0  0  0
  5  6  1  0  0  0
  5 26  1  0  0  0
  5 97  1  0  0  0
  6 25  1  0  0  0
  6 98  1  0  0  0
  6 99  1  0  0  0
  7  8  2  0  0  0
  7 26  1  0  0  0
  7 29  1  0  0  0
  8  9  1  0  0  0
  8 22  1  0  0  0
  9 10  1  0  0  0
  9 27  2  0  0  0
 10 11  2  0  0  0
 10 15  1  0  0  0
 11 12  1  0  0  0
 11100  1  0  0  0
 12 13  2  0  0  0
 12101  1  0  0  0
 13 14  1  0  0  0
 13 31  1  0  0  0
 14 15  2  0  0  0
 14102  1  0  0  0
 15103  1  0  0  0
 16 17  2  0  0  0
 16 21  1  0  0  0
 16 31  1  0  0  0
 17 18  1  0  0  0
 17104  1  0  0  0
 18 19  2  0  0  0
 18105  1  0  0  0
 19 20  1  0  0  0
 19 24  1  0  0  0
 20 21  2  0  0  0
 20106  1  0  0  0
 21 23  1  0  0  0
 22 28  1  0  0  0
 22 32  2  0  0  0
 26 27  1  0  0  0
 28107  1  0  0  0
 28108  1  0  0  0
 29109  1  0  0  0
 29110  1  0  0  0
 33 34  1  0  0  0
 33 66  1  0  0  0
 33 70  2  0  0  0
 34 36  1  0  0  0
 34 59  1  0  0  0
 34111  1  0  0  0
 35 44  2  0  0  0
 35 45  1  0  0  0
 35 68  1  0  0  0
 36 56  1  0  0  0
 36112  1  0  0  0
 37 39  1  0  0  0
 37 47  1  0  0  0
 37 66  1  0  0  0
 37113  1  0  0  0
 38 43  2  0  0  0
 38 46  1  0  0  0
 38 47  1  0  0  0
 39 64  1  0  0  0
 39 67  2  0  0  0
 40 52  1  0  0  0
 40 53  2  0  0  0
 40 58  1  0  0  0
 41114  1  0  0  0
 41115  1  0  0  0
 41116  1  0  0  0
 41 48  1  0  0  0
 42 43  1  0  0  0
 42 66  1  0  0  0
 42117  1  0  0  0
 42118  1  0  0  0
 43 44  1  0  0  0
 44119  1  0  0  0
 45 46  2  0  0  0
 45120  1  0  0  0
 46121  1  0  0  0
 47122  1  0  0  0
 47123  1  0  0  0
 48 56  1  0  0  0
 48 65  1  0  0  0
 48124  1  0  0  0
 49 50  1  0  0  0
 49 53  1  0  0  0
 49 64  1  0  0  0
 49125  1  0  0  0
 50 51  1  0  0  0
 50126  1  0  0  0
 50127  1  0  0  0
 51 52  1  0  0  0
 51128  1  0  0  0
 51129  1  0  0  0
 52130  1  0  0  0
 52131  1  0  0  0
 53 54  1  0  0  0
 54 55  2  0  0  0
 54132  1  0  0  0
 55 57  1  0  0  0
 55133  1  0  0  0
 56 69  2  0  0  0
 57 58  2  0  0  0
 57134  1  0  0  0
 58135  1  0  0  0
 59 60  1  0  0  0
 59 61  1  0  0  0
 59 62  1  0  0  0
 60136  1  0  0  0
 60137  1  0  0  0
 60138  1  0  0  0
 61139  1  0  0  0
 61140  1  0  0  0
 61141  1  0  0  0
 62142  1  0  0  0
 62143  1  0  0  0
 62144  1  0  0  0
 63 65  1  0  0  0
 63145  1  0  0  0
 63146  1  0  0  0
 63147  1  0  0  0
 64148  1  0  0  0
 65149  1  0  0  0
 68 87  1  0  0  0
 71 77  1  0  0  0
 71 88  1  0  0  0
 71 90  2  0  0  0
 72 74  1  0  0  0
 72 76  1  0  0  0
 72150  1  0  0  0
 72151  1  0  0  0
 73 75  1  0  0  0
 73 76  1  0  0  0
 73152  1  0  0  0
 73153  1  0  0  0
 74 88  1  0  0  0
 74154  1  0  0  0
 74155  1  0  0  0
 75 88  1  0  0  0
 75156  1  0  0  0
 75157  1  0  0  0
 76 89  1  0  0  0
 76158  1  0  0  0
 77159  1  0  0  0
 77160  1  0  0  0
 77161  1  0  0  0
 78 79  1  0  0  0
 78 80  1  0  0  0
 78162  1  0  0  0
 78163  1  0  0  0
 79 81  1  0  0  0
 79164  1  0  0  0
 79165  1  0  0  0
 80 82  1  0  0  0
 80166  1  0  0  0
 80167  1  0  0  0
 81 83  1  0  0  0
 81168  1  0  0  0
 81169  1  0  0  0
 82 84  1  0  0  0
 82170  1  0  0  0
 82171  1  0  0  0
 83 85  1  0  0  0
 83172  1  0  0  0
 83173  1  0  0  0
 84 86  1  0  0  0
 84174  1  0  0  0
 84175  1  0  0  0
 85 87  1  0  0  0
 85176  1  0  0  0
 85177  1  0  0  0
 86 89  1  0  0  0
 86178  1  0  0  0
 86179  1  0  0  0
 87180  1  0  0  0
 87181  1  0  0  0
M  ISO  4   1 100  68 101  87 101  89 100
M  END
> <chiral flag>
0

> <version>
0

> <s_m_source_file>
/data/baiqing/PycharmProjects/Reinvent-master-3.2/result/LINK_invent/BTK/process_docking_weight1_custom_sum_contain_oxygen_bond_distance_aromatic_linkinvent_7_9_3/rearranged_h_0013.sdf

> <i_m_source_file_index>
80

> <r_mmod_Potential_Energy-OPLS-2005>
309.605438232422

> <r_mmod_Stretch_Energy-OPLS-2005>
42.5591163635254

> <r_mmod_Bend_Energy-OPLS-2005>
122.638969421387

> <r_mmod_Torsional_Energy-OPLS-2005>
418.755767822266

> <r_mmod_Improper_Torsional_Energy-OPLS-2005>
17.1281032562256

> <r_mmod_Van_der_Waal_Energy-OPLS-2005>
152.507293701172

> <r_mmod_Electrostatic_Energy-OPLS-2005>
-267.039520263672

> <r_mmod_Solvation_Energy-OPLS-2005>
-207.39860534668

> <b_mmod_Minimization_Converged-OPLS-2005>
0

> <r_mmod_RMS_Derivative-OPLS-2005>
4.67667627334595

$$$$
80
                    3D
 Structure written by MMmdl.
154162  0  0  1  0            999 V2000
  -30.6074  -14.7431   20.4651 C   0  0  0  0  0  0
  -30.4333  -12.4562   19.4623 C   0  0  0  0  0  0
  -29.5067  -12.5081   18.2277 C   0  0  0  0  0  0
  -28.0323  -12.3314   18.6430 C   0  0  0  0  0  0
  -27.6386  -13.2308   19.8452 C   0  0  2  0  0  0
  -28.6863  -13.1635   20.9770 C   0  0  0  0  0  0
  -25.2495  -13.8199   20.5683 C   0  0  0  0  0  0
  -24.1798  -13.0438   20.9219 C   0  0  0  0  0  0
  -24.6392  -11.6923   20.8750 C   0  0  0  0  0  0
  -23.9072  -10.4293   21.0410 C   0  0  0  0  0  0
  -24.3624   -9.4206   21.9186 C   0  0  0  0  0  0
  -23.6294   -8.2243   22.0752 C   0  0  0  0  0  0
  -22.4275   -8.0281   21.3545 C   0  0  0  0  0  0
  -21.9918   -9.0256   20.4647 C   0  0  0  0  0  0
  -22.7248  -10.2133   20.3056 C   0  0  0  0  0  0
  -21.6854   -6.0732   22.5282 C   0  0  0  0  0  0
  -21.4019   -6.5637   23.8213 C   0  0  0  0  0  0
  -21.3661   -5.6792   24.9176 C   0  0  0  0  0  0
  -21.6042   -4.3053   24.7231 C   0  0  0  0  0  0
  -21.8817   -3.8144   23.4352 C   0  0  0  0  0  0
  -21.9193   -4.6960   22.3407 C   0  0  0  0  0  0
  -22.7813  -13.5213   21.1872 C   0  0  0  0  0  0
  -22.1657   -4.2146   21.0983 F   0  0  0  0  0  0
  -21.5629   -3.4535   25.7742 F   0  0  0  0  0  0
  -29.9845  -13.5178   20.3894 N   0  0  0  0  0  0
  -26.2920  -12.9408   20.3250 N   0  0  0  0  0  0
  -25.9322  -11.6551   20.5747 N   0  0  0  0  0  0
  -22.0461  -12.8205   22.0428 N   0  0  0  0  0  0
  -25.4130  -15.1932   20.4086 N   0  0  0  0  0  0
  -31.8074  -14.8392   20.1946 O   0  0  0  0  0  0
  -21.6638   -6.8879   21.4243 O   0  0  0  0  0  0
  -22.3494  -14.5515   20.6711 O   0  0  0  0  0  0
  -24.6309  -31.8546   23.1963 C   0  0  0  0  0  0
  -25.9128  -32.4757   23.8312 C   0  0  1  0  0  0
  -27.2261  -27.2620   20.1392 C   0  0  0  0  0  0
  -25.5923  -33.8558   24.2246 N   0  0  0  0  0  0
  -23.4281  -30.4756   21.5385 C   0  0  2  0  0  0
  -24.8785  -28.9133   20.1166 C   0  0  0  0  0  0
  -22.7498  -29.4606   22.4905 C   0  0  0  0  0  0
  -18.0296  -28.1394   22.8498 C   0  0  0  0  0  0
  -24.1474  -36.7275   23.2641 C   0  0  0  0  0  0
  -25.9728  -30.7676   21.3750 C   0  0  0  0  0  0
  -26.0495  -29.3874   20.7228 C   0  0  0  0  0  0
  -27.2297  -28.5758   20.7183 C   0  0  0  0  0  0
  -26.0344  -26.8499   19.5098 C   0  0  0  0  0  0
  -24.8755  -27.6525   19.4986 C   0  0  0  0  0  0
  -23.6486  -29.8008   20.1583 C   0  0  0  0  0  0
  -25.4109  -36.3074   24.0326 C   0  0  1  0  0  0
  -20.5899  -28.3701   23.1272 C   0  0  2  0  0  0
  -20.6774  -26.9415   22.5408 C   0  0  0  0  0  0
  -19.5748  -26.6394   21.5209 C   0  0  0  0  0  0
  -18.1935  -26.7938   22.1631 C   0  0  0  0  0  0
  -19.1548  -28.8864   23.2882 C   0  0  0  0  0  0
  -18.9469  -30.1472   23.8899 C   0  0  0  0  0  0
  -17.6468  -30.6596   24.0573 C   0  0  0  0  0  0
  -25.9051  -34.9444   23.5096 C   0  0  0  0  0  0
  -16.5361  -29.9096   23.6337 C   0  0  0  0  0  0
  -16.7282  -28.6511   23.0364 C   0  0  0  0  0  0
  -26.4490  -31.6587   25.0705 C   0  0  0  0  0  0
  -25.3707  -31.3740   26.1429 C   0  0  0  0  0  0
  -27.0331  -30.3006   24.6189 C   0  0  0  0  0  0
  -27.6036  -32.4322   25.7489 C   0  0  0  0  0  0
  -27.5571  -37.1798   24.8470 C   0  0  0  0  0  0
  -21.4200  -29.3052   22.3652 N   0  0  0  0  0  0
  -26.4281  -37.3778   23.9412 N   0  0  0  0  0  0
  -24.6963  -31.0506   22.0931 N   0  0  0  0  0  0
  -23.4198  -28.8162   23.3010 O   0  0  0  0  0  0
  -28.3222  -26.3713   20.1310 O   0  0  0  0  0  0
  -26.5625  -34.8928   22.4663 O   0  0  0  0  0  0
  -23.5462  -32.1354   23.7270 O   0  0  0  0  0  0
  -30.7557  -20.0860   21.2845 C   0  0  0  0  0  0
  -31.2664  -17.6829   21.5027 C   0  0  0  0  0  0
  -29.6077  -19.8258   20.5091 C   0  0  0  0  0  0
  -30.1303  -17.3138   20.7476 C   0  0  0  0  0  0
  -31.5670  -19.0368   21.7697 C   0  0  0  0  0  0
  -29.3074  -18.4148   20.2601 C   0  0  0  0  0  0
  -28.6421  -23.7110   19.9404 C   0  0  0  0  0  0
  -28.8698  -25.0919   22.1214 C   0  0  0  0  0  0
  -28.8054  -21.0684   19.8995 C   0  0  0  0  0  0
  -28.1610  -25.0125   20.7611 C   0  0  1  0  0  0
  -29.8042  -15.8712   20.5730 N   0  0  0  0  0  0
  -28.7659  -22.4611   20.5415 N   0  0  0  0  0  0
  -28.8396  -23.8300   18.7297 O   0  0  0  0  0  0
  -32.9632  -19.4197   22.7094 Cl  0  0  0  0  0  0
  -27.9143  -18.0103   19.3213 Cl  0  0  0  0  0  0
  -31.4734  -12.5858   19.1581 H   0  0  0  0  0  0
  -30.3804  -11.4795   19.9476 H   0  0  0  0  0  0
  -29.7880  -11.7378   17.5087 H   0  0  0  0  0  0
  -29.6296  -13.4640   17.7158 H   0  0  0  0  0  0
  -27.8872  -11.2826   18.9040 H   0  0  0  0  0  0
  -27.3746  -12.5249   17.7947 H   0  0  0  0  0  0
  -27.6299  -14.2513   19.4616 H   0  0  0  0  0  0
  -28.7233  -12.1642   21.4138 H   0  0  0  0  0  0
  -28.4245  -13.8443   21.7890 H   0  0  0  0  0  0
  -25.2770   -9.5677   22.4762 H   0  0  0  0  0  0
  -23.9999   -7.4635   22.7475 H   0  0  0  0  0  0
  -21.0846   -8.8786   19.8954 H   0  0  0  0  0  0
  -22.3714  -10.9676   19.6165 H   0  0  0  0  0  0
  -21.2014   -7.6145   23.9721 H   0  0  0  0  0  0
  -21.1483   -6.0517   25.9080 H   0  0  0  0  0  0
  -22.0594   -2.7607   23.2854 H   0  0  0  0  0  0
  -22.4081  -11.9874   22.4831 H   0  0  0  0  0  0
  -21.1075  -13.1228   22.2624 H   0  0  0  0  0  0
  -24.6357  -15.8342   20.5204 H   0  0  0  0  0  0
  -26.2407  -15.6439   20.0422 H   0  0  0  0  0  0
  -26.7194  -32.5406   23.1055 H   0  0  0  0  0  0
  -25.0049  -33.9680   25.0382 H   0  0  0  0  0  0
  -22.7239  -31.2972   21.3882 H   0  0  0  0  0  0
  -23.3744  -35.9600   23.3312 H   0  0  0  0  0  0
  -24.3557  -36.8890   22.2052 H   0  0  0  0  0  0
  -23.7216  -37.6475   23.6658 H   0  0  0  0  0  0
  -26.1062  -31.5247   20.6007 H   0  0  0  0  0  0
  -26.8520  -30.8231   22.0053 H   0  0  0  0  0  0
  -28.1303  -28.9399   21.1918 H   0  0  0  0  0  0
  -25.9968  -25.8823   19.0293 H   0  0  0  0  0  0
  -23.9799  -27.2843   19.0179 H   0  0  0  0  0  0
  -23.7731  -30.5705   19.3954 H   0  0  0  0  0  0
  -22.7673  -29.2309   19.8588 H   0  0  0  0  0  0
  -25.1293  -36.1917   25.0820 H   0  0  0  0  0  0
  -21.0008  -28.3284   24.1388 H   0  0  0  0  0  0
  -20.5649  -26.2321   23.3622 H   0  0  0  0  0  0
  -21.6647  -26.7420   22.1221 H   0  0  0  0  0  0
  -19.6897  -25.6303   21.1247 H   0  0  0  0  0  0
  -19.6686  -27.3197   20.6733 H   0  0  0  0  0  0
  -17.4201  -26.6697   21.4041 H   0  0  0  0  0  0
  -18.0341  -26.0072   22.9021 H   0  0  0  0  0  0
  -19.7942  -30.7291   24.2271 H   0  0  0  0  0  0
  -17.5018  -31.6276   24.5169 H   0  0  0  0  0  0
  -15.5364  -30.3001   23.7646 H   0  0  0  0  0  0
  -15.8686  -28.0827   22.7087 H   0  0  0  0  0  0
  -24.5890  -30.7076   25.7763 H   0  0  0  0  0  0
  -24.8879  -32.2910   26.4822 H   0  0  0  0  0  0
  -25.8028  -30.8948   27.0223 H   0  0  0  0  0  0
  -26.2921  -29.6768   24.1181 H   0  0  0  0  0  0
  -27.3966  -29.7257   25.4712 H   0  0  0  0  0  0
  -27.8813  -30.4283   23.9457 H   0  0  0  0  0  0
  -27.2651  -33.3632   26.2053 H   0  0  0  0  0  0
  -28.3873  -32.6865   25.0337 H   0  0  0  0  0  0
  -28.0670  -31.8441   26.5417 H   0  0  0  0  0  0
  -28.2612  -38.0076   24.7520 H   0  0  0  0  0  0
  -28.1054  -36.2616   24.6307 H   0  0  0  0  0  0
  -27.2291  -37.1459   25.8874 H   0  0  0  0  0  0
  -20.9386  -29.8769   21.6855 H   0  0  0  0  0  0
  -26.0160  -38.2853   24.1417 H   0  0  0  0  0  0
  -31.0373  -21.1081   21.4930 H   0  0  0  0  0  0
  -31.9171  -16.9231   21.9102 H   0  0  0  0  0  0
  -28.7573  -24.1710   22.6933 H   0  0  0  0  0  0
  -28.4575  -25.8992   22.7258 H   0  0  0  0  0  0
  -29.9356  -25.2840   21.9972 H   0  0  0  0  0  0
  -27.7649  -20.7614   19.7943 H   0  0  0  0  0  0
  -29.1710  -21.1861   18.8787 H   0  0  0  0  0  0
  -27.1019  -24.8439   20.9600 H   0  0  0  0  0  0
  -28.8175  -15.6730   20.5181 H   0  0  0  0  0  0
  -28.6154  -22.4587   21.5411 H   0  0  0  0  0  0
  1 25  1  0  0  0
  1 30  2  0  0  0
  1 81  1  0  0  0
  2  3  1  0  0  0
  2 25  1  0  0  0
  2 86  1  0  0  0
  2 87  1  0  0  0
  3  4  1  0  0  0
  3 88  1  0  0  0
  3 89  1  0  0  0
  4  5  1  0  0  0
  4 90  1  0  0  0
  4 91  1  0  0  0
  5  6  1  0  0  0
  5 26  1  0  0  0
  5 92  1  0  0  0
  6 25  1  0  0  0
  6 93  1  0  0  0
  6 94  1  0  0  0
  7  8  2  0  0  0
  7 26  1  0  0  0
  7 29  1  0  0  0
  8  9  1  0  0  0
  8 22  1  0  0  0
  9 10  1  0  0  0
  9 27  2  0  0  0
 10 11  2  0  0  0
 10 15  1  0  0  0
 11 12  1  0  0  0
 11 95  1  0  0  0
 12 13  2  0  0  0
 12 96  1  0  0  0
 13 14  1  0  0  0
 13 31  1  0  0  0
 14 15  2  0  0  0
 14 97  1  0  0  0
 15 98  1  0  0  0
 16 17  2  0  0  0
 16 21  1  0  0  0
 16 31  1  0  0  0
 17 18  1  0  0  0
 17 99  1  0  0  0
 18 19  2  0  0  0
 18100  1  0  0  0
 19 20  1  0  0  0
 19 24  1  0  0  0
 20 21  2  0  0  0
 20101  1  0  0  0
 21 23  1  0  0  0
 22 28  1  0  0  0
 22 32  2  0  0  0
 26 27  1  0  0  0
 28102  1  0  0  0
 28103  1  0  0  0
 29104  1  0  0  0
 29105  1  0  0  0
 33 34  1  0  0  0
 33 66  1  0  0  0
 33 70  2  0  0  0
 34 36  1  0  0  0
 34 59  1  0  0  0
 34106  1  0  0  0
 35 44  2  0  0  0
 35 45  1  0  0  0
 35 68  1  0  0  0
 36 56  1  0  0  0
 36107  1  0  0  0
 37 39  1  0  0  0
 37 47  1  0  0  0
 37 66  1  0  0  0
 37108  1  0  0  0
 38 43  2  0  0  0
 38 46  1  0  0  0
 38 47  1  0  0  0
 39 64  1  0  0  0
 39 67  2  0  0  0
 40 52  1  0  0  0
 40 53  2  0  0  0
 40 58  1  0  0  0
 41109  1  0  0  0
 41110  1  0  0  0
 41111  1  0  0  0
 41 48  1  0  0  0
 42 43  1  0  0  0
 42 66  1  0  0  0
 42112  1  0  0  0
 42113  1  0  0  0
 43 44  1  0  0  0
 44114  1  0  0  0
 45 46  2  0  0  0
 45115  1  0  0  0
 46116  1  0  0  0
 47117  1  0  0  0
 47118  1  0  0  0
 48 56  1  0  0  0
 48 65  1  0  0  0
 48119  1  0  0  0
 49 50  1  0  0  0
 49 53  1  0  0  0
 49 64  1  0  0  0
 49120  1  0  0  0
 50 51  1  0  0  0
 50121  1  0  0  0
 50122  1  0  0  0
 51 52  1  0  0  0
 51123  1  0  0  0
 51124  1  0  0  0
 52125  1  0  0  0
 52126  1  0  0  0
 53 54  1  0  0  0
 54 55  2  0  0  0
 54127  1  0  0  0
 55 57  1  0  0  0
 55128  1  0  0  0
 56 69  2  0  0  0
 57 58  2  0  0  0
 57129  1  0  0  0
 58130  1  0  0  0
 59 60  1  0  0  0
 59 61  1  0  0  0
 59 62  1  0  0  0
 60131  1  0  0  0
 60132  1  0  0  0
 60133  1  0  0  0
 61134  1  0  0  0
 61135  1  0  0  0
 61136  1  0  0  0
 62137  1  0  0  0
 62138  1  0  0  0
 62139  1  0  0  0
 63 65  1  0  0  0
 63140  1  0  0  0
 63141  1  0  0  0
 63142  1  0  0  0
 64143  1  0  0  0
 65144  1  0  0  0
 68 80  1  0  0  0
 71 73  2  0  0  0
 71 75  1  0  0  0
 71145  1  0  0  0
 72 74  1  0  0  0
 72 75  2  0  0  0
 72146  1  0  0  0
 73 76  1  0  0  0
 73 79  1  0  0  0
 74 76  2  0  0  0
 74 81  1  0  0  0
 75 84  1  0  0  0
 76 85  1  0  0  0
 77 80  1  0  0  0
 77 82  1  0  0  0
 77 83  2  0  0  0
 78147  1  0  0  0
 78148  1  0  0  0
 78149  1  0  0  0
 78 80  1  0  0  0
 79 82  1  0  0  0
 79150  1  0  0  0
 79151  1  0  0  0
 80152  1  0  0  0
 81153  1  0  0  0
 82154  1  0  0  0
M  ISO  4   1 100  68 101  80 101  81 100
M  END
> <chiral flag>
0

> <version>
0

> <s_m_source_file>
/data/baiqing/PycharmProjects/Reinvent-master-3.2/result/LINK_invent/BTK/process_docking_weight1_custom_sum_contain_oxygen_bond_distance_aromatic_linkinvent_7_9_3/rearranged_h_0013.sdf

> <i_m_source_file_index>
81

> <r_mmod_Potential_Energy-OPLS-2005>
63.2320365905762

> <r_mmod_Stretch_Energy-OPLS-2005>
125.714233398438

> <r_mmod_Bend_Energy-OPLS-2005>
154.136367797852

> <r_mmod_Torsional_Energy-OPLS-2005>
249.328262329102

> <r_mmod_Improper_Torsional_Energy-OPLS-2005>
7.68753099441528

> <r_mmod_Van_der_Waal_Energy-OPLS-2005>
126.734443664551

> <r_mmod_Electrostatic_Energy-OPLS-2005>
-445.548034667969

> <r_mmod_Solvation_Energy-OPLS-2005>
-239.263153076172

> <b_mmod_Minimization_Converged-OPLS-2005>
0

> <r_mmod_RMS_Derivative-OPLS-2005>
1.33358085155487

$$$$
81
                    3D
 Structure written by MMmdl.
146154  0  0  1  0            999 V2000
  -30.2690  -15.7162   20.3234 C   0  0  0  0  0  0
  -30.4237  -13.1408   19.5397 C   0  0  0  0  0  0
  -29.5554  -12.6802   18.3312 C   0  0  0  0  0  0
  -28.1392  -12.2956   18.7831 C   0  0  0  0  0  0
  -27.5954  -13.3125   19.8100 C   0  0  2  0  0  0
  -28.6055  -13.6813   20.9247 C   0  0  0  0  0  0
  -25.2315  -13.8278   20.5771 C   0  0  0  0  0  0
  -24.1714  -13.0423   20.9274 C   0  0  0  0  0  0
  -24.6423  -11.6937   20.8756 C   0  0  0  0  0  0
  -23.9126  -10.4282   21.0389 C   0  0  0  0  0  0
  -24.3654   -9.4194   21.9175 C   0  0  0  0  0  0
  -23.6303   -8.2245   22.0760 C   0  0  0  0  0  0
  -22.4285   -8.0284   21.3553 C   0  0  0  0  0  0
  -21.9932   -9.0261   20.4650 C   0  0  0  0  0  0
  -22.7286  -10.2129   20.3047 C   0  0  0  0  0  0
  -21.6858   -6.0735   22.5272 C   0  0  0  0  0  0
  -21.4018   -6.5639   23.8200 C   0  0  0  0  0  0
  -21.3657   -5.6794   24.9167 C   0  0  0  0  0  0
  -21.6044   -4.3056   24.7221 C   0  0  0  0  0  0
  -21.8819   -3.8144   23.4345 C   0  0  0  0  0  0
  -21.9194   -4.6955   22.3395 C   0  0  0  0  0  0
  -22.7725  -13.5156   21.1901 C   0  0  0  0  0  0
  -22.1660   -4.2141   21.0974 F   0  0  0  0  0  0
  -21.5626   -3.4540   25.7738 F   0  0  0  0  0  0
  -29.7704  -14.3292   20.2669 N   0  0  0  0  0  0
  -26.2776  -12.9624   20.3219 N   0  0  0  0  0  0
  -25.9375  -11.6690   20.5683 N   0  0  0  0  0  0
  -22.0391  -12.8144   22.0464 N   0  0  0  0  0  0
  -25.3886  -15.2019   20.4197 N   0  0  0  0  0  0
  -31.5080  -15.6512   20.1749 O   0  0  0  0  0  0
  -21.6644   -6.8881   21.4240 O   0  0  0  0  0  0
  -22.3401  -14.5453   20.6726 O   0  0  0  0  0  0
  -24.6890  -31.7935   23.1464 C   0  0  0  0  0  0
  -25.9444  -32.4432   23.8031 C   0  0  1  0  0  0
  -27.2289  -26.6476   20.2211 C   0  0  0  0  0  0
  -25.6014  -33.8261   24.1922 N   0  0  0  0  0  0
  -23.5175  -30.3941   21.5004 C   0  0  2  0  0  0
  -24.9765  -28.7242   20.1180 C   0  0  0  0  0  0
  -22.7795  -29.4288   22.4682 C   0  0  0  0  0  0
  -18.0348  -28.1434   22.8456 C   0  0  0  0  0  0
  -24.1492  -36.7123   23.2658 C   0  0  0  0  0  0
  -26.1011  -30.5088   21.4199 C   0  0  0  0  0  0
  -26.1662  -29.0679   20.7707 C   0  0  0  0  0  0
  -27.2740  -28.0581   20.7908 C   0  0  0  0  0  0
  -26.0062  -26.5291   19.5082 C   0  0  0  0  0  0
  -24.9391  -27.4814   19.4629 C   0  0  0  0  0  0
  -23.7753  -29.6863   20.1377 C   0  0  0  0  0  0
  -25.4143  -36.2868   24.0284 C   0  0  1  0  0  0
  -20.5988  -28.3791   23.1131 C   0  0  2  0  0  0
  -20.6814  -26.9446   22.5400 C   0  0  0  0  0  0
  -19.5785  -26.6371   21.5219 C   0  0  0  0  0  0
  -18.1969  -26.7960   22.1613 C   0  0  0  0  0  0
  -19.1618  -28.8934   23.2777 C   0  0  0  0  0  0
  -18.9520  -30.1517   23.8821 C   0  0  0  0  0  0
  -17.6512  -30.6613   24.0556 C   0  0  0  0  0  0
  -25.9124  -34.9262   23.4939 C   0  0  0  0  0  0
  -16.5398  -29.9091   23.6356 C   0  0  0  0  0  0
  -16.7328  -28.6514   23.0376 C   0  0  0  0  0  0
  -26.4603  -31.6488   25.0670 C   0  0  0  0  0  0
  -25.3650  -31.3825   26.1266 C   0  0  0  0  0  0
  -27.0540  -30.2820   24.6608 C   0  0  0  0  0  0
  -27.6061  -32.4350   25.7475 C   0  0  0  0  0  0
  -27.5557  -37.1718   24.8470 C   0  0  0  0  0  0
  -21.4433  -29.3027   22.3443 N   0  0  0  0  0  0
  -26.4258  -37.3642   23.9424 N   0  0  0  0  0  0
  -24.7933  -30.9327   22.0749 N   0  0  0  0  0  0
  -23.4219  -28.7904   23.3052 O   0  0  0  0  0  0
  -28.1711  -25.3918   20.3002 O   0  0  0  0  0  0
  -26.5770  -34.8859   22.4557 O   0  0  0  0  0  0
  -23.5894  -32.1043   23.6374 O   0  0  0  0  0  0
  -30.0130  -21.3612   20.3796 C   0  0  0  0  0  0
  -28.6975  -21.9399   20.2733 C   0  0  0  0  0  0
  -29.3784  -18.8207   20.3235 C   0  0  0  0  0  0
  -31.8285  -22.5699   19.1077 C   0  0  0  0  0  0
  -31.2141  -22.2576   20.4768 C   0  0  0  0  0  0
  -27.8554  -23.6491   20.1296 C   0  0  0  0  0  0
  -30.3245  -19.8532   20.3923 N   0  0  0  0  0  0
  -29.4567  -17.0693   20.3516 N   0  0  0  0  0  0
  -27.9038  -20.1435   20.2174 S   0  0  0  0  0  0
  -31.4098  -13.4186   19.1651 H   0  0  0  0  0  0
  -30.6064  -12.3109   20.2239 H   0  0  0  0  0  0
  -30.0287  -11.8452   17.8135 H   0  0  0  0  0  0
  -29.4921  -13.4949   17.6081 H   0  0  0  0  0  0
  -28.1925  -11.3085   19.2444 H   0  0  0  0  0  0
  -27.4697  -12.2016   17.9269 H   0  0  0  0  0  0
  -27.4470  -14.2202   19.2235 H   0  0  0  0  0  0
  -28.8824  -12.8143   21.5257 H   0  0  0  0  0  0
  -28.1517  -14.3960   21.6130 H   0  0  0  0  0  0
  -25.2799   -9.5665   22.4754 H   0  0  0  0  0  0
  -23.9992   -7.4650   22.7500 H   0  0  0  0  0  0
  -21.0854   -8.8795   19.8971 H   0  0  0  0  0  0
  -22.3738  -10.9669   19.6153 H   0  0  0  0  0  0
  -21.2012   -7.6148   23.9703 H   0  0  0  0  0  0
  -21.1477   -6.0524   25.9067 H   0  0  0  0  0  0
  -22.0598   -2.7605   23.2844 H   0  0  0  0  0  0
  -22.4027  -11.9821   22.4863 H   0  0  0  0  0  0
  -21.0999  -13.1149   22.2658 H   0  0  0  0  0  0
  -24.6086  -15.8429   20.5205 H   0  0  0  0  0  0
  -26.2165  -15.6442   20.0459 H   0  0  0  0  0  0
  -26.7533  -32.4887   23.0749 H   0  0  0  0  0  0
  -25.0094  -33.9293   25.0032 H   0  0  0  0  0  0
  -22.8464  -31.2332   21.3044 H   0  0  0  0  0  0
  -23.3775  -35.9425   23.3249 H   0  0  0  0  0  0
  -24.3571  -36.8847   22.2088 H   0  0  0  0  0  0
  -23.7214  -37.6273   23.6766 H   0  0  0  0  0  0
  -26.3114  -31.2306   20.6299 H   0  0  0  0  0  0
  -26.9502  -30.5779   22.0874 H   0  0  0  0  0  0
  -28.1608  -28.3282   21.3444 H   0  0  0  0  0  0
  -25.8298  -25.5929   18.9981 H   0  0  0  0  0  0
  -24.0432  -27.2084   18.9221 H   0  0  0  0  0  0
  -23.9570  -30.4442   19.3750 H   0  0  0  0  0  0
  -22.8792  -29.1571   19.8095 H   0  0  0  0  0  0
  -25.1352  -36.1614   25.0770 H   0  0  0  0  0  0
  -21.0072  -28.3408   24.1257 H   0  0  0  0  0  0
  -20.5681  -26.2413   23.3668 H   0  0  0  0  0  0
  -21.6675  -26.7391   22.1219 H   0  0  0  0  0  0
  -19.6952  -25.6263   21.1296 H   0  0  0  0  0  0
  -19.6736  -27.3148   20.6728 H   0  0  0  0  0  0
  -17.4244  -26.6712   21.4017 H   0  0  0  0  0  0
  -18.0350  -26.0136   22.9034 H   0  0  0  0  0  0
  -19.8001  -30.7356   24.2157 H   0  0  0  0  0  0
  -17.5065  -31.6286   24.5167 H   0  0  0  0  0  0
  -15.5401  -30.2974   23.7727 H   0  0  0  0  0  0
  -15.8725  -28.0807   22.7139 H   0  0  0  0  0  0
  -24.5863  -30.7152   25.7552 H   0  0  0  0  0  0
  -24.8808  -32.3049   26.4478 H   0  0  0  0  0  0
  -25.7801  -30.9121   27.0183 H   0  0  0  0  0  0
  -26.3274  -29.6413   24.1602 H   0  0  0  0  0  0
  -27.3958  -29.7291   25.5365 H   0  0  0  0  0  0
  -27.9249  -30.3940   24.0150 H   0  0  0  0  0  0
  -27.2636  -33.3765   26.1780 H   0  0  0  0  0  0
  -28.3998  -32.6717   25.0375 H   0  0  0  0  0  0
  -28.0569  -31.8643   26.5605 H   0  0  0  0  0  0
  -28.2529  -38.0061   24.7545 H   0  0  0  0  0  0
  -28.1098  -36.2582   24.6251 H   0  0  0  0  0  0
  -27.2284  -37.1299   25.8878 H   0  0  0  0  0  0
  -20.9745  -29.8657   21.6487 H   0  0  0  0  0  0
  -26.0065  -38.2675   24.1464 H   0  0  0  0  0  0
  -32.6998  -23.2169   19.2154 H   0  0  0  0  0  0
  -31.1128  -23.0825   18.4632 H   0  0  0  0  0  0
  -32.1502  -21.6603   18.6005 H   0  0  0  0  0  0
  -31.9740  -21.8005   21.1111 H   0  0  0  0  0  0
  -30.9467  -23.1927   20.9725 H   0  0  0  0  0  0
  -26.9772  -23.5491   20.7681 H   0  0  0  0  0  0
  -27.4238  -23.6271   19.1295 H   0  0  0  0  0  0
  -28.5008  -16.7529   20.3922 H   0  0  0  0  0  0
  1 25  1  0  0  0
  1 30  2  0  0  0
  1 78  1  0  0  0
  2  3  1  0  0  0
  2 25  1  0  0  0
  2 80  1  0  0  0
  2 81  1  0  0  0
  3  4  1  0  0  0
  3 82  1  0  0  0
  3 83  1  0  0  0
  4  5  1  0  0  0
  4 84  1  0  0  0
  4 85  1  0  0  0
  5  6  1  0  0  0
  5 26  1  0  0  0
  5 86  1  0  0  0
  6 25  1  0  0  0
  6 87  1  0  0  0
  6 88  1  0  0  0
  7  8  2  0  0  0
  7 26  1  0  0  0
  7 29  1  0  0  0
  8  9  1  0  0  0
  8 22  1  0  0  0
  9 10  1  0  0  0
  9 27  2  0  0  0
 10 11  2  0  0  0
 10 15  1  0  0  0
 11 12  1  0  0  0
 11 89  1  0  0  0
 12 13  2  0  0  0
 12 90  1  0  0  0
 13 14  1  0  0  0
 13 31  1  0  0  0
 14 15  2  0  0  0
 14 91  1  0  0  0
 15 92  1  0  0  0
 16 17  2  0  0  0
 16 21  1  0  0  0
 16 31  1  0  0  0
 17 18  1  0  0  0
 17 93  1  0  0  0
 18 19  2  0  0  0
 18 94  1  0  0  0
 19 20  1  0  0  0
 19 24  1  0  0  0
 20 21  2  0  0  0
 20 95  1  0  0  0
 21 23  1  0  0  0
 22 28  1  0  0  0
 22 32  2  0  0  0
 26 27  1  0  0  0
 28 96  1  0  0  0
 28 97  1  0  0  0
 29 98  1  0  0  0
 29 99  1  0  0  0
 33 34  1  0  0  0
 33 66  1  0  0  0
 33 70  2  0  0  0
 34 36  1  0  0  0
 34 59  1  0  0  0
 34100  1  0  0  0
 35 44  2  0  0  0
 35 45  1  0  0  0
 35 68  1  0  0  0
 36 56  1  0  0  0
 36101  1  0  0  0
 37 39  1  0  0  0
 37 47  1  0  0  0
 37 66  1  0  0  0
 37102  1  0  0  0
 38 43  2  0  0  0
 38 46  1  0  0  0
 38 47  1  0  0  0
 39 64  1  0  0  0
 39 67  2  0  0  0
 40 52  1  0  0  0
 40 53  2  0  0  0
 40 58  1  0  0  0
 41103  1  0  0  0
 41104  1  0  0  0
 41105  1  0  0  0
 41 48  1  0  0  0
 42 43  1  0  0  0
 42 66  1  0  0  0
 42106  1  0  0  0
 42107  1  0  0  0
 43 44  1  0  0  0
 44108  1  0  0  0
 45 46  2  0  0  0
 45109  1  0  0  0
 46110  1  0  0  0
 47111  1  0  0  0
 47112  1  0  0  0
 48 56  1  0  0  0
 48 65  1  0  0  0
 48113  1  0  0  0
 49 50  1  0  0  0
 49 53  1  0  0  0
 49 64  1  0  0  0
 49114  1  0  0  0
 50 51  1  0  0  0
 50115  1  0  0  0
 50116  1  0  0  0
 51 52  1  0  0  0
 51117  1  0  0  0
 51118  1  0  0  0
 52119  1  0  0  0
 52120  1  0  0  0
 53 54  1  0  0  0
 54 55  2  0  0  0
 54121  1  0  0  0
 55 57  1  0  0  0
 55122  1  0  0  0
 56 69  2  0  0  0
 57 58  2  0  0  0
 57123  1  0  0  0
 58124  1  0  0  0
 59 60  1  0  0  0
 59 61  1  0  0  0
 59 62  1  0  0  0
 60125  1  0  0  0
 60126  1  0  0  0
 60127  1  0  0  0
 61128  1  0  0  0
 61129  1  0  0  0
 61130  1  0  0  0
 62131  1  0  0  0
 62132  1  0  0  0
 62133  1  0  0  0
 63 65  1  0  0  0
 63134  1  0  0  0
 63135  1  0  0  0
 63136  1  0  0  0
 64137  1  0  0  0
 65138  1  0  0  0
 68 76  1  0  0  0
 71 72  2  0  0  0
 71 75  1  0  0  0
 71 77  1  0  0  0
 72 76  1  0  0  0
 72 79  1  0  0  0
 73 77  2  0  0  0
 73 78  1  0  0  0
 73 79  1  0  0  0
 74 75  1  0  0  0
 74139  1  0  0  0
 74140  1  0  0  0
 74141  1  0  0  0
 75142  1  0  0  0
 75143  1  0  0  0
 76144  1  0  0  0
 76145  1  0  0  0
 78146  1  0  0  0
M  ISO  4   1 100  68 101  76 101  78 100
M  END
> <chiral flag>
0

> <version>
0

> <s_m_source_file>
/data/baiqing/PycharmProjects/Reinvent-master-3.2/result/LINK_invent/BTK/process_docking_weight1_custom_sum_contain_oxygen_bond_distance_aromatic_linkinvent_7_9_3/rearranged_h_0013.sdf

> <i_m_source_file_index>
82

> <r_mmod_Potential_Energy-OPLS-2005>
2588.00024414062

> <r_mmod_Stretch_Energy-OPLS-2005>
1099.1767578125

> <r_mmod_Bend_Energy-OPLS-2005>
763.87255859375

> <r_mmod_Torsional_Energy-OPLS-2005>
207.070785522461

> <r_mmod_Improper_Torsional_Energy-OPLS-2005>
4.22369432449341

> <r_mmod_Van_der_Waal_Energy-OPLS-2005>
105.441467285156

> <r_mmod_Electrostatic_Energy-OPLS-2005>
-393.601196289062

> <r_mmod_Solvation_Energy-OPLS-2005>
-227.208969116211

> <b_mmod_Minimization_Converged-OPLS-2005>
0

> <r_mmod_RMS_Derivative-OPLS-2005>
1.6253137588501

$$$$
82
                    3D
 Structure written by MMmdl.
151159  0  0  1  0            999 V2000
  -30.6272  -14.7417   20.4570 C   0  0  0  0  0  0
  -30.4228  -12.4511   19.4775 C   0  0  0  0  0  0
  -29.5053  -12.5033   18.2373 C   0  0  0  0  0  0
  -28.0315  -12.3323   18.6509 C   0  0  0  0  0  0
  -27.6379  -13.2362   19.8499 C   0  0  2  0  0  0
  -28.6819  -13.1807   20.9862 C   0  0  0  0  0  0
  -25.2480  -13.8205   20.5697 C   0  0  0  0  0  0
  -24.1779  -13.0440   20.9203 C   0  0  0  0  0  0
  -24.6385  -11.6924   20.8751 C   0  0  0  0  0  0
  -23.9068  -10.4295   21.0410 C   0  0  0  0  0  0
  -24.3618   -9.4209   21.9187 C   0  0  0  0  0  0
  -23.6293   -8.2243   22.0755 C   0  0  0  0  0  0
  -22.4276   -8.0279   21.3544 C   0  0  0  0  0  0
  -21.9912   -9.0255   20.4647 C   0  0  0  0  0  0
  -22.7241  -10.2134   20.3058 C   0  0  0  0  0  0
  -21.6853   -6.0735   22.5278 C   0  0  0  0  0  0
  -21.4014   -6.5640   23.8210 C   0  0  0  0  0  0
  -21.3659   -5.6793   24.9173 C   0  0  0  0  0  0
  -21.6040   -4.3055   24.7223 C   0  0  0  0  0  0
  -21.8821   -3.8147   23.4344 C   0  0  0  0  0  0
  -21.9193   -4.6962   22.3401 C   0  0  0  0  0  0
  -22.7800  -13.5217   21.1867 C   0  0  0  0  0  0
  -22.1661   -4.2147   21.0978 F   0  0  0  0  0  0
  -21.5628   -3.4540   25.7737 F   0  0  0  0  0  0
  -29.9825  -13.5249   20.4007 N   0  0  0  0  0  0
  -26.2913  -12.9428   20.3290 N   0  0  0  0  0  0
  -25.9318  -11.6564   20.5763 N   0  0  0  0  0  0
  -22.0455  -12.8206   22.0430 N   0  0  0  0  0  0
  -25.4149  -15.1929   20.4130 N   0  0  0  0  0  0
  -31.8174  -14.7883   20.1381 O   0  0  0  0  0  0
  -21.6640   -6.8877   21.4239 O   0  0  0  0  0  0
  -22.3479  -14.5522   20.6719 O   0  0  0  0  0  0
  -24.6305  -31.8538   23.1963 C   0  0  0  0  0  0
  -25.9127  -32.4746   23.8310 C   0  0  1  0  0  0
  -27.2240  -27.2595   20.1249 C   0  0  0  0  0  0
  -25.5921  -33.8550   24.2234 N   0  0  0  0  0  0
  -23.4270  -30.4751   21.5396 C   0  0  2  0  0  0
  -24.8738  -28.9192   20.1070 C   0  0  0  0  0  0
  -22.7495  -29.4595   22.4906 C   0  0  0  0  0  0
  -18.0287  -28.1387   22.8487 C   0  0  0  0  0  0
  -24.1484  -36.7276   23.2644 C   0  0  0  0  0  0
  -25.9718  -30.7659   21.3750 C   0  0  0  0  0  0
  -26.0428  -29.3881   20.7169 C   0  0  0  0  0  0
  -27.2158  -28.5690   20.7163 C   0  0  0  0  0  0
  -26.0267  -26.8507   19.4962 C   0  0  0  0  0  0
  -24.8714  -27.6596   19.4865 C   0  0  0  0  0  0
  -23.6435  -29.8060   20.1557 C   0  0  0  0  0  0
  -25.4114  -36.3064   24.0325 C   0  0  1  0  0  0
  -20.5892  -28.3695   23.1270 C   0  0  2  0  0  0
  -20.6773  -26.9411   22.5411 C   0  0  0  0  0  0
  -19.5749  -26.6381   21.5216 C   0  0  0  0  0  0
  -18.1931  -26.7929   22.1627 C   0  0  0  0  0  0
  -19.1543  -28.8858   23.2874 C   0  0  0  0  0  0
  -18.9465  -30.1459   23.8896 C   0  0  0  0  0  0
  -17.6466  -30.6590   24.0563 C   0  0  0  0  0  0
  -25.9058  -34.9439   23.5086 C   0  0  0  0  0  0
  -16.5355  -29.9088   23.6331 C   0  0  0  0  0  0
  -16.7275  -28.6504   23.0358 C   0  0  0  0  0  0
  -26.4497  -31.6580   25.0707 C   0  0  0  0  0  0
  -25.3712  -31.3739   26.1422 C   0  0  0  0  0  0
  -27.0349  -30.2998   24.6196 C   0  0  0  0  0  0
  -27.6045  -32.4332   25.7481 C   0  0  0  0  0  0
  -27.5576  -37.1791   24.8469 C   0  0  0  0  0  0
  -21.4202  -29.3040   22.3659 N   0  0  0  0  0  0
  -26.4285  -37.3767   23.9416 N   0  0  0  0  0  0
  -24.6955  -31.0502   22.0933 N   0  0  0  0  0  0
  -23.4197  -28.8143   23.3012 O   0  0  0  0  0  0
  -28.3450  -26.4022   20.2146 O   0  0  0  0  0  0
  -26.5643  -34.8921   22.4662 O   0  0  0  0  0  0
  -23.5455  -32.1358   23.7264 O   0  0  0  0  0  0
  -31.6044  -17.7393   20.5371 C   0  0  0  0  0  0
  -31.9883  -19.0902   20.4785 C   0  0  0  0  0  0
  -29.6581  -19.8769   20.5245 C   0  0  0  0  0  0
  -30.2462  -17.3519   20.5843 C   0  0  0  0  0  0
  -31.0521  -20.1414   20.4763 C   0  0  0  0  0  0
  -29.2879  -18.4560   20.5872 C   0  0  0  0  0  0
  -28.3484  -23.7261   20.4870 C   0  0  0  0  0  0
  -28.6035  -21.0875   20.6243 C   0  0  0  0  0  0
  -28.4478  -25.0434   19.5745 C   0  0  0  0  0  0
  -29.8790  -15.9016   20.6580 N   0  0  0  0  0  0
  -28.8078  -22.4933   20.0391 N   0  0  0  0  0  0
  -27.8126  -23.8201   21.5932 O   0  0  0  0  0  0
  -31.6991  -21.7452   20.4653 Cl  0  0  0  0  0  0
  -27.6146  -18.0353   20.6919 Cl  0  0  0  0  0  0
  -31.4655  -12.5586   19.1745 H   0  0  0  0  0  0
  -30.3559  -11.4779   19.9661 H   0  0  0  0  0  0
  -29.7858  -11.7263   17.5250 H   0  0  0  0  0  0
  -29.6357  -13.4551   17.7203 H   0  0  0  0  0  0
  -27.8860  -11.2843   18.9152 H   0  0  0  0  0  0
  -27.3748  -12.5237   17.8013 H   0  0  0  0  0  0
  -27.6294  -14.2561   19.4646 H   0  0  0  0  0  0
  -28.7149  -12.1879   21.4375 H   0  0  0  0  0  0
  -28.4180  -13.8730   21.7871 H   0  0  0  0  0  0
  -25.2764   -9.5682   22.4762 H   0  0  0  0  0  0
  -23.9998   -7.4634   22.7477 H   0  0  0  0  0  0
  -21.0843   -8.8772   19.8954 H   0  0  0  0  0  0
  -22.3698  -10.9672   19.6165 H   0  0  0  0  0  0
  -21.2008   -7.6150   23.9711 H   0  0  0  0  0  0
  -21.1477   -6.0526   25.9074 H   0  0  0  0  0  0
  -22.0601   -2.7609   23.2846 H   0  0  0  0  0  0
  -22.4077  -11.9861   22.4799 H   0  0  0  0  0  0
  -21.1078  -13.1231   22.2662 H   0  0  0  0  0  0
  -24.6485  -15.8441   20.5401 H   0  0  0  0  0  0
  -26.2664  -15.6465   20.1091 H   0  0  0  0  0  0
  -26.7186  -32.5390   23.1043 H   0  0  0  0  0  0
  -25.0050  -33.9684   25.0366 H   0  0  0  0  0  0
  -22.7235  -31.2973   21.3924 H   0  0  0  0  0  0
  -23.3753  -35.9601   23.3305 H   0  0  0  0  0  0
  -24.3573  -36.8903   22.2059 H   0  0  0  0  0  0
  -23.7232  -37.6473   23.6669 H   0  0  0  0  0  0
  -26.1101  -31.5258   20.6049 H   0  0  0  0  0  0
  -26.8496  -30.8146   22.0078 H   0  0  0  0  0  0
  -28.1109  -28.9235   21.2074 H   0  0  0  0  0  0
  -25.9380  -25.8798   19.0357 H   0  0  0  0  0  0
  -23.9730  -27.2919   19.0105 H   0  0  0  0  0  0
  -23.7641  -30.5806   19.3974 H   0  0  0  0  0  0
  -22.7619  -29.2373   19.8540 H   0  0  0  0  0  0
  -25.1296  -36.1903   25.0816 H   0  0  0  0  0  0
  -20.9984  -28.3270   24.1390 H   0  0  0  0  0  0
  -20.5670  -26.2308   23.3618 H   0  0  0  0  0  0
  -21.6639  -26.7430   22.1205 H   0  0  0  0  0  0
  -19.6912  -25.6290   21.1249 H   0  0  0  0  0  0
  -19.6685  -27.3189   20.6744 H   0  0  0  0  0  0
  -17.4198  -26.6677   21.4033 H   0  0  0  0  0  0
  -18.0327  -26.0073   22.9025 H   0  0  0  0  0  0
  -19.7946  -30.7272   24.2266 H   0  0  0  0  0  0
  -17.5024  -31.6273   24.5159 H   0  0  0  0  0  0
  -15.5359  -30.2995   23.7659 H   0  0  0  0  0  0
  -15.8672  -28.0821   22.7082 H   0  0  0  0  0  0
  -24.5889  -30.7085   25.7750 H   0  0  0  0  0  0
  -24.8899  -32.2915   26.4816 H   0  0  0  0  0  0
  -25.8017  -30.8936   27.0217 H   0  0  0  0  0  0
  -26.2932  -29.6745   24.1211 H   0  0  0  0  0  0
  -27.4029  -29.7259   25.4711 H   0  0  0  0  0  0
  -27.8806  -30.4280   23.9436 H   0  0  0  0  0  0
  -27.2642  -33.3646   26.2020 H   0  0  0  0  0  0
  -28.3869  -32.6875   25.0317 H   0  0  0  0  0  0
  -28.0690  -31.8482   26.5429 H   0  0  0  0  0  0
  -28.2587  -38.0094   24.7520 H   0  0  0  0  0  0
  -28.1076  -36.2627   24.6281 H   0  0  0  0  0  0
  -27.2299  -37.1421   25.8873 H   0  0  0  0  0  0
  -20.9387  -29.8760   21.6861 H   0  0  0  0  0  0
  -26.0163  -38.2837   24.1423 H   0  0  0  0  0  0
  -32.4027  -17.0162   20.5622 H   0  0  0  0  0  0
  -33.0420  -19.3281   20.4546 H   0  0  0  0  0  0
  -28.3908  -21.2054   21.6876 H   0  0  0  0  0  0
  -27.6704  -20.7317   20.1881 H   0  0  0  0  0  0
  -27.7754  -24.9358   18.7264 H   0  0  0  0  0  0
  -29.4410  -25.0159   19.1264 H   0  0  0  0  0  0
  -28.8992  -15.7319   20.8262 H   0  0  0  0  0  0
  -29.2676  -22.5123   19.1388 H   0  0  0  0  0  0
  1 25  1  0  0  0
  1 30  2  0  0  0
  1 80  1  0  0  0
  2  3  1  0  0  0
  2 25  1  0  0  0
  2 85  1  0  0  0
  2 86  1  0  0  0
  3  4  1  0  0  0
  3 87  1  0  0  0
  3 88  1  0  0  0
  4  5  1  0  0  0
  4 89  1  0  0  0
  4 90  1  0  0  0
  5  6  1  0  0  0
  5 26  1  0  0  0
  5 91  1  0  0  0
  6 25  1  0  0  0
  6 92  1  0  0  0
  6 93  1  0  0  0
  7  8  2  0  0  0
  7 26  1  0  0  0
  7 29  1  0  0  0
  8  9  1  0  0  0
  8 22  1  0  0  0
  9 10  1  0  0  0
  9 27  2  0  0  0
 10 11  2  0  0  0
 10 15  1  0  0  0
 11 12  1  0  0  0
 11 94  1  0  0  0
 12 13  2  0  0  0
 12 95  1  0  0  0
 13 14  1  0  0  0
 13 31  1  0  0  0
 14 15  2  0  0  0
 14 96  1  0  0  0
 15 97  1  0  0  0
 16 17  2  0  0  0
 16 21  1  0  0  0
 16 31  1  0  0  0
 17 18  1  0  0  0
 17 98  1  0  0  0
 18 19  2  0  0  0
 18 99  1  0  0  0
 19 20  1  0  0  0
 19 24  1  0  0  0
 20 21  2  0  0  0
 20100  1  0  0  0
 21 23  1  0  0  0
 22 28  1  0  0  0
 22 32  2  0  0  0
 26 27  1  0  0  0
 28101  1  0  0  0
 28102  1  0  0  0
 29103  1  0  0  0
 29104  1  0  0  0
 33 34  1  0  0  0
 33 66  1  0  0  0
 33 70  2  0  0  0
 34 36  1  0  0  0
 34 59  1  0  0  0
 34105  1  0  0  0
 35 44  2  0  0  0
 35 45  1  0  0  0
 35 68  1  0  0  0
 36 56  1  0  0  0
 36106  1  0  0  0
 37 39  1  0  0  0
 37 47  1  0  0  0
 37 66  1  0  0  0
 37107  1  0  0  0
 38 43  2  0  0  0
 38 46  1  0  0  0
 38 47  1  0  0  0
 39 64  1  0  0  0
 39 67  2  0  0  0
 40 52  1  0  0  0
 40 53  2  0  0  0
 40 58  1  0  0  0
 41108  1  0  0  0
 41109  1  0  0  0
 41110  1  0  0  0
 41 48  1  0  0  0
 42 43  1  0  0  0
 42 66  1  0  0  0
 42111  1  0  0  0
 42112  1  0  0  0
 43 44  1  0  0  0
 44113  1  0  0  0
 45 46  2  0  0  0
 45114  1  0  0  0
 46115  1  0  0  0
 47116  1  0  0  0
 47117  1  0  0  0
 48 56  1  0  0  0
 48 65  1  0  0  0
 48118  1  0  0  0
 49 50  1  0  0  0
 49 53  1  0  0  0
 49 64  1  0  0  0
 49119  1  0  0  0
 50 51  1  0  0  0
 50120  1  0  0  0
 50121  1  0  0  0
 51 52  1  0  0  0
 51122  1  0  0  0
 51123  1  0  0  0
 52124  1  0  0  0
 52125  1  0  0  0
 53 54  1  0  0  0
 54 55  2  0  0  0
 54126  1  0  0  0
 55 57  1  0  0  0
 55127  1  0  0  0
 56 69  2  0  0  0
 57 58  2  0  0  0
 57128  1  0  0  0
 58129  1  0  0  0
 59 60  1  0  0  0
 59 61  1  0  0  0
 59 62  1  0  0  0
 60130  1  0  0  0
 60131  1  0  0  0
 60132  1  0  0  0
 61133  1  0  0  0
 61134  1  0  0  0
 61135  1  0  0  0
 62136  1  0  0  0
 62137  1  0  0  0
 62138  1  0  0  0
 63 65  1  0  0  0
 63139  1  0  0  0
 63140  1  0  0  0
 63141  1  0  0  0
 64142  1  0  0  0
 65143  1  0  0  0
 68 79  1  0  0  0
 71 72  2  0  0  0
 71 74  1  0  0  0
 71144  1  0  0  0
 72 75  1  0  0  0
 72145  1  0  0  0
 73 75  2  0  0  0
 73 76  1  0  0  0
 73 78  1  0  0  0
 74 76  2  0  0  0
 74 80  1  0  0  0
 75 83  1  0  0  0
 76 84  1  0  0  0
 77 79  1  0  0  0
 77 81  1  0  0  0
 77 82  2  0  0  0
 78 81  1  0  0  0
 78146  1  0  0  0
 78147  1  0  0  0
 79148  1  0  0  0
 79149  1  0  0  0
 80150  1  0  0  0
 81151  1  0  0  0
M  ISO  4   1 100  68 101  79 101  80 100
M  END
> <chiral flag>
0

> <version>
0

> <s_m_source_file>
/data/baiqing/PycharmProjects/Reinvent-master-3.2/result/LINK_invent/BTK/process_docking_weight1_custom_sum_contain_oxygen_bond_distance_aromatic_linkinvent_7_9_3/rearranged_h_0013.sdf

> <i_m_source_file_index>
83

> <r_mmod_Potential_Energy-OPLS-2005>
80.2558975219727

> <r_mmod_Stretch_Energy-OPLS-2005>
133.087020874023

> <r_mmod_Bend_Energy-OPLS-2005>
178.474182128906

> <r_mmod_Torsional_Energy-OPLS-2005>
202.679824829102

> <r_mmod_Improper_Torsional_Energy-OPLS-2005>
5.28032827377319

> <r_mmod_Van_der_Waal_Energy-OPLS-2005>
142.770431518555

> <r_mmod_Electrostatic_Energy-OPLS-2005>
-426.509857177734

> <r_mmod_Solvation_Energy-OPLS-2005>
-238.741622924805

> <b_mmod_Minimization_Converged-OPLS-2005>
0

> <r_mmod_RMS_Derivative-OPLS-2005>
0.741690874099731

$$$$
83
                    3D
 Structure written by MMmdl.
162170  0  0  1  0            999 V2000
  -30.6668  -14.4976   20.5774 C   0  0  0  0  0  0
  -30.4294  -12.3261   19.4192 C   0  0  0  0  0  0
  -29.4954  -12.5089   18.2037 C   0  0  0  0  0  0
  -28.0150  -12.3627   18.6164 C   0  0  0  0  0  0
  -27.6569  -13.2035   19.8712 C   0  0  2  0  0  0
  -28.6980  -12.9839   20.9908 C   0  0  0  0  0  0
  -25.2554  -13.8151   20.5663 C   0  0  0  0  0  0
  -24.1814  -13.0433   20.9172 C   0  0  0  0  0  0
  -24.6377  -11.6899   20.8729 C   0  0  0  0  0  0
  -23.9054  -10.4287   21.0413 C   0  0  0  0  0  0
  -24.3612   -9.4198   21.9184 C   0  0  0  0  0  0
  -23.6290   -8.2237   22.0760 C   0  0  0  0  0  0
  -22.4268   -8.0279   21.3550 C   0  0  0  0  0  0
  -21.9904   -9.0252   20.4645 C   0  0  0  0  0  0
  -22.7236  -10.2127   20.3051 C   0  0  0  0  0  0
  -21.6848   -6.0728   22.5273 C   0  0  0  0  0  0
  -21.4010   -6.5635   23.8205 C   0  0  0  0  0  0
  -21.3654   -5.6791   24.9172 C   0  0  0  0  0  0
  -21.6045   -4.3053   24.7229 C   0  0  0  0  0  0
  -21.8819   -3.8141   23.4349 C   0  0  0  0  0  0
  -21.9196   -4.6958   22.3404 C   0  0  0  0  0  0
  -22.7831  -13.5229   21.1839 C   0  0  0  0  0  0
  -22.1652   -4.2144   21.0980 F   0  0  0  0  0  0
  -21.5638   -3.4537   25.7743 F   0  0  0  0  0  0
  -30.0238  -13.3072   20.4362 N   0  0  0  0  0  0
  -26.2978  -12.9311   20.3315 N   0  0  0  0  0  0
  -25.9288  -11.6474   20.5741 N   0  0  0  0  0  0
  -22.0480  -12.8223   22.0398 N   0  0  0  0  0  0
  -25.4252  -15.1872   20.4058 N   0  0  0  0  0  0
  -31.8115  -14.6948   20.1579 O   0  0  0  0  0  0
  -21.6633   -6.8874   21.4235 O   0  0  0  0  0  0
  -22.3508  -14.5543   20.6702 O   0  0  0  0  0  0
  -24.6173  -31.8682   23.2076 C   0  0  0  0  0  0
  -25.9068  -32.4817   23.8389 C   0  0  1  0  0  0
  -27.2285  -27.4094   20.0889 C   0  0  0  0  0  0
  -25.5925  -33.8617   24.2321 N   0  0  0  0  0  0
  -23.4054  -30.4917   21.5500 C   0  0  2  0  0  0
  -24.8452  -28.9521   20.1187 C   0  0  0  0  0  0
  -22.7421  -29.4669   22.4984 C   0  0  0  0  0  0
  -18.0288  -28.1369   22.8492 C   0  0  0  0  0  0
  -24.1496  -36.7320   23.2640 C   0  0  0  0  0  0
  -25.9369  -30.8230   21.3638 C   0  0  0  0  0  0
  -26.0088  -29.4557   20.7119 C   0  0  0  0  0  0
  -27.2005  -28.6918   20.6926 C   0  0  0  0  0  0
  -26.0326  -26.9178   19.5120 C   0  0  0  0  0  0
  -24.8532  -27.6822   19.5197 C   0  0  0  0  0  0
  -23.6136  -29.8249   20.1650 C   0  0  0  0  0  0
  -25.4118  -36.3106   24.0337 C   0  0  1  0  0  0
  -20.5878  -28.3669   23.1299 C   0  0  2  0  0  0
  -20.6799  -26.9418   22.5361 C   0  0  0  0  0  0
  -19.5749  -26.6361   21.5207 C   0  0  0  0  0  0
  -18.1947  -26.7892   22.1666 C   0  0  0  0  0  0
  -19.1534  -28.8837   23.2888 C   0  0  0  0  0  0
  -18.9463  -30.1437   23.8910 C   0  0  0  0  0  0
  -17.6470  -30.6573   24.0577 C   0  0  0  0  0  0
  -25.9045  -34.9473   23.5123 C   0  0  0  0  0  0
  -16.5362  -29.9075   23.6350 C   0  0  0  0  0  0
  -16.7287  -28.6502   23.0336 C   0  0  0  0  0  0
  -26.4483  -31.6594   25.0730 C   0  0  0  0  0  0
  -25.3743  -31.3701   26.1481 C   0  0  0  0  0  0
  -27.0322  -30.3037   24.6116 C   0  0  0  0  0  0
  -27.6051  -32.4323   25.7499 C   0  0  0  0  0  0
  -27.5585  -37.1819   24.8466 C   0  0  0  0  0  0
  -21.4144  -29.3055   22.3724 N   0  0  0  0  0  0
  -26.4305  -37.3794   23.9403 N   0  0  0  0  0  0
  -24.6722  -31.0764   22.0986 N   0  0  0  0  0  0
  -23.4179  -28.8208   23.3041 O   0  0  0  0  0  0
  -28.4215  -26.7042   20.0874 O   0  0  0  0  0  0
  -26.5592  -34.8929   22.4673 O   0  0  0  0  0  0
  -23.5360  -32.1449   23.7448 O   0  0  0  0  0  0
  -30.7428  -19.6360   21.5712 C   0  0  0  0  0  0
  -31.3404  -17.2874   21.9073 C   0  0  0  0  0  0
  -31.6166  -18.6570   22.0902 C   0  0  0  0  0  0
  -29.5768  -19.2616   20.8638 C   0  0  0  0  0  0
  -30.1977  -16.8808   21.1874 C   0  0  0  0  0  0
  -29.3171  -17.8711   20.6731 C   0  0  0  0  0  0
  -32.8637  -19.0797   22.8403 C   0  0  0  0  0  0
  -26.7431  -22.5709   19.4730 C   0  0  0  0  0  0
  -28.6452  -20.3275   20.2450 C   0  0  0  0  0  0
  -28.3475  -24.2343   20.5484 C   0  0  0  0  0  0
  -28.5053  -25.3836   19.5112 C   0  0  0  0  0  0
  -28.2052  -22.8080   19.9177 C   0  0  1  0  0  0
  -29.8853  -15.4940   21.0417 N   0  0  0  0  0  0
  -28.7083  -21.7096   20.8098 N   0  3  0  0  0  0
  -27.9331  -17.3624   19.7679 Cl  0  0  0  0  0  0
  -31.4710  -12.4490   19.1162 H   0  0  0  0  0  0
  -30.3497  -11.3155   19.8226 H   0  0  0  0  0  0
  -29.7414  -11.7823   17.4277 H   0  0  0  0  0  0
  -29.6539  -13.4929   17.7597 H   0  0  0  0  0  0
  -27.8231  -11.3052   18.8079 H   0  0  0  0  0  0
  -27.3654  -12.6413   17.7864 H   0  0  0  0  0  0
  -27.6970  -14.2506   19.5708 H   0  0  0  0  0  0
  -28.6828  -11.9443   21.3212 H   0  0  0  0  0  0
  -28.4551  -13.5743   21.8759 H   0  0  0  0  0  0
  -25.2761   -9.5674   22.4753 H   0  0  0  0  0  0
  -23.9997   -7.4632   22.7483 H   0  0  0  0  0  0
  -21.0833   -8.8769   19.8956 H   0  0  0  0  0  0
  -22.3704  -10.9664   19.6153 H   0  0  0  0  0  0
  -21.1991   -7.6140   23.9709 H   0  0  0  0  0  0
  -21.1474   -6.0518   25.9075 H   0  0  0  0  0  0
  -22.0609   -2.7602   23.2854 H   0  0  0  0  0  0
  -22.4079  -11.9884   22.4794 H   0  0  0  0  0  0
  -21.1084  -13.1230   22.2580 H   0  0  0  0  0  0
  -24.6562  -15.8396   20.5139 H   0  0  0  0  0  0
  -26.2695  -15.6328   20.0672 H   0  0  0  0  0  0
  -26.7133  -32.5513   23.1145 H   0  0  0  0  0  0
  -25.0127  -33.9795   25.0498 H   0  0  0  0  0  0
  -22.6955  -31.3101   21.4090 H   0  0  0  0  0  0
  -23.3751  -35.9663   23.3309 H   0  0  0  0  0  0
  -24.3579  -36.8921   22.2047 H   0  0  0  0  0  0
  -23.7255  -37.6536   23.6645 H   0  0  0  0  0  0
  -26.0588  -31.5869   20.5956 H   0  0  0  0  0  0
  -26.8225  -30.8716   21.9849 H   0  0  0  0  0  0
  -28.1028  -29.0835   21.1420 H   0  0  0  0  0  0
  -25.9676  -25.9451   19.0518 H   0  0  0  0  0  0
  -23.9553  -27.2822   19.0692 H   0  0  0  0  0  0
  -23.7347  -30.6016   19.4085 H   0  0  0  0  0  0
  -22.7325  -29.2550   19.8637 H   0  0  0  0  0  0
  -25.1288  -36.1980   25.0832 H   0  0  0  0  0  0
  -20.9966  -28.3243   24.1423 H   0  0  0  0  0  0
  -20.5769  -26.2274   23.3536 H   0  0  0  0  0  0
  -21.6666  -26.7482   22.1138 H   0  0  0  0  0  0
  -19.6893  -25.6267   21.1221 H   0  0  0  0  0  0
  -19.6642  -27.3168   20.6732 H   0  0  0  0  0  0
  -17.4177  -26.6597   21.4123 H   0  0  0  0  0  0
  -18.0383  -26.0071   22.9111 H   0  0  0  0  0  0
  -19.7926  -30.7270   24.2281 H   0  0  0  0  0  0
  -17.5033  -31.6257   24.5199 H   0  0  0  0  0  0
  -15.5372  -30.2994   23.7674 H   0  0  0  0  0  0
  -15.8681  -28.0829   22.7053 H   0  0  0  0  0  0
  -24.5912  -30.7058   25.7813 H   0  0  0  0  0  0
  -24.8959  -32.2863   26.4959 H   0  0  0  0  0  0
  -25.8115  -30.8848   27.0216 H   0  0  0  0  0  0
  -26.2872  -29.6787   24.1187 H   0  0  0  0  0  0
  -27.4098  -29.7294   25.4577 H   0  0  0  0  0  0
  -27.8701  -30.4352   23.9271 H   0  0  0  0  0  0
  -27.2663  -33.3606   26.2121 H   0  0  0  0  0  0
  -28.3859  -32.6911   25.0331 H   0  0  0  0  0  0
  -28.0739  -31.8424   26.5386 H   0  0  0  0  0  0
  -28.2609  -38.0105   24.7496 H   0  0  0  0  0  0
  -28.1072  -36.2634   24.6316 H   0  0  0  0  0  0
  -27.2302  -37.1503   25.8869 H   0  0  0  0  0  0
  -20.9295  -29.8736   21.6917 H   0  0  0  0  0  0
  -26.0191  -38.2883   24.1370 H   0  0  0  0  0  0
  -30.9900  -20.6787   21.7193 H   0  0  0  0  0  0
  -32.0067  -16.5443   22.3247 H   0  0  0  0  0  0
  -32.6157  -19.3647   23.8628 H   0  0  0  0  0  0
  -33.3385  -19.9333   22.3548 H   0  0  0  0  0  0
  -33.5968  -18.2718   22.8783 H   0  0  0  0  0  0
  -26.6345  -21.6654   18.8754 H   0  0  0  0  0  0
  -26.3815  -23.3921   18.8554 H   0  0  0  0  0  0
  -26.0682  -22.4891   20.3254 H   0  0  0  0  0  0
  -27.6128  -19.9922   20.3470 H   0  0  0  0  0  0
  -28.8630  -20.3576   19.1778 H   0  0  0  0  0  0
  -27.4874  -24.4362   21.1885 H   0  0  0  0  0  0
  -29.2159  -24.2688   21.2074 H   0  0  0  0  0  0
  -27.8561  -25.2546   18.6476 H   0  0  0  0  0  0
  -29.5046  -25.3033   19.0828 H   0  0  0  0  0  0
  -28.8334  -22.7853   19.0254 H   0  0  0  0  0  0
  -28.9145  -15.2478   21.1545 H   0  0  0  0  0  0
  -29.6730  -21.9086   21.0175 H   0  0  0  0  0  0
  -28.2060  -21.7139   21.6838 H   0  0  0  0  0  0
  1 25  1  0  0  0
  1 30  2  0  0  0
  1 83  1  0  0  0
  2  3  1  0  0  0
  2 25  1  0  0  0
  2 86  1  0  0  0
  2 87  1  0  0  0
  3  4  1  0  0  0
  3 88  1  0  0  0
  3 89  1  0  0  0
  4  5  1  0  0  0
  4 90  1  0  0  0
  4 91  1  0  0  0
  5  6  1  0  0  0
  5 26  1  0  0  0
  5 92  1  0  0  0
  6 25  1  0  0  0
  6 93  1  0  0  0
  6 94  1  0  0  0
  7  8  2  0  0  0
  7 26  1  0  0  0
  7 29  1  0  0  0
  8  9  1  0  0  0
  8 22  1  0  0  0
  9 10  1  0  0  0
  9 27  2  0  0  0
 10 11  2  0  0  0
 10 15  1  0  0  0
 11 12  1  0  0  0
 11 95  1  0  0  0
 12 13  2  0  0  0
 12 96  1  0  0  0
 13 14  1  0  0  0
 13 31  1  0  0  0
 14 15  2  0  0  0
 14 97  1  0  0  0
 15 98  1  0  0  0
 16 17  2  0  0  0
 16 21  1  0  0  0
 16 31  1  0  0  0
 17 18  1  0  0  0
 17 99  1  0  0  0
 18 19  2  0  0  0
 18100  1  0  0  0
 19 20  1  0  0  0
 19 24  1  0  0  0
 20 21  2  0  0  0
 20101  1  0  0  0
 21 23  1  0  0  0
 22 28  1  0  0  0
 22 32  2  0  0  0
 26 27  1  0  0  0
 28102  1  0  0  0
 28103  1  0  0  0
 29104  1  0  0  0
 29105  1  0  0  0
 33 34  1  0  0  0
 33 66  1  0  0  0
 33 70  2  0  0  0
 34 36  1  0  0  0
 34 59  1  0  0  0
 34106  1  0  0  0
 35 44  2  0  0  0
 35 45  1  0  0  0
 35 68  1  0  0  0
 36 56  1  0  0  0
 36107  1  0  0  0
 37 39  1  0  0  0
 37 47  1  0  0  0
 37 66  1  0  0  0
 37108  1  0  0  0
 38 43  2  0  0  0
 38 46  1  0  0  0
 38 47  1  0  0  0
 39 64  1  0  0  0
 39 67  2  0  0  0
 40 52  1  0  0  0
 40 53  2  0  0  0
 40 58  1  0  0  0
 41109  1  0  0  0
 41110  1  0  0  0
 41111  1  0  0  0
 41 48  1  0  0  0
 42 43  1  0  0  0
 42 66  1  0  0  0
 42112  1  0  0  0
 42113  1  0  0  0
 43 44  1  0  0  0
 44114  1  0  0  0
 45 46  2  0  0  0
 45115  1  0  0  0
 46116  1  0  0  0
 47117  1  0  0  0
 47118  1  0  0  0
 48 56  1  0  0  0
 48 65  1  0  0  0
 48119  1  0  0  0
 49 50  1  0  0  0
 49 53  1  0  0  0
 49 64  1  0  0  0
 49120  1  0  0  0
 50 51  1  0  0  0
 50121  1  0  0  0
 50122  1  0  0  0
 51 52  1  0  0  0
 51123  1  0  0  0
 51124  1  0  0  0
 52125  1  0  0  0
 52126  1  0  0  0
 53 54  1  0  0  0
 54 55  2  0  0  0
 54127  1  0  0  0
 55 57  1  0  0  0
 55128  1  0  0  0
 56 69  2  0  0  0
 57 58  2  0  0  0
 57129  1  0  0  0
 58130  1  0  0  0
 59 60  1  0  0  0
 59 61  1  0  0  0
 59 62  1  0  0  0
 60131  1  0  0  0
 60132  1  0  0  0
 60133  1  0  0  0
 61134  1  0  0  0
 61135  1  0  0  0
 61136  1  0  0  0
 62137  1  0  0  0
 62138  1  0  0  0
 62139  1  0  0  0
 63 65  1  0  0  0
 63140  1  0  0  0
 63141  1  0  0  0
 63142  1  0  0  0
 64143  1  0  0  0
 65144  1  0  0  0
 68 81  1  0  0  0
 71 73  2  0  0  0
 71 74  1  0  0  0
 71145  1  0  0  0
 72 73  1  0  0  0
 72 75  2  0  0  0
 72146  1  0  0  0
 73 77  1  0  0  0
 74 76  2  0  0  0
 74 79  1  0  0  0
 75 76  1  0  0  0
 75 83  1  0  0  0
 76 85  1  0  0  0
 77147  1  0  0  0
 77148  1  0  0  0
 77149  1  0  0  0
 78150  1  0  0  0
 78151  1  0  0  0
 78152  1  0  0  0
 78 82  1  0  0  0
 79 84  1  0  0  0
 79153  1  0  0  0
 79154  1  0  0  0
 80 81  1  0  0  0
 80 82  1  0  0  0
 80155  1  0  0  0
 80156  1  0  0  0
 81157  1  0  0  0
 81158  1  0  0  0
 82 84  1  0  0  0
 82159  1  0  0  0
 83160  1  0  0  0
 84161  1  0  0  0
 84162  1  0  0  0
M  CHG  1  84   1
M  ISO  4   1 100  68 101  81 101  83 100
M  END
> <chiral flag>
0

> <version>
0

> <s_m_source_file>
/data/baiqing/PycharmProjects/Reinvent-master-3.2/result/LINK_invent/BTK/process_docking_weight1_custom_sum_contain_oxygen_bond_distance_aromatic_linkinvent_7_9_3/rearranged_h_0013.sdf

> <i_m_source_file_index>
84

> <r_mmod_Potential_Energy-OPLS-2005>
-242.718963623047

> <r_mmod_Stretch_Energy-OPLS-2005>
43.7971458435059

> <r_mmod_Bend_Energy-OPLS-2005>
107.864135742188

> <r_mmod_Torsional_Energy-OPLS-2005>
223.712905883789

> <r_mmod_Improper_Torsional_Energy-OPLS-2005>
4.53146076202393

> <r_mmod_Van_der_Waal_Energy-OPLS-2005>
150.818664550781

> <r_mmod_Electrostatic_Energy-OPLS-2005>
-322.235107421875

> <r_mmod_Solvation_Energy-OPLS-2005>
-467.527221679688

> <b_mmod_Minimization_Converged-OPLS-2005>
0

> <r_mmod_RMS_Derivative-OPLS-2005>
2.51782393455505

$$$$
84
                    3D
 Structure written by MMmdl.
149157  0  0  1  0            999 V2000
  -30.5276  -15.0176   20.4056 C   0  0  0  0  0  0
  -30.4394  -12.6353   19.5032 C   0  0  0  0  0  0
  -29.5239  -12.5336   18.2613 C   0  0  0  0  0  0
  -28.0604  -12.3080   18.6834 C   0  0  0  0  0  0
  -27.6249  -13.2542   19.8324 C   0  0  2  0  0  0
  -28.6666  -13.3228   20.9685 C   0  0  0  0  0  0
  -25.2447  -13.8224   20.5722 C   0  0  0  0  0  0
  -24.1771  -13.0441   20.9238 C   0  0  0  0  0  0
  -24.6399  -11.6929   20.8761 C   0  0  0  0  0  0
  -23.9087  -10.4295   21.0412 C   0  0  0  0  0  0
  -24.3630   -9.4210   21.9191 C   0  0  0  0  0  0
  -23.6301   -8.2245   22.0757 C   0  0  0  0  0  0
  -22.4285   -8.0284   21.3543 C   0  0  0  0  0  0
  -21.9924   -9.0261   20.4645 C   0  0  0  0  0  0
  -22.7259  -10.2142   20.3059 C   0  0  0  0  0  0
  -21.6857   -6.0741   22.5279 C   0  0  0  0  0  0
  -21.4012   -6.5640   23.8216 C   0  0  0  0  0  0
  -21.3661   -5.6791   24.9174 C   0  0  0  0  0  0
  -21.6047   -4.3054   24.7223 C   0  0  0  0  0  0
  -21.8819   -3.8149   23.4342 C   0  0  0  0  0  0
  -21.9195   -4.6966   22.3402 C   0  0  0  0  0  0
  -22.7792  -13.5209   21.1885 C   0  0  0  0  0  0
  -22.1665   -4.2156   21.0978 F   0  0  0  0  0  0
  -21.5632   -3.4535   25.7735 F   0  0  0  0  0  0
  -29.9314  -13.7515   20.3582 N   0  0  0  0  0  0
  -26.2871  -12.9468   20.3236 N   0  0  0  0  0  0
  -25.9334  -11.6593   20.5746 N   0  0  0  0  0  0
  -22.0440  -12.8193   22.0434 N   0  0  0  0  0  0
  -25.4076  -15.1952   20.4141 N   0  0  0  0  0  0
  -31.7408  -15.0424   20.1689 O   0  0  0  0  0  0
  -21.6643   -6.8884   21.4244 O   0  0  0  0  0  0
  -22.3475  -14.5518   20.6735 O   0  0  0  0  0  0
  -24.6477  -31.8396   23.1823 C   0  0  0  0  0  0
  -25.9224  -32.4675   23.8238 C   0  0  1  0  0  0
  -27.2166  -27.0855   20.1598 C   0  0  0  0  0  0
  -25.5948  -33.8482   24.2152 N   0  0  0  0  0  0
  -23.4542  -30.4577   21.5289 C   0  0  2  0  0  0
  -24.9040  -28.8736   20.1108 C   0  0  0  0  0  0
  -22.7586  -29.4532   22.4831 C   0  0  0  0  0  0
  -18.0315  -28.1410   22.8487 C   0  0  0  0  0  0
  -24.1490  -36.7239   23.2645 C   0  0  0  0  0  0
  -26.0137  -30.6978   21.3877 C   0  0  0  0  0  0
  -26.0839  -29.3032   20.7314 C   0  0  0  0  0  0
  -27.2404  -28.4279   20.7340 C   0  0  0  0  0  0
  -26.0085  -26.7687   19.5001 C   0  0  0  0  0  0
  -24.8826  -27.6224   19.4773 C   0  0  0  0  0  0
  -23.6841  -29.7830   20.1500 C   0  0  0  0  0  0
  -25.4125  -36.3015   24.0313 C   0  0  1  0  0  0
  -20.5932  -28.3733   23.1226 C   0  0  2  0  0  0
  -20.6800  -26.9435   22.5400 C   0  0  0  0  0  0
  -19.5773  -26.6394   21.5213 C   0  0  0  0  0  0
  -18.1956  -26.7953   22.1627 C   0  0  0  0  0  0
  -19.1574  -28.8893   23.2851 C   0  0  0  0  0  0
  -18.9489  -30.1491   23.8876 C   0  0  0  0  0  0
  -17.6483  -30.6603   24.0573 C   0  0  0  0  0  0
  -25.9078  -34.9396   23.5042 C   0  0  0  0  0  0
  -16.5375  -29.9098   23.6346 C   0  0  0  0  0  0
  -16.7298  -28.6521   23.0362 C   0  0  0  0  0  0
  -26.4536  -31.6562   25.0697 C   0  0  0  0  0  0
  -25.3707  -31.3763   26.1381 C   0  0  0  0  0  0
  -27.0402  -30.2956   24.6299 C   0  0  0  0  0  0
  -27.6064  -32.4326   25.7491 C   0  0  0  0  0  0
  -27.5572  -37.1781   24.8471 C   0  0  0  0  0  0
  -21.4276  -29.3052   22.3584 N   0  0  0  0  0  0
  -26.4281  -37.3736   23.9414 N   0  0  0  0  0  0
  -24.7253  -31.0217   22.0875 N   0  0  0  0  0  0
  -23.4205  -28.8088   23.3003 O   0  0  0  0  0  0
  -28.2590  -26.0728   20.2268 O   0  0  0  0  0  0
  -26.5672  -34.8904   22.4627 O   0  0  0  0  0  0
  -23.5586  -32.1284   23.7022 O   0  0  0  0  0  0
  -31.4289  -18.1376   20.6282 C   0  0  0  0  0  0
  -30.0770  -17.7570   20.4833 C   0  0  0  0  0  0
  -29.5513  -20.4066   20.4015 C   0  0  0  0  0  0
  -31.8441  -19.4874   20.6653 C   0  0  0  0  0  0
  -30.9498  -20.5794   20.5568 C   0  0  0  0  0  0
  -29.1577  -18.9471   20.3769 C   0  0  0  0  0  0
  -29.0565  -23.1951   20.3353 C   0  0  0  0  0  0
  -27.9796  -24.5176   20.1375 C   0  0  0  0  0  0
  -29.7523  -16.2299   20.4868 N   0  0  0  0  0  0
  -28.6915  -21.6477   20.2880 N   0  0  0  0  0  0
  -33.1656  -19.7462   20.8129 F   0  0  0  0  0  0
  -31.4788  -21.8264   20.6093 F   0  0  0  0  0  0
  -27.4747  -18.5976   20.2085 Cl  0  0  0  0  0  0
  -31.4694  -12.8013   19.1839 H   0  0  0  0  0  0
  -30.4487  -11.6964   20.0590 H   0  0  0  0  0  0
  -29.8563  -11.7238   17.6109 H   0  0  0  0  0  0
  -29.6001  -13.4503   17.6744 H   0  0  0  0  0  0
  -27.9716  -11.2716   19.0106 H   0  0  0  0  0  0
  -27.3952  -12.4160   17.8262 H   0  0  0  0  0  0
  -27.5748  -14.2471   19.3846 H   0  0  0  0  0  0
  -28.7725  -12.3603   21.4715 H   0  0  0  0  0  0
  -28.3535  -14.0393   21.7293 H   0  0  0  0  0  0
  -25.2770   -9.5693   22.4773 H   0  0  0  0  0  0
  -24.0013   -7.4637   22.7475 H   0  0  0  0  0  0
  -21.0859   -8.8782   19.8943 H   0  0  0  0  0  0
  -22.3715  -10.9684   19.6170 H   0  0  0  0  0  0
  -21.1998   -7.6147   23.9722 H   0  0  0  0  0  0
  -21.1485   -6.0516   25.9081 H   0  0  0  0  0  0
  -22.0596   -2.7611   23.2839 H   0  0  0  0  0  0
  -22.4053  -11.9851   22.4819 H   0  0  0  0  0  0
  -21.1060  -13.1224   22.2642 H   0  0  0  0  0  0
  -24.6314  -15.8382   20.5229 H   0  0  0  0  0  0
  -26.2416  -15.6444   20.0611 H   0  0  0  0  0  0
  -26.7284  -32.5276   23.0958 H   0  0  0  0  0  0
  -25.0079  -33.9589   25.0290 H   0  0  0  0  0  0
  -22.7602  -31.2861   21.3705 H   0  0  0  0  0  0
  -23.3756  -35.9565   23.3291 H   0  0  0  0  0  0
  -24.3564  -36.8884   22.2058 H   0  0  0  0  0  0
  -23.7240  -37.6429   23.6693 H   0  0  0  0  0  0
  -26.1753  -31.4468   20.6114 H   0  0  0  0  0  0
  -26.8825  -30.7514   22.0318 H   0  0  0  0  0  0
  -28.1387  -28.7552   21.2386 H   0  0  0  0  0  0
  -25.9001  -25.8129   19.0112 H   0  0  0  0  0  0
  -23.9832  -27.2902   18.9773 H   0  0  0  0  0  0
  -23.8264  -30.5558   19.3937 H   0  0  0  0  0  0
  -22.7975  -29.2287   19.8365 H   0  0  0  0  0  0
  -25.1317  -36.1826   25.0804 H   0  0  0  0  0  0
  -21.0046  -28.3328   24.1339 H   0  0  0  0  0  0
  -20.5697  -26.2345   23.3619 H   0  0  0  0  0  0
  -21.6665  -26.7436   22.1198 H   0  0  0  0  0  0
  -19.6921  -25.6295   21.1263 H   0  0  0  0  0  0
  -19.6714  -27.3192   20.6733 H   0  0  0  0  0  0
  -17.4223  -26.6709   21.4031 H   0  0  0  0  0  0
  -18.0355  -26.0099   22.9029 H   0  0  0  0  0  0
  -19.7957  -30.7334   24.2225 H   0  0  0  0  0  0
  -17.5026  -31.6280   24.5181 H   0  0  0  0  0  0
  -15.5373  -30.2995   23.7678 H   0  0  0  0  0  0
  -15.8703  -28.0834   22.7081 H   0  0  0  0  0  0
  -24.5922  -30.7064   25.7710 H   0  0  0  0  0  0
  -24.8856  -32.2945   26.4707 H   0  0  0  0  0  0
  -25.7989  -30.9023   27.0220 H   0  0  0  0  0  0
  -26.3020  -29.6677   24.1296 H   0  0  0  0  0  0
  -27.3997  -29.7262   25.4879 H   0  0  0  0  0  0
  -27.8935  -30.4189   23.9626 H   0  0  0  0  0  0
  -27.2671  -33.3673   26.1967 H   0  0  0  0  0  0
  -28.3941  -32.6797   25.0363 H   0  0  0  0  0  0
  -28.0645  -31.8501   26.5493 H   0  0  0  0  0  0
  -28.2590  -38.0079   24.7515 H   0  0  0  0  0  0
  -28.1063  -36.2607   24.6302 H   0  0  0  0  0  0
  -27.2282  -37.1434   25.8872 H   0  0  0  0  0  0
  -20.9477  -29.8738   21.6751 H   0  0  0  0  0  0
  -26.0131  -38.2795   24.1430 H   0  0  0  0  0  0
  -32.1984  -17.3882   20.7284 H   0  0  0  0  0  0
  -29.5572  -23.3511   21.2916 H   0  0  0  0  0  0
  -29.8361  -23.3367   19.5857 H   0  0  0  0  0  0
  -27.1674  -24.3445   20.8444 H   0  0  0  0  0  0
  -27.5346  -24.3622   19.1555 H   0  0  0  0  0  0
  -28.7637  -16.0388   20.5452 H   0  0  0  0  0  0
  -27.6991  -21.4532   20.1888 H   0  0  0  0  0  0
  1 25  1  0  0  0
  1 30  2  0  0  0
  1 79  1  0  0  0
  2  3  1  0  0  0
  2 25  1  0  0  0
  2 84  1  0  0  0
  2 85  1  0  0  0
  3  4  1  0  0  0
  3 86  1  0  0  0
  3 87  1  0  0  0
  4  5  1  0  0  0
  4 88  1  0  0  0
  4 89  1  0  0  0
  5  6  1  0  0  0
  5 26  1  0  0  0
  5 90  1  0  0  0
  6 25  1  0  0  0
  6 91  1  0  0  0
  6 92  1  0  0  0
  7  8  2  0  0  0
  7 26  1  0  0  0
  7 29  1  0  0  0
  8  9  1  0  0  0
  8 22  1  0  0  0
  9 10  1  0  0  0
  9 27  2  0  0  0
 10 11  2  0  0  0
 10 15  1  0  0  0
 11 12  1  0  0  0
 11 93  1  0  0  0
 12 13  2  0  0  0
 12 94  1  0  0  0
 13 14  1  0  0  0
 13 31  1  0  0  0
 14 15  2  0  0  0
 14 95  1  0  0  0
 15 96  1  0  0  0
 16 17  2  0  0  0
 16 21  1  0  0  0
 16 31  1  0  0  0
 17 18  1  0  0  0
 17 97  1  0  0  0
 18 19  2  0  0  0
 18 98  1  0  0  0
 19 20  1  0  0  0
 19 24  1  0  0  0
 20 21  2  0  0  0
 20 99  1  0  0  0
 21 23  1  0  0  0
 22 28  1  0  0  0
 22 32  2  0  0  0
 26 27  1  0  0  0
 28100  1  0  0  0
 28101  1  0  0  0
 29102  1  0  0  0
 29103  1  0  0  0
 33 34  1  0  0  0
 33 66  1  0  0  0
 33 70  2  0  0  0
 34 36  1  0  0  0
 34 59  1  0  0  0
 34104  1  0  0  0
 35 44  2  0  0  0
 35 45  1  0  0  0
 35 68  1  0  0  0
 36 56  1  0  0  0
 36105  1  0  0  0
 37 39  1  0  0  0
 37 47  1  0  0  0
 37 66  1  0  0  0
 37106  1  0  0  0
 38 43  2  0  0  0
 38 46  1  0  0  0
 38 47  1  0  0  0
 39 64  1  0  0  0
 39 67  2  0  0  0
 40 52  1  0  0  0
 40 53  2  0  0  0
 40 58  1  0  0  0
 41107  1  0  0  0
 41108  1  0  0  0
 41109  1  0  0  0
 41 48  1  0  0  0
 42 43  1  0  0  0
 42 66  1  0  0  0
 42110  1  0  0  0
 42111  1  0  0  0
 43 44  1  0  0  0
 44112  1  0  0  0
 45 46  2  0  0  0
 45113  1  0  0  0
 46114  1  0  0  0
 47115  1  0  0  0
 47116  1  0  0  0
 48 56  1  0  0  0
 48 65  1  0  0  0
 48117  1  0  0  0
 49 50  1  0  0  0
 49 53  1  0  0  0
 49 64  1  0  0  0
 49118  1  0  0  0
 50 51  1  0  0  0
 50119  1  0  0  0
 50120  1  0  0  0
 51 52  1  0  0  0
 51121  1  0  0  0
 51122  1  0  0  0
 52123  1  0  0  0
 52124  1  0  0  0
 53 54  1  0  0  0
 54 55  2  0  0  0
 54125  1  0  0  0
 55 57  1  0  0  0
 55126  1  0  0  0
 56 69  2  0  0  0
 57 58  2  0  0  0
 57127  1  0  0  0
 58128  1  0  0  0
 59 60  1  0  0  0
 59 61  1  0  0  0
 59 62  1  0  0  0
 60129  1  0  0  0
 60130  1  0  0  0
 60131  1  0  0  0
 61132  1  0  0  0
 61133  1  0  0  0
 61134  1  0  0  0
 62135  1  0  0  0
 62136  1  0  0  0
 62137  1  0  0  0
 63 65  1  0  0  0
 63138  1  0  0  0
 63139  1  0  0  0
 63140  1  0  0  0
 64141  1  0  0  0
 65142  1  0  0  0
 68 78  1  0  0  0
 71 72  2  0  0  0
 71 74  1  0  0  0
 71143  1  0  0  0
 72 76  1  0  0  0
 72 79  1  0  0  0
 73 75  1  0  0  0
 73 76  2  0  0  0
 73 80  1  0  0  0
 74 75  2  0  0  0
 74 81  1  0  0  0
 75 82  1  0  0  0
 76 83  1  0  0  0
 77 78  1  0  0  0
 77 80  1  0  0  0
 77144  1  0  0  0
 77145  1  0  0  0
 78146  1  0  0  0
 78147  1  0  0  0
 79148  1  0  0  0
 80149  1  0  0  0
M  ISO  4   1 100  68 101  78 101  79 100
M  END
> <chiral flag>
0

> <version>
0

> <s_m_source_file>
/data/baiqing/PycharmProjects/Reinvent-master-3.2/result/LINK_invent/BTK/process_docking_weight1_custom_sum_contain_oxygen_bond_distance_aromatic_linkinvent_7_9_3/rearranged_h_0013.sdf

> <i_m_source_file_index>
85

> <r_mmod_Potential_Energy-OPLS-2005>
670.856384277344

> <r_mmod_Stretch_Energy-OPLS-2005>
321.851501464844

> <r_mmod_Bend_Energy-OPLS-2005>
276.560882568359

> <r_mmod_Torsional_Energy-OPLS-2005>
202.129501342773

> <r_mmod_Improper_Torsional_Energy-OPLS-2005>
4.9172511100769

> <r_mmod_Van_der_Waal_Energy-OPLS-2005>
132.135986328125

> <r_mmod_Electrostatic_Energy-OPLS-2005>
-297.557922363281

> <r_mmod_Solvation_Energy-OPLS-2005>
-210.781661987305

> <b_mmod_Minimization_Converged-OPLS-2005>
0

> <r_mmod_RMS_Derivative-OPLS-2005>
1.1328364610672

$$$$
85
                    3D
 Structure written by MMmdl.
154162  0  0  1  0            999 V2000
  -30.5197  -15.0482   20.4139 C   0  0  0  0  0  0
  -30.4380  -12.6580   19.5048 C   0  0  0  0  0  0
  -29.5232  -12.5426   18.2632 C   0  0  0  0  0  0
  -28.0616  -12.3093   18.6866 C   0  0  0  0  0  0
  -27.6227  -13.2577   19.8322 C   0  0  2  0  0  0
  -28.6646  -13.3380   20.9681 C   0  0  0  0  0  0
  -25.2432  -13.8228   20.5726 C   0  0  0  0  0  0
  -24.1764  -13.0438   20.9243 C   0  0  0  0  0  0
  -24.6396  -11.6929   20.8762 C   0  0  0  0  0  0
  -23.9086  -10.4293   21.0409 C   0  0  0  0  0  0
  -24.3632   -9.4206   21.9186 C   0  0  0  0  0  0
  -23.6302   -8.2243   22.0755 C   0  0  0  0  0  0
  -22.4283   -8.0283   21.3545 C   0  0  0  0  0  0
  -21.9924   -9.0258   20.4646 C   0  0  0  0  0  0
  -22.7257  -10.2135   20.3057 C   0  0  0  0  0  0
  -21.6855   -6.0738   22.5279 C   0  0  0  0  0  0
  -21.4015   -6.5642   23.8213 C   0  0  0  0  0  0
  -21.3659   -5.6794   24.9174 C   0  0  0  0  0  0
  -21.6043   -4.3056   24.7224 C   0  0  0  0  0  0
  -21.8819   -3.8149   23.4345 C   0  0  0  0  0  0
  -21.9194   -4.6966   22.3402 C   0  0  0  0  0  0
  -22.7783  -13.5201   21.1892 C   0  0  0  0  0  0
  -22.1662   -4.2152   21.0979 F   0  0  0  0  0  0
  -21.5628   -3.4539   25.7736 F   0  0  0  0  0  0
  -29.9246  -13.7783   20.3549 N   0  0  0  0  0  0
  -26.2860  -12.9477   20.3240 N   0  0  0  0  0  0
  -25.9330  -11.6598   20.5740 N   0  0  0  0  0  0
  -22.0437  -12.8185   22.0445 N   0  0  0  0  0  0
  -25.4069  -15.1960   20.4144 N   0  0  0  0  0  0
  -31.7265  -15.0722   20.1454 O   0  0  0  0  0  0
  -21.6643   -6.8883   21.4242 O   0  0  0  0  0  0
  -22.3465  -14.5503   20.6732 O   0  0  0  0  0  0
  -24.6504  -31.8370   23.1822 C   0  0  0  0  0  0
  -25.9245  -32.4658   23.8237 C   0  0  1  0  0  0
  -27.2160  -27.0635   20.1616 C   0  0  0  0  0  0
  -25.5965  -33.8467   24.2150 N   0  0  0  0  0  0
  -23.4579  -30.4541   21.5288 C   0  0  2  0  0  0
  -24.9089  -28.8683   20.1093 C   0  0  0  0  0  0
  -22.7603  -29.4511   22.4829 C   0  0  0  0  0  0
  -18.0311  -28.1402   22.8475 C   0  0  0  0  0  0
  -24.1490  -36.7233   23.2645 C   0  0  0  0  0  0
  -26.0190  -30.6873   21.3923 C   0  0  0  0  0  0
  -26.0889  -29.2915   20.7340 C   0  0  0  0  0  0
  -27.2417  -28.4067   20.7407 C   0  0  0  0  0  0
  -26.0099  -26.7619   19.4911 C   0  0  0  0  0  0
  -24.8868  -27.6199   19.4701 C   0  0  0  0  0  0
  -23.6890  -29.7795   20.1501 C   0  0  0  0  0  0
  -25.4126  -36.3008   24.0311 C   0  0  1  0  0  0
  -20.5929  -28.3734   23.1217 C   0  0  2  0  0  0
  -20.6792  -26.9429   22.5403 C   0  0  0  0  0  0
  -19.5765  -26.6381   21.5213 C   0  0  0  0  0  0
  -18.1947  -26.7938   22.1624 C   0  0  0  0  0  0
  -19.1570  -28.8887   23.2836 C   0  0  0  0  0  0
  -18.9484  -30.1481   23.8865 C   0  0  0  0  0  0
  -17.6480  -30.6596   24.0558 C   0  0  0  0  0  0
  -25.9083  -34.9387   23.5043 C   0  0  0  0  0  0
  -16.5370  -29.9086   23.6341 C   0  0  0  0  0  0
  -16.7295  -28.6506   23.0362 C   0  0  0  0  0  0
  -26.4541  -31.6555   25.0711 C   0  0  0  0  0  0
  -25.3706  -31.3766   26.1392 C   0  0  0  0  0  0
  -27.0421  -30.2941   24.6348 C   0  0  0  0  0  0
  -27.6054  -32.4339   25.7504 C   0  0  0  0  0  0
  -27.5571  -37.1775   24.8468 C   0  0  0  0  0  0
  -21.4287  -29.3046   22.3579 N   0  0  0  0  0  0
  -26.4282  -37.3731   23.9410 N   0  0  0  0  0  0
  -24.7294  -31.0160   22.0890 N   0  0  0  0  0  0
  -23.4213  -28.8068   23.3012 O   0  0  0  0  0  0
  -28.2402  -26.0260   20.2445 O   0  0  0  0  0  0
  -26.5676  -34.8898   22.4627 O   0  0  0  0  0  0
  -23.5606  -32.1278   23.6999 O   0  0  0  0  0  0
  -30.6631  -20.6012   21.4207 C   0  0  0  0  0  0
  -31.4176  -19.5101   21.9080 C   0  0  0  0  0  0
  -29.2370  -19.0072   20.2885 C   0  0  0  0  0  0
  -29.5166  -20.4617   20.6127 C   0  0  0  0  0  0
  -30.0285  -17.7957   20.7489 C   0  0  0  0  0  0
  -31.1014  -18.1544   21.6189 C   0  0  0  0  0  0
  -28.9638  -23.2089   20.4374 C   0  0  0  0  0  0
  -32.5976  -19.8301   22.8156 C   0  0  0  0  0  0
  -28.0270  -18.7310   19.4176 C   0  0  0  0  0  0
  -27.9305  -24.4799   20.0247 C   0  0  0  0  0  0
  -28.7475  -21.7834   20.2379 N   0  0  0  0  0  0
  -29.7438  -16.2677   20.5094 N   0  0  0  0  0  0
  -30.0193  -23.5792   20.9557 O   0  0  0  0  0  0
  -32.0145  -16.9513   22.4729 Cl  0  0  0  0  0  0
  -31.4678  -12.8254   19.1859 H   0  0  0  0  0  0
  -30.4517  -11.7221   20.0658 H   0  0  0  0  0  0
  -29.8608  -11.7324   17.6155 H   0  0  0  0  0  0
  -29.5921  -13.4574   17.6725 H   0  0  0  0  0  0
  -27.9779  -11.2732   19.0167 H   0  0  0  0  0  0
  -27.3950  -12.4105   17.8293 H   0  0  0  0  0  0
  -27.5682  -14.2477   19.3787 H   0  0  0  0  0  0
  -28.7792  -12.3772   21.4721 H   0  0  0  0  0  0
  -28.3469  -14.0531   21.7287 H   0  0  0  0  0  0
  -25.2774   -9.5681   22.4765 H   0  0  0  0  0  0
  -24.0008   -7.4634   22.7475 H   0  0  0  0  0  0
  -21.0855   -8.8781   19.8951 H   0  0  0  0  0  0
  -22.3716  -10.9676   19.6168 H   0  0  0  0  0  0
  -21.2007   -7.6150   23.9717 H   0  0  0  0  0  0
  -21.1480   -6.0523   25.9077 H   0  0  0  0  0  0
  -22.0598   -2.7611   23.2843 H   0  0  0  0  0  0
  -22.4065  -11.9853   22.4835 H   0  0  0  0  0  0
  -21.1050  -13.1197   22.2648 H   0  0  0  0  0  0
  -24.6325  -15.8419   20.5240 H   0  0  0  0  0  0
  -26.2417  -15.6391   20.0564 H   0  0  0  0  0  0
  -26.7311  -32.5238   23.0958 H   0  0  0  0  0  0
  -25.0086  -33.9569   25.0281 H   0  0  0  0  0  0
  -22.7643  -31.2823   21.3692 H   0  0  0  0  0  0
  -23.3761  -35.9555   23.3293 H   0  0  0  0  0  0
  -24.3570  -36.8885   22.2062 H   0  0  0  0  0  0
  -23.7236  -37.6419   23.6697 H   0  0  0  0  0  0
  -26.1846  -31.4379   20.6183 H   0  0  0  0  0  0
  -26.8852  -30.7386   22.0402 H   0  0  0  0  0  0
  -28.1369  -28.7251   21.2563 H   0  0  0  0  0  0
  -25.8981  -25.8083   18.9974 H   0  0  0  0  0  0
  -23.9879  -27.2915   18.9662 H   0  0  0  0  0  0
  -23.8322  -30.5525   19.3942 H   0  0  0  0  0  0
  -22.8018  -29.2264   19.8367 H   0  0  0  0  0  0
  -25.1319  -36.1823   25.0803 H   0  0  0  0  0  0
  -21.0020  -28.3330   24.1339 H   0  0  0  0  0  0
  -20.5679  -26.2350   23.3631 H   0  0  0  0  0  0
  -21.6657  -26.7424   22.1204 H   0  0  0  0  0  0
  -19.6925  -25.6284   21.1263 H   0  0  0  0  0  0
  -19.6702  -27.3174   20.6729 H   0  0  0  0  0  0
  -17.4216  -26.6683   21.4028 H   0  0  0  0  0  0
  -18.0345  -26.0088   22.9027 H   0  0  0  0  0  0
  -19.7960  -30.7306   24.2219 H   0  0  0  0  0  0
  -17.5033  -31.6272   24.5167 H   0  0  0  0  0  0
  -15.5369  -30.2978   23.7684 H   0  0  0  0  0  0
  -15.8695  -28.0813   22.7097 H   0  0  0  0  0  0
  -24.5898  -30.7099   25.7713 H   0  0  0  0  0  0
  -24.8880  -32.2953   26.4733 H   0  0  0  0  0  0
  -25.7973  -30.8997   27.0225 H   0  0  0  0  0  0
  -26.3059  -29.6645   24.1337 H   0  0  0  0  0  0
  -27.3987  -29.7266   25.4953 H   0  0  0  0  0  0
  -27.8986  -30.4160   23.9715 H   0  0  0  0  0  0
  -27.2635  -33.3669   26.1996 H   0  0  0  0  0  0
  -28.3910  -32.6852   25.0367 H   0  0  0  0  0  0
  -28.0670  -31.8521   26.5493 H   0  0  0  0  0  0
  -28.2581  -38.0077   24.7511 H   0  0  0  0  0  0
  -28.1072  -36.2605   24.6301 H   0  0  0  0  0  0
  -27.2287  -37.1428   25.8871 H   0  0  0  0  0  0
  -20.9513  -29.8749   21.6739 H   0  0  0  0  0  0
  -26.0140  -38.2795   24.1416 H   0  0  0  0  0  0
  -30.9815  -21.5826   21.7296 H   0  0  0  0  0  0
  -32.7895  -20.9015   22.8768 H   0  0  0  0  0  0
  -33.5079  -19.3582   22.4444 H   0  0  0  0  0  0
  -32.4102  -19.4694   23.8275 H   0  0  0  0  0  0
  -27.8522  -19.5483   18.7181 H   0  0  0  0  0  0
  -27.1369  -18.6107   20.0351 H   0  0  0  0  0  0
  -28.1626  -17.8232   18.8297 H   0  0  0  0  0  0
  -26.9938  -24.2698   20.5414 H   0  0  0  0  0  0
  -27.7151  -24.3513   18.9640 H   0  0  0  0  0  0
  -27.8742  -21.6130   19.7576 H   0  0  0  0  0  0
  -28.7586  -16.0658   20.4519 H   0  0  0  0  0  0
  1 25  1  0  0  0
  1 30  2  0  0  0
  1 82  1  0  0  0
  2  3  1  0  0  0
  2 25  1  0  0  0
  2 85  1  0  0  0
  2 86  1  0  0  0
  3  4  1  0  0  0
  3 87  1  0  0  0
  3 88  1  0  0  0
  4  5  1  0  0  0
  4 89  1  0  0  0
  4 90  1  0  0  0
  5  6  1  0  0  0
  5 26  1  0  0  0
  5 91  1  0  0  0
  6 25  1  0  0  0
  6 92  1  0  0  0
  6 93  1  0  0  0
  7  8  2  0  0  0
  7 26  1  0  0  0
  7 29  1  0  0  0
  8  9  1  0  0  0
  8 22  1  0  0  0
  9 10  1  0  0  0
  9 27  2  0  0  0
 10 11  2  0  0  0
 10 15  1  0  0  0
 11 12  1  0  0  0
 11 94  1  0  0  0
 12 13  2  0  0  0
 12 95  1  0  0  0
 13 14  1  0  0  0
 13 31  1  0  0  0
 14 15  2  0  0  0
 14 96  1  0  0  0
 15 97  1  0  0  0
 16 17  2  0  0  0
 16 21  1  0  0  0
 16 31  1  0  0  0
 17 18  1  0  0  0
 17 98  1  0  0  0
 18 19  2  0  0  0
 18 99  1  0  0  0
 19 20  1  0  0  0
 19 24  1  0  0  0
 20 21  2  0  0  0
 20100  1  0  0  0
 21 23  1  0  0  0
 22 28  1  0  0  0
 22 32  2  0  0  0
 26 27  1  0  0  0
 28101  1  0  0  0
 28102  1  0  0  0
 29103  1  0  0  0
 29104  1  0  0  0
 33 34  1  0  0  0
 33 66  1  0  0  0
 33 70  2  0  0  0
 34 36  1  0  0  0
 34 59  1  0  0  0
 34105  1  0  0  0
 35 44  2  0  0  0
 35 45  1  0  0  0
 35 68  1  0  0  0
 36 56  1  0  0  0
 36106  1  0  0  0
 37 39  1  0  0  0
 37 47  1  0  0  0
 37 66  1  0  0  0
 37107  1  0  0  0
 38 43  2  0  0  0
 38 46  1  0  0  0
 38 47  1  0  0  0
 39 64  1  0  0  0
 39 67  2  0  0  0
 40 52  1  0  0  0
 40 53  2  0  0  0
 40 58  1  0  0  0
 41108  1  0  0  0
 41109  1  0  0  0
 41110  1  0  0  0
 41 48  1  0  0  0
 42 43  1  0  0  0
 42 66  1  0  0  0
 42111  1  0  0  0
 42112  1  0  0  0
 43 44  1  0  0  0
 44113  1  0  0  0
 45 46  2  0  0  0
 45114  1  0  0  0
 46115  1  0  0  0
 47116  1  0  0  0
 47117  1  0  0  0
 48 56  1  0  0  0
 48 65  1  0  0  0
 48118  1  0  0  0
 49 50  1  0  0  0
 49 53  1  0  0  0
 49 64  1  0  0  0
 49119  1  0  0  0
 50 51  1  0  0  0
 50120  1  0  0  0
 50121  1  0  0  0
 51 52  1  0  0  0
 51122  1  0  0  0
 51123  1  0  0  0
 52124  1  0  0  0
 52125  1  0  0  0
 53 54  1  0  0  0
 54 55  2  0  0  0
 54126  1  0  0  0
 55 57  1  0  0  0
 55127  1  0  0  0
 56 69  2  0  0  0
 57 58  2  0  0  0
 57128  1  0  0  0
 58129  1  0  0  0
 59 60  1  0  0  0
 59 61  1  0  0  0
 59 62  1  0  0  0
 60130  1  0  0  0
 60131  1  0  0  0
 60132  1  0  0  0
 61133  1  0  0  0
 61134  1  0  0  0
 61135  1  0  0  0
 62136  1  0  0  0
 62137  1  0  0  0
 62138  1  0  0  0
 63 65  1  0  0  0
 63139  1  0  0  0
 63140  1  0  0  0
 63141  1  0  0  0
 64142  1  0  0  0
 65143  1  0  0  0
 68 80  1  0  0  0
 71 72  2  0  0  0
 71 74  1  0  0  0
 71144  1  0  0  0
 72 76  1  0  0  0
 72 78  1  0  0  0
 73 74  2  0  0  0
 73 75  1  0  0  0
 73 79  1  0  0  0
 74 81  1  0  0  0
 75 76  2  0  0  0
 75 82  1  0  0  0
 76 84  1  0  0  0
 77 80  1  0  0  0
 77 81  1  0  0  0
 77 83  2  0  0  0
 78145  1  0  0  0
 78146  1  0  0  0
 78147  1  0  0  0
 79148  1  0  0  0
 79149  1  0  0  0
 79150  1  0  0  0
 80151  1  0  0  0
 80152  1  0  0  0
 81153  1  0  0  0
 82154  1  0  0  0
M  ISO  4   1 100  68 101  80 101  82 100
M  END
> <chiral flag>
0

> <version>
0

> <s_m_source_file>
/data/baiqing/PycharmProjects/Reinvent-master-3.2/result/LINK_invent/BTK/process_docking_weight1_custom_sum_contain_oxygen_bond_distance_aromatic_linkinvent_7_9_3/rearranged_h_0013.sdf

> <i_m_source_file_index>
86

> <r_mmod_Potential_Energy-OPLS-2005>
635.666320800781

> <r_mmod_Stretch_Energy-OPLS-2005>
357.486328125

> <r_mmod_Bend_Energy-OPLS-2005>
274.252532958984

> <r_mmod_Torsional_Energy-OPLS-2005>
228.995452880859

> <r_mmod_Improper_Torsional_Energy-OPLS-2005>
6.68771982192993

> <r_mmod_Van_der_Waal_Energy-OPLS-2005>
142.44807434082

> <r_mmod_Electrostatic_Energy-OPLS-2005>
-392.799499511719

> <r_mmod_Solvation_Energy-OPLS-2005>
-248.757629394531

> <b_mmod_Minimization_Converged-OPLS-2005>
0

> <r_mmod_RMS_Derivative-OPLS-2005>
0.156460523605347

$$$$
86
                    3D
 Structure written by MMmdl.
161169  0  0  1  0            999 V2000
  -30.4910  -15.0459   20.3862 C   0  0  0  0  0  0
  -30.4378  -12.6456   19.4664 C   0  0  0  0  0  0
  -29.5116  -12.5041   18.2345 C   0  0  0  0  0  0
  -28.0612  -12.2549   18.6924 C   0  0  0  0  0  0
  -27.6217  -13.2334   19.8122 C   0  0  2  0  0  0
  -28.6720  -13.3258   20.9363 C   0  0  0  0  0  0
  -25.2521  -13.8205   20.5686 C   0  0  0  0  0  0
  -24.1792  -13.0419   20.9177 C   0  0  0  0  0  0
  -24.6381  -11.6910   20.8746 C   0  0  0  0  0  0
  -23.9067  -10.4300   21.0427 C   0  0  0  0  0  0
  -24.3619   -9.4231   21.9213 C   0  0  0  0  0  0
  -23.6297   -8.2265   22.0792 C   0  0  0  0  0  0
  -22.4287   -8.0307   21.3567 C   0  0  0  0  0  0
  -21.9905   -9.0270   20.4670 C   0  0  0  0  0  0
  -22.7230  -10.2154   20.3077 C   0  0  0  0  0  0
  -21.6846   -6.0751   22.5302 C   0  0  0  0  0  0
  -21.3996   -6.5654   23.8233 C   0  0  0  0  0  0
  -21.3662   -5.6804   24.9205 C   0  0  0  0  0  0
  -21.6043   -4.3059   24.7242 C   0  0  0  0  0  0
  -21.8811   -3.8162   23.4356 C   0  0  0  0  0  0
  -21.9189   -4.6985   22.3425 C   0  0  0  0  0  0
  -22.7835  -13.5286   21.1818 C   0  0  0  0  0  0
  -22.1653   -4.2170   21.0996 F   0  0  0  0  0  0
  -21.5646   -3.4547   25.7749 F   0  0  0  0  0  0
  -29.9140  -13.7727   20.2951 N   0  0  0  0  0  0
  -26.2891  -12.9364   20.3216 N   0  0  0  0  0  0
  -25.9313  -11.6519   20.5756 N   0  0  0  0  0  0
  -22.0454  -12.8277   22.0374 N   0  0  0  0  0  0
  -25.4238  -15.1915   20.4103 N   0  0  0  0  0  0
  -31.7203  -15.0910   20.2600 O   0  0  0  0  0  0
  -21.6641   -6.8896   21.4265 O   0  0  0  0  0  0
  -22.3549  -14.5589   20.6694 O   0  0  0  0  0  0
  -24.6448  -31.8340   23.1786 C   0  0  0  0  0  0
  -25.9193  -32.4635   23.8150 C   0  0  1  0  0  0
  -27.2405  -27.0914   20.1577 C   0  0  0  0  0  0
  -25.5951  -33.8439   24.2117 N   0  0  0  0  0  0
  -23.4531  -30.4509   21.5295 C   0  0  2  0  0  0
  -24.9013  -28.8497   20.1371 C   0  0  0  0  0  0
  -22.7597  -29.4508   22.4849 C   0  0  0  0  0  0
  -18.0348  -28.1386   22.8422 C   0  0  0  0  0  0
  -24.1555  -36.7193   23.2675 C   0  0  0  0  0  0
  -26.0097  -30.6887   21.3920 C   0  0  0  0  0  0
  -26.0828  -29.2956   20.7380 C   0  0  0  0  0  0
  -27.2478  -28.4343   20.7320 C   0  0  0  0  0  0
  -26.0270  -26.7551   19.5223 C   0  0  0  0  0  0
  -24.8868  -27.5900   19.5221 C   0  0  0  0  0  0
  -23.6834  -29.7612   20.1601 C   0  0  0  0  0  0
  -25.4187  -36.2984   24.0338 C   0  0  1  0  0  0
  -20.5956  -28.3758   23.1205 C   0  0  2  0  0  0
  -20.6901  -26.9466   22.5388 C   0  0  0  0  0  0
  -19.5874  -26.6369   21.5215 C   0  0  0  0  0  0
  -18.2019  -26.7917   22.1580 C   0  0  0  0  0  0
  -19.1594  -28.8881   23.2816 C   0  0  0  0  0  0
  -18.9512  -30.1482   23.8842 C   0  0  0  0  0  0
  -17.6512  -30.6578   24.0555 C   0  0  0  0  0  0
  -25.9115  -34.9358   23.5038 C   0  0  0  0  0  0
  -16.5402  -29.9057   23.6376 C   0  0  0  0  0  0
  -16.7330  -28.6522   23.0283 C   0  0  0  0  0  0
  -26.4520  -31.6530   25.0596 C   0  0  0  0  0  0
  -25.3631  -31.3695   26.1251 C   0  0  0  0  0  0
  -27.0454  -30.2947   24.6202 C   0  0  0  0  0  0
  -27.6063  -32.4334   25.7291 C   0  0  0  0  0  0
  -27.5603  -37.1762   24.8482 C   0  0  0  0  0  0
  -21.4304  -29.3033   22.3542 N   0  0  0  0  0  0
  -26.4341  -37.3698   23.9399 N   0  0  0  0  0  0
  -24.7222  -31.0136   22.0875 N   0  0  0  0  0  0
  -23.4218  -28.8127   23.3059 O   0  0  0  0  0  0
  -28.3114  -26.1120   20.2503 O   0  0  0  0  0  0
  -26.5715  -34.8867   22.4622 O   0  0  0  0  0  0
  -23.5577  -32.1195   23.7035 O   0  0  0  0  0  0
  -29.6650  -17.7847   22.1739 C   0  0  0  0  0  0
  -29.4124  -19.0272   20.1283 C   0  0  0  0  0  0
  -29.3889  -18.9860   22.8662 C   0  0  0  0  0  0
  -29.2482  -20.2592   22.2158 C   0  0  0  0  0  0
  -29.6679  -17.6944   20.7778 C   0  0  0  0  0  0
  -29.2575  -20.3870   20.7817 C   0  0  0  0  0  0
  -29.1937  -18.8347   24.3728 C   0  0  0  0  0  0
  -29.1345  -21.4837   23.1242 C   0  0  0  0  0  0
  -31.1239  -20.9634   18.6027 C   0  0  0  0  0  0
  -30.4791  -22.0640   19.4580 C   0  0  0  0  0  0
  -28.6502  -23.1712   20.6403 C   0  0  0  0  0  0
  -28.3299  -24.6075   19.7559 C   0  0  0  0  0  0
  -29.6890  -16.2351   20.2290 N   0  0  0  0  0  0
  -29.1916  -21.7584   20.1068 N   0  0  0  0  0  0
  -31.4703  -12.8041   19.1487 H   0  0  0  0  0  0
  -30.4361  -11.7152   20.0377 H   0  0  0  0  0  0
  -29.8422  -11.6802   17.5962 H   0  0  0  0  0  0
  -29.5559  -13.4062   17.6215 H   0  0  0  0  0  0
  -28.0190  -11.2330   19.0711 H   0  0  0  0  0  0
  -27.3689  -12.2911   17.8503 H   0  0  0  0  0  0
  -27.5617  -14.2095   19.3301 H   0  0  0  0  0  0
  -28.8081  -12.3657   21.4359 H   0  0  0  0  0  0
  -28.3657  -14.0455   21.6971 H   0  0  0  0  0  0
  -25.2765   -9.5723   22.4779 H   0  0  0  0  0  0
  -24.0007   -7.4681   22.7521 H   0  0  0  0  0  0
  -21.0840   -8.8791   19.8980 H   0  0  0  0  0  0
  -22.3703  -10.9695   19.6188 H   0  0  0  0  0  0
  -21.1960   -7.6151   23.9737 H   0  0  0  0  0  0
  -21.1493   -6.0539   25.9102 H   0  0  0  0  0  0
  -22.0578   -2.7620   23.2858 H   0  0  0  0  0  0
  -22.3999  -11.9900   22.4716 H   0  0  0  0  0  0
  -21.1139  -13.1440   22.2679 H   0  0  0  0  0  0
  -24.6511  -15.8430   20.4969 H   0  0  0  0  0  0
  -26.2889  -15.6400   20.1380 H   0  0  0  0  0  0
  -26.7211  -32.5191   23.0789 H   0  0  0  0  0  0
  -25.0055  -33.9548   25.0246 H   0  0  0  0  0  0
  -22.7646  -31.2840   21.3704 H   0  0  0  0  0  0
  -23.3849  -35.9492   23.3288 H   0  0  0  0  0  0
  -24.3688  -36.8819   22.2101 H   0  0  0  0  0  0
  -23.7274  -37.6372   23.6714 H   0  0  0  0  0  0
  -26.1834  -31.4485   20.6300 H   0  0  0  0  0  0
  -26.8718  -30.7182   22.0440 H   0  0  0  0  0  0
  -28.1494  -28.7750   21.2241 H   0  0  0  0  0  0
  -25.9163  -25.7973   19.0439 H   0  0  0  0  0  0
  -23.9819  -27.2321   19.0531 H   0  0  0  0  0  0
  -23.8482  -30.5281   19.4056 H   0  0  0  0  0  0
  -22.7927  -29.2202   19.8361 H   0  0  0  0  0  0
  -25.1390  -36.1821   25.0846 H   0  0  0  0  0  0
  -21.0000  -28.3352   24.1352 H   0  0  0  0  0  0
  -20.5927  -26.2320   23.3571 H   0  0  0  0  0  0
  -21.6756  -26.7553   22.1106 H   0  0  0  0  0  0
  -19.7096  -25.6276   21.1268 H   0  0  0  0  0  0
  -19.6847  -27.3180   20.6746 H   0  0  0  0  0  0
  -17.4327  -26.6656   21.3942 H   0  0  0  0  0  0
  -18.0432  -26.0035   22.8962 H   0  0  0  0  0  0
  -19.7998  -30.7327   24.2098 H   0  0  0  0  0  0
  -17.5084  -31.6259   24.5164 H   0  0  0  0  0  0
  -15.5416  -30.2922   23.7782 H   0  0  0  0  0  0
  -15.8729  -28.0902   22.6886 H   0  0  0  0  0  0
  -24.5825  -30.7116   25.7401 H   0  0  0  0  0  0
  -24.8823  -32.2868   26.4666 H   0  0  0  0  0  0
  -25.7789  -30.8762   27.0034 H   0  0  0  0  0  0
  -26.3121  -29.6541   24.1285 H   0  0  0  0  0  0
  -27.4195  -29.7387   25.4793 H   0  0  0  0  0  0
  -27.8912  -30.4240   23.9440 H   0  0  0  0  0  0
  -27.2722  -33.3700   26.1765 H   0  0  0  0  0  0
  -28.3794  -32.6800   24.9992 H   0  0  0  0  0  0
  -28.0784  -31.8529   26.5219 H   0  0  0  0  0  0
  -28.2601  -38.0083   24.7559 H   0  0  0  0  0  0
  -28.1137  -36.2606   24.6309 H   0  0  0  0  0  0
  -27.2311  -37.1347   25.8887 H   0  0  0  0  0  0
  -20.9592  -29.8608   21.6566 H   0  0  0  0  0  0
  -26.0203  -38.2765   24.1422 H   0  0  0  0  0  0
  -29.8027  -16.8748   22.7405 H   0  0  0  0  0  0
  -29.3527  -19.0080   19.0522 H   0  0  0  0  0  0
  -29.0643  -17.7872   24.6492 H   0  0  0  0  0  0
  -28.2769  -19.3307   24.6909 H   0  0  0  0  0  0
  -30.0236  -19.2405   24.9527 H   0  0  0  0  0  0
  -28.1209  -21.8786   23.1403 H   0  0  0  0  0  0
  -29.8443  -22.2576   22.8470 H   0  0  0  0  0  0
  -29.3845  -21.2679   24.1588 H   0  0  0  0  0  0
  -31.9380  -21.3745   18.0099 H   0  0  0  0  0  0
  -30.4052  -20.5517   17.8949 H   0  0  0  0  0  0
  -31.5620  -20.1645   19.2048 H   0  0  0  0  0  0
  -30.3481  -22.9319   18.8115 H   0  0  0  0  0  0
  -31.1832  -22.3744   20.2309 H   0  0  0  0  0  0
  -27.7655  -22.9678   21.2376 H   0  0  0  0  0  0
  -29.4103  -23.5428   21.3203 H   0  0  0  0  0  0
  -27.4512  -24.4097   19.1462 H   0  0  0  0  0  0
  -29.1362  -24.6606   19.0266 H   0  0  0  0  0  0
  -28.7996  -15.9866   19.8263 H   0  0  0  0  0  0
  1 25  1  0  0  0
  1 30  2  0  0  0
  1 83  1  0  0  0
  2  3  1  0  0  0
  2 25  1  0  0  0
  2 85  1  0  0  0
  2 86  1  0  0  0
  3  4  1  0  0  0
  3 87  1  0  0  0
  3 88  1  0  0  0
  4  5  1  0  0  0
  4 89  1  0  0  0
  4 90  1  0  0  0
  5  6  1  0  0  0
  5 26  1  0  0  0
  5 91  1  0  0  0
  6 25  1  0  0  0
  6 92  1  0  0  0
  6 93  1  0  0  0
  7  8  2  0  0  0
  7 26  1  0  0  0
  7 29  1  0  0  0
  8  9  1  0  0  0
  8 22  1  0  0  0
  9 10  1  0  0  0
  9 27  2  0  0  0
 10 11  2  0  0  0
 10 15  1  0  0  0
 11 12  1  0  0  0
 11 94  1  0  0  0
 12 13  2  0  0  0
 12 95  1  0  0  0
 13 14  1  0  0  0
 13 31  1  0  0  0
 14 15  2  0  0  0
 14 96  1  0  0  0
 15 97  1  0  0  0
 16 17  2  0  0  0
 16 21  1  0  0  0
 16 31  1  0  0  0
 17 18  1  0  0  0
 17 98  1  0  0  0
 18 19  2  0  0  0
 18 99  1  0  0  0
 19 20  1  0  0  0
 19 24  1  0  0  0
 20 21  2  0  0  0
 20100  1  0  0  0
 21 23  1  0  0  0
 22 28  1  0  0  0
 22 32  2  0  0  0
 26 27  1  0  0  0
 28101  1  0  0  0
 28102  1  0  0  0
 29103  1  0  0  0
 29104  1  0  0  0
 33 34  1  0  0  0
 33 66  1  0  0  0
 33 70  2  0  0  0
 34 36  1  0  0  0
 34 59  1  0  0  0
 34105  1  0  0  0
 35 44  2  0  0  0
 35 45  1  0  0  0
 35 68  1  0  0  0
 36 56  1  0  0  0
 36106  1  0  0  0
 37 39  1  0  0  0
 37 47  1  0  0  0
 37 66  1  0  0  0
 37107  1  0  0  0
 38 43  2  0  0  0
 38 46  1  0  0  0
 38 47  1  0  0  0
 39 64  1  0  0  0
 39 67  2  0  0  0
 40 52  1  0  0  0
 40 53  2  0  0  0
 40 58  1  0  0  0
 41108  1  0  0  0
 41109  1  0  0  0
 41110  1  0  0  0
 41 48  1  0  0  0
 42 43  1  0  0  0
 42 66  1  0  0  0
 42111  1  0  0  0
 42112  1  0  0  0
 43 44  1  0  0  0
 44113  1  0  0  0
 45 46  2  0  0  0
 45114  1  0  0  0
 46115  1  0  0  0
 47116  1  0  0  0
 47117  1  0  0  0
 48 56  1  0  0  0
 48 65  1  0  0  0
 48118  1  0  0  0
 49 50  1  0  0  0
 49 53  1  0  0  0
 49 64  1  0  0  0
 49119  1  0  0  0
 50 51  1  0  0  0
 50120  1  0  0  0
 50121  1  0  0  0
 51 52  1  0  0  0
 51122  1  0  0  0
 51123  1  0  0  0
 52124  1  0  0  0
 52125  1  0  0  0
 53 54  1  0  0  0
 54 55  2  0  0  0
 54126  1  0  0  0
 55 57  1  0  0  0
 55127  1  0  0  0
 56 69  2  0  0  0
 57 58  2  0  0  0
 57128  1  0  0  0
 58129  1  0  0  0
 59 60  1  0  0  0
 59 61  1  0  0  0
 59 62  1  0  0  0
 60130  1  0  0  0
 60131  1  0  0  0
 60132  1  0  0  0
 61133  1  0  0  0
 61134  1  0  0  0
 61135  1  0  0  0
 62136  1  0  0  0
 62137  1  0  0  0
 62138  1  0  0  0
 63 65  1  0  0  0
 63139  1  0  0  0
 63140  1  0  0  0
 63141  1  0  0  0
 64142  1  0  0  0
 65143  1  0  0  0
 68 82  1  0  0  0
 71 73  2  0  0  0
 71 75  1  0  0  0
 71144  1  0  0  0
 72 75  2  0  0  0
 72 76  1  0  0  0
 72145  1  0  0  0
 73 74  1  0  0  0
 73 77  1  0  0  0
 74 76  2  0  0  0
 74 78  1  0  0  0
 75 83  1  0  0  0
 76 84  1  0  0  0
 77146  1  0  0  0
 77147  1  0  0  0
 77148  1  0  0  0
 78149  1  0  0  0
 78150  1  0  0  0
 78151  1  0  0  0
 79 80  1  0  0  0
 79152  1  0  0  0
 79153  1  0  0  0
 79154  1  0  0  0
 80 84  1  0  0  0
 80155  1  0  0  0
 80156  1  0  0  0
 81 82  1  0  0  0
 81 84  1  0  0  0
 81157  1  0  0  0
 81158  1  0  0  0
 82159  1  0  0  0
 82160  1  0  0  0
 83161  1  0  0  0
M  ISO  4   1 100  68 101  82 101  83 100
M  END
> <chiral flag>
0

> <version>
0

> <s_m_source_file>
/data/baiqing/PycharmProjects/Reinvent-master-3.2/result/LINK_invent/BTK/process_docking_weight1_custom_sum_contain_oxygen_bond_distance_aromatic_linkinvent_7_9_3/rearranged_h_0013.sdf

> <i_m_source_file_index>
87

> <r_mmod_Potential_Energy-OPLS-2005>
786.173645019531

> <r_mmod_Stretch_Energy-OPLS-2005>
341.873931884766

> <r_mmod_Bend_Energy-OPLS-2005>
332.898834228516

> <r_mmod_Torsional_Energy-OPLS-2005>
261.430755615234

> <r_mmod_Improper_Torsional_Energy-OPLS-2005>
17.4965858459473

> <r_mmod_Van_der_Waal_Energy-OPLS-2005>
158.815902709961

> <r_mmod_Electrostatic_Energy-OPLS-2005>
-358.513336181641

> <r_mmod_Solvation_Energy-OPLS-2005>
-225.407165527344

> <b_mmod_Minimization_Converged-OPLS-2005>
0

> <r_mmod_RMS_Derivative-OPLS-2005>
7.52398681640625

$$$$
87
                    3D
 Structure written by MMmdl.
168175  0  0  1  0            999 V2000
  -30.6437  -14.5653   20.5083 C   0  0  0  0  0  0
  -30.4344  -12.3440   19.4485 C   0  0  0  0  0  0
  -29.5036  -12.5053   18.2245 C   0  0  0  0  0  0
  -28.0245  -12.3537   18.6320 C   0  0  0  0  0  0
  -27.6592  -13.2095   19.8741 C   0  0  2  0  0  0
  -28.7030  -13.0261   21.0024 C   0  0  0  0  0  0
  -25.2566  -13.8159   20.5657 C   0  0  0  0  0  0
  -24.1815  -13.0435   20.9156 C   0  0  0  0  0  0
  -24.6370  -11.6898   20.8731 C   0  0  0  0  0  0
  -23.9047  -10.4284   21.0398 C   0  0  0  0  0  0
  -24.3598   -9.4194   21.9174 C   0  0  0  0  0  0
  -23.6281   -8.2228   22.0748 C   0  0  0  0  0  0
  -22.4258   -8.0270   21.3537 C   0  0  0  0  0  0
  -21.9890   -9.0250   20.4637 C   0  0  0  0  0  0
  -22.7223  -10.2124   20.3045 C   0  0  0  0  0  0
  -21.6848   -6.0723   22.5283 C   0  0  0  0  0  0
  -21.4014   -6.5628   23.8212 C   0  0  0  0  0  0
  -21.3656   -5.6779   24.9182 C   0  0  0  0  0  0
  -21.6056   -4.3050   24.7220 C   0  0  0  0  0  0
  -21.8826   -3.8129   23.4342 C   0  0  0  0  0  0
  -21.9187   -4.6949   22.3398 C   0  0  0  0  0  0
  -22.7837  -13.5240   21.1834 C   0  0  0  0  0  0
  -22.1651   -4.2129   21.0979 F   0  0  0  0  0  0
  -21.5630   -3.4535   25.7735 F   0  0  0  0  0  0
  -30.0326  -13.3457   20.4527 N   0  0  0  0  0  0
  -26.3010  -12.9325   20.3365 N   0  0  0  0  0  0
  -25.9312  -11.6485   20.5785 N   0  0  0  0  0  0
  -22.0468  -12.8250   22.0402 N   0  0  0  0  0  0
  -25.4301  -15.1871   20.4037 N   0  0  0  0  0  0
  -31.7722  -14.7621   20.0490 O   0  0  0  0  0  0
  -21.6624   -6.8867   21.4243 O   0  0  0  0  0  0
  -22.3525  -14.5552   20.6685 O   0  0  0  0  0  0
  -24.6195  -31.8636   23.2048 C   0  0  0  0  0  0
  -25.9064  -32.4804   23.8362 C   0  0  1  0  0  0
  -27.2349  -27.3741   20.1025 C   0  0  0  0  0  0
  -25.5894  -33.8601   24.2288 N   0  0  0  0  0  0
  -23.4099  -30.4862   21.5483 C   0  0  2  0  0  0
  -24.8566  -28.9461   20.1116 C   0  0  0  0  0  0
  -22.7433  -29.4638   22.4980 C   0  0  0  0  0  0
  -18.0269  -28.1360   22.8489 C   0  0  0  0  0  0
  -24.1480  -36.7319   23.2635 C   0  0  0  0  0  0
  -25.9451  -30.8109   21.3655 C   0  0  0  0  0  0
  -26.0217  -29.4416   20.7101 C   0  0  0  0  0  0
  -27.2125  -28.6669   20.6946 C   0  0  0  0  0  0
  -26.0452  -26.9154   19.4869 C   0  0  0  0  0  0
  -24.8681  -27.6875   19.4911 C   0  0  0  0  0  0
  -23.6188  -29.8159   20.1647 C   0  0  0  0  0  0
  -25.4104  -36.3101   24.0325 C   0  0  1  0  0  0
  -20.5863  -28.3656   23.1301 C   0  0  2  0  0  0
  -20.6749  -26.9389   22.5408 C   0  0  0  0  0  0
  -19.5743  -26.6373   21.5189 C   0  0  0  0  0  0
  -18.1924  -26.7908   22.1612 C   0  0  0  0  0  0
  -19.1521  -28.8828   23.2894 C   0  0  0  0  0  0
  -18.9449  -30.1429   23.8910 C   0  0  0  0  0  0
  -17.6456  -30.6580   24.0552 C   0  0  0  0  0  0
  -25.9036  -34.9469   23.5110 C   0  0  0  0  0  0
  -16.5345  -29.9076   23.6323 C   0  0  0  0  0  0
  -16.7259  -28.6480   23.0368 C   0  0  0  0  0  0
  -26.4465  -31.6609   25.0721 C   0  0  0  0  0  0
  -25.3709  -31.3752   26.1462 C   0  0  0  0  0  0
  -27.0288  -30.3037   24.6135 C   0  0  0  0  0  0
  -27.6036  -32.4332   25.7492 C   0  0  0  0  0  0
  -27.5577  -37.1803   24.8455 C   0  0  0  0  0  0
  -21.4154  -29.3028   22.3715 N   0  0  0  0  0  0
  -26.4284  -37.3789   23.9409 N   0  0  0  0  0  0
  -24.6772  -31.0686   22.0976 N   0  0  0  0  0  0
  -23.4188  -28.8181   23.3038 O   0  0  0  0  0  0
  -28.3858  -26.5848   20.1431 O   0  0  0  0  0  0
  -26.5614  -34.8925   22.4682 O   0  0  0  0  0  0
  -23.5377  -32.1409   23.7415 O   0  0  0  0  0  0
  -30.5021  -18.1179   20.8750 C   0  0  0  0  0  0
  -30.9821  -22.1214   23.4054 C   0  0  0  0  0  0
  -30.6152  -19.7050   23.7685 C   0  0  0  0  0  0
  -28.6817  -21.1043   23.1611 C   0  0  0  0  0  0
  -31.3938  -21.7503   19.3040 C   0  0  0  0  0  0
  -29.7426  -16.9343   20.2236 C   0  0  0  0  0  0
  -29.4795  -24.2661   20.3713 C   0  0  0  0  0  0
  -29.3062  -22.6989   20.2313 C   0  0  0  0  0  0
  -28.2270  -25.1385   20.0122 C   0  0  0  0  0  0
  -30.5265  -20.6402   21.3632 C   0  0  1  0  0  0
  -30.1868  -20.9003   22.8851 C   0  0  0  0  0  0
  -29.9506  -19.3670   20.8286 N   0  0  0  0  0  0
  -29.8323  -15.5892   20.8588 N   0  0  0  0  0  0
  -30.5612  -21.9081   20.5213 N   0  3  1  0  0  0
  -31.6017  -17.8985   21.3856 O   0  0  0  0  0  0
  -31.4770  -12.4575   19.1458 H   0  0  0  0  0  0
  -30.3548  -11.3394   19.8657 H   0  0  0  0  0  0
  -29.7572  -11.7720   17.4594 H   0  0  0  0  0  0
  -29.6571  -13.4856   17.7692 H   0  0  0  0  0  0
  -27.8468  -11.2987   18.8448 H   0  0  0  0  0  0
  -27.3721  -12.6071   17.7954 H   0  0  0  0  0  0
  -27.6913  -14.2497   19.5502 H   0  0  0  0  0  0
  -28.6902  -11.9984   21.3675 H   0  0  0  0  0  0
  -28.4556  -13.6451   21.8676 H   0  0  0  0  0  0
  -25.2734   -9.5671   22.4753 H   0  0  0  0  0  0
  -23.9980   -7.4620   22.7474 H   0  0  0  0  0  0
  -21.0813   -8.8781   19.8953 H   0  0  0  0  0  0
  -22.3688  -10.9662   19.6154 H   0  0  0  0  0  0
  -21.2014   -7.6138   23.9728 H   0  0  0  0  0  0
  -21.1474   -6.0498   25.9095 H   0  0  0  0  0  0
  -22.0607   -2.7588   23.2844 H   0  0  0  0  0  0
  -22.4043  -11.9893   22.4794 H   0  0  0  0  0  0
  -21.1112  -13.1326   22.2630 H   0  0  0  0  0  0
  -24.6646  -15.8445   20.5089 H   0  0  0  0  0  0
  -26.2858  -15.6256   20.0873 H   0  0  0  0  0  0
  -26.7132  -32.5494   23.1119 H   0  0  0  0  0  0
  -25.0012  -33.9756   25.0409 H   0  0  0  0  0  0
  -22.7002  -31.3038   21.4070 H   0  0  0  0  0  0
  -23.3733  -35.9660   23.3294 H   0  0  0  0  0  0
  -24.3572  -36.8950   22.2053 H   0  0  0  0  0  0
  -23.7236  -37.6519   23.6666 H   0  0  0  0  0  0
  -26.0622  -31.5743   20.5952 H   0  0  0  0  0  0
  -26.8316  -30.8650   21.9863 H   0  0  0  0  0  0
  -28.1091  -29.0477   21.1625 H   0  0  0  0  0  0
  -26.0006  -25.9549   18.9958 H   0  0  0  0  0  0
  -23.9749  -27.3053   19.0147 H   0  0  0  0  0  0
  -23.7201  -30.5875   19.4005 H   0  0  0  0  0  0
  -22.7428  -29.2319   19.8759 H   0  0  0  0  0  0
  -25.1277  -36.1957   25.0813 H   0  0  0  0  0  0
  -20.9945  -28.3208   24.1425 H   0  0  0  0  0  0
  -20.5615  -26.2267   23.3592 H   0  0  0  0  0  0
  -21.6630  -26.7409   22.1225 H   0  0  0  0  0  0
  -19.6906  -25.6284   21.1223 H   0  0  0  0  0  0
  -19.6684  -27.3172   20.6716 H   0  0  0  0  0  0
  -17.4183  -26.6640   21.4020 H   0  0  0  0  0  0
  -18.0350  -26.0044   22.9007 H   0  0  0  0  0  0
  -19.7932  -30.7226   24.2298 H   0  0  0  0  0  0
  -17.5019  -31.6264   24.5138 H   0  0  0  0  0  0
  -15.5348  -30.2991   23.7637 H   0  0  0  0  0  0
  -15.8654  -28.0792   22.7113 H   0  0  0  0  0  0
  -24.5867  -30.7114   25.7802 H   0  0  0  0  0  0
  -24.8914  -32.2927   26.4890 H   0  0  0  0  0  0
  -25.8037  -30.8930   27.0236 H   0  0  0  0  0  0
  -26.2841  -29.6818   24.1151 H   0  0  0  0  0  0
  -27.3989  -29.7261   25.4617 H   0  0  0  0  0  0
  -27.8711  -30.4334   23.9333 H   0  0  0  0  0  0
  -27.2651  -33.3631   26.2076 H   0  0  0  0  0  0
  -28.3849  -32.6896   25.0326 H   0  0  0  0  0  0
  -28.0697  -31.8451   26.5409 H   0  0  0  0  0  0
  -28.2583  -38.0112   24.7518 H   0  0  0  0  0  0
  -28.1081  -36.2642   24.6251 H   0  0  0  0  0  0
  -27.2304  -37.1422   25.8859 H   0  0  0  0  0  0
  -20.9316  -29.8758   21.6944 H   0  0  0  0  0  0
  -26.0171  -38.2864   24.1416 H   0  0  0  0  0  0
  -30.8071  -22.2869   24.4698 H   0  0  0  0  0  0
  -30.7089  -23.0495   22.9069 H   0  0  0  0  0  0
  -32.0573  -21.9808   23.2782 H   0  0  0  0  0  0
  -30.5028  -19.9328   24.8294 H   0  0  0  0  0  0
  -31.6597  -19.4360   23.6124 H   0  0  0  0  0  0
  -30.0104  -18.8176   23.5815 H   0  0  0  0  0  0
  -28.4649  -21.0114   24.2262 H   0  0  0  0  0  0
  -28.0689  -20.3614   22.6498 H   0  0  0  0  0  0
  -28.3289  -22.0969   22.8916 H   0  0  0  0  0  0
  -31.5174  -22.7031   18.7878 H   0  0  0  0  0  0
  -30.9381  -21.0475   18.6053 H   0  0  0  0  0  0
  -32.3941  -21.3879   19.5434 H   0  0  0  0  0  0
  -30.0705  -16.8570   19.1851 H   0  0  0  0  0  0
  -28.6844  -17.1937   20.1756 H   0  0  0  0  0  0
  -30.3031  -24.5910   19.7349 H   0  0  0  0  0  0
  -29.7790  -24.5062   21.3919 H   0  0  0  0  0  0
  -28.9847  -22.4744   19.2131 H   0  0  0  0  0  0
  -28.4739  -22.3624   20.8378 H   0  0  0  0  0  0
  -27.4000  -24.8143   20.6477 H   0  0  0  0  0  0
  -27.9461  -24.9089   18.9847 H   0  0  0  0  0  0
  -31.5944  -20.4165   21.4120 H   0  0  0  0  0  0
  -29.0405  -19.4378   20.3978 H   0  0  0  0  0  0
  -28.9897  -15.2950   21.3282 H   0  0  0  0  0  0
  -31.1001  -22.5252   21.1113 H   0  0  0  0  0  0
  1 25  1  0  0  0
  1 30  2  0  0  0
  1 83  1  0  0  0
  2  3  1  0  0  0
  2 25  1  0  0  0
  2 86  1  0  0  0
  2 87  1  0  0  0
  3  4  1  0  0  0
  3 88  1  0  0  0
  3 89  1  0  0  0
  4  5  1  0  0  0
  4 90  1  0  0  0
  4 91  1  0  0  0
  5  6  1  0  0  0
  5 26  1  0  0  0
  5 92  1  0  0  0
  6 25  1  0  0  0
  6 93  1  0  0  0
  6 94  1  0  0  0
  7  8  2  0  0  0
  7 26  1  0  0  0
  7 29  1  0  0  0
  8  9  1  0  0  0
  8 22  1  0  0  0
  9 10  1  0  0  0
  9 27  2  0  0  0
 10 11  2  0  0  0
 10 15  1  0  0  0
 11 12  1  0  0  0
 11 95  1  0  0  0
 12 13  2  0  0  0
 12 96  1  0  0  0
 13 14  1  0  0  0
 13 31  1  0  0  0
 14 15  2  0  0  0
 14 97  1  0  0  0
 15 98  1  0  0  0
 16 17  2  0  0  0
 16 21  1  0  0  0
 16 31  1  0  0  0
 17 18  1  0  0  0
 17 99  1  0  0  0
 18 19  2  0  0  0
 18100  1  0  0  0
 19 20  1  0  0  0
 19 24  1  0  0  0
 20 21  2  0  0  0
 20101  1  0  0  0
 21 23  1  0  0  0
 22 28  1  0  0  0
 22 32  2  0  0  0
 26 27  1  0  0  0
 28102  1  0  0  0
 28103  1  0  0  0
 29104  1  0  0  0
 29105  1  0  0  0
 33 34  1  0  0  0
 33 66  1  0  0  0
 33 70  2  0  0  0
 34 36  1  0  0  0
 34 59  1  0  0  0
 34106  1  0  0  0
 35 44  2  0  0  0
 35 45  1  0  0  0
 35 68  1  0  0  0
 36 56  1  0  0  0
 36107  1  0  0  0
 37 39  1  0  0  0
 37 47  1  0  0  0
 37 66  1  0  0  0
 37108  1  0  0  0
 38 43  2  0  0  0
 38 46  1  0  0  0
 38 47  1  0  0  0
 39 64  1  0  0  0
 39 67  2  0  0  0
 40 52  1  0  0  0
 40 53  2  0  0  0
 40 58  1  0  0  0
 41109  1  0  0  0
 41110  1  0  0  0
 41111  1  0  0  0
 41 48  1  0  0  0
 42 43  1  0  0  0
 42 66  1  0  0  0
 42112  1  0  0  0
 42113  1  0  0  0
 43 44  1  0  0  0
 44114  1  0  0  0
 45 46  2  0  0  0
 45115  1  0  0  0
 46116  1  0  0  0
 47117  1  0  0  0
 47118  1  0  0  0
 48 56  1  0  0  0
 48 65  1  0  0  0
 48119  1  0  0  0
 49 50  1  0  0  0
 49 53  1  0  0  0
 49 64  1  0  0  0
 49120  1  0  0  0
 50 51  1  0  0  0
 50121  1  0  0  0
 50122  1  0  0  0
 51 52  1  0  0  0
 51123  1  0  0  0
 51124  1  0  0  0
 52125  1  0  0  0
 52126  1  0  0  0
 53 54  1  0  0  0
 54 55  2  0  0  0
 54127  1  0  0  0
 55 57  1  0  0  0
 55128  1  0  0  0
 56 69  2  0  0  0
 57 58  2  0  0  0
 57129  1  0  0  0
 58130  1  0  0  0
 59 60  1  0  0  0
 59 61  1  0  0  0
 59 62  1  0  0  0
 60131  1  0  0  0
 60132  1  0  0  0
 60133  1  0  0  0
 61134  1  0  0  0
 61135  1  0  0  0
 61136  1  0  0  0
 62137  1  0  0  0
 62138  1  0  0  0
 62139  1  0  0  0
 63 65  1  0  0  0
 63140  1  0  0  0
 63141  1  0  0  0
 63142  1  0  0  0
 64143  1  0  0  0
 65144  1  0  0  0
 68 79  1  0  0  0
 71 76  1  0  0  0
 71 82  1  0  0  0
 71 85  2  0  0  0
 72145  1  0  0  0
 72146  1  0  0  0
 72147  1  0  0  0
 72 81  1  0  0  0
 73 81  1  0  0  0
 73148  1  0  0  0
 73149  1  0  0  0
 73150  1  0  0  0
 74 81  1  0  0  0
 74151  1  0  0  0
 74152  1  0  0  0
 74153  1  0  0  0
 75154  1  0  0  0
 75155  1  0  0  0
 75156  1  0  0  0
 75 84  1  0  0  0
 76 83  1  0  0  0
 76157  1  0  0  0
 76158  1  0  0  0
 77 78  1  0  0  0
 77 79  1  0  0  0
 77159  1  0  0  0
 77160  1  0  0  0
 78 84  1  0  0  0
 78161  1  0  0  0
 78162  1  0  0  0
 79163  1  0  0  0
 79164  1  0  0  0
 80 81  1  0  0  0
 80 82  1  0  0  0
 80 84  1  0  0  0
 80165  1  0  0  0
 82166  1  0  0  0
 83167  1  0  0  0
 84168  1  0  0  0
M  CHG  1  84   1
M  ISO  4   1 100  68 101  79 101  83 100
M  END
> <chiral flag>
0

> <version>
0

> <s_m_source_file>
/data/baiqing/PycharmProjects/Reinvent-master-3.2/result/LINK_invent/BTK/process_docking_weight1_custom_sum_contain_oxygen_bond_distance_aromatic_linkinvent_7_9_3/rearranged_h_0013.sdf

> <i_m_source_file_index>
88

> <r_mmod_Potential_Energy-OPLS-2005>
-282.436828613281

> <r_mmod_Stretch_Energy-OPLS-2005>
62.6240425109863

> <r_mmod_Bend_Energy-OPLS-2005>
141.849563598633

> <r_mmod_Torsional_Energy-OPLS-2005>
250.205169677734

> <r_mmod_Improper_Torsional_Energy-OPLS-2005>
7.88703298568726

> <r_mmod_Van_der_Waal_Energy-OPLS-2005>
137.303024291992

> <r_mmod_Electrostatic_Energy-OPLS-2005>
-421.489288330078

> <r_mmod_Solvation_Energy-OPLS-2005>
-488.528991699219

> <b_mmod_Minimization_Converged-OPLS-2005>
0

> <r_mmod_RMS_Derivative-OPLS-2005>
2.29416346549988

$$$$
88
                    3D
 Structure written by MMmdl.
163171  0  0  1  0            999 V2000
  -30.7165  -14.4396   20.6114 C   0  0  0  0  0  0
  -30.4253  -12.3000   19.4128 C   0  0  0  0  0  0
  -29.4968  -12.5042   18.1979 C   0  0  0  0  0  0
  -28.0174  -12.3556   18.6049 C   0  0  0  0  0  0
  -27.6619  -13.1820   19.8686 C   0  0  2  0  0  0
  -28.7039  -12.9596   20.9885 C   0  0  0  0  0  0
  -25.2630  -13.8120   20.5613 C   0  0  0  0  0  0
  -24.1852  -13.0441   20.9137 C   0  0  0  0  0  0
  -24.6360  -11.6889   20.8699 C   0  0  0  0  0  0
  -23.9008  -10.4289   21.0384 C   0  0  0  0  0  0
  -24.3579   -9.4215   21.9178 C   0  0  0  0  0  0
  -23.6265   -8.2243   22.0756 C   0  0  0  0  0  0
  -22.4253   -8.0274   21.3540 C   0  0  0  0  0  0
  -21.9864   -9.0237   20.4639 C   0  0  0  0  0  0
  -22.7172  -10.2129   20.3042 C   0  0  0  0  0  0
  -21.6853   -6.0712   22.5260 C   0  0  0  0  0  0
  -21.4014   -6.5609   23.8193 C   0  0  0  0  0  0
  -21.3653   -5.6768   24.9163 C   0  0  0  0  0  0
  -21.6050   -4.3025   24.7215 C   0  0  0  0  0  0
  -21.8826   -3.8116   23.4329 C   0  0  0  0  0  0
  -21.9189   -4.6937   22.3378 C   0  0  0  0  0  0
  -22.7884  -13.5275   21.1807 C   0  0  0  0  0  0
  -22.1663   -4.2126   21.0954 F   0  0  0  0  0  0
  -21.5628   -3.4498   25.7718 F   0  0  0  0  0  0
  -30.0427  -13.2692   20.4511 N   0  0  0  0  0  0
  -26.3017  -12.9197   20.3305 N   0  0  0  0  0  0
  -25.9271  -11.6388   20.5734 N   0  0  0  0  0  0
  -22.0500  -12.8303   22.0372 N   0  0  0  0  0  0
  -25.4468  -15.1837   20.4021 N   0  0  0  0  0  0
  -31.8050  -14.6730   20.0803 O   0  0  0  0  0  0
  -21.6633   -6.8867   21.4231 O   0  0  0  0  0  0
  -22.3562  -14.5569   20.6633 O   0  0  0  0  0  0
  -24.6141  -31.8689   23.2132 C   0  0  0  0  0  0
  -25.9024  -32.4832   23.8421 C   0  0  1  0  0  0
  -27.2279  -27.4454   20.0668 C   0  0  0  0  0  0
  -25.5889  -33.8634   24.2325 N   0  0  0  0  0  0
  -23.4010  -30.4945   21.5564 C   0  0  2  0  0  0
  -24.8421  -28.9619   20.1185 C   0  0  0  0  0  0
  -22.7392  -29.4663   22.5021 C   0  0  0  0  0  0
  -18.0272  -28.1370   22.8496 C   0  0  0  0  0  0
  -24.1478  -36.7316   23.2645 C   0  0  0  0  0  0
  -25.9327  -30.8296   21.3720 C   0  0  0  0  0  0
  -26.0055  -29.4676   20.7144 C   0  0  0  0  0  0
  -27.1993  -28.7111   20.6972 C   0  0  0  0  0  0
  -26.0394  -26.9416   19.4940 C   0  0  0  0  0  0
  -24.8518  -27.6951   19.5157 C   0  0  0  0  0  0
  -23.6066  -29.8303   20.1701 C   0  0  0  0  0  0
  -25.4108  -36.3119   24.0328 C   0  0  1  0  0  0
  -20.5852  -28.3640   23.1323 C   0  0  2  0  0  0
  -20.6758  -26.9376   22.5414 C   0  0  0  0  0  0
  -19.5741  -26.6364   21.5214 C   0  0  0  0  0  0
  -18.1916  -26.7921   22.1623 C   0  0  0  0  0  0
  -19.1512  -28.8835   23.2916 C   0  0  0  0  0  0
  -18.9448  -30.1447   23.8913 C   0  0  0  0  0  0
  -17.6442  -30.6577   24.0574 C   0  0  0  0  0  0
  -25.9046  -34.9480   23.5129 C   0  0  0  0  0  0
  -16.5339  -29.9077   23.6323 C   0  0  0  0  0  0
  -16.7253  -28.6501   23.0336 C   0  0  0  0  0  0
  -26.4445  -31.6639   25.0762 C   0  0  0  0  0  0
  -25.3700  -31.3756   26.1509 C   0  0  0  0  0  0
  -27.0273  -30.3079   24.6154 C   0  0  0  0  0  0
  -27.6017  -32.4390   25.7498 C   0  0  0  0  0  0
  -27.5582  -37.1814   24.8452 C   0  0  0  0  0  0
  -21.4123  -29.3026   22.3749 N   0  0  0  0  0  0
  -26.4287  -37.3802   23.9399 N   0  0  0  0  0  0
  -24.6683  -31.0781   22.1049 N   0  0  0  0  0  0
  -23.4177  -28.8195   23.3052 O   0  0  0  0  0  0
  -28.3934  -26.7086   20.0431 O   0  0  0  0  0  0
  -26.5601  -34.8907   22.4692 O   0  0  0  0  0  0
  -23.5332  -32.1448   23.7537 O   0  0  0  0  0  0
  -30.9422  -19.0157   21.4199 C   0  0  0  0  0  0
  -29.9202  -19.5507   20.6019 C   0  0  0  0  0  0
  -30.0922  -16.7495   21.0601 C   0  0  0  0  0  0
  -28.9970  -18.6732   19.9854 C   0  0  0  0  0  0
  -31.0351  -17.6239   21.6465 C   0  0  0  0  0  0
  -29.0773  -17.2816   20.2363 C   0  0  0  0  0  0
  -29.9645  -22.4412   18.4139 C   0  0  0  0  0  0
  -30.4310  -22.5623   16.9742 C   0  0  0  0  0  0
  -27.9828  -18.6718   17.8529 C   0  0  0  0  0  0
  -29.8088  -21.0587   20.3746 C   0  0  0  0  0  0
  -29.0696  -23.5982   18.9028 C   0  0  0  0  0  0
  -29.7539  -24.9920   18.8831 C   0  0  0  0  0  0
  -28.7827  -26.1882   18.7664 C   0  0  0  0  0  0
  -30.3116  -21.3887   19.0492 N   0  0  0  0  0  0
  -30.0826  -15.3581   21.3542 N   0  0  0  0  0  0
  -28.0224  -19.2036   19.1733 O   0  0  0  0  0  0
  -32.0048  -17.1328   22.4573 F   0  0  0  0  0  0
  -28.1510  -16.4497   19.7063 F   0  0  0  0  0  0
  -31.4690  -12.4021   19.1151 H   0  0  0  0  0  0
  -30.3256  -11.2864   19.8036 H   0  0  0  0  0  0
  -29.7410  -11.7842   17.4137 H   0  0  0  0  0  0
  -29.6645  -13.4910   17.7667 H   0  0  0  0  0  0
  -27.8259  -11.2964   18.7830 H   0  0  0  0  0  0
  -27.3753  -12.6416   17.7698 H   0  0  0  0  0  0
  -27.7030  -14.2216   19.5669 H   0  0  0  0  0  0
  -28.6805  -11.9188   21.3104 H   0  0  0  0  0  0
  -28.4474  -13.5367   21.8779 H   0  0  0  0  0  0
  -25.2745   -9.5666   22.4755 H   0  0  0  0  0  0
  -23.9957   -7.4618   22.7466 H   0  0  0  0  0  0
  -21.0797   -8.8714   19.8954 H   0  0  0  0  0  0
  -22.3611  -10.9647   19.6134 H   0  0  0  0  0  0
  -21.2009   -7.6123   23.9679 H   0  0  0  0  0  0
  -21.1483   -6.0513   25.9071 H   0  0  0  0  0  0
  -22.0621   -2.7579   23.2829 H   0  0  0  0  0  0
  -22.4078  -11.9984   22.4804 H   0  0  0  0  0  0
  -21.1119  -13.1349   22.2531 H   0  0  0  0  0  0
  -24.6944  -15.8552   20.5046 H   0  0  0  0  0  0
  -26.3174  -15.6039   20.0906 H   0  0  0  0  0  0
  -26.7101  -32.5495   23.1186 H   0  0  0  0  0  0
  -25.0018  -33.9815   25.0451 H   0  0  0  0  0  0
  -22.6898  -31.3121   21.4199 H   0  0  0  0  0  0
  -23.3732  -35.9658   23.3310 H   0  0  0  0  0  0
  -24.3575  -36.8935   22.2062 H   0  0  0  0  0  0
  -23.7214  -37.6512   23.6655 H   0  0  0  0  0  0
  -26.0562  -31.6005   20.6103 H   0  0  0  0  0  0
  -26.8176  -30.8703   21.9951 H   0  0  0  0  0  0
  -28.1007  -29.0972   21.1536 H   0  0  0  0  0  0
  -26.0084  -25.9595   19.0433 H   0  0  0  0  0  0
  -23.9533  -27.2905   19.0701 H   0  0  0  0  0  0
  -23.7177  -30.6045   19.4113 H   0  0  0  0  0  0
  -22.7252  -29.2570   19.8752 H   0  0  0  0  0  0
  -25.1283  -36.2003   25.0818 H   0  0  0  0  0  0
  -20.9959  -28.3195   24.1440 H   0  0  0  0  0  0
  -20.5631  -26.2249   23.3598 H   0  0  0  0  0  0
  -21.6633  -26.7411   22.1226 H   0  0  0  0  0  0
  -19.6895  -25.6278   21.1243 H   0  0  0  0  0  0
  -19.6670  -27.3162   20.6736 H   0  0  0  0  0  0
  -17.4177  -26.6650   21.4032 H   0  0  0  0  0  0
  -18.0325  -26.0053   22.9003 H   0  0  0  0  0  0
  -19.7916  -30.7275   24.2253 H   0  0  0  0  0  0
  -17.4989  -31.6243   24.5186 H   0  0  0  0  0  0
  -15.5337  -30.2984   23.7646 H   0  0  0  0  0  0
  -15.8649  -28.0834   22.7033 H   0  0  0  0  0  0
  -24.5816  -30.7180   25.7834 H   0  0  0  0  0  0
  -24.8955  -32.2927   26.5022 H   0  0  0  0  0  0
  -25.8045  -30.8849   27.0225 H   0  0  0  0  0  0
  -26.2837  -29.6855   24.1162 H   0  0  0  0  0  0
  -27.3987  -29.7312   25.4635 H   0  0  0  0  0  0
  -27.8692  -30.4405   23.9349 H   0  0  0  0  0  0
  -27.2620  -33.3666   26.2109 H   0  0  0  0  0  0
  -28.3774  -32.7011   25.0294 H   0  0  0  0  0  0
  -28.0716  -31.8498   26.5375 H   0  0  0  0  0  0
  -28.2603  -38.0110   24.7518 H   0  0  0  0  0  0
  -28.1074  -36.2647   24.6256 H   0  0  0  0  0  0
  -27.2303  -37.1449   25.8854 H   0  0  0  0  0  0
  -20.9273  -29.8780   21.6998 H   0  0  0  0  0  0
  -26.0176  -38.2877   24.1407 H   0  0  0  0  0  0
  -31.6586  -19.6752   21.8901 H   0  0  0  0  0  0
  -30.1795  -23.5220   16.5279 H   0  0  0  0  0  0
  -29.9524  -21.7943   16.3676 H   0  0  0  0  0  0
  -31.5114  -22.4231   16.9074 H   0  0  0  0  0  0
  -27.5195  -19.4002   17.1868 H   0  0  0  0  0  0
  -27.3909  -17.7593   17.7994 H   0  0  0  0  0  0
  -28.9840  -18.4659   17.4672 H   0  0  0  0  0  0
  -30.3722  -21.5945   21.1412 H   0  0  0  0  0  0
  -28.7581  -21.3273   20.5027 H   0  0  0  0  0  0
  -28.6791  -23.4183   19.9028 H   0  0  0  0  0  0
  -28.1960  -23.6111   18.2500 H   0  0  0  0  0  0
  -30.4114  -25.0654   18.0175 H   0  0  0  0  0  0
  -30.4101  -25.1081   19.7438 H   0  0  0  0  0  0
  -27.9476  -25.9153   18.1225 H   0  0  0  0  0  0
  -29.2844  -27.0048   18.2446 H   0  0  0  0  0  0
  -29.2256  -15.0146   21.7528 H   0  0  0  0  0  0
  1 25  1  0  0  0
  1 30  2  0  0  0
  1 85  1  0  0  0
  2  3  1  0  0  0
  2 25  1  0  0  0
  2 89  1  0  0  0
  2 90  1  0  0  0
  3  4  1  0  0  0
  3 91  1  0  0  0
  3 92  1  0  0  0
  4  5  1  0  0  0
  4 93  1  0  0  0
  4 94  1  0  0  0
  5  6  1  0  0  0
  5 26  1  0  0  0
  5 95  1  0  0  0
  6 25  1  0  0  0
  6 96  1  0  0  0
  6 97  1  0  0  0
  7  8  2  0  0  0
  7 26  1  0  0  0
  7 29  1  0  0  0
  8  9  1  0  0  0
  8 22  1  0  0  0
  9 10  1  0  0  0
  9 27  2  0  0  0
 10 11  2  0  0  0
 10 15  1  0  0  0
 11 12  1  0  0  0
 11 98  1  0  0  0
 12 13  2  0  0  0
 12 99  1  0  0  0
 13 14  1  0  0  0
 13 31  1  0  0  0
 14 15  2  0  0  0
 14100  1  0  0  0
 15101  1  0  0  0
 16 17  2  0  0  0
 16 21  1  0  0  0
 16 31  1  0  0  0
 17 18  1  0  0  0
 17102  1  0  0  0
 18 19  2  0  0  0
 18103  1  0  0  0
 19 20  1  0  0  0
 19 24  1  0  0  0
 20 21  2  0  0  0
 20104  1  0  0  0
 21 23  1  0  0  0
 22 28  1  0  0  0
 22 32  2  0  0  0
 26 27  1  0  0  0
 28105  1  0  0  0
 28106  1  0  0  0
 29107  1  0  0  0
 29108  1  0  0  0
 33 34  1  0  0  0
 33 66  1  0  0  0
 33 70  2  0  0  0
 34 36  1  0  0  0
 34 59  1  0  0  0
 34109  1  0  0  0
 35 44  2  0  0  0
 35 45  1  0  0  0
 35 68  1  0  0  0
 36 56  1  0  0  0
 36110  1  0  0  0
 37 39  1  0  0  0
 37 47  1  0  0  0
 37 66  1  0  0  0
 37111  1  0  0  0
 38 43  2  0  0  0
 38 46  1  0  0  0
 38 47  1  0  0  0
 39 64  1  0  0  0
 39 67  2  0  0  0
 40 52  1  0  0  0
 40 53  2  0  0  0
 40 58  1  0  0  0
 41112  1  0  0  0
 41113  1  0  0  0
 41114  1  0  0  0
 41 48  1  0  0  0
 42 43  1  0  0  0
 42 66  1  0  0  0
 42115  1  0  0  0
 42116  1  0  0  0
 43 44  1  0  0  0
 44117  1  0  0  0
 45 46  2  0  0  0
 45118  1  0  0  0
 46119  1  0  0  0
 47120  1  0  0  0
 47121  1  0  0  0
 48 56  1  0  0  0
 48 65  1  0  0  0
 48122  1  0  0  0
 49 50  1  0  0  0
 49 53  1  0  0  0
 49 64  1  0  0  0
 49123  1  0  0  0
 50 51  1  0  0  0
 50124  1  0  0  0
 50125  1  0  0  0
 51 52  1  0  0  0
 51126  1  0  0  0
 51127  1  0  0  0
 52128  1  0  0  0
 52129  1  0  0  0
 53 54  1  0  0  0
 54 55  2  0  0  0
 54130  1  0  0  0
 55 57  1  0  0  0
 55131  1  0  0  0
 56 69  2  0  0  0
 57 58  2  0  0  0
 57132  1  0  0  0
 58133  1  0  0  0
 59 60  1  0  0  0
 59 61  1  0  0  0
 59 62  1  0  0  0
 60134  1  0  0  0
 60135  1  0  0  0
 60136  1  0  0  0
 61137  1  0  0  0
 61138  1  0  0  0
 61139  1  0  0  0
 62140  1  0  0  0
 62141  1  0  0  0
 62142  1  0  0  0
 63 65  1  0  0  0
 63143  1  0  0  0
 63144  1  0  0  0
 63145  1  0  0  0
 64146  1  0  0  0
 65147  1  0  0  0
 68 83  1  0  0  0
 71 72  2  0  0  0
 71 75  1  0  0  0
 71148  1  0  0  0
 72 74  1  0  0  0
 72 80  1  0  0  0
 73 75  2  0  0  0
 73 76  1  0  0  0
 73 85  1  0  0  0
 74 76  2  0  0  0
 74 86  1  0  0  0
 75 87  1  0  0  0
 76 88  1  0  0  0
 77 78  1  0  0  0
 77 81  1  0  0  0
 77 84  2  0  0  0
 78149  1  0  0  0
 78150  1  0  0  0
 78151  1  0  0  0
 79 86  1  0  0  0
 79152  1  0  0  0
 79153  1  0  0  0
 79154  1  0  0  0
 80 84  1  0  0  0
 80155  1  0  0  0
 80156  1  0  0  0
 81 82  1  0  0  0
 81157  1  0  0  0
 81158  1  0  0  0
 82 83  1  0  0  0
 82159  1  0  0  0
 82160  1  0  0  0
 83161  1  0  0  0
 83162  1  0  0  0
 85163  1  0  0  0
M  ISO  4   1 100  68 101  83 101  85 100
M  END
> <chiral flag>
0

> <version>
0

> <s_m_source_file>
/data/baiqing/PycharmProjects/Reinvent-master-3.2/result/LINK_invent/BTK/process_docking_weight1_custom_sum_contain_oxygen_bond_distance_aromatic_linkinvent_7_9_3/rearranged_h_0013.sdf

> <i_m_source_file_index>
89

> <r_mmod_Potential_Energy-OPLS-2005>
-88.3127822875977

> <r_mmod_Stretch_Energy-OPLS-2005>
37.5143775939941

> <r_mmod_Bend_Energy-OPLS-2005>
106.700538635254

> <r_mmod_Torsional_Energy-OPLS-2005>
281.828979492188

> <r_mmod_Improper_Torsional_Energy-OPLS-2005>
5.16406393051147

> <r_mmod_Van_der_Waal_Energy-OPLS-2005>
156.587265014648

> <r_mmod_Electrostatic_Energy-OPLS-2005>
-475.103515625

> <r_mmod_Solvation_Energy-OPLS-2005>
-211.371383666992

> <b_mmod_Minimization_Converged-OPLS-2005>
0

> <r_mmod_RMS_Derivative-OPLS-2005>
3.80318593978882

$$$$
89
                    3D
 Structure written by MMmdl.
176184  0  0  1  0            999 V2000
  -30.4226  -15.1705   20.1861 C   0  0  0  0  0  0
  -30.4289  -12.7048   19.4901 C   0  0  0  0  0  0
  -29.5198  -12.5269   18.2509 C   0  0  0  0  0  0
  -28.0615  -12.2849   18.6874 C   0  0  0  0  0  0
  -27.6072  -13.2608   19.8030 C   0  0  2  0  0  0
  -28.6548  -13.4093   20.9246 C   0  0  0  0  0  0
  -25.2397  -13.8229   20.5716 C   0  0  0  0  0  0
  -24.1745  -13.0432   20.9257 C   0  0  0  0  0  0
  -24.6389  -11.6926   20.8762 C   0  0  0  0  0  0
  -23.9096  -10.4288   21.0407 C   0  0  0  0  0  0
  -24.3640   -9.4189   21.9173 C   0  0  0  0  0  0
  -23.6297   -8.2236   22.0751 C   0  0  0  0  0  0
  -22.4280   -8.0281   21.3554 C   0  0  0  0  0  0
  -21.9929   -9.0254   20.4658 C   0  0  0  0  0  0
  -22.7268  -10.2123   20.3055 C   0  0  0  0  0  0
  -21.6843   -6.0736   22.5284 C   0  0  0  0  0  0
  -21.4003   -6.5638   23.8218 C   0  0  0  0  0  0
  -21.3661   -5.6790   24.9185 C   0  0  0  0  0  0
  -21.6047   -4.3053   24.7228 C   0  0  0  0  0  0
  -21.8820   -3.8148   23.4349 C   0  0  0  0  0  0
  -21.9189   -4.6965   22.3407 C   0  0  0  0  0  0
  -22.7773  -13.5193   21.1911 C   0  0  0  0  0  0
  -22.1659   -4.2154   21.0980 F   0  0  0  0  0  0
  -21.5638   -3.4538   25.7741 F   0  0  0  0  0  0
  -29.8906  -13.8651   20.2729 N   0  0  0  0  0  0
  -26.2804  -12.9476   20.3141 N   0  0  0  0  0  0
  -25.9305  -11.6600   20.5700 N   0  0  0  0  0  0
  -22.0434  -12.8170   22.0463 N   0  0  0  0  0  0
  -25.4032  -15.1962   20.4131 N   0  0  0  0  0  0
  -31.6473  -15.2033   20.0081 O   0  0  0  0  0  0
  -21.6637   -6.8881   21.4250 O   0  0  0  0  0  0
  -22.3449  -14.5490   20.6746 O   0  0  0  0  0  0
  -24.6757  -31.8062   23.0978 C   0  0  0  0  0  0
  -25.9331  -32.4492   23.7719 C   0  0  1  0  0  0
  -27.5308  -26.9771   20.4308 C   0  0  0  0  0  0
  -25.5879  -33.8266   24.1760 N   0  0  0  0  0  0
  -23.4589  -30.4110   21.4617 C   0  0  2  0  0  0
  -24.8044  -28.7697   19.9612 C   0  0  0  0  0  0
  -22.7598  -29.4558   22.4692 C   0  0  0  0  0  0
  -18.0312  -28.1387   22.8470 C   0  0  0  0  0  0
  -24.1474  -36.7187   23.2678 C   0  0  0  0  0  0
  -25.9883  -30.8630   21.0769 C   0  0  0  0  0  0
  -26.1865  -29.5250   20.2541 C   0  0  0  0  0  0
  -27.6023  -28.6918   20.4148 C   0  0  0  0  0  0
  -25.9996  -26.1348   20.1252 C   0  0  0  0  0  0
  -24.6570  -27.1335   19.8749 C   0  0  0  0  0  0
  -23.5987  -29.6900   20.0842 C   0  0  0  0  0  0
  -25.4128  -36.2904   24.0294 C   0  0  1  0  0  0
  -20.5936  -28.3767   23.1198 C   0  0  2  0  0  0
  -20.6797  -26.9434   22.5434 C   0  0  0  0  0  0
  -19.5775  -26.6373   21.5234 C   0  0  0  0  0  0
  -18.1951  -26.7923   22.1625 C   0  0  0  0  0  0
  -19.1569  -28.8891   23.2827 C   0  0  0  0  0  0
  -18.9461  -30.1480   23.8870 C   0  0  0  0  0  0
  -17.6449  -30.6584   24.0542 C   0  0  0  0  0  0
  -25.9082  -34.9317   23.4901 C   0  0  0  0  0  0
  -16.5350  -29.9068   23.6315 C   0  0  0  0  0  0
  -16.7292  -28.6479   23.0358 C   0  0  0  0  0  0
  -26.4531  -31.6506   25.0349 C   0  0  0  0  0  0
  -25.3741  -31.3803   26.1121 C   0  0  0  0  0  0
  -27.0323  -30.2903   24.5966 C   0  0  0  0  0  0
  -27.6062  -32.4300   25.7143 C   0  0  0  0  0  0
  -27.5557  -37.1733   24.8469 C   0  0  0  0  0  0
  -21.4273  -29.3040   22.3485 N   0  0  0  0  0  0
  -26.4255  -37.3666   23.9427 N   0  0  0  0  0  0
  -24.7458  -31.0230   21.9552 N   0  0  0  0  0  0
  -23.4159  -28.8426   23.3143 O   0  0  0  0  0  0
  -28.2272  -26.4993   21.3809 O   0  0  0  0  0  0
  -26.5758  -34.8951   22.4538 O   0  0  0  0  0  0
  -23.5905  -32.0626   23.6476 O   0  0  0  0  0  0
  -29.2081  -19.4130   20.0188 C   0  0  0  0  0  0
  -28.0473  -23.3277   18.2642 C   0  0  0  0  0  0
  -29.2099  -18.1477   18.0403 C   0  0  0  0  0  0
  -28.9896  -19.7083   17.7918 C   0  0  0  0  0  0
  -29.7168  -17.9151   19.4849 C   0  0  2  0  0  0
  -30.5697  -24.8126   19.9818 C   0  0  0  0  0  0
  -32.4861  -23.2834   20.2913 C   0  0  0  0  0  0
  -31.9619  -24.1417   18.0102 C   0  0  0  0  0  0
  -26.5094  -27.7167   18.5713 C   0  0  0  0  0  0
  -25.9865  -27.7105   21.7470 C   0  0  0  0  0  0
  -30.5086  -22.3397   19.0381 C   0  0  0  0  0  0
  -27.1935  -26.1332   17.8380 C   0  0  0  0  0  0
  -27.2735  -26.9386   22.4124 C   0  0  0  0  0  0
  -28.9526  -22.1154   19.1228 C   0  0  2  0  0  0
  -31.3286  -23.6473   19.3308 C   0  0  0  0  0  0
  -28.9132  -20.4507   19.0695 N   0  0  0  0  0  0
  -27.8553  -24.7596   18.5379 N   0  0  0  0  0  0
  -29.5943  -16.3733   20.0706 N   0  0  0  0  0  0
  -29.1867  -19.6256   21.2310 O   0  0  0  0  0  0
  -27.5107  -22.9116   17.2376 O   0  0  0  0  0  0
  -31.4602  -12.8707   19.1728 H   0  0  0  0  0  0
  -30.4467  -11.7985   20.0927 H   0  0  0  0  0  0
  -29.8718  -11.6955   17.6400 H   0  0  0  0  0  0
  -29.5760  -13.4145   17.6212 H   0  0  0  0  0  0
  -27.9979  -11.2598   19.0512 H   0  0  0  0  0  0
  -27.3924  -12.3454   17.8266 H   0  0  0  0  0  0
  -27.5279  -14.2307   19.3106 H   0  0  0  0  0  0
  -28.7984  -12.4756   21.4648 H   0  0  0  0  0  0
  -28.3263  -14.1490   21.6570 H   0  0  0  0  0  0
  -25.2790   -9.5649   22.4748 H   0  0  0  0  0  0
  -24.0008   -7.4619   22.7456 H   0  0  0  0  0  0
  -21.0868   -8.8774   19.8952 H   0  0  0  0  0  0
  -22.3731  -10.9661   19.6166 H   0  0  0  0  0  0
  -21.1980   -7.6141   23.9723 H   0  0  0  0  0  0
  -21.1486   -6.0518   25.9085 H   0  0  0  0  0  0
  -22.0594   -2.7609   23.2847 H   0  0  0  0  0  0
  -22.4064  -11.9843   22.4862 H   0  0  0  0  0  0
  -21.1029  -13.1169   22.2659 H   0  0  0  0  0  0
  -24.6276  -15.8408   20.5207 H   0  0  0  0  0  0
  -26.2343  -15.6387   20.0456 H   0  0  0  0  0  0
  -26.7533  -32.5081   23.0583 H   0  0  0  0  0  0
  -24.9913  -33.9211   24.9858 H   0  0  0  0  0  0
  -22.7668  -31.2413   21.3037 H   0  0  0  0  0  0
  -23.3761  -35.9483   23.3251 H   0  0  0  0  0  0
  -24.3552  -36.8940   22.2109 H   0  0  0  0  0  0
  -23.7219  -37.6342   23.6799 H   0  0  0  0  0  0
  -26.0130  -31.6940   20.3732 H   0  0  0  0  0  0
  -26.8932  -30.9495   21.6733 H   0  0  0  0  0  0
  -28.4634  -29.1828   20.8412 H   0  0  0  0  0  0
  -25.8719  -25.0732   20.2828 H   0  0  0  0  0  0
  -23.6751  -26.6991   19.7741 H   0  0  0  0  0  0
  -23.6796  -30.4413   19.2946 H   0  0  0  0  0  0
  -22.6962  -29.1256   19.8443 H   0  0  0  0  0  0
  -25.1336  -36.1617   25.0782 H   0  0  0  0  0  0
  -21.0043  -28.3385   24.1313 H   0  0  0  0  0  0
  -20.5642  -26.2378   23.3681 H   0  0  0  0  0  0
  -21.6662  -26.7386   22.1251 H   0  0  0  0  0  0
  -19.6933  -25.6276   21.1283 H   0  0  0  0  0  0
  -19.6710  -27.3171   20.6750 H   0  0  0  0  0  0
  -17.4225  -26.6684   21.4020 H   0  0  0  0  0  0
  -18.0318  -26.0064   22.9007 H   0  0  0  0  0  0
  -19.7933  -30.7302   24.2255 H   0  0  0  0  0  0
  -17.4989  -31.6255   24.5146 H   0  0  0  0  0  0
  -15.5346  -30.2949   23.7659 H   0  0  0  0  0  0
  -15.8697  -28.0787   22.7103 H   0  0  0  0  0  0
  -24.5802  -30.7263   25.7479 H   0  0  0  0  0  0
  -24.9072  -32.3033   26.4543 H   0  0  0  0  0  0
  -25.8023  -30.8928   26.9890 H   0  0  0  0  0  0
  -26.2472  -29.6247   24.2413 H   0  0  0  0  0  0
  -27.5195  -29.7739   25.4247 H   0  0  0  0  0  0
  -27.7725  -30.3967   23.8046 H   0  0  0  0  0  0
  -27.2674  -33.3711   26.1472 H   0  0  0  0  0  0
  -28.3951  -32.6673   25.0003 H   0  0  0  0  0  0
  -28.0596  -31.8581   26.5228 H   0  0  0  0  0  0
  -28.2522  -38.0071   24.7508 H   0  0  0  0  0  0
  -28.1090  -36.2593   24.6254 H   0  0  0  0  0  0
  -27.2286  -37.1340   25.8876 H   0  0  0  0  0  0
  -20.9541  -29.8527   21.6458 H   0  0  0  0  0  0
  -26.0076  -38.2701   24.1482 H   0  0  0  0  0  0
  -29.8923  -17.7252   17.3023 H   0  0  0  0  0  0
  -28.2556  -17.6329   17.9121 H   0  0  0  0  0  0
  -28.0913  -19.8820   17.1994 H   0  0  0  0  0  0
  -29.8260  -20.0978   17.2122 H   0  0  0  0  0  0
  -30.7970  -18.0597   19.4590 H   0  0  0  0  0  0
  -31.2512  -25.4890   20.5031 H   0  0  0  0  0  0
  -29.8296  -24.4781   20.7062 H   0  0  0  0  0  0
  -30.0963  -25.4441   19.2337 H   0  0  0  0  0  0
  -33.1540  -24.1277   20.4657 H   0  0  0  0  0  0
  -33.1002  -22.4686   19.9046 H   0  0  0  0  0  0
  -32.1048  -22.9698   21.2661 H   0  0  0  0  0  0
  -32.5949  -25.0175   18.1613 H   0  0  0  0  0  0
  -31.2014  -24.4136   17.2768 H   0  0  0  0  0  0
  -32.5888  -23.3749   17.5522 H   0  0  0  0  0  0
  -27.2101  -28.4603   18.1674 H   0  0  0  0  0  0
  -25.6836  -27.9726   17.8946 H   0  0  0  0  0  0
  -25.1316  -27.1559   22.1563 H   0  0  0  0  0  0
  -25.8703  -28.6136   22.3477 H   0  0  0  0  0  0
  -30.8112  -21.9826   18.0533 H   0  0  0  0  0  0
  -30.9368  -21.5889   19.7049 H   0  0  0  0  0  0
  -27.9384  -26.4536   17.1117 H   0  0  0  0  0  0
  -26.3941  -25.7375   17.2103 H   0  0  0  0  0  0
  -27.7859  -27.6076   23.1052 H   0  0  0  0  0  0
  -26.9424  -26.0803   23.0043 H   0  0  0  0  0  0
  -28.6752  -22.3238   20.1573 H   0  0  0  0  0  0
  -28.3021  -25.0051   19.4134 H   0  0  0  0  0  0
  -28.6402  -16.1625   20.3150 H   0  0  0  0  0  0
  1 25  1  0  0  0
  1 30  2  0  0  0
  1 88  1  0  0  0
  2  3  1  0  0  0
  2 25  1  0  0  0
  2 91  1  0  0  0
  2 92  1  0  0  0
  3  4  1  0  0  0
  3 93  1  0  0  0
  3 94  1  0  0  0
  4  5  1  0  0  0
  4 95  1  0  0  0
  4 96  1  0  0  0
  5  6  1  0  0  0
  5 26  1  0  0  0
  5 97  1  0  0  0
  6 25  1  0  0  0
  6 98  1  0  0  0
  6 99  1  0  0  0
  7  8  2  0  0  0
  7 26  1  0  0  0
  7 29  1  0  0  0
  8  9  1  0  0  0
  8 22  1  0  0  0
  9 10  1  0  0  0
  9 27  2  0  0  0
 10 11  2  0  0  0
 10 15  1  0  0  0
 11 12  1  0  0  0
 11100  1  0  0  0
 12 13  2  0  0  0
 12101  1  0  0  0
 13 14  1  0  0  0
 13 31  1  0  0  0
 14 15  2  0  0  0
 14102  1  0  0  0
 15103  1  0  0  0
 16 17  2  0  0  0
 16 21  1  0  0  0
 16 31  1  0  0  0
 17 18  1  0  0  0
 17104  1  0  0  0
 18 19  2  0  0  0
 18105  1  0  0  0
 19 20  1  0  0  0
 19 24  1  0  0  0
 20 21  2  0  0  0
 20106  1  0  0  0
 21 23  1  0  0  0
 22 28  1  0  0  0
 22 32  2  0  0  0
 26 27  1  0  0  0
 28107  1  0  0  0
 28108  1  0  0  0
 29109  1  0  0  0
 29110  1  0  0  0
 33 34  1  0  0  0
 33 66  1  0  0  0
 33 70  2  0  0  0
 34 36  1  0  0  0
 34 59  1  0  0  0
 34111  1  0  0  0
 35 44  2  0  0  0
 35 45  1  0  0  0
 35 68  1  0  0  0
 36 56  1  0  0  0
 36112  1  0  0  0
 37 39  1  0  0  0
 37 47  1  0  0  0
 37 66  1  0  0  0
 37113  1  0  0  0
 38 43  2  0  0  0
 38 46  1  0  0  0
 38 47  1  0  0  0
 39 64  1  0  0  0
 39 67  2  0  0  0
 40 52  1  0  0  0
 40 53  2  0  0  0
 40 58  1  0  0  0
 41114  1  0  0  0
 41115  1  0  0  0
 41116  1  0  0  0
 41 48  1  0  0  0
 42 43  1  0  0  0
 42 66  1  0  0  0
 42117  1  0  0  0
 42118  1  0  0  0
 43 44  1  0  0  0
 44119  1  0  0  0
 45 46  2  0  0  0
 45120  1  0  0  0
 46121  1  0  0  0
 47122  1  0  0  0
 47123  1  0  0  0
 48 56  1  0  0  0
 48 65  1  0  0  0
 48124  1  0  0  0
 49 50  1  0  0  0
 49 53  1  0  0  0
 49 64  1  0  0  0
 49125  1  0  0  0
 50 51  1  0  0  0
 50126  1  0  0  0
 50127  1  0  0  0
 51 52  1  0  0  0
 51128  1  0  0  0
 51129  1  0  0  0
 52130  1  0  0  0
 52131  1  0  0  0
 53 54  1  0  0  0
 54 55  2  0  0  0
 54132  1  0  0  0
 55 57  1  0  0  0
 55133  1  0  0  0
 56 69  2  0  0  0
 57 58  2  0  0  0
 57134  1  0  0  0
 58135  1  0  0  0
 59 60  1  0  0  0
 59 61  1  0  0  0
 59 62  1  0  0  0
 60136  1  0  0  0
 60137  1  0  0  0
 60138  1  0  0  0
 61139  1  0  0  0
 61140  1  0  0  0
 61141  1  0  0  0
 62142  1  0  0  0
 62143  1  0  0  0
 62144  1  0  0  0
 63 65  1  0  0  0
 63145  1  0  0  0
 63146  1  0  0  0
 63147  1  0  0  0
 64148  1  0  0  0
 65149  1  0  0  0
 68 83  1  0  0  0
 71 75  1  0  0  0
 71 86  1  0  0  0
 71 89  2  0  0  0
 72 84  1  0  0  0
 72 87  1  0  0  0
 72 90  2  0  0  0
 73 74  1  0  0  0
 73 75  1  0  0  0
 73150  1  0  0  0
 73151  1  0  0  0
 74 86  1  0  0  0
 74152  1  0  0  0
 74153  1  0  0  0
 75 88  1  0  0  0
 75154  1  0  0  0
 76155  1  0  0  0
 76156  1  0  0  0
 76157  1  0  0  0
 76 85  1  0  0  0
 77 85  1  0  0  0
 77158  1  0  0  0
 77159  1  0  0  0
 77160  1  0  0  0
 78 85  1  0  0  0
 78161  1  0  0  0
 78162  1  0  0  0
 78163  1  0  0  0
 79 80  1  0  0  0
 79 82  1  0  0  0
 79164  1  0  0  0
 79165  1  0  0  0
 80 83  1  0  0  0
 80166  1  0  0  0
 80167  1  0  0  0
 81 85  1  0  0  0
 81168  1  0  0  0
 81169  1  0  0  0
 81 84  1  0  0  0
 82 87  1  0  0  0
 82170  1  0  0  0
 82171  1  0  0  0
 83172  1  0  0  0
 83173  1  0  0  0
 84 86  1  0  0  0
 84174  1  0  0  0
 87175  1  0  0  0
 88176  1  0  0  0
M  ISO  4   1 100  68 101  83 101  88 100
M  END
> <chiral flag>
0

> <version>
0

> <s_m_source_file>
/data/baiqing/PycharmProjects/Reinvent-master-3.2/result/LINK_invent/BTK/process_docking_weight1_custom_sum_contain_oxygen_bond_distance_aromatic_linkinvent_7_9_3/rearranged_h_0013.sdf

> <i_m_source_file_index>
90

> <r_mmod_Potential_Energy-OPLS-2005>
7814.51123046875

> <r_mmod_Stretch_Energy-OPLS-2005>
4790.96435546875

> <r_mmod_Bend_Energy-OPLS-2005>
563.082275390625

> <r_mmod_Torsional_Energy-OPLS-2005>
427.167724609375

> <r_mmod_Improper_Torsional_Energy-OPLS-2005>
32.9651641845703

> <r_mmod_Van_der_Waal_Energy-OPLS-2005>
2028.04748535156

> <r_mmod_Electrostatic_Energy-OPLS-2005>
-509.143768310547

> <r_mmod_Solvation_Energy-OPLS-2005>
-235.009674072266

> <b_mmod_Minimization_Converged-OPLS-2005>
0

> <r_mmod_RMS_Derivative-OPLS-2005>
7.56772232055664

$$$$
90
                    3D
 Structure written by MMmdl.
154162  0  0  1  0            999 V2000
  -30.6203  -14.7551   20.4680 C   0  0  0  0  0  0
  -30.4279  -12.4642   19.4813 C   0  0  0  0  0  0
  -29.5109  -12.5124   18.2394 C   0  0  0  0  0  0
  -28.0363  -12.3354   18.6494 C   0  0  0  0  0  0
  -27.6389  -13.2371   19.8503 C   0  0  2  0  0  0
  -28.6820  -13.1831   20.9872 C   0  0  0  0  0  0
  -25.2495  -13.8204   20.5702 C   0  0  0  0  0  0
  -24.1790  -13.0438   20.9198 C   0  0  0  0  0  0
  -24.6392  -11.6920   20.8746 C   0  0  0  0  0  0
  -23.9075  -10.4300   21.0408 C   0  0  0  0  0  0
  -24.3630   -9.4215   21.9186 C   0  0  0  0  0  0
  -23.6300   -8.2251   22.0761 C   0  0  0  0  0  0
  -22.4280   -8.0289   21.3552 C   0  0  0  0  0  0
  -21.9918   -9.0260   20.4647 C   0  0  0  0  0  0
  -22.7249  -10.2136   20.3053 C   0  0  0  0  0  0
  -21.6857   -6.0744   22.5280 C   0  0  0  0  0  0
  -21.4009   -6.5647   23.8214 C   0  0  0  0  0  0
  -21.3658   -5.6798   24.9174 C   0  0  0  0  0  0
  -21.6035   -4.3061   24.7222 C   0  0  0  0  0  0
  -21.8822   -3.8155   23.4343 C   0  0  0  0  0  0
  -21.9193   -4.6971   22.3399 C   0  0  0  0  0  0
  -22.7810  -13.5218   21.1852 C   0  0  0  0  0  0
  -22.1662   -4.2159   21.0976 F   0  0  0  0  0  0
  -21.5629   -3.4541   25.7733 F   0  0  0  0  0  0
  -29.9828  -13.5346   20.4049 N   0  0  0  0  0  0
  -26.2929  -12.9426   20.3293 N   0  0  0  0  0  0
  -25.9330  -11.6560   20.5754 N   0  0  0  0  0  0
  -22.0469  -12.8210   22.0419 N   0  0  0  0  0  0
  -25.4154  -15.1935   20.4152 N   0  0  0  0  0  0
  -31.8097  -14.8194   20.1475 O   0  0  0  0  0  0
  -21.6643   -6.8888   21.4241 O   0  0  0  0  0  0
  -22.3495  -14.5528   20.6713 O   0  0  0  0  0  0
  -24.6290  -31.8528   23.1937 C   0  0  0  0  0  0
  -25.9099  -32.4748   23.8294 C   0  0  1  0  0  0
  -27.2304  -27.2603   20.1278 C   0  0  0  0  0  0
  -25.5890  -33.8544   24.2233 N   0  0  0  0  0  0
  -23.4278  -30.4721   21.5366 C   0  0  2  0  0  0
  -24.8769  -28.9155   20.1045 C   0  0  0  0  0  0
  -22.7500  -29.4591   22.4905 C   0  0  0  0  0  0
  -18.0293  -28.1385   22.8496 C   0  0  0  0  0  0
  -24.1476  -36.7267   23.2655 C   0  0  0  0  0  0
  -25.9709  -30.7653   21.3716 C   0  0  0  0  0  0
  -26.0441  -29.3856   20.7190 C   0  0  0  0  0  0
  -27.2169  -28.5678   20.7229 C   0  0  0  0  0  0
  -26.0375  -26.8500   19.4915 C   0  0  0  0  0  0
  -24.8800  -27.6564   19.4810 C   0  0  0  0  0  0
  -23.6437  -29.7981   20.1542 C   0  0  0  0  0  0
  -25.4107  -36.3061   24.0340 C   0  0  1  0  0  0
  -20.5899  -28.3683   23.1271 C   0  0  2  0  0  0
  -20.6773  -26.9390   22.5421 C   0  0  0  0  0  0
  -19.5746  -26.6360   21.5230 C   0  0  0  0  0  0
  -18.1925  -26.7927   22.1633 C   0  0  0  0  0  0
  -19.1553  -28.8854   23.2880 C   0  0  0  0  0  0
  -18.9472  -30.1460   23.8898 C   0  0  0  0  0  0
  -17.6469  -30.6592   24.0556 C   0  0  0  0  0  0
  -25.9047  -34.9441   23.5096 C   0  0  0  0  0  0
  -16.5361  -29.9082   23.6331 C   0  0  0  0  0  0
  -16.7278  -28.6499   23.0358 C   0  0  0  0  0  0
  -26.4476  -31.6574   25.0684 C   0  0  0  0  0  0
  -25.3686  -31.3714   26.1393 C   0  0  0  0  0  0
  -27.0344  -30.3010   24.6152 C   0  0  0  0  0  0
  -27.6042  -32.4314   25.7447 C   0  0  0  0  0  0
  -27.5569  -37.1781   24.8480 C   0  0  0  0  0  0
  -21.4206  -29.3028   22.3650 N   0  0  0  0  0  0
  -26.4281  -37.3758   23.9427 N   0  0  0  0  0  0
  -24.6955  -31.0494   22.0909 N   0  0  0  0  0  0
  -23.4206  -28.8153   23.3006 O   0  0  0  0  0  0
  -28.3530  -26.4046   20.2223 O   0  0  0  0  0  0
  -26.5648  -34.8924   22.4684 O   0  0  0  0  0  0
  -23.5442  -32.1338   23.7245 O   0  0  0  0  0  0
  -31.5610  -17.7555   20.8420 C   0  0  0  0  0  0
  -31.9444  -19.1151   20.8511 C   0  0  0  0  0  0
  -29.6196  -19.8688   20.5409 C   0  0  0  0  0  0
  -30.2172  -17.3568   20.6629 C   0  0  0  0  0  0
  -30.9949  -20.1506   20.7018 C   0  0  0  0  0  0
  -29.2573  -18.4481   20.5283 C   0  0  0  0  0  0
  -28.3232  -23.7194   20.4272 C   0  0  0  0  0  0
  -33.4075  -19.4707   21.0402 C   0  0  0  0  0  0
  -28.5678  -21.0801   20.4812 C   0  0  0  0  0  0
  -28.4819  -25.0612   19.5573 C   0  0  0  0  0  0
  -29.8572  -15.9041   20.6705 N   0  0  0  0  0  0
  -28.8904  -22.5137   20.0275 N   0  0  0  0  0  0
  -27.6277  -23.7653   21.4430 O   0  0  0  0  0  0
  -31.4240  -21.4350   20.7421 F   0  0  0  0  0  0
  -27.5917  -18.0183   20.3516 Cl  0  0  0  0  0  0
  -31.4718  -12.5777   19.1823 H   0  0  0  0  0  0
  -30.3662  -11.4916   19.9712 H   0  0  0  0  0  0
  -29.7993  -11.7385   17.5268 H   0  0  0  0  0  0
  -29.6348  -13.4660   17.7238 H   0  0  0  0  0  0
  -27.8914  -11.2862   18.9081 H   0  0  0  0  0  0
  -27.3811  -12.5309   17.8002 H   0  0  0  0  0  0
  -27.6272  -14.2571   19.4662 H   0  0  0  0  0  0
  -28.7204  -12.1902   21.4380 H   0  0  0  0  0  0
  -28.4131  -13.8737   21.7886 H   0  0  0  0  0  0
  -25.2779   -9.5690   22.4756 H   0  0  0  0  0  0
  -24.0005   -7.4639   22.7486 H   0  0  0  0  0  0
  -21.0855   -8.8776   19.8948 H   0  0  0  0  0  0
  -22.3719  -10.9672   19.6159 H   0  0  0  0  0  0
  -21.2002   -7.6157   23.9722 H   0  0  0  0  0  0
  -21.1472   -6.0529   25.9081 H   0  0  0  0  0  0
  -22.0603   -2.7615   23.2837 H   0  0  0  0  0  0
  -22.4091  -11.9862   22.4779 H   0  0  0  0  0  0
  -21.1093  -13.1240   22.2643 H   0  0  0  0  0  0
  -24.6456  -15.8418   20.5372 H   0  0  0  0  0  0
  -26.2651  -15.6510   20.1113 H   0  0  0  0  0  0
  -26.7162  -32.5393   23.1029 H   0  0  0  0  0  0
  -24.9981  -33.9674   25.0341 H   0  0  0  0  0  0
  -22.7248  -31.2936   21.3861 H   0  0  0  0  0  0
  -23.3756  -35.9579   23.3315 H   0  0  0  0  0  0
  -24.3567  -36.8884   22.2072 H   0  0  0  0  0  0
  -23.7205  -37.6459   23.6674 H   0  0  0  0  0  0
  -26.1029  -31.5214   20.5962 H   0  0  0  0  0  0
  -26.8524  -30.8212   21.9986 H   0  0  0  0  0  0
  -28.1099  -28.9216   21.2213 H   0  0  0  0  0  0
  -25.9580  -25.8802   19.0265 H   0  0  0  0  0  0
  -23.9853  -27.2890   18.9964 H   0  0  0  0  0  0
  -23.7511  -30.5683   19.3890 H   0  0  0  0  0  0
  -22.7652  -29.2185   19.8636 H   0  0  0  0  0  0
  -25.1280  -36.1901   25.0828 H   0  0  0  0  0  0
  -21.0004  -28.3251   24.1387 H   0  0  0  0  0  0
  -20.5666  -26.2291   23.3630 H   0  0  0  0  0  0
  -21.6628  -26.7380   22.1203 H   0  0  0  0  0  0
  -19.6901  -25.6269   21.1249 H   0  0  0  0  0  0
  -19.6690  -27.3180   20.6769 H   0  0  0  0  0  0
  -17.4189  -26.6685   21.4037 H   0  0  0  0  0  0
  -18.0302  -26.0078   22.9037 H   0  0  0  0  0  0
  -19.7956  -30.7266   24.2258 H   0  0  0  0  0  0
  -17.5034  -31.6287   24.5137 H   0  0  0  0  0  0
  -15.5363  -30.2993   23.7680 H   0  0  0  0  0  0
  -15.8670  -28.0824   22.7070 H   0  0  0  0  0  0
  -24.5886  -30.7045   25.7691 H   0  0  0  0  0  0
  -24.8845  -32.2885   26.4773 H   0  0  0  0  0  0
  -25.7977  -30.8907   27.0193 H   0  0  0  0  0  0
  -26.2929  -29.6745   24.1187 H   0  0  0  0  0  0
  -27.4086  -29.7265   25.4634 H   0  0  0  0  0  0
  -27.8764  -30.4328   23.9350 H   0  0  0  0  0  0
  -27.2671  -33.3648   26.1963 H   0  0  0  0  0  0
  -28.3875  -32.6812   25.0275 H   0  0  0  0  0  0
  -28.0681  -31.8463   26.5399 H   0  0  0  0  0  0
  -28.2578  -38.0082   24.7512 H   0  0  0  0  0  0
  -28.1057  -36.2609   24.6302 H   0  0  0  0  0  0
  -27.2288  -37.1417   25.8881 H   0  0  0  0  0  0
  -20.9392  -29.8739   21.6847 H   0  0  0  0  0  0
  -26.0160  -38.2825   24.1439 H   0  0  0  0  0  0
  -32.3308  -17.0154   20.9932 H   0  0  0  0  0  0
  -34.0505  -18.6004   20.9014 H   0  0  0  0  0  0
  -33.5797  -19.8651   22.0425 H   0  0  0  0  0  0
  -33.7119  -20.2289   20.3179 H   0  0  0  0  0  0
  -28.1239  -21.1436   21.4755 H   0  0  0  0  0  0
  -27.7563  -20.7531   19.8315 H   0  0  0  0  0  0
  -27.8444  -24.9854   18.6787 H   0  0  0  0  0  0
  -29.4927  -25.0381   19.1498 H   0  0  0  0  0  0
  -28.8734  -15.7235   20.7932 H   0  0  0  0  0  0
  -29.4906  -22.5753   19.2157 H   0  0  0  0  0  0
  1 25  1  0  0  0
  1 30  2  0  0  0
  1 81  1  0  0  0
  2  3  1  0  0  0
  2 25  1  0  0  0
  2 86  1  0  0  0
  2 87  1  0  0  0
  3  4  1  0  0  0
  3 88  1  0  0  0
  3 89  1  0  0  0
  4  5  1  0  0  0
  4 90  1  0  0  0
  4 91  1  0  0  0
  5  6  1  0  0  0
  5 26  1  0  0  0
  5 92  1  0  0  0
  6 25  1  0  0  0
  6 93  1  0  0  0
  6 94  1  0  0  0
  7  8  2  0  0  0
  7 26  1  0  0  0
  7 29  1  0  0  0
  8  9  1  0  0  0
  8 22  1  0  0  0
  9 10  1  0  0  0
  9 27  2  0  0  0
 10 11  2  0  0  0
 10 15  1  0  0  0
 11 12  1  0  0  0
 11 95  1  0  0  0
 12 13  2  0  0  0
 12 96  1  0  0  0
 13 14  1  0  0  0
 13 31  1  0  0  0
 14 15  2  0  0  0
 14 97  1  0  0  0
 15 98  1  0  0  0
 16 17  2  0  0  0
 16 21  1  0  0  0
 16 31  1  0  0  0
 17 18  1  0  0  0
 17 99  1  0  0  0
 18 19  2  0  0  0
 18100  1  0  0  0
 19 20  1  0  0  0
 19 24  1  0  0  0
 20 21  2  0  0  0
 20101  1  0  0  0
 21 23  1  0  0  0
 22 28  1  0  0  0
 22 32  2  0  0  0
 26 27  1  0  0  0
 28102  1  0  0  0
 28103  1  0  0  0
 29104  1  0  0  0
 29105  1  0  0  0
 33 34  1  0  0  0
 33 66  1  0  0  0
 33 70  2  0  0  0
 34 36  1  0  0  0
 34 59  1  0  0  0
 34106  1  0  0  0
 35 44  2  0  0  0
 35 45  1  0  0  0
 35 68  1  0  0  0
 36 56  1  0  0  0
 36107  1  0  0  0
 37 39  1  0  0  0
 37 47  1  0  0  0
 37 66  1  0  0  0
 37108  1  0  0  0
 38 43  2  0  0  0
 38 46  1  0  0  0
 38 47  1  0  0  0
 39 64  1  0  0  0
 39 67  2  0  0  0
 40 52  1  0  0  0
 40 53  2  0  0  0
 40 58  1  0  0  0
 41109  1  0  0  0
 41110  1  0  0  0
 41111  1  0  0  0
 41 48  1  0  0  0
 42 43  1  0  0  0
 42 66  1  0  0  0
 42112  1  0  0  0
 42113  1  0  0  0
 43 44  1  0  0  0
 44114  1  0  0  0
 45 46  2  0  0  0
 45115  1  0  0  0
 46116  1  0  0  0
 47117  1  0  0  0
 47118  1  0  0  0
 48 56  1  0  0  0
 48 65  1  0  0  0
 48119  1  0  0  0
 49 50  1  0  0  0
 49 53  1  0  0  0
 49 64  1  0  0  0
 49120  1  0  0  0
 50 51  1  0  0  0
 50121  1  0  0  0
 50122  1  0  0  0
 51 52  1  0  0  0
 51123  1  0  0  0
 51124  1  0  0  0
 52125  1  0  0  0
 52126  1  0  0  0
 53 54  1  0  0  0
 54 55  2  0  0  0
 54127  1  0  0  0
 55 57  1  0  0  0
 55128  1  0  0  0
 56 69  2  0  0  0
 57 58  2  0  0  0
 57129  1  0  0  0
 58130  1  0  0  0
 59 60  1  0  0  0
 59 61  1  0  0  0
 59 62  1  0  0  0
 60131  1  0  0  0
 60132  1  0  0  0
 60133  1  0  0  0
 61134  1  0  0  0
 61135  1  0  0  0
 61136  1  0  0  0
 62137  1  0  0  0
 62138  1  0  0  0
 62139  1  0  0  0
 63 65  1  0  0  0
 63140  1  0  0  0
 63141  1  0  0  0
 63142  1  0  0  0
 64143  1  0  0  0
 65144  1  0  0  0
 68 80  1  0  0  0
 71 72  2  0  0  0
 71 74  1  0  0  0
 71145  1  0  0  0
 72 75  1  0  0  0
 72 78  1  0  0  0
 73 75  2  0  0  0
 73 76  1  0  0  0
 73 79  1  0  0  0
 74 76  2  0  0  0
 74 81  1  0  0  0
 75 84  1  0  0  0
 76 85  1  0  0  0
 77 80  1  0  0  0
 77 82  1  0  0  0
 77 83  2  0  0  0
 78146  1  0  0  0
 78147  1  0  0  0
 78148  1  0  0  0
 79 82  1  0  0  0
 79149  1  0  0  0
 79150  1  0  0  0
 80151  1  0  0  0
 80152  1  0  0  0
 81153  1  0  0  0
 82154  1  0  0  0
M  ISO  4   1 100  68 101  80 101  81 100
M  END
> <chiral flag>
0

> <version>
0

> <s_m_source_file>
/data/baiqing/PycharmProjects/Reinvent-master-3.2/result/LINK_invent/BTK/process_docking_weight1_custom_sum_contain_oxygen_bond_distance_aromatic_linkinvent_7_9_3/rearranged_h_0013.sdf

> <i_m_source_file_index>
91

> <r_mmod_Potential_Energy-OPLS-2005>
79.7313232421875

> <r_mmod_Stretch_Energy-OPLS-2005>
131.295211791992

> <r_mmod_Bend_Energy-OPLS-2005>
175.270156860352

> <r_mmod_Torsional_Energy-OPLS-2005>
205.981384277344

> <r_mmod_Improper_Torsional_Energy-OPLS-2005>
5.7934308052063

> <r_mmod_Van_der_Waal_Energy-OPLS-2005>
137.081787109375

> <r_mmod_Electrostatic_Energy-OPLS-2005>
-429.076446533203

> <r_mmod_Solvation_Energy-OPLS-2005>
-232.909759521484

> <b_mmod_Minimization_Converged-OPLS-2005>
0

> <r_mmod_RMS_Derivative-OPLS-2005>
2.01984357833862

$$$$
91
                    3D
 Structure written by MMmdl.
154162  0  0  1  0            999 V2000
  -30.5218  -15.0467   20.4154 C   0  0  0  0  0  0
  -30.4374  -12.6569   19.5072 C   0  0  0  0  0  0
  -29.5241  -12.5441   18.2648 C   0  0  0  0  0  0
  -28.0624  -12.3114   18.6871 C   0  0  0  0  0  0
  -27.6229  -13.2589   19.8336 C   0  0  2  0  0  0
  -28.6644  -13.3384   20.9699 C   0  0  0  0  0  0
  -25.2431  -13.8227   20.5726 C   0  0  0  0  0  0
  -24.1761  -13.0434   20.9228 C   0  0  0  0  0  0
  -24.6393  -11.6926   20.8750 C   0  0  0  0  0  0
  -23.9085  -10.4291   21.0401 C   0  0  0  0  0  0
  -24.3631   -9.4207   21.9180 C   0  0  0  0  0  0
  -23.6298   -8.2247   22.0753 C   0  0  0  0  0  0
  -22.4281   -8.0287   21.3542 C   0  0  0  0  0  0
  -21.9916   -9.0260   20.4647 C   0  0  0  0  0  0
  -22.7251  -10.2135   20.3054 C   0  0  0  0  0  0
  -21.6855   -6.0735   22.5275 C   0  0  0  0  0  0
  -21.4019   -6.5639   23.8210 C   0  0  0  0  0  0
  -21.3661   -5.6791   24.9171 C   0  0  0  0  0  0
  -21.6046   -4.3054   24.7222 C   0  0  0  0  0  0
  -21.8819   -3.8145   23.4343 C   0  0  0  0  0  0
  -21.9193   -4.6961   22.3397 C   0  0  0  0  0  0
  -22.7783  -13.5204   21.1889 C   0  0  0  0  0  0
  -22.1661   -4.2146   21.0973 F   0  0  0  0  0  0
  -21.5623   -3.4538   25.7735 F   0  0  0  0  0  0
  -29.9245  -13.7779   20.3571 N   0  0  0  0  0  0
  -26.2860  -12.9477   20.3243 N   0  0  0  0  0  0
  -25.9332  -11.6596   20.5741 N   0  0  0  0  0  0
  -22.0437  -12.8193   22.0445 N   0  0  0  0  0  0
  -25.4071  -15.1962   20.4167 N   0  0  0  0  0  0
  -31.7290  -15.0629   20.1479 O   0  0  0  0  0  0
  -21.6645   -6.8882   21.4238 O   0  0  0  0  0  0
  -22.3467  -14.5509   20.6737 O   0  0  0  0  0  0
  -24.6498  -31.8380   23.1830 C   0  0  0  0  0  0
  -25.9241  -32.4658   23.8243 C   0  0  1  0  0  0
  -27.2117  -27.0661   20.1618 C   0  0  0  0  0  0
  -25.5962  -33.8468   24.2157 N   0  0  0  0  0  0
  -23.4566  -30.4559   21.5291 C   0  0  2  0  0  0
  -24.9069  -28.8714   20.1088 C   0  0  0  0  0  0
  -22.7604  -29.4516   22.4823 C   0  0  0  0  0  0
  -18.0315  -28.1410   22.8469 C   0  0  0  0  0  0
  -24.1491  -36.7235   23.2642 C   0  0  0  0  0  0
  -26.0183  -30.6888   21.3932 C   0  0  0  0  0  0
  -26.0874  -29.2941   20.7335 C   0  0  0  0  0  0
  -27.2400  -28.4093   20.7399 C   0  0  0  0  0  0
  -26.0057  -26.7650   19.4912 C   0  0  0  0  0  0
  -24.8834  -27.6233   19.4698 C   0  0  0  0  0  0
  -23.6876  -29.7832   20.1497 C   0  0  0  0  0  0
  -25.4126  -36.3006   24.0309 C   0  0  1  0  0  0
  -20.5932  -28.3739   23.1213 C   0  0  2  0  0  0
  -20.6794  -26.9431   22.5401 C   0  0  0  0  0  0
  -19.5768  -26.6386   21.5209 C   0  0  0  0  0  0
  -18.1952  -26.7945   22.1621 C   0  0  0  0  0  0
  -19.1573  -28.8891   23.2834 C   0  0  0  0  0  0
  -18.9487  -30.1484   23.8868 C   0  0  0  0  0  0
  -17.6480  -30.6594   24.0561 C   0  0  0  0  0  0
  -25.9086  -34.9384   23.5048 C   0  0  0  0  0  0
  -16.5373  -29.9084   23.6337 C   0  0  0  0  0  0
  -16.7300  -28.6506   23.0355 C   0  0  0  0  0  0
  -26.4539  -31.6556   25.0717 C   0  0  0  0  0  0
  -25.3703  -31.3772   26.1398 C   0  0  0  0  0  0
  -27.0412  -30.2935   24.6363 C   0  0  0  0  0  0
  -27.6060  -32.4338   25.7506 C   0  0  0  0  0  0
  -27.5577  -37.1772   24.8463 C   0  0  0  0  0  0
  -21.4285  -29.3048   22.3569 N   0  0  0  0  0  0
  -26.4283  -37.3724   23.9410 N   0  0  0  0  0  0
  -24.7283  -31.0175   22.0893 N   0  0  0  0  0  0
  -23.4216  -28.8073   23.3000 O   0  0  0  0  0  0
  -28.2332  -26.0276   20.2460 O   0  0  0  0  0  0
  -26.5679  -34.8894   22.4631 O   0  0  0  0  0  0
  -23.5599  -32.1289   23.7005 O   0  0  0  0  0  0
  -31.4593  -19.5350   21.8150 C   0  0  0  0  0  0
  -30.6884  -20.6238   21.3693 C   0  0  0  0  0  0
  -31.1514  -18.1792   21.5570 C   0  0  0  0  0  0
  -29.2202  -19.0103   20.3162 C   0  0  0  0  0  0
  -29.5100  -20.4710   20.6128 C   0  0  0  0  0  0
  -30.0387  -17.8024   20.7465 C   0  0  0  0  0  0
  -28.9496  -23.2137   20.4444 C   0  0  0  0  0  0
  -32.0472  -17.1715   22.2617 C   0  0  0  0  0  0
  -27.9674  -18.7272   19.5097 C   0  0  0  0  0  0
  -27.9153  -24.4833   20.0368 C   0  0  0  0  0  0
  -28.7277  -21.7885   20.2554 N   0  0  0  0  0  0
  -29.7527  -16.2711   20.5272 N   0  0  0  0  0  0
  -30.0094  -23.5870   20.9525 O   0  0  0  0  0  0
  -31.4671  -12.8226   19.1876 H   0  0  0  0  0  0
  -30.4504  -11.7208   20.0675 H   0  0  0  0  0  0
  -29.8606  -11.7346   17.6163 H   0  0  0  0  0  0
  -29.5960  -13.4605   17.6769 H   0  0  0  0  0  0
  -27.9786  -11.2748   19.0158 H   0  0  0  0  0  0
  -27.3978  -12.4147   17.8282 H   0  0  0  0  0  0
  -27.5689  -14.2504   19.3826 H   0  0  0  0  0  0
  -28.7776  -12.3776   21.4745 H   0  0  0  0  0  0
  -28.3476  -14.0534   21.7307 H   0  0  0  0  0  0
  -25.2772   -9.5682   22.4764 H   0  0  0  0  0  0
  -23.9998   -7.4640   22.7480 H   0  0  0  0  0  0
  -21.0840   -8.8791   19.8959 H   0  0  0  0  0  0
  -22.3706  -10.9681   19.6173 H   0  0  0  0  0  0
  -21.2018   -7.6149   23.9712 H   0  0  0  0  0  0
  -21.1480   -6.0522   25.9076 H   0  0  0  0  0  0
  -22.0596   -2.7605   23.2846 H   0  0  0  0  0  0
  -22.4063  -11.9853   22.4824 H   0  0  0  0  0  0
  -21.1060  -13.1222   22.2670 H   0  0  0  0  0  0
  -24.6332  -15.8426   20.5308 H   0  0  0  0  0  0
  -26.2463  -15.6429   20.0739 H   0  0  0  0  0  0
  -26.7306  -32.5241   23.0966 H   0  0  0  0  0  0
  -25.0064  -33.9567   25.0274 H   0  0  0  0  0  0
  -22.7619  -31.2833   21.3705 H   0  0  0  0  0  0
  -23.3762  -35.9558   23.3284 H   0  0  0  0  0  0
  -24.3567  -36.8890   22.2059 H   0  0  0  0  0  0
  -23.7242  -37.6420   23.6701 H   0  0  0  0  0  0
  -26.1858  -31.4402   20.6202 H   0  0  0  0  0  0
  -26.8836  -30.7380   22.0426 H   0  0  0  0  0  0
  -28.1361  -28.7268   21.2541 H   0  0  0  0  0  0
  -25.8922  -25.8110   18.9988 H   0  0  0  0  0  0
  -23.9838  -27.2954   18.9666 H   0  0  0  0  0  0
  -23.8331  -30.5577   19.3958 H   0  0  0  0  0  0
  -22.7994  -29.2325   19.8343 H   0  0  0  0  0  0
  -25.1313  -36.1821   25.0798 H   0  0  0  0  0  0
  -21.0027  -28.3344   24.1335 H   0  0  0  0  0  0
  -20.5678  -26.2353   23.3628 H   0  0  0  0  0  0
  -21.6660  -26.7422   22.1206 H   0  0  0  0  0  0
  -19.6927  -25.6290   21.1252 H   0  0  0  0  0  0
  -19.6708  -27.3180   20.6725 H   0  0  0  0  0  0
  -17.4216  -26.6685   21.4034 H   0  0  0  0  0  0
  -18.0359  -26.0102   22.9031 H   0  0  0  0  0  0
  -19.7960  -30.7311   24.2231 H   0  0  0  0  0  0
  -17.5028  -31.6266   24.5178 H   0  0  0  0  0  0
  -15.5370  -30.2974   23.7682 H   0  0  0  0  0  0
  -15.8702  -28.0813   22.7089 H   0  0  0  0  0  0
  -24.5879  -30.7127   25.7713 H   0  0  0  0  0  0
  -24.8901  -32.2964   26.4761 H   0  0  0  0  0  0
  -25.7961  -30.8977   27.0219 H   0  0  0  0  0  0
  -26.3047  -29.6640   24.1354 H   0  0  0  0  0  0
  -27.3966  -29.7261   25.4977 H   0  0  0  0  0  0
  -27.8981  -30.4138   23.9730 H   0  0  0  0  0  0
  -27.2644  -33.3660   26.2015 H   0  0  0  0  0  0
  -28.3904  -32.6865   25.0360 H   0  0  0  0  0  0
  -28.0692  -31.8513   26.5480 H   0  0  0  0  0  0
  -28.2575  -38.0087   24.7509 H   0  0  0  0  0  0
  -28.1091  -36.2612   24.6284 H   0  0  0  0  0  0
  -27.2292  -37.1403   25.8866 H   0  0  0  0  0  0
  -20.9517  -29.8736   21.6713 H   0  0  0  0  0  0
  -26.0144  -38.2785   24.1429 H   0  0  0  0  0  0
  -32.3231  -19.7674   22.4223 H   0  0  0  0  0  0
  -31.0310  -21.5999   21.6713 H   0  0  0  0  0  0
  -32.5375  -17.6192   23.1269 H   0  0  0  0  0  0
  -32.8339  -16.8227   21.5939 H   0  0  0  0  0  0
  -31.4838  -16.3217   22.6441 H   0  0  0  0  0  0
  -27.8236  -19.4845   18.7387 H   0  0  0  0  0  0
  -27.0926  -18.7287   20.1601 H   0  0  0  0  0  0
  -28.0213  -17.7600   19.0104 H   0  0  0  0  0  0
  -26.9830  -24.2792   20.5641 H   0  0  0  0  0  0
  -27.6888  -24.3493   18.9789 H   0  0  0  0  0  0
  -27.8446  -21.6146   19.7941 H   0  0  0  0  0  0
  -28.7664  -16.0677   20.4854 H   0  0  0  0  0  0
  1 25  1  0  0  0
  1 30  2  0  0  0
  1 82  1  0  0  0
  2  3  1  0  0  0
  2 25  1  0  0  0
  2 84  1  0  0  0
  2 85  1  0  0  0
  3  4  1  0  0  0
  3 86  1  0  0  0
  3 87  1  0  0  0
  4  5  1  0  0  0
  4 88  1  0  0  0
  4 89  1  0  0  0
  5  6  1  0  0  0
  5 26  1  0  0  0
  5 90  1  0  0  0
  6 25  1  0  0  0
  6 91  1  0  0  0
  6 92  1  0  0  0
  7  8  2  0  0  0
  7 26  1  0  0  0
  7 29  1  0  0  0
  8  9  1  0  0  0
  8 22  1  0  0  0
  9 10  1  0  0  0
  9 27  2  0  0  0
 10 11  2  0  0  0
 10 15  1  0  0  0
 11 12  1  0  0  0
 11 93  1  0  0  0
 12 13  2  0  0  0
 12 94  1  0  0  0
 13 14  1  0  0  0
 13 31  1  0  0  0
 14 15  2  0  0  0
 14 95  1  0  0  0
 15 96  1  0  0  0
 16 17  2  0  0  0
 16 21  1  0  0  0
 16 31  1  0  0  0
 17 18  1  0  0  0
 17 97  1  0  0  0
 18 19  2  0  0  0
 18 98  1  0  0  0
 19 20  1  0  0  0
 19 24  1  0  0  0
 20 21  2  0  0  0
 20 99  1  0  0  0
 21 23  1  0  0  0
 22 28  1  0  0  0
 22 32  2  0  0  0
 26 27  1  0  0  0
 28100  1  0  0  0
 28101  1  0  0  0
 29102  1  0  0  0
 29103  1  0  0  0
 33 34  1  0  0  0
 33 66  1  0  0  0
 33 70  2  0  0  0
 34 36  1  0  0  0
 34 59  1  0  0  0
 34104  1  0  0  0
 35 44  2  0  0  0
 35 45  1  0  0  0
 35 68  1  0  0  0
 36 56  1  0  0  0
 36105  1  0  0  0
 37 39  1  0  0  0
 37 47  1  0  0  0
 37 66  1  0  0  0
 37106  1  0  0  0
 38 43  2  0  0  0
 38 46  1  0  0  0
 38 47  1  0  0  0
 39 64  1  0  0  0
 39 67  2  0  0  0
 40 52  1  0  0  0
 40 53  2  0  0  0
 40 58  1  0  0  0
 41107  1  0  0  0
 41108  1  0  0  0
 41109  1  0  0  0
 41 48  1  0  0  0
 42 43  1  0  0  0
 42 66  1  0  0  0
 42110  1  0  0  0
 42111  1  0  0  0
 43 44  1  0  0  0
 44112  1  0  0  0
 45 46  2  0  0  0
 45113  1  0  0  0
 46114  1  0  0  0
 47115  1  0  0  0
 47116  1  0  0  0
 48 56  1  0  0  0
 48 65  1  0  0  0
 48117  1  0  0  0
 49 50  1  0  0  0
 49 53  1  0  0  0
 49 64  1  0  0  0
 49118  1  0  0  0
 50 51  1  0  0  0
 50119  1  0  0  0
 50120  1  0  0  0
 51 52  1  0  0  0
 51121  1  0  0  0
 51122  1  0  0  0
 52123  1  0  0  0
 52124  1  0  0  0
 53 54  1  0  0  0
 54 55  2  0  0  0
 54125  1  0  0  0
 55 57  1  0  0  0
 55126  1  0  0  0
 56 69  2  0  0  0
 57 58  2  0  0  0
 57127  1  0  0  0
 58128  1  0  0  0
 59 60  1  0  0  0
 59 61  1  0  0  0
 59 62  1  0  0  0
 60129  1  0  0  0
 60130  1  0  0  0
 60131  1  0  0  0
 61132  1  0  0  0
 61133  1  0  0  0
 61134  1  0  0  0
 62135  1  0  0  0
 62136  1  0  0  0
 62137  1  0  0  0
 63 65  1  0  0  0
 63138  1  0  0  0
 63139  1  0  0  0
 63140  1  0  0  0
 64141  1  0  0  0
 65142  1  0  0  0
 68 80  1  0  0  0
 71 72  2  0  0  0
 71 73  1  0  0  0
 71143  1  0  0  0
 72 75  1  0  0  0
 72144  1  0  0  0
 73 76  2  0  0  0
 73 78  1  0  0  0
 74 75  2  0  0  0
 74 76  1  0  0  0
 74 79  1  0  0  0
 75 81  1  0  0  0
 76 82  1  0  0  0
 77 80  1  0  0  0
 77 81  1  0  0  0
 77 83  2  0  0  0
 78145  1  0  0  0
 78146  1  0  0  0
 78147  1  0  0  0
 79148  1  0  0  0
 79149  1  0  0  0
 79150  1  0  0  0
 80151  1  0  0  0
 80152  1  0  0  0
 81153  1  0  0  0
 82154  1  0  0  0
M  ISO  4   1 100  68 101  80 101  82 100
M  END
> <chiral flag>
0

> <version>
0

> <s_m_source_file>
/data/baiqing/PycharmProjects/Reinvent-master-3.2/result/LINK_invent/BTK/process_docking_weight1_custom_sum_contain_oxygen_bond_distance_aromatic_linkinvent_7_9_3/rearranged_h_0013.sdf

> <i_m_source_file_index>
92

> <r_mmod_Potential_Energy-OPLS-2005>
628.337036132812

> <r_mmod_Stretch_Energy-OPLS-2005>
356.706787109375

> <r_mmod_Bend_Energy-OPLS-2005>
278.723541259766

> <r_mmod_Torsional_Energy-OPLS-2005>
226.626983642578

> <r_mmod_Improper_Torsional_Energy-OPLS-2005>
5.81391286849976

> <r_mmod_Van_der_Waal_Energy-OPLS-2005>
139.589828491211

> <r_mmod_Electrostatic_Energy-OPLS-2005>
-399.006134033203

> <r_mmod_Solvation_Energy-OPLS-2005>
-245.497177124023

> <b_mmod_Minimization_Converged-OPLS-2005>
0

> <r_mmod_RMS_Derivative-OPLS-2005>
0.975064039230347

$$$$
92
                    3D
 Structure written by MMmdl.
154162  0  0  1  0            999 V2000
  -30.6476  -14.7129   20.4612 C   0  0  0  0  0  0
  -30.4208  -12.4329   19.4803 C   0  0  0  0  0  0
  -29.5077  -12.5001   18.2382 C   0  0  0  0  0  0
  -28.0335  -12.3280   18.6504 C   0  0  0  0  0  0
  -27.6401  -13.2330   19.8499 C   0  0  2  0  0  0
  -28.6817  -13.1772   20.9884 C   0  0  0  0  0  0
  -25.2506  -13.8212   20.5674 C   0  0  0  0  0  0
  -24.1792  -13.0456   20.9174 C   0  0  0  0  0  0
  -24.6384  -11.6926   20.8744 C   0  0  0  0  0  0
  -23.9066  -10.4303   21.0413 C   0  0  0  0  0  0
  -24.3619   -9.4222   21.9192 C   0  0  0  0  0  0
  -23.6287   -8.2268   22.0769 C   0  0  0  0  0  0
  -22.4277   -8.0311   21.3553 C   0  0  0  0  0  0
  -21.9914   -9.0275   20.4654 C   0  0  0  0  0  0
  -22.7248  -10.2148   20.3056 C   0  0  0  0  0  0
  -21.6862   -6.0754   22.5285 C   0  0  0  0  0  0
  -21.4016   -6.5648   23.8217 C   0  0  0  0  0  0
  -21.3644   -5.6801   24.9175 C   0  0  0  0  0  0
  -21.6045   -4.3066   24.7230 C   0  0  0  0  0  0
  -21.8817   -3.8151   23.4345 C   0  0  0  0  0  0
  -21.9196   -4.6978   22.3403 C   0  0  0  0  0  0
  -22.7821  -13.5248   21.1846 C   0  0  0  0  0  0
  -22.1662   -4.2163   21.0988 F   0  0  0  0  0  0
  -21.5622   -3.4550   25.7729 F   0  0  0  0  0  0
  -29.9884  -13.5056   20.4068 N   0  0  0  0  0  0
  -26.2922  -12.9410   20.3283 N   0  0  0  0  0  0
  -25.9322  -11.6547   20.5763 N   0  0  0  0  0  0
  -22.0465  -12.8239   22.0395 N   0  0  0  0  0  0
  -25.4187  -15.1933   20.4090 N   0  0  0  0  0  0
  -31.8384  -14.7460   20.1493 O   0  0  0  0  0  0
  -21.6651   -6.8901   21.4245 O   0  0  0  0  0  0
  -22.3527  -14.5572   20.6720 O   0  0  0  0  0  0
  -24.6279  -31.8501   23.1982 C   0  0  0  0  0  0
  -25.9101  -32.4737   23.8318 C   0  0  1  0  0  0
  -27.2297  -27.2707   20.1287 C   0  0  0  0  0  0
  -25.5901  -33.8540   24.2231 N   0  0  0  0  0  0
  -23.4289  -30.4717   21.5342 C   0  0  2  0  0  0
  -24.8808  -28.9194   20.1077 C   0  0  0  0  0  0
  -22.7487  -29.4571   22.4872 C   0  0  0  0  0  0
  -18.0285  -28.1411   22.8432 C   0  0  0  0  0  0
  -24.1484  -36.7225   23.2653 C   0  0  0  0  0  0
  -25.9732  -30.7673   21.3805 C   0  0  0  0  0  0
  -26.0476  -29.3921   20.7175 C   0  0  0  0  0  0
  -27.2225  -28.5775   20.7214 C   0  0  0  0  0  0
  -26.0411  -26.8663   19.4826 C   0  0  0  0  0  0
  -24.8786  -27.6631   19.4827 C   0  0  0  0  0  0
  -23.6496  -29.8005   20.1517 C   0  0  0  0  0  0
  -25.4104  -36.3023   24.0332 C   0  0  1  0  0  0
  -20.5896  -28.3669   23.1239 C   0  0  2  0  0  0
  -20.6778  -26.9376   22.5379 C   0  0  0  0  0  0
  -19.5756  -26.6361   21.5188 C   0  0  0  0  0  0
  -18.1943  -26.7953   22.1590 C   0  0  0  0  0  0
  -19.1550  -28.8862   23.2845 C   0  0  0  0  0  0
  -18.9490  -30.1477   23.8843 C   0  0  0  0  0  0
  -17.6488  -30.6603   24.0556 C   0  0  0  0  0  0
  -25.9037  -34.9410   23.5086 C   0  0  0  0  0  0
  -16.5367  -29.9089   23.6372 C   0  0  0  0  0  0
  -16.7266  -28.6532   23.0330 C   0  0  0  0  0  0
  -26.4482  -31.6608   25.0730 C   0  0  0  0  0  0
  -25.3704  -31.3762   26.1444 C   0  0  0  0  0  0
  -27.0400  -30.3052   24.6252 C   0  0  0  0  0  0
  -27.6038  -32.4364   25.7467 C   0  0  0  0  0  0
  -27.5575  -37.1729   24.8451 C   0  0  0  0  0  0
  -21.4206  -29.3037   22.3630 N   0  0  0  0  0  0
  -26.4252  -37.3740   23.9454 N   0  0  0  0  0  0
  -24.6964  -31.0476   22.0957 N   0  0  0  0  0  0
  -23.4211  -28.8117   23.2967 O   0  0  0  0  0  0
  -28.3315  -26.3886   20.2269 O   0  0  0  0  0  0
  -26.5611  -34.8905   22.4659 O   0  0  0  0  0  0
  -23.5434  -32.1287   23.7273 O   0  0  0  0  0  0
  -30.9492  -20.0936   20.0190 C   0  0  0  0  0  0
  -31.5389  -17.7084   20.0161 C   0  0  0  0  0  0
  -31.8822  -19.0594   19.7957 C   0  0  0  0  0  0
  -29.6555  -19.8168   20.5051 C   0  0  0  0  0  0
  -30.2569  -17.3156   20.4764 C   0  0  0  0  0  0
  -29.3282  -18.4079   20.7286 C   0  0  0  0  0  0
  -28.7239  -23.6832   20.6821 C   0  0  0  0  0  0
  -33.2892  -19.3870   19.3289 C   0  0  0  0  0  0
  -28.7264  -21.0549   20.8841 C   0  0  0  0  0  0
  -28.2346  -24.9462   19.8047 C   0  0  0  0  0  0
  -29.9155  -15.8741   20.6758 N   0  0  0  0  0  0
  -28.7585  -22.4010   20.1549 N   0  0  0  0  0  0
  -29.0305  -23.8569   21.8672 O   0  0  0  0  0  0
  -27.7675  -17.9920   21.3475 Cl  0  0  0  0  0  0
  -31.4666  -12.5254   19.1827 H   0  0  0  0  0  0
  -30.3391  -11.4591   19.9663 H   0  0  0  0  0  0
  -29.7877  -11.7261   17.5225 H   0  0  0  0  0  0
  -29.6396  -13.4575   17.7311 H   0  0  0  0  0  0
  -27.8859  -11.2781   18.9074 H   0  0  0  0  0  0
  -27.3778  -12.5239   17.8005 H   0  0  0  0  0  0
  -27.6346  -14.2539   19.4654 H   0  0  0  0  0  0
  -28.7060  -12.1895   21.4521 H   0  0  0  0  0  0
  -28.4195  -13.8793   21.7804 H   0  0  0  0  0  0
  -25.2776   -9.5725   22.4750 H   0  0  0  0  0  0
  -24.0011   -7.4681   22.7495 H   0  0  0  0  0  0
  -21.0859   -8.8792   19.8952 H   0  0  0  0  0  0
  -22.3722  -10.9685   19.6155 H   0  0  0  0  0  0
  -21.2002   -7.6151   23.9727 H   0  0  0  0  0  0
  -21.1456   -6.0524   25.9080 H   0  0  0  0  0  0
  -22.0602   -2.7613   23.2844 H   0  0  0  0  0  0
  -22.4078  -11.9879   22.4738 H   0  0  0  0  0  0
  -21.1093  -13.1273   22.2619 H   0  0  0  0  0  0
  -24.6471  -15.8414   20.5227 H   0  0  0  0  0  0
  -26.2721  -15.6453   20.1069 H   0  0  0  0  0  0
  -26.7138  -32.5358   23.1026 H   0  0  0  0  0  0
  -25.0089  -33.9654   25.0412 H   0  0  0  0  0  0
  -22.7276  -31.2949   21.3762 H   0  0  0  0  0  0
  -23.3785  -35.9523   23.3254 H   0  0  0  0  0  0
  -24.3583  -36.8899   22.2079 H   0  0  0  0  0  0
  -23.7182  -37.6386   23.6713 H   0  0  0  0  0  0
  -26.1218  -31.5339   20.6202 H   0  0  0  0  0  0
  -26.8467  -30.8006   22.0204 H   0  0  0  0  0  0
  -28.1132  -28.9270   21.2213 H   0  0  0  0  0  0
  -25.9813  -25.9045   18.9958 H   0  0  0  0  0  0
  -23.9813  -27.2875   19.0128 H   0  0  0  0  0  0
  -23.7783  -30.5689   19.3891 H   0  0  0  0  0  0
  -22.7735  -29.2238   19.8483 H   0  0  0  0  0  0
  -25.1286  -36.1830   25.0816 H   0  0  0  0  0  0
  -20.9962  -28.3229   24.1363 H   0  0  0  0  0  0
  -20.5662  -26.2266   23.3578 H   0  0  0  0  0  0
  -21.6642  -26.7385   22.1176 H   0  0  0  0  0  0
  -19.6935  -25.6269   21.1226 H   0  0  0  0  0  0
  -19.6764  -27.3165   20.6738 H   0  0  0  0  0  0
  -17.4204  -26.6661   21.4002 H   0  0  0  0  0  0
  -18.0340  -26.0116   22.9007 H   0  0  0  0  0  0
  -19.7989  -30.7305   24.2151 H   0  0  0  0  0  0
  -17.5067  -31.6285   24.5157 H   0  0  0  0  0  0
  -15.5380  -30.2988   23.7791 H   0  0  0  0  0  0
  -15.8649  -28.0884   22.7035 H   0  0  0  0  0  0
  -24.5841  -30.7163   25.7728 H   0  0  0  0  0  0
  -24.8950  -32.2953   26.4884 H   0  0  0  0  0  0
  -25.7975  -30.8870   27.0214 H   0  0  0  0  0  0
  -26.3041  -29.6721   24.1276 H   0  0  0  0  0  0
  -27.4133  -29.7353   25.4781 H   0  0  0  0  0  0
  -27.8866  -30.4381   23.9516 H   0  0  0  0  0  0
  -27.2673  -33.3693   26.2002 H   0  0  0  0  0  0
  -28.3855  -32.6874   25.0282 H   0  0  0  0  0  0
  -28.0724  -31.8533   26.5398 H   0  0  0  0  0  0
  -28.2481  -38.0139   24.7620 H   0  0  0  0  0  0
  -28.1177  -36.2652   24.6106 H   0  0  0  0  0  0
  -27.2304  -37.1157   25.8856 H   0  0  0  0  0  0
  -20.9386  -29.8738   21.6815 H   0  0  0  0  0  0
  -26.0101  -38.2780   24.1603 H   0  0  0  0  0  0
  -31.2422  -21.1201   19.8552 H   0  0  0  0  0  0
  -32.3159  -16.9887   19.8150 H   0  0  0  0  0  0
  -33.5407  -20.4329   19.5116 H   0  0  0  0  0  0
  -33.3998  -19.1842   18.2628 H   0  0  0  0  0  0
  -34.0220  -18.7767   19.8602 H   0  0  0  0  0  0
  -28.9169  -21.2565   21.9381 H   0  0  0  0  0  0
  -27.6879  -20.7237   20.8505 H   0  0  0  0  0  0
  -27.4498  -24.8834   20.5602 H   0  0  0  0  0  0
  -29.3178  -25.0775   19.7944 H   0  0  0  0  0  0
  -28.9557  -15.7105   20.9384 H   0  0  0  0  0  0
  -28.5536  -22.3450   19.1661 H   0  0  0  0  0  0
  1 25  1  0  0  0
  1 30  2  0  0  0
  1 81  1  0  0  0
  2  3  1  0  0  0
  2 25  1  0  0  0
  2 85  1  0  0  0
  2 86  1  0  0  0
  3  4  1  0  0  0
  3 87  1  0  0  0
  3 88  1  0  0  0
  4  5  1  0  0  0
  4 89  1  0  0  0
  4 90  1  0  0  0
  5  6  1  0  0  0
  5 26  1  0  0  0
  5 91  1  0  0  0
  6 25  1  0  0  0
  6 92  1  0  0  0
  6 93  1  0  0  0
  7  8  2  0  0  0
  7 26  1  0  0  0
  7 29  1  0  0  0
  8  9  1  0  0  0
  8 22  1  0  0  0
  9 10  1  0  0  0
  9 27  2  0  0  0
 10 11  2  0  0  0
 10 15  1  0  0  0
 11 12  1  0  0  0
 11 94  1  0  0  0
 12 13  2  0  0  0
 12 95  1  0  0  0
 13 14  1  0  0  0
 13 31  1  0  0  0
 14 15  2  0  0  0
 14 96  1  0  0  0
 15 97  1  0  0  0
 16 17  2  0  0  0
 16 21  1  0  0  0
 16 31  1  0  0  0
 17 18  1  0  0  0
 17 98  1  0  0  0
 18 19  2  0  0  0
 18 99  1  0  0  0
 19 20  1  0  0  0
 19 24  1  0  0  0
 20 21  2  0  0  0
 20100  1  0  0  0
 21 23  1  0  0  0
 22 28  1  0  0  0
 22 32  2  0  0  0
 26 27  1  0  0  0
 28101  1  0  0  0
 28102  1  0  0  0
 29103  1  0  0  0
 29104  1  0  0  0
 33 34  1  0  0  0
 33 66  1  0  0  0
 33 70  2  0  0  0
 34 36  1  0  0  0
 34 59  1  0  0  0
 34105  1  0  0  0
 35 44  2  0  0  0
 35 45  1  0  0  0
 35 68  1  0  0  0
 36 56  1  0  0  0
 36106  1  0  0  0
 37 39  1  0  0  0
 37 47  1  0  0  0
 37 66  1  0  0  0
 37107  1  0  0  0
 38 43  2  0  0  0
 38 46  1  0  0  0
 38 47  1  0  0  0
 39 64  1  0  0  0
 39 67  2  0  0  0
 40 52  1  0  0  0
 40 53  2  0  0  0
 40 58  1  0  0  0
 41108  1  0  0  0
 41109  1  0  0  0
 41110  1  0  0  0
 41 48  1  0  0  0
 42 43  1  0  0  0
 42 66  1  0  0  0
 42111  1  0  0  0
 42112  1  0  0  0
 43 44  1  0  0  0
 44113  1  0  0  0
 45 46  2  0  0  0
 45114  1  0  0  0
 46115  1  0  0  0
 47116  1  0  0  0
 47117  1  0  0  0
 48 56  1  0  0  0
 48 65  1  0  0  0
 48118  1  0  0  0
 49 50  1  0  0  0
 49 53  1  0  0  0
 49 64  1  0  0  0
 49119  1  0  0  0
 50 51  1  0  0  0
 50120  1  0  0  0
 50121  1  0  0  0
 51 52  1  0  0  0
 51122  1  0  0  0
 51123  1  0  0  0
 52124  1  0  0  0
 52125  1  0  0  0
 53 54  1  0  0  0
 54 55  2  0  0  0
 54126  1  0  0  0
 55 57  1  0  0  0
 55127  1  0  0  0
 56 69  2  0  0  0
 57 58  2  0  0  0
 57128  1  0  0  0
 58129  1  0  0  0
 59 60  1  0  0  0
 59 61  1  0  0  0
 59 62  1  0  0  0
 60130  1  0  0  0
 60131  1  0  0  0
 60132  1  0  0  0
 61133  1  0  0  0
 61134  1  0  0  0
 61135  1  0  0  0
 62136  1  0  0  0
 62137  1  0  0  0
 62138  1  0  0  0
 63 65  1  0  0  0
 63139  1  0  0  0
 63140  1  0  0  0
 63141  1  0  0  0
 64142  1  0  0  0
 65143  1  0  0  0
 68 80  1  0  0  0
 71 73  2  0  0  0
 71 74  1  0  0  0
 71144  1  0  0  0
 72 73  1  0  0  0
 72 75  2  0  0  0
 72145  1  0  0  0
 73 78  1  0  0  0
 74 76  2  0  0  0
 74 79  1  0  0  0
 75 76  1  0  0  0
 75 81  1  0  0  0
 76 84  1  0  0  0
 77 80  1  0  0  0
 77 82  1  0  0  0
 77 83  2  0  0  0
 78146  1  0  0  0
 78147  1  0  0  0
 78148  1  0  0  0
 79 82  1  0  0  0
 79149  1  0  0  0
 79150  1  0  0  0
 80151  1  0  0  0
 80152  1  0  0  0
 81153  1  0  0  0
 82154  1  0  0  0
M  ISO  4   1 100  68 101  80 101  81 100
M  END
> <chiral flag>
0

> <version>
0

> <s_m_source_file>
/data/baiqing/PycharmProjects/Reinvent-master-3.2/result/LINK_invent/BTK/process_docking_weight1_custom_sum_contain_oxygen_bond_distance_aromatic_linkinvent_7_9_3/rearranged_h_0013.sdf

> <i_m_source_file_index>
93

> <r_mmod_Potential_Energy-OPLS-2005>
269.389251708984

> <r_mmod_Stretch_Energy-OPLS-2005>
123.952949523926

> <r_mmod_Bend_Energy-OPLS-2005>
366.957061767578

> <r_mmod_Torsional_Energy-OPLS-2005>
209.532150268555

> <r_mmod_Improper_Torsional_Energy-OPLS-2005>
5.37855768203735

> <r_mmod_Van_der_Waal_Energy-OPLS-2005>
149.191925048828

> <r_mmod_Electrostatic_Energy-OPLS-2005>
-429.201843261719

> <r_mmod_Solvation_Energy-OPLS-2005>
-234.897262573242

> <b_mmod_Minimization_Converged-OPLS-2005>
0

> <r_mmod_RMS_Derivative-OPLS-2005>
4.02419424057007

$$$$
93
                    3D
 Structure written by MMmdl.
156164  0  0  1  0            999 V2000
  -30.6229  -14.7159   20.4658 C   0  0  0  0  0  0
  -30.4230  -12.4349   19.4749 C   0  0  0  0  0  0
  -29.5075  -12.5069   18.2352 C   0  0  0  0  0  0
  -28.0320  -12.3390   18.6459 C   0  0  0  0  0  0
  -27.6408  -13.2329   19.8537 C   0  0  2  0  0  0
  -28.6824  -13.1600   20.9906 C   0  0  0  0  0  0
  -25.2492  -13.8196   20.5655 C   0  0  0  0  0  0
  -24.1790  -13.0440   20.9184 C   0  0  0  0  0  0
  -24.6394  -11.6924   20.8749 C   0  0  0  0  0  0
  -23.9079  -10.4295   21.0412 C   0  0  0  0  0  0
  -24.3625   -9.4207   21.9189 C   0  0  0  0  0  0
  -23.6297   -8.2244   22.0762 C   0  0  0  0  0  0
  -22.4281   -8.0283   21.3548 C   0  0  0  0  0  0
  -21.9919   -9.0256   20.4649 C   0  0  0  0  0  0
  -22.7249  -10.2133   20.3060 C   0  0  0  0  0  0
  -21.6858   -6.0735   22.5281 C   0  0  0  0  0  0
  -21.4009   -6.5640   23.8213 C   0  0  0  0  0  0
  -21.3651   -5.6790   24.9169 C   0  0  0  0  0  0
  -21.6043   -4.3057   24.7223 C   0  0  0  0  0  0
  -21.8821   -3.8151   23.4348 C   0  0  0  0  0  0
  -21.9191   -4.6964   22.3401 C   0  0  0  0  0  0
  -22.7817  -13.5228   21.1848 C   0  0  0  0  0  0
  -22.1663   -4.2155   21.0977 F   0  0  0  0  0  0
  -21.5625   -3.4540   25.7739 F   0  0  0  0  0  0
  -29.9849  -13.5001   20.4079 N   0  0  0  0  0  0
  -26.2934  -12.9411   20.3295 N   0  0  0  0  0  0
  -25.9324  -11.6559   20.5773 N   0  0  0  0  0  0
  -22.0464  -12.8216   22.0407 N   0  0  0  0  0  0
  -25.4154  -15.1908   20.4012 N   0  0  0  0  0  0
  -31.8099  -14.7747   20.1326 O   0  0  0  0  0  0
  -21.6637   -6.8878   21.4247 O   0  0  0  0  0  0
  -22.3507  -14.5537   20.6697 O   0  0  0  0  0  0
  -24.6298  -31.8552   23.1982 C   0  0  0  0  0  0
  -25.9143  -32.4742   23.8301 C   0  0  1  0  0  0
  -27.2136  -27.2733   20.1076 C   0  0  0  0  0  0
  -25.5954  -33.8546   24.2239 N   0  0  0  0  0  0
  -23.4236  -30.4825   21.5390 C   0  0  2  0  0  0
  -24.8676  -28.9284   20.1043 C   0  0  0  0  0  0
  -22.7481  -29.4609   22.4864 C   0  0  0  0  0  0
  -18.0277  -28.1397   22.8466 C   0  0  0  0  0  0
  -24.1497  -36.7279   23.2634 C   0  0  0  0  0  0
  -25.9682  -30.7729   21.3737 C   0  0  0  0  0  0
  -26.0382  -29.3968   20.7118 C   0  0  0  0  0  0
  -27.2107  -28.5790   20.7042 C   0  0  0  0  0  0
  -26.0139  -26.8615   19.4860 C   0  0  0  0  0  0
  -24.8594  -27.6694   19.4833 C   0  0  0  0  0  0
  -23.6424  -29.8203   20.1533 C   0  0  0  0  0  0
  -25.4117  -36.3055   24.0322 C   0  0  1  0  0  0
  -20.5882  -28.3696   23.1282 C   0  0  2  0  0  0
  -20.6767  -26.9411   22.5421 C   0  0  0  0  0  0
  -19.5753  -26.6380   21.5213 C   0  0  0  0  0  0
  -18.1913  -26.7939   22.1603 C   0  0  0  0  0  0
  -19.1531  -28.8853   23.2868 C   0  0  0  0  0  0
  -18.9474  -30.1447   23.8899 C   0  0  0  0  0  0
  -17.6481  -30.6592   24.0568 C   0  0  0  0  0  0
  -25.9063  -34.9435   23.5073 C   0  0  0  0  0  0
  -16.5362  -29.9101   23.6344 C   0  0  0  0  0  0
  -16.7270  -28.6527   23.0339 C   0  0  0  0  0  0
  -26.4517  -31.6563   25.0691 C   0  0  0  0  0  0
  -25.3768  -31.3754   26.1443 C   0  0  0  0  0  0
  -27.0346  -30.2978   24.6160 C   0  0  0  0  0  0
  -27.6073  -32.4290   25.7466 C   0  0  0  0  0  0
  -27.5575  -37.1779   24.8453 C   0  0  0  0  0  0
  -21.4179  -29.3059   22.3663 N   0  0  0  0  0  0
  -26.4272  -37.3765   23.9430 N   0  0  0  0  0  0
  -24.6927  -31.0545   22.0942 N   0  0  0  0  0  0
  -23.4202  -28.8115   23.2914 O   0  0  0  0  0  0
  -28.3405  -26.4279   20.1735 O   0  0  0  0  0  0
  -26.5614  -34.8904   22.4625 O   0  0  0  0  0  0
  -23.5468  -32.1365   23.7313 O   0  0  0  0  0  0
  -31.6007  -17.6837   20.7087 C   0  0  0  0  0  0
  -32.0161  -19.0297   20.6837 C   0  0  0  0  0  0
  -29.6822  -19.8269   20.5986 C   0  0  0  0  0  0
  -30.2403  -17.3096   20.6483 C   0  0  0  0  0  0
  -31.0776  -20.0862   20.6369 C   0  0  0  0  0  0
  -29.2908  -18.4150   20.6053 C   0  0  0  0  0  0
  -33.5062  -19.3276   20.7337 C   0  0  0  0  0  0
  -28.6680  -21.0643   20.7211 C   0  0  0  0  0  0
  -28.3136  -23.7081   20.5203 C   0  0  0  0  0  0
  -28.4097  -25.0390   19.6058 C   0  0  0  0  0  0
  -29.8672  -15.8649   20.6817 N   0  0  0  0  0  0
  -28.8713  -22.3830   19.9509 N   0  3  0  0  0  0
  -31.6793  -21.7121   20.6825 Cl  0  0  0  0  0  0
  -27.6106  -18.0083   20.6100 Cl  0  0  0  0  0  0
  -31.4670  -12.5407   19.1768 H   0  0  0  0  0  0
  -30.3510  -11.4576   19.9537 H   0  0  0  0  0  0
  -29.7856  -11.7373   17.5141 H   0  0  0  0  0  0
  -29.6451  -13.4646   17.7313 H   0  0  0  0  0  0
  -27.8797  -11.2891   18.8994 H   0  0  0  0  0  0
  -27.3796  -12.5440   17.7965 H   0  0  0  0  0  0
  -27.6370  -14.2562   19.4806 H   0  0  0  0  0  0
  -28.7109  -12.1629   21.4321 H   0  0  0  0  0  0
  -28.4248  -13.8448   21.7994 H   0  0  0  0  0  0
  -25.2768   -9.5687   22.4768 H   0  0  0  0  0  0
  -23.9999   -7.4642   22.7489 H   0  0  0  0  0  0
  -21.0849   -8.8781   19.8960 H   0  0  0  0  0  0
  -22.3711  -10.9674   19.6172 H   0  0  0  0  0  0
  -21.1999   -7.6148   23.9718 H   0  0  0  0  0  0
  -21.1468   -6.0517   25.9069 H   0  0  0  0  0  0
  -22.0607   -2.7616   23.2846 H   0  0  0  0  0  0
  -22.4067  -11.9854   22.4765 H   0  0  0  0  0  0
  -21.1102  -13.1269   22.2636 H   0  0  0  0  0  0
  -24.6433  -15.8409   20.4952 H   0  0  0  0  0  0
  -26.2601  -15.6377   20.0705 H   0  0  0  0  0  0
  -26.7181  -32.5418   23.1017 H   0  0  0  0  0  0
  -25.0144  -33.9655   25.0416 H   0  0  0  0  0  0
  -22.7190  -31.3047   21.3927 H   0  0  0  0  0  0
  -23.3766  -35.9602   23.3252 H   0  0  0  0  0  0
  -24.3602  -36.8981   22.2059 H   0  0  0  0  0  0
  -23.7243  -37.6457   23.6704 H   0  0  0  0  0  0
  -26.1050  -31.5364   20.6067 H   0  0  0  0  0  0
  -26.8474  -30.8211   22.0052 H   0  0  0  0  0  0
  -28.1093  -28.9324   21.1895 H   0  0  0  0  0  0
  -25.9222  -25.8948   19.0164 H   0  0  0  0  0  0
  -23.9589  -27.3071   19.0067 H   0  0  0  0  0  0
  -23.7743  -30.6012   19.4034 H   0  0  0  0  0  0
  -22.7592  -29.2621   19.8398 H   0  0  0  0  0  0
  -25.1292  -36.1859   25.0813 H   0  0  0  0  0  0
  -20.9971  -28.3285   24.1409 H   0  0  0  0  0  0
  -20.5660  -26.2300   23.3624 H   0  0  0  0  0  0
  -21.6634  -26.7421   22.1223 H   0  0  0  0  0  0
  -19.6927  -25.6289   21.1246 H   0  0  0  0  0  0
  -19.6730  -27.3186   20.6742 H   0  0  0  0  0  0
  -17.4197  -26.6710   21.3980 H   0  0  0  0  0  0
  -18.0282  -26.0069   22.8987 H   0  0  0  0  0  0
  -19.7955  -30.7240   24.2283 H   0  0  0  0  0  0
  -17.5047  -31.6278   24.5156 H   0  0  0  0  0  0
  -15.5364  -30.3011   23.7677 H   0  0  0  0  0  0
  -15.8664  -28.0862   22.7050 H   0  0  0  0  0  0
  -24.5928  -30.7086   25.7834 H   0  0  0  0  0  0
  -24.8964  -32.2947   26.4813 H   0  0  0  0  0  0
  -25.8112  -30.9000   27.0249 H   0  0  0  0  0  0
  -26.2905  -29.6704   24.1231 H   0  0  0  0  0  0
  -27.4102  -29.7253   25.4652 H   0  0  0  0  0  0
  -27.8762  -30.4250   23.9345 H   0  0  0  0  0  0
  -27.2713  -33.3656   26.1909 H   0  0  0  0  0  0
  -28.3969  -32.6713   25.0350 H   0  0  0  0  0  0
  -28.0605  -31.8473   26.5502 H   0  0  0  0  0  0
  -28.2536  -38.0114   24.7518 H   0  0  0  0  0  0
  -28.1113  -36.2643   24.6231 H   0  0  0  0  0  0
  -27.2294  -37.1377   25.8850 H   0  0  0  0  0  0
  -20.9318  -29.8893   21.6997 H   0  0  0  0  0  0
  -26.0139  -38.2832   24.1478 H   0  0  0  0  0  0
  -32.3709  -16.9361   20.7984 H   0  0  0  0  0  0
  -34.0974  -18.4178   20.8527 H   0  0  0  0  0  0
  -33.7410  -19.9867   21.5707 H   0  0  0  0  0  0
  -33.8238  -19.8160   19.8115 H   0  0  0  0  0  0
  -28.6412  -21.3187   21.7813 H   0  0  0  0  0  0
  -27.6615  -20.7224   20.4851 H   0  0  0  0  0  0
  -27.2699  -23.5617   20.7992 H   0  0  0  0  0  0
  -28.8451  -23.9026   21.4522 H   0  0  0  0  0  0
  -27.7487  -24.9312   18.7478 H   0  0  0  0  0  0
  -29.3999  -25.0116   19.1506 H   0  0  0  0  0  0
  -28.8848  -15.6901   20.8325 H   0  0  0  0  0  0
  -28.5044  -22.2419   19.0230 H   0  0  0  0  0  0
  -29.8711  -22.4969   19.8556 H   0  0  0  0  0  0
  1 25  1  0  0  0
  1 30  2  0  0  0
  1 81  1  0  0  0
  2  3  1  0  0  0
  2 25  1  0  0  0
  2 85  1  0  0  0
  2 86  1  0  0  0
  3  4  1  0  0  0
  3 87  1  0  0  0
  3 88  1  0  0  0
  4  5  1  0  0  0
  4 89  1  0  0  0
  4 90  1  0  0  0
  5  6  1  0  0  0
  5 26  1  0  0  0
  5 91  1  0  0  0
  6 25  1  0  0  0
  6 92  1  0  0  0
  6 93  1  0  0  0
  7  8  2  0  0  0
  7 26  1  0  0  0
  7 29  1  0  0  0
  8  9  1  0  0  0
  8 22  1  0  0  0
  9 10  1  0  0  0
  9 27  2  0  0  0
 10 11  2  0  0  0
 10 15  1  0  0  0
 11 12  1  0  0  0
 11 94  1  0  0  0
 12 13  2  0  0  0
 12 95  1  0  0  0
 13 14  1  0  0  0
 13 31  1  0  0  0
 14 15  2  0  0  0
 14 96  1  0  0  0
 15 97  1  0  0  0
 16 17  2  0  0  0
 16 21  1  0  0  0
 16 31  1  0  0  0
 17 18  1  0  0  0
 17 98  1  0  0  0
 18 19  2  0  0  0
 18 99  1  0  0  0
 19 20  1  0  0  0
 19 24  1  0  0  0
 20 21  2  0  0  0
 20100  1  0  0  0
 21 23  1  0  0  0
 22 28  1  0  0  0
 22 32  2  0  0  0
 26 27  1  0  0  0
 28101  1  0  0  0
 28102  1  0  0  0
 29103  1  0  0  0
 29104  1  0  0  0
 33 34  1  0  0  0
 33 66  1  0  0  0
 33 70  2  0  0  0
 34 36  1  0  0  0
 34 59  1  0  0  0
 34105  1  0  0  0
 35 44  2  0  0  0
 35 45  1  0  0  0
 35 68  1  0  0  0
 36 56  1  0  0  0
 36106  1  0  0  0
 37 39  1  0  0  0
 37 47  1  0  0  0
 37 66  1  0  0  0
 37107  1  0  0  0
 38 43  2  0  0  0
 38 46  1  0  0  0
 38 47  1  0  0  0
 39 64  1  0  0  0
 39 67  2  0  0  0
 40 52  1  0  0  0
 40 53  2  0  0  0
 40 58  1  0  0  0
 41108  1  0  0  0
 41109  1  0  0  0
 41110  1  0  0  0
 41 48  1  0  0  0
 42 43  1  0  0  0
 42 66  1  0  0  0
 42111  1  0  0  0
 42112  1  0  0  0
 43 44  1  0  0  0
 44113  1  0  0  0
 45 46  2  0  0  0
 45114  1  0  0  0
 46115  1  0  0  0
 47116  1  0  0  0
 47117  1  0  0  0
 48 56  1  0  0  0
 48 65  1  0  0  0
 48118  1  0  0  0
 49 50  1  0  0  0
 49 53  1  0  0  0
 49 64  1  0  0  0
 49119  1  0  0  0
 50 51  1  0  0  0
 50120  1  0  0  0
 50121  1  0  0  0
 51 52  1  0  0  0
 51122  1  0  0  0
 51123  1  0  0  0
 52124  1  0  0  0
 52125  1  0  0  0
 53 54  1  0  0  0
 54 55  2  0  0  0
 54126  1  0  0  0
 55 57  1  0  0  0
 55127  1  0  0  0
 56 69  2  0  0  0
 57 58  2  0  0  0
 57128  1  0  0  0
 58129  1  0  0  0
 59 60  1  0  0  0
 59 61  1  0  0  0
 59 62  1  0  0  0
 60130  1  0  0  0
 60131  1  0  0  0
 60132  1  0  0  0
 61133  1  0  0  0
 61134  1  0  0  0
 61135  1  0  0  0
 62136  1  0  0  0
 62137  1  0  0  0
 62138  1  0  0  0
 63 65  1  0  0  0
 63139  1  0  0  0
 63140  1  0  0  0
 63141  1  0  0  0
 64142  1  0  0  0
 65143  1  0  0  0
 68 80  1  0  0  0
 71 72  2  0  0  0
 71 74  1  0  0  0
 71144  1  0  0  0
 72 75  1  0  0  0
 72 77  1  0  0  0
 73 75  2  0  0  0
 73 76  1  0  0  0
 73 78  1  0  0  0
 74 76  2  0  0  0
 74 81  1  0  0  0
 75 83  1  0  0  0
 76 84  1  0  0  0
 77145  1  0  0  0
 77146  1  0  0  0
 77147  1  0  0  0
 78 82  1  0  0  0
 78148  1  0  0  0
 78149  1  0  0  0
 79 80  1  0  0  0
 79 82  1  0  0  0
 79150  1  0  0  0
 79151  1  0  0  0
 80152  1  0  0  0
 80153  1  0  0  0
 81154  1  0  0  0
 82155  1  0  0  0
 82156  1  0  0  0
M  CHG  1  82   1
M  ISO  4   1 100  68 101  80 101  81 100
M  END
> <chiral flag>
0

> <version>
0

> <s_m_source_file>
/data/baiqing/PycharmProjects/Reinvent-master-3.2/result/LINK_invent/BTK/process_docking_weight1_custom_sum_contain_oxygen_bond_distance_aromatic_linkinvent_7_9_3/rearranged_h_0013.sdf

> <i_m_source_file_index>
94

> <r_mmod_Potential_Energy-OPLS-2005>
-77.2921829223633

> <r_mmod_Stretch_Energy-OPLS-2005>
124.08024597168

> <r_mmod_Bend_Energy-OPLS-2005>
172.126541137695

> <r_mmod_Torsional_Energy-OPLS-2005>
204.637283325195

> <r_mmod_Improper_Torsional_Energy-OPLS-2005>
5.60591268539429

> <r_mmod_Van_der_Waal_Energy-OPLS-2005>
151.341033935547

> <r_mmod_Electrostatic_Energy-OPLS-2005>
-356.310028076172

> <r_mmod_Solvation_Energy-OPLS-2005>
-451.413818359375

> <b_mmod_Minimization_Converged-OPLS-2005>
0

> <r_mmod_RMS_Derivative-OPLS-2005>
2.41689610481262

$$$$
94
                    3D
 Structure written by MMmdl.
155163  0  0  1  0            999 V2000
  -30.6405  -14.6189   20.5013 C   0  0  0  0  0  0
  -30.4397  -12.3791   19.4512 C   0  0  0  0  0  0
  -29.5075  -12.5009   18.2245 C   0  0  0  0  0  0
  -28.0298  -12.3442   18.6361 C   0  0  0  0  0  0
  -27.6544  -13.2155   19.8647 C   0  0  2  0  0  0
  -28.7008  -13.0659   20.9927 C   0  0  0  0  0  0
  -25.2548  -13.8171   20.5706 C   0  0  0  0  0  0
  -24.1806  -13.0433   20.9173 C   0  0  0  0  0  0
  -24.6384  -11.6906   20.8725 C   0  0  0  0  0  0
  -23.9044  -10.4290   21.0383 C   0  0  0  0  0  0
  -24.3616   -9.4207   21.9160 C   0  0  0  0  0  0
  -23.6282   -8.2246   22.0748 C   0  0  0  0  0  0
  -22.4258   -8.0287   21.3559 C   0  0  0  0  0  0
  -21.9880   -9.0251   20.4651 C   0  0  0  0  0  0
  -22.7212  -10.2131   20.3046 C   0  0  0  0  0  0
  -21.6859   -6.0731   22.5273 C   0  0  0  0  0  0
  -21.4021   -6.5633   23.8205 C   0  0  0  0  0  0
  -21.3655   -5.6784   24.9166 C   0  0  0  0  0  0
  -21.6046   -4.3048   24.7209 C   0  0  0  0  0  0
  -21.8819   -3.8138   23.4323 C   0  0  0  0  0  0
  -21.9193   -4.6963   22.3389 C   0  0  0  0  0  0
  -22.7829  -13.5234   21.1835 C   0  0  0  0  0  0
  -22.1658   -4.2154   21.0960 F   0  0  0  0  0  0
  -21.5620   -3.4524   25.7720 F   0  0  0  0  0  0
  -30.0178  -13.4005   20.4301 N   0  0  0  0  0  0
  -26.2988  -12.9362   20.3335 N   0  0  0  0  0  0
  -25.9315  -11.6516   20.5753 N   0  0  0  0  0  0
  -22.0463  -12.8255   22.0412 N   0  0  0  0  0  0
  -25.4222  -15.1905   20.4198 N   0  0  0  0  0  0
  -31.8162  -14.7459   20.1551 O   0  0  0  0  0  0
  -21.6636   -6.8876   21.4241 O   0  0  0  0  0  0
  -22.3505  -14.5525   20.6663 O   0  0  0  0  0  0
  -24.6265  -31.8630   23.2060 C   0  0  0  0  0  0
  -25.9123  -32.4794   23.8381 C   0  0  1  0  0  0
  -27.2163  -27.3333   20.1097 C   0  0  0  0  0  0
  -25.5948  -33.8595   24.2307 N   0  0  0  0  0  0
  -23.4180  -30.4919   21.5466 C   0  0  2  0  0  0
  -24.8620  -28.9566   20.1065 C   0  0  0  0  0  0
  -22.7479  -29.4659   22.4922 C   0  0  0  0  0  0
  -18.0295  -28.1385   22.8466 C   0  0  0  0  0  0
  -24.1486  -36.7300   23.2637 C   0  0  0  0  0  0
  -25.9610  -30.8000   21.3753 C   0  0  0  0  0  0
  -26.0330  -29.4319   20.7106 C   0  0  0  0  0  0
  -27.2150  -28.6341   20.6980 C   0  0  0  0  0  0
  -26.0189  -26.9123   19.4817 C   0  0  0  0  0  0
  -24.8573  -27.7029   19.4814 C   0  0  0  0  0  0
  -23.6309  -29.8358   20.1587 C   0  0  0  0  0  0
  -25.4107  -36.3095   24.0337 C   0  0  1  0  0  0
  -20.5894  -28.3701   23.1265 C   0  0  2  0  0  0
  -20.6781  -26.9421   22.5403 C   0  0  0  0  0  0
  -19.5763  -26.6386   21.5198 C   0  0  0  0  0  0
  -18.1942  -26.7932   22.1604 C   0  0  0  0  0  0
  -19.1542  -28.8854   23.2867 C   0  0  0  0  0  0
  -18.9469  -30.1445   23.8904 C   0  0  0  0  0  0
  -17.6466  -30.6581   24.0564 C   0  0  0  0  0  0
  -25.9044  -34.9464   23.5116 C   0  0  0  0  0  0
  -16.5361  -29.9081   23.6320 C   0  0  0  0  0  0
  -16.7277  -28.6500   23.0339 C   0  0  0  0  0  0
  -26.4499  -31.6598   25.0747 C   0  0  0  0  0  0
  -25.3738  -31.3743   26.1481 C   0  0  0  0  0  0
  -27.0338  -30.3020   24.6209 C   0  0  0  0  0  0
  -27.6073  -32.4327   25.7500 C   0  0  0  0  0  0
  -27.5583  -37.1803   24.8456 C   0  0  0  0  0  0
  -21.4191  -29.3061   22.3659 N   0  0  0  0  0  0
  -26.4286  -37.3790   23.9414 N   0  0  0  0  0  0
  -24.6872  -31.0679   22.0982 N   0  0  0  0  0  0
  -23.4207  -28.8191   23.2992 O   0  0  0  0  0  0
  -28.3307  -26.4806   20.1621 O   0  0  0  0  0  0
  -26.5597  -34.8927   22.4674 O   0  0  0  0  0  0
  -23.5435  -32.1414   23.7395 O   0  0  0  0  0  0
  -28.9516  -19.3833   21.0234 C   0  0  0  0  0  0
  -30.8038  -19.1705   19.5210 C   0  0  0  0  0  0
  -29.8483  -20.0378   20.1328 C   0  0  0  0  0  0
  -29.9382  -17.1193   20.6063 C   0  0  0  0  0  0
  -28.9996  -17.9725   21.2512 C   0  0  0  0  0  0
  -30.8407  -17.7644   19.7196 C   0  0  0  0  0  0
  -30.3355  -21.7678   18.4804 C   0  0  0  0  0  0
  -29.2331  -23.9845   20.3173 C   0  0  0  0  0  0
  -28.8116  -22.4387   20.3210 C   0  0  0  0  0  0
  -28.0643  -25.0280   20.0993 C   0  0  0  0  0  0
  -29.8475  -15.6760   20.8493 N   0  0  0  0  0  0
  -29.8211  -21.4533   19.8175 N   0  0  0  0  0  0
  -28.0987  -17.4167   22.0988 F   0  0  0  0  0  0
  -31.7401  -17.0584   18.9958 F   0  0  0  0  0  0
  -31.4812  -12.4999   19.1457 H   0  0  0  0  0  0
  -30.3750  -11.3837   19.8924 H   0  0  0  0  0  0
  -29.7646  -11.7520   17.4752 H   0  0  0  0  0  0
  -29.6523  -13.4709   17.7458 H   0  0  0  0  0  0
  -27.8617  -11.2916   18.8670 H   0  0  0  0  0  0
  -27.3777  -12.5773   17.7935 H   0  0  0  0  0  0
  -27.6743  -14.2498   19.5230 H   0  0  0  0  0  0
  -28.7059  -12.0438   21.3738 H   0  0  0  0  0  0
  -28.4544  -13.7011   21.8447 H   0  0  0  0  0  0
  -25.2769   -9.5672   22.4721 H   0  0  0  0  0  0
  -24.0000   -7.4625   22.7467 H   0  0  0  0  0  0
  -21.0807   -8.8760   19.8961 H   0  0  0  0  0  0
  -22.3657  -10.9669   19.6150 H   0  0  0  0  0  0
  -21.2035   -7.6139   23.9708 H   0  0  0  0  0  0
  -21.1475   -6.0511   25.9074 H   0  0  0  0  0  0
  -22.0608   -2.7598   23.2814 H   0  0  0  0  0  0
  -22.4111  -11.9963   22.4870 H   0  0  0  0  0  0
  -21.1074  -13.1287   22.2611 H   0  0  0  0  0  0
  -24.6577  -15.8404   20.5655 H   0  0  0  0  0  0
  -26.2781  -15.6465   20.1304 H   0  0  0  0  0  0
  -26.7202  -32.5463   23.1143 H   0  0  0  0  0  0
  -25.0126  -33.9737   25.0471 H   0  0  0  0  0  0
  -22.7115  -31.3133   21.4099 H   0  0  0  0  0  0
  -23.3755  -35.9624   23.3287 H   0  0  0  0  0  0
  -24.3593  -36.8926   22.2056 H   0  0  0  0  0  0
  -23.7225  -37.6498   23.6657 H   0  0  0  0  0  0
  -26.1009  -31.5712   20.6165 H   0  0  0  0  0  0
  -26.8383  -30.8388   22.0092 H   0  0  0  0  0  0
  -28.1149  -28.9980   21.1733 H   0  0  0  0  0  0
  -25.9389  -25.9593   18.9836 H   0  0  0  0  0  0
  -23.9622  -27.3365   18.9972 H   0  0  0  0  0  0
  -23.7512  -30.6182   19.4087 H   0  0  0  0  0  0
  -22.7487  -29.2709   19.8518 H   0  0  0  0  0  0
  -25.1281  -36.1955   25.0829 H   0  0  0  0  0  0
  -20.9987  -28.3286   24.1385 H   0  0  0  0  0  0
  -20.5661  -26.2324   23.3608 H   0  0  0  0  0  0
  -21.6659  -26.7435   22.1221 H   0  0  0  0  0  0
  -19.6930  -25.6291   21.1245 H   0  0  0  0  0  0
  -19.6702  -27.3182   20.6716 H   0  0  0  0  0  0
  -17.4208  -26.6663   21.4009 H   0  0  0  0  0  0
  -18.0344  -26.0076   22.9001 H   0  0  0  0  0  0
  -19.7940  -30.7251   24.2299 H   0  0  0  0  0  0
  -17.5021  -31.6260   24.5165 H   0  0  0  0  0  0
  -15.5360  -30.2987   23.7641 H   0  0  0  0  0  0
  -15.8680  -28.0821   22.7056 H   0  0  0  0  0  0
  -24.5908  -30.7092   25.7817 H   0  0  0  0  0  0
  -24.8936  -32.2914   26.4913 H   0  0  0  0  0  0
  -25.8075  -30.8922   27.0253 H   0  0  0  0  0  0
  -26.2911  -29.6775   24.1233 H   0  0  0  0  0  0
  -27.4027  -29.7286   25.4725 H   0  0  0  0  0  0
  -27.8792  -30.4305   23.9444 H   0  0  0  0  0  0
  -27.2697  -33.3620   26.2107 H   0  0  0  0  0  0
  -28.3863  -32.6903   25.0306 H   0  0  0  0  0  0
  -28.0772  -31.8438   26.5392 H   0  0  0  0  0  0
  -28.2599  -38.0101   24.7526 H   0  0  0  0  0  0
  -28.1087  -36.2649   24.6245 H   0  0  0  0  0  0
  -27.2324  -37.1406   25.8864 H   0  0  0  0  0  0
  -20.9363  -29.8805   21.6893 H   0  0  0  0  0  0
  -26.0176  -38.2870   24.1418 H   0  0  0  0  0  0
  -28.1907  -19.9498   21.5392 H   0  0  0  0  0  0
  -31.5435  -19.5628   18.8393 H   0  0  0  0  0  0
  -31.4086  -21.9606   18.5193 H   0  0  0  0  0  0
  -29.8549  -22.6470   18.0501 H   0  0  0  0  0  0
  -30.1558  -20.9648   17.7631 H   0  0  0  0  0  0
  -29.9742  -24.1876   19.5464 H   0  0  0  0  0  0
  -29.7398  -24.2072   21.2561 H   0  0  0  0  0  0
  -27.9217  -22.3214   19.7018 H   0  0  0  0  0  0
  -28.5033  -22.1688   21.3309 H   0  0  0  0  0  0
  -27.2739  -24.7957   20.8161 H   0  0  0  0  0  0
  -27.6696  -24.7999   19.1097 H   0  0  0  0  0  0
  -28.9735  -15.4006   21.2679 H   0  0  0  0  0  0
  1 25  1  0  0  0
  1 30  2  0  0  0
  1 81  1  0  0  0
  2  3  1  0  0  0
  2 25  1  0  0  0
  2 85  1  0  0  0
  2 86  1  0  0  0
  3  4  1  0  0  0
  3 87  1  0  0  0
  3 88  1  0  0  0
  4  5  1  0  0  0
  4 89  1  0  0  0
  4 90  1  0  0  0
  5  6  1  0  0  0
  5 26  1  0  0  0
  5 91  1  0  0  0
  6 25  1  0  0  0
  6 92  1  0  0  0
  6 93  1  0  0  0
  7  8  2  0  0  0
  7 26  1  0  0  0
  7 29  1  0  0  0
  8  9  1  0  0  0
  8 22  1  0  0  0
  9 10  1  0  0  0
  9 27  2  0  0  0
 10 11  2  0  0  0
 10 15  1  0  0  0
 11 12  1  0  0  0
 11 94  1  0  0  0
 12 13  2  0  0  0
 12 95  1  0  0  0
 13 14  1  0  0  0
 13 31  1  0  0  0
 14 15  2  0  0  0
 14 96  1  0  0  0
 15 97  1  0  0  0
 16 17  2  0  0  0
 16 21  1  0  0  0
 16 31  1  0  0  0
 17 18  1  0  0  0
 17 98  1  0  0  0
 18 19  2  0  0  0
 18 99  1  0  0  0
 19 20  1  0  0  0
 19 24  1  0  0  0
 20 21  2  0  0  0
 20100  1  0  0  0
 21 23  1  0  0  0
 22 28  1  0  0  0
 22 32  2  0  0  0
 26 27  1  0  0  0
 28101  1  0  0  0
 28102  1  0  0  0
 29103  1  0  0  0
 29104  1  0  0  0
 33 34  1  0  0  0
 33 66  1  0  0  0
 33 70  2  0  0  0
 34 36  1  0  0  0
 34 59  1  0  0  0
 34105  1  0  0  0
 35 44  2  0  0  0
 35 45  1  0  0  0
 35 68  1  0  0  0
 36 56  1  0  0  0
 36106  1  0  0  0
 37 39  1  0  0  0
 37 47  1  0  0  0
 37 66  1  0  0  0
 37107  1  0  0  0
 38 43  2  0  0  0
 38 46  1  0  0  0
 38 47  1  0  0  0
 39 64  1  0  0  0
 39 67  2  0  0  0
 40 52  1  0  0  0
 40 53  2  0  0  0
 40 58  1  0  0  0
 41108  1  0  0  0
 41109  1  0  0  0
 41110  1  0  0  0
 41 48  1  0  0  0
 42 43  1  0  0  0
 42 66  1  0  0  0
 42111  1  0  0  0
 42112  1  0  0  0
 43 44  1  0  0  0
 44113  1  0  0  0
 45 46  2  0  0  0
 45114  1  0  0  0
 46115  1  0  0  0
 47116  1  0  0  0
 47117  1  0  0  0
 48 56  1  0  0  0
 48 65  1  0  0  0
 48118  1  0  0  0
 49 50  1  0  0  0
 49 53  1  0  0  0
 49 64  1  0  0  0
 49119  1  0  0  0
 50 51  1  0  0  0
 50120  1  0  0  0
 50121  1  0  0  0
 51 52  1  0  0  0
 51122  1  0  0  0
 51123  1  0  0  0
 52124  1  0  0  0
 52125  1  0  0  0
 53 54  1  0  0  0
 54 55  2  0  0  0
 54126  1  0  0  0
 55 57  1  0  0  0
 55127  1  0  0  0
 56 69  2  0  0  0
 57 58  2  0  0  0
 57128  1  0  0  0
 58129  1  0  0  0
 59 60  1  0  0  0
 59 61  1  0  0  0
 59 62  1  0  0  0
 60130  1  0  0  0
 60131  1  0  0  0
 60132  1  0  0  0
 61133  1  0  0  0
 61134  1  0  0  0
 61135  1  0  0  0
 62136  1  0  0  0
 62137  1  0  0  0
 62138  1  0  0  0
 63 65  1  0  0  0
 63139  1  0  0  0
 63140  1  0  0  0
 63141  1  0  0  0
 64142  1  0  0  0
 65143  1  0  0  0
 68 80  1  0  0  0
 71 73  2  0  0  0
 71 75  1  0  0  0
 71144  1  0  0  0
 72 73  1  0  0  0
 72 76  2  0  0  0
 72145  1  0  0  0
 73 82  1  0  0  0
 74 75  2  0  0  0
 74 76  1  0  0  0
 74 81  1  0  0  0
 75 83  1  0  0  0
 76 84  1  0  0  0
 77 82  1  0  0  0
 77146  1  0  0  0
 77147  1  0  0  0
 77148  1  0  0  0
 78 79  1  0  0  0
 78 80  1  0  0  0
 78149  1  0  0  0
 78150  1  0  0  0
 79 82  1  0  0  0
 79151  1  0  0  0
 79152  1  0  0  0
 80153  1  0  0  0
 80154  1  0  0  0
 81155  1  0  0  0
M  ISO  4   1 100  68 101  80 101  81 100
M  END
> <chiral flag>
0

> <version>
0

> <s_m_source_file>
/data/baiqing/PycharmProjects/Reinvent-master-3.2/result/LINK_invent/BTK/process_docking_weight1_custom_sum_contain_oxygen_bond_distance_aromatic_linkinvent_7_9_3/rearranged_h_0013.sdf

> <i_m_source_file_index>
95

> <r_mmod_Potential_Energy-OPLS-2005>
1.79717826843262

> <r_mmod_Stretch_Energy-OPLS-2005>
78.4445648193359

> <r_mmod_Bend_Energy-OPLS-2005>
147.393188476562

> <r_mmod_Torsional_Energy-OPLS-2005>
213.207656860352

> <r_mmod_Improper_Torsional_Energy-OPLS-2005>
5.54278373718262

> <r_mmod_Van_der_Waal_Energy-OPLS-2005>
163.964416503906

> <r_mmod_Electrostatic_Energy-OPLS-2005>
-423.284545898438

> <r_mmod_Solvation_Energy-OPLS-2005>
-227.454345703125

> <b_mmod_Minimization_Converged-OPLS-2005>
0

> <r_mmod_RMS_Derivative-OPLS-2005>
2.37569785118103

$$$$
