0
                    3D
 Structure written by MMmdl.
165172  0  0  1  0            999 V2000
  -30.4991  -14.9599   20.4423 C   0  0  0  0  0  0
  -30.4528  -12.5939   19.5162 C   0  0  0  0  0  0
  -29.5389  -12.5609   18.2658 C   0  0  0  0  0  0
  -28.0662  -12.3497   18.6666 C   0  0  0  0  0  0
  -27.6427  -13.2497   19.8570 C   0  0  2  0  0  0
  -28.6801  -13.2361   21.0014 C   0  0  0  0  0  0
  -25.2507  -13.8217   20.5669 C   0  0  0  0  0  0
  -24.1811  -13.0456   20.9186 C   0  0  0  0  0  0
  -24.6417  -11.6932   20.8730 C   0  0  0  0  0  0
  -23.9097  -10.4314   21.0404 C   0  0  0  0  0  0
  -24.3655   -9.4240   21.9187 C   0  0  0  0  0  0
  -23.6313   -8.2278   22.0767 C   0  0  0  0  0  0
  -22.4292   -8.0308   21.3565 C   0  0  0  0  0  0
  -21.9934   -9.0281   20.4662 C   0  0  0  0  0  0
  -22.7268  -10.2155   20.3061 C   0  0  0  0  0  0
  -21.6862   -6.0732   22.5279 C   0  0  0  0  0  0
  -21.4013   -6.5627   23.8212 C   0  0  0  0  0  0
  -21.3670   -5.6787   24.9183 C   0  0  0  0  0  0
  -21.6052   -4.3050   24.7213 C   0  0  0  0  0  0
  -21.8824   -3.8137   23.4329 C   0  0  0  0  0  0
  -21.9199   -4.6963   22.3397 C   0  0  0  0  0  0
  -22.7830  -13.5244   21.1837 C   0  0  0  0  0  0
  -22.1670   -4.2148   21.0970 F   0  0  0  0  0  0
  -21.5652   -3.4530   25.7720 F   0  0  0  0  0  0
  -29.9670  -13.6676   20.4345 N   0  0  0  0  0  0
  -26.2950  -12.9446   20.3271 N   0  0  0  0  0  0
  -25.9355  -11.6576   20.5711 N   0  0  0  0  0  0
  -22.0479  -12.8249   22.0405 N   0  0  0  0  0  0
  -25.4142  -15.1944   20.4061 N   0  0  0  0  0  0
  -31.6420  -15.1022   19.9975 O   0  0  0  0  0  0
  -21.6665   -6.8891   21.4243 O   0  0  0  0  0  0
  -22.3511  -14.5535   20.6671 O   0  0  0  0  0  0
  -24.6418  -31.8425   23.1859 C   0  0  0  0  0  0
  -25.9200  -32.4673   23.8247 C   0  0  1  0  0  0
  -27.2306  -27.1453   20.1461 C   0  0  0  0  0  0
  -25.5952  -33.8479   24.2163 N   0  0  0  0  0  0
  -23.4448  -30.4580   21.5299 C   0  0  2  0  0  0
  -24.8953  -28.8794   20.1059 C   0  0  0  0  0  0
  -22.7550  -29.4539   22.4870 C   0  0  0  0  0  0
  -18.0296  -28.1394   22.8469 C   0  0  0  0  0  0
  -24.1487  -36.7250   23.2645 C   0  0  0  0  0  0
  -25.9971  -30.7168   21.3837 C   0  0  0  0  0  0
  -26.0675  -29.3288   20.7254 C   0  0  0  0  0  0
  -27.2289  -28.4744   20.7306 C   0  0  0  0  0  0
  -26.0339  -26.7890   19.4888 C   0  0  0  0  0  0
  -24.8910  -27.6238   19.4730 C   0  0  0  0  0  0
  -23.6697  -29.7786   20.1500 C   0  0  0  0  0  0
  -25.4125  -36.3016   24.0307 C   0  0  1  0  0  0
  -20.5903  -28.3724   23.1238 C   0  0  2  0  0  0
  -20.6781  -26.9428   22.5403 C   0  0  0  0  0  0
  -19.5765  -26.6380   21.5204 C   0  0  0  0  0  0
  -18.1942  -26.7931   22.1608 C   0  0  0  0  0  0
  -19.1545  -28.8875   23.2844 C   0  0  0  0  0  0
  -18.9471  -30.1475   23.8866 C   0  0  0  0  0  0
  -17.6467  -30.6593   24.0557 C   0  0  0  0  0  0
  -25.9080  -34.9397   23.5052 C   0  0  0  0  0  0
  -16.5361  -29.9090   23.6336 C   0  0  0  0  0  0
  -16.7278  -28.6506   23.0356 C   0  0  0  0  0  0
  -26.4526  -31.6556   25.0698 C   0  0  0  0  0  0
  -25.3716  -31.3755   26.1394 C   0  0  0  0  0  0
  -27.0407  -30.2949   24.6316 C   0  0  0  0  0  0
  -27.6042  -32.4338   25.7494 C   0  0  0  0  0  0
  -27.5576  -37.1778   24.8460 C   0  0  0  0  0  0
  -21.4236  -29.3050   22.3605 N   0  0  0  0  0  0
  -26.4285  -37.3737   23.9400 N   0  0  0  0  0  0
  -24.7138  -31.0285   22.0887 N   0  0  0  0  0  0
  -23.4187  -28.8114   23.3036 O   0  0  0  0  0  0
  -28.3149  -26.2048   20.2691 O   0  0  0  0  0  0
  -26.5674  -34.8898   22.4634 O   0  0  0  0  0  0
  -23.5546  -32.1300   23.7102 O   0  0  0  0  0  0
  -30.8389  -19.3175   21.6271 C   0  0  0  0  0  0
  -33.2598  -18.6015   23.6051 C   0  0  0  0  0  0
  -33.1483  -21.0242   22.8018 C   0  0  0  0  0  0
  -32.6909  -18.4746   20.2191 C   0  0  0  0  0  0
  -28.3584  -23.2477   20.4697 C   0  0  0  0  0  0
  -29.1969  -17.5323   20.4260 C   0  0  0  0  0  0
  -29.1825  -21.8378   19.9942 C   0  0  0  0  0  0
  -28.4368  -24.7576   19.7071 C   0  0  0  0  0  0
  -29.8336  -19.1122   20.4771 C   0  0  1  0  0  0
  -33.2267  -19.5390   22.3869 C   0  0  0  0  0  0
  -29.6835  -16.0559   20.8355 N   0  0  0  0  0  0
  -32.1730  -19.1323   21.4250 N   0  0  0  0  0  0
  -28.8541  -20.3695   20.5195 N   0  3  0  0  0  0
  -30.3755  -19.7168   22.6998 O   0  0  0  0  0  0
  -31.4872  -12.7651   19.2131 H   0  0  0  0  0  0
  -30.4475  -11.6254   20.0197 H   0  0  0  0  0  0
  -29.8601  -11.7788   17.5781 H   0  0  0  0  0  0
  -29.6336  -13.5028   17.7245 H   0  0  0  0  0  0
  -27.9475  -11.2996   18.9345 H   0  0  0  0  0  0
  -27.4157  -12.5301   17.8099 H   0  0  0  0  0  0
  -27.6164  -14.2654   19.4623 H   0  0  0  0  0  0
  -28.7665  -12.2389   21.4341 H   0  0  0  0  0  0
  -28.3665  -13.8923   21.8140 H   0  0  0  0  0  0
  -25.2817   -9.5715   22.4748 H   0  0  0  0  0  0
  -24.0034   -7.4672   22.7477 H   0  0  0  0  0  0
  -21.0871   -8.8804   19.8962 H   0  0  0  0  0  0
  -22.3741  -10.9695   19.6169 H   0  0  0  0  0  0
  -21.1989   -7.6136   23.9708 H   0  0  0  0  0  0
  -21.1500   -6.0517   25.9087 H   0  0  0  0  0  0
  -22.0584   -2.7587   23.2830 H   0  0  0  0  0  0
  -22.4071  -11.9919   22.4840 H   0  0  0  0  0  0
  -21.1100  -13.1291   22.2577 H   0  0  0  0  0  0
  -24.6351  -15.8362   20.5003 H   0  0  0  0  0  0
  -26.2456  -15.6329   20.0317 H   0  0  0  0  0  0
  -26.7268  -32.5260   23.0979 H   0  0  0  0  0  0
  -25.0045  -33.9579   25.0272 H   0  0  0  0  0  0
  -22.7495  -31.2847   21.3714 H   0  0  0  0  0  0
  -23.3754  -35.9576   23.3286 H   0  0  0  0  0  0
  -24.3574  -36.8912   22.2065 H   0  0  0  0  0  0
  -23.7236  -37.6435   23.6708 H   0  0  0  0  0  0
  -26.1569  -31.4735   20.6149 H   0  0  0  0  0  0
  -26.8667  -30.7615   22.0283 H   0  0  0  0  0  0
  -28.1218  -28.8114   21.2387 H   0  0  0  0  0  0
  -25.9477  -25.8227   19.0154 H   0  0  0  0  0  0
  -23.9946  -27.2762   18.9784 H   0  0  0  0  0  0
  -23.7984  -30.5483   19.3878 H   0  0  0  0  0  0
  -22.7858  -29.2142   19.8458 H   0  0  0  0  0  0
  -25.1321  -36.1835   25.0801 H   0  0  0  0  0  0
  -20.9988  -28.3309   24.1363 H   0  0  0  0  0  0
  -20.5653  -26.2343   23.3623 H   0  0  0  0  0  0
  -21.6656  -26.7420   22.1221 H   0  0  0  0  0  0
  -19.6934  -25.6280   21.1269 H   0  0  0  0  0  0
  -19.6715  -27.3156   20.6710 H   0  0  0  0  0  0
  -17.4218  -26.6664   21.4015 H   0  0  0  0  0  0
  -18.0349  -26.0069   22.9000 H   0  0  0  0  0  0
  -19.7950  -30.7294   24.2220 H   0  0  0  0  0  0
  -17.5028  -31.6267   24.5170 H   0  0  0  0  0  0
  -15.5364  -30.2990   23.7678 H   0  0  0  0  0  0
  -15.8676  -28.0820   22.7102 H   0  0  0  0  0  0
  -24.5863  -30.7151   25.7702 H   0  0  0  0  0  0
  -24.8947  -32.2946   26.4809 H   0  0  0  0  0  0
  -25.7982  -30.8907   27.0184 H   0  0  0  0  0  0
  -26.3037  -29.6647   24.1324 H   0  0  0  0  0  0
  -27.4005  -29.7274   25.4912 H   0  0  0  0  0  0
  -27.8948  -30.4170   23.9650 H   0  0  0  0  0  0
  -27.2611  -33.3640   26.2040 H   0  0  0  0  0  0
  -28.3875  -32.6907   25.0350 H   0  0  0  0  0  0
  -28.0697  -31.8497   26.5444 H   0  0  0  0  0  0
  -28.2579  -38.0089   24.7519 H   0  0  0  0  0  0
  -28.1085  -36.2619   24.6273 H   0  0  0  0  0  0
  -27.2296  -37.1414   25.8863 H   0  0  0  0  0  0
  -20.9461  -29.8727   21.6746 H   0  0  0  0  0  0
  -26.0145  -38.2800   24.1410 H   0  0  0  0  0  0
  -34.0733  -18.8698   24.2792 H   0  0  0  0  0  0
  -33.4083  -17.5639   23.3032 H   0  0  0  0  0  0
  -32.3341  -18.6538   24.1785 H   0  0  0  0  0  0
  -34.0151  -21.3040   23.4021 H   0  0  0  0  0  0
  -32.2684  -21.2398   23.4061 H   0  0  0  0  0  0
  -33.1279  -21.6859   21.9334 H   0  0  0  0  0  0
  -32.0623  -17.6332   19.9246 H   0  0  0  0  0  0
  -33.6888  -18.0596   20.3610 H   0  0  0  0  0  0
  -32.7405  -19.1768   19.3865 H   0  0  0  0  0  0
  -28.6171  -23.4175   21.5149 H   0  0  0  0  0  0
  -27.2969  -22.9956   20.4886 H   0  0  0  0  0  0
  -28.8018  -17.4185   19.4166 H   0  0  0  0  0  0
  -28.2964  -17.6200   21.0353 H   0  0  0  0  0  0
  -30.2417  -22.0098   20.1944 H   0  0  0  0  0  0
  -29.1080  -21.7733   18.9075 H   0  0  0  0  0  0
  -27.8338  -24.7049   18.8010 H   0  0  0  0  0  0
  -29.4553  -24.7786   19.3177 H   0  0  0  0  0  0
  -30.3586  -19.2475   19.5317 H   0  0  0  0  0  0
  -34.2009  -19.4520   21.9007 H   0  0  0  0  0  0
  -28.9395  -15.6471   21.3847 H   0  0  0  0  0  0
  -27.9857  -20.0971   20.0926 H   0  0  0  0  0  0
  -28.6828  -20.4628   21.5099 H   0  0  0  0  0  0
  1 25  1  0  0  0
  1 30  2  0  0  0
  1 81  1  0  0  0
  2  3  1  0  0  0
  2 25  1  0  0  0
  2 85  1  0  0  0
  2 86  1  0  0  0
  3  4  1  0  0  0
  3 87  1  0  0  0
  3 88  1  0  0  0
  4  5  1  0  0  0
  4 89  1  0  0  0
  4 90  1  0  0  0
  5  6  1  0  0  0
  5 26  1  0  0  0
  5 91  1  0  0  0
  6 25  1  0  0  0
  6 92  1  0  0  0
  6 93  1  0  0  0
  7  8  2  0  0  0
  7 26  1  0  0  0
  7 29  1  0  0  0
  8  9  1  0  0  0
  8 22  1  0  0  0
  9 10  1  0  0  0
  9 27  2  0  0  0
 10 11  2  0  0  0
 10 15  1  0  0  0
 11 12  1  0  0  0
 11 94  1  0  0  0
 12 13  2  0  0  0
 12 95  1  0  0  0
 13 14  1  0  0  0
 13 31  1  0  0  0
 14 15  2  0  0  0
 14 96  1  0  0  0
 15 97  1  0  0  0
 16 17  2  0  0  0
 16 21  1  0  0  0
 16 31  1  0  0  0
 17 18  1  0  0  0
 17 98  1  0  0  0
 18 19  2  0  0  0
 18 99  1  0  0  0
 19 20  1  0  0  0
 19 24  1  0  0  0
 20 21  2  0  0  0
 20100  1  0  0  0
 21 23  1  0  0  0
 22 28  1  0  0  0
 22 32  2  0  0  0
 26 27  1  0  0  0
 28101  1  0  0  0
 28102  1  0  0  0
 29103  1  0  0  0
 29104  1  0  0  0
 33 34  1  0  0  0
 33 66  1  0  0  0
 33 70  2  0  0  0
 34 36  1  0  0  0
 34 59  1  0  0  0
 34105  1  0  0  0
 35 44  2  0  0  0
 35 45  1  0  0  0
 35 68  1  0  0  0
 36 56  1  0  0  0
 36106  1  0  0  0
 37 39  1  0  0  0
 37 47  1  0  0  0
 37 66  1  0  0  0
 37107  1  0  0  0
 38 43  2  0  0  0
 38 46  1  0  0  0
 38 47  1  0  0  0
 39 64  1  0  0  0
 39 67  2  0  0  0
 40 52  1  0  0  0
 40 53  2  0  0  0
 40 58  1  0  0  0
 41108  1  0  0  0
 41109  1  0  0  0
 41110  1  0  0  0
 41 48  1  0  0  0
 42 43  1  0  0  0
 42 66  1  0  0  0
 42111  1  0  0  0
 42112  1  0  0  0
 43 44  1  0  0  0
 44113  1  0  0  0
 45 46  2  0  0  0
 45114  1  0  0  0
 46115  1  0  0  0
 47116  1  0  0  0
 47117  1  0  0  0
 48 56  1  0  0  0
 48 65  1  0  0  0
 48118  1  0  0  0
 49 50  1  0  0  0
 49 53  1  0  0  0
 49 64  1  0  0  0
 49119  1  0  0  0
 50 51  1  0  0  0
 50120  1  0  0  0
 50121  1  0  0  0
 51 52  1  0  0  0
 51122  1  0  0  0
 51123  1  0  0  0
 52124  1  0  0  0
 52125  1  0  0  0
 53 54  1  0  0  0
 54 55  2  0  0  0
 54126  1  0  0  0
 55 57  1  0  0  0
 55127  1  0  0  0
 56 69  2  0  0  0
 57 58  2  0  0  0
 57128  1  0  0  0
 58129  1  0  0  0
 59 60  1  0  0  0
 59 61  1  0  0  0
 59 62  1  0  0  0
 60130  1  0  0  0
 60131  1  0  0  0
 60132  1  0  0  0
 61133  1  0  0  0
 61134  1  0  0  0
 61135  1  0  0  0
 62136  1  0  0  0
 62137  1  0  0  0
 62138  1  0  0  0
 63 65  1  0  0  0
 63139  1  0  0  0
 63140  1  0  0  0
 63141  1  0  0  0
 64142  1  0  0  0
 65143  1  0  0  0
 68 78  1  0  0  0
 71 79  1  0  0  0
 71 82  1  0  0  0
 71 84  2  0  0  0
 72144  1  0  0  0
 72145  1  0  0  0
 72146  1  0  0  0
 72 80  1  0  0  0
 73 80  1  0  0  0
 73147  1  0  0  0
 73148  1  0  0  0
 73149  1  0  0  0
 74 82  1  0  0  0
 74150  1  0  0  0
 74151  1  0  0  0
 74152  1  0  0  0
 75 77  1  0  0  0
 75 78  1  0  0  0
 75153  1  0  0  0
 75154  1  0  0  0
 76 81  1  0  0  0
 76155  1  0  0  0
 76156  1  0  0  0
 76 79  1  0  0  0
 77 83  1  0  0  0
 77157  1  0  0  0
 77158  1  0  0  0
 78159  1  0  0  0
 78160  1  0  0  0
 79 83  1  0  0  0
 79161  1  0  0  0
 80 82  1  0  0  0
 80162  1  0  0  0
 81163  1  0  0  0
 83164  1  0  0  0
 83165  1  0  0  0
M  CHG  1  83   1
M  ISO  4   1 100  68 101  78 101  81 100
M  END
> <chiral flag>
0

> <version>
0

> <s_m_source_file>
/data/baiqing/PycharmProjects/Reinvent-master-3.2/result/LINK_invent/BTK/process_docking_weight1_custom_sum_contain_oxygen_bond_distance_aromatic_linkinvent_7_9_3/rearranged_h_0108.sdf

> <i_m_source_file_index>
1

> <r_mmod_Potential_Energy-OPLS-2005>
407.144805908203

> <r_mmod_Stretch_Energy-OPLS-2005>
290.537872314453

> <r_mmod_Bend_Energy-OPLS-2005>
372.381500244141

> <r_mmod_Torsional_Energy-OPLS-2005>
247.794982910156

> <r_mmod_Improper_Torsional_Energy-OPLS-2005>
5.56616163253784

> <r_mmod_Van_der_Waal_Energy-OPLS-2005>
117.864212036133

> <r_mmod_Electrostatic_Energy-OPLS-2005>
-333.436614990234

> <r_mmod_Solvation_Energy-OPLS-2005>
-486.556213378906

> <b_mmod_Minimization_Converged-OPLS-2005>
0

> <r_mmod_RMS_Derivative-OPLS-2005>
3.56300854682922

$$$$
1
                    3D
 Structure written by MMmdl.
142149  0  0  1  0            999 V2000
  -30.3176  -15.6033   20.3321 C   0  0  0  0  0  0
  -30.4250  -13.0580   19.5365 C   0  0  0  0  0  0
  -29.5482  -12.6472   18.3198 C   0  0  0  0  0  0
  -28.1196  -12.2976   18.7632 C   0  0  0  0  0  0
  -27.5962  -13.3047   19.8124 C   0  0  2  0  0  0
  -28.6143  -13.6279   20.9311 C   0  0  0  0  0  0
  -25.2326  -13.8281   20.5792 C   0  0  0  0  0  0
  -24.1713  -13.0433   20.9287 C   0  0  0  0  0  0
  -24.6411  -11.6943   20.8766 C   0  0  0  0  0  0
  -23.9114  -10.4291   21.0399 C   0  0  0  0  0  0
  -24.3651   -9.4204   21.9181 C   0  0  0  0  0  0
  -23.6312   -8.2245   22.0754 C   0  0  0  0  0  0
  -22.4293   -8.0286   21.3544 C   0  0  0  0  0  0
  -21.9939   -9.0261   20.4644 C   0  0  0  0  0  0
  -22.7281  -10.2133   20.3050 C   0  0  0  0  0  0
  -21.6858   -6.0741   22.5279 C   0  0  0  0  0  0
  -21.4018   -6.5643   23.8213 C   0  0  0  0  0  0
  -21.3660   -5.6794   24.9174 C   0  0  0  0  0  0
  -21.6044   -4.3057   24.7224 C   0  0  0  0  0  0
  -21.8818   -3.8150   23.4345 C   0  0  0  0  0  0
  -21.9194   -4.6967   22.3401 C   0  0  0  0  0  0
  -22.7725  -13.5164   21.1922 C   0  0  0  0  0  0
  -22.1662   -4.2153   21.0979 F   0  0  0  0  0  0
  -21.5628   -3.4540   25.7736 F   0  0  0  0  0  0
  -29.7920  -14.2412   20.2753 N   0  0  0  0  0  0
  -26.2771  -12.9606   20.3231 N   0  0  0  0  0  0
  -25.9356  -11.6681   20.5703 N   0  0  0  0  0  0
  -22.0391  -12.8140   22.0474 N   0  0  0  0  0  0
  -25.3920  -15.2022   20.4233 N   0  0  0  0  0  0
  -31.5521  -15.5434   20.1779 O   0  0  0  0  0  0
  -21.6648   -6.8888   21.4243 O   0  0  0  0  0  0
  -22.3399  -14.5463   20.6758 O   0  0  0  0  0  0
  -24.6835  -31.8002   23.1518 C   0  0  0  0  0  0
  -25.9417  -32.4469   23.8064 C   0  0  1  0  0  0
  -27.2261  -26.7084   20.2140 C   0  0  0  0  0  0
  -25.5996  -33.8294   24.1950 N   0  0  0  0  0  0
  -23.5093  -30.4023   21.5057 C   0  0  2  0  0  0
  -24.9667  -28.7440   20.1185 C   0  0  0  0  0  0
  -22.7765  -29.4317   22.4713 C   0  0  0  0  0  0
  -18.0338  -28.1421   22.8455 C   0  0  0  0  0  0
  -24.1495  -36.7154   23.2652 C   0  0  0  0  0  0
  -26.0898  -30.5353   21.4153 C   0  0  0  0  0  0
  -26.1560  -29.1007   20.7652 C   0  0  0  0  0  0
  -27.2717  -28.1110   20.7794 C   0  0  0  0  0  0
  -26.0036  -26.5594   19.5112 C   0  0  0  0  0  0
  -24.9291  -27.4988   19.4677 C   0  0  0  0  0  0
  -23.7630  -29.6991   20.1412 C   0  0  0  0  0  0
  -25.4145  -36.2896   24.0282 C   0  0  1  0  0  0
  -20.5974  -28.3780   23.1142 C   0  0  2  0  0  0
  -20.6804  -26.9439   22.5403 C   0  0  0  0  0  0
  -19.5780  -26.6371   21.5216 C   0  0  0  0  0  0
  -18.1963  -26.7949   22.1619 C   0  0  0  0  0  0
  -19.1605  -28.8925   23.2780 C   0  0  0  0  0  0
  -18.9510  -30.1509   23.8825 C   0  0  0  0  0  0
  -17.6500  -30.6604   24.0550 C   0  0  0  0  0  0
  -25.9125  -34.9286   23.4953 C   0  0  0  0  0  0
  -16.5390  -29.9085   23.6351 C   0  0  0  0  0  0
  -16.7318  -28.6508   23.0367 C   0  0  0  0  0  0
  -26.4596  -31.6503   25.0685 C   0  0  0  0  0  0
  -25.3662  -31.3819   26.1300 C   0  0  0  0  0  0
  -27.0529  -30.2842   24.6583 C   0  0  0  0  0  0
  -27.6043  -32.4365   25.7505 C   0  0  0  0  0  0
  -27.5565  -37.1732   24.8465 C   0  0  0  0  0  0
  -21.4412  -29.3028   22.3462 N   0  0  0  0  0  0
  -26.4270  -37.3658   23.9410 N   0  0  0  0  0  0
  -24.7843  -30.9453   22.0769 N   0  0  0  0  0  0
  -23.4210  -28.7918   23.3056 O   0  0  0  0  0  0
  -28.1885  -25.4917   20.2838 O   0  0  0  0  0  0
  -26.5766  -34.8864   22.4570 O   0  0  0  0  0  0
  -23.5855  -32.1073   23.6475 O   0  0  0  0  0  0
  -28.9842  -22.2278   20.3186 C   0  0  0  0  0  0
  -28.7312  -20.3749   20.2744 C   0  0  0  0  0  0
  -27.9248  -23.7567   20.1724 C   0  0  0  0  0  0
  -29.7730  -18.7359   20.3370 C   0  0  0  0  0  0
  -29.5618  -16.9662   20.3732 N   0  0  0  0  0  0
  -30.1737  -22.5103   20.4911 O   0  0  0  0  0  0
  -31.4202  -13.3156   19.1725 H   0  0  0  0  0  0
  -30.5791  -12.2110   20.2073 H   0  0  0  0  0  0
  -29.9964  -11.8051   17.7908 H   0  0  0  0  0  0
  -29.5141  -13.4740   17.6088 H   0  0  0  0  0  0
  -28.1414  -11.2979   19.1989 H   0  0  0  0  0  0
  -27.4496  -12.2458   17.9041 H   0  0  0  0  0  0
  -27.4619  -14.2287   19.2481 H   0  0  0  0  0  0
  -28.8680  -12.7435   21.5176 H   0  0  0  0  0  0
  -28.1869  -14.3486   21.6300 H   0  0  0  0  0  0
  -25.2790   -9.5679   22.4766 H   0  0  0  0  0  0
  -24.0013   -7.4638   22.7479 H   0  0  0  0  0  0
  -21.0868   -8.8789   19.8950 H   0  0  0  0  0  0
  -22.3739  -10.9675   19.6163 H   0  0  0  0  0  0
  -21.2012   -7.6151   23.9717 H   0  0  0  0  0  0
  -21.1483   -6.0524   25.9077 H   0  0  0  0  0  0
  -22.0596   -2.7612   23.2844 H   0  0  0  0  0  0
  -22.4034  -11.9816   22.4868 H   0  0  0  0  0  0
  -21.0997  -13.1133   22.2673 H   0  0  0  0  0  0
  -24.6193  -15.8497   20.5363 H   0  0  0  0  0  0
  -26.2309  -15.6450   20.0728 H   0  0  0  0  0  0
  -26.7499  -32.4943   23.0777 H   0  0  0  0  0  0
  -25.0054  -33.9333   25.0043 H   0  0  0  0  0  0
  -22.8345  -31.2396   21.3159 H   0  0  0  0  0  0
  -23.3778  -35.9461   23.3256 H   0  0  0  0  0  0
  -24.3565  -36.8875   22.2079 H   0  0  0  0  0  0
  -23.7232  -37.6307   23.6767 H   0  0  0  0  0  0
  -26.2926  -31.2609   20.6264 H   0  0  0  0  0  0
  -26.9408  -30.6026   22.0807 H   0  0  0  0  0  0
  -28.1672  -28.3904   21.3163 H   0  0  0  0  0  0
  -25.8377  -25.6166   19.0097 H   0  0  0  0  0  0
  -24.0314  -27.2170   18.9346 H   0  0  0  0  0  0
  -23.9380  -30.4589   19.3787 H   0  0  0  0  0  0
  -22.8679  -29.1653   19.8172 H   0  0  0  0  0  0
  -25.1354  -36.1657   25.0771 H   0  0  0  0  0  0
  -21.0056  -28.3405   24.1268 H   0  0  0  0  0  0
  -20.5667  -26.2404   23.3665 H   0  0  0  0  0  0
  -21.6666  -26.7381   22.1222 H   0  0  0  0  0  0
  -19.6935  -25.6263   21.1292 H   0  0  0  0  0  0
  -19.6724  -27.3141   20.6714 H   0  0  0  0  0  0
  -17.4232  -26.6692   21.4023 H   0  0  0  0  0  0
  -18.0351  -26.0109   22.9032 H   0  0  0  0  0  0
  -19.7986  -30.7344   24.2163 H   0  0  0  0  0  0
  -17.5050  -31.6276   24.5166 H   0  0  0  0  0  0
  -15.5387  -30.2964   23.7716 H   0  0  0  0  0  0
  -15.8719  -28.0802   22.7124 H   0  0  0  0  0  0
  -24.5872  -30.7143   25.7600 H   0  0  0  0  0  0
  -24.8824  -32.3041   26.4528 H   0  0  0  0  0  0
  -25.7840  -30.9112   27.0208 H   0  0  0  0  0  0
  -26.3245  -29.6454   24.1577 H   0  0  0  0  0  0
  -27.3958  -29.7290   25.5324 H   0  0  0  0  0  0
  -27.9225  -30.3968   24.0107 H   0  0  0  0  0  0
  -27.2582  -33.3737   26.1876 H   0  0  0  0  0  0
  -28.3960  -32.6813   25.0411 H   0  0  0  0  0  0
  -28.0594  -31.8633   26.5592 H   0  0  0  0  0  0
  -28.2542  -38.0064   24.7524 H   0  0  0  0  0  0
  -28.1100  -36.2587   24.6277 H   0  0  0  0  0  0
  -27.2282  -37.1348   25.8866 H   0  0  0  0  0  0
  -20.9717  -29.8684   21.6528 H   0  0  0  0  0  0
  -26.0096  -38.2703   24.1432 H   0  0  0  0  0  0
  -28.1265  -20.2615   19.3749 H   0  0  0  0  0  0
  -28.0102  -20.2454   21.0812 H   0  0  0  0  0  0
  -27.1239  -23.5742   20.8887 H   0  0  0  0  0  0
  -27.4416  -23.6326   19.2036 H   0  0  0  0  0  0
  -30.4148  -18.8925   21.2044 H   0  0  0  0  0  0
  -30.4615  -18.8543   19.4998 H   0  0  0  0  0  0
  -28.5764  -16.7543   20.4457 H   0  0  0  0  0  0
  1 25  1  0  0  0
  1 30  2  0  0  0
  1 75  1  0  0  0
  2  3  1  0  0  0
  2 25  1  0  0  0
  2 77  1  0  0  0
  2 78  1  0  0  0
  3  4  1  0  0  0
  3 79  1  0  0  0
  3 80  1  0  0  0
  4  5  1  0  0  0
  4 81  1  0  0  0
  4 82  1  0  0  0
  5  6  1  0  0  0
  5 26  1  0  0  0
  5 83  1  0  0  0
  6 25  1  0  0  0
  6 84  1  0  0  0
  6 85  1  0  0  0
  7  8  2  0  0  0
  7 26  1  0  0  0
  7 29  1  0  0  0
  8  9  1  0  0  0
  8 22  1  0  0  0
  9 10  1  0  0  0
  9 27  2  0  0  0
 10 11  2  0  0  0
 10 15  1  0  0  0
 11 12  1  0  0  0
 11 86  1  0  0  0
 12 13  2  0  0  0
 12 87  1  0  0  0
 13 14  1  0  0  0
 13 31  1  0  0  0
 14 15  2  0  0  0
 14 88  1  0  0  0
 15 89  1  0  0  0
 16 17  2  0  0  0
 16 21  1  0  0  0
 16 31  1  0  0  0
 17 18  1  0  0  0
 17 90  1  0  0  0
 18 19  2  0  0  0
 18 91  1  0  0  0
 19 20  1  0  0  0
 19 24  1  0  0  0
 20 21  2  0  0  0
 20 92  1  0  0  0
 21 23  1  0  0  0
 22 28  1  0  0  0
 22 32  2  0  0  0
 26 27  1  0  0  0
 28 93  1  0  0  0
 28 94  1  0  0  0
 29 95  1  0  0  0
 29 96  1  0  0  0
 33 34  1  0  0  0
 33 66  1  0  0  0
 33 70  2  0  0  0
 34 36  1  0  0  0
 34 59  1  0  0  0
 34 97  1  0  0  0
 35 44  2  0  0  0
 35 45  1  0  0  0
 35 68  1  0  0  0
 36 56  1  0  0  0
 36 98  1  0  0  0
 37 39  1  0  0  0
 37 47  1  0  0  0
 37 66  1  0  0  0
 37 99  1  0  0  0
 38 43  2  0  0  0
 38 46  1  0  0  0
 38 47  1  0  0  0
 39 64  1  0  0  0
 39 67  2  0  0  0
 40 52  1  0  0  0
 40 53  2  0  0  0
 40 58  1  0  0  0
 41100  1  0  0  0
 41101  1  0  0  0
 41102  1  0  0  0
 41 48  1  0  0  0
 42 43  1  0  0  0
 42 66  1  0  0  0
 42103  1  0  0  0
 42104  1  0  0  0
 43 44  1  0  0  0
 44105  1  0  0  0
 45 46  2  0  0  0
 45106  1  0  0  0
 46107  1  0  0  0
 47108  1  0  0  0
 47109  1  0  0  0
 48 56  1  0  0  0
 48 65  1  0  0  0
 48110  1  0  0  0
 49 50  1  0  0  0
 49 53  1  0  0  0
 49 64  1  0  0  0
 49111  1  0  0  0
 50 51  1  0  0  0
 50112  1  0  0  0
 50113  1  0  0  0
 51 52  1  0  0  0
 51114  1  0  0  0
 51115  1  0  0  0
 52116  1  0  0  0
 52117  1  0  0  0
 53 54  1  0  0  0
 54 55  2  0  0  0
 54118  1  0  0  0
 55 57  1  0  0  0
 55119  1  0  0  0
 56 69  2  0  0  0
 57 58  2  0  0  0
 57120  1  0  0  0
 58121  1  0  0  0
 59 60  1  0  0  0
 59 61  1  0  0  0
 59 62  1  0  0  0
 60122  1  0  0  0
 60123  1  0  0  0
 60124  1  0  0  0
 61125  1  0  0  0
 61126  1  0  0  0
 61127  1  0  0  0
 62128  1  0  0  0
 62129  1  0  0  0
 62130  1  0  0  0
 63 65  1  0  0  0
 63131  1  0  0  0
 63132  1  0  0  0
 63133  1  0  0  0
 64134  1  0  0  0
 65135  1  0  0  0
 68 73  1  0  0  0
 71 72  1  0  0  0
 71 73  1  0  0  0
 71 76  2  0  0  0
 72 74  1  0  0  0
 72136  1  0  0  0
 72137  1  0  0  0
 73138  1  0  0  0
 73139  1  0  0  0
 74 75  1  0  0  0
 74140  1  0  0  0
 74141  1  0  0  0
 75142  1  0  0  0
M  ISO  4   1 100  68 101  73 101  75 100
M  END
> <chiral flag>
0

> <version>
0

> <s_m_source_file>
/data/baiqing/PycharmProjects/Reinvent-master-3.2/result/LINK_invent/BTK/process_docking_weight1_custom_sum_contain_oxygen_bond_distance_aromatic_linkinvent_7_9_3/rearranged_h_0108.sdf

> <i_m_source_file_index>
2

> <r_mmod_Potential_Energy-OPLS-2005>
2359.8515625

> <r_mmod_Stretch_Energy-OPLS-2005>
1129.57983398438

> <r_mmod_Bend_Energy-OPLS-2005>
613.434265136719

> <r_mmod_Torsional_Energy-OPLS-2005>
205.437042236328

> <r_mmod_Improper_Torsional_Energy-OPLS-2005>
3.68513989448547

> <r_mmod_Van_der_Waal_Energy-OPLS-2005>
109.999710083008

> <r_mmod_Electrostatic_Energy-OPLS-2005>
-324.647094726562

> <r_mmod_Solvation_Energy-OPLS-2005>
-247.018859863281

> <b_mmod_Minimization_Converged-OPLS-2005>
1

> <r_mmod_RMS_Derivative-OPLS-2005>
0.0498567596077919

$$$$
2
                    3D
 Structure written by MMmdl.
162171  0  0  1  0            999 V2000
  -30.3318  -15.6021   20.3369 C   0  0  0  0  0  0
  -30.4299  -13.0581   19.5471 C   0  0  0  0  0  0
  -29.5511  -12.6452   18.3321 C   0  0  0  0  0  0
  -28.1326  -12.2819   18.7867 C   0  0  0  0  0  0
  -27.6008  -13.2990   19.8192 C   0  0  2  0  0  0
  -28.6175  -13.6293   20.9415 C   0  0  0  0  0  0
  -25.2372  -13.8275   20.5790 C   0  0  0  0  0  0
  -24.1750  -13.0428   20.9268 C   0  0  0  0  0  0
  -24.6421  -11.6937   20.8754 C   0  0  0  0  0  0
  -23.9113  -10.4293   21.0403 C   0  0  0  0  0  0
  -24.3660   -9.4210   21.9192 C   0  0  0  0  0  0
  -23.6308   -8.2251   22.0757 C   0  0  0  0  0  0
  -22.4289   -8.0308   21.3550 C   0  0  0  0  0  0
  -21.9925   -9.0285   20.4664 C   0  0  0  0  0  0
  -22.7269  -10.2147   20.3072 C   0  0  0  0  0  0
  -21.6856   -6.0756   22.5290 C   0  0  0  0  0  0
  -21.4025   -6.5663   23.8223 C   0  0  0  0  0  0
  -21.3649   -5.6818   24.9183 C   0  0  0  0  0  0
  -21.6028   -4.3078   24.7233 C   0  0  0  0  0  0
  -21.8823   -3.8162   23.4354 C   0  0  0  0  0  0
  -21.9195   -4.6983   22.3411 C   0  0  0  0  0  0
  -22.7766  -13.5171   21.1900 C   0  0  0  0  0  0
  -22.1669   -4.2163   21.0986 F   0  0  0  0  0  0
  -21.5599   -3.4564   25.7743 F   0  0  0  0  0  0
  -29.8032  -14.2401   20.2952 N   0  0  0  0  0  0
  -26.2799  -12.9577   20.3256 N   0  0  0  0  0  0
  -25.9373  -11.6657   20.5713 N   0  0  0  0  0  0
  -22.0436  -12.8154   22.0458 N   0  0  0  0  0  0
  -25.3994  -15.2033   20.4256 N   0  0  0  0  0  0
  -31.5594  -15.5414   20.1320 O   0  0  0  0  0  0
  -21.6641   -6.8904   21.4257 O   0  0  0  0  0  0
  -22.3433  -14.5468   20.6736 O   0  0  0  0  0  0
  -24.6822  -31.8014   23.1512 C   0  0  0  0  0  0
  -25.9407  -32.4472   23.8060 C   0  0  1  0  0  0
  -27.2279  -26.7225   20.2085 C   0  0  0  0  0  0
  -25.5992  -33.8302   24.1956 N   0  0  0  0  0  0
  -23.5072  -30.4038   21.5056 C   0  0  2  0  0  0
  -24.9630  -28.7484   20.1210 C   0  0  0  0  0  0
  -22.7759  -29.4316   22.4706 C   0  0  0  0  0  0
  -18.0340  -28.1417   22.8439 C   0  0  0  0  0  0
  -24.1509  -36.7174   23.2644 C   0  0  0  0  0  0
  -26.0868  -30.5449   21.4089 C   0  0  0  0  0  0
  -26.1551  -29.1084   20.7617 C   0  0  0  0  0  0
  -27.2733  -28.1254   20.7659 C   0  0  0  0  0  0
  -25.9991  -26.5613   19.5214 C   0  0  0  0  0  0
  -24.9232  -27.4981   19.4765 C   0  0  0  0  0  0
  -23.7614  -29.7029   20.1407 C   0  0  0  0  0  0
  -25.4162  -36.2906   24.0272 C   0  0  1  0  0  0
  -20.5964  -28.3782   23.1141 C   0  0  2  0  0  0
  -20.6796  -26.9436   22.5406 C   0  0  0  0  0  0
  -19.5786  -26.6364   21.5205 C   0  0  0  0  0  0
  -18.1970  -26.7941   22.1620 C   0  0  0  0  0  0
  -19.1603  -28.8925   23.2769 C   0  0  0  0  0  0
  -18.9511  -30.1495   23.8829 C   0  0  0  0  0  0
  -17.6498  -30.6585   24.0560 C   0  0  0  0  0  0
  -25.9119  -34.9292   23.4953 C   0  0  0  0  0  0
  -16.5392  -29.9080   23.6323 C   0  0  0  0  0  0
  -16.7323  -28.6505   23.0337 C   0  0  0  0  0  0
  -26.4611  -31.6473   25.0652 C   0  0  0  0  0  0
  -25.3692  -31.3825   26.1287 C   0  0  0  0  0  0
  -27.0470  -30.2784   24.6494 C   0  0  0  0  0  0
  -27.6101  -32.4276   25.7452 C   0  0  0  0  0  0
  -27.5558  -37.1783   24.8478 C   0  0  0  0  0  0
  -21.4401  -29.3045   22.3473 N   0  0  0  0  0  0
  -26.4310  -37.3632   23.9341 N   0  0  0  0  0  0
  -24.7820  -30.9482   22.0750 N   0  0  0  0  0  0
  -23.4222  -28.7908   23.3029 O   0  0  0  0  0  0
  -28.2199  -25.5323   20.2377 O   0  0  0  0  0  0
  -26.5769  -34.8869   22.4570 O   0  0  0  0  0  0
  -23.5839  -32.1064   23.6489 O   0  0  0  0  0  0
  -31.0271  -22.3329   21.7650 C   0  0  0  0  0  0
  -31.1759  -23.4389   19.6333 C   0  0  0  0  0  0
  -32.2850  -22.8873   22.0696 C   0  0  0  0  0  0
  -30.4407  -22.6099   20.5130 C   0  0  0  0  0  0
  -32.4369  -23.9251   20.0128 C   0  0  0  0  0  0
  -30.0442  -20.5313   18.2444 C   0  0  0  0  0  0
  -29.7637  -19.0325   18.6556 C   0  0  0  0  0  0
  -29.0086  -21.6651   18.6430 C   0  0  0  0  0  0
  -28.8728  -20.3190   20.6925 C   0  0  0  0  0  0
  -29.7459  -18.7262   20.1815 C   0  0  1  0  0  0
  -29.0304  -22.1261   20.1410 C   0  0  1  0  0  0
  -33.2479  -24.7868   19.0647 C   0  0  0  0  0  0
  -28.0494  -23.7866   20.3445 C   0  0  0  0  0  0
  -32.9861  -23.6634   21.2148 N   0  0  0  0  0  0
  -29.5873  -16.9663   20.4209 N   0  0  0  0  0  0
  -31.4189  -13.3164   19.1664 H   0  0  0  0  0  0
  -30.5962  -12.2120   20.2182 H   0  0  0  0  0  0
  -29.9989  -11.8067   17.7986 H   0  0  0  0  0  0
  -29.5063  -13.4713   17.6198 H   0  0  0  0  0  0
  -28.1776  -11.2917   19.2424 H   0  0  0  0  0  0
  -27.4607  -12.2026   17.9327 H   0  0  0  0  0  0
  -27.4661  -14.2154   19.2472 H   0  0  0  0  0  0
  -28.8693  -12.7480   21.5341 H   0  0  0  0  0  0
  -28.1821  -14.3533   21.6316 H   0  0  0  0  0  0
  -25.2816   -9.5659   22.4739 H   0  0  0  0  0  0
  -24.0031   -7.4642   22.7457 H   0  0  0  0  0  0
  -21.0841   -8.8806   19.8980 H   0  0  0  0  0  0
  -22.3731  -10.9695   19.6181 H   0  0  0  0  0  0
  -21.2046   -7.6176   23.9727 H   0  0  0  0  0  0
  -21.1446   -6.0549   25.9077 H   0  0  0  0  0  0
  -22.0601   -2.7622   23.2861 H   0  0  0  0  0  0
  -22.4086  -11.9850   22.4896 H   0  0  0  0  0  0
  -21.1067  -13.1172   22.2697 H   0  0  0  0  0  0
  -24.6257  -15.8476   20.5371 H   0  0  0  0  0  0
  -26.2388  -15.6476   20.0798 H   0  0  0  0  0  0
  -26.7496  -32.4958   23.0779 H   0  0  0  0  0  0
  -25.0029  -33.9323   25.0041 H   0  0  0  0  0  0
  -22.8327  -31.2395   21.3175 H   0  0  0  0  0  0
  -23.3715  -35.9557   23.3376 H   0  0  0  0  0  0
  -24.3544  -36.8740   22.2034 H   0  0  0  0  0  0
  -23.7364  -37.6432   23.6660 H   0  0  0  0  0  0
  -26.2774  -31.2697   20.6154 H   0  0  0  0  0  0
  -26.9430  -30.6216   22.0663 H   0  0  0  0  0  0
  -28.1805  -28.4093   21.2815 H   0  0  0  0  0  0
  -25.8327  -25.6143   19.0269 H   0  0  0  0  0  0
  -24.0235  -27.2169   18.9482 H   0  0  0  0  0  0
  -23.9455  -30.4626   19.3822 H   0  0  0  0  0  0
  -22.8647  -29.1746   19.8096 H   0  0  0  0  0  0
  -25.1381  -36.1697   25.0764 H   0  0  0  0  0  0
  -21.0060  -28.3403   24.1258 H   0  0  0  0  0  0
  -20.5616  -26.2396   23.3659 H   0  0  0  0  0  0
  -21.6667  -26.7344   22.1253 H   0  0  0  0  0  0
  -19.6940  -25.6250   21.1270 H   0  0  0  0  0  0
  -19.6718  -27.3137   20.6705 H   0  0  0  0  0  0
  -17.4215  -26.6629   21.4051 H   0  0  0  0  0  0
  -18.0403  -26.0109   22.9053 H   0  0  0  0  0  0
  -19.7984  -30.7330   24.2169 H   0  0  0  0  0  0
  -17.5045  -31.6258   24.5189 H   0  0  0  0  0  0
  -15.5389  -30.2978   23.7657 H   0  0  0  0  0  0
  -15.8719  -28.0823   22.7068 H   0  0  0  0  0  0
  -24.5872  -30.7175   25.7613 H   0  0  0  0  0  0
  -24.8913  -32.3070   26.4528 H   0  0  0  0  0  0
  -25.7873  -30.9114   27.0189 H   0  0  0  0  0  0
  -26.3150  -29.6444   24.1475 H   0  0  0  0  0  0
  -27.3880  -29.7182   25.5216 H   0  0  0  0  0  0
  -27.9148  -30.3857   23.9976 H   0  0  0  0  0  0
  -27.2680  -33.3612   26.1924 H   0  0  0  0  0  0
  -28.3968  -32.6767   25.0318 H   0  0  0  0  0  0
  -28.0705  -31.8476   26.5459 H   0  0  0  0  0  0
  -28.2669  -37.9984   24.7329 H   0  0  0  0  0  0
  -28.0967  -36.2504   24.6557 H   0  0  0  0  0  0
  -27.2240  -37.1723   25.8881 H   0  0  0  0  0  0
  -20.9673  -29.8724   21.6576 H   0  0  0  0  0  0
  -26.0154  -38.2701   24.1257 H   0  0  0  0  0  0
  -30.5267  -21.7278   22.5079 H   0  0  0  0  0  0
  -30.7873  -23.7225   18.6668 H   0  0  0  0  0  0
  -32.7413  -22.7169   23.0329 H   0  0  0  0  0  0
  -30.1210  -20.5456   17.1570 H   0  0  0  0  0  0
  -31.0394  -20.8061   18.5891 H   0  0  0  0  0  0
  -30.5248  -18.4032   18.1915 H   0  0  0  0  0  0
  -28.8177  -18.7204   18.2149 H   0  0  0  0  0  0
  -28.0048  -21.3193   18.4002 H   0  0  0  0  0  0
  -29.1561  -22.5265   17.9921 H   0  0  0  0  0  0
  -28.9245  -20.3383   21.7806 H   0  0  0  0  0  0
  -27.8245  -20.0991   20.5023 H   0  0  0  0  0  0
  -30.7616  -18.8930   20.5403 H   0  0  0  0  0  0
  -32.8420  -24.7336   18.0532 H   0  0  0  0  0  0
  -34.2851  -24.4526   19.0233 H   0  0  0  0  0  0
  -33.2338  -25.8313   19.3801 H   0  0  0  0  0  0
  -27.7669  -23.7231   21.3949 H   0  0  0  0  0  0
  -27.1147  -23.5954   19.8235 H   0  0  0  0  0  0
  -28.6223  -16.7584   20.6389 H   0  0  0  0  0  0
  1 25  1  0  0  0
  1 30  2  0  0  0
  1 85  1  0  0  0
  2  3  1  0  0  0
  2 25  1  0  0  0
  2 86  1  0  0  0
  2 87  1  0  0  0
  3  4  1  0  0  0
  3 88  1  0  0  0
  3 89  1  0  0  0
  4  5  1  0  0  0
  4 90  1  0  0  0
  4 91  1  0  0  0
  5  6  1  0  0  0
  5 26  1  0  0  0
  5 92  1  0  0  0
  6 25  1  0  0  0
  6 93  1  0  0  0
  6 94  1  0  0  0
  7  8  2  0  0  0
  7 26  1  0  0  0
  7 29  1  0  0  0
  8  9  1  0  0  0
  8 22  1  0  0  0
  9 10  1  0  0  0
  9 27  2  0  0  0
 10 11  2  0  0  0
 10 15  1  0  0  0
 11 12  1  0  0  0
 11 95  1  0  0  0
 12 13  2  0  0  0
 12 96  1  0  0  0
 13 14  1  0  0  0
 13 31  1  0  0  0
 14 15  2  0  0  0
 14 97  1  0  0  0
 15 98  1  0  0  0
 16 17  2  0  0  0
 16 21  1  0  0  0
 16 31  1  0  0  0
 17 18  1  0  0  0
 17 99  1  0  0  0
 18 19  2  0  0  0
 18100  1  0  0  0
 19 20  1  0  0  0
 19 24  1  0  0  0
 20 21  2  0  0  0
 20101  1  0  0  0
 21 23  1  0  0  0
 22 28  1  0  0  0
 22 32  2  0  0  0
 26 27  1  0  0  0
 28102  1  0  0  0
 28103  1  0  0  0
 29104  1  0  0  0
 29105  1  0  0  0
 33 34  1  0  0  0
 33 66  1  0  0  0
 33 70  2  0  0  0
 34 36  1  0  0  0
 34 59  1  0  0  0
 34106  1  0  0  0
 35 44  2  0  0  0
 35 45  1  0  0  0
 35 68  1  0  0  0
 36 56  1  0  0  0
 36107  1  0  0  0
 37 39  1  0  0  0
 37 47  1  0  0  0
 37 66  1  0  0  0
 37108  1  0  0  0
 38 43  2  0  0  0
 38 46  1  0  0  0
 38 47  1  0  0  0
 39 64  1  0  0  0
 39 67  2  0  0  0
 40 52  1  0  0  0
 40 53  2  0  0  0
 40 58  1  0  0  0
 41109  1  0  0  0
 41110  1  0  0  0
 41111  1  0  0  0
 41 48  1  0  0  0
 42 43  1  0  0  0
 42 66  1  0  0  0
 42112  1  0  0  0
 42113  1  0  0  0
 43 44  1  0  0  0
 44114  1  0  0  0
 45 46  2  0  0  0
 45115  1  0  0  0
 46116  1  0  0  0
 47117  1  0  0  0
 47118  1  0  0  0
 48 56  1  0  0  0
 48 65  1  0  0  0
 48119  1  0  0  0
 49 50  1  0  0  0
 49 53  1  0  0  0
 49 64  1  0  0  0
 49120  1  0  0  0
 50 51  1  0  0  0
 50121  1  0  0  0
 50122  1  0  0  0
 51 52  1  0  0  0
 51123  1  0  0  0
 51124  1  0  0  0
 52125  1  0  0  0
 52126  1  0  0  0
 53 54  1  0  0  0
 54 55  2  0  0  0
 54127  1  0  0  0
 55 57  1  0  0  0
 55128  1  0  0  0
 56 69  2  0  0  0
 57 58  2  0  0  0
 57129  1  0  0  0
 58130  1  0  0  0
 59 60  1  0  0  0
 59 61  1  0  0  0
 59 62  1  0  0  0
 60131  1  0  0  0
 60132  1  0  0  0
 60133  1  0  0  0
 61134  1  0  0  0
 61135  1  0  0  0
 61136  1  0  0  0
 62137  1  0  0  0
 62138  1  0  0  0
 62139  1  0  0  0
 63 65  1  0  0  0
 63140  1  0  0  0
 63141  1  0  0  0
 63142  1  0  0  0
 64143  1  0  0  0
 65144  1  0  0  0
 68 83  1  0  0  0
 71 73  2  0  0  0
 71 74  1  0  0  0
 71145  1  0  0  0
 72 74  2  0  0  0
 72 75  1  0  0  0
 72146  1  0  0  0
 73 84  1  0  0  0
 73147  1  0  0  0
 74 81  1  0  0  0
 75 82  1  0  0  0
 75 84  2  0  0  0
 76 77  1  0  0  0
 76 78  1  0  0  0
 76148  1  0  0  0
 76149  1  0  0  0
 77 80  1  0  0  0
 77150  1  0  0  0
 77151  1  0  0  0
 78 81  1  0  0  0
 78152  1  0  0  0
 78153  1  0  0  0
 79 80  1  0  0  0
 79 81  1  0  0  0
 79154  1  0  0  0
 79155  1  0  0  0
 80 85  1  0  0  0
 80156  1  0  0  0
 81 83  1  0  0  0
 82157  1  0  0  0
 82158  1  0  0  0
 82159  1  0  0  0
 83160  1  0  0  0
 83161  1  0  0  0
 85162  1  0  0  0
M  ISO  4   1 100  68 101  83 101  85 100
M  END
> <chiral flag>
0

> <version>
0

> <s_m_source_file>
/data/baiqing/PycharmProjects/Reinvent-master-3.2/result/LINK_invent/BTK/process_docking_weight1_custom_sum_contain_oxygen_bond_distance_aromatic_linkinvent_7_9_3/rearranged_h_0108.sdf

> <i_m_source_file_index>
3

> <r_mmod_Potential_Energy-OPLS-2005>
2253.76611328125

> <r_mmod_Stretch_Energy-OPLS-2005>
1107.07214355469

> <r_mmod_Bend_Energy-OPLS-2005>
648.735778808594

> <r_mmod_Torsional_Energy-OPLS-2005>
239.64485168457

> <r_mmod_Improper_Torsional_Energy-OPLS-2005>
3.71659970283508

> <r_mmod_Van_der_Waal_Energy-OPLS-2005>
138.009567260742

> <r_mmod_Electrostatic_Energy-OPLS-2005>
-492.510040283203

> <r_mmod_Solvation_Energy-OPLS-2005>
-236.674743652344

> <b_mmod_Minimization_Converged-OPLS-2005>
0

> <r_mmod_RMS_Derivative-OPLS-2005>
4.67036485671997

$$$$
3
                    3D
 Structure written by MMmdl.
166174  0  0  1  0            999 V2000
  -30.6250  -14.6338   20.4957 C   0  0  0  0  0  0
  -30.4410  -12.3809   19.4578 C   0  0  0  0  0  0
  -29.5170  -12.4959   18.2247 C   0  0  0  0  0  0
  -28.0313  -12.3647   18.6247 C   0  0  0  0  0  0
  -27.6582  -13.2206   19.8656 C   0  0  2  0  0  0
  -28.7032  -13.0547   20.9904 C   0  0  0  0  0  0
  -25.2574  -13.8172   20.5667 C   0  0  0  0  0  0
  -24.1847  -13.0442   20.9187 C   0  0  0  0  0  0
  -24.6416  -11.6911   20.8729 C   0  0  0  0  0  0
  -23.9073  -10.4296   21.0388 C   0  0  0  0  0  0
  -24.3618   -9.4211   21.9166 C   0  0  0  0  0  0
  -23.6289   -8.2243   22.0744 C   0  0  0  0  0  0
  -22.4269   -8.0281   21.3531 C   0  0  0  0  0  0
  -21.9908   -9.0262   20.4634 C   0  0  0  0  0  0
  -22.7240  -10.2135   20.3039 C   0  0  0  0  0  0
  -21.6864   -6.0735   22.5268 C   0  0  0  0  0  0
  -21.4025   -6.5634   23.8208 C   0  0  0  0  0  0
  -21.3662   -5.6778   24.9163 C   0  0  0  0  0  0
  -21.6044   -4.3045   24.7214 C   0  0  0  0  0  0
  -21.8821   -3.8139   23.4329 C   0  0  0  0  0  0
  -21.9196   -4.6962   22.3389 C   0  0  0  0  0  0
  -22.7858  -13.5218   21.1844 C   0  0  0  0  0  0
  -22.1659   -4.2148   21.0968 F   0  0  0  0  0  0
  -21.5633   -3.4526   25.7724 F   0  0  0  0  0  0
  -30.0160  -13.4057   20.4324 N   0  0  0  0  0  0
  -26.3023  -12.9371   20.3315 N   0  0  0  0  0  0
  -25.9349  -11.6519   20.5738 N   0  0  0  0  0  0
  -22.0496  -12.8232   22.0403 N   0  0  0  0  0  0
  -25.4261  -15.1898   20.4077 N   0  0  0  0  0  0
  -31.7840  -14.7672   20.0915 O   0  0  0  0  0  0
  -21.6640   -6.8874   21.4227 O   0  0  0  0  0  0
  -22.3541  -14.5515   20.6670 O   0  0  0  0  0  0
  -24.6229  -31.8631   23.2041 C   0  0  0  0  0  0
  -25.9096  -32.4793   23.8356 C   0  0  1  0  0  0
  -27.2194  -27.3471   20.1123 C   0  0  0  0  0  0
  -25.5926  -33.8593   24.2289 N   0  0  0  0  0  0
  -23.4142  -30.4868   21.5461 C   0  0  2  0  0  0
  -24.8603  -28.9438   20.1100 C   0  0  0  0  0  0
  -22.7447  -29.4662   22.4961 C   0  0  0  0  0  0
  -18.0278  -28.1385   22.8494 C   0  0  0  0  0  0
  -24.1486  -36.7292   23.2642 C   0  0  0  0  0  0
  -25.9519  -30.8021   21.3701 C   0  0  0  0  0  0
  -26.0286  -29.4307   20.7128 C   0  0  0  0  0  0
  -27.2161  -28.6432   20.7055 C   0  0  0  0  0  0
  -26.0358  -26.9054   19.4866 C   0  0  0  0  0  0
  -24.8635  -27.6839   19.4899 C   0  0  0  0  0  0
  -23.6247  -29.8190   20.1621 C   0  0  0  0  0  0
  -25.4114  -36.3097   24.0327 C   0  0  1  0  0  0
  -20.5877  -28.3702   23.1295 C   0  0  2  0  0  0
  -20.6777  -26.9433   22.5415 C   0  0  0  0  0  0
  -19.5752  -26.6386   21.5221 C   0  0  0  0  0  0
  -18.1928  -26.7925   22.1629 C   0  0  0  0  0  0
  -19.1531  -28.8855   23.2886 C   0  0  0  0  0  0
  -18.9461  -30.1458   23.8899 C   0  0  0  0  0  0
  -17.6464  -30.6594   24.0569 C   0  0  0  0  0  0
  -25.9052  -34.9464   23.5109 C   0  0  0  0  0  0
  -16.5354  -29.9091   23.6341 C   0  0  0  0  0  0
  -16.7264  -28.6505   23.0365 C   0  0  0  0  0  0
  -26.4476  -31.6596   25.0715 C   0  0  0  0  0  0
  -25.3711  -31.3731   26.1445 C   0  0  0  0  0  0
  -27.0309  -30.3016   24.6148 C   0  0  0  0  0  0
  -27.6036  -32.4327   25.7482 C   0  0  0  0  0  0
  -27.5579  -37.1805   24.8466 C   0  0  0  0  0  0
  -21.4171  -29.3048   22.3680 N   0  0  0  0  0  0
  -26.4296  -37.3788   23.9406 N   0  0  0  0  0  0
  -24.6813  -31.0654   22.0977 N   0  0  0  0  0  0
  -23.4182  -28.8229   23.3055 O   0  0  0  0  0  0
  -28.3085  -26.4755   20.1387 O   0  0  0  0  0  0
  -26.5624  -34.8933   22.4677 O   0  0  0  0  0  0
  -23.5402  -32.1423   23.7387 O   0  0  0  0  0  0
  -30.0342  -23.5728   20.5302 C   0  0  0  0  0  0
  -30.5283  -22.2600   20.2824 C   0  0  0  0  0  0
  -27.8014  -22.7683   20.1695 C   0  0  0  0  0  0
  -28.6542  -23.8660   20.4716 C   0  0  0  0  0  0
  -29.6861  -21.1565   19.9577 C   0  0  0  0  0  0
  -28.2899  -21.4453   19.9153 C   0  0  0  0  0  0
  -27.2869  -20.3517   19.5897 C   0  0  0  0  0  0
  -30.8146  -20.9149   17.1746 C   0  0  0  0  0  0
  -29.7538  -16.7163   18.4692 C   0  0  0  0  0  0
  -28.0767  -25.2526   20.9232 C   0  0  0  0  0  0
  -29.8561  -15.9488   20.9526 C   0  0  0  0  0  0
  -30.3655  -19.6537   17.9367 C   0  0  0  0  0  0
  -30.3445  -19.7938   19.4819 C   0  0  2  0  0  0
  -29.6034  -17.1807   19.9385 C   0  0  2  0  0  0
  -30.2706  -18.5129   20.3210 N   0  3  0  0  0  0
  -31.4839  -12.4972   19.1594 H   0  0  0  0  0  0
  -30.3701  -11.3857   19.9006 H   0  0  0  0  0  0
  -29.7717  -11.7276   17.4935 H   0  0  0  0  0  0
  -29.6837  -13.4532   17.7298 H   0  0  0  0  0  0
  -27.8412  -11.3117   18.8332 H   0  0  0  0  0  0
  -27.3906  -12.6294   17.7820 H   0  0  0  0  0  0
  -27.6806  -14.2620   19.5448 H   0  0  0  0  0  0
  -28.7145  -12.0235   21.3494 H   0  0  0  0  0  0
  -28.4538  -13.6564   21.8635 H   0  0  0  0  0  0
  -25.2772   -9.5697   22.4731 H   0  0  0  0  0  0
  -24.0013   -7.4643   22.7468 H   0  0  0  0  0  0
  -21.0834   -8.8776   19.8947 H   0  0  0  0  0  0
  -22.3696  -10.9671   19.6141 H   0  0  0  0  0  0
  -21.2017   -7.6142   23.9714 H   0  0  0  0  0  0
  -21.1483   -6.0503   25.9069 H   0  0  0  0  0  0
  -22.0597   -2.7602   23.2826 H   0  0  0  0  0  0
  -22.4100  -11.9906   22.4826 H   0  0  0  0  0  0
  -21.1092  -13.1247   22.2550 H   0  0  0  0  0  0
  -24.6585  -15.8427   20.5247 H   0  0  0  0  0  0
  -26.2704  -15.6298   20.0671 H   0  0  0  0  0  0
  -26.7161  -32.5479   23.1111 H   0  0  0  0  0  0
  -25.0049  -33.9729   25.0419 H   0  0  0  0  0  0
  -22.7083  -31.3080   21.4062 H   0  0  0  0  0  0
  -23.3749  -35.9624   23.3310 H   0  0  0  0  0  0
  -24.3582  -36.8908   22.2057 H   0  0  0  0  0  0
  -23.7232  -37.6493   23.6654 H   0  0  0  0  0  0
  -26.0785  -31.5681   20.6036 H   0  0  0  0  0  0
  -26.8335  -30.8517   21.9963 H   0  0  0  0  0  0
  -28.1119  -29.0085   21.1881 H   0  0  0  0  0  0
  -26.0136  -25.9337   19.0129 H   0  0  0  0  0  0
  -23.9680  -27.3036   19.0172 H   0  0  0  0  0  0
  -23.7326  -30.5935   19.4022 H   0  0  0  0  0  0
  -22.7449  -29.2422   19.8693 H   0  0  0  0  0  0
  -25.1297  -36.1951   25.0816 H   0  0  0  0  0  0
  -20.9969  -28.3274   24.1419 H   0  0  0  0  0  0
  -20.5700  -26.2314   23.3612 H   0  0  0  0  0  0
  -21.6650  -26.7477   22.1209 H   0  0  0  0  0  0
  -19.6926  -25.6297   21.1253 H   0  0  0  0  0  0
  -19.6683  -27.3195   20.6751 H   0  0  0  0  0  0
  -17.4207  -26.6679   21.4021 H   0  0  0  0  0  0
  -18.0333  -26.0057   22.9018 H   0  0  0  0  0  0
  -19.7938  -30.7272   24.2269 H   0  0  0  0  0  0
  -17.5022  -31.6281   24.5169 H   0  0  0  0  0  0
  -15.5359  -30.3004   23.7652 H   0  0  0  0  0  0
  -15.8661  -28.0818   22.7094 H   0  0  0  0  0  0
  -24.5876  -30.7089   25.7774 H   0  0  0  0  0  0
  -24.8906  -32.2896   26.4877 H   0  0  0  0  0  0
  -25.8037  -30.8898   27.0217 H   0  0  0  0  0  0
  -26.2874  -29.6785   24.1151 H   0  0  0  0  0  0
  -27.3993  -29.7253   25.4652 H   0  0  0  0  0  0
  -27.8757  -30.4303   23.9370 H   0  0  0  0  0  0
  -27.2636  -33.3625   26.2059 H   0  0  0  0  0  0
  -28.3837  -32.6902   25.0303 H   0  0  0  0  0  0
  -28.0707  -31.8454   26.5399 H   0  0  0  0  0  0
  -28.2608  -38.0095   24.7524 H   0  0  0  0  0  0
  -28.1064  -36.2631   24.6279 H   0  0  0  0  0  0
  -27.2299  -37.1446   25.8870 H   0  0  0  0  0  0
  -20.9353  -29.8725   21.6849 H   0  0  0  0  0  0
  -26.0175  -38.2864   24.1404 H   0  0  0  0  0  0
  -30.7270  -24.3619   20.7869 H   0  0  0  0  0  0
  -31.5996  -22.1218   20.3133 H   0  0  0  0  0  0
  -26.7360  -22.9451   20.1507 H   0  0  0  0  0  0
  -26.2655  -20.7333   19.5728 H   0  0  0  0  0  0
  -27.3245  -19.5612   20.3390 H   0  0  0  0  0  0
  -27.4829  -19.9159   18.6112 H   0  0  0  0  0  0
  -30.1618  -21.7676   17.3652 H   0  0  0  0  0  0
  -30.8048  -20.7375   16.0982 H   0  0  0  0  0  0
  -31.8300  -21.2012   17.4522 H   0  0  0  0  0  0
  -29.3326  -15.7233   18.3239 H   0  0  0  0  0  0
  -30.7976  -16.6699   18.1590 H   0  0  0  0  0  0
  -29.1929  -17.3276   17.7685 H   0  0  0  0  0  0
  -28.5110  -25.4531   21.9034 H   0  0  0  0  0  0
  -27.0157  -25.1103   21.1353 H   0  0  0  0  0  0
  -30.3734  -16.3134   21.8390 H   0  0  0  0  0  0
  -28.8776  -15.6679   21.3333 H   0  0  0  0  0  0
  -31.0396  -18.8503   17.6441 H   0  0  0  0  0  0
  -29.3738  -19.4047   17.5704 H   0  0  0  0  0  0
  -31.3967  -20.0016   19.6793 H   0  0  0  0  0  0
  -28.5418  -17.4062   20.0387 H   0  0  0  0  0  0
  -29.9279  -18.7904   21.2271 H   0  0  0  0  0  0
  -31.2405  -18.2844   20.4706 H   0  0  0  0  0  0
  1 25  1  0  0  0
  1 30  2  0  0  0
  1 81  1  0  0  0
  2  3  1  0  0  0
  2 25  1  0  0  0
  2 86  1  0  0  0
  2 87  1  0  0  0
  3  4  1  0  0  0
  3 88  1  0  0  0
  3 89  1  0  0  0
  4  5  1  0  0  0
  4 90  1  0  0  0
  4 91  1  0  0  0
  5  6  1  0  0  0
  5 26  1  0  0  0
  5 92  1  0  0  0
  6 25  1  0  0  0
  6 93  1  0  0  0
  6 94  1  0  0  0
  7  8  2  0  0  0
  7 26  1  0  0  0
  7 29  1  0  0  0
  8  9  1  0  0  0
  8 22  1  0  0  0
  9 10  1  0  0  0
  9 27  2  0  0  0
 10 11  2  0  0  0
 10 15  1  0  0  0
 11 12  1  0  0  0
 11 95  1  0  0  0
 12 13  2  0  0  0
 12 96  1  0  0  0
 13 14  1  0  0  0
 13 31  1  0  0  0
 14 15  2  0  0  0
 14 97  1  0  0  0
 15 98  1  0  0  0
 16 17  2  0  0  0
 16 21  1  0  0  0
 16 31  1  0  0  0
 17 18  1  0  0  0
 17 99  1  0  0  0
 18 19  2  0  0  0
 18100  1  0  0  0
 19 20  1  0  0  0
 19 24  1  0  0  0
 20 21  2  0  0  0
 20101  1  0  0  0
 21 23  1  0  0  0
 22 28  1  0  0  0
 22 32  2  0  0  0
 26 27  1  0  0  0
 28102  1  0  0  0
 28103  1  0  0  0
 29104  1  0  0  0
 29105  1  0  0  0
 33 34  1  0  0  0
 33 66  1  0  0  0
 33 70  2  0  0  0
 34 36  1  0  0  0
 34 59  1  0  0  0
 34106  1  0  0  0
 35 44  2  0  0  0
 35 45  1  0  0  0
 35 68  1  0  0  0
 36 56  1  0  0  0
 36107  1  0  0  0
 37 39  1  0  0  0
 37 47  1  0  0  0
 37 66  1  0  0  0
 37108  1  0  0  0
 38 43  2  0  0  0
 38 46  1  0  0  0
 38 47  1  0  0  0
 39 64  1  0  0  0
 39 67  2  0  0  0
 40 52  1  0  0  0
 40 53  2  0  0  0
 40 58  1  0  0  0
 41109  1  0  0  0
 41110  1  0  0  0
 41111  1  0  0  0
 41 48  1  0  0  0
 42 43  1  0  0  0
 42 66  1  0  0  0
 42112  1  0  0  0
 42113  1  0  0  0
 43 44  1  0  0  0
 44114  1  0  0  0
 45 46  2  0  0  0
 45115  1  0  0  0
 46116  1  0  0  0
 47117  1  0  0  0
 47118  1  0  0  0
 48 56  1  0  0  0
 48 65  1  0  0  0
 48119  1  0  0  0
 49 50  1  0  0  0
 49 53  1  0  0  0
 49 64  1  0  0  0
 49120  1  0  0  0
 50 51  1  0  0  0
 50121  1  0  0  0
 50122  1  0  0  0
 51 52  1  0  0  0
 51123  1  0  0  0
 51124  1  0  0  0
 52125  1  0  0  0
 52126  1  0  0  0
 53 54  1  0  0  0
 54 55  2  0  0  0
 54127  1  0  0  0
 55 57  1  0  0  0
 55128  1  0  0  0
 56 69  2  0  0  0
 57 58  2  0  0  0
 57129  1  0  0  0
 58130  1  0  0  0
 59 60  1  0  0  0
 59 61  1  0  0  0
 59 62  1  0  0  0
 60131  1  0  0  0
 60132  1  0  0  0
 60133  1  0  0  0
 61134  1  0  0  0
 61135  1  0  0  0
 61136  1  0  0  0
 62137  1  0  0  0
 62138  1  0  0  0
 62139  1  0  0  0
 63 65  1  0  0  0
 63140  1  0  0  0
 63141  1  0  0  0
 63142  1  0  0  0
 64143  1  0  0  0
 65144  1  0  0  0
 68 80  1  0  0  0
 71 72  2  0  0  0
 71 74  1  0  0  0
 71145  1  0  0  0
 72 75  1  0  0  0
 72146  1  0  0  0
 73 74  2  0  0  0
 73 76  1  0  0  0
 73147  1  0  0  0
 74 80  1  0  0  0
 75 76  2  0  0  0
 75 83  1  0  0  0
 76 77  1  0  0  0
 77148  1  0  0  0
 77149  1  0  0  0
 77150  1  0  0  0
 78 82  1  0  0  0
 78151  1  0  0  0
 78152  1  0  0  0
 78153  1  0  0  0
 79154  1  0  0  0
 79155  1  0  0  0
 79156  1  0  0  0
 79 84  1  0  0  0
 80157  1  0  0  0
 80158  1  0  0  0
 81 84  1  0  0  0
 81159  1  0  0  0
 81160  1  0  0  0
 82161  1  0  0  0
 82162  1  0  0  0
 82 83  1  0  0  0
 83 85  1  0  0  0
 83163  1  0  0  0
 84 85  1  0  0  0
 84164  1  0  0  0
 85165  1  0  0  0
 85166  1  0  0  0
M  CHG  1  85   1
M  ISO  4   1 100  68 101  80 101  81 100
M  END
> <chiral flag>
0

> <version>
0

> <s_m_source_file>
/data/baiqing/PycharmProjects/Reinvent-master-3.2/result/LINK_invent/BTK/process_docking_weight1_custom_sum_contain_oxygen_bond_distance_aromatic_linkinvent_7_9_3/rearranged_h_0108.sdf

> <i_m_source_file_index>
4

> <r_mmod_Potential_Energy-OPLS-2005>
32.4354362487793

> <r_mmod_Stretch_Energy-OPLS-2005>
88.7691192626953

> <r_mmod_Bend_Energy-OPLS-2005>
190.635940551758

> <r_mmod_Torsional_Energy-OPLS-2005>
220.729766845703

> <r_mmod_Improper_Torsional_Energy-OPLS-2005>
4.71712207794189

> <r_mmod_Van_der_Waal_Energy-OPLS-2005>
144.794158935547

> <r_mmod_Electrostatic_Energy-OPLS-2005>
-218.098678588867

> <r_mmod_Solvation_Energy-OPLS-2005>
-442.28564453125

> <b_mmod_Minimization_Converged-OPLS-2005>
0

> <r_mmod_RMS_Derivative-OPLS-2005>
2.31231260299683

$$$$
4
                    3D
 Structure written by MMmdl.
166175  0  0  1  0            999 V2000
  -30.5472  -15.0638   20.3661 C   0  0  0  0  0  0
  -30.4361  -12.6641   19.5051 C   0  0  0  0  0  0
  -29.5253  -12.5298   18.2664 C   0  0  0  0  0  0
  -28.0625  -12.3098   18.6950 C   0  0  0  0  0  0
  -27.6232  -13.2666   19.8353 C   0  0  2  0  0  0
  -28.6706  -13.3749   20.9619 C   0  0  0  0  0  0
  -25.2471  -13.8293   20.5828 C   0  0  0  0  0  0
  -24.1796  -13.0485   20.9308 C   0  0  0  0  0  0
  -24.6417  -11.6963   20.8793 C   0  0  0  0  0  0
  -23.9128  -10.4321   21.0401 C   0  0  0  0  0  0
  -24.3668   -9.4228   21.9179 C   0  0  0  0  0  0
  -23.6336   -8.2263   22.0734 C   0  0  0  0  0  0
  -22.4317   -8.0301   21.3541 C   0  0  0  0  0  0
  -21.9968   -9.0292   20.4646 C   0  0  0  0  0  0
  -22.7296  -10.2165   20.3054 C   0  0  0  0  0  0
  -21.6864   -6.0766   22.5286 C   0  0  0  0  0  0
  -21.4018   -6.5639   23.8231 C   0  0  0  0  0  0
  -21.3664   -5.6777   24.9176 C   0  0  0  0  0  0
  -21.6024   -4.3045   24.7206 C   0  0  0  0  0  0
  -21.8826   -3.8155   23.4330 C   0  0  0  0  0  0
  -21.9206   -4.6984   22.3395 C   0  0  0  0  0  0
  -22.7808  -13.5239   21.1925 C   0  0  0  0  0  0
  -22.1660   -4.2186   21.0964 F   0  0  0  0  0  0
  -21.5644   -3.4500   25.7709 F   0  0  0  0  0  0
  -29.9214  -13.8073   20.3264 N   0  0  0  0  0  0
  -26.2883  -12.9532   20.3322 N   0  0  0  0  0  0
  -25.9367  -11.6653   20.5815 N   0  0  0  0  0  0
  -22.0414  -12.8248   22.0469 N   0  0  0  0  0  0
  -25.4188  -15.2028   20.4320 N   0  0  0  0  0  0
  -31.7677  -15.0337   20.1656 O   0  0  0  0  0  0
  -21.6668   -6.8905   21.4246 O   0  0  0  0  0  0
  -22.3485  -14.5510   20.6722 O   0  0  0  0  0  0
  -24.6522  -31.8344   23.1784 C   0  0  0  0  0  0
  -25.9243  -32.4645   23.8219 C   0  0  1  0  0  0
  -27.2225  -27.0414   20.1860 C   0  0  0  0  0  0
  -25.5956  -33.8452   24.2139 N   0  0  0  0  0  0
  -23.4615  -30.4512   21.5245 C   0  0  2  0  0  0
  -24.9116  -28.8504   20.1204 C   0  0  0  0  0  0
  -22.7608  -29.4505   22.4801 C   0  0  0  0  0  0
  -18.0302  -28.1392   22.8464 C   0  0  0  0  0  0
  -24.1490  -36.7234   23.2648 C   0  0  0  0  0  0
  -26.0228  -30.6793   21.3913 C   0  0  0  0  0  0
  -26.0911  -29.2772   20.7425 C   0  0  0  0  0  0
  -27.2483  -28.3951   20.7423 C   0  0  0  0  0  0
  -26.0119  -26.7257   19.5350 C   0  0  0  0  0  0
  -24.8903  -27.5910   19.4966 C   0  0  0  0  0  0
  -23.6947  -29.7699   20.1493 C   0  0  0  0  0  0
  -25.4133  -36.3019   24.0314 C   0  0  1  0  0  0
  -20.5933  -28.3738   23.1200 C   0  0  2  0  0  0
  -20.6795  -26.9434   22.5402 C   0  0  0  0  0  0
  -19.5763  -26.6376   21.5220 C   0  0  0  0  0  0
  -18.1939  -26.7922   22.1627 C   0  0  0  0  0  0
  -19.1568  -28.8882   23.2823 C   0  0  0  0  0  0
  -18.9484  -30.1471   23.8859 C   0  0  0  0  0  0
  -17.6481  -30.6593   24.0558 C   0  0  0  0  0  0
  -25.9097  -34.9388   23.5052 C   0  0  0  0  0  0
  -16.5368  -29.9092   23.6346 C   0  0  0  0  0  0
  -16.7284  -28.6512   23.0361 C   0  0  0  0  0  0
  -26.4542  -31.6532   25.0696 C   0  0  0  0  0  0
  -25.3724  -31.3738   26.1397 C   0  0  0  0  0  0
  -27.0413  -30.2900   24.6366 C   0  0  0  0  0  0
  -27.6049  -32.4334   25.7482 C   0  0  0  0  0  0
  -27.5583  -37.1779   24.8459 C   0  0  0  0  0  0
  -21.4296  -29.3048   22.3554 N   0  0  0  0  0  0
  -26.4290  -37.3748   23.9422 N   0  0  0  0  0  0
  -24.7324  -31.0133   22.0860 N   0  0  0  0  0  0
  -23.4194  -28.8094   23.3032 O   0  0  0  0  0  0
  -28.3015  -26.0601   20.1203 O   0  0  0  0  0  0
  -26.5704  -34.8907   22.4651 O   0  0  0  0  0  0
  -23.5616  -32.1242   23.6959 O   0  0  0  0  0  0
  -25.5320  -22.9196   20.0888 C   0  0  0  0  0  0
  -25.9881  -21.4788   19.9647 C   0  0  0  0  0  0
  -29.6631  -18.9035   21.5959 C   0  0  0  0  0  0
  -29.3746  -18.8107   19.2321 C   0  0  0  0  0  0
  -30.4599  -17.4871   21.3318 C   0  0  0  0  0  0
  -29.1812  -17.1649   19.4078 C   0  0  0  0  0  0
  -26.8725  -22.4975   20.6385 C   0  0  0  0  0  0
  -29.0175  -19.8199   20.4369 C   0  0  0  0  0  0
  -30.6827  -21.8539   20.0106 C   0  0  0  0  0  0
  -28.2522  -23.0978   18.5671 C   0  0  0  0  0  0
  -28.3844  -24.5735   20.7085 C   0  0  0  0  0  0
  -29.2555  -21.5676   20.5004 C   0  0  1  0  0  0
  -28.2362  -22.9397   20.1004 C   0  0  1  0  0  0
  -29.8761  -16.3559   20.5065 N   0  0  0  0  0  0
  -31.4687  -12.8173   19.1854 H   0  0  0  0  0  0
  -30.4423  -11.7359   20.0786 H   0  0  0  0  0  0
  -29.8589  -11.7043   17.6363 H   0  0  0  0  0  0
  -29.6036  -13.4327   17.6612 H   0  0  0  0  0  0
  -27.9779  -11.2757   19.0302 H   0  0  0  0  0  0
  -27.3952  -12.4060   17.8389 H   0  0  0  0  0  0
  -27.5645  -14.2541   19.3759 H   0  0  0  0  0  0
  -28.7983  -12.4270   21.4869 H   0  0  0  0  0  0
  -28.3625  -14.1077   21.7112 H   0  0  0  0  0  0
  -25.2788   -9.5713   22.4788 H   0  0  0  0  0  0
  -24.0041   -7.4649   22.7438 H   0  0  0  0  0  0
  -21.0906   -8.8828   19.8966 H   0  0  0  0  0  0
  -22.3741  -10.9727   19.6189 H   0  0  0  0  0  0
  -21.1993   -7.6144   23.9752 H   0  0  0  0  0  0
  -21.1483   -6.0493   25.9095 H   0  0  0  0  0  0
  -22.0609   -2.7624   23.2817 H   0  0  0  0  0  0
  -22.3972  -11.9898   22.4882 H   0  0  0  0  0  0
  -21.1030  -13.1304   22.2577 H   0  0  0  0  0  0
  -24.6691  -15.8660   20.5955 H   0  0  0  0  0  0
  -26.2881  -15.6500   20.1686 H   0  0  0  0  0  0
  -26.7295  -32.5229   23.0922 H   0  0  0  0  0  0
  -25.0036  -33.9522   25.0242 H   0  0  0  0  0  0
  -22.7708  -31.2826   21.3640 H   0  0  0  0  0  0
  -23.3778  -35.9534   23.3258 H   0  0  0  0  0  0
  -24.3577  -36.8926   22.2074 H   0  0  0  0  0  0
  -23.7191  -37.6394   23.6717 H   0  0  0  0  0  0
  -26.1947  -31.4282   20.6164 H   0  0  0  0  0  0
  -26.8838  -30.7289   22.0463 H   0  0  0  0  0  0
  -28.1598  -28.7409   21.2103 H   0  0  0  0  0  0
  -25.9317  -25.7671   19.0430 H   0  0  0  0  0  0
  -23.9969  -27.2637   18.9835 H   0  0  0  0  0  0
  -23.8428  -30.5400   19.3902 H   0  0  0  0  0  0
  -22.8043  -29.2213   19.8389 H   0  0  0  0  0  0
  -25.1326  -36.1839   25.0806 H   0  0  0  0  0  0
  -21.0017  -28.3335   24.1324 H   0  0  0  0  0  0
  -20.5692  -26.2374   23.3643 H   0  0  0  0  0  0
  -21.6661  -26.7435   22.1208 H   0  0  0  0  0  0
  -19.6946  -25.6284   21.1261 H   0  0  0  0  0  0
  -19.6686  -27.3184   20.6747 H   0  0  0  0  0  0
  -17.4223  -26.6641   21.4016 H   0  0  0  0  0  0
  -18.0325  -26.0076   22.9043 H   0  0  0  0  0  0
  -19.7962  -30.7293   24.2210 H   0  0  0  0  0  0
  -17.5042  -31.6280   24.5148 H   0  0  0  0  0  0
  -15.5362  -30.3003   23.7698 H   0  0  0  0  0  0
  -15.8671  -28.0841   22.7104 H   0  0  0  0  0  0
  -24.5817  -30.7209   25.7680 H   0  0  0  0  0  0
  -24.9042  -32.2944   26.4894 H   0  0  0  0  0  0
  -25.7996  -30.8794   27.0132 H   0  0  0  0  0  0
  -26.3042  -29.6590   24.1386 H   0  0  0  0  0  0
  -27.3959  -29.7252   25.4997 H   0  0  0  0  0  0
  -27.8991  -30.4066   23.9740 H   0  0  0  0  0  0
  -27.2582  -33.3619   26.2030 H   0  0  0  0  0  0
  -28.3859  -32.6925   25.0322 H   0  0  0  0  0  0
  -28.0723  -31.8500   26.5421 H   0  0  0  0  0  0
  -28.2582  -38.0102   24.7584 H   0  0  0  0  0  0
  -28.1107  -36.2641   24.6203 H   0  0  0  0  0  0
  -27.2318  -37.1336   25.8866 H   0  0  0  0  0  0
  -20.9528  -29.8714   21.6675 H   0  0  0  0  0  0
  -26.0144  -38.2811   24.1455 H   0  0  0  0  0  0
  -24.7527  -23.1348   20.8168 H   0  0  0  0  0  0
  -25.4904  -23.5091   19.1762 H   0  0  0  0  0  0
  -26.2651  -21.1219   18.9752 H   0  0  0  0  0  0
  -25.5379  -20.7336   20.6192 H   0  0  0  0  0  0
  -30.3536  -19.5339   22.1588 H   0  0  0  0  0  0
  -28.8664  -18.6866   22.3072 H   0  0  0  0  0  0
  -28.7992  -19.1146   18.3554 H   0  0  0  0  0  0
  -30.4144  -18.9868   18.9471 H   0  0  0  0  0  0
  -30.7175  -17.0630   22.3040 H   0  0  0  0  0  0
  -31.4261  -17.7275   20.8804 H   0  0  0  0  0  0
  -29.4386  -16.6936   18.4565 H   0  0  0  0  0  0
  -28.1143  -16.9741   19.5275 H   0  0  0  0  0  0
  -26.8899  -22.4217   21.7265 H   0  0  0  0  0  0
  -27.9411  -19.7005   20.5622 H   0  0  0  0  0  0
  -31.4107  -21.2306   20.5284 H   0  0  0  0  0  0
  -30.9574  -22.8933   20.1871 H   0  0  0  0  0  0
  -30.7879  -21.6643   18.9422 H   0  0  0  0  0  0
  -27.5284  -23.8447   18.2409 H   0  0  0  0  0  0
  -28.0423  -22.1660   18.0443 H   0  0  0  0  0  0
  -29.2272  -23.4482   18.2291 H   0  0  0  0  0  0
  -29.4039  -24.5764   21.0936 H   0  0  0  0  0  0
  -27.7919  -24.6253   21.6225 H   0  0  0  0  0  0
  -29.3193  -21.7033   21.5808 H   0  0  0  0  0  0
  1 25  1  0  0  0
  1 30  2  0  0  0
  1 84  1  0  0  0
  2  3  1  0  0  0
  2 25  1  0  0  0
  2 85  1  0  0  0
  2 86  1  0  0  0
  3  4  1  0  0  0
  3 87  1  0  0  0
  3 88  1  0  0  0
  4  5  1  0  0  0
  4 89  1  0  0  0
  4 90  1  0  0  0
  5  6  1  0  0  0
  5 26  1  0  0  0
  5 91  1  0  0  0
  6 25  1  0  0  0
  6 92  1  0  0  0
  6 93  1  0  0  0
  7  8  2  0  0  0
  7 26  1  0  0  0
  7 29  1  0  0  0
  8  9  1  0  0  0
  8 22  1  0  0  0
  9 10  1  0  0  0
  9 27  2  0  0  0
 10 11  2  0  0  0
 10 15  1  0  0  0
 11 12  1  0  0  0
 11 94  1  0  0  0
 12 13  2  0  0  0
 12 95  1  0  0  0
 13 14  1  0  0  0
 13 31  1  0  0  0
 14 15  2  0  0  0
 14 96  1  0  0  0
 15 97  1  0  0  0
 16 17  2  0  0  0
 16 21  1  0  0  0
 16 31  1  0  0  0
 17 18  1  0  0  0
 17 98  1  0  0  0
 18 19  2  0  0  0
 18 99  1  0  0  0
 19 20  1  0  0  0
 19 24  1  0  0  0
 20 21  2  0  0  0
 20100  1  0  0  0
 21 23  1  0  0  0
 22 28  1  0  0  0
 22 32  2  0  0  0
 26 27  1  0  0  0
 28101  1  0  0  0
 28102  1  0  0  0
 29103  1  0  0  0
 29104  1  0  0  0
 33 34  1  0  0  0
 33 66  1  0  0  0
 33 70  2  0  0  0
 34 36  1  0  0  0
 34 59  1  0  0  0
 34105  1  0  0  0
 35 44  2  0  0  0
 35 45  1  0  0  0
 35 68  1  0  0  0
 36 56  1  0  0  0
 36106  1  0  0  0
 37 39  1  0  0  0
 37 47  1  0  0  0
 37 66  1  0  0  0
 37107  1  0  0  0
 38 43  2  0  0  0
 38 46  1  0  0  0
 38 47  1  0  0  0
 39 64  1  0  0  0
 39 67  2  0  0  0
 40 52  1  0  0  0
 40 53  2  0  0  0
 40 58  1  0  0  0
 41108  1  0  0  0
 41109  1  0  0  0
 41110  1  0  0  0
 41 48  1  0  0  0
 42 43  1  0  0  0
 42 66  1  0  0  0
 42111  1  0  0  0
 42112  1  0  0  0
 43 44  1  0  0  0
 44113  1  0  0  0
 45 46  2  0  0  0
 45114  1  0  0  0
 46115  1  0  0  0
 47116  1  0  0  0
 47117  1  0  0  0
 48 56  1  0  0  0
 48 65  1  0  0  0
 48118  1  0  0  0
 49 50  1  0  0  0
 49 53  1  0  0  0
 49 64  1  0  0  0
 49119  1  0  0  0
 50 51  1  0  0  0
 50120  1  0  0  0
 50121  1  0  0  0
 51 52  1  0  0  0
 51122  1  0  0  0
 51123  1  0  0  0
 52124  1  0  0  0
 52125  1  0  0  0
 53 54  1  0  0  0
 54 55  2  0  0  0
 54126  1  0  0  0
 55 57  1  0  0  0
 55127  1  0  0  0
 56 69  2  0  0  0
 57 58  2  0  0  0
 57128  1  0  0  0
 58129  1  0  0  0
 59 60  1  0  0  0
 59 61  1  0  0  0
 59 62  1  0  0  0
 60130  1  0  0  0
 60131  1  0  0  0
 60132  1  0  0  0
 61133  1  0  0  0
 61134  1  0  0  0
 61135  1  0  0  0
 62136  1  0  0  0
 62137  1  0  0  0
 62138  1  0  0  0
 63 65  1  0  0  0
 63139  1  0  0  0
 63140  1  0  0  0
 63141  1  0  0  0
 64142  1  0  0  0
 65143  1  0  0  0
 68 81  1  0  0  0
 71 72  1  0  0  0
 71144  1  0  0  0
 71145  1  0  0  0
 71 77  1  0  0  0
 72 77  1  0  0  0
 72146  1  0  0  0
 72147  1  0  0  0
 73 75  1  0  0  0
 73148  1  0  0  0
 73149  1  0  0  0
 73 78  1  0  0  0
 74 76  1  0  0  0
 74 78  1  0  0  0
 74150  1  0  0  0
 74151  1  0  0  0
 75 84  1  0  0  0
 75152  1  0  0  0
 75153  1  0  0  0
 76 84  1  0  0  0
 76154  1  0  0  0
 76155  1  0  0  0
 77 83  1  0  0  0
 77156  1  0  0  0
 78 82  1  0  0  0
 78157  1  0  0  0
 79158  1  0  0  0
 79159  1  0  0  0
 79160  1  0  0  0
 79 82  1  0  0  0
 80161  1  0  0  0
 80162  1  0  0  0
 80163  1  0  0  0
 80 83  1  0  0  0
 81 83  1  0  0  0
 81164  1  0  0  0
 81165  1  0  0  0
 82 83  1  0  0  0
 82166  1  0  0  0
M  ISO  4   1 100  68 101  81 101  84 100
M  END
> <chiral flag>
0

> <version>
0

> <s_m_source_file>
/data/baiqing/PycharmProjects/Reinvent-master-3.2/result/LINK_invent/BTK/process_docking_weight1_custom_sum_contain_oxygen_bond_distance_aromatic_linkinvent_7_9_3/rearranged_h_0108.sdf

> <i_m_source_file_index>
5

> <r_mmod_Potential_Energy-OPLS-2005>
1215.09606933594

> <r_mmod_Stretch_Energy-OPLS-2005>
403.232360839844

> <r_mmod_Bend_Energy-OPLS-2005>
447.310546875

> <r_mmod_Torsional_Energy-OPLS-2005>
441.388824462891

> <r_mmod_Improper_Torsional_Energy-OPLS-2005>
6.17058563232422

> <r_mmod_Van_der_Waal_Energy-OPLS-2005>
108.445358276367

> <r_mmod_Electrostatic_Energy-OPLS-2005>
-280.103424072266

> <r_mmod_Solvation_Energy-OPLS-2005>
-183.876312255859

> <b_mmod_Minimization_Converged-OPLS-2005>
0

> <r_mmod_RMS_Derivative-OPLS-2005>
4.10682058334351

$$$$
5
                    3D
 Structure written by MMmdl.
168176  0  0  1  0            999 V2000
  -30.5672  -14.8518   20.4277 C   0  0  0  0  0  0
  -30.4324  -12.5179   19.4854 C   0  0  0  0  0  0
  -29.5146  -12.5224   18.2409 C   0  0  0  0  0  0
  -28.0393  -12.3403   18.6488 C   0  0  0  0  0  0
  -27.6344  -13.2441   19.8440 C   0  0  2  0  0  0
  -28.6800  -13.2159   20.9789 C   0  0  0  0  0  0
  -25.2476  -13.8217   20.5708 C   0  0  0  0  0  0
  -24.1791  -13.0442   20.9226 C   0  0  0  0  0  0
  -24.6406  -11.6927   20.8751 C   0  0  0  0  0  0
  -23.9093  -10.4296   21.0410 C   0  0  0  0  0  0
  -24.3637   -9.4205   21.9187 C   0  0  0  0  0  0
  -23.6309   -8.2241   22.0753 C   0  0  0  0  0  0
  -22.4288   -8.0284   21.3545 C   0  0  0  0  0  0
  -21.9926   -9.0259   20.4644 C   0  0  0  0  0  0
  -22.7262  -10.2137   20.3057 C   0  0  0  0  0  0
  -21.6856   -6.0745   22.5289 C   0  0  0  0  0  0
  -21.4015   -6.5648   23.8222 C   0  0  0  0  0  0
  -21.3657   -5.6798   24.9178 C   0  0  0  0  0  0
  -21.6046   -4.3061   24.7227 C   0  0  0  0  0  0
  -21.8816   -3.8155   23.4347 C   0  0  0  0  0  0
  -21.9193   -4.6974   22.3405 C   0  0  0  0  0  0
  -22.7811  -13.5209   21.1897 C   0  0  0  0  0  0
  -22.1662   -4.2161   21.0982 F   0  0  0  0  0  0
  -21.5626   -3.4541   25.7737 F   0  0  0  0  0  0
  -29.9665  -13.6027   20.3887 N   0  0  0  0  0  0
  -26.2906  -12.9442   20.3266 N   0  0  0  0  0  0
  -25.9333  -11.6573   20.5737 N   0  0  0  0  0  0
  -22.0465  -12.8176   22.0438 N   0  0  0  0  0  0
  -25.4126  -15.1949   20.4117 N   0  0  0  0  0  0
  -31.7643  -14.9372   20.1396 O   0  0  0  0  0  0
  -21.6643   -6.8884   21.4247 O   0  0  0  0  0  0
  -22.3487  -14.5517   20.6753 O   0  0  0  0  0  0
  -24.6373  -31.8467   23.1910 C   0  0  0  0  0  0
  -25.9173  -32.4714   23.8273 C   0  0  1  0  0  0
  -27.2194  -27.1848   20.1554 C   0  0  0  0  0  0
  -25.5938  -33.8514   24.2191 N   0  0  0  0  0  0
  -23.4396  -30.4688   21.5334 C   0  0  2  0  0  0
  -24.8932  -28.8998   20.1126 C   0  0  0  0  0  0
  -22.7556  -29.4558   22.4842 C   0  0  0  0  0  0
  -18.0313  -28.1416   22.8468 C   0  0  0  0  0  0
  -24.1489  -36.7263   23.2647 C   0  0  0  0  0  0
  -25.9927  -30.7378   21.3824 C   0  0  0  0  0  0
  -26.0675  -29.3516   20.7294 C   0  0  0  0  0  0
  -27.2359  -28.5082   20.7356 C   0  0  0  0  0  0
  -26.0270  -26.8198   19.5000 C   0  0  0  0  0  0
  -24.8811  -27.6441   19.4854 C   0  0  0  0  0  0
  -23.6685  -29.7988   20.1527 C   0  0  0  0  0  0
  -25.4110  -36.3032   24.0322 C   0  0  1  0  0  0
  -20.5921  -28.3709   23.1252 C   0  0  2  0  0  0
  -20.6798  -26.9414   22.5409 C   0  0  0  0  0  0
  -19.5777  -26.6377   21.5220 C   0  0  0  0  0  0
  -18.1946  -26.7948   22.1620 C   0  0  0  0  0  0
  -19.1568  -28.8874   23.2865 C   0  0  0  0  0  0
  -18.9494  -30.1477   23.8879 C   0  0  0  0  0  0
  -17.6493  -30.6598   24.0565 C   0  0  0  0  0  0
  -25.9053  -34.9417   23.5062 C   0  0  0  0  0  0
  -16.5384  -29.9100   23.6345 C   0  0  0  0  0  0
  -16.7295  -28.6539   23.0332 C   0  0  0  0  0  0
  -26.4507  -31.6566   25.0694 C   0  0  0  0  0  0
  -25.3696  -31.3794   26.1393 C   0  0  0  0  0  0
  -27.0330  -30.2953   24.6233 C   0  0  0  0  0  0
  -27.6035  -32.4318   25.7489 C   0  0  0  0  0  0
  -27.5571  -37.1775   24.8466 C   0  0  0  0  0  0
  -21.4247  -29.3043   22.3617 N   0  0  0  0  0  0
  -26.4273  -37.3742   23.9416 N   0  0  0  0  0  0
  -24.7093  -31.0375   22.0921 N   0  0  0  0  0  0
  -23.4229  -28.8091   23.2954 O   0  0  0  0  0  0
  -28.2756  -26.2189   20.1543 O   0  0  0  0  0  0
  -26.5642  -34.8918   22.4634 O   0  0  0  0  0  0
  -23.5502  -32.1322   23.7166 O   0  0  0  0  0  0
  -27.5113  -22.4419   20.2230 C   0  0  0  0  0  0
  -27.7115  -21.0106   20.1873 C   0  0  0  0  0  0
  -29.7958  -22.7186   20.7363 C   0  0  0  0  0  0
  -28.5348  -23.3873   20.5403 C   0  0  0  0  0  0
  -28.9458  -20.3297   20.4534 C   0  0  0  0  0  0
  -30.0089  -21.2726   20.6933 C   0  0  0  0  0  0
  -27.0169  -24.9524   21.9656 C   0  0  0  0  0  0
  -34.0600  -19.4381   18.3411 C   0  0  0  0  0  0
  -34.5620  -20.6327   20.5107 C   0  0  0  0  0  0
  -28.9261  -18.6853   20.5867 C   0  0  0  0  0  0
  -31.4205  -20.7599   20.9360 C   0  0  0  0  0  0
  -32.1681  -20.5370   19.6073 C   0  0  0  0  0  0
  -30.1046  -17.5311   20.3998 C   0  0  0  0  0  0
  -28.2201  -24.9355   21.0010 C   0  0  2  0  0  0
  -33.5212  -19.8093   19.7329 C   0  0  0  0  0  0
  -29.7788  -16.0093   20.5748 N   0  0  0  0  0  0
  -31.4738  -12.6503   19.1873 H   0  0  0  0  0  0
  -30.3877  -11.5517   19.9904 H   0  0  0  0  0  0
  -29.8095  -11.7337   17.5476 H   0  0  0  0  0  0
  -29.6334  -13.4636   17.7018 H   0  0  0  0  0  0
  -27.8958  -11.2911   18.9104 H   0  0  0  0  0  0
  -27.3874  -12.5317   17.7951 H   0  0  0  0  0  0
  -27.6129  -14.2600   19.4497 H   0  0  0  0  0  0
  -28.7408  -12.2234   21.4282 H   0  0  0  0  0  0
  -28.4020  -13.8992   21.7826 H   0  0  0  0  0  0
  -25.2775   -9.5684   22.4764 H   0  0  0  0  0  0
  -24.0021   -7.4628   22.7466 H   0  0  0  0  0  0
  -21.0861   -8.8779   19.8943 H   0  0  0  0  0  0
  -22.3724  -10.9675   19.6168 H   0  0  0  0  0  0
  -21.2004   -7.6159   23.9730 H   0  0  0  0  0  0
  -21.1484   -6.0527   25.9085 H   0  0  0  0  0  0
  -22.0594   -2.7618   23.2846 H   0  0  0  0  0  0
  -22.4088  -11.9832   22.4806 H   0  0  0  0  0  0
  -21.1082  -13.1181   22.2657 H   0  0  0  0  0  0
  -24.6379  -15.8413   20.5161 H   0  0  0  0  0  0
  -26.2473  -15.6346   20.0453 H   0  0  0  0  0  0
  -26.7234  -32.5328   23.0997 H   0  0  0  0  0  0
  -25.0069  -33.9640   25.0331 H   0  0  0  0  0  0
  -22.7395  -31.2937   21.3777 H   0  0  0  0  0  0
  -23.3749  -35.9598   23.3295 H   0  0  0  0  0  0
  -24.3586  -36.8901   22.2068 H   0  0  0  0  0  0
  -23.7263  -37.6469   23.6678 H   0  0  0  0  0  0
  -26.1356  -31.4909   20.6075 H   0  0  0  0  0  0
  -26.8696  -30.7937   22.0162 H   0  0  0  0  0  0
  -28.1354  -28.8495   21.2291 H   0  0  0  0  0  0
  -25.9709  -25.8504   19.0242 H   0  0  0  0  0  0
  -23.9829  -27.2910   18.9986 H   0  0  0  0  0  0
  -23.8132  -30.5751   19.4012 H   0  0  0  0  0  0
  -22.7836  -29.2452   19.8321 H   0  0  0  0  0  0
  -25.1292  -36.1852   25.0814 H   0  0  0  0  0  0
  -21.0006  -28.3282   24.1379 H   0  0  0  0  0  0
  -20.5690  -26.2303   23.3612 H   0  0  0  0  0  0
  -21.6661  -26.7421   22.1203 H   0  0  0  0  0  0
  -19.6935  -25.6282   21.1260 H   0  0  0  0  0  0
  -19.6737  -27.3182   20.6750 H   0  0  0  0  0  0
  -17.4208  -26.6696   21.4025 H   0  0  0  0  0  0
  -18.0348  -26.0112   22.9033 H   0  0  0  0  0  0
  -19.7971  -30.7303   24.2213 H   0  0  0  0  0  0
  -17.5056  -31.6276   24.5173 H   0  0  0  0  0  0
  -15.5388  -30.2998   23.7690 H   0  0  0  0  0  0
  -15.8699  -28.0877   22.7007 H   0  0  0  0  0  0
  -24.5904  -30.7095   25.7748 H   0  0  0  0  0  0
  -24.8852  -32.2997   26.4660 H   0  0  0  0  0  0
  -25.7971  -30.9106   27.0264 H   0  0  0  0  0  0
  -26.2929  -29.6720   24.1205 H   0  0  0  0  0  0
  -27.3930  -29.7196   25.4771 H   0  0  0  0  0  0
  -27.8836  -30.4184   23.9532 H   0  0  0  0  0  0
  -27.2626  -33.3643   26.1988 H   0  0  0  0  0  0
  -28.3889  -32.6829   25.0353 H   0  0  0  0  0  0
  -28.0635  -31.8492   26.5477 H   0  0  0  0  0  0
  -28.2543  -38.0110   24.7478 H   0  0  0  0  0  0
  -28.1107  -36.2618   24.6287 H   0  0  0  0  0  0
  -27.2301  -37.1421   25.8881 H   0  0  0  0  0  0
  -20.9420  -29.8812   21.6868 H   0  0  0  0  0  0
  -26.0141  -38.2804   24.1443 H   0  0  0  0  0  0
  -26.5044  -22.8111   20.0830 H   0  0  0  0  0  0
  -26.8374  -20.4026   20.0001 H   0  0  0  0  0  0
  -30.6404  -23.3400   21.0009 H   0  0  0  0  0  0
  -27.1281  -24.1916   22.7398 H   0  0  0  0  0  0
  -26.0803  -24.7516   21.4470 H   0  0  0  0  0  0
  -26.9200  -25.9077   22.4819 H   0  0  0  0  0  0
  -35.0096  -18.9076   18.4121 H   0  0  0  0  0  0
  -34.2204  -20.3257   17.7268 H   0  0  0  0  0  0
  -33.3683  -18.7874   17.8054 H   0  0  0  0  0  0
  -35.5260  -20.1236   20.5393 H   0  0  0  0  0  0
  -34.2582  -20.7931   21.5443 H   0  0  0  0  0  0
  -34.7190  -21.6119   20.0559 H   0  0  0  0  0  0
  -28.1300  -18.3735   19.9090 H   0  0  0  0  0  0
  -28.5091  -18.5130   21.5790 H   0  0  0  0  0  0
  -31.3772  -19.8437   21.5198 H   0  0  0  0  0  0
  -31.9657  -21.4691   21.5597 H   0  0  0  0  0  0
  -32.3031  -21.4957   19.1040 H   0  0  0  0  0  0
  -31.5262  -19.9469   18.9515 H   0  0  0  0  0  0
  -30.9156  -17.7393   21.0950 H   0  0  0  0  0  0
  -30.5372  -17.6454   19.4055 H   0  0  0  0  0  0
  -29.0681  -25.1257   21.6602 H   0  0  0  0  0  0
  -33.3586  -18.8763   20.2762 H   0  0  0  0  0  0
  -28.8105  -15.8091   20.7760 H   0  0  0  0  0  0
  1 25  1  0  0  0
  1 30  2  0  0  0
  1 86  1  0  0  0
  2  3  1  0  0  0
  2 25  1  0  0  0
  2 87  1  0  0  0
  2 88  1  0  0  0
  3  4  1  0  0  0
  3 89  1  0  0  0
  3 90  1  0  0  0
  4  5  1  0  0  0
  4 91  1  0  0  0
  4 92  1  0  0  0
  5  6  1  0  0  0
  5 26  1  0  0  0
  5 93  1  0  0  0
  6 25  1  0  0  0
  6 94  1  0  0  0
  6 95  1  0  0  0
  7  8  2  0  0  0
  7 26  1  0  0  0
  7 29  1  0  0  0
  8  9  1  0  0  0
  8 22  1  0  0  0
  9 10  1  0  0  0
  9 27  2  0  0  0
 10 11  2  0  0  0
 10 15  1  0  0  0
 11 12  1  0  0  0
 11 96  1  0  0  0
 12 13  2  0  0  0
 12 97  1  0  0  0
 13 14  1  0  0  0
 13 31  1  0  0  0
 14 15  2  0  0  0
 14 98  1  0  0  0
 15 99  1  0  0  0
 16 17  2  0  0  0
 16 21  1  0  0  0
 16 31  1  0  0  0
 17 18  1  0  0  0
 17100  1  0  0  0
 18 19  2  0  0  0
 18101  1  0  0  0
 19 20  1  0  0  0
 19 24  1  0  0  0
 20 21  2  0  0  0
 20102  1  0  0  0
 21 23  1  0  0  0
 22 28  1  0  0  0
 22 32  2  0  0  0
 26 27  1  0  0  0
 28103  1  0  0  0
 28104  1  0  0  0
 29105  1  0  0  0
 29106  1  0  0  0
 33 34  1  0  0  0
 33 66  1  0  0  0
 33 70  2  0  0  0
 34 36  1  0  0  0
 34 59  1  0  0  0
 34107  1  0  0  0
 35 44  2  0  0  0
 35 45  1  0  0  0
 35 68  1  0  0  0
 36 56  1  0  0  0
 36108  1  0  0  0
 37 39  1  0  0  0
 37 47  1  0  0  0
 37 66  1  0  0  0
 37109  1  0  0  0
 38 43  2  0  0  0
 38 46  1  0  0  0
 38 47  1  0  0  0
 39 64  1  0  0  0
 39 67  2  0  0  0
 40 52  1  0  0  0
 40 53  2  0  0  0
 40 58  1  0  0  0
 41110  1  0  0  0
 41111  1  0  0  0
 41112  1  0  0  0
 41 48  1  0  0  0
 42 43  1  0  0  0
 42 66  1  0  0  0
 42113  1  0  0  0
 42114  1  0  0  0
 43 44  1  0  0  0
 44115  1  0  0  0
 45 46  2  0  0  0
 45116  1  0  0  0
 46117  1  0  0  0
 47118  1  0  0  0
 47119  1  0  0  0
 48 56  1  0  0  0
 48 65  1  0  0  0
 48120  1  0  0  0
 49 50  1  0  0  0
 49 53  1  0  0  0
 49 64  1  0  0  0
 49121  1  0  0  0
 50 51  1  0  0  0
 50122  1  0  0  0
 50123  1  0  0  0
 51 52  1  0  0  0
 51124  1  0  0  0
 51125  1  0  0  0
 52126  1  0  0  0
 52127  1  0  0  0
 53 54  1  0  0  0
 54 55  2  0  0  0
 54128  1  0  0  0
 55 57  1  0  0  0
 55129  1  0  0  0
 56 69  2  0  0  0
 57 58  2  0  0  0
 57130  1  0  0  0
 58131  1  0  0  0
 59 60  1  0  0  0
 59 61  1  0  0  0
 59 62  1  0  0  0
 60132  1  0  0  0
 60133  1  0  0  0
 60134  1  0  0  0
 61135  1  0  0  0
 61136  1  0  0  0
 61137  1  0  0  0
 62138  1  0  0  0
 62139  1  0  0  0
 62140  1  0  0  0
 63 65  1  0  0  0
 63141  1  0  0  0
 63142  1  0  0  0
 63143  1  0  0  0
 64144  1  0  0  0
 65145  1  0  0  0
 68 84  1  0  0  0
 71 72  2  0  0  0
 71 74  1  0  0  0
 71146  1  0  0  0
 72 75  1  0  0  0
 72147  1  0  0  0
 73 74  2  0  0  0
 73 76  1  0  0  0
 73148  1  0  0  0
 74 84  1  0  0  0
 75 76  2  0  0  0
 75 80  1  0  0  0
 76 81  1  0  0  0
 77149  1  0  0  0
 77150  1  0  0  0
 77151  1  0  0  0
 77 84  1  0  0  0
 78152  1  0  0  0
 78153  1  0  0  0
 78154  1  0  0  0
 78 85  1  0  0  0
 79 85  1  0  0  0
 79155  1  0  0  0
 79156  1  0  0  0
 79157  1  0  0  0
 80 83  1  0  0  0
 80158  1  0  0  0
 80159  1  0  0  0
 81 82  1  0  0  0
 81160  1  0  0  0
 81161  1  0  0  0
 82 85  1  0  0  0
 82162  1  0  0  0
 82163  1  0  0  0
 83 86  1  0  0  0
 83164  1  0  0  0
 83165  1  0  0  0
 84166  1  0  0  0
 85167  1  0  0  0
 86168  1  0  0  0
M  ISO  4   1 100  68 101  84 101  86 100
M  END
> <chiral flag>
0

> <version>
0

> <s_m_source_file>
/data/baiqing/PycharmProjects/Reinvent-master-3.2/result/LINK_invent/BTK/process_docking_weight1_custom_sum_contain_oxygen_bond_distance_aromatic_linkinvent_7_9_3/rearranged_h_0108.sdf

> <i_m_source_file_index>
6

> <r_mmod_Potential_Energy-OPLS-2005>
405.568664550781

> <r_mmod_Stretch_Energy-OPLS-2005>
197.99284362793

> <r_mmod_Bend_Energy-OPLS-2005>
256.837799072266

> <r_mmod_Torsional_Energy-OPLS-2005>
257.210540771484

> <r_mmod_Improper_Torsional_Energy-OPLS-2005>
8.30386447906494

> <r_mmod_Van_der_Waal_Energy-OPLS-2005>
125.888328552246

> <r_mmod_Electrostatic_Energy-OPLS-2005>
-379.603576660156

> <r_mmod_Solvation_Energy-OPLS-2005>
-200.820159912109

> <b_mmod_Minimization_Converged-OPLS-2005>
0

> <r_mmod_RMS_Derivative-OPLS-2005>
2.30990433692932

$$$$
6
                    3D
 Structure written by MMmdl.
160168  0  0  1  0            999 V2000
  -30.4988  -15.0233   20.3855 C   0  0  0  0  0  0
  -30.4304  -12.6398   19.4879 C   0  0  0  0  0  0
  -29.5160  -12.5294   18.2470 C   0  0  0  0  0  0
  -28.0434  -12.3359   18.6566 C   0  0  0  0  0  0
  -27.6164  -13.2612   19.8283 C   0  0  2  0  0  0
  -28.6631  -13.3056   20.9589 C   0  0  0  0  0  0
  -25.2401  -13.8251   20.5735 C   0  0  0  0  0  0
  -24.1736  -13.0427   20.9251 C   0  0  0  0  0  0
  -24.6368  -11.6919   20.8712 C   0  0  0  0  0  0
  -23.9062  -10.4273   21.0382 C   0  0  0  0  0  0
  -24.3609   -9.4198   21.9179 C   0  0  0  0  0  0
  -23.6270   -8.2238   22.0755 C   0  0  0  0  0  0
  -22.4262   -8.0255   21.3545 C   0  0  0  0  0  0
  -21.9894   -9.0223   20.4652 C   0  0  0  0  0  0
  -22.7217  -10.2108   20.3047 C   0  0  0  0  0  0
  -21.6857   -6.0699   22.5276 C   0  0  0  0  0  0
  -21.4006   -6.5609   23.8206 C   0  0  0  0  0  0
  -21.3678   -5.6768   24.9173 C   0  0  0  0  0  0
  -21.6074   -4.3040   24.7245 C   0  0  0  0  0  0
  -21.8807   -3.8116   23.4364 C   0  0  0  0  0  0
  -21.9192   -4.6919   22.3403 C   0  0  0  0  0  0
  -22.7768  -13.5192   21.1885 C   0  0  0  0  0  0
  -22.1650   -4.2104   21.0975 F   0  0  0  0  0  0
  -21.5650   -3.4524   25.7753 F   0  0  0  0  0  0
  -29.9148  -13.7518   20.3434 N   0  0  0  0  0  0
  -26.2817  -12.9495   20.3201 N   0  0  0  0  0  0
  -25.9305  -11.6617   20.5712 N   0  0  0  0  0  0
  -22.0421  -12.8178   22.0456 N   0  0  0  0  0  0
  -25.4032  -15.1972   20.4165 N   0  0  0  0  0  0
  -31.7124  -15.0576   20.1509 O   0  0  0  0  0  0
  -21.6639   -6.8832   21.4233 O   0  0  0  0  0  0
  -22.3442  -14.5478   20.6705 O   0  0  0  0  0  0
  -24.6480  -31.8381   23.1827 C   0  0  0  0  0  0
  -25.9199  -32.4674   23.8248 C   0  0  1  0  0  0
  -27.2189  -27.0580   20.1734 C   0  0  0  0  0  0
  -25.5934  -33.8492   24.2173 N   0  0  0  0  0  0
  -23.4564  -30.4521   21.5280 C   0  0  2  0  0  0
  -24.9044  -28.8462   20.1332 C   0  0  0  0  0  0
  -22.7621  -29.4509   22.4847 C   0  0  0  0  0  0
  -18.0332  -28.1370   22.8493 C   0  0  0  0  0  0
  -24.1471  -36.7219   23.2651 C   0  0  0  0  0  0
  -26.0169  -30.6801   21.3984 C   0  0  0  0  0  0
  -26.0867  -29.2799   20.7485 C   0  0  0  0  0  0
  -27.2442  -28.4051   20.7395 C   0  0  0  0  0  0
  -26.0059  -26.7308   19.5301 C   0  0  0  0  0  0
  -24.8795  -27.5867   19.5146 C   0  0  0  0  0  0
  -23.6912  -29.7658   20.1557 C   0  0  0  0  0  0
  -25.4127  -36.3032   24.0329 C   0  0  1  0  0  0
  -20.5944  -28.3694   23.1241 C   0  0  2  0  0  0
  -20.6790  -26.9398   22.5407 C   0  0  0  0  0  0
  -19.5764  -26.6360   21.5211 C   0  0  0  0  0  0
  -18.1953  -26.7921   22.1623 C   0  0  0  0  0  0
  -19.1588  -28.8862   23.2851 C   0  0  0  0  0  0
  -18.9505  -30.1462   23.8873 C   0  0  0  0  0  0
  -17.6490  -30.6578   24.0542 C   0  0  0  0  0  0
  -25.9066  -34.9396   23.5053 C   0  0  0  0  0  0
  -16.5377  -29.9049   23.6347 C   0  0  0  0  0  0
  -16.7314  -28.6458   23.0395 C   0  0  0  0  0  0
  -26.4491  -31.6607   25.0739 C   0  0  0  0  0  0
  -25.3645  -31.3812   26.1414 C   0  0  0  0  0  0
  -27.0368  -30.3012   24.6373 C   0  0  0  0  0  0
  -27.6043  -32.4375   25.7520 C   0  0  0  0  0  0
  -27.5586  -37.1790   24.8478 C   0  0  0  0  0  0
  -21.4313  -29.3008   22.3613 N   0  0  0  0  0  0
  -26.4289  -37.3754   23.9417 N   0  0  0  0  0  0
  -24.7270  -31.0153   22.0900 N   0  0  0  0  0  0
  -23.4249  -28.8128   23.3055 O   0  0  0  0  0  0
  -28.3251  -26.1263   20.0746 O   0  0  0  0  0  0
  -26.5654  -34.8902   22.4627 O   0  0  0  0  0  0
  -23.5574  -32.1286   23.6989 O   0  0  0  0  0  0
  -28.6937  -20.2666   20.3535 C   0  0  0  0  0  0
  -30.3601  -21.6500   20.0117 C   0  0  0  0  0  0
  -29.8175  -19.3703   20.2803 C   0  0  0  0  0  0
  -30.8526  -20.3525   20.0197 C   0  0  0  0  0  0
  -32.6239  -19.9416   18.2444 C   0  0  0  0  0  0
  -27.8768  -23.2255   18.5192 C   0  0  0  0  0  0
  -26.7355  -22.7702   20.6935 C   0  0  0  0  0  0
  -30.3161  -17.7352   20.3879 C   0  0  0  0  0  0
  -28.5206  -24.6364   20.5891 C   0  0  0  0  0  0
  -32.3174  -20.0259   19.7497 C   0  0  1  0  0  0
  -28.0964  -23.0631   20.0321 C   0  0  0  0  0  0
  -28.9906  -21.7123   20.2025 N   0  0  0  0  0  0
  -29.7458  -16.2506   20.4737 N   0  0  0  0  0  0
  -33.1013  -20.9525   20.3032 F   0  0  0  0  0  0
  -31.4584  -12.8092   19.1623 H   0  0  0  0  0  0
  -30.4500  -11.6982   20.0388 H   0  0  0  0  0  0
  -29.8342  -11.6982   17.6144 H   0  0  0  0  0  0
  -29.6164  -13.4291   17.6392 H   0  0  0  0  0  0
  -27.9140  -11.2908   18.9386 H   0  0  0  0  0  0
  -27.3960  -12.4980   17.7940 H   0  0  0  0  0  0
  -27.5654  -14.2634   19.4014 H   0  0  0  0  0  0
  -28.7842  -12.3243   21.4209 H   0  0  0  0  0  0
  -28.3573  -13.9888   21.7528 H   0  0  0  0  0  0
  -25.2754   -9.5676   22.4753 H   0  0  0  0  0  0
  -23.9978   -7.4642   22.7474 H   0  0  0  0  0  0
  -21.0836   -8.8727   19.8950 H   0  0  0  0  0  0
  -22.3672  -10.9631   19.6140 H   0  0  0  0  0  0
  -21.1977   -7.6116   23.9682 H   0  0  0  0  0  0
  -21.1529   -6.0515   25.9074 H   0  0  0  0  0  0
  -22.0578   -2.7573   23.2881 H   0  0  0  0  0  0
  -22.4034  -11.9855   22.4886 H   0  0  0  0  0  0
  -21.1029  -13.1190   22.2611 H   0  0  0  0  0  0
  -24.6329  -15.8457   20.5337 H   0  0  0  0  0  0
  -26.2383  -15.6438   20.0614 H   0  0  0  0  0  0
  -26.7234  -32.5250   23.0943 H   0  0  0  0  0  0
  -25.0083  -33.9596   25.0326 H   0  0  0  0  0  0
  -22.7606  -31.2788   21.3643 H   0  0  0  0  0  0
  -23.3781  -35.9492   23.3308 H   0  0  0  0  0  0
  -24.3532  -36.8855   22.2060 H   0  0  0  0  0  0
  -23.7166  -37.6394   23.6681 H   0  0  0  0  0  0
  -26.1754  -31.4295   20.6223 H   0  0  0  0  0  0
  -26.8816  -30.7346   22.0485 H   0  0  0  0  0  0
  -28.1619  -28.7421   21.2034 H   0  0  0  0  0  0
  -25.9159  -25.7815   19.0211 H   0  0  0  0  0  0
  -23.9743  -27.2573   19.0243 H   0  0  0  0  0  0
  -23.8438  -30.5275   19.3901 H   0  0  0  0  0  0
  -22.8037  -29.2154   19.8414 H   0  0  0  0  0  0
  -25.1313  -36.1851   25.0826 H   0  0  0  0  0  0
  -21.0011  -28.3215   24.1365 H   0  0  0  0  0  0
  -20.5657  -26.2297   23.3617 H   0  0  0  0  0  0
  -21.6664  -26.7361   22.1224 H   0  0  0  0  0  0
  -19.6903  -25.6261   21.1265 H   0  0  0  0  0  0
  -19.6700  -27.3148   20.6727 H   0  0  0  0  0  0
  -17.4235  -26.6708   21.4013 H   0  0  0  0  0  0
  -18.0324  -26.0046   22.9003 H   0  0  0  0  0  0
  -19.7972  -30.7296   24.2229 H   0  0  0  0  0  0
  -17.5035  -31.6273   24.5117 H   0  0  0  0  0  0
  -15.5377  -30.2921   23.7701 H   0  0  0  0  0  0
  -15.8725  -28.0739   22.7148 H   0  0  0  0  0  0
  -24.5844  -30.7140   25.7724 H   0  0  0  0  0  0
  -24.8790  -32.2978   26.4781 H   0  0  0  0  0  0
  -25.7878  -30.9041   27.0254 H   0  0  0  0  0  0
  -26.2980  -29.6778   24.1326 H   0  0  0  0  0  0
  -27.3895  -29.7312   25.4975 H   0  0  0  0  0  0
  -27.8927  -30.4298   23.9747 H   0  0  0  0  0  0
  -27.2680  -33.3727   26.2015 H   0  0  0  0  0  0
  -28.3884  -32.6861   25.0352 H   0  0  0  0  0  0
  -28.0651  -31.8550   26.5507 H   0  0  0  0  0  0
  -28.2605  -38.0096   24.7548 H   0  0  0  0  0  0
  -28.1088  -36.2631   24.6275 H   0  0  0  0  0  0
  -27.2306  -37.1394   25.8883 H   0  0  0  0  0  0
  -20.9561  -29.8692   21.6747 H   0  0  0  0  0  0
  -26.0167  -38.2812   24.1454 H   0  0  0  0  0  0
  -27.6540  -19.9932   20.4899 H   0  0  0  0  0  0
  -30.9055  -22.5664   19.8245 H   0  0  0  0  0  0
  -32.0615  -19.1451   17.7535 H   0  0  0  0  0  0
  -33.6817  -19.7459   18.0700 H   0  0  0  0  0  0
  -32.3780  -20.8746   17.7349 H   0  0  0  0  0  0
  -27.2606  -24.0956   18.2869 H   0  0  0  0  0  0
  -27.3896  -22.3500   18.0924 H   0  0  0  0  0  0
  -28.8271  -23.3650   18.0053 H   0  0  0  0  0  0
  -26.0262  -23.5834   20.5389 H   0  0  0  0  0  0
  -26.8473  -22.6611   21.7716 H   0  0  0  0  0  0
  -26.2748  -21.8576   20.3146 H   0  0  0  0  0  0
  -30.9963  -17.7458   21.2395 H   0  0  0  0  0  0
  -30.9661  -17.6440   19.5168 H   0  0  0  0  0  0
  -29.6099  -24.5952   20.5995 H   0  0  0  0  0  0
  -28.2794  -24.6729   21.6504 H   0  0  0  0  0  0
  -32.6019  -19.0913   20.2359 H   0  0  0  0  0  0
  -28.7486  -16.1540   20.6104 H   0  0  0  0  0  0
  1 25  1  0  0  0
  1 30  2  0  0  0
  1 83  1  0  0  0
  2  3  1  0  0  0
  2 25  1  0  0  0
  2 85  1  0  0  0
  2 86  1  0  0  0
  3  4  1  0  0  0
  3 87  1  0  0  0
  3 88  1  0  0  0
  4  5  1  0  0  0
  4 89  1  0  0  0
  4 90  1  0  0  0
  5  6  1  0  0  0
  5 26  1  0  0  0
  5 91  1  0  0  0
  6 25  1  0  0  0
  6 92  1  0  0  0
  6 93  1  0  0  0
  7  8  2  0  0  0
  7 26  1  0  0  0
  7 29  1  0  0  0
  8  9  1  0  0  0
  8 22  1  0  0  0
  9 10  1  0  0  0
  9 27  2  0  0  0
 10 11  2  0  0  0
 10 15  1  0  0  0
 11 12  1  0  0  0
 11 94  1  0  0  0
 12 13  2  0  0  0
 12 95  1  0  0  0
 13 14  1  0  0  0
 13 31  1  0  0  0
 14 15  2  0  0  0
 14 96  1  0  0  0
 15 97  1  0  0  0
 16 17  2  0  0  0
 16 21  1  0  0  0
 16 31  1  0  0  0
 17 18  1  0  0  0
 17 98  1  0  0  0
 18 19  2  0  0  0
 18 99  1  0  0  0
 19 20  1  0  0  0
 19 24  1  0  0  0
 20 21  2  0  0  0
 20100  1  0  0  0
 21 23  1  0  0  0
 22 28  1  0  0  0
 22 32  2  0  0  0
 26 27  1  0  0  0
 28101  1  0  0  0
 28102  1  0  0  0
 29103  1  0  0  0
 29104  1  0  0  0
 33 34  1  0  0  0
 33 66  1  0  0  0
 33 70  2  0  0  0
 34 36  1  0  0  0
 34 59  1  0  0  0
 34105  1  0  0  0
 35 44  2  0  0  0
 35 45  1  0  0  0
 35 68  1  0  0  0
 36 56  1  0  0  0
 36106  1  0  0  0
 37 39  1  0  0  0
 37 47  1  0  0  0
 37 66  1  0  0  0
 37107  1  0  0  0
 38 43  2  0  0  0
 38 46  1  0  0  0
 38 47  1  0  0  0
 39 64  1  0  0  0
 39 67  2  0  0  0
 40 52  1  0  0  0
 40 53  2  0  0  0
 40 58  1  0  0  0
 41108  1  0  0  0
 41109  1  0  0  0
 41110  1  0  0  0
 41 48  1  0  0  0
 42 43  1  0  0  0
 42 66  1  0  0  0
 42111  1  0  0  0
 42112  1  0  0  0
 43 44  1  0  0  0
 44113  1  0  0  0
 45 46  2  0  0  0
 45114  1  0  0  0
 46115  1  0  0  0
 47116  1  0  0  0
 47117  1  0  0  0
 48 56  1  0  0  0
 48 65  1  0  0  0
 48118  1  0  0  0
 49 50  1  0  0  0
 49 53  1  0  0  0
 49 64  1  0  0  0
 49119  1  0  0  0
 50 51  1  0  0  0
 50120  1  0  0  0
 50121  1  0  0  0
 51 52  1  0  0  0
 51122  1  0  0  0
 51123  1  0  0  0
 52124  1  0  0  0
 52125  1  0  0  0
 53 54  1  0  0  0
 54 55  2  0  0  0
 54126  1  0  0  0
 55 57  1  0  0  0
 55127  1  0  0  0
 56 69  2  0  0  0
 57 58  2  0  0  0
 57128  1  0  0  0
 58129  1  0  0  0
 59 60  1  0  0  0
 59 61  1  0  0  0
 59 62  1  0  0  0
 60130  1  0  0  0
 60131  1  0  0  0
 60132  1  0  0  0
 61133  1  0  0  0
 61134  1  0  0  0
 61135  1  0  0  0
 62136  1  0  0  0
 62137  1  0  0  0
 62138  1  0  0  0
 63 65  1  0  0  0
 63139  1  0  0  0
 63140  1  0  0  0
 63141  1  0  0  0
 64142  1  0  0  0
 65143  1  0  0  0
 68 79  1  0  0  0
 71 73  2  0  0  0
 71 82  1  0  0  0
 71144  1  0  0  0
 72 74  2  0  0  0
 72 82  1  0  0  0
 72145  1  0  0  0
 73 74  1  0  0  0
 73 78  1  0  0  0
 74 80  1  0  0  0
 75146  1  0  0  0
 75147  1  0  0  0
 75148  1  0  0  0
 75 80  1  0  0  0
 76149  1  0  0  0
 76150  1  0  0  0
 76151  1  0  0  0
 76 81  1  0  0  0
 77 81  1  0  0  0
 77152  1  0  0  0
 77153  1  0  0  0
 77154  1  0  0  0
 78 83  1  0  0  0
 78155  1  0  0  0
 78156  1  0  0  0
 79 81  1  0  0  0
 79157  1  0  0  0
 79158  1  0  0  0
 80 84  1  0  0  0
 80159  1  0  0  0
 81 82  1  0  0  0
 83160  1  0  0  0
M  ISO  4   1 100  68 101  79 101  83 100
M  END
> <chiral flag>
0

> <version>
0

> <s_m_source_file>
/data/baiqing/PycharmProjects/Reinvent-master-3.2/result/LINK_invent/BTK/process_docking_weight1_custom_sum_contain_oxygen_bond_distance_aromatic_linkinvent_7_9_3/rearranged_h_0108.sdf

> <i_m_source_file_index>
7

> <r_mmod_Potential_Energy-OPLS-2005>
758.240173339844

> <r_mmod_Stretch_Energy-OPLS-2005>
340.368469238281

> <r_mmod_Bend_Energy-OPLS-2005>
430.718688964844

> <r_mmod_Torsional_Energy-OPLS-2005>
265.086486816406

> <r_mmod_Improper_Torsional_Energy-OPLS-2005>
6.34826612472534

> <r_mmod_Van_der_Waal_Energy-OPLS-2005>
105.336006164551

> <r_mmod_Electrostatic_Energy-OPLS-2005>
-424.066589355469

> <r_mmod_Solvation_Energy-OPLS-2005>
-207.279083251953

> <b_mmod_Minimization_Converged-OPLS-2005>
0

> <r_mmod_RMS_Derivative-OPLS-2005>
4.71710634231567

$$$$
7
                    3D
 Structure written by MMmdl.
154162  0  0  1  0            999 V2000
  -30.5326  -15.0004   20.4313 C   0  0  0  0  0  0
  -30.4422  -12.6302   19.5021 C   0  0  0  0  0  0
  -29.5306  -12.5588   18.2560 C   0  0  0  0  0  0
  -28.0594  -12.3430   18.6614 C   0  0  0  0  0  0
  -27.6326  -13.2541   19.8443 C   0  0  2  0  0  0
  -28.6743  -13.2924   20.9814 C   0  0  0  0  0  0
  -25.2508  -13.8221   20.5743 C   0  0  0  0  0  0
  -24.1805  -13.0437   20.9208 C   0  0  0  0  0  0
  -24.6393  -11.6928   20.8729 C   0  0  0  0  0  0
  -23.9048  -10.4314   21.0378 C   0  0  0  0  0  0
  -24.3607   -9.4250   21.9170 C   0  0  0  0  0  0
  -23.6305   -8.2271   22.0737 C   0  0  0  0  0  0
  -22.4284   -8.0283   21.3537 C   0  0  0  0  0  0
  -21.9919   -9.0242   20.4627 C   0  0  0  0  0  0
  -22.7211  -10.2139   20.3051 C   0  0  0  0  0  0
  -21.6880   -6.0732   22.5269 C   0  0  0  0  0  0
  -21.4011   -6.5633   23.8191 C   0  0  0  0  0  0
  -21.3672   -5.6790   24.9170 C   0  0  0  0  0  0
  -21.6046   -4.3052   24.7221 C   0  0  0  0  0  0
  -21.8816   -3.8131   23.4351 C   0  0  0  0  0  0
  -21.9194   -4.6952   22.3401 C   0  0  0  0  0  0
  -22.7827  -13.5226   21.1845 C   0  0  0  0  0  0
  -22.1663   -4.2132   21.0983 F   0  0  0  0  0  0
  -21.5645   -3.4539   25.7743 F   0  0  0  0  0  0
  -29.9347  -13.7345   20.3727 N   0  0  0  0  0  0
  -26.2907  -12.9449   20.3276 N   0  0  0  0  0  0
  -25.9330  -11.6565   20.5699 N   0  0  0  0  0  0
  -22.0461  -12.8223   22.0400 N   0  0  0  0  0  0
  -25.4177  -15.1956   20.4151 N   0  0  0  0  0  0
  -31.7430  -15.0331   20.1827 O   0  0  0  0  0  0
  -21.6663   -6.8873   21.4229 O   0  0  0  0  0  0
  -22.3523  -14.5512   20.6643 O   0  0  0  0  0  0
  -24.6472  -31.8407   23.1790 C   0  0  0  0  0  0
  -25.9225  -32.4689   23.8187 C   0  0  1  0  0  0
  -27.2179  -27.0822   20.1831 C   0  0  0  0  0  0
  -25.5941  -33.8498   24.2093 N   0  0  0  0  0  0
  -23.4502  -30.4559   21.5295 C   0  0  2  0  0  0
  -24.9007  -28.8674   20.1190 C   0  0  0  0  0  0
  -22.7573  -29.4530   22.4850 C   0  0  0  0  0  0
  -18.0296  -28.1438   22.8508 C   0  0  0  0  0  0
  -24.1449  -36.7227   23.2650 C   0  0  0  0  0  0
  -26.0086  -30.7042   21.3768 C   0  0  0  0  0  0
  -26.0845  -29.3075   20.7258 C   0  0  0  0  0  0
  -27.2413  -28.4344   20.7329 C   0  0  0  0  0  0
  -26.0068  -26.7518   19.5359 C   0  0  0  0  0  0
  -24.8780  -27.6026   19.5106 C   0  0  0  0  0  0
  -23.6800  -29.7773   20.1537 C   0  0  0  0  0  0
  -25.4103  -36.3014   24.0297 C   0  0  1  0  0  0
  -20.5906  -28.3743   23.1255 C   0  0  2  0  0  0
  -20.6782  -26.9434   22.5446 C   0  0  0  0  0  0
  -19.5747  -26.6393   21.5261 C   0  0  0  0  0  0
  -18.1916  -26.7982   22.1653 C   0  0  0  0  0  0
  -19.1558  -28.8915   23.2858 C   0  0  0  0  0  0
  -18.9494  -30.1511   23.8872 C   0  0  0  0  0  0
  -17.6505  -30.6643   24.0580 C   0  0  0  0  0  0
  -25.9102  -34.9414   23.5012 C   0  0  0  0  0  0
  -16.5384  -29.9151   23.6359 C   0  0  0  0  0  0
  -16.7290  -28.6561   23.0381 C   0  0  0  0  0  0
  -26.4520  -31.6588   25.0658 C   0  0  0  0  0  0
  -25.3671  -31.3841   26.1328 C   0  0  0  0  0  0
  -27.0372  -30.2976   24.6251 C   0  0  0  0  0  0
  -27.5986  -32.4401   25.7480 C   0  0  0  0  0  0
  -27.5529  -37.1758   24.8475 C   0  0  0  0  0  0
  -21.4254  -29.3044   22.3609 N   0  0  0  0  0  0
  -26.4237  -37.3746   23.9426 N   0  0  0  0  0  0
  -24.7225  -31.0223   22.0838 N   0  0  0  0  0  0
  -23.4189  -28.8100   23.3042 O   0  0  0  0  0  0
  -28.2646  -26.0778   20.2772 O   0  0  0  0  0  0
  -26.5710  -34.8921   22.4608 O   0  0  0  0  0  0
  -23.5593  -32.1287   23.7011 O   0  0  0  0  0  0
  -28.0182  -19.5288   20.5331 C   0  0  0  0  0  0
  -27.7640  -20.9038   20.5273 C   0  0  0  0  0  0
  -29.9109  -20.5639   20.4754 C   0  0  0  0  0  0
  -29.4222  -19.2203   20.5037 C   0  0  0  0  0  0
  -30.3706  -23.6040   19.6804 C   0  0  0  0  0  0
  -29.5489  -23.4944   22.0343 C   0  0  0  0  0  0
  -30.2587  -17.7485   20.5227 C   0  0  0  0  0  0
  -28.0236  -24.5097   20.2121 C   0  0  0  0  0  0
  -29.1539  -23.2615   20.5641 C   0  0  0  0  0  0
  -28.9378  -21.6550   20.4661 N   0  0  0  0  0  0
  -29.7868  -16.2225   20.5592 N   0  0  0  0  0  0
  -31.4753  -12.7980   19.1953 H   0  0  0  0  0  0
  -30.4407  -11.6775   20.0347 H   0  0  0  0  0  0
  -29.8540  -11.7623   17.5870 H   0  0  0  0  0  0
  -29.6243  -13.4899   17.6942 H   0  0  0  0  0  0
  -27.9380  -11.2946   18.9326 H   0  0  0  0  0  0
  -27.4066  -12.5147   17.8052 H   0  0  0  0  0  0
  -27.5895  -14.2613   19.4299 H   0  0  0  0  0  0
  -28.7850  -12.3132   21.4499 H   0  0  0  0  0  0
  -28.3631  -13.9783   21.7712 H   0  0  0  0  0  0
  -25.2756   -9.5733   22.4751 H   0  0  0  0  0  0
  -24.0009   -7.4669   22.7478 H   0  0  0  0  0  0
  -21.0845   -8.8722   19.8957 H   0  0  0  0  0  0
  -22.3626  -10.9657   19.6162 H   0  0  0  0  0  0
  -21.1992   -7.6138   23.9672 H   0  0  0  0  0  0
  -21.1507   -6.0543   25.9064 H   0  0  0  0  0  0
  -22.0583   -2.7590   23.2850 H   0  0  0  0  0  0
  -22.4056  -11.9958   22.4931 H   0  0  0  0  0  0
  -21.1031  -13.1196   22.2453 H   0  0  0  0  0  0
  -24.6512  -15.8467   20.5460 H   0  0  0  0  0  0
  -26.2481  -15.6298   20.0309 H   0  0  0  0  0  0
  -26.7295  -32.5299   23.0914 H   0  0  0  0  0  0
  -25.0018  -33.9594   25.0194 H   0  0  0  0  0  0
  -22.7522  -31.2804   21.3693 H   0  0  0  0  0  0
  -23.3730  -35.9543   23.3356 H   0  0  0  0  0  0
  -24.3535  -36.8849   22.2059 H   0  0  0  0  0  0
  -23.7174  -37.6410   23.6704 H   0  0  0  0  0  0
  -26.1547  -31.4538   20.5974 H   0  0  0  0  0  0
  -26.8829  -30.7684   22.0118 H   0  0  0  0  0  0
  -28.1421  -28.7709   21.2266 H   0  0  0  0  0  0
  -25.9004  -25.7810   19.0766 H   0  0  0  0  0  0
  -23.9686  -27.2553   19.0368 H   0  0  0  0  0  0
  -23.8232  -30.5482   19.3951 H   0  0  0  0  0  0
  -22.7902  -29.2256   19.8442 H   0  0  0  0  0  0
  -25.1278  -36.1809   25.0784 H   0  0  0  0  0  0
  -20.9973  -28.3379   24.1386 H   0  0  0  0  0  0
  -20.5701  -26.2344   23.3668 H   0  0  0  0  0  0
  -21.6635  -26.7473   22.1197 H   0  0  0  0  0  0
  -19.6892  -25.6283   21.1323 H   0  0  0  0  0  0
  -19.6703  -27.3184   20.6771 H   0  0  0  0  0  0
  -17.4173  -26.6746   21.4062 H   0  0  0  0  0  0
  -18.0293  -26.0129   22.9042 H   0  0  0  0  0  0
  -19.7975  -30.7326   24.2191 H   0  0  0  0  0  0
  -17.5083  -31.6324   24.5189 H   0  0  0  0  0  0
  -15.5384  -30.3072   23.7717 H   0  0  0  0  0  0
  -15.8663  -28.0902   22.7116 H   0  0  0  0  0  0
  -24.5846  -30.7194   25.7649 H   0  0  0  0  0  0
  -24.8864  -32.3064   26.4612 H   0  0  0  0  0  0
  -25.7917  -30.9100   27.0180 H   0  0  0  0  0  0
  -26.2979  -29.6709   24.1240 H   0  0  0  0  0  0
  -27.3959  -29.7270   25.4823 H   0  0  0  0  0  0
  -27.8893  -30.4202   23.9555 H   0  0  0  0  0  0
  -27.2516  -33.3732   26.1941 H   0  0  0  0  0  0
  -28.3876  -32.6948   25.0388 H   0  0  0  0  0  0
  -28.0561  -31.8616   26.5509 H   0  0  0  0  0  0
  -28.2544  -38.0047   24.7511 H   0  0  0  0  0  0
  -28.1005  -36.2576   24.6312 H   0  0  0  0  0  0
  -27.2270  -37.1430   25.8884 H   0  0  0  0  0  0
  -20.9469  -29.8726   21.6758 H   0  0  0  0  0  0
  -26.0092  -38.2780   24.1543 H   0  0  0  0  0  0
  -27.2320  -18.7875   20.5842 H   0  0  0  0  0  0
  -26.8108  -21.4139   20.5778 H   0  0  0  0  0  0
  -30.9521  -20.8507   20.4832 H   0  0  0  0  0  0
  -31.2439  -22.9869   19.8913 H   0  0  0  0  0  0
  -30.6856  -24.6368   19.8414 H   0  0  0  0  0  0
  -30.1319  -23.4944   18.6216 H   0  0  0  0  0  0
  -28.7260  -23.2514   22.7092 H   0  0  0  0  0  0
  -29.8230  -24.5346   22.2076 H   0  0  0  0  0  0
  -30.4059  -22.8857   22.3204 H   0  0  0  0  0  0
  -30.9163  -17.8328   21.3886 H   0  0  0  0  0  0
  -30.9420  -17.8132   19.6736 H   0  0  0  0  0  0
  -27.1616  -24.3299   20.8543 H   0  0  0  0  0  0
  -27.6653  -24.3102   19.2020 H   0  0  0  0  0  0
  -28.7954  -16.0943   20.6978 H   0  0  0  0  0  0
  1 25  1  0  0  0
  1 30  2  0  0  0
  1 81  1  0  0  0
  2  3  1  0  0  0
  2 25  1  0  0  0
  2 82  1  0  0  0
  2 83  1  0  0  0
  3  4  1  0  0  0
  3 84  1  0  0  0
  3 85  1  0  0  0
  4  5  1  0  0  0
  4 86  1  0  0  0
  4 87  1  0  0  0
  5  6  1  0  0  0
  5 26  1  0  0  0
  5 88  1  0  0  0
  6 25  1  0  0  0
  6 89  1  0  0  0
  6 90  1  0  0  0
  7  8  2  0  0  0
  7 26  1  0  0  0
  7 29  1  0  0  0
  8  9  1  0  0  0
  8 22  1  0  0  0
  9 10  1  0  0  0
  9 27  2  0  0  0
 10 11  2  0  0  0
 10 15  1  0  0  0
 11 12  1  0  0  0
 11 91  1  0  0  0
 12 13  2  0  0  0
 12 92  1  0  0  0
 13 14  1  0  0  0
 13 31  1  0  0  0
 14 15  2  0  0  0
 14 93  1  0  0  0
 15 94  1  0  0  0
 16 17  2  0  0  0
 16 21  1  0  0  0
 16 31  1  0  0  0
 17 18  1  0  0  0
 17 95  1  0  0  0
 18 19  2  0  0  0
 18 96  1  0  0  0
 19 20  1  0  0  0
 19 24  1  0  0  0
 20 21  2  0  0  0
 20 97  1  0  0  0
 21 23  1  0  0  0
 22 28  1  0  0  0
 22 32  2  0  0  0
 26 27  1  0  0  0
 28 98  1  0  0  0
 28 99  1  0  0  0
 29100  1  0  0  0
 29101  1  0  0  0
 33 34  1  0  0  0
 33 66  1  0  0  0
 33 70  2  0  0  0
 34 36  1  0  0  0
 34 59  1  0  0  0
 34102  1  0  0  0
 35 44  2  0  0  0
 35 45  1  0  0  0
 35 68  1  0  0  0
 36 56  1  0  0  0
 36103  1  0  0  0
 37 39  1  0  0  0
 37 47  1  0  0  0
 37 66  1  0  0  0
 37104  1  0  0  0
 38 43  2  0  0  0
 38 46  1  0  0  0
 38 47  1  0  0  0
 39 64  1  0  0  0
 39 67  2  0  0  0
 40 52  1  0  0  0
 40 53  2  0  0  0
 40 58  1  0  0  0
 41105  1  0  0  0
 41106  1  0  0  0
 41107  1  0  0  0
 41 48  1  0  0  0
 42 43  1  0  0  0
 42 66  1  0  0  0
 42108  1  0  0  0
 42109  1  0  0  0
 43 44  1  0  0  0
 44110  1  0  0  0
 45 46  2  0  0  0
 45111  1  0  0  0
 46112  1  0  0  0
 47113  1  0  0  0
 47114  1  0  0  0
 48 56  1  0  0  0
 48 65  1  0  0  0
 48115  1  0  0  0
 49 50  1  0  0  0
 49 53  1  0  0  0
 49 64  1  0  0  0
 49116  1  0  0  0
 50 51  1  0  0  0
 50117  1  0  0  0
 50118  1  0  0  0
 51 52  1  0  0  0
 51119  1  0  0  0
 51120  1  0  0  0
 52121  1  0  0  0
 52122  1  0  0  0
 53 54  1  0  0  0
 54 55  2  0  0  0
 54123  1  0  0  0
 55 57  1  0  0  0
 55124  1  0  0  0
 56 69  2  0  0  0
 57 58  2  0  0  0
 57125  1  0  0  0
 58126  1  0  0  0
 59 60  1  0  0  0
 59 61  1  0  0  0
 59 62  1  0  0  0
 60127  1  0  0  0
 60128  1  0  0  0
 60129  1  0  0  0
 61130  1  0  0  0
 61131  1  0  0  0
 61132  1  0  0  0
 62133  1  0  0  0
 62134  1  0  0  0
 62135  1  0  0  0
 63 65  1  0  0  0
 63136  1  0  0  0
 63137  1  0  0  0
 63138  1  0  0  0
 64139  1  0  0  0
 65140  1  0  0  0
 68 78  1  0  0  0
 71 72  2  0  0  0
 71 74  1  0  0  0
 71141  1  0  0  0
 72 80  1  0  0  0
 72142  1  0  0  0
 73 74  2  0  0  0
 73 80  1  0  0  0
 73143  1  0  0  0
 74 77  1  0  0  0
 75144  1  0  0  0
 75145  1  0  0  0
 75146  1  0  0  0
 75 79  1  0  0  0
 76 79  1  0  0  0
 76147  1  0  0  0
 76148  1  0  0  0
 76149  1  0  0  0
 77 81  1  0  0  0
 77150  1  0  0  0
 77151  1  0  0  0
 78 79  1  0  0  0
 78152  1  0  0  0
 78153  1  0  0  0
 79 80  1  0  0  0
 81154  1  0  0  0
M  ISO  4   1 100  68 101  78 101  81 100
M  END
> <chiral flag>
0

> <version>
0

> <s_m_source_file>
/data/baiqing/PycharmProjects/Reinvent-master-3.2/result/LINK_invent/BTK/process_docking_weight1_custom_sum_contain_oxygen_bond_distance_aromatic_linkinvent_7_9_3/rearranged_h_0108.sdf

> <i_m_source_file_index>
8

> <r_mmod_Potential_Energy-OPLS-2005>
587.154418945312

> <r_mmod_Stretch_Energy-OPLS-2005>
317.860290527344

> <r_mmod_Bend_Energy-OPLS-2005>
300.894744873047

> <r_mmod_Torsional_Energy-OPLS-2005>
242.097442626953

> <r_mmod_Improper_Torsional_Energy-OPLS-2005>
5.23792362213135

> <r_mmod_Van_der_Waal_Energy-OPLS-2005>
108.102005004883

> <r_mmod_Electrostatic_Energy-OPLS-2005>
-410.543487548828

> <r_mmod_Solvation_Energy-OPLS-2005>
-210.332229614258

> <b_mmod_Minimization_Converged-OPLS-2005>
0

> <r_mmod_RMS_Derivative-OPLS-2005>
4.76108074188232

$$$$
8
                    3D
 Structure written by MMmdl.
157165  0  0  1  0            999 V2000
  -30.4757  -15.3293   20.4549 C   0  0  0  0  0  0
  -30.4586  -12.8723   19.5719 C   0  0  0  0  0  0
  -29.5585  -12.6215   18.3314 C   0  0  0  0  0  0
  -28.1183  -12.2976   18.7629 C   0  0  0  0  0  0
  -27.6280  -13.2796   19.8529 C   0  0  2  0  0  0
  -28.6544  -13.4814   21.0011 C   0  0  0  0  0  0
  -25.2462  -13.8238   20.5799 C   0  0  0  0  0  0
  -24.1785  -13.0441   20.9207 C   0  0  0  0  0  0
  -24.6405  -11.6932   20.8721 C   0  0  0  0  0  0
  -23.9079  -10.4290   21.0376 C   0  0  0  0  0  0
  -24.3640   -9.4236   21.9144 C   0  0  0  0  0  0
  -23.6320   -8.2270   22.0727 C   0  0  0  0  0  0
  -22.4295   -8.0299   21.3526 C   0  0  0  0  0  0
  -21.9942   -9.0256   20.4610 C   0  0  0  0  0  0
  -22.7263  -10.2139   20.3014 C   0  0  0  0  0  0
  -21.6890   -6.0719   22.5271 C   0  0  0  0  0  0
  -21.4025   -6.5623   23.8191 C   0  0  0  0  0  0
  -21.3675   -5.6794   24.9151 C   0  0  0  0  0  0
  -21.6049   -4.3046   24.7204 C   0  0  0  0  0  0
  -21.8823   -3.8137   23.4324 C   0  0  0  0  0  0
  -21.9202   -4.6955   22.3389 C   0  0  0  0  0  0
  -22.7781  -13.5220   21.1871 C   0  0  0  0  0  0
  -22.1674   -4.2148   21.0964 F   0  0  0  0  0  0
  -21.5630   -3.4531   25.7696 F   0  0  0  0  0  0
  -29.8996  -14.0170   20.4010 N   0  0  0  0  0  0
  -26.2921  -12.9521   20.3360 N   0  0  0  0  0  0
  -25.9386  -11.6612   20.5766 N   0  0  0  0  0  0
  -22.0434  -12.8218   22.0421 N   0  0  0  0  0  0
  -25.4072  -15.1989   20.4301 N   0  0  0  0  0  0
  -31.6671  -15.3253   20.1125 O   0  0  0  0  0  0
  -21.6673   -6.8897   21.4230 O   0  0  0  0  0  0
  -22.3437  -14.5484   20.6715 O   0  0  0  0  0  0
  -24.6601  -31.8250   23.1693 C   0  0  0  0  0  0
  -25.9295  -32.4599   23.8138 C   0  0  1  0  0  0
  -27.2338  -26.9196   20.2320 C   0  0  0  0  0  0
  -25.5988  -33.8414   24.2056 N   0  0  0  0  0  0
  -23.4751  -30.4336   21.5193 C   0  0  2  0  0  0
  -24.9387  -28.8124   20.1251 C   0  0  0  0  0  0
  -22.7654  -29.4442   22.4798 C   0  0  0  0  0  0
  -18.0319  -28.1440   22.8483 C   0  0  0  0  0  0
  -24.1502  -36.7196   23.2641 C   0  0  0  0  0  0
  -26.0415  -30.6399   21.3994 C   0  0  0  0  0  0
  -26.1165  -29.2190   20.7590 C   0  0  0  0  0  0
  -27.2619  -28.2985   20.7805 C   0  0  0  0  0  0
  -26.0220  -26.6700   19.5409 C   0  0  0  0  0  0
  -24.9125  -27.5581   19.4999 C   0  0  0  0  0  0
  -23.7207  -29.7408   20.1491 C   0  0  0  0  0  0
  -25.4139  -36.2976   24.0309 C   0  0  1  0  0  0
  -20.5953  -28.3792   23.1205 C   0  0  2  0  0  0
  -20.6830  -26.9472   22.5431 C   0  0  0  0  0  0
  -19.5798  -26.6410   21.5230 C   0  0  0  0  0  0
  -18.1964  -26.7980   22.1623 C   0  0  0  0  0  0
  -19.1581  -28.8922   23.2839 C   0  0  0  0  0  0
  -18.9501  -30.1521   23.8860 C   0  0  0  0  0  0
  -17.6488  -30.6639   24.0557 C   0  0  0  0  0  0
  -25.9111  -34.9362   23.5003 C   0  0  0  0  0  0
  -16.5379  -29.9133   23.6348 C   0  0  0  0  0  0
  -16.7308  -28.6555   23.0375 C   0  0  0  0  0  0
  -26.4569  -31.6535   25.0639 C   0  0  0  0  0  0
  -25.3678  -31.3799   26.1275 C   0  0  0  0  0  0
  -27.0486  -30.2903   24.6368 C   0  0  0  0  0  0
  -27.6088  -32.4344   25.7461 C   0  0  0  0  0  0
  -27.5568  -37.1737   24.8458 C   0  0  0  0  0  0
  -21.4311  -29.3071   22.3537 N   0  0  0  0  0  0
  -26.4280  -37.3722   23.9423 N   0  0  0  0  0  0
  -24.7451  -30.9934   22.0834 N   0  0  0  0  0  0
  -23.4201  -28.8007   23.3055 O   0  0  0  0  0  0
  -28.2679  -25.8334   20.2670 O   0  0  0  0  0  0
  -26.5701  -34.8881   22.4592 O   0  0  0  0  0  0
  -23.5690  -32.1226   23.6818 O   0  0  0  0  0  0
  -30.3265  -19.6363   22.3820 C   0  0  0  0  0  0
  -29.7950  -21.7941   22.3233 C   0  0  0  0  0  0
  -30.4383  -20.8670   23.0862 C   0  0  0  0  0  0
  -29.7235  -19.7545   21.1477 C   0  0  0  0  0  0
  -30.8616  -22.4601   25.0622 C   0  0  0  0  0  0
  -32.6908  -20.9388   24.3028 C   0  0  0  0  0  0
  -29.8068  -18.2513   20.2618 C   0  0  0  0  0  0
  -28.8355  -22.6120   20.1666 C   0  0  0  0  0  0
  -28.1031  -24.2202   20.6393 C   0  0  0  0  0  0
  -31.1630  -21.0938   24.4236 C   0  0  0  0  0  0
  -29.3626  -21.3082   21.0899 N   0  0  0  0  0  0
  -29.7622  -16.6177   20.7084 N   0  0  0  0  0  0
  -31.4751  -13.0809   19.2319 H   0  0  0  0  0  0
  -30.5314  -11.9711   20.1801 H   0  0  0  0  0  0
  -29.9652  -11.8042   17.7319 H   0  0  0  0  0  0
  -29.5549  -13.5049   17.6931 H   0  0  0  0  0  0
  -28.1161  -11.2842   19.1664 H   0  0  0  0  0  0
  -27.4421  -12.2886   17.9078 H   0  0  0  0  0  0
  -27.5394  -14.2445   19.3513 H   0  0  0  0  0  0
  -28.8339  -12.5520   21.5453 H   0  0  0  0  0  0
  -28.2608  -14.1898   21.7362 H   0  0  0  0  0  0
  -25.2788   -9.5737   22.4717 H   0  0  0  0  0  0
  -24.0043   -7.4670   22.7475 H   0  0  0  0  0  0
  -21.0860   -8.8769   19.8943 H   0  0  0  0  0  0
  -22.3696  -10.9665   19.6136 H   0  0  0  0  0  0
  -21.2030   -7.6128   23.9698 H   0  0  0  0  0  0
  -21.1492   -6.0500   25.9060 H   0  0  0  0  0  0
  -22.0595   -2.7596   23.2814 H   0  0  0  0  0  0
  -22.4166  -11.9971   22.4876 H   0  0  0  0  0  0
  -21.1006  -13.1166   22.2516 H   0  0  0  0  0  0
  -24.6297  -15.8410   20.5403 H   0  0  0  0  0  0
  -26.2587  -15.6562   20.1324 H   0  0  0  0  0  0
  -26.7340  -32.5178   23.0821 H   0  0  0  0  0  0
  -25.0068  -33.9493   25.0170 H   0  0  0  0  0  0
  -22.7867  -31.2623   21.3390 H   0  0  0  0  0  0
  -23.3779  -35.9497   23.3280 H   0  0  0  0  0  0
  -24.3569  -36.8861   22.2056 H   0  0  0  0  0  0
  -23.7243  -37.6352   23.6713 H   0  0  0  0  0  0
  -26.2146  -31.3773   20.6173 H   0  0  0  0  0  0
  -26.9037  -30.7017   22.0518 H   0  0  0  0  0  0
  -28.1558  -28.6136   21.3041 H   0  0  0  0  0  0
  -25.9134  -25.7137   19.0537 H   0  0  0  0  0  0
  -24.0131  -27.2347   18.9910 H   0  0  0  0  0  0
  -23.8796  -30.5009   19.3847 H   0  0  0  0  0  0
  -22.8329  -29.1936   19.8275 H   0  0  0  0  0  0
  -25.1349  -36.1719   25.0797 H   0  0  0  0  0  0
  -21.0042  -28.3402   24.1334 H   0  0  0  0  0  0
  -20.5757  -26.2382   23.3654 H   0  0  0  0  0  0
  -21.6686  -26.7470   22.1187 H   0  0  0  0  0  0
  -19.6959  -25.6300   21.1307 H   0  0  0  0  0  0
  -19.6754  -27.3204   20.6734 H   0  0  0  0  0  0
  -17.4247  -26.6719   21.4041 H   0  0  0  0  0  0
  -18.0341  -26.0141   22.9033 H   0  0  0  0  0  0
  -19.7992  -30.7350   24.2214 H   0  0  0  0  0  0
  -17.5064  -31.6322   24.5196 H   0  0  0  0  0  0
  -15.5402  -30.3023   23.7737 H   0  0  0  0  0  0
  -15.8690  -28.0862   22.7116 H   0  0  0  0  0  0
  -24.5897  -30.7122   25.7523 H   0  0  0  0  0  0
  -24.8833  -32.3016   26.4497 H   0  0  0  0  0  0
  -25.7891  -30.9046   27.0150 H   0  0  0  0  0  0
  -26.3141  -29.6556   24.1369 H   0  0  0  0  0  0
  -27.4009  -29.7290   25.5023 H   0  0  0  0  0  0
  -27.9088  -30.4075   23.9776 H   0  0  0  0  0  0
  -27.2640  -33.3688   26.1891 H   0  0  0  0  0  0
  -28.3950  -32.6834   25.0326 H   0  0  0  0  0  0
  -28.0641  -31.8535   26.5460 H   0  0  0  0  0  0
  -28.2559  -38.0063   24.7535 H   0  0  0  0  0  0
  -28.1108  -36.2600   24.6266 H   0  0  0  0  0  0
  -27.2282  -37.1311   25.8854 H   0  0  0  0  0  0
  -20.9556  -29.8681   21.6583 H   0  0  0  0  0  0
  -26.0111  -38.2762   24.1465 H   0  0  0  0  0  0
  -30.7583  -18.7132   22.7408 H   0  0  0  0  0  0
  -29.6752  -22.8423   22.5403 H   0  0  0  0  0  0
  -29.7956  -22.5914   25.2311 H   0  0  0  0  0  0
  -31.2087  -23.2821   24.4349 H   0  0  0  0  0  0
  -31.3490  -22.5678   26.0343 H   0  0  0  0  0  0
  -32.9761  -19.9457   23.9535 H   0  0  0  0  0  0
  -33.1868  -21.0784   25.2627 H   0  0  0  0  0  0
  -33.1248  -21.6748   23.6263 H   0  0  0  0  0  0
  -29.0586  -18.3232   19.4743 H   0  0  0  0  0  0
  -30.7515  -18.3032   19.7211 H   0  0  0  0  0  0
  -29.7141  -22.8767   19.5738 H   0  0  0  0  0  0
  -28.1640  -22.1953   19.4185 H   0  0  0  0  0  0
  -27.0381  -24.0578   20.4729 H   0  0  0  0  0  0
  -28.1591  -24.2310   21.7262 H   0  0  0  0  0  0
  -30.8150  -20.3271   25.1168 H   0  0  0  0  0  0
  -28.8554  -16.4056   21.0940 H   0  0  0  0  0  0
  1 25  1  0  0  0
  1 30  2  0  0  0
  1 82  1  0  0  0
  2  3  1  0  0  0
  2 25  1  0  0  0
  2 83  1  0  0  0
  2 84  1  0  0  0
  3  4  1  0  0  0
  3 85  1  0  0  0
  3 86  1  0  0  0
  4  5  1  0  0  0
  4 87  1  0  0  0
  4 88  1  0  0  0
  5  6  1  0  0  0
  5 26  1  0  0  0
  5 89  1  0  0  0
  6 25  1  0  0  0
  6 90  1  0  0  0
  6 91  1  0  0  0
  7  8  2  0  0  0
  7 26  1  0  0  0
  7 29  1  0  0  0
  8  9  1  0  0  0
  8 22  1  0  0  0
  9 10  1  0  0  0
  9 27  2  0  0  0
 10 11  2  0  0  0
 10 15  1  0  0  0
 11 12  1  0  0  0
 11 92  1  0  0  0
 12 13  2  0  0  0
 12 93  1  0  0  0
 13 14  1  0  0  0
 13 31  1  0  0  0
 14 15  2  0  0  0
 14 94  1  0  0  0
 15 95  1  0  0  0
 16 17  2  0  0  0
 16 21  1  0  0  0
 16 31  1  0  0  0
 17 18  1  0  0  0
 17 96  1  0  0  0
 18 19  2  0  0  0
 18 97  1  0  0  0
 19 20  1  0  0  0
 19 24  1  0  0  0
 20 21  2  0  0  0
 20 98  1  0  0  0
 21 23  1  0  0  0
 22 28  1  0  0  0
 22 32  2  0  0  0
 26 27  1  0  0  0
 28 99  1  0  0  0
 28100  1  0  0  0
 29101  1  0  0  0
 29102  1  0  0  0
 33 34  1  0  0  0
 33 66  1  0  0  0
 33 70  2  0  0  0
 34 36  1  0  0  0
 34 59  1  0  0  0
 34103  1  0  0  0
 35 44  2  0  0  0
 35 45  1  0  0  0
 35 68  1  0  0  0
 36 56  1  0  0  0
 36104  1  0  0  0
 37 39  1  0  0  0
 37 47  1  0  0  0
 37 66  1  0  0  0
 37105  1  0  0  0
 38 43  2  0  0  0
 38 46  1  0  0  0
 38 47  1  0  0  0
 39 64  1  0  0  0
 39 67  2  0  0  0
 40 52  1  0  0  0
 40 53  2  0  0  0
 40 58  1  0  0  0
 41106  1  0  0  0
 41107  1  0  0  0
 41108  1  0  0  0
 41 48  1  0  0  0
 42 43  1  0  0  0
 42 66  1  0  0  0
 42109  1  0  0  0
 42110  1  0  0  0
 43 44  1  0  0  0
 44111  1  0  0  0
 45 46  2  0  0  0
 45112  1  0  0  0
 46113  1  0  0  0
 47114  1  0  0  0
 47115  1  0  0  0
 48 56  1  0  0  0
 48 65  1  0  0  0
 48116  1  0  0  0
 49 50  1  0  0  0
 49 53  1  0  0  0
 49 64  1  0  0  0
 49117  1  0  0  0
 50 51  1  0  0  0
 50118  1  0  0  0
 50119  1  0  0  0
 51 52  1  0  0  0
 51120  1  0  0  0
 51121  1  0  0  0
 52122  1  0  0  0
 52123  1  0  0  0
 53 54  1  0  0  0
 54 55  2  0  0  0
 54124  1  0  0  0
 55 57  1  0  0  0
 55125  1  0  0  0
 56 69  2  0  0  0
 57 58  2  0  0  0
 57126  1  0  0  0
 58127  1  0  0  0
 59 60  1  0  0  0
 59 61  1  0  0  0
 59 62  1  0  0  0
 60128  1  0  0  0
 60129  1  0  0  0
 60130  1  0  0  0
 61131  1  0  0  0
 61132  1  0  0  0
 61133  1  0  0  0
 62134  1  0  0  0
 62135  1  0  0  0
 62136  1  0  0  0
 63 65  1  0  0  0
 63137  1  0  0  0
 63138  1  0  0  0
 63139  1  0  0  0
 64140  1  0  0  0
 65141  1  0  0  0
 68 79  1  0  0  0
 71 73  1  0  0  0
 71 74  2  0  0  0
 71142  1  0  0  0
 72 73  2  0  0  0
 72 81  1  0  0  0
 72143  1  0  0  0
 73 80  1  0  0  0
 74 77  1  0  0  0
 74 81  1  0  0  0
 75144  1  0  0  0
 75145  1  0  0  0
 75146  1  0  0  0
 75 80  1  0  0  0
 76 80  1  0  0  0
 76147  1  0  0  0
 76148  1  0  0  0
 76149  1  0  0  0
 77 82  1  0  0  0
 77150  1  0  0  0
 77151  1  0  0  0
 78 79  1  0  0  0
 78 81  1  0  0  0
 78152  1  0  0  0
 78153  1  0  0  0
 79154  1  0  0  0
 79155  1  0  0  0
 80156  1  0  0  0
 82157  1  0  0  0
M  ISO  4   1 100  68 101  79 101  82 100
M  END
> <chiral flag>
0

> <version>
0

> <s_m_source_file>
/data/baiqing/PycharmProjects/Reinvent-master-3.2/result/LINK_invent/BTK/process_docking_weight1_custom_sum_contain_oxygen_bond_distance_aromatic_linkinvent_7_9_3/rearranged_h_0108.sdf

> <i_m_source_file_index>
9

> <r_mmod_Potential_Energy-OPLS-2005>
1458.22180175781

> <r_mmod_Stretch_Energy-OPLS-2005>
692.281982421875

> <r_mmod_Bend_Energy-OPLS-2005>
555.359558105469

> <r_mmod_Torsional_Energy-OPLS-2005>
243.341125488281

> <r_mmod_Improper_Torsional_Energy-OPLS-2005>
5.89034986495972

> <r_mmod_Van_der_Waal_Energy-OPLS-2005>
107.029876708984

> <r_mmod_Electrostatic_Energy-OPLS-2005>
-415.927124023438

> <r_mmod_Solvation_Energy-OPLS-2005>
-221.810638427734

> <b_mmod_Minimization_Converged-OPLS-2005>
0

> <r_mmod_RMS_Derivative-OPLS-2005>
8.03718852996826

$$$$
9
                    3D
 Structure written by MMmdl.
158166  0  0  1  0            999 V2000
  -30.4015  -15.3493   20.3547 C   0  0  0  0  0  0
  -30.4358  -12.8744   19.5145 C   0  0  0  0  0  0
  -29.5377  -12.5923   18.2825 C   0  0  0  0  0  0
  -28.0901  -12.2968   18.7148 C   0  0  0  0  0  0
  -27.6051  -13.2797   19.8096 C   0  0  2  0  0  0
  -28.6364  -13.4947   20.9365 C   0  0  0  0  0  0
  -25.2382  -13.8257   20.5735 C   0  0  0  0  0  0
  -24.1743  -13.0450   20.9265 C   0  0  0  0  0  0
  -24.6409  -11.6950   20.8768 C   0  0  0  0  0  0
  -23.9099  -10.4300   21.0415 C   0  0  0  0  0  0
  -24.3642   -9.4207   21.9190 C   0  0  0  0  0  0
  -23.6310   -8.2244   22.0752 C   0  0  0  0  0  0
  -22.4295   -8.0279   21.3534 C   0  0  0  0  0  0
  -21.9937   -9.0263   20.4640 C   0  0  0  0  0  0
  -22.7272  -10.2144   20.3062 C   0  0  0  0  0  0
  -21.6858   -6.0742   22.5282 C   0  0  0  0  0  0
  -21.4006   -6.5648   23.8212 C   0  0  0  0  0  0
  -21.3655   -5.6792   24.9172 C   0  0  0  0  0  0
  -21.6048   -4.3055   24.7221 C   0  0  0  0  0  0
  -21.8814   -3.8151   23.4337 C   0  0  0  0  0  0
  -21.9190   -4.6969   22.3395 C   0  0  0  0  0  0
  -22.7754  -13.5206   21.1889 C   0  0  0  0  0  0
  -22.1660   -4.2156   21.0972 F   0  0  0  0  0  0
  -21.5632   -3.4535   25.7733 F   0  0  0  0  0  0
  -29.8489  -14.0312   20.2938 N   0  0  0  0  0  0
  -26.2794  -12.9536   20.3166 N   0  0  0  0  0  0
  -25.9342  -11.6641   20.5692 N   0  0  0  0  0  0
  -22.0385  -12.8210   22.0440 N   0  0  0  0  0  0
  -25.4032  -15.1981   20.4150 N   0  0  0  0  0  0
  -31.6339  -15.3322   20.2140 O   0  0  0  0  0  0
  -21.6644   -6.8891   21.4243 O   0  0  0  0  0  0
  -22.3444  -14.5495   20.6696 O   0  0  0  0  0  0
  -24.6677  -31.8201   23.1684 C   0  0  0  0  0  0
  -25.9336  -32.4576   23.8159 C   0  0  1  0  0  0
  -27.2132  -26.8737   20.2019 C   0  0  0  0  0  0
  -25.5989  -33.8393   24.2070 N   0  0  0  0  0  0
  -23.4839  -30.4310   21.5193 C   0  0  2  0  0  0
  -24.9356  -28.8013   20.1260 C   0  0  0  0  0  0
  -22.7679  -29.4436   22.4776 C   0  0  0  0  0  0
  -18.0315  -28.1432   22.8470 C   0  0  0  0  0  0
  -24.1498  -36.7187   23.2643 C   0  0  0  0  0  0
  -26.0569  -30.6096   21.4046 C   0  0  0  0  0  0
  -26.1247  -29.1897   20.7576 C   0  0  0  0  0  0
  -27.2613  -28.2523   20.7616 C   0  0  0  0  0  0
  -25.9910  -26.6462   19.5317 C   0  0  0  0  0  0
  -24.8957  -27.5499   19.4921 C   0  0  0  0  0  0
  -23.7289  -29.7416   20.1494 C   0  0  0  0  0  0
  -25.4140  -36.2956   24.0299 C   0  0  1  0  0  0
  -20.5946  -28.3786   23.1185 C   0  0  2  0  0  0
  -20.6797  -26.9466   22.5411 C   0  0  0  0  0  0
  -19.5772  -26.6392   21.5223 C   0  0  0  0  0  0
  -18.1951  -26.7966   22.1623 C   0  0  0  0  0  0
  -19.1578  -28.8926   23.2816 C   0  0  0  0  0  0
  -18.9492  -30.1506   23.8869 C   0  0  0  0  0  0
  -17.6486  -30.6625   24.0551 C   0  0  0  0  0  0
  -25.9107  -34.9343   23.5005 C   0  0  0  0  0  0
  -16.5373  -29.9117   23.6336 C   0  0  0  0  0  0
  -16.7295  -28.6529   23.0369 C   0  0  0  0  0  0
  -26.4575  -31.6523   25.0696 C   0  0  0  0  0  0
  -25.3693  -31.3782   26.1346 C   0  0  0  0  0  0
  -27.0451  -30.2886   24.6432 C   0  0  0  0  0  0
  -27.6096  -32.4302   25.7485 C   0  0  0  0  0  0
  -27.5571  -37.1745   24.8457 C   0  0  0  0  0  0
  -21.4344  -29.3066   22.3526 N   0  0  0  0  0  0
  -26.4280  -37.3699   23.9402 N   0  0  0  0  0  0
  -24.7583  -30.9818   22.0843 N   0  0  0  0  0  0
  -23.4211  -28.8005   23.3027 O   0  0  0  0  0  0
  -28.2187  -25.7560   20.1481 O   0  0  0  0  0  0
  -26.5722  -34.8877   22.4603 O   0  0  0  0  0  0
  -23.5732  -32.1192   23.6746 O   0  0  0  0  0  0
  -28.2156  -19.8151   18.9935 C   0  0  0  0  0  0
  -29.1171  -21.2755   20.6399 C   0  0  0  0  0  0
  -29.0741  -19.8144   20.1143 C   0  0  0  0  0  0
  -27.5722  -20.9918   18.4975 C   0  0  0  0  0  0
  -28.4353  -22.5541   20.0837 C   0  0  0  0  0  0
  -26.9784  -21.7338   16.1287 C   0  0  0  0  0  0
  -25.1438  -21.1214   17.7871 C   0  0  0  0  0  0
  -28.7582  -24.2795   22.0955 C   0  0  0  0  0  0
  -29.8891  -18.3027   20.5625 C   0  0  0  0  0  0
  -26.5901  -20.8589   17.3329 C   0  0  0  0  0  0
  -28.1083  -24.1860   20.7128 C   0  0  1  0  0  0
  -27.6870  -22.2637   18.9948 N   0  0  0  0  0  0
  -29.6299  -16.6376   20.3803 N   0  0  0  0  0  0
  -31.4477  -13.0995   19.1754 H   0  0  0  0  0  0
  -30.5277  -11.9866   20.1425 H   0  0  0  0  0  0
  -29.9399  -11.7611   17.7005 H   0  0  0  0  0  0
  -29.5466  -13.4599   17.6202 H   0  0  0  0  0  0
  -28.0614  -11.2769   19.1003 H   0  0  0  0  0  0
  -27.4215  -12.3143   17.8527 H   0  0  0  0  0  0
  -27.5036  -14.2352   19.2926 H   0  0  0  0  0  0
  -28.8330  -12.5732   21.4871 H   0  0  0  0  0  0
  -28.2580  -14.2168   21.6617 H   0  0  0  0  0  0
  -25.2789   -9.5685   22.4758 H   0  0  0  0  0  0
  -24.0012   -7.4647   22.7492 H   0  0  0  0  0  0
  -21.0853   -8.8792   19.8968 H   0  0  0  0  0  0
  -22.3725  -10.9680   19.6166 H   0  0  0  0  0  0
  -21.1991   -7.6155   23.9717 H   0  0  0  0  0  0
  -21.1485   -6.0523   25.9078 H   0  0  0  0  0  0
  -22.0600   -2.7616   23.2833 H   0  0  0  0  0  0
  -22.4004  -11.9900   22.4876 H   0  0  0  0  0  0
  -21.0990  -13.1237   22.2599 H   0  0  0  0  0  0
  -24.6346  -15.8511   20.5252 H   0  0  0  0  0  0
  -26.2403  -15.6311   20.0499 H   0  0  0  0  0  0
  -26.7400  -32.5113   23.0861 H   0  0  0  0  0  0
  -25.0051  -33.9463   25.0166 H   0  0  0  0  0  0
  -22.8013  -31.2658   21.3436 H   0  0  0  0  0  0
  -23.3786  -35.9488   23.3263 H   0  0  0  0  0  0
  -24.3574  -36.8876   22.2062 H   0  0  0  0  0  0
  -23.7224  -37.6350   23.6731 H   0  0  0  0  0  0
  -26.2369  -31.3432   20.6184 H   0  0  0  0  0  0
  -26.9187  -30.6738   22.0571 H   0  0  0  0  0  0
  -28.1718  -28.5608   21.2568 H   0  0  0  0  0  0
  -25.8597  -25.6938   19.0385 H   0  0  0  0  0  0
  -23.9951  -27.2461   18.9772 H   0  0  0  0  0  0
  -23.9013  -30.5091   19.3941 H   0  0  0  0  0  0
  -22.8348  -29.2080   19.8212 H   0  0  0  0  0  0
  -25.1337  -36.1745   25.0794 H   0  0  0  0  0  0
  -21.0020  -28.3400   24.1315 H   0  0  0  0  0  0
  -20.5685  -26.2407   23.3657 H   0  0  0  0  0  0
  -21.6656  -26.7458   22.1208 H   0  0  0  0  0  0
  -19.6938  -25.6286   21.1295 H   0  0  0  0  0  0
  -19.6716  -27.3160   20.6720 H   0  0  0  0  0  0
  -17.4222  -26.6702   21.4028 H   0  0  0  0  0  0
  -18.0354  -26.0134   22.9045 H   0  0  0  0  0  0
  -19.7967  -30.7316   24.2258 H   0  0  0  0  0  0
  -17.5043  -31.6306   24.5148 H   0  0  0  0  0  0
  -15.5373  -30.3011   23.7694 H   0  0  0  0  0  0
  -15.8686  -28.0827   22.7134 H   0  0  0  0  0  0
  -24.5898  -30.7115   25.7636 H   0  0  0  0  0  0
  -24.8859  -32.2982   26.4646 H   0  0  0  0  0  0
  -25.7918  -30.9016   27.0203 H   0  0  0  0  0  0
  -26.3108  -29.6570   24.1425 H   0  0  0  0  0  0
  -27.3950  -29.7247   25.5086 H   0  0  0  0  0  0
  -27.9074  -30.4049   23.9869 H   0  0  0  0  0  0
  -27.2727  -33.3664   26.1943 H   0  0  0  0  0  0
  -28.3984  -32.6745   25.0358 H   0  0  0  0  0  0
  -28.0685  -31.8485   26.5487 H   0  0  0  0  0  0
  -28.2557  -38.0071   24.7527 H   0  0  0  0  0  0
  -28.1103  -36.2596   24.6268 H   0  0  0  0  0  0
  -27.2287  -37.1361   25.8859 H   0  0  0  0  0  0
  -20.9621  -29.8753   21.6639 H   0  0  0  0  0  0
  -26.0123  -38.2750   24.1439 H   0  0  0  0  0  0
  -28.0425  -18.8739   18.4881 H   0  0  0  0  0  0
  -29.6961  -21.4238   21.5410 H   0  0  0  0  0  0
  -27.9800  -21.4915   15.7705 H   0  0  0  0  0  0
  -26.9582  -22.7944   16.3819 H   0  0  0  0  0  0
  -26.2867  -21.5816   15.2997 H   0  0  0  0  0  0
  -24.8593  -20.4459   18.5955 H   0  0  0  0  0  0
  -24.4378  -20.9750   16.9693 H   0  0  0  0  0  0
  -25.0207  -22.1415   18.1515 H   0  0  0  0  0  0
  -28.4585  -23.4404   22.7229 H   0  0  0  0  0  0
  -28.4678  -25.1923   22.6136 H   0  0  0  0  0  0
  -29.8442  -24.2664   22.0116 H   0  0  0  0  0  0
  -30.0377  -18.4129   21.6364 H   0  0  0  0  0  0
  -30.8901  -18.4403   20.1535 H   0  0  0  0  0  0
  -26.6260  -19.8246   16.9853 H   0  0  0  0  0  0
  -27.0381  -24.1123   20.9040 H   0  0  0  0  0  0
  -28.6410  -16.4416   20.3690 H   0  0  0  0  0  0
  1 25  1  0  0  0
  1 30  2  0  0  0
  1 83  1  0  0  0
  2  3  1  0  0  0
  2 25  1  0  0  0
  2 84  1  0  0  0
  2 85  1  0  0  0
  3  4  1  0  0  0
  3 86  1  0  0  0
  3 87  1  0  0  0
  4  5  1  0  0  0
  4 88  1  0  0  0
  4 89  1  0  0  0
  5  6  1  0  0  0
  5 26  1  0  0  0
  5 90  1  0  0  0
  6 25  1  0  0  0
  6 91  1  0  0  0
  6 92  1  0  0  0
  7  8  2  0  0  0
  7 26  1  0  0  0
  7 29  1  0  0  0
  8  9  1  0  0  0
  8 22  1  0  0  0
  9 10  1  0  0  0
  9 27  2  0  0  0
 10 11  2  0  0  0
 10 15  1  0  0  0
 11 12  1  0  0  0
 11 93  1  0  0  0
 12 13  2  0  0  0
 12 94  1  0  0  0
 13 14  1  0  0  0
 13 31  1  0  0  0
 14 15  2  0  0  0
 14 95  1  0  0  0
 15 96  1  0  0  0
 16 17  2  0  0  0
 16 21  1  0  0  0
 16 31  1  0  0  0
 17 18  1  0  0  0
 17 97  1  0  0  0
 18 19  2  0  0  0
 18 98  1  0  0  0
 19 20  1  0  0  0
 19 24  1  0  0  0
 20 21  2  0  0  0
 20 99  1  0  0  0
 21 23  1  0  0  0
 22 28  1  0  0  0
 22 32  2  0  0  0
 26 27  1  0  0  0
 28100  1  0  0  0
 28101  1  0  0  0
 29102  1  0  0  0
 29103  1  0  0  0
 33 34  1  0  0  0
 33 66  1  0  0  0
 33 70  2  0  0  0
 34 36  1  0  0  0
 34 59  1  0  0  0
 34104  1  0  0  0
 35 44  2  0  0  0
 35 45  1  0  0  0
 35 68  1  0  0  0
 36 56  1  0  0  0
 36105  1  0  0  0
 37 39  1  0  0  0
 37 47  1  0  0  0
 37 66  1  0  0  0
 37106  1  0  0  0
 38 43  2  0  0  0
 38 46  1  0  0  0
 38 47  1  0  0  0
 39 64  1  0  0  0
 39 67  2  0  0  0
 40 52  1  0  0  0
 40 53  2  0  0  0
 40 58  1  0  0  0
 41107  1  0  0  0
 41108  1  0  0  0
 41109  1  0  0  0
 41 48  1  0  0  0
 42 43  1  0  0  0
 42 66  1  0  0  0
 42110  1  0  0  0
 42111  1  0  0  0
 43 44  1  0  0  0
 44112  1  0  0  0
 45 46  2  0  0  0
 45113  1  0  0  0
 46114  1  0  0  0
 47115  1  0  0  0
 47116  1  0  0  0
 48 56  1  0  0  0
 48 65  1  0  0  0
 48117  1  0  0  0
 49 50  1  0  0  0
 49 53  1  0  0  0
 49 64  1  0  0  0
 49118  1  0  0  0
 50 51  1  0  0  0
 50119  1  0  0  0
 50120  1  0  0  0
 51 52  1  0  0  0
 51121  1  0  0  0
 51122  1  0  0  0
 52123  1  0  0  0
 52124  1  0  0  0
 53 54  1  0  0  0
 54 55  2  0  0  0
 54125  1  0  0  0
 55 57  1  0  0  0
 55126  1  0  0  0
 56 69  2  0  0  0
 57 58  2  0  0  0
 57127  1  0  0  0
 58128  1  0  0  0
 59 60  1  0  0  0
 59 61  1  0  0  0
 59 62  1  0  0  0
 60129  1  0  0  0
 60130  1  0  0  0
 60131  1  0  0  0
 61132  1  0  0  0
 61133  1  0  0  0
 61134  1  0  0  0
 62135  1  0  0  0
 62136  1  0  0  0
 62137  1  0  0  0
 63 65  1  0  0  0
 63138  1  0  0  0
 63139  1  0  0  0
 63140  1  0  0  0
 64141  1  0  0  0
 65142  1  0  0  0
 68 81  1  0  0  0
 71 73  2  0  0  0
 71 74  1  0  0  0
 71143  1  0  0  0
 72 73  1  0  0  0
 72 75  2  0  0  0
 72144  1  0  0  0
 73 79  1  0  0  0
 74 80  1  0  0  0
 74 82  2  0  0  0
 75 81  1  0  0  0
 75 82  1  0  0  0
 76145  1  0  0  0
 76146  1  0  0  0
 76147  1  0  0  0
 76 80  1  0  0  0
 77 80  1  0  0  0
 77148  1  0  0  0
 77149  1  0  0  0
 77150  1  0  0  0
 78151  1  0  0  0
 78152  1  0  0  0
 78153  1  0  0  0
 78 81  1  0  0  0
 79 83  1  0  0  0
 79154  1  0  0  0
 79155  1  0  0  0
 80156  1  0  0  0
 81157  1  0  0  0
 83158  1  0  0  0
M  ISO  4   1 100  68 101  81 101  83 100
M  END
> <chiral flag>
0

> <version>
0

> <s_m_source_file>
/data/baiqing/PycharmProjects/Reinvent-master-3.2/result/LINK_invent/BTK/process_docking_weight1_custom_sum_contain_oxygen_bond_distance_aromatic_linkinvent_7_9_3/rearranged_h_0108.sdf

> <i_m_source_file_index>
10

> <r_mmod_Potential_Energy-OPLS-2005>
1173.87634277344

> <r_mmod_Stretch_Energy-OPLS-2005>
646.264343261719

> <r_mmod_Bend_Energy-OPLS-2005>
464.688934326172

> <r_mmod_Torsional_Energy-OPLS-2005>
224.777893066406

> <r_mmod_Improper_Torsional_Energy-OPLS-2005>
5.92719268798828

> <r_mmod_Van_der_Waal_Energy-OPLS-2005>
122.9248046875

> <r_mmod_Electrostatic_Energy-OPLS-2005>
-609.858642578125

> <r_mmod_Solvation_Energy-OPLS-2005>
-223.506942749023

> <b_mmod_Minimization_Converged-OPLS-2005>
0

> <r_mmod_RMS_Derivative-OPLS-2005>
1.93682467937469

$$$$
10
                    3D
 Structure written by MMmdl.
153161  0  0  1  0            999 V2000
  -30.5755  -14.8547   20.4322 C   0  0  0  0  0  0
  -30.4383  -12.5218   19.4944 C   0  0  0  0  0  0
  -29.5188  -12.5148   18.2532 C   0  0  0  0  0  0
  -28.0501  -12.3107   18.6703 C   0  0  0  0  0  0
  -27.6364  -13.2374   19.8442 C   0  0  2  0  0  0
  -28.6790  -13.2302   20.9843 C   0  0  0  0  0  0
  -25.2492  -13.8199   20.5696 C   0  0  0  0  0  0
  -24.1791  -13.0442   20.9215 C   0  0  0  0  0  0
  -24.6389  -11.6921   20.8743 C   0  0  0  0  0  0
  -23.9068  -10.4296   21.0401 C   0  0  0  0  0  0
  -24.3618   -9.4214   21.9179 C   0  0  0  0  0  0
  -23.6292   -8.2251   22.0754 C   0  0  0  0  0  0
  -22.4276   -8.0284   21.3546 C   0  0  0  0  0  0
  -21.9912   -9.0257   20.4650 C   0  0  0  0  0  0
  -22.7242  -10.2136   20.3055 C   0  0  0  0  0  0
  -21.6853   -6.0739   22.5287 C   0  0  0  0  0  0
  -21.4014   -6.5644   23.8221 C   0  0  0  0  0  0
  -21.3653   -5.6795   24.9182 C   0  0  0  0  0  0
  -21.6042   -4.3057   24.7229 C   0  0  0  0  0  0
  -21.8816   -3.8151   23.4350 C   0  0  0  0  0  0
  -21.9189   -4.6967   22.3407 C   0  0  0  0  0  0
  -22.7812  -13.5221   21.1879 C   0  0  0  0  0  0
  -22.1659   -4.2155   21.0981 F   0  0  0  0  0  0
  -21.5625   -3.4539   25.7739 F   0  0  0  0  0  0
  -29.9700  -13.6084   20.3960 N   0  0  0  0  0  0
  -26.2914  -12.9415   20.3253 N   0  0  0  0  0  0
  -25.9321  -11.6558   20.5741 N   0  0  0  0  0  0
  -22.0455  -12.8209   22.0433 N   0  0  0  0  0  0
  -25.4160  -15.1924   20.4112 N   0  0  0  0  0  0
  -31.7666  -14.9395   20.1190 O   0  0  0  0  0  0
  -21.6640   -6.8886   21.4251 O   0  0  0  0  0  0
  -22.3500  -14.5523   20.6719 O   0  0  0  0  0  0
  -24.6391  -31.8496   23.1939 C   0  0  0  0  0  0
  -25.9185  -32.4723   23.8311 C   0  0  1  0  0  0
  -27.2111  -27.1842   20.1474 C   0  0  0  0  0  0
  -25.5956  -33.8527   24.2224 N   0  0  0  0  0  0
  -23.4406  -30.4725   21.5384 C   0  0  2  0  0  0
  -24.8898  -28.9121   20.1091 C   0  0  0  0  0  0
  -22.7555  -29.4582   22.4871 C   0  0  0  0  0  0
  -18.0303  -28.1394   22.8476 C   0  0  0  0  0  0
  -24.1494  -36.7268   23.2641 C   0  0  0  0  0  0
  -25.9938  -30.7386   21.3879 C   0  0  0  0  0  0
  -26.0661  -29.3547   20.7298 C   0  0  0  0  0  0
  -27.2313  -28.5057   20.7363 C   0  0  0  0  0  0
  -26.0216  -26.8502   19.4635 C   0  0  0  0  0  0
  -24.8778  -27.6713   19.4597 C   0  0  0  0  0  0
  -23.6642  -29.8073   20.1556 C   0  0  0  0  0  0
  -25.4121  -36.3047   24.0319 C   0  0  1  0  0  0
  -20.5915  -28.3723   23.1235 C   0  0  2  0  0  0
  -20.6785  -26.9427   22.5398 C   0  0  0  0  0  0
  -19.5755  -26.6381   21.5211 C   0  0  0  0  0  0
  -18.1939  -26.7931   22.1628 C   0  0  0  0  0  0
  -19.1560  -28.8875   23.2848 C   0  0  0  0  0  0
  -18.9478  -30.1469   23.8876 C   0  0  0  0  0  0
  -17.6474  -30.6589   24.0562 C   0  0  0  0  0  0
  -25.9065  -34.9421   23.5076 C   0  0  0  0  0  0
  -16.5366  -29.9081   23.6333 C   0  0  0  0  0  0
  -16.7288  -28.6500   23.0351 C   0  0  0  0  0  0
  -26.4523  -31.6571   25.0730 C   0  0  0  0  0  0
  -25.3719  -31.3747   26.1432 C   0  0  0  0  0  0
  -27.0386  -30.2972   24.6290 C   0  0  0  0  0  0
  -27.6056  -32.4333   25.7513 C   0  0  0  0  0  0
  -27.5575  -37.1790   24.8464 C   0  0  0  0  0  0
  -21.4252  -29.3058   22.3613 N   0  0  0  0  0  0
  -26.4287  -37.3749   23.9404 N   0  0  0  0  0  0
  -24.7106  -31.0395   22.0955 N   0  0  0  0  0  0
  -23.4214  -28.8123   23.3004 O   0  0  0  0  0  0
  -28.2403  -26.1880   20.2066 O   0  0  0  0  0  0
  -26.5643  -34.8910   22.4648 O   0  0  0  0  0  0
  -23.5522  -32.1358   23.7184 O   0  0  0  0  0  0
  -28.2284  -21.0046   19.6662 C   0  0  0  0  0  0
  -29.0993  -20.3265   20.4790 C   0  0  0  0  0  0
  -29.4995  -22.8072   21.3542 C   0  0  0  0  0  0
  -28.5875  -23.3515   20.4795 C   0  0  0  0  0  0
  -29.8669  -21.2985   21.3531 C   0  0  0  0  0  0
  -30.1276  -23.6102   22.4853 C   0  0  0  0  0  0
  -29.0442  -18.7169   20.7859 C   0  0  0  0  0  0
  -27.8152  -24.7841   20.6630 C   0  0  0  0  0  0
  -30.1092  -17.5276   20.3479 C   0  0  0  0  0  0
  -28.0294  -22.4207   19.5685 N   0  0  0  0  0  0
  -29.7981  -16.0151   20.6068 N   0  0  0  0  0  0
  -30.7704  -20.8731   22.0804 O   0  0  0  0  0  0
  -31.4766  -12.6589   19.1880 H   0  0  0  0  0  0
  -30.4045  -11.5584   20.0074 H   0  0  0  0  0  0
  -29.8244  -11.7324   17.5577 H   0  0  0  0  0  0
  -29.6201  -13.4594   17.7167 H   0  0  0  0  0  0
  -27.9381  -11.2667   18.9693 H   0  0  0  0  0  0
  -27.3874  -12.4541   17.8160 H   0  0  0  0  0  0
  -27.6131  -14.2459   19.4300 H   0  0  0  0  0  0
  -28.7393  -12.2480   21.4548 H   0  0  0  0  0  0
  -28.3935  -13.9317   21.7702 H   0  0  0  0  0  0
  -25.2761   -9.5685   22.4765 H   0  0  0  0  0  0
  -23.9998   -7.4633   22.7460 H   0  0  0  0  0  0
  -21.0848   -8.8774   19.8949 H   0  0  0  0  0  0
  -22.3691  -10.9677   19.6169 H   0  0  0  0  0  0
  -21.2016   -7.6152   23.9729 H   0  0  0  0  0  0
  -21.1475   -6.0524   25.9084 H   0  0  0  0  0  0
  -22.0597   -2.7614   23.2850 H   0  0  0  0  0  0
  -22.4070  -11.9877   22.4838 H   0  0  0  0  0  0
  -21.1071  -13.1233   22.2635 H   0  0  0  0  0  0
  -24.6449  -15.8414   20.5232 H   0  0  0  0  0  0
  -26.2567  -15.6352   20.0635 H   0  0  0  0  0  0
  -26.7260  -32.5354   23.1051 H   0  0  0  0  0  0
  -25.0073  -33.9648   25.0358 H   0  0  0  0  0  0
  -22.7416  -31.2978   21.3896 H   0  0  0  0  0  0
  -23.3753  -35.9603   23.3294 H   0  0  0  0  0  0
  -24.3582  -36.8906   22.2058 H   0  0  0  0  0  0
  -23.7259  -37.6469   23.6679 H   0  0  0  0  0  0
  -26.1469  -31.4972   20.6184 H   0  0  0  0  0  0
  -26.8656  -30.7857   22.0282 H   0  0  0  0  0  0
  -28.1257  -28.8369   21.2456 H   0  0  0  0  0  0
  -25.9508  -25.9141   18.9306 H   0  0  0  0  0  0
  -23.9854  -27.3346   18.9501 H   0  0  0  0  0  0
  -23.7963  -30.5859   19.4030 H   0  0  0  0  0  0
  -22.7801  -29.2472   19.8445 H   0  0  0  0  0  0
  -25.1310  -36.1877   25.0810 H   0  0  0  0  0  0
  -21.0013  -28.3313   24.1355 H   0  0  0  0  0  0
  -20.5678  -26.2342   23.3620 H   0  0  0  0  0  0
  -21.6651  -26.7426   22.1201 H   0  0  0  0  0  0
  -19.6912  -25.6289   21.1250 H   0  0  0  0  0  0
  -19.6681  -27.3186   20.6737 H   0  0  0  0  0  0
  -17.4205  -26.6675   21.4036 H   0  0  0  0  0  0
  -18.0339  -26.0079   22.9033 H   0  0  0  0  0  0
  -19.7955  -30.7289   24.2237 H   0  0  0  0  0  0
  -17.5027  -31.6268   24.5173 H   0  0  0  0  0  0
  -15.5364  -30.2977   23.7662 H   0  0  0  0  0  0
  -15.8691  -28.0812   22.7070 H   0  0  0  0  0  0
  -24.5890  -30.7107   25.7750 H   0  0  0  0  0  0
  -24.8921  -32.2928   26.4834 H   0  0  0  0  0  0
  -25.8008  -30.8931   27.0229 H   0  0  0  0  0  0
  -26.3003  -29.6696   24.1285 H   0  0  0  0  0  0
  -27.3998  -29.7263   25.4856 H   0  0  0  0  0  0
  -27.8912  -30.4214   23.9606 H   0  0  0  0  0  0
  -27.2642  -33.3632   26.2073 H   0  0  0  0  0  0
  -28.3874  -32.6899   25.0350 H   0  0  0  0  0  0
  -28.0724  -31.8480   26.5448 H   0  0  0  0  0  0
  -28.2587  -38.0090   24.7499 H   0  0  0  0  0  0
  -28.1073  -36.2619   24.6301 H   0  0  0  0  0  0
  -27.2287  -37.1452   25.8865 H   0  0  0  0  0  0
  -20.9450  -29.8789   21.6815 H   0  0  0  0  0  0
  -26.0157  -38.2818   24.1402 H   0  0  0  0  0  0
  -27.5199  -20.4500   19.0668 H   0  0  0  0  0  0
  -29.7912  -23.2350   23.4521 H   0  0  0  0  0  0
  -29.8818  -24.6704   22.4299 H   0  0  0  0  0  0
  -31.2141  -23.5258   22.4479 H   0  0  0  0  0  0
  -28.0778  -18.4014   20.3919 H   0  0  0  0  0  0
  -28.9247  -18.6421   21.8674 H   0  0  0  0  0  0
  -27.6546  -24.8836   21.7373 H   0  0  0  0  0  0
  -26.8150  -24.5733   20.2923 H   0  0  0  0  0  0
  -31.0722  -17.7468   20.8112 H   0  0  0  0  0  0
  -30.2859  -17.6257   19.2761 H   0  0  0  0  0  0
  -27.2747  -22.7440   18.9678 H   0  0  0  0  0  0
  -28.8372  -15.8172   20.8456 H   0  0  0  0  0  0
  1 25  1  0  0  0
  1 30  2  0  0  0
  1 81  1  0  0  0
  2  3  1  0  0  0
  2 25  1  0  0  0
  2 83  1  0  0  0
  2 84  1  0  0  0
  3  4  1  0  0  0
  3 85  1  0  0  0
  3 86  1  0  0  0
  4  5  1  0  0  0
  4 87  1  0  0  0
  4 88  1  0  0  0
  5  6  1  0  0  0
  5 26  1  0  0  0
  5 89  1  0  0  0
  6 25  1  0  0  0
  6 90  1  0  0  0
  6 91  1  0  0  0
  7  8  2  0  0  0
  7 26  1  0  0  0
  7 29  1  0  0  0
  8  9  1  0  0  0
  8 22  1  0  0  0
  9 10  1  0  0  0
  9 27  2  0  0  0
 10 11  2  0  0  0
 10 15  1  0  0  0
 11 12  1  0  0  0
 11 92  1  0  0  0
 12 13  2  0  0  0
 12 93  1  0  0  0
 13 14  1  0  0  0
 13 31  1  0  0  0
 14 15  2  0  0  0
 14 94  1  0  0  0
 15 95  1  0  0  0
 16 17  2  0  0  0
 16 21  1  0  0  0
 16 31  1  0  0  0
 17 18  1  0  0  0
 17 96  1  0  0  0
 18 19  2  0  0  0
 18 97  1  0  0  0
 19 20  1  0  0  0
 19 24  1  0  0  0
 20 21  2  0  0  0
 20 98  1  0  0  0
 21 23  1  0  0  0
 22 28  1  0  0  0
 22 32  2  0  0  0
 26 27  1  0  0  0
 28 99  1  0  0  0
 28100  1  0  0  0
 29101  1  0  0  0
 29102  1  0  0  0
 33 34  1  0  0  0
 33 66  1  0  0  0
 33 70  2  0  0  0
 34 36  1  0  0  0
 34 59  1  0  0  0
 34103  1  0  0  0
 35 44  2  0  0  0
 35 45  1  0  0  0
 35 68  1  0  0  0
 36 56  1  0  0  0
 36104  1  0  0  0
 37 39  1  0  0  0
 37 47  1  0  0  0
 37 66  1  0  0  0
 37105  1  0  0  0
 38 43  2  0  0  0
 38 46  1  0  0  0
 38 47  1  0  0  0
 39 64  1  0  0  0
 39 67  2  0  0  0
 40 52  1  0  0  0
 40 53  2  0  0  0
 40 58  1  0  0  0
 41106  1  0  0  0
 41107  1  0  0  0
 41108  1  0  0  0
 41 48  1  0  0  0
 42 43  1  0  0  0
 42 66  1  0  0  0
 42109  1  0  0  0
 42110  1  0  0  0
 43 44  1  0  0  0
 44111  1  0  0  0
 45 46  2  0  0  0
 45112  1  0  0  0
 46113  1  0  0  0
 47114  1  0  0  0
 47115  1  0  0  0
 48 56  1  0  0  0
 48 65  1  0  0  0
 48116  1  0  0  0
 49 50  1  0  0  0
 49 53  1  0  0  0
 49 64  1  0  0  0
 49117  1  0  0  0
 50 51  1  0  0  0
 50118  1  0  0  0
 50119  1  0  0  0
 51 52  1  0  0  0
 51120  1  0  0  0
 51121  1  0  0  0
 52122  1  0  0  0
 52123  1  0  0  0
 53 54  1  0  0  0
 54 55  2  0  0  0
 54124  1  0  0  0
 55 57  1  0  0  0
 55125  1  0  0  0
 56 69  2  0  0  0
 57 58  2  0  0  0
 57126  1  0  0  0
 58127  1  0  0  0
 59 60  1  0  0  0
 59 61  1  0  0  0
 59 62  1  0  0  0
 60128  1  0  0  0
 60129  1  0  0  0
 60130  1  0  0  0
 61131  1  0  0  0
 61132  1  0  0  0
 61133  1  0  0  0
 62134  1  0  0  0
 62135  1  0  0  0
 62136  1  0  0  0
 63 65  1  0  0  0
 63137  1  0  0  0
 63138  1  0  0  0
 63139  1  0  0  0
 64140  1  0  0  0
 65141  1  0  0  0
 68 78  1  0  0  0
 71 72  2  0  0  0
 71 80  1  0  0  0
 71142  1  0  0  0
 72 75  1  0  0  0
 72 77  1  0  0  0
 73 74  2  0  0  0
 73 75  1  0  0  0
 73 76  1  0  0  0
 74 78  1  0  0  0
 74 80  1  0  0  0
 75 82  2  0  0  0
 76143  1  0  0  0
 76144  1  0  0  0
 76145  1  0  0  0
 77 79  1  0  0  0
 77146  1  0  0  0
 77147  1  0  0  0
 78148  1  0  0  0
 78149  1  0  0  0
 79 81  1  0  0  0
 79150  1  0  0  0
 79151  1  0  0  0
 80152  1  0  0  0
 81153  1  0  0  0
M  ISO  4   1 100  68 101  78 101  81 100
M  END
> <chiral flag>
0

> <version>
0

> <s_m_source_file>
/data/baiqing/PycharmProjects/Reinvent-master-3.2/result/LINK_invent/BTK/process_docking_weight1_custom_sum_contain_oxygen_bond_distance_aromatic_linkinvent_7_9_3/rearranged_h_0108.sdf

> <i_m_source_file_index>
11

> <r_mmod_Potential_Energy-OPLS-2005>
356.248046875

> <r_mmod_Stretch_Energy-OPLS-2005>
195.0947265625

> <r_mmod_Bend_Energy-OPLS-2005>
225.039978027344

> <r_mmod_Torsional_Energy-OPLS-2005>
189.634521484375

> <r_mmod_Improper_Torsional_Energy-OPLS-2005>
7.19675159454346

> <r_mmod_Van_der_Waal_Energy-OPLS-2005>
140.836303710938

> <r_mmod_Electrostatic_Energy-OPLS-2005>
-312.912414550781

> <r_mmod_Solvation_Energy-OPLS-2005>
-235.500350952148

> <b_mmod_Minimization_Converged-OPLS-2005>
0

> <r_mmod_RMS_Derivative-OPLS-2005>
1.55782926082611

$$$$
11
                    3D
 Structure written by MMmdl.
163171  0  0  1  0            999 V2000
  -30.5174  -15.0054   20.3862 C   0  0  0  0  0  0
  -30.4353  -12.6135   19.5299 C   0  0  0  0  0  0
  -29.5300  -12.5541   18.2753 C   0  0  0  0  0  0
  -28.0629  -12.3350   18.6818 C   0  0  0  0  0  0
  -27.6326  -13.2590   19.8520 C   0  0  2  0  0  0
  -28.6706  -13.3058   20.9949 C   0  0  0  0  0  0
  -25.2464  -13.8228   20.5758 C   0  0  0  0  0  0
  -24.1774  -13.0430   20.9216 C   0  0  0  0  0  0
  -24.6416  -11.6930   20.8772 C   0  0  0  0  0  0
  -23.9103  -10.4294   21.0408 C   0  0  0  0  0  0
  -24.3648   -9.4221   21.9189 C   0  0  0  0  0  0
  -23.6312   -8.2260   22.0765 C   0  0  0  0  0  0
  -22.4295   -8.0302   21.3550 C   0  0  0  0  0  0
  -21.9929   -9.0269   20.4638 C   0  0  0  0  0  0
  -22.7269  -10.2138   20.3062 C   0  0  0  0  0  0
  -21.6853   -6.0750   22.5279 C   0  0  0  0  0  0
  -21.4008   -6.5639   23.8220 C   0  0  0  0  0  0
  -21.3666   -5.6797   24.9184 C   0  0  0  0  0  0
  -21.6064   -4.3059   24.7223 C   0  0  0  0  0  0
  -21.8811   -3.8154   23.4339 C   0  0  0  0  0  0
  -21.9186   -4.6975   22.3391 C   0  0  0  0  0  0
  -22.7803  -13.5205   21.1870 C   0  0  0  0  0  0
  -22.1661   -4.2172   21.0971 F   0  0  0  0  0  0
  -21.5640   -3.4537   25.7728 F   0  0  0  0  0  0
  -29.9486  -13.7266   20.4047 N   0  0  0  0  0  0
  -26.2916  -12.9474   20.3322 N   0  0  0  0  0  0
  -25.9365  -11.6593   20.5778 N   0  0  0  0  0  0
  -22.0472  -12.8177   22.0412 N   0  0  0  0  0  0
  -25.4134  -15.1972   20.4247 N   0  0  0  0  0  0
  -31.6918  -15.0771   20.0021 O   0  0  0  0  0  0
  -21.6654   -6.8904   21.4255 O   0  0  0  0  0  0
  -22.3478  -14.5518   20.6731 O   0  0  0  0  0  0
  -24.6507  -31.8366   23.1829 C   0  0  0  0  0  0
  -25.9250  -32.4663   23.8238 C   0  0  1  0  0  0
  -27.2131  -27.0592   20.1383 C   0  0  0  0  0  0
  -25.5981  -33.8474   24.2150 N   0  0  0  0  0  0
  -23.4562  -30.4528   21.5328 C   0  0  2  0  0  0
  -24.9041  -28.8708   20.1042 C   0  0  0  0  0  0
  -22.7601  -29.4491   22.4870 C   0  0  0  0  0  0
  -18.0299  -28.1392   22.8472 C   0  0  0  0  0  0
  -24.1491  -36.7231   23.2640 C   0  0  0  0  0  0
  -26.0178  -30.6806   21.3956 C   0  0  0  0  0  0
  -26.0842  -29.2868   20.7323 C   0  0  0  0  0  0
  -27.2305  -28.3951   20.7379 C   0  0  0  0  0  0
  -26.0056  -26.7705   19.4604 C   0  0  0  0  0  0
  -24.8827  -27.6293   19.4539 C   0  0  0  0  0  0
  -23.6836  -29.7804   20.1526 C   0  0  0  0  0  0
  -25.4132  -36.3005   24.0298 C   0  0  1  0  0  0
  -20.5914  -28.3714   23.1231 C   0  0  2  0  0  0
  -20.6791  -26.9412   22.5409 C   0  0  0  0  0  0
  -19.5765  -26.6367   21.5223 C   0  0  0  0  0  0
  -18.1942  -26.7928   22.1621 C   0  0  0  0  0  0
  -19.1558  -28.8876   23.2834 C   0  0  0  0  0  0
  -18.9476  -30.1478   23.8844 C   0  0  0  0  0  0
  -17.6468  -30.6589   24.0549 C   0  0  0  0  0  0
  -25.9090  -34.9388   23.5032 C   0  0  0  0  0  0
  -16.5358  -29.9071   23.6355 C   0  0  0  0  0  0
  -16.7282  -28.6494   23.0368 C   0  0  0  0  0  0
  -26.4530  -31.6563   25.0714 C   0  0  0  0  0  0
  -25.3685  -31.3800   26.1395 C   0  0  0  0  0  0
  -27.0416  -30.2945   24.6371 C   0  0  0  0  0  0
  -27.6047  -32.4350   25.7511 C   0  0  0  0  0  0
  -27.5573  -37.1772   24.8453 C   0  0  0  0  0  0
  -21.4288  -29.3019   22.3603 N   0  0  0  0  0  0
  -26.4283  -37.3735   23.9402 N   0  0  0  0  0  0
  -24.7287  -31.0135   22.0906 N   0  0  0  0  0  0
  -23.4217  -28.8063   23.3056 O   0  0  0  0  0  0
  -28.2436  -26.0295   20.2663 O   0  0  0  0  0  0
  -26.5677  -34.8890   22.4608 O   0  0  0  0  0  0
  -23.5607  -32.1297   23.6993 O   0  0  0  0  0  0
  -27.7537  -22.4273   21.2902 C   0  0  0  0  0  0
  -28.5115  -23.0286   20.2305 C   0  0  0  0  0  0
  -28.0707  -21.0802   21.4579 C   0  0  0  0  0  0
  -29.2873  -21.8839   19.8189 C   0  0  0  0  0  0
  -26.7247  -23.1644   22.1111 C   0  0  0  0  0  0
  -27.4654  -20.1527   22.4710 C   0  0  0  0  0  0
  -30.2654  -21.8416   18.6884 C   0  0  0  0  0  0
  -28.2819  -24.5917   19.5893 C   0  0  0  0  0  0
  -29.8498  -19.2099   20.7170 C   0  0  0  0  0  0
  -30.3260  -17.7365   18.5528 C   0  0  0  0  0  0
  -29.6296  -17.6954   19.9379 C   0  0  1  0  0  0
  -29.0796  -20.6453   20.5855 N   0  0  0  0  0  0
  -29.7388  -16.2004   20.5635 N   0  0  0  0  0  0
  -31.7629  -17.4026   18.6131 N   0  3  0  0  0  0
  -31.4763  -12.7500   19.2309 H   0  0  0  0  0  0
  -30.4105  -11.6620   20.0633 H   0  0  0  0  0  0
  -29.8559  -11.7546   17.6083 H   0  0  0  0  0  0
  -29.6235  -13.4830   17.7113 H   0  0  0  0  0  0
  -27.9596  -11.2906   18.9746 H   0  0  0  0  0  0
  -27.4064  -12.4761   17.8241 H   0  0  0  0  0  0
  -27.5913  -14.2634   19.4286 H   0  0  0  0  0  0
  -28.7629  -12.3335   21.4831 H   0  0  0  0  0  0
  -28.3578  -14.0066   21.7709 H   0  0  0  0  0  0
  -25.2809   -9.5682   22.4752 H   0  0  0  0  0  0
  -24.0021   -7.4637   22.7463 H   0  0  0  0  0  0
  -21.0881   -8.8780   19.8917 H   0  0  0  0  0  0
  -22.3750  -10.9679   19.6156 H   0  0  0  0  0  0
  -21.2000   -7.6148   23.9722 H   0  0  0  0  0  0
  -21.1505   -6.0536   25.9083 H   0  0  0  0  0  0
  -22.0582   -2.7615   23.2834 H   0  0  0  0  0  0
  -22.4115  -11.9829   22.4788 H   0  0  0  0  0  0
  -21.1091  -13.1202   22.2618 H   0  0  0  0  0  0
  -24.6462  -15.8523   20.5404 H   0  0  0  0  0  0
  -26.2676  -15.6418   20.1153 H   0  0  0  0  0  0
  -26.7307  -32.5224   23.0956 H   0  0  0  0  0  0
  -25.0139  -33.9604   25.0303 H   0  0  0  0  0  0
  -22.7605  -31.2802   21.3784 H   0  0  0  0  0  0
  -23.3776  -35.9540   23.3263 H   0  0  0  0  0  0
  -24.3577  -36.8920   22.2064 H   0  0  0  0  0  0
  -23.7227  -37.6396   23.6720 H   0  0  0  0  0  0
  -26.1880  -31.4333   20.6246 H   0  0  0  0  0  0
  -26.8815  -30.7282   22.0461 H   0  0  0  0  0  0
  -28.1211  -28.7046   21.2659 H   0  0  0  0  0  0
  -25.8643  -25.8268   18.9600 H   0  0  0  0  0  0
  -23.9821  -27.3097   18.9489 H   0  0  0  0  0  0
  -23.8190  -30.5557   19.3978 H   0  0  0  0  0  0
  -22.7954  -29.2257   19.8446 H   0  0  0  0  0  0
  -25.1330  -36.1815   25.0792 H   0  0  0  0  0  0
  -20.9981  -28.3303   24.1364 H   0  0  0  0  0  0
  -20.5701  -26.2324   23.3636 H   0  0  0  0  0  0
  -21.6660  -26.7436   22.1198 H   0  0  0  0  0  0
  -19.6929  -25.6271   21.1282 H   0  0  0  0  0  0
  -19.6707  -27.3158   20.6740 H   0  0  0  0  0  0
  -17.4219  -26.6679   21.4008 H   0  0  0  0  0  0
  -18.0313  -26.0077   22.9018 H   0  0  0  0  0  0
  -19.7951  -30.7317   24.2173 H   0  0  0  0  0  0
  -17.5021  -31.6268   24.5155 H   0  0  0  0  0  0
  -15.5357  -30.2951   23.7718 H   0  0  0  0  0  0
  -15.8686  -28.0801   22.7107 H   0  0  0  0  0  0
  -24.5841  -30.7183   25.7693 H   0  0  0  0  0  0
  -24.8908  -32.3010   26.4742 H   0  0  0  0  0  0
  -25.7925  -30.8996   27.0224 H   0  0  0  0  0  0
  -26.3063  -29.6652   24.1344 H   0  0  0  0  0  0
  -27.3951  -29.7266   25.4987 H   0  0  0  0  0  0
  -27.9000  -30.4155   23.9768 H   0  0  0  0  0  0
  -27.2625  -33.3675   26.2015 H   0  0  0  0  0  0
  -28.3899  -32.6882   25.0372 H   0  0  0  0  0  0
  -28.0673  -31.8533   26.5497 H   0  0  0  0  0  0
  -28.2555  -38.0101   24.7541 H   0  0  0  0  0  0
  -28.1112  -36.2635   24.6240 H   0  0  0  0  0  0
  -27.2296  -37.1361   25.8855 H   0  0  0  0  0  0
  -20.9520  -29.8700   21.6740 H   0  0  0  0  0  0
  -26.0132  -38.2789   24.1441 H   0  0  0  0  0  0
  -26.4719  -24.1258   21.6639 H   0  0  0  0  0  0
  -27.1091  -23.3469   23.1150 H   0  0  0  0  0  0
  -25.8025  -22.5878   22.1948 H   0  0  0  0  0  0
  -26.3804  -20.2550   22.4848 H   0  0  0  0  0  0
  -27.8271  -20.3889   23.4714 H   0  0  0  0  0  0
  -27.6725  -19.1028   22.2709 H   0  0  0  0  0  0
  -30.2032  -22.7419   18.0765 H   0  0  0  0  0  0
  -30.0617  -20.9974   18.0318 H   0  0  0  0  0  0
  -31.2897  -21.7524   19.0480 H   0  0  0  0  0  0
  -27.4000  -24.4739   18.9660 H   0  0  0  0  0  0
  -29.0797  -24.6923   18.8548 H   0  0  0  0  0  0
  -30.9002  -19.4562   20.5697 H   0  0  0  0  0  0
  -29.8289  -18.9744   21.7788 H   0  0  0  0  0  0
  -30.2052  -18.7144   18.0865 H   0  0  0  0  0  0
  -29.8431  -17.0291   17.8781 H   0  0  0  0  0  0
  -28.5644  -17.7326   19.7043 H   0  0  0  0  0  0
  -28.8759  -15.9566   21.0272 H   0  0  0  0  0  0
  -32.2688  -18.0310   19.2090 H   0  0  0  0  0  0
  -32.1709  -17.4305   17.6949 H   0  0  0  0  0  0
  -31.8768  -16.4647   18.9899 H   0  0  0  0  0  0
  1 25  1  0  0  0
  1 30  2  0  0  0
  1 83  1  0  0  0
  2  3  1  0  0  0
  2 25  1  0  0  0
  2 85  1  0  0  0
  2 86  1  0  0  0
  3  4  1  0  0  0
  3 87  1  0  0  0
  3 88  1  0  0  0
  4  5  1  0  0  0
  4 89  1  0  0  0
  4 90  1  0  0  0
  5  6  1  0  0  0
  5 26  1  0  0  0
  5 91  1  0  0  0
  6 25  1  0  0  0
  6 92  1  0  0  0
  6 93  1  0  0  0
  7  8  2  0  0  0
  7 26  1  0  0  0
  7 29  1  0  0  0
  8  9  1  0  0  0
  8 22  1  0  0  0
  9 10  1  0  0  0
  9 27  2  0  0  0
 10 11  2  0  0  0
 10 15  1  0  0  0
 11 12  1  0  0  0
 11 94  1  0  0  0
 12 13  2  0  0  0
 12 95  1  0  0  0
 13 14  1  0  0  0
 13 31  1  0  0  0
 14 15  2  0  0  0
 14 96  1  0  0  0
 15 97  1  0  0  0
 16 17  2  0  0  0
 16 21  1  0  0  0
 16 31  1  0  0  0
 17 18  1  0  0  0
 17 98  1  0  0  0
 18 19  2  0  0  0
 18 99  1  0  0  0
 19 20  1  0  0  0
 19 24  1  0  0  0
 20 21  2  0  0  0
 20100  1  0  0  0
 21 23  1  0  0  0
 22 28  1  0  0  0
 22 32  2  0  0  0
 26 27  1  0  0  0
 28101  1  0  0  0
 28102  1  0  0  0
 29103  1  0  0  0
 29104  1  0  0  0
 33 34  1  0  0  0
 33 66  1  0  0  0
 33 70  2  0  0  0
 34 36  1  0  0  0
 34 59  1  0  0  0
 34105  1  0  0  0
 35 44  2  0  0  0
 35 45  1  0  0  0
 35 68  1  0  0  0
 36 56  1  0  0  0
 36106  1  0  0  0
 37 39  1  0  0  0
 37 47  1  0  0  0
 37 66  1  0  0  0
 37107  1  0  0  0
 38 43  2  0  0  0
 38 46  1  0  0  0
 38 47  1  0  0  0
 39 64  1  0  0  0
 39 67  2  0  0  0
 40 52  1  0  0  0
 40 53  2  0  0  0
 40 58  1  0  0  0
 41108  1  0  0  0
 41109  1  0  0  0
 41110  1  0  0  0
 41 48  1  0  0  0
 42 43  1  0  0  0
 42 66  1  0  0  0
 42111  1  0  0  0
 42112  1  0  0  0
 43 44  1  0  0  0
 44113  1  0  0  0
 45 46  2  0  0  0
 45114  1  0  0  0
 46115  1  0  0  0
 47116  1  0  0  0
 47117  1  0  0  0
 48 56  1  0  0  0
 48 65  1  0  0  0
 48118  1  0  0  0
 49 50  1  0  0  0
 49 53  1  0  0  0
 49 64  1  0  0  0
 49119  1  0  0  0
 50 51  1  0  0  0
 50120  1  0  0  0
 50121  1  0  0  0
 51 52  1  0  0  0
 51122  1  0  0  0
 51123  1  0  0  0
 52124  1  0  0  0
 52125  1  0  0  0
 53 54  1  0  0  0
 54 55  2  0  0  0
 54126  1  0  0  0
 55 57  1  0  0  0
 55127  1  0  0  0
 56 69  2  0  0  0
 57 58  2  0  0  0
 57128  1  0  0  0
 58129  1  0  0  0
 59 60  1  0  0  0
 59 61  1  0  0  0
 59 62  1  0  0  0
 60130  1  0  0  0
 60131  1  0  0  0
 60132  1  0  0  0
 61133  1  0  0  0
 61134  1  0  0  0
 61135  1  0  0  0
 62136  1  0  0  0
 62137  1  0  0  0
 62138  1  0  0  0
 63 65  1  0  0  0
 63139  1  0  0  0
 63140  1  0  0  0
 63141  1  0  0  0
 64142  1  0  0  0
 65143  1  0  0  0
 68 78  1  0  0  0
 71 72  1  0  0  0
 71 73  2  0  0  0
 71 75  1  0  0  0
 72 74  2  0  0  0
 72 78  1  0  0  0
 73 76  1  0  0  0
 73 82  1  0  0  0
 74 77  1  0  0  0
 74 82  1  0  0  0
 75144  1  0  0  0
 75145  1  0  0  0
 75146  1  0  0  0
 76147  1  0  0  0
 76148  1  0  0  0
 76149  1  0  0  0
 77150  1  0  0  0
 77151  1  0  0  0
 77152  1  0  0  0
 78153  1  0  0  0
 78154  1  0  0  0
 79 82  1  0  0  0
 79155  1  0  0  0
 79156  1  0  0  0
 79 81  1  0  0  0
 80 81  1  0  0  0
 80 84  1  0  0  0
 80157  1  0  0  0
 80158  1  0  0  0
 81 83  1  0  0  0
 81159  1  0  0  0
 83160  1  0  0  0
 84161  1  0  0  0
 84162  1  0  0  0
 84163  1  0  0  0
M  CHG  1  84   1
M  ISO  4   1 100  68 101  78 101  83 100
M  END
> <chiral flag>
0

> <version>
0

> <s_m_source_file>
/data/baiqing/PycharmProjects/Reinvent-master-3.2/result/LINK_invent/BTK/process_docking_weight1_custom_sum_contain_oxygen_bond_distance_aromatic_linkinvent_7_9_3/rearranged_h_0108.sdf

> <i_m_source_file_index>
12

> <r_mmod_Potential_Energy-OPLS-2005>
437.919891357422

> <r_mmod_Stretch_Energy-OPLS-2005>
353.4306640625

> <r_mmod_Bend_Energy-OPLS-2005>
364.556732177734

> <r_mmod_Torsional_Energy-OPLS-2005>
286.194915771484

> <r_mmod_Improper_Torsional_Energy-OPLS-2005>
9.20968818664551

> <r_mmod_Van_der_Waal_Energy-OPLS-2005>
114.918594360352

> <r_mmod_Electrostatic_Energy-OPLS-2005>
-456.624450683594

> <r_mmod_Solvation_Energy-OPLS-2005>
-486.403015136719

> <b_mmod_Minimization_Converged-OPLS-2005>
0

> <r_mmod_RMS_Derivative-OPLS-2005>
3.39355373382568

$$$$
12
                    3D
 Structure written by MMmdl.
169176  0  0  1  0            999 V2000
  -31.0713  -15.0496   21.1122 C   0  0  0  0  0  0
  -30.8002  -13.6670   19.0833 C   0  0  0  0  0  0
  -29.5635  -13.2976   17.7221 C   0  0  0  0  0  0
  -27.7509  -13.4053   18.0705 C   0  0  0  0  0  0
  -27.1835  -13.8652   19.7912 C   0  0  2  0  0  0
  -28.5022  -14.2359   21.1793 C   0  0  0  0  0  0
  -25.0168  -13.9169   20.7529 C   0  0  0  0  0  0
  -24.0437  -13.0325   21.0043 C   0  0  0  0  0  0
  -24.6075  -11.7216   20.8799 C   0  0  0  0  0  0
  -23.9261  -10.4269   21.0264 C   0  0  0  0  0  0
  -24.3833   -9.4223   21.9109 C   0  0  0  0  0  0
  -23.6458   -8.2264   22.0713 C   0  0  0  0  0  0
  -22.4385   -8.0317   21.3557 C   0  0  0  0  0  0
  -22.0092   -9.0226   20.4601 C   0  0  0  0  0  0
  -22.7447  -10.2057   20.2940 C   0  0  0  0  0  0
  -21.6851   -6.0820   22.5335 C   0  0  0  0  0  0
  -21.4018   -6.5713   23.8270 C   0  0  0  0  0  0
  -21.3654   -5.6839   24.9226 C   0  0  0  0  0  0
  -21.6017   -4.3091   24.7222 C   0  0  0  0  0  0
  -21.8805   -3.8209   23.4337 C   0  0  0  0  0  0
  -21.9176   -4.7055   22.3421 C   0  0  0  0  0  0
  -22.6427  -13.4528   21.2385 C   0  0  0  0  0  0
  -22.1656   -4.2295   21.0963 F   0  0  0  0  0  0
  -21.5619   -3.4528   25.7681 F   0  0  0  0  0  0
  -30.2424  -14.1450   20.6992 N   0  0  0  0  0  0
  -26.0648  -13.1679   20.3362 N   0  0  0  0  0  0
  -25.8851  -11.8185   20.4968 N   0  0  0  0  0  0
  -21.9316  -12.7341   22.0879 N   0  0  0  0  0  0
  -25.0799  -15.3141   20.7920 N   0  0  0  0  0  0
  -32.2240  -15.0681   20.6995 O   0  0  0  0  0  0
  -21.6660   -6.8976   21.4312 O   0  0  0  0  0  0
  -22.2040  -14.4749   20.7088 O   0  0  0  0  0  0
  -24.7299  -31.7514   23.1121 C   0  0  0  0  0  0
  -25.9682  -32.4225   23.7845 C   0  0  1  0  0  0
  -27.1670  -26.2606   20.1734 C   0  0  0  0  0  0
  -25.6074  -33.8063   24.1698 N   0  0  0  0  0  0
  -23.5697  -30.3388   21.4796 C   0  0  2  0  0  0
  -25.0046  -28.5938   20.1146 C   0  0  0  0  0  0
  -22.7953  -29.4092   22.4583 C   0  0  0  0  0  0
  -18.0368  -28.1453   22.8422 C   0  0  0  0  0  0
  -24.1496  -36.7075   23.2658 C   0  0  0  0  0  0
  -26.1637  -30.3259   21.4398 C   0  0  0  0  0  0
  -26.2061  -28.8470   20.7841 C   0  0  0  0  0  0
  -27.2603  -27.7212   20.7691 C   0  0  0  0  0  0
  -25.9338  -26.3306   19.4610 C   0  0  0  0  0  0
  -24.9309  -27.3678   19.4297 C   0  0  0  0  0  0
  -23.8372  -29.6123   20.1269 C   0  0  0  0  0  0
  -25.4160  -36.2748   24.0238 C   0  0  1  0  0  0
  -20.6017  -28.3834   23.1063 C   0  0  2  0  0  0
  -20.6802  -26.9459   22.5392 C   0  0  0  0  0  0
  -19.5790  -26.6373   21.5201 C   0  0  0  0  0  0
  -18.1977  -26.7971   22.1598 C   0  0  0  0  0  0
  -19.1641  -28.8976   23.2701 C   0  0  0  0  0  0
  -18.9530  -30.1537   23.8777 C   0  0  0  0  0  0
  -17.6520  -30.6607   24.0561 C   0  0  0  0  0  0
  -25.9178  -34.9148   23.4819 C   0  0  0  0  0  0
  -16.5411  -29.9097   23.6365 C   0  0  0  0  0  0
  -16.7346  -28.6534   23.0359 C   0  0  0  0  0  0
  -26.4687  -31.6451   25.0654 C   0  0  0  0  0  0
  -25.3656  -31.3913   26.1212 C   0  0  0  0  0  0
  -27.0663  -30.2738   24.6851 C   0  0  0  0  0  0
  -27.6031  -32.4421   25.7539 C   0  0  0  0  0  0
  -27.5532  -37.1693   24.8456 C   0  0  0  0  0  0
  -21.4550  -29.3020   22.3333 N   0  0  0  0  0  0
  -26.4247  -37.3556   23.9383 N   0  0  0  0  0  0
  -24.8521  -30.8516   22.0615 N   0  0  0  0  0  0
  -23.4222  -28.7761   23.3110 O   0  0  0  0  0  0
  -28.0117  -24.8137   20.1721 O   0  0  0  0  0  0
  -26.5852  -34.8831   22.4454 O   0  0  0  0  0  0
  -23.6228  -32.0794   23.5817 O   0  0  0  0  0  0
  -28.6617  -20.9903   20.0052 C   0  0  0  0  0  0
  -28.2083  -16.4268   16.9026 C   0  0  0  0  0  0
  -31.6933  -16.9673   18.0114 C   0  0  0  0  0  0
  -29.1529  -15.7657   14.5022 C   0  0  0  0  0  0
  -28.9806  -12.4448   19.8120 C   0  0  0  0  0  0
  -27.7584  -22.8696   19.9409 C   0  0  0  0  0  0
  -30.6460  -16.2102   17.1666 C   0  0  0  0  0  0
  -30.1774  -17.4033   21.0914 C   0  0  0  0  0  0
  -28.3398  -16.7547   15.3775 C   0  0  2  0  0  0
  -28.9682  -15.4014   19.1244 C   0  0  1  0  0  0
  -29.1154  -17.4522   19.8982 C   0  0  1  0  0  0
  -28.4309  -19.3166   19.8205 N   0  0  0  0  0  0
  -30.4217  -16.0755   21.6960 N   0  0  0  0  0  0
  -29.2438  -15.9467   17.6808 N   0  0  0  0  0  0
  -28.6562  -18.1774   15.1158 N   0  3  0  0  0  0
  -29.8482  -21.1707   20.2921 O   0  0  0  0  0  0
  -27.0876  -16.6220   17.3813 O   0  0  0  0  0  0
  -31.5135  -14.3531   18.6518 H   0  0  0  0  0  0
  -31.4656  -12.8095   19.2215 H   0  0  0  0  0  0
  -29.7496  -12.2675   17.4215 H   0  0  0  0  0  0
  -29.8107  -13.7284   16.7588 H   0  0  0  0  0  0
  -27.2915  -12.4575   17.7793 H   0  0  0  0  0  0
  -27.2676  -14.0317   17.3319 H   0  0  0  0  0  0
  -26.6463  -14.6810   19.3436 H   0  0  0  0  0  0
  -28.3370  -13.5736   22.0334 H   0  0  0  0  0  0
  -28.1951  -15.1796   21.6317 H   0  0  0  0  0  0
  -25.2936   -9.5695   22.4736 H   0  0  0  0  0  0
  -24.0148   -7.4657   22.7429 H   0  0  0  0  0  0
  -21.1022   -8.8720   19.8942 H   0  0  0  0  0  0
  -22.3895  -10.9594   19.6048 H   0  0  0  0  0  0
  -21.2053   -7.6229   23.9810 H   0  0  0  0  0  0
  -21.1488   -6.0576   25.9131 H   0  0  0  0  0  0
  -22.0593   -2.7676   23.2752 H   0  0  0  0  0  0
  -22.3148  -11.9106   22.5276 H   0  0  0  0  0  0
  -20.9894  -13.0157   22.3094 H   0  0  0  0  0  0
  -24.3104  -15.9024   21.0967 H   0  0  0  0  0  0
  -25.9166  -15.8403   20.5773 H   0  0  0  0  0  0
  -26.7823  -32.4559   23.0595 H   0  0  0  0  0  0
  -25.0095  -33.9031   24.9774 H   0  0  0  0  0  0
  -22.9207  -31.1906   21.2631 H   0  0  0  0  0  0
  -23.3769  -35.9387   23.3224 H   0  0  0  0  0  0
  -24.3564  -36.8861   22.2094 H   0  0  0  0  0  0
  -23.7268  -37.6212   23.6844 H   0  0  0  0  0  0
  -26.4158  -31.0217   20.6385 H   0  0  0  0  0  0
  -27.0048  -30.4040   22.1153 H   0  0  0  0  0  0
  -28.1684  -27.9355   21.3157 H   0  0  0  0  0  0
  -25.6805  -25.4341   18.9177 H   0  0  0  0  0  0
  -24.0384  -27.1632   18.8538 H   0  0  0  0  0  0
  -24.0614  -30.3622   19.3651 H   0  0  0  0  0  0
  -22.9290  -29.1136   19.7873 H   0  0  0  0  0  0
  -25.1384  -36.1426   25.0725 H   0  0  0  0  0  0
  -21.0072  -28.3475   24.1197 H   0  0  0  0  0  0
  -20.5619  -26.2476   23.3674 H   0  0  0  0  0  0
  -21.6657  -26.7332   22.1236 H   0  0  0  0  0  0
  -19.6930  -25.6253   21.1306 H   0  0  0  0  0  0
  -19.6736  -27.3113   20.6669 H   0  0  0  0  0  0
  -17.4239  -26.6708   21.4012 H   0  0  0  0  0  0
  -18.0359  -26.0136   22.9013 H   0  0  0  0  0  0
  -19.7996  -30.7376   24.2103 H   0  0  0  0  0  0
  -17.5070  -31.6267   24.5189 H   0  0  0  0  0  0
  -15.5407  -30.2969   23.7738 H   0  0  0  0  0  0
  -15.8746  -28.0822   22.7128 H   0  0  0  0  0  0
  -24.5904  -30.7183   25.7548 H   0  0  0  0  0  0
  -24.8810  -32.3182   26.4279 H   0  0  0  0  0  0
  -25.7786  -30.9351   27.0219 H   0  0  0  0  0  0
  -26.3413  -29.6256   24.1932 H   0  0  0  0  0  0
  -27.4014  -29.7333   25.5717 H   0  0  0  0  0  0
  -27.9433  -30.3782   24.0470 H   0  0  0  0  0  0
  -27.2477  -33.3828   26.1757 H   0  0  0  0  0  0
  -28.4048  -32.6826   25.0551 H   0  0  0  0  0  0
  -28.0466  -31.8812   26.5775 H   0  0  0  0  0  0
  -28.2493  -38.0041   24.7475 H   0  0  0  0  0  0
  -28.1086  -36.2551   24.6297 H   0  0  0  0  0  0
  -27.2251  -37.1322   25.8865 H   0  0  0  0  0  0
  -20.9927  -29.8682   21.6342 H   0  0  0  0  0  0
  -26.0025  -38.2573   24.1408 H   0  0  0  0  0  0
  -31.7939  -16.5674   18.9980 H   0  0  0  0  0  0
  -31.5126  -18.0388   18.0922 H   0  0  0  0  0  0
  -32.6860  -16.9104   17.5691 H   0  0  0  0  0  0
  -29.0677  -14.7393   14.8534 H   0  0  0  0  0  0
  -30.2115  -16.0089   14.4499 H   0  0  0  0  0  0
  -28.7964  -15.7799   13.4717 H   0  0  0  0  0  0
  -28.1700  -11.7524   19.5548 H   0  0  0  0  0  0
  -29.0798  -12.0849   20.8443 H   0  0  0  0  0  0
  -29.7345  -11.7265   19.4727 H   0  0  0  0  0  0
  -26.9431  -22.6959   20.6348 H   0  0  0  0  0  0
  -27.2793  -22.8294   18.9605 H   0  0  0  0  0  0
  -31.1101  -15.3134   16.7689 H   0  0  0  0  0  0
  -30.6279  -16.8869   16.3244 H   0  0  0  0  0  0
  -31.1427  -17.8085   20.7892 H   0  0  0  0  0  0
  -29.8368  -18.0460   21.9027 H   0  0  0  0  0  0
  -27.3230  -16.6511   14.9983 H   0  0  0  0  0  0
  -28.0267  -15.8643   19.3315 H   0  0  0  0  0  0
  -29.7157  -17.8117   19.0880 H   0  0  0  0  0  0
  -27.4459  -19.2307   19.5922 H   0  0  0  0  0  0
  -29.6319  -15.7514   22.2396 H   0  0  0  0  0  0
  -29.5387  -18.4379   15.5168 H   0  0  0  0  0  0
  -27.9437  -18.7711   15.5099 H   0  0  0  0  0  0
  -28.6993  -18.3467   14.1257 H   0  0  0  0  0  0
  1 25  1  0  0  0
  1 30  2  0  0  0
  1 83  1  0  0  0
  2  3  1  0  0  0
  2 25  1  0  0  0
  2 88  1  0  0  0
  2 89  1  0  0  0
  3  4  1  0  0  0
  3 90  1  0  0  0
  3 91  1  0  0  0
  4  5  1  0  0  0
  4 92  1  0  0  0
  4 93  1  0  0  0
  5  6  1  0  0  0
  5 26  1  0  0  0
  5 94  1  0  0  0
  6 25  1  0  0  0
  6 95  1  0  0  0
  6 96  1  0  0  0
  7  8  2  0  0  0
  7 26  1  0  0  0
  7 29  1  0  0  0
  8  9  1  0  0  0
  8 22  1  0  0  0
  9 10  1  0  0  0
  9 27  2  0  0  0
 10 11  2  0  0  0
 10 15  1  0  0  0
 11 12  1  0  0  0
 11 97  1  0  0  0
 12 13  2  0  0  0
 12 98  1  0  0  0
 13 14  1  0  0  0
 13 31  1  0  0  0
 14 15  2  0  0  0
 14 99  1  0  0  0
 15100  1  0  0  0
 16 17  2  0  0  0
 16 21  1  0  0  0
 16 31  1  0  0  0
 17 18  1  0  0  0
 17101  1  0  0  0
 18 19  2  0  0  0
 18102  1  0  0  0
 19 20  1  0  0  0
 19 24  1  0  0  0
 20 21  2  0  0  0
 20103  1  0  0  0
 21 23  1  0  0  0
 22 28  1  0  0  0
 22 32  2  0  0  0
 26 27  1  0  0  0
 28104  1  0  0  0
 28105  1  0  0  0
 29106  1  0  0  0
 29107  1  0  0  0
 33 34  1  0  0  0
 33 66  1  0  0  0
 33 70  2  0  0  0
 34 36  1  0  0  0
 34 59  1  0  0  0
 34108  1  0  0  0
 35 44  2  0  0  0
 35 45  1  0  0  0
 35 68  1  0  0  0
 36 56  1  0  0  0
 36109  1  0  0  0
 37 39  1  0  0  0
 37 47  1  0  0  0
 37 66  1  0  0  0
 37110  1  0  0  0
 38 43  2  0  0  0
 38 46  1  0  0  0
 38 47  1  0  0  0
 39 64  1  0  0  0
 39 67  2  0  0  0
 40 52  1  0  0  0
 40 53  2  0  0  0
 40 58  1  0  0  0
 41111  1  0  0  0
 41112  1  0  0  0
 41113  1  0  0  0
 41 48  1  0  0  0
 42 43  1  0  0  0
 42 66  1  0  0  0
 42114  1  0  0  0
 42115  1  0  0  0
 43 44  1  0  0  0
 44116  1  0  0  0
 45 46  2  0  0  0
 45117  1  0  0  0
 46118  1  0  0  0
 47119  1  0  0  0
 47120  1  0  0  0
 48 56  1  0  0  0
 48 65  1  0  0  0
 48121  1  0  0  0
 49 50  1  0  0  0
 49 53  1  0  0  0
 49 64  1  0  0  0
 49122  1  0  0  0
 50 51  1  0  0  0
 50123  1  0  0  0
 50124  1  0  0  0
 51 52  1  0  0  0
 51125  1  0  0  0
 51126  1  0  0  0
 52127  1  0  0  0
 52128  1  0  0  0
 53 54  1  0  0  0
 54 55  2  0  0  0
 54129  1  0  0  0
 55 57  1  0  0  0
 55130  1  0  0  0
 56 69  2  0  0  0
 57 58  2  0  0  0
 57131  1  0  0  0
 58132  1  0  0  0
 59 60  1  0  0  0
 59 61  1  0  0  0
 59 62  1  0  0  0
 60133  1  0  0  0
 60134  1  0  0  0
 60135  1  0  0  0
 61136  1  0  0  0
 61137  1  0  0  0
 61138  1  0  0  0
 62139  1  0  0  0
 62140  1  0  0  0
 62141  1  0  0  0
 63 65  1  0  0  0
 63142  1  0  0  0
 63143  1  0  0  0
 63144  1  0  0  0
 64145  1  0  0  0
 65146  1  0  0  0
 68 76  1  0  0  0
 71 76  1  0  0  0
 71 82  1  0  0  0
 71 86  2  0  0  0
 72 79  1  0  0  0
 72 84  1  0  0  0
 72 87  2  0  0  0
 73 77  1  0  0  0
 73147  1  0  0  0
 73148  1  0  0  0
 73149  1  0  0  0
 74150  1  0  0  0
 74151  1  0  0  0
 74152  1  0  0  0
 74 79  1  0  0  0
 75153  1  0  0  0
 75154  1  0  0  0
 75155  1  0  0  0
 75 80  1  0  0  0
 76156  1  0  0  0
 76157  1  0  0  0
 77 84  1  0  0  0
 77158  1  0  0  0
 77159  1  0  0  0
 78 83  1  0  0  0
 78160  1  0  0  0
 78161  1  0  0  0
 78 81  1  0  0  0
 79 85  1  0  0  0
 79162  1  0  0  0
 80 81  1  0  0  0
 80 84  1  0  0  0
 80163  1  0  0  0
 81 82  1  0  0  0
 81164  1  0  0  0
 82165  1  0  0  0
 83166  1  0  0  0
 85167  1  0  0  0
 85168  1  0  0  0
 85169  1  0  0  0
M  CHG  1  85   1
M  ISO  4   1 100  68 101  76 101  83 100
M  END
> <chiral flag>
0

> <version>
0

> <s_m_source_file>
/data/baiqing/PycharmProjects/Reinvent-master-3.2/result/LINK_invent/BTK/process_docking_weight1_custom_sum_contain_oxygen_bond_distance_aromatic_linkinvent_7_9_3/rearranged_h_0108.sdf

> <i_m_source_file_index>
13

> <r_mmod_Potential_Energy-OPLS-2005>
10123.333984375

> <r_mmod_Stretch_Energy-OPLS-2005>
5889.1533203125

> <r_mmod_Bend_Energy-OPLS-2005>
1302.47937011719

> <r_mmod_Torsional_Energy-OPLS-2005>
425.097991943359

> <r_mmod_Improper_Torsional_Energy-OPLS-2005>
15.8612880706787

> <r_mmod_Van_der_Waal_Energy-OPLS-2005>
1648.89770507812

> <r_mmod_Electrostatic_Energy-OPLS-2005>
-430.125366210938

> <r_mmod_Solvation_Energy-OPLS-2005>
-573.787902832031

> <b_mmod_Minimization_Converged-OPLS-2005>
0

> <r_mmod_RMS_Derivative-OPLS-2005>
9.59856033325195

$$$$
13
                    3D
 Structure written by MMmdl.
151159  0  0  1  0            999 V2000
  -30.4721  -15.3133   20.3457 C   0  0  0  0  0  0
  -30.4267  -12.8430   19.5352 C   0  0  0  0  0  0
  -29.5340  -12.5686   18.2997 C   0  0  0  0  0  0
  -28.0908  -12.2788   18.7408 C   0  0  0  0  0  0
  -27.6039  -13.2824   19.8134 C   0  0  2  0  0  0
  -28.6325  -13.5203   20.9420 C   0  0  0  0  0  0
  -25.2366  -13.8265   20.5765 C   0  0  0  0  0  0
  -24.1721  -13.0449   20.9283 C   0  0  0  0  0  0
  -24.6381  -11.6949   20.8778 C   0  0  0  0  0  0
  -23.9076  -10.4307   21.0410 C   0  0  0  0  0  0
  -24.3618   -9.4213   21.9187 C   0  0  0  0  0  0
  -23.6301   -8.2243   22.0758 C   0  0  0  0  0  0
  -22.4279   -8.0290   21.3548 C   0  0  0  0  0  0
  -21.9912   -9.0269   20.4653 C   0  0  0  0  0  0
  -22.7246  -10.2146   20.3062 C   0  0  0  0  0  0
  -21.6849   -6.0742   22.5275 C   0  0  0  0  0  0
  -21.4031   -6.5650   23.8210 C   0  0  0  0  0  0
  -21.3655   -5.6792   24.9174 C   0  0  0  0  0  0
  -21.6025   -4.3062   24.7219 C   0  0  0  0  0  0
  -21.8816   -3.8151   23.4340 C   0  0  0  0  0  0
  -21.9189   -4.6962   22.3396 C   0  0  0  0  0  0
  -22.7730  -13.5208   21.1896 C   0  0  0  0  0  0
  -22.1656   -4.2164   21.0969 F   0  0  0  0  0  0
  -21.5615   -3.4534   25.7726 F   0  0  0  0  0  0
  -29.8596  -14.0222   20.2994 N   0  0  0  0  0  0
  -26.2789  -12.9554   20.3218 N   0  0  0  0  0  0
  -25.9319  -11.6655   20.5742 N   0  0  0  0  0  0
  -22.0362  -12.8223   22.0450 N   0  0  0  0  0  0
  -25.4019  -15.2000   20.4172 N   0  0  0  0  0  0
  -31.6999  -15.1969   20.2131 O   0  0  0  0  0  0
  -21.6641   -6.8883   21.4244 O   0  0  0  0  0  0
  -22.3419  -14.5498   20.6705 O   0  0  0  0  0  0
  -24.6639  -31.8221   23.1690 C   0  0  0  0  0  0
  -25.9311  -32.4572   23.8156 C   0  0  1  0  0  0
  -27.2184  -26.9105   20.1848 C   0  0  0  0  0  0
  -25.5966  -33.8393   24.2063 N   0  0  0  0  0  0
  -23.4789  -30.4336   21.5191 C   0  0  2  0  0  0
  -24.9323  -28.8162   20.1133 C   0  0  0  0  0  0
  -22.7667  -29.4436   22.4776 C   0  0  0  0  0  0
  -18.0321  -28.1402   22.8464 C   0  0  0  0  0  0
  -24.1500  -36.7207   23.2653 C   0  0  0  0  0  0
  -26.0502  -30.6220   21.4031 C   0  0  0  0  0  0
  -26.1175  -29.2108   20.7468 C   0  0  0  0  0  0
  -27.2552  -28.2810   20.7544 C   0  0  0  0  0  0
  -26.0013  -26.6719   19.5072 C   0  0  0  0  0  0
  -24.9004  -27.5668   19.4742 C   0  0  0  0  0  0
  -23.7197  -29.7473   20.1462 C   0  0  0  0  0  0
  -25.4144  -36.2960   24.0297 C   0  0  1  0  0  0
  -20.5948  -28.3749   23.1180 C   0  0  2  0  0  0
  -20.6792  -26.9431   22.5395 C   0  0  0  0  0  0
  -19.5765  -26.6371   21.5206 C   0  0  0  0  0  0
  -18.1951  -26.7932   22.1622 C   0  0  0  0  0  0
  -19.1584  -28.8897   23.2805 C   0  0  0  0  0  0
  -18.9496  -30.1486   23.8840 C   0  0  0  0  0  0
  -17.6491  -30.6597   24.0554 C   0  0  0  0  0  0
  -25.9100  -34.9343   23.5005 C   0  0  0  0  0  0
  -16.5382  -29.9087   23.6343 C   0  0  0  0  0  0
  -16.7304  -28.6507   23.0361 C   0  0  0  0  0  0
  -26.4561  -31.6523   25.0696 C   0  0  0  0  0  0
  -25.3678  -31.3789   26.1343 C   0  0  0  0  0  0
  -27.0454  -30.2877   24.6456 C   0  0  0  0  0  0
  -27.6042  -32.4344   25.7492 C   0  0  0  0  0  0
  -27.5567  -37.1769   24.8479 C   0  0  0  0  0  0
  -21.4339  -29.3045   22.3530 N   0  0  0  0  0  0
  -26.4293  -37.3688   23.9390 N   0  0  0  0  0  0
  -24.7522  -30.9867   22.0838 N   0  0  0  0  0  0
  -23.4202  -28.8005   23.3026 O   0  0  0  0  0  0
  -28.2238  -25.7989   20.2358 O   0  0  0  0  0  0
  -26.5722  -34.8881   22.4609 O   0  0  0  0  0  0
  -23.5703  -32.1203   23.6764 O   0  0  0  0  0  0
  -31.9341  -19.3524   19.1015 C   0  0  0  0  0  0
  -31.4922  -18.0581   19.4293 C   0  0  0  0  0  0
  -30.9762  -20.2376   19.4645 C   0  0  0  0  0  0
  -30.2527  -18.0750   20.0276 C   0  0  0  0  0  0
  -27.1599  -23.9765   21.5753 C   0  0  0  0  0  0
  -28.9923  -22.6656   20.1535 C   0  0  0  0  0  0
  -28.7615  -20.8569   20.3543 C   0  0  0  0  0  0
  -27.9583  -24.1556   20.2787 C   0  0  2  0  0  0
  -29.8577  -19.6279   20.0281 N   0  0  0  0  0  0
  -29.8022  -16.6688   20.3642 N   0  0  0  0  0  0
  -31.4478  -13.0263   19.1973 H   0  0  0  0  0  0
  -30.4903  -11.9630   20.1775 H   0  0  0  0  0  0
  -29.9284  -11.7342   17.7190 H   0  0  0  0  0  0
  -29.5498  -13.4359   17.6384 H   0  0  0  0  0  0
  -28.0728  -11.2716   19.1587 H   0  0  0  0  0  0
  -27.4170  -12.2669   17.8835 H   0  0  0  0  0  0
  -27.5029  -14.2251   19.2759 H   0  0  0  0  0  0
  -28.8133  -12.6144   21.5236 H   0  0  0  0  0  0
  -28.2579  -14.2720   21.6388 H   0  0  0  0  0  0
  -25.2749   -9.5705   22.4783 H   0  0  0  0  0  0
  -24.0000   -7.4635   22.7487 H   0  0  0  0  0  0
  -21.0823   -8.8785   19.8976 H   0  0  0  0  0  0
  -22.3680  -10.9685   19.6184 H   0  0  0  0  0  0
  -21.2056   -7.6164   23.9730 H   0  0  0  0  0  0
  -21.1473   -6.0522   25.9073 H   0  0  0  0  0  0
  -22.0598   -2.7619   23.2824 H   0  0  0  0  0  0
  -22.3972  -11.9922   22.4907 H   0  0  0  0  0  0
  -21.0989  -13.1286   22.2636 H   0  0  0  0  0  0
  -24.6320  -15.8506   20.5283 H   0  0  0  0  0  0
  -26.2423  -15.6359   20.0599 H   0  0  0  0  0  0
  -26.7384  -32.5098   23.0865 H   0  0  0  0  0  0
  -25.0025  -33.9461   25.0151 H   0  0  0  0  0  0
  -22.7925  -31.2650   21.3466 H   0  0  0  0  0  0
  -23.3746  -35.9558   23.3341 H   0  0  0  0  0  0
  -24.3559  -36.8827   22.2062 H   0  0  0  0  0  0
  -23.7291  -37.6419   23.6693 H   0  0  0  0  0  0
  -26.2357  -31.3633   20.6237 H   0  0  0  0  0  0
  -26.9080  -30.6761   22.0619 H   0  0  0  0  0  0
  -28.1539  -28.5842   21.2721 H   0  0  0  0  0  0
  -25.8670  -25.7199   19.0149 H   0  0  0  0  0  0
  -24.0000  -27.2563   18.9626 H   0  0  0  0  0  0
  -23.8799  -30.5155   19.3895 H   0  0  0  0  0  0
  -22.8280  -29.2058   19.8258 H   0  0  0  0  0  0
  -25.1349  -36.1764   25.0789 H   0  0  0  0  0  0
  -21.0034  -28.3360   24.1302 H   0  0  0  0  0  0
  -20.5664  -26.2376   23.3637 H   0  0  0  0  0  0
  -21.6656  -26.7398   22.1210 H   0  0  0  0  0  0
  -19.6929  -25.6268   21.1271 H   0  0  0  0  0  0
  -19.6702  -27.3150   20.6710 H   0  0  0  0  0  0
  -17.4215  -26.6664   21.4036 H   0  0  0  0  0  0
  -18.0365  -26.0089   22.9039 H   0  0  0  0  0  0
  -19.7973  -30.7314   24.2185 H   0  0  0  0  0  0
  -17.5047  -31.6269   24.5166 H   0  0  0  0  0  0
  -15.5382  -30.2971   23.7693 H   0  0  0  0  0  0
  -15.8704  -28.0803   22.7109 H   0  0  0  0  0  0
  -24.5841  -30.7172   25.7642 H   0  0  0  0  0  0
  -24.8889  -32.3002   26.4668 H   0  0  0  0  0  0
  -25.7886  -30.8997   27.0188 H   0  0  0  0  0  0
  -26.3129  -29.6536   24.1454 H   0  0  0  0  0  0
  -27.3958  -29.7266   25.5130 H   0  0  0  0  0  0
  -27.9086  -30.4041   23.9898 H   0  0  0  0  0  0
  -27.2594  -33.3676   26.1953 H   0  0  0  0  0  0
  -28.3900  -32.6856   25.0360 H   0  0  0  0  0  0
  -28.0657  -31.8554   26.5498 H   0  0  0  0  0  0
  -28.2613  -38.0032   24.7435 H   0  0  0  0  0  0
  -28.1027  -36.2549   24.6418 H   0  0  0  0  0  0
  -27.2261  -37.1555   25.8877 H   0  0  0  0  0  0
  -20.9590  -29.8737   21.6660 H   0  0  0  0  0  0
  -26.0147  -38.2760   24.1331 H   0  0  0  0  0  0
  -32.8691  -19.6136   18.6266 H   0  0  0  0  0  0
  -32.0983  -17.1991   19.1958 H   0  0  0  0  0  0
  -31.0196  -21.3076   19.3340 H   0  0  0  0  0  0
  -26.7564  -22.9672   21.6454 H   0  0  0  0  0  0
  -26.3204  -24.6674   21.6345 H   0  0  0  0  0  0
  -27.7929  -24.1404   22.4478 H   0  0  0  0  0  0
  -29.4072  -22.7665   19.1509 H   0  0  0  0  0  0
  -29.8366  -22.8850   20.8078 H   0  0  0  0  0  0
  -27.8726  -20.6034   19.7763 H   0  0  0  0  0  0
  -28.4562  -20.7054   21.3893 H   0  0  0  0  0  0
  -27.2549  -24.0107   19.4579 H   0  0  0  0  0  0
  -28.8152  -16.5987   20.5674 H   0  0  0  0  0  0
  1 25  1  0  0  0
  1 30  2  0  0  0
  1 80  1  0  0  0
  2  3  1  0  0  0
  2 25  1  0  0  0
  2 81  1  0  0  0
  2 82  1  0  0  0
  3  4  1  0  0  0
  3 83  1  0  0  0
  3 84  1  0  0  0
  4  5  1  0  0  0
  4 85  1  0  0  0
  4 86  1  0  0  0
  5  6  1  0  0  0
  5 26  1  0  0  0
  5 87  1  0  0  0
  6 25  1  0  0  0
  6 88  1  0  0  0
  6 89  1  0  0  0
  7  8  2  0  0  0
  7 26  1  0  0  0
  7 29  1  0  0  0
  8  9  1  0  0  0
  8 22  1  0  0  0
  9 10  1  0  0  0
  9 27  2  0  0  0
 10 11  2  0  0  0
 10 15  1  0  0  0
 11 12  1  0  0  0
 11 90  1  0  0  0
 12 13  2  0  0  0
 12 91  1  0  0  0
 13 14  1  0  0  0
 13 31  1  0  0  0
 14 15  2  0  0  0
 14 92  1  0  0  0
 15 93  1  0  0  0
 16 17  2  0  0  0
 16 21  1  0  0  0
 16 31  1  0  0  0
 17 18  1  0  0  0
 17 94  1  0  0  0
 18 19  2  0  0  0
 18 95  1  0  0  0
 19 20  1  0  0  0
 19 24  1  0  0  0
 20 21  2  0  0  0
 20 96  1  0  0  0
 21 23  1  0  0  0
 22 28  1  0  0  0
 22 32  2  0  0  0
 26 27  1  0  0  0
 28 97  1  0  0  0
 28 98  1  0  0  0
 29 99  1  0  0  0
 29100  1  0  0  0
 33 34  1  0  0  0
 33 66  1  0  0  0
 33 70  2  0  0  0
 34 36  1  0  0  0
 34 59  1  0  0  0
 34101  1  0  0  0
 35 44  2  0  0  0
 35 45  1  0  0  0
 35 68  1  0  0  0
 36 56  1  0  0  0
 36102  1  0  0  0
 37 39  1  0  0  0
 37 47  1  0  0  0
 37 66  1  0  0  0
 37103  1  0  0  0
 38 43  2  0  0  0
 38 46  1  0  0  0
 38 47  1  0  0  0
 39 64  1  0  0  0
 39 67  2  0  0  0
 40 52  1  0  0  0
 40 53  2  0  0  0
 40 58  1  0  0  0
 41104  1  0  0  0
 41105  1  0  0  0
 41106  1  0  0  0
 41 48  1  0  0  0
 42 43  1  0  0  0
 42 66  1  0  0  0
 42107  1  0  0  0
 42108  1  0  0  0
 43 44  1  0  0  0
 44109  1  0  0  0
 45 46  2  0  0  0
 45110  1  0  0  0
 46111  1  0  0  0
 47112  1  0  0  0
 47113  1  0  0  0
 48 56  1  0  0  0
 48 65  1  0  0  0
 48114  1  0  0  0
 49 50  1  0  0  0
 49 53  1  0  0  0
 49 64  1  0  0  0
 49115  1  0  0  0
 50 51  1  0  0  0
 50116  1  0  0  0
 50117  1  0  0  0
 51 52  1  0  0  0
 51118  1  0  0  0
 51119  1  0  0  0
 52120  1  0  0  0
 52121  1  0  0  0
 53 54  1  0  0  0
 54 55  2  0  0  0
 54122  1  0  0  0
 55 57  1  0  0  0
 55123  1  0  0  0
 56 69  2  0  0  0
 57 58  2  0  0  0
 57124  1  0  0  0
 58125  1  0  0  0
 59 60  1  0  0  0
 59 61  1  0  0  0
 59 62  1  0  0  0
 60126  1  0  0  0
 60127  1  0  0  0
 60128  1  0  0  0
 61129  1  0  0  0
 61130  1  0  0  0
 61131  1  0  0  0
 62132  1  0  0  0
 62133  1  0  0  0
 62134  1  0  0  0
 63 65  1  0  0  0
 63135  1  0  0  0
 63136  1  0  0  0
 63137  1  0  0  0
 64138  1  0  0  0
 65139  1  0  0  0
 68 78  1  0  0  0
 71 72  1  0  0  0
 71 73  2  0  0  0
 71140  1  0  0  0
 72 74  2  0  0  0
 72141  1  0  0  0
 73 79  1  0  0  0
 73142  1  0  0  0
 74 79  1  0  0  0
 74 80  1  0  0  0
 75143  1  0  0  0
 75144  1  0  0  0
 75145  1  0  0  0
 75 78  1  0  0  0
 76 77  1  0  0  0
 76 78  1  0  0  0
 76146  1  0  0  0
 76147  1  0  0  0
 77 79  1  0  0  0
 77148  1  0  0  0
 77149  1  0  0  0
 78150  1  0  0  0
 80151  1  0  0  0
M  ISO  4   1 100  68 101  78 101  80 100
M  END
> <chiral flag>
0

> <version>
0

> <s_m_source_file>
/data/baiqing/PycharmProjects/Reinvent-master-3.2/result/LINK_invent/BTK/process_docking_weight1_custom_sum_contain_oxygen_bond_distance_aromatic_linkinvent_7_9_3/rearranged_h_0108.sdf

> <i_m_source_file_index>
14

> <r_mmod_Potential_Energy-OPLS-2005>
1503.71984863281

> <r_mmod_Stretch_Energy-OPLS-2005>
691.063720703125

> <r_mmod_Bend_Energy-OPLS-2005>
536.682739257812

> <r_mmod_Torsional_Energy-OPLS-2005>
234.731597900391

> <r_mmod_Improper_Torsional_Energy-OPLS-2005>
3.67245030403137

> <r_mmod_Van_der_Waal_Energy-OPLS-2005>
124.232849121094

> <r_mmod_Electrostatic_Energy-OPLS-2005>
-367.393310546875

> <r_mmod_Solvation_Energy-OPLS-2005>
-213.055130004883

> <b_mmod_Minimization_Converged-OPLS-2005>
0

> <r_mmod_RMS_Derivative-OPLS-2005>
2.49852085113525

$$$$
14
                    3D
 Structure written by MMmdl.
183191  0  0  1  0            999 V2000
  -30.2772  -14.8976   20.6281 C   0  0  0  0  0  0
  -30.3946  -12.6026   19.5779 C   0  0  0  0  0  0
  -29.5188  -12.5408   18.3031 C   0  0  0  0  0  0
  -28.0283  -12.3408   18.6283 C   0  0  0  0  0  0
  -27.5777  -13.1906   19.8581 C   0  0  2  0  0  0
  -28.5679  -13.1278   21.0327 C   0  0  0  0  0  0
  -25.1782  -13.7728   20.5245 C   0  0  0  0  0  0
  -24.1459  -13.0324   20.9086 C   0  0  0  0  0  0
  -24.6040  -11.6615   20.8806 C   0  0  0  0  0  0
  -23.8887  -10.4171   21.0455 C   0  0  0  0  0  0
  -24.3502   -9.4113   21.9230 C   0  0  0  0  0  0
  -23.6256   -8.2152   22.0763 C   0  0  0  0  0  0
  -22.4225   -8.0184   21.3535 C   0  0  0  0  0  0
  -21.9804   -9.0133   20.4649 C   0  0  0  0  0  0
  -22.7036  -10.2017   20.3114 C   0  0  0  0  0  0
  -21.6842   -6.0749   22.5265 C   0  0  0  0  0  0
  -21.3991   -6.5687   23.8179 C   0  0  0  0  0  0
  -21.3627   -5.6828   24.9135 C   0  0  0  0  0  0
  -21.6042   -4.3093   24.7152 C   0  0  0  0  0  0
  -21.8843   -3.8186   23.4268 C   0  0  0  0  0  0
  -21.9213   -4.7017   22.3353 C   0  0  0  0  0  0
  -22.7345  -13.4919   21.1901 C   0  0  0  0  0  0
  -22.1725   -4.2250   21.0916 F   0  0  0  0  0  0
  -21.5575   -3.4554   25.7634 F   0  0  0  0  0  0
  -29.8327  -13.6008   20.5145 N   0  0  0  0  0  0
  -26.2363  -12.9076   20.3042 N   0  0  0  0  0  0
  -25.8939  -11.6258   20.5794 N   0  0  0  0  0  0
  -22.0193  -12.8195   22.0525 N   0  0  0  0  0  0
  -25.3397  -15.1589   20.2928 N   0  0  0  0  0  0
  -31.4798  -15.1066   20.3405 O   0  0  0  0  0  0
  -21.6602   -6.8837   21.4206 O   0  0  0  0  0  0
  -22.3083  -14.5264   20.6519 O   0  0  0  0  0  0
  -24.6580  -31.8934   23.1988 C   0  0  0  0  0  0
  -25.9574  -32.4753   23.8446 C   0  0  1  0  0  0
  -26.5210  -27.0013   20.3427 C   0  0  0  0  0  0
  -25.6499  -33.8648   24.2498 N   0  0  0  0  0  0
  -23.4173  -30.6864   21.5122 C   0  0  2  0  0  0
  -24.7647  -29.0460   20.0002 C   0  0  0  0  0  0
  -22.6840  -29.5849   22.3984 C   0  0  0  0  0  0
  -18.0162  -28.4270   22.7583 C   0  0  0  0  0  0
  -24.1556  -36.7304   23.2593 C   0  0  0  0  0  0
  -26.0007  -30.6899   21.4447 C   0  0  0  0  0  0
  -25.9229  -29.2871   20.7626 C   0  0  0  0  0  0
  -26.8677  -28.2576   20.9548 C   0  0  0  0  0  0
  -25.6357  -26.9247   19.2377 C   0  0  0  0  0  0
  -24.7159  -27.9740   19.1256 C   0  0  0  0  0  0
  -23.6040  -30.0732   20.0926 C   0  0  0  0  0  0
  -25.4178  -36.3180   24.0342 C   0  0  1  0  0  0
  -20.5202  -28.6508   23.1398 C   0  0  2  0  0  0
  -20.5047  -27.1566   22.6976 C   0  0  0  0  0  0
  -19.6790  -26.9425   21.4914 C   0  0  0  0  0  0
  -18.2665  -27.4345   21.6426 C   0  0  0  0  0  0
  -19.0882  -29.1448   23.3277 C   0  0  0  0  0  0
  -18.7460  -30.2969   24.0766 C   0  0  0  0  0  0
  -17.3891  -30.7223   24.2174 C   0  0  0  0  0  0
  -25.9230  -34.9512   23.5142 C   0  0  0  0  0  0
  -16.3619  -29.9781   23.6337 C   0  0  0  0  0  0
  -16.6954  -28.8364   22.9576 C   0  0  0  0  0  0
  -26.4665  -31.6571   25.0984 C   0  0  0  0  0  0
  -25.3759  -31.3791   26.1593 C   0  0  0  0  0  0
  -27.0407  -30.2904   24.6599 C   0  0  0  0  0  0
  -27.6290  -32.4238   25.7874 C   0  0  0  0  0  0
  -27.5636  -37.1874   24.8450 C   0  0  0  0  0  0
  -21.3391  -29.5069   22.2143 N   0  0  0  0  0  0
  -26.4329  -37.3843   23.9432 N   0  0  0  0  0  0
  -24.7227  -31.0944   22.1069 N   0  0  0  0  0  0
  -23.3321  -28.8821   23.2097 O   0  0  0  0  0  0
  -26.0843  -25.9567   21.1460 O   0  0  0  0  0  0
  -26.5526  -34.8920   22.4581 O   0  0  0  0  0  0
  -23.5931  -32.1966   23.7449 O   0  0  0  0  0  0
  -28.4883  -16.7549   20.1592 C   0  0  0  0  0  0
  -29.7645  -16.9479   22.0836 C   0  0  0  0  0  0
  -27.2622  -17.5680   20.8096 C   0  0  0  0  0  0
  -28.6543  -17.8650   22.7412 C   0  0  0  0  0  0
  -22.2898  -22.5921   26.5593 C   0  0  0  0  0  0
  -22.9341  -20.4725   25.3470 C   0  0  0  0  0  0
  -22.3473  -22.1006   20.4982 C   0  0  0  0  0  0
  -23.1328  -25.2161   22.2339 C   0  0  0  0  0  0
  -22.1160  -23.8148   22.4824 C   0  0  0  0  0  0
  -25.3916  -20.0088   21.9714 C   0  0  0  0  0  0
  -26.7093  -19.4023   22.5741 C   0  0  0  0  0  0
  -25.0293  -21.4866   22.5325 C   0  0  0  0  0  0
  -23.7091  -22.6099   24.2961 C   0  0  0  0  0  0
  -24.4050  -25.6467   21.1829 C   0  0  0  0  0  0
  -23.3659  -21.9209   25.6148 C   0  0  0  0  0  0
  -22.8841  -22.6741   21.8930 C   0  0  1  0  0  0
  -29.3778  -15.9292   21.0537 N   0  0  0  0  0  0
  -27.7315  -18.5719   21.7969 N   0  3  0  0  0  0
  -23.6035  -21.8297   22.9583 N   0  3  1  0  0  0
  -31.4227  -12.8509   19.3420 H   0  0  0  0  0  0
  -30.4350  -11.6361   20.0812 H   0  0  0  0  0  0
  -29.8815  -11.7476   17.6472 H   0  0  0  0  0  0
  -29.6160  -13.4749   17.7551 H   0  0  0  0  0  0
  -27.8295  -11.2756   18.7786 H   0  0  0  0  0  0
  -27.4171  -12.6290   17.7676 H   0  0  0  0  0  0
  -27.5591  -14.2140   19.4965 H   0  0  0  0  0  0
  -28.6741  -12.1105   21.4127 H   0  0  0  0  0  0
  -28.2025  -13.7172   21.8832 H   0  0  0  0  0  0
  -25.2710   -9.5687   22.4700 H   0  0  0  0  0  0
  -24.0044   -7.4582   22.7476 H   0  0  0  0  0  0
  -21.0739   -8.8551   19.8976 H   0  0  0  0  0  0
  -22.3479  -10.9517   19.6195 H   0  0  0  0  0  0
  -21.2018   -7.6210   23.9683 H   0  0  0  0  0  0
  -21.1419   -6.0566   25.9033 H   0  0  0  0  0  0
  -22.0678   -2.7675   23.2667 H   0  0  0  0  0  0
  -22.3748  -11.9771   22.4992 H   0  0  0  0  0  0
  -21.0805  -13.1116   22.2961 H   0  0  0  0  0  0
  -24.5462  -15.7872   20.3842 H   0  0  0  0  0  0
  -26.1157  -15.5337   19.7775 H   0  0  0  0  0  0
  -26.7826  -32.5266   23.1342 H   0  0  0  0  0  0
  -25.0991  -33.9838   25.0870 H   0  0  0  0  0  0
  -22.8013  -31.5906   21.3715 H   0  0  0  0  0  0
  -23.3853  -35.9582   23.3183 H   0  0  0  0  0  0
  -24.3687  -36.8977   22.2011 H   0  0  0  0  0  0
  -23.7227  -37.6465   23.6627 H   0  0  0  0  0  0
  -26.2434  -31.3858   20.6614 H   0  0  0  0  0  0
  -26.8160  -30.6468   22.1008 H   0  0  0  0  0  0
  -27.3690  -28.1859   21.8909 H   0  0  0  0  0  0
  -25.3190  -26.0510   18.7614 H   0  0  0  0  0  0
  -23.7946  -27.8716   18.4885 H   0  0  0  0  0  0
  -23.8174  -30.8549   19.3609 H   0  0  0  0  0  0
  -22.6600  -29.6362   19.7359 H   0  0  0  0  0  0
  -25.1320  -36.2019   25.0808 H   0  0  0  0  0  0
  -20.9027  -28.8204   24.1421 H   0  0  0  0  0  0
  -20.1401  -26.3888   23.3160 H   0  0  0  0  0  0
  -21.5173  -26.9060   22.4940 H   0  0  0  0  0  0
  -19.9821  -25.9430   21.1518 H   0  0  0  0  0  0
  -19.9664  -27.7602   20.8249 H   0  0  0  0  0  0
  -18.1226  -28.2219   20.8479 H   0  0  0  0  0  0
  -17.5002  -26.7254   21.4841 H   0  0  0  0  0  0
  -19.4258  -30.9528   24.6322 H   0  0  0  0  0  0
  -17.0708  -31.5961   24.8203 H   0  0  0  0  0  0
  -15.3629  -30.3382   23.6791 H   0  0  0  0  0  0
  -15.8835  -28.3326   22.4387 H   0  0  0  0  0  0
  -24.5951  -30.7157   25.7820 H   0  0  0  0  0  0
  -24.8915  -32.2959   26.4949 H   0  0  0  0  0  0
  -25.7893  -30.8984   27.0403 H   0  0  0  0  0  0
  -26.2924  -29.6701   24.1582 H   0  0  0  0  0  0
  -27.3871  -29.7212   25.5185 H   0  0  0  0  0  0
  -27.8976  -30.4017   23.9958 H   0  0  0  0  0  0
  -27.2920  -33.3490   26.2460 H   0  0  0  0  0  0
  -28.4066  -32.6747   25.0720 H   0  0  0  0  0  0
  -28.0868  -31.8297   26.5722 H   0  0  0  0  0  0
  -28.2570  -38.0246   24.7618 H   0  0  0  0  0  0
  -28.1236  -36.2792   24.6157 H   0  0  0  0  0  0
  -27.2380  -37.1356   25.8847 H   0  0  0  0  0  0
  -20.9542  -30.3316   21.7359 H   0  0  0  0  0  0
  -26.0207  -38.2911   24.1442 H   0  0  0  0  0  0
  -29.1338  -17.5078   19.6788 H   0  0  0  0  0  0
  -28.1548  -16.1733   19.3140 H   0  0  0  0  0  0
  -30.2360  -16.4520   22.9228 H   0  0  0  0  0  0
  -30.5198  -17.6188   21.6693 H   0  0  0  0  0  0
  -26.5653  -16.9063   21.3356 H   0  0  0  0  0  0
  -26.6770  -18.0717   20.0182 H   0  0  0  0  0  0
  -29.0876  -18.6603   23.3449 H   0  0  0  0  0  0
  -28.0092  -17.2965   23.4173 H   0  0  0  0  0  0
  -22.4080  -22.0761   27.5106 H   0  0  0  0  0  0
  -21.2621  -22.4442   26.2151 H   0  0  0  0  0  0
  -22.4326  -23.6782   26.7492 H   0  0  0  0  0  0
  -22.7821  -19.9832   26.3079 H   0  0  0  0  0  0
  -23.7839  -20.0181   24.7855 H   0  0  0  0  0  0
  -21.9996  -20.5124   24.7358 H   0  0  0  0  0  0
  -21.8358  -22.9217   20.1301 H   0  0  0  0  0  0
  -21.6500  -21.2411   20.4573 H   0  0  0  0  0  0
  -23.1044  -22.1237   19.6380 H   0  0  0  0  0  0
  -23.1258  -25.8645   23.0839 H   0  0  0  0  0  0
  -22.3508  -25.5972   21.5380 H   0  0  0  0  0  0
  -21.1194  -23.7735   22.0073 H   0  0  0  0  0  0
  -21.5912  -23.4648   23.4161 H   0  0  0  0  0  0
  -24.4909  -19.3982   22.2156 H   0  0  0  0  0  0
  -25.4279  -20.0751   20.8569 H   0  0  0  0  0  0
  -26.3150  -18.8920   23.4734 H   0  0  0  0  0  0
  -27.2424  -20.2745   23.0017 H   0  0  0  0  0  0
  -25.1804  -21.9095   21.4718 H   0  0  0  0  0  0
  -25.8061  -22.1120   23.0277 H   0  0  0  0  0  0
  -24.6266  -23.1921   24.2841 H   0  0  0  0  0  0
  -23.1252  -23.5219   24.5102 H   0  0  0  0  0  0
  -24.0059  -26.6544   21.1912 H   0  0  0  0  0  0
  -24.1082  -25.0181   20.2733 H   0  0  0  0  0  0
  -24.3089  -22.0094   26.1421 H   0  0  0  0  0  0
  -23.7724  -23.2232   21.5025 H   0  0  0  0  0  0
  -28.2278  -19.2759   21.2644 H   0  0  0  0  0  0
  -23.1336  -20.9260   23.2170 H   0  0  0  0  0  0
  1 25  1  0  0  0
  1 30  2  0  0  0
  1 87  1  0  0  0
  2  3  1  0  0  0
  2 25  1  0  0  0
  2 90  1  0  0  0
  2 91  1  0  0  0
  3  4  1  0  0  0
  3 92  1  0  0  0
  3 93  1  0  0  0
  4  5  1  0  0  0
  4 94  1  0  0  0
  4 95  1  0  0  0
  5  6  1  0  0  0
  5 26  1  0  0  0
  5 96  1  0  0  0
  6 25  1  0  0  0
  6 97  1  0  0  0
  6 98  1  0  0  0
  7  8  2  0  0  0
  7 26  1  0  0  0
  7 29  1  0  0  0
  8  9  1  0  0  0
  8 22  1  0  0  0
  9 10  1  0  0  0
  9 27  2  0  0  0
 10 11  2  0  0  0
 10 15  1  0  0  0
 11 12  1  0  0  0
 11 99  1  0  0  0
 12 13  2  0  0  0
 12100  1  0  0  0
 13 14  1  0  0  0
 13 31  1  0  0  0
 14 15  2  0  0  0
 14101  1  0  0  0
 15102  1  0  0  0
 16 17  2  0  0  0
 16 21  1  0  0  0
 16 31  1  0  0  0
 17 18  1  0  0  0
 17103  1  0  0  0
 18 19  2  0  0  0
 18104  1  0  0  0
 19 20  1  0  0  0
 19 24  1  0  0  0
 20 21  2  0  0  0
 20105  1  0  0  0
 21 23  1  0  0  0
 22 28  1  0  0  0
 22 32  2  0  0  0
 26 27  1  0  0  0
 28106  1  0  0  0
 28107  1  0  0  0
 29108  1  0  0  0
 29109  1  0  0  0
 33 34  1  0  0  0
 33 66  1  0  0  0
 33 70  2  0  0  0
 34 36  1  0  0  0
 34 59  1  0  0  0
 34110  1  0  0  0
 35 44  2  0  0  0
 35 45  1  0  0  0
 35 68  1  0  0  0
 36 56  1  0  0  0
 36111  1  0  0  0
 37 39  1  0  0  0
 37 47  1  0  0  0
 37 66  1  0  0  0
 37112  1  0  0  0
 38 43  2  0  0  0
 38 46  1  0  0  0
 38 47  1  0  0  0
 39 64  1  0  0  0
 39 67  2  0  0  0
 40 52  1  0  0  0
 40 53  2  0  0  0
 40 58  1  0  0  0
 41113  1  0  0  0
 41114  1  0  0  0
 41115  1  0  0  0
 41 48  1  0  0  0
 42 43  1  0  0  0
 42 66  1  0  0  0
 42116  1  0  0  0
 42117  1  0  0  0
 43 44  1  0  0  0
 44118  1  0  0  0
 45 46  2  0  0  0
 45119  1  0  0  0
 46120  1  0  0  0
 47121  1  0  0  0
 47122  1  0  0  0
 48 56  1  0  0  0
 48 65  1  0  0  0
 48123  1  0  0  0
 49 50  1  0  0  0
 49 53  1  0  0  0
 49 64  1  0  0  0
 49124  1  0  0  0
 50 51  1  0  0  0
 50125  1  0  0  0
 50126  1  0  0  0
 51 52  1  0  0  0
 51127  1  0  0  0
 51128  1  0  0  0
 52129  1  0  0  0
 52130  1  0  0  0
 53 54  1  0  0  0
 54 55  2  0  0  0
 54131  1  0  0  0
 55 57  1  0  0  0
 55132  1  0  0  0
 56 69  2  0  0  0
 57 58  2  0  0  0
 57133  1  0  0  0
 58134  1  0  0  0
 59 60  1  0  0  0
 59 61  1  0  0  0
 59 62  1  0  0  0
 60135  1  0  0  0
 60136  1  0  0  0
 60137  1  0  0  0
 61138  1  0  0  0
 61139  1  0  0  0
 61140  1  0  0  0
 62141  1  0  0  0
 62142  1  0  0  0
 62143  1  0  0  0
 63 65  1  0  0  0
 63144  1  0  0  0
 63145  1  0  0  0
 63146  1  0  0  0
 64147  1  0  0  0
 65148  1  0  0  0
 68 84  1  0  0  0
 71 73  1  0  0  0
 71 87  1  0  0  0
 71149  1  0  0  0
 71150  1  0  0  0
 72 74  1  0  0  0
 72 87  1  0  0  0
 72151  1  0  0  0
 72152  1  0  0  0
 73 88  1  0  0  0
 73153  1  0  0  0
 73154  1  0  0  0
 74 88  1  0  0  0
 74155  1  0  0  0
 74156  1  0  0  0
 75157  1  0  0  0
 75158  1  0  0  0
 75159  1  0  0  0
 75 85  1  0  0  0
 76 85  1  0  0  0
 76160  1  0  0  0
 76161  1  0  0  0
 76162  1  0  0  0
 77163  1  0  0  0
 77164  1  0  0  0
 77165  1  0  0  0
 77 86  1  0  0  0
 78 79  1  0  0  0
 78 84  1  0  0  0
 78166  1  0  0  0
 78167  1  0  0  0
 79 86  1  0  0  0
 79168  1  0  0  0
 79169  1  0  0  0
 80 81  1  0  0  0
 80 82  1  0  0  0
 80170  1  0  0  0
 80171  1  0  0  0
 81172  1  0  0  0
 81173  1  0  0  0
 81 88  1  0  0  0
 82174  1  0  0  0
 82175  1  0  0  0
 82 89  1  0  0  0
 83 85  1  0  0  0
 83 89  1  0  0  0
 83176  1  0  0  0
 83177  1  0  0  0
 84178  1  0  0  0
 84179  1  0  0  0
 85180  1  0  0  0
 86 89  1  0  0  0
 86181  1  0  0  0
 88182  1  0  0  0
 89183  1  0  0  0
M  CHG  2  88   1  89   1
M  ISO  4   1 100  68 101  84 101  87 100
M  END
> <chiral flag>
0

> <version>
0

> <s_m_source_file>
/data/baiqing/PycharmProjects/Reinvent-master-3.2/result/LINK_invent/BTK/process_docking_weight1_custom_sum_contain_oxygen_bond_distance_aromatic_linkinvent_7_9_3/rearranged_h_0108.sdf

> <i_m_source_file_index>
15

> <r_mmod_Potential_Energy-OPLS-2005>
2604.9521484375

> <r_mmod_Stretch_Energy-OPLS-2005>
421.138854980469

> <r_mmod_Bend_Energy-OPLS-2005>
710.966064453125

> <r_mmod_Torsional_Energy-OPLS-2005>
667.937927246094

> <r_mmod_Improper_Torsional_Energy-OPLS-2005>
32.4690246582031

> <r_mmod_Van_der_Waal_Energy-OPLS-2005>
274.225891113281

> <r_mmod_Electrostatic_Energy-OPLS-2005>
148.912628173828

> <r_mmod_Solvation_Energy-OPLS-2005>
-884.289123535156

> <b_mmod_Minimization_Converged-OPLS-2005>
0

> <r_mmod_RMS_Derivative-OPLS-2005>
99.9990005493164

$$$$
15
                    3D
 Structure written by MMmdl.
167175  0  0  1  0            999 V2000
  -30.6821  -14.4902   20.5625 C   0  0  0  0  0  0
  -30.4300  -12.3112   19.4284 C   0  0  0  0  0  0
  -29.5028  -12.5112   18.2103 C   0  0  0  0  0  0
  -28.0206  -12.3684   18.6163 C   0  0  0  0  0  0
  -27.6639  -13.1997   19.8768 C   0  0  2  0  0  0
  -28.7061  -12.9775   20.9983 C   0  0  0  0  0  0
  -25.2592  -13.8112   20.5684 C   0  0  0  0  0  0
  -24.1834  -13.0420   20.9188 C   0  0  0  0  0  0
  -24.6389  -11.6884   20.8732 C   0  0  0  0  0  0
  -23.9048  -10.4279   21.0407 C   0  0  0  0  0  0
  -24.3602   -9.4203   21.9197 C   0  0  0  0  0  0
  -23.6287   -8.2236   22.0762 C   0  0  0  0  0  0
  -22.4278   -8.0266   21.3535 C   0  0  0  0  0  0
  -21.9895   -9.0238   20.4646 C   0  0  0  0  0  0
  -22.7215  -10.2126   20.3057 C   0  0  0  0  0  0
  -21.6846   -6.0736   22.5280 C   0  0  0  0  0  0
  -21.4007   -6.5634   23.8218 C   0  0  0  0  0  0
  -21.3672   -5.6791   24.9184 C   0  0  0  0  0  0
  -21.6054   -4.3053   24.7229 C   0  0  0  0  0  0
  -21.8819   -3.8141   23.4347 C   0  0  0  0  0  0
  -21.9189   -4.6963   22.3405 C   0  0  0  0  0  0
  -22.7868  -13.5252   21.1851 C   0  0  0  0  0  0
  -22.1654   -4.2144   21.0986 F   0  0  0  0  0  0
  -21.5645   -3.4540   25.7738 F   0  0  0  0  0  0
  -30.0386  -13.2924   20.4535 N   0  0  0  0  0  0
  -26.3031  -12.9286   20.3360 N   0  0  0  0  0  0
  -25.9310  -11.6455   20.5752 N   0  0  0  0  0  0
  -22.0471  -12.8258   22.0396 N   0  0  0  0  0  0
  -25.4310  -15.1814   20.4070 N   0  0  0  0  0  0
  -31.8147  -14.6761   20.1031 O   0  0  0  0  0  0
  -21.6632   -6.8869   21.4237 O   0  0  0  0  0  0
  -22.3581  -14.5568   20.6696 O   0  0  0  0  0  0
  -24.6147  -31.8669   23.2094 C   0  0  0  0  0  0
  -25.9039  -32.4818   23.8391 C   0  0  1  0  0  0
  -27.2390  -27.4323   20.1061 C   0  0  0  0  0  0
  -25.5903  -33.8622   24.2326 N   0  0  0  0  0  0
  -23.4017  -30.4871   21.5520 C   0  0  2  0  0  0
  -24.8484  -28.9456   20.1218 C   0  0  0  0  0  0
  -22.7399  -29.4657   22.5040 C   0  0  0  0  0  0
  -18.0264  -28.1372   22.8504 C   0  0  0  0  0  0
  -24.1484  -36.7316   23.2641 C   0  0  0  0  0  0
  -25.9282  -30.8325   21.3596 C   0  0  0  0  0  0
  -26.0060  -29.4619   20.7170 C   0  0  0  0  0  0
  -27.2048  -28.7138   20.7014 C   0  0  0  0  0  0
  -26.0666  -26.9289   19.5033 C   0  0  0  0  0  0
  -24.8740  -27.6797   19.5102 C   0  0  0  0  0  0
  -23.6077  -29.8096   20.1694 C   0  0  0  0  0  0
  -25.4109  -36.3118   24.0337 C   0  0  1  0  0  0
  -20.5847  -28.3652   23.1340 C   0  0  2  0  0  0
  -20.6753  -26.9396   22.5420 C   0  0  0  0  0  0
  -19.5735  -26.6385   21.5221 C   0  0  0  0  0  0
  -18.1913  -26.7921   22.1623 C   0  0  0  0  0  0
  -19.1507  -28.8833   23.2913 C   0  0  0  0  0  0
  -18.9436  -30.1445   23.8912 C   0  0  0  0  0  0
  -17.6435  -30.6587   24.0555 C   0  0  0  0  0  0
  -25.9036  -34.9477   23.5128 C   0  0  0  0  0  0
  -16.5330  -29.9080   23.6330 C   0  0  0  0  0  0
  -16.7251  -28.6489   23.0372 C   0  0  0  0  0  0
  -26.4468  -31.6591   25.0710 C   0  0  0  0  0  0
  -25.3739  -31.3655   26.1447 C   0  0  0  0  0  0
  -27.0304  -30.3056   24.6054 C   0  0  0  0  0  0
  -27.6049  -32.4310   25.7469 C   0  0  0  0  0  0
  -27.5580  -37.1813   24.8466 C   0  0  0  0  0  0
  -21.4130  -29.3021   22.3755 N   0  0  0  0  0  0
  -26.4297  -37.3799   23.9401 N   0  0  0  0  0  0
  -24.6667  -31.0767   22.0996 N   0  0  0  0  0  0
  -23.4164  -28.8210   23.3092 O   0  0  0  0  0  0
  -28.4333  -26.7475   20.0349 O   0  0  0  0  0  0
  -26.5592  -34.8928   22.4683 O   0  0  0  0  0  0
  -23.5340  -32.1419   23.7494 O   0  0  0  0  0  0
  -28.6462  -17.1994   20.0419 C   0  0  0  0  0  0
  -28.4828  -18.4793   19.4768 C   0  0  0  0  0  0
  -29.5457  -19.4154   19.5789 C   0  0  0  0  0  0
  -30.7163  -18.9747   20.2572 C   0  0  0  0  0  0
  -29.8645  -16.8179   20.6320 C   0  0  0  0  0  0
  -27.1927  -18.7624   18.7243 C   0  0  0  0  0  0
  -31.9362  -19.8648   20.4335 C   0  0  0  0  0  0
  -27.6218  -22.1858   17.8646 C   0  0  0  0  0  0
  -30.0147  -25.4114   21.1224 C   0  0  0  0  0  0
  -29.5062  -20.7792   18.8439 C   0  0  0  0  0  0
  -28.1608  -24.3000   19.7037 C   0  0  0  0  0  0
  -28.3613  -21.7992   19.1728 C   0  0  1  0  0  0
  -28.5480  -25.4607   20.6681 C   0  0  2  0  0  0
  -30.8625  -17.7233   20.7592 N   0  0  0  0  0  0
  -29.9412  -15.4784   21.1068 N   0  0  0  0  0  0
  -28.8635  -22.9927   19.9274 N   0  3  0  0  0  0
  -31.4753  -12.4150   19.1305 H   0  0  0  0  0  0
  -30.3339  -11.2979   19.8218 H   0  0  0  0  0  0
  -29.7495  -11.7906   17.4297 H   0  0  0  0  0  0
  -29.6728  -13.4990   17.7804 H   0  0  0  0  0  0
  -27.8258  -11.3111   18.7997 H   0  0  0  0  0  0
  -27.3744  -12.6544   17.7845 H   0  0  0  0  0  0
  -27.7082  -14.2455   19.5793 H   0  0  0  0  0  0
  -28.6871  -11.9382   21.3315 H   0  0  0  0  0  0
  -28.4624  -13.5677   21.8831 H   0  0  0  0  0  0
  -25.2737   -9.5693   22.4784 H   0  0  0  0  0  0
  -24.0003   -7.4625   22.7479 H   0  0  0  0  0  0
  -21.0826   -8.8734   19.8949 H   0  0  0  0  0  0
  -22.3656  -10.9664   19.6168 H   0  0  0  0  0  0
  -21.1986   -7.6140   23.9717 H   0  0  0  0  0  0
  -21.1507   -6.0522   25.9092 H   0  0  0  0  0  0
  -22.0591   -2.7601   23.2840 H   0  0  0  0  0  0
  -22.4023  -11.9895   22.4773 H   0  0  0  0  0  0
  -21.1099  -13.1319   22.2583 H   0  0  0  0  0  0
  -24.6676  -15.8389   20.5156 H   0  0  0  0  0  0
  -26.2758  -15.6076   20.0575 H   0  0  0  0  0  0
  -26.7118  -32.5533   23.1162 H   0  0  0  0  0  0
  -25.0092  -33.9790   25.0500 H   0  0  0  0  0  0
  -22.6920  -31.3042   21.4095 H   0  0  0  0  0  0
  -23.3753  -35.9644   23.3308 H   0  0  0  0  0  0
  -24.3590  -36.8925   22.2059 H   0  0  0  0  0  0
  -23.7220  -37.6513   23.6653 H   0  0  0  0  0  0
  -26.0301  -31.5922   20.5831 H   0  0  0  0  0  0
  -26.8207  -30.8963   21.9698 H   0  0  0  0  0  0
  -28.1056  -29.1200   21.1395 H   0  0  0  0  0  0
  -26.0729  -25.9771   18.9946 H   0  0  0  0  0  0
  -23.9883  -27.2858   19.0308 H   0  0  0  0  0  0
  -23.7034  -30.5770   19.3998 H   0  0  0  0  0  0
  -22.7347  -29.2177   19.8858 H   0  0  0  0  0  0
  -25.1291  -36.1986   25.0831 H   0  0  0  0  0  0
  -20.9936  -28.3199   24.1461 H   0  0  0  0  0  0
  -20.5672  -26.2260   23.3597 H   0  0  0  0  0  0
  -21.6620  -26.7462   22.1186 H   0  0  0  0  0  0
  -19.6884  -25.6301   21.1244 H   0  0  0  0  0  0
  -19.6673  -27.3205   20.6759 H   0  0  0  0  0  0
  -17.4187  -26.6707   21.4014 H   0  0  0  0  0  0
  -18.0289  -26.0049   22.8994 H   0  0  0  0  0  0
  -19.7914  -30.7259   24.2288 H   0  0  0  0  0  0
  -17.4991  -31.6285   24.5125 H   0  0  0  0  0  0
  -15.5326  -30.2983   23.7653 H   0  0  0  0  0  0
  -15.8648  -28.0802   22.7104 H   0  0  0  0  0  0
  -24.5948  -30.6975   25.7756 H   0  0  0  0  0  0
  -24.8886  -32.2782   26.4920 H   0  0  0  0  0  0
  -25.8102  -30.8803   27.0187 H   0  0  0  0  0  0
  -26.2828  -29.6814   24.1151 H   0  0  0  0  0  0
  -27.4141  -29.7300   25.4484 H   0  0  0  0  0  0
  -27.8632  -30.4408   23.9150 H   0  0  0  0  0  0
  -27.2689  -33.3622   26.2051 H   0  0  0  0  0  0
  -28.3855  -32.6851   25.0280 H   0  0  0  0  0  0
  -28.0720  -31.8421   26.5373 H   0  0  0  0  0  0
  -28.2594  -38.0117   24.7535 H   0  0  0  0  0  0
  -28.1082  -36.2649   24.6276 H   0  0  0  0  0  0
  -27.2298  -37.1435   25.8869 H   0  0  0  0  0  0
  -20.9301  -29.8717   21.6945 H   0  0  0  0  0  0
  -26.0190  -38.2877   24.1402 H   0  0  0  0  0  0
  -27.8454  -16.4849   19.9629 H   0  0  0  0  0  0
  -26.6186  -17.8488   18.5644 H   0  0  0  0  0  0
  -27.3988  -19.1688   17.7363 H   0  0  0  0  0  0
  -26.5507  -19.4494   19.2744 H   0  0  0  0  0  0
  -31.6614  -20.8219   20.8776 H   0  0  0  0  0  0
  -32.4196  -20.0488   19.4735 H   0  0  0  0  0  0
  -32.6759  -19.4044   21.0896 H   0  0  0  0  0  0
  -27.2948  -21.3101   17.3087 H   0  0  0  0  0  0
  -28.2625  -22.7606   17.1958 H   0  0  0  0  0  0
  -26.7205  -22.7678   18.0530 H   0  0  0  0  0  0
  -30.2282  -24.5268   21.7219 H   0  0  0  0  0  0
  -30.2538  -26.2780   21.7394 H   0  0  0  0  0  0
  -30.6939  -25.4208   20.2702 H   0  0  0  0  0  0
  -29.4496  -20.5134   17.7865 H   0  0  0  0  0  0
  -30.4663  -21.2888   18.9026 H   0  0  0  0  0  0
  -28.3605  -24.6228   18.6819 H   0  0  0  0  0  0
  -27.0863  -24.1416   19.7912 H   0  0  0  0  0  0
  -27.6274  -21.3266   19.8233 H   0  0  0  0  0  0
  -27.9183  -25.4240   21.5600 H   0  0  0  0  0  0
  -29.0822  -15.1325   21.5001 H   0  0  0  0  0  0
  -28.8349  -22.7582   20.9089 H   0  0  0  0  0  0
  -29.8343  -23.1229   19.6863 H   0  0  0  0  0  0
  1 25  1  0  0  0
  1 30  2  0  0  0
  1 85  1  0  0  0
  2  3  1  0  0  0
  2 25  1  0  0  0
  2 87  1  0  0  0
  2 88  1  0  0  0
  3  4  1  0  0  0
  3 89  1  0  0  0
  3 90  1  0  0  0
  4  5  1  0  0  0
  4 91  1  0  0  0
  4 92  1  0  0  0
  5  6  1  0  0  0
  5 26  1  0  0  0
  5 93  1  0  0  0
  6 25  1  0  0  0
  6 94  1  0  0  0
  6 95  1  0  0  0
  7  8  2  0  0  0
  7 26  1  0  0  0
  7 29  1  0  0  0
  8  9  1  0  0  0
  8 22  1  0  0  0
  9 10  1  0  0  0
  9 27  2  0  0  0
 10 11  2  0  0  0
 10 15  1  0  0  0
 11 12  1  0  0  0
 11 96  1  0  0  0
 12 13  2  0  0  0
 12 97  1  0  0  0
 13 14  1  0  0  0
 13 31  1  0  0  0
 14 15  2  0  0  0
 14 98  1  0  0  0
 15 99  1  0  0  0
 16 17  2  0  0  0
 16 21  1  0  0  0
 16 31  1  0  0  0
 17 18  1  0  0  0
 17100  1  0  0  0
 18 19  2  0  0  0
 18101  1  0  0  0
 19 20  1  0  0  0
 19 24  1  0  0  0
 20 21  2  0  0  0
 20102  1  0  0  0
 21 23  1  0  0  0
 22 28  1  0  0  0
 22 32  2  0  0  0
 26 27  1  0  0  0
 28103  1  0  0  0
 28104  1  0  0  0
 29105  1  0  0  0
 29106  1  0  0  0
 33 34  1  0  0  0
 33 66  1  0  0  0
 33 70  2  0  0  0
 34 36  1  0  0  0
 34 59  1  0  0  0
 34107  1  0  0  0
 35 44  2  0  0  0
 35 45  1  0  0  0
 35 68  1  0  0  0
 36 56  1  0  0  0
 36108  1  0  0  0
 37 39  1  0  0  0
 37 47  1  0  0  0
 37 66  1  0  0  0
 37109  1  0  0  0
 38 43  2  0  0  0
 38 46  1  0  0  0
 38 47  1  0  0  0
 39 64  1  0  0  0
 39 67  2  0  0  0
 40 52  1  0  0  0
 40 53  2  0  0  0
 40 58  1  0  0  0
 41110  1  0  0  0
 41111  1  0  0  0
 41112  1  0  0  0
 41 48  1  0  0  0
 42 43  1  0  0  0
 42 66  1  0  0  0
 42113  1  0  0  0
 42114  1  0  0  0
 43 44  1  0  0  0
 44115  1  0  0  0
 45 46  2  0  0  0
 45116  1  0  0  0
 46117  1  0  0  0
 47118  1  0  0  0
 47119  1  0  0  0
 48 56  1  0  0  0
 48 65  1  0  0  0
 48120  1  0  0  0
 49 50  1  0  0  0
 49 53  1  0  0  0
 49 64  1  0  0  0
 49121  1  0  0  0
 50 51  1  0  0  0
 50122  1  0  0  0
 50123  1  0  0  0
 51 52  1  0  0  0
 51124  1  0  0  0
 51125  1  0  0  0
 52126  1  0  0  0
 52127  1  0  0  0
 53 54  1  0  0  0
 54 55  2  0  0  0
 54128  1  0  0  0
 55 57  1  0  0  0
 55129  1  0  0  0
 56 69  2  0  0  0
 57 58  2  0  0  0
 57130  1  0  0  0
 58131  1  0  0  0
 59 60  1  0  0  0
 59 61  1  0  0  0
 59 62  1  0  0  0
 60132  1  0  0  0
 60133  1  0  0  0
 60134  1  0  0  0
 61135  1  0  0  0
 61136  1  0  0  0
 61137  1  0  0  0
 62138  1  0  0  0
 62139  1  0  0  0
 62140  1  0  0  0
 63 65  1  0  0  0
 63141  1  0  0  0
 63142  1  0  0  0
 63143  1  0  0  0
 64144  1  0  0  0
 65145  1  0  0  0
 68 83  1  0  0  0
 71 72  2  0  0  0
 71 75  1  0  0  0
 71146  1  0  0  0
 72 73  1  0  0  0
 72 76  1  0  0  0
 73 74  2  0  0  0
 73 80  1  0  0  0
 74 77  1  0  0  0
 74 84  1  0  0  0
 75 84  2  0  0  0
 75 85  1  0  0  0
 76147  1  0  0  0
 76148  1  0  0  0
 76149  1  0  0  0
 77150  1  0  0  0
 77151  1  0  0  0
 77152  1  0  0  0
 78153  1  0  0  0
 78154  1  0  0  0
 78155  1  0  0  0
 78 82  1  0  0  0
 79156  1  0  0  0
 79157  1  0  0  0
 79158  1  0  0  0
 79 83  1  0  0  0
 80 82  1  0  0  0
 80159  1  0  0  0
 80160  1  0  0  0
 81 83  1  0  0  0
 81 86  1  0  0  0
 81161  1  0  0  0
 81162  1  0  0  0
 82 86  1  0  0  0
 82163  1  0  0  0
 83164  1  0  0  0
 85165  1  0  0  0
 86166  1  0  0  0
 86167  1  0  0  0
M  CHG  1  86   1
M  ISO  4   1 100  68 101  83 101  85 100
M  END
> <chiral flag>
0

> <version>
0

> <s_m_source_file>
/data/baiqing/PycharmProjects/Reinvent-master-3.2/result/LINK_invent/BTK/process_docking_weight1_custom_sum_contain_oxygen_bond_distance_aromatic_linkinvent_7_9_3/rearranged_h_0108.sdf

> <i_m_source_file_index>
16

> <r_mmod_Potential_Energy-OPLS-2005>
-285.780426025391

> <r_mmod_Stretch_Energy-OPLS-2005>
43.6509017944336

> <r_mmod_Bend_Energy-OPLS-2005>
115.236480712891

> <r_mmod_Torsional_Energy-OPLS-2005>
294.79931640625

> <r_mmod_Improper_Torsional_Energy-OPLS-2005>
6.59361171722412

> <r_mmod_Van_der_Waal_Energy-OPLS-2005>
154.521575927734

> <r_mmod_Electrostatic_Energy-OPLS-2005>
-437.541595458984

> <r_mmod_Solvation_Energy-OPLS-2005>
-475.326995849609

> <b_mmod_Minimization_Converged-OPLS-2005>
0

> <r_mmod_RMS_Derivative-OPLS-2005>
1.92454707622528

$$$$
16
                    3D
 Structure written by MMmdl.
162170  0  0  1  0            999 V2000
  -30.5545  -15.1386   20.3897 C   0  0  0  0  0  0
  -30.4102  -12.7325   19.5053 C   0  0  0  0  0  0
  -29.5063  -12.5662   18.2617 C   0  0  0  0  0  0
  -28.0525  -12.3195   18.6897 C   0  0  0  0  0  0
  -27.6048  -13.2810   19.8197 C   0  0  2  0  0  0
  -28.6454  -13.4409   20.9496 C   0  0  0  0  0  0
  -25.2330  -13.8276   20.5791 C   0  0  0  0  0  0
  -24.1703  -13.0441   20.9296 C   0  0  0  0  0  0
  -24.6374  -11.6955   20.8771 C   0  0  0  0  0  0
  -23.9091  -10.4299   21.0395 C   0  0  0  0  0  0
  -24.3639   -9.4209   21.9164 C   0  0  0  0  0  0
  -23.6311   -8.2238   22.0734 C   0  0  0  0  0  0
  -22.4288   -8.0277   21.3531 C   0  0  0  0  0  0
  -21.9927   -9.0253   20.4629 C   0  0  0  0  0  0
  -22.7261  -10.2135   20.3043 C   0  0  0  0  0  0
  -21.6870   -6.0733   22.5291 C   0  0  0  0  0  0
  -21.4015   -6.5630   23.8215 C   0  0  0  0  0  0
  -21.3668   -5.6781   24.9176 C   0  0  0  0  0  0
  -21.6050   -4.3043   24.7225 C   0  0  0  0  0  0
  -21.8819   -3.8137   23.4348 C   0  0  0  0  0  0
  -21.9188   -4.6958   22.3404 C   0  0  0  0  0  0
  -22.7718  -13.5190   21.1941 C   0  0  0  0  0  0
  -22.1665   -4.2146   21.0980 F   0  0  0  0  0  0
  -21.5632   -3.4524   25.7733 F   0  0  0  0  0  0
  -29.8904  -13.8925   20.3133 N   0  0  0  0  0  0
  -26.2776  -12.9576   20.3245 N   0  0  0  0  0  0
  -25.9313  -11.6668   20.5725 N   0  0  0  0  0  0
  -22.0376  -12.8162   22.0497 N   0  0  0  0  0  0
  -25.3864  -15.2007   20.4254 N   0  0  0  0  0  0
  -31.7771  -15.0393   20.2127 O   0  0  0  0  0  0
  -21.6644   -6.8882   21.4253 O   0  0  0  0  0  0
  -22.3401  -14.5484   20.6775 O   0  0  0  0  0  0
  -24.6521  -31.8330   23.1805 C   0  0  0  0  0  0
  -25.9241  -32.4648   23.8216 C   0  0  1  0  0  0
  -27.2059  -27.0268   20.1817 C   0  0  0  0  0  0
  -25.5957  -33.8458   24.2129 N   0  0  0  0  0  0
  -23.4632  -30.4487   21.5255 C   0  0  2  0  0  0
  -24.9146  -28.8560   20.1127 C   0  0  0  0  0  0
  -22.7616  -29.4480   22.4802 C   0  0  0  0  0  0
  -18.0299  -28.1425   22.8452 C   0  0  0  0  0  0
  -24.1494  -36.7242   23.2640 C   0  0  0  0  0  0
  -26.0255  -30.6751   21.3947 C   0  0  0  0  0  0
  -26.0948  -29.2722   20.7432 C   0  0  0  0  0  0
  -27.2408  -28.3756   20.7561 C   0  0  0  0  0  0
  -26.0043  -26.7440   19.4977 C   0  0  0  0  0  0
  -24.8868  -27.6104   19.4711 C   0  0  0  0  0  0
  -23.6990  -29.7734   20.1482 C   0  0  0  0  0  0
  -25.4130  -36.3006   24.0298 C   0  0  1  0  0  0
  -20.5921  -28.3739   23.1218 C   0  0  2  0  0  0
  -20.6796  -26.9425   22.5423 C   0  0  0  0  0  0
  -19.5776  -26.6374   21.5223 C   0  0  0  0  0  0
  -18.1946  -26.7953   22.1616 C   0  0  0  0  0  0
  -19.1566  -28.8899   23.2817 C   0  0  0  0  0  0
  -18.9477  -30.1494   23.8846 C   0  0  0  0  0  0
  -17.6479  -30.6599   24.0571 C   0  0  0  0  0  0
  -25.9086  -34.9385   23.5038 C   0  0  0  0  0  0
  -16.5363  -29.9103   23.6356 C   0  0  0  0  0  0
  -16.7284  -28.6539   23.0335 C   0  0  0  0  0  0
  -26.4531  -31.6550   25.0698 C   0  0  0  0  0  0
  -25.3697  -31.3774   26.1380 C   0  0  0  0  0  0
  -27.0394  -30.2924   24.6354 C   0  0  0  0  0  0
  -27.6035  -32.4329   25.7502 C   0  0  0  0  0  0
  -27.5570  -37.1781   24.8455 C   0  0  0  0  0  0
  -21.4298  -29.3045   22.3576 N   0  0  0  0  0  0
  -26.4278  -37.3737   23.9404 N   0  0  0  0  0  0
  -24.7337  -31.0092   22.0887 N   0  0  0  0  0  0
  -23.4224  -28.8033   23.2979 O   0  0  0  0  0  0
  -28.2305  -25.9794   20.2175 O   0  0  0  0  0  0
  -26.5664  -34.8897   22.4616 O   0  0  0  0  0  0
  -23.5604  -32.1243   23.6956 O   0  0  0  0  0  0
  -28.1756  -18.5646   20.7905 C   0  0  0  0  0  0
  -30.3341  -19.3365   20.6058 C   0  0  0  0  0  0
  -28.5685  -17.0356   20.3148 C   0  0  0  0  0  0
  -30.8000  -17.7855   20.2094 C   0  0  0  0  0  0
  -28.8842  -19.9290   20.2448 C   0  0  0  0  0  0
  -26.4684  -20.7893   22.3844 C   0  0  0  0  0  0
  -26.0058  -21.1054   19.8285 C   0  0  0  0  0  0
  -28.7100  -22.9011   20.1176 C   0  0  0  0  0  0
  -27.9344  -24.4303   20.5260 C   0  0  0  0  0  0
  -26.8865  -21.4412   21.0498 C   0  0  0  0  0  0
  -29.9773  -16.4988   20.4399 N   0  0  0  0  0  0
  -28.3622  -21.4268   20.7565 N   0  3  1  0  0  0
  -31.4397  -12.8825   19.1774 H   0  0  0  0  0  0
  -30.4260  -11.8164   20.0978 H   0  0  0  0  0  0
  -29.8535  -11.7459   17.6333 H   0  0  0  0  0  0
  -29.5586  -13.4660   17.6465 H   0  0  0  0  0  0
  -27.9810  -11.2884   19.0327 H   0  0  0  0  0  0
  -27.3825  -12.3988   17.8329 H   0  0  0  0  0  0
  -27.5214  -14.2542   19.3352 H   0  0  0  0  0  0
  -28.7858  -12.5169   21.5122 H   0  0  0  0  0  0
  -28.3049  -14.1919   21.6643 H   0  0  0  0  0  0
  -25.2774   -9.5691   22.4745 H   0  0  0  0  0  0
  -24.0021   -7.4633   22.7460 H   0  0  0  0  0  0
  -21.0842   -8.8786   19.8938 H   0  0  0  0  0  0
  -22.3706  -10.9684   19.6156 H   0  0  0  0  0  0
  -21.2022   -7.6139   23.9729 H   0  0  0  0  0  0
  -21.1491   -6.0500   25.9083 H   0  0  0  0  0  0
  -22.0590   -2.7599   23.2846 H   0  0  0  0  0  0
  -22.4014  -11.9839   22.4907 H   0  0  0  0  0  0
  -21.0979  -13.1144   22.2676 H   0  0  0  0  0  0
  -24.6092  -15.8384   20.5588 H   0  0  0  0  0  0
  -26.2242  -15.6596   20.0960 H   0  0  0  0  0  0
  -26.7325  -32.5224   23.0943 H   0  0  0  0  0  0
  -25.0130  -33.9556   25.0297 H   0  0  0  0  0  0
  -22.7712  -31.2775   21.3632 H   0  0  0  0  0  0
  -23.3764  -35.9566   23.3269 H   0  0  0  0  0  0
  -24.3584  -36.8911   22.2064 H   0  0  0  0  0  0
  -23.7247  -37.6422   23.6711 H   0  0  0  0  0  0
  -26.1881  -31.4168   20.6121 H   0  0  0  0  0  0
  -26.8939  -30.7383   22.0383 H   0  0  0  0  0  0
  -28.1399  -28.6876   21.2669 H   0  0  0  0  0  0
  -25.9022  -25.8019   18.9788 H   0  0  0  0  0  0
  -23.9901  -27.2941   18.9556 H   0  0  0  0  0  0
  -23.8537  -30.5449   19.3935 H   0  0  0  0  0  0
  -22.8116  -29.2243   19.8317 H   0  0  0  0  0  0
  -25.1333  -36.1821   25.0788 H   0  0  0  0  0  0
  -20.9997  -28.3351   24.1343 H   0  0  0  0  0  0
  -20.5699  -26.2342   23.3653 H   0  0  0  0  0  0
  -21.6665  -26.7436   22.1221 H   0  0  0  0  0  0
  -19.6941  -25.6272   21.1285 H   0  0  0  0  0  0
  -19.6741  -27.3166   20.6741 H   0  0  0  0  0  0
  -17.4224  -26.6666   21.4015 H   0  0  0  0  0  0
  -18.0339  -26.0114   22.9036 H   0  0  0  0  0  0
  -19.7950  -30.7324   24.2193 H   0  0  0  0  0  0
  -17.5026  -31.6272   24.5187 H   0  0  0  0  0  0
  -15.5366  -30.2991   23.7715 H   0  0  0  0  0  0
  -15.8672  -28.0869   22.7045 H   0  0  0  0  0  0
  -24.5926  -30.7052   25.7737 H   0  0  0  0  0  0
  -24.8820  -32.2955   26.4659 H   0  0  0  0  0  0
  -25.7965  -30.9086   27.0252 H   0  0  0  0  0  0
  -26.3031  -29.6628   24.1353 H   0  0  0  0  0  0
  -27.3951  -29.7253   25.4962 H   0  0  0  0  0  0
  -27.8961  -30.4105   23.9720 H   0  0  0  0  0  0
  -27.2631  -33.3686   26.1937 H   0  0  0  0  0  0
  -28.3932  -32.6780   25.0397 H   0  0  0  0  0  0
  -28.0601  -31.8540   26.5531 H   0  0  0  0  0  0
  -28.2567  -38.0095   24.7513 H   0  0  0  0  0  0
  -28.1077  -36.2621   24.6272 H   0  0  0  0  0  0
  -27.2271  -37.1418   25.8849 H   0  0  0  0  0  0
  -20.9519  -29.8749   21.6740 H   0  0  0  0  0  0
  -26.0124  -38.2789   24.1437 H   0  0  0  0  0  0
  -28.3028  -18.5577   21.8739 H   0  0  0  0  0  0
  -27.1036  -18.6286   20.6362 H   0  0  0  0  0  0
  -30.4691  -19.4434   21.6827 H   0  0  0  0  0  0
  -31.0721  -20.0162   20.1769 H   0  0  0  0  0  0
  -28.2989  -16.9337   19.2628 H   0  0  0  0  0  0
  -27.9160  -16.3500   20.8522 H   0  0  0  0  0  0
  -31.7730  -17.6264   20.6765 H   0  0  0  0  0  0
  -31.0097  -17.7906   19.1376 H   0  0  0  0  0  0
  -28.7736  -19.9361   19.1610 H   0  0  0  0  0  0
  -25.3996  -20.9313   22.5464 H   0  0  0  0  0  0
  -26.9719  -21.2703   23.2237 H   0  0  0  0  0  0
  -26.6348  -19.7227   22.4680 H   0  0  0  0  0  0
  -24.9497  -21.2305   20.0721 H   0  0  0  0  0  0
  -26.1296  -20.0953   19.4511 H   0  0  0  0  0  0
  -26.2191  -21.7766   18.9947 H   0  0  0  0  0  0
  -29.7792  -23.0391   20.2741 H   0  0  0  0  0  0
  -28.5976  -22.7928   19.0385 H   0  0  0  0  0  0
  -27.9182  -24.4301   21.6167 H   0  0  0  0  0  0
  -26.8917  -24.3066   20.2465 H   0  0  0  0  0  0
  -26.6037  -22.4614   21.2789 H   0  0  0  0  0  0
  -28.7679  -21.5032   21.6782 H   0  0  0  0  0  0
  1 25  1  0  0  0
  1 30  2  0  0  0
  1 81  1  0  0  0
  2  3  1  0  0  0
  2 25  1  0  0  0
  2 83  1  0  0  0
  2 84  1  0  0  0
  3  4  1  0  0  0
  3 85  1  0  0  0
  3 86  1  0  0  0
  4  5  1  0  0  0
  4 87  1  0  0  0
  4 88  1  0  0  0
  5  6  1  0  0  0
  5 26  1  0  0  0
  5 89  1  0  0  0
  6 25  1  0  0  0
  6 90  1  0  0  0
  6 91  1  0  0  0
  7  8  2  0  0  0
  7 26  1  0  0  0
  7 29  1  0  0  0
  8  9  1  0  0  0
  8 22  1  0  0  0
  9 10  1  0  0  0
  9 27  2  0  0  0
 10 11  2  0  0  0
 10 15  1  0  0  0
 11 12  1  0  0  0
 11 92  1  0  0  0
 12 13  2  0  0  0
 12 93  1  0  0  0
 13 14  1  0  0  0
 13 31  1  0  0  0
 14 15  2  0  0  0
 14 94  1  0  0  0
 15 95  1  0  0  0
 16 17  2  0  0  0
 16 21  1  0  0  0
 16 31  1  0  0  0
 17 18  1  0  0  0
 17 96  1  0  0  0
 18 19  2  0  0  0
 18 97  1  0  0  0
 19 20  1  0  0  0
 19 24  1  0  0  0
 20 21  2  0  0  0
 20 98  1  0  0  0
 21 23  1  0  0  0
 22 28  1  0  0  0
 22 32  2  0  0  0
 26 27  1  0  0  0
 28 99  1  0  0  0
 28100  1  0  0  0
 29101  1  0  0  0
 29102  1  0  0  0
 33 34  1  0  0  0
 33 66  1  0  0  0
 33 70  2  0  0  0
 34 36  1  0  0  0
 34 59  1  0  0  0
 34103  1  0  0  0
 35 44  2  0  0  0
 35 45  1  0  0  0
 35 68  1  0  0  0
 36 56  1  0  0  0
 36104  1  0  0  0
 37 39  1  0  0  0
 37 47  1  0  0  0
 37 66  1  0  0  0
 37105  1  0  0  0
 38 43  2  0  0  0
 38 46  1  0  0  0
 38 47  1  0  0  0
 39 64  1  0  0  0
 39 67  2  0  0  0
 40 52  1  0  0  0
 40 53  2  0  0  0
 40 58  1  0  0  0
 41106  1  0  0  0
 41107  1  0  0  0
 41108  1  0  0  0
 41 48  1  0  0  0
 42 43  1  0  0  0
 42 66  1  0  0  0
 42109  1  0  0  0
 42110  1  0  0  0
 43 44  1  0  0  0
 44111  1  0  0  0
 45 46  2  0  0  0
 45112  1  0  0  0
 46113  1  0  0  0
 47114  1  0  0  0
 47115  1  0  0  0
 48 56  1  0  0  0
 48 65  1  0  0  0
 48116  1  0  0  0
 49 50  1  0  0  0
 49 53  1  0  0  0
 49 64  1  0  0  0
 49117  1  0  0  0
 50 51  1  0  0  0
 50118  1  0  0  0
 50119  1  0  0  0
 51 52  1  0  0  0
 51120  1  0  0  0
 51121  1  0  0  0
 52122  1  0  0  0
 52123  1  0  0  0
 53 54  1  0  0  0
 54 55  2  0  0  0
 54124  1  0  0  0
 55 57  1  0  0  0
 55125  1  0  0  0
 56 69  2  0  0  0
 57 58  2  0  0  0
 57126  1  0  0  0
 58127  1  0  0  0
 59 60  1  0  0  0
 59 61  1  0  0  0
 59 62  1  0  0  0
 60128  1  0  0  0
 60129  1  0  0  0
 60130  1  0  0  0
 61131  1  0  0  0
 61132  1  0  0  0
 61133  1  0  0  0
 62134  1  0  0  0
 62135  1  0  0  0
 62136  1  0  0  0
 63 65  1  0  0  0
 63137  1  0  0  0
 63138  1  0  0  0
 63139  1  0  0  0
 64140  1  0  0  0
 65141  1  0  0  0
 68 79  1  0  0  0
 71 73  1  0  0  0
 71142  1  0  0  0
 71143  1  0  0  0
 71 75  1  0  0  0
 72 74  1  0  0  0
 72 75  1  0  0  0
 72144  1  0  0  0
 72145  1  0  0  0
 73 81  1  0  0  0
 73146  1  0  0  0
 73147  1  0  0  0
 74 81  1  0  0  0
 74148  1  0  0  0
 74149  1  0  0  0
 75 82  1  0  0  0
 75150  1  0  0  0
 76151  1  0  0  0
 76152  1  0  0  0
 76153  1  0  0  0
 76 80  1  0  0  0
 77 80  1  0  0  0
 77154  1  0  0  0
 77155  1  0  0  0
 77156  1  0  0  0
 78 79  1  0  0  0
 78157  1  0  0  0
 78158  1  0  0  0
 78 82  1  0  0  0
 79159  1  0  0  0
 79160  1  0  0  0
 80 82  1  0  0  0
 80161  1  0  0  0
 82162  1  0  0  0
M  CHG  1  82   1
M  ISO  4   1 100  68 101  79 101  81 100
M  END
> <chiral flag>
0

> <version>
0

> <s_m_source_file>
/data/baiqing/PycharmProjects/Reinvent-master-3.2/result/LINK_invent/BTK/process_docking_weight1_custom_sum_contain_oxygen_bond_distance_aromatic_linkinvent_7_9_3/rearranged_h_0108.sdf

> <i_m_source_file_index>
17

> <r_mmod_Potential_Energy-OPLS-2005>
1115.37255859375

> <r_mmod_Stretch_Energy-OPLS-2005>
421.528198242188

> <r_mmod_Bend_Energy-OPLS-2005>
451.497192382812

> <r_mmod_Torsional_Energy-OPLS-2005>
335.184173583984

> <r_mmod_Improper_Torsional_Energy-OPLS-2005>
5.26902675628662

> <r_mmod_Van_der_Waal_Energy-OPLS-2005>
128.966262817383

> <r_mmod_Electrostatic_Energy-OPLS-2005>
-131.676635742188

> <r_mmod_Solvation_Energy-OPLS-2005>
-423.349639892578

> <b_mmod_Minimization_Converged-OPLS-2005>
0

> <r_mmod_RMS_Derivative-OPLS-2005>
3.34240317344666

$$$$
17
                    3D
 Structure written by MMmdl.
162170  0  0  1  0            999 V2000
  -30.4901  -15.1522   20.4412 C   0  0  0  0  0  0
  -30.4393  -12.7344   19.5300 C   0  0  0  0  0  0
  -29.5295  -12.5783   18.2848 C   0  0  0  0  0  0
  -28.0688  -12.3279   18.6985 C   0  0  0  0  0  0
  -27.6218  -13.2714   19.8439 C   0  0  2  0  0  0
  -28.6583  -13.3466   20.9834 C   0  0  0  0  0  0
  -25.2376  -13.8312   20.5678 C   0  0  0  0  0  0
  -24.1744  -13.0479   20.9221 C   0  0  0  0  0  0
  -24.6393  -11.6971   20.8771 C   0  0  0  0  0  0
  -23.9085  -10.4317   21.0403 C   0  0  0  0  0  0
  -24.3631   -9.4222   21.9174 C   0  0  0  0  0  0
  -23.6302   -8.2254   22.0749 C   0  0  0  0  0  0
  -22.4285   -8.0282   21.3538 C   0  0  0  0  0  0
  -21.9920   -9.0257   20.4639 C   0  0  0  0  0  0
  -22.7252  -10.2143   20.3048 C   0  0  0  0  0  0
  -21.6863   -6.0731   22.5275 C   0  0  0  0  0  0
  -21.4020   -6.5636   23.8207 C   0  0  0  0  0  0
  -21.3661   -5.6792   24.9166 C   0  0  0  0  0  0
  -21.6044   -4.3055   24.7224 C   0  0  0  0  0  0
  -21.8818   -3.8141   23.4347 C   0  0  0  0  0  0
  -21.9196   -4.6954   22.3397 C   0  0  0  0  0  0
  -22.7767  -13.5225   21.1857 C   0  0  0  0  0  0
  -22.1668   -4.2138   21.0978 F   0  0  0  0  0  0
  -21.5625   -3.4540   25.7739 F   0  0  0  0  0  0
  -29.9095  -13.8545   20.3905 N   0  0  0  0  0  0
  -26.2853  -12.9576   20.3321 N   0  0  0  0  0  0
  -25.9343  -11.6684   20.5796 N   0  0  0  0  0  0
  -22.0423  -12.8204   22.0404 N   0  0  0  0  0  0
  -25.3833  -15.2079   20.3794 N   0  0  0  0  0  0
  -31.6622  -15.1806   20.0406 O   0  0  0  0  0  0
  -21.6654   -6.8877   21.4234 O   0  0  0  0  0  0
  -22.3492  -14.5551   20.6704 O   0  0  0  0  0  0
  -24.6580  -31.8299   23.1757 C   0  0  0  0  0  0
  -25.9283  -32.4619   23.8199 C   0  0  1  0  0  0
  -27.2051  -26.9745   20.1789 C   0  0  0  0  0  0
  -25.5976  -33.8434   24.2096 N   0  0  0  0  0  0
  -23.4688  -30.4459   21.5238 C   0  0  2  0  0  0
  -24.9202  -28.8483   20.1089 C   0  0  0  0  0  0
  -22.7638  -29.4478   22.4788 C   0  0  0  0  0  0
  -18.0312  -28.1405   22.8457 C   0  0  0  0  0  0
  -24.1490  -36.7222   23.2647 C   0  0  0  0  0  0
  -26.0370  -30.6516   21.3998 C   0  0  0  0  0  0
  -26.1031  -29.2476   20.7428 C   0  0  0  0  0  0
  -27.2431  -28.3308   20.7578 C   0  0  0  0  0  0
  -25.9954  -26.7231   19.4914 C   0  0  0  0  0  0
  -24.8888  -27.6048   19.4634 C   0  0  0  0  0  0
  -23.7060  -29.7718   20.1456 C   0  0  0  0  0  0
  -25.4123  -36.2978   24.0302 C   0  0  1  0  0  0
  -20.5934  -28.3747   23.1195 C   0  0  2  0  0  0
  -20.6800  -26.9432   22.5395 C   0  0  0  0  0  0
  -19.5777  -26.6365   21.5209 C   0  0  0  0  0  0
  -18.1953  -26.7936   22.1610 C   0  0  0  0  0  0
  -19.1575  -28.8892   23.2815 C   0  0  0  0  0  0
  -18.9496  -30.1483   23.8852 C   0  0  0  0  0  0
  -17.6497  -30.6598   24.0557 C   0  0  0  0  0  0
  -25.9092  -34.9367   23.5010 C   0  0  0  0  0  0
  -16.5384  -29.9090   23.6343 C   0  0  0  0  0  0
  -16.7299  -28.6511   23.0360 C   0  0  0  0  0  0
  -26.4548  -31.6552   25.0713 C   0  0  0  0  0  0
  -25.3679  -31.3812   26.1373 C   0  0  0  0  0  0
  -27.0436  -30.2920   24.6416 C   0  0  0  0  0  0
  -27.6040  -32.4364   25.7519 C   0  0  0  0  0  0
  -27.5561  -37.1764   24.8464 C   0  0  0  0  0  0
  -21.4312  -29.3057   22.3557 N   0  0  0  0  0  0
  -26.4266  -37.3712   23.9418 N   0  0  0  0  0  0
  -24.7426  -31.0010   22.0870 N   0  0  0  0  0  0
  -23.4218  -28.8016   23.2985 O   0  0  0  0  0  0
  -28.1880  -25.8673   20.2700 O   0  0  0  0  0  0
  -26.5701  -34.8897   22.4600 O   0  0  0  0  0  0
  -23.5662  -32.1257   23.6869 O   0  0  0  0  0  0
  -29.4201  -22.0525   19.4015 C   0  0  0  0  0  0
  -29.8023  -20.6220   19.4588 C   0  0  0  0  0  0
  -28.0733  -21.7242   21.2246 C   0  0  0  0  0  0
  -28.5164  -22.7541   20.2898 C   0  0  0  0  0  0
  -29.3665  -19.5806   20.3850 C   0  0  0  0  0  0
  -28.4532  -20.2816   21.2987 C   0  0  0  0  0  0
  -29.3455  -16.3756   22.1667 C   0  0  0  0  0  0
  -27.8485  -19.5294   22.4724 C   0  0  0  0  0  0
  -30.0415  -17.9660   20.2708 C   0  0  0  0  0  0
  -27.7788  -24.3093   20.0719 C   0  0  0  0  0  0
  -26.8430  -18.4314   22.0887 C   0  0  0  0  0  0
  -25.4494  -18.9167   21.6684 C   0  0  0  0  0  0
  -29.7827  -16.4071   20.7692 N   0  0  0  0  0  0
  -24.4914  -17.7955   21.6492 N   0  3  0  0  0  0
  -31.4643  -12.9180   19.2065 H   0  0  0  0  0  0
  -30.4826  -11.8014   20.0937 H   0  0  0  0  0  0
  -29.8863  -11.7632   17.6538 H   0  0  0  0  0  0
  -29.5859  -13.4827   17.6773 H   0  0  0  0  0  0
  -27.9924  -11.2912   19.0272 H   0  0  0  0  0  0
  -27.4049  -12.4249   17.8387 H   0  0  0  0  0  0
  -27.5680  -14.2657   19.3998 H   0  0  0  0  0  0
  -28.7990  -12.3683   21.4456 H   0  0  0  0  0  0
  -28.2960  -13.9960   21.7766 H   0  0  0  0  0  0
  -25.2772   -9.5704   22.4753 H   0  0  0  0  0  0
  -24.0012   -7.4650   22.7476 H   0  0  0  0  0  0
  -21.0846   -8.8766   19.8949 H   0  0  0  0  0  0
  -22.3689  -10.9672   19.6160 H   0  0  0  0  0  0
  -21.2021   -7.6147   23.9703 H   0  0  0  0  0  0
  -21.1481   -6.0526   25.9071 H   0  0  0  0  0  0
  -22.0595   -2.7601   23.2852 H   0  0  0  0  0  0
  -22.4048  -11.9866   22.4783 H   0  0  0  0  0  0
  -21.1030  -13.1199   22.2599 H   0  0  0  0  0  0
  -24.5620  -15.5098   19.8649 H   0  0  0  0  0  0
  -26.2191  -15.4210   19.8477 H   0  0  0  0  0  0
  -26.7354  -32.5167   23.0920 H   0  0  0  0  0  0
  -25.0104  -33.9536   25.0230 H   0  0  0  0  0  0
  -22.7784  -31.2762   21.3586 H   0  0  0  0  0  0
  -23.3758  -35.9552   23.3284 H   0  0  0  0  0  0
  -24.3568  -36.8892   22.2069 H   0  0  0  0  0  0
  -23.7241  -37.6401   23.6718 H   0  0  0  0  0  0
  -26.2096  -31.3958   20.6210 H   0  0  0  0  0  0
  -26.9015  -30.7063   22.0498 H   0  0  0  0  0  0
  -28.1336  -28.6309   21.2911 H   0  0  0  0  0  0
  -25.8561  -25.7784   18.9899 H   0  0  0  0  0  0
  -23.9905  -27.2919   18.9496 H   0  0  0  0  0  0
  -23.8608  -30.5470   19.3940 H   0  0  0  0  0  0
  -22.8166  -29.2280   19.8232 H   0  0  0  0  0  0
  -25.1311  -36.1779   25.0794 H   0  0  0  0  0  0
  -21.0021  -28.3347   24.1319 H   0  0  0  0  0  0
  -20.5675  -26.2370   23.3629 H   0  0  0  0  0  0
  -21.6666  -26.7411   22.1207 H   0  0  0  0  0  0
  -19.6951  -25.6262   21.1276 H   0  0  0  0  0  0
  -19.6724  -27.3153   20.6724 H   0  0  0  0  0  0
  -17.4217  -26.6673   21.4016 H   0  0  0  0  0  0
  -18.0353  -26.0085   22.9016 H   0  0  0  0  0  0
  -19.7982  -30.7301   24.2201 H   0  0  0  0  0  0
  -17.5058  -31.6277   24.5165 H   0  0  0  0  0  0
  -15.5385  -30.2995   23.7692 H   0  0  0  0  0  0
  -15.8691  -28.0823   22.7113 H   0  0  0  0  0  0
  -24.5876  -30.7141   25.7685 H   0  0  0  0  0  0
  -24.8854  -32.3026   26.4649 H   0  0  0  0  0  0
  -25.7909  -30.9076   27.0240 H   0  0  0  0  0  0
  -26.3098  -29.6612   24.1384 H   0  0  0  0  0  0
  -27.3953  -29.7263   25.5056 H   0  0  0  0  0  0
  -27.9042  -30.4115   23.9830 H   0  0  0  0  0  0
  -27.2599  -33.3707   26.1967 H   0  0  0  0  0  0
  -28.3916  -32.6856   25.0397 H   0  0  0  0  0  0
  -28.0631  -31.8577   26.5547 H   0  0  0  0  0  0
  -28.2542  -38.0091   24.7505 H   0  0  0  0  0  0
  -28.1083  -36.2611   24.6274 H   0  0  0  0  0  0
  -27.2288  -37.1391   25.8869 H   0  0  0  0  0  0
  -20.9546  -29.8780   21.6729 H   0  0  0  0  0  0
  -26.0111  -38.2764   24.1444 H   0  0  0  0  0  0
  -29.8281  -22.6261   18.5812 H   0  0  0  0  0  0
  -30.5022  -20.3042   18.6988 H   0  0  0  0  0  0
  -27.3452  -22.0666   21.9473 H   0  0  0  0  0  0
  -28.2768  -16.1944   22.2450 H   0  0  0  0  0  0
  -29.6090  -17.2970   22.6750 H   0  0  0  0  0  0
  -29.8262  -15.5898   22.7549 H   0  0  0  0  0  0
  -27.3709  -20.2216   23.1673 H   0  0  0  0  0  0
  -28.6699  -19.1178   23.0508 H   0  0  0  0  0  0
  -31.0664  -18.1316   20.6043 H   0  0  0  0  0  0
  -30.1440  -17.8370   19.1927 H   0  0  0  0  0  0
  -26.8555  -24.2195   20.6451 H   0  0  0  0  0  0
  -27.4566  -24.2592   19.0318 H   0  0  0  0  0  0
  -26.7287  -17.7882   22.9621 H   0  0  0  0  0  0
  -27.2439  -17.8172   21.2846 H   0  0  0  0  0  0
  -25.5007  -19.3704   20.6770 H   0  0  0  0  0  0
  -25.0836  -19.6857   22.3496 H   0  0  0  0  0  0
  -24.8650  -16.9989   21.1485 H   0  0  0  0  0  0
  -23.6279  -18.0764   21.2192 H   0  0  0  0  0  0
  -24.2867  -17.4969   22.5862 H   0  0  0  0  0  0
  1 25  1  0  0  0
  1 30  2  0  0  0
  1 83  1  0  0  0
  2  3  1  0  0  0
  2 25  1  0  0  0
  2 85  1  0  0  0
  2 86  1  0  0  0
  3  4  1  0  0  0
  3 87  1  0  0  0
  3 88  1  0  0  0
  4  5  1  0  0  0
  4 89  1  0  0  0
  4 90  1  0  0  0
  5  6  1  0  0  0
  5 26  1  0  0  0
  5 91  1  0  0  0
  6 25  1  0  0  0
  6 92  1  0  0  0
  6 93  1  0  0  0
  7  8  2  0  0  0
  7 26  1  0  0  0
  7 29  1  0  0  0
  8  9  1  0  0  0
  8 22  1  0  0  0
  9 10  1  0  0  0
  9 27  2  0  0  0
 10 11  2  0  0  0
 10 15  1  0  0  0
 11 12  1  0  0  0
 11 94  1  0  0  0
 12 13  2  0  0  0
 12 95  1  0  0  0
 13 14  1  0  0  0
 13 31  1  0  0  0
 14 15  2  0  0  0
 14 96  1  0  0  0
 15 97  1  0  0  0
 16 17  2  0  0  0
 16 21  1  0  0  0
 16 31  1  0  0  0
 17 18  1  0  0  0
 17 98  1  0  0  0
 18 19  2  0  0  0
 18 99  1  0  0  0
 19 20  1  0  0  0
 19 24  1  0  0  0
 20 21  2  0  0  0
 20100  1  0  0  0
 21 23  1  0  0  0
 22 28  1  0  0  0
 22 32  2  0  0  0
 26 27  1  0  0  0
 28101  1  0  0  0
 28102  1  0  0  0
 29103  1  0  0  0
 29104  1  0  0  0
 33 34  1  0  0  0
 33 66  1  0  0  0
 33 70  2  0  0  0
 34 36  1  0  0  0
 34 59  1  0  0  0
 34105  1  0  0  0
 35 44  2  0  0  0
 35 45  1  0  0  0
 35 68  1  0  0  0
 36 56  1  0  0  0
 36106  1  0  0  0
 37 39  1  0  0  0
 37 47  1  0  0  0
 37 66  1  0  0  0
 37107  1  0  0  0
 38 43  2  0  0  0
 38 46  1  0  0  0
 38 47  1  0  0  0
 39 64  1  0  0  0
 39 67  2  0  0  0
 40 52  1  0  0  0
 40 53  2  0  0  0
 40 58  1  0  0  0
 41108  1  0  0  0
 41109  1  0  0  0
 41110  1  0  0  0
 41 48  1  0  0  0
 42 43  1  0  0  0
 42 66  1  0  0  0
 42111  1  0  0  0
 42112  1  0  0  0
 43 44  1  0  0  0
 44113  1  0  0  0
 45 46  2  0  0  0
 45114  1  0  0  0
 46115  1  0  0  0
 47116  1  0  0  0
 47117  1  0  0  0
 48 56  1  0  0  0
 48 65  1  0  0  0
 48118  1  0  0  0
 49 50  1  0  0  0
 49 53  1  0  0  0
 49 64  1  0  0  0
 49119  1  0  0  0
 50 51  1  0  0  0
 50120  1  0  0  0
 50121  1  0  0  0
 51 52  1  0  0  0
 51122  1  0  0  0
 51123  1  0  0  0
 52124  1  0  0  0
 52125  1  0  0  0
 53 54  1  0  0  0
 54 55  2  0  0  0
 54126  1  0  0  0
 55 57  1  0  0  0
 55127  1  0  0  0
 56 69  2  0  0  0
 57 58  2  0  0  0
 57128  1  0  0  0
 58129  1  0  0  0
 59 60  1  0  0  0
 59 61  1  0  0  0
 59 62  1  0  0  0
 60130  1  0  0  0
 60131  1  0  0  0
 60132  1  0  0  0
 61133  1  0  0  0
 61134  1  0  0  0
 61135  1  0  0  0
 62136  1  0  0  0
 62137  1  0  0  0
 62138  1  0  0  0
 63 65  1  0  0  0
 63139  1  0  0  0
 63140  1  0  0  0
 63141  1  0  0  0
 64142  1  0  0  0
 65143  1  0  0  0
 68 80  1  0  0  0
 71 72  2  0  0  0
 71 74  1  0  0  0
 71144  1  0  0  0
 72 75  1  0  0  0
 72145  1  0  0  0
 73 74  2  0  0  0
 73 76  1  0  0  0
 73146  1  0  0  0
 74 80  1  0  0  0
 75 76  2  0  0  0
 75 79  1  0  0  0
 76 78  1  0  0  0
 77 83  1  0  0  0
 77147  1  0  0  0
 77148  1  0  0  0
 77149  1  0  0  0
 78 81  1  0  0  0
 78150  1  0  0  0
 78151  1  0  0  0
 79 83  1  0  0  0
 79152  1  0  0  0
 79153  1  0  0  0
 80154  1  0  0  0
 80155  1  0  0  0
 81 82  1  0  0  0
 81156  1  0  0  0
 81157  1  0  0  0
 82 84  1  0  0  0
 82158  1  0  0  0
 82159  1  0  0  0
 84160  1  0  0  0
 84161  1  0  0  0
 84162  1  0  0  0
M  CHG  1  84   1
M  ISO  4   1 100  68 101  80 101  83 100
M  END
> <chiral flag>
0

> <version>
0

> <s_m_source_file>
/data/baiqing/PycharmProjects/Reinvent-master-3.2/result/LINK_invent/BTK/process_docking_weight1_custom_sum_contain_oxygen_bond_distance_aromatic_linkinvent_7_9_3/rearranged_h_0108.sdf

> <i_m_source_file_index>
18

> <r_mmod_Potential_Energy-OPLS-2005>
958.881164550781

> <r_mmod_Stretch_Energy-OPLS-2005>
470.163330078125

> <r_mmod_Bend_Energy-OPLS-2005>
456.657440185547

> <r_mmod_Torsional_Energy-OPLS-2005>
285.807800292969

> <r_mmod_Improper_Torsional_Energy-OPLS-2005>
15.9763011932373

> <r_mmod_Van_der_Waal_Energy-OPLS-2005>
138.081756591797

> <r_mmod_Electrostatic_Energy-OPLS-2005>
-300.069793701172

> <r_mmod_Solvation_Energy-OPLS-2005>
-471.567230224609

> <b_mmod_Minimization_Converged-OPLS-2005>
0

> <r_mmod_RMS_Derivative-OPLS-2005>
1.59555649757385

$$$$
18
                    3D
 Structure written by MMmdl.
171179  0  0  1  0            999 V2000
  -30.3301  -15.5505   20.3343 C   0  0  0  0  0  0
  -30.4320  -13.0274   19.5013 C   0  0  0  0  0  0
  -29.5400  -12.6229   18.2957 C   0  0  0  0  0  0
  -28.1106  -12.2856   18.7512 C   0  0  0  0  0  0
  -27.5972  -13.2944   19.8043 C   0  0  2  0  0  0
  -28.6286  -13.5993   20.9120 C   0  0  0  0  0  0
  -25.2361  -13.8265   20.5792 C   0  0  0  0  0  0
  -24.1730  -13.0430   20.9290 C   0  0  0  0  0  0
  -24.6416  -11.6935   20.8773 C   0  0  0  0  0  0
  -23.9115  -10.4289   21.0405 C   0  0  0  0  0  0
  -24.3648   -9.4200   21.9185 C   0  0  0  0  0  0
  -23.6307   -8.2243   22.0759 C   0  0  0  0  0  0
  -22.4288   -8.0284   21.3544 C   0  0  0  0  0  0
  -21.9936   -9.0266   20.4648 C   0  0  0  0  0  0
  -22.7281  -10.2135   20.3055 C   0  0  0  0  0  0
  -21.6858   -6.0731   22.5276 C   0  0  0  0  0  0
  -21.4019   -6.5637   23.8212 C   0  0  0  0  0  0
  -21.3660   -5.6791   24.9172 C   0  0  0  0  0  0
  -21.6044   -4.3056   24.7224 C   0  0  0  0  0  0
  -21.8818   -3.8145   23.4345 C   0  0  0  0  0  0
  -21.9193   -4.6964   22.3403 C   0  0  0  0  0  0
  -22.7743  -13.5171   21.1918 C   0  0  0  0  0  0
  -22.1660   -4.2145   21.0978 F   0  0  0  0  0  0
  -21.5626   -3.4540   25.7736 F   0  0  0  0  0  0
  -29.7977  -14.2037   20.2342 N   0  0  0  0  0  0
  -26.2791  -12.9571   20.3220 N   0  0  0  0  0  0
  -25.9359  -11.6661   20.5713 N   0  0  0  0  0  0
  -22.0402  -12.8152   22.0467 N   0  0  0  0  0  0
  -25.3966  -15.2004   20.4224 N   0  0  0  0  0  0
  -31.5720  -15.4941   20.2959 O   0  0  0  0  0  0
  -21.6646   -6.8884   21.4243 O   0  0  0  0  0  0
  -22.3428  -14.5470   20.6751 O   0  0  0  0  0  0
  -24.6813  -31.8028   23.1522 C   0  0  0  0  0  0
  -25.9401  -32.4479   23.8064 C   0  0  1  0  0  0
  -27.2210  -26.7226   20.2260 C   0  0  0  0  0  0
  -25.5990  -33.8304   24.1952 N   0  0  0  0  0  0
  -23.5049  -30.4055   21.5070 C   0  0  2  0  0  0
  -24.9577  -28.7434   20.1299 C   0  0  0  0  0  0
  -22.7750  -29.4334   22.4725 C   0  0  0  0  0  0
  -18.0338  -28.1418   22.8457 C   0  0  0  0  0  0
  -24.1492  -36.7160   23.2654 C   0  0  0  0  0  0
  -26.0842  -30.5425   21.4120 C   0  0  0  0  0  0
  -26.1489  -29.1069   20.7699 C   0  0  0  0  0  0
  -27.2700  -28.1273   20.7759 C   0  0  0  0  0  0
  -25.9925  -26.5556   19.5399 C   0  0  0  0  0  0
  -24.9158  -27.4911   19.4931 C   0  0  0  0  0  0
  -23.7568  -29.7004   20.1444 C   0  0  0  0  0  0
  -25.4141  -36.2899   24.0285 C   0  0  1  0  0  0
  -20.5974  -28.3777   23.1150 C   0  0  2  0  0  0
  -20.6810  -26.9438   22.5407 C   0  0  0  0  0  0
  -19.5786  -26.6367   21.5219 C   0  0  0  0  0  0
  -18.1965  -26.7948   22.1618 C   0  0  0  0  0  0
  -19.1603  -28.8920   23.2784 C   0  0  0  0  0  0
  -18.9516  -30.1504   23.8831 C   0  0  0  0  0  0
  -17.6507  -30.6604   24.0553 C   0  0  0  0  0  0
  -25.9124  -34.9295   23.4953 C   0  0  0  0  0  0
  -16.5395  -29.9088   23.6354 C   0  0  0  0  0  0
  -16.7319  -28.6509   23.0367 C   0  0  0  0  0  0
  -26.4580  -31.6505   25.0677 C   0  0  0  0  0  0
  -25.3641  -31.3814   26.1286 C   0  0  0  0  0  0
  -27.0506  -30.2848   24.6560 C   0  0  0  0  0  0
  -27.6033  -32.4367   25.7486 C   0  0  0  0  0  0
  -27.5565  -37.1729   24.8467 C   0  0  0  0  0  0
  -21.4399  -29.3031   22.3475 N   0  0  0  0  0  0
  -26.4270  -37.3659   23.9413 N   0  0  0  0  0  0
  -24.7806  -30.9498   22.0765 N   0  0  0  0  0  0
  -23.4205  -28.7921   23.3048 O   0  0  0  0  0  0
  -28.2462  -25.5714   20.1568 O   0  0  0  0  0  0
  -26.5760  -34.8873   22.4570 O   0  0  0  0  0  0
  -23.5836  -32.1094   23.6490 O   0  0  0  0  0  0
  -28.3256  -18.5900   21.8168 C   0  0  0  0  0  0
  -30.7780  -18.8592   21.5698 C   0  0  0  0  0  0
  -28.5547  -17.6458   23.0137 C   0  0  0  0  0  0
  -30.9944  -17.9751   22.8191 C   0  0  0  0  0  0
  -29.4704  -18.6001   20.7769 C   0  0  2  0  0  0
  -30.9921  -17.8993   25.9454 C   0  0  0  0  0  0
  -30.3583  -15.7234   24.7859 C   0  0  0  0  0  0
  -28.0895  -22.3079   18.5272 C   0  0  0  0  0  0
  -26.9080  -21.6532   20.6037 C   0  0  0  0  0  0
  -29.1866  -20.3128   19.9528 C   0  0  0  0  0  0
  -28.4282  -23.8784   20.5867 C   0  0  0  0  0  0
  -29.9933  -17.2093   24.9985 C   0  0  0  0  0  0
  -28.2832  -22.0404   20.0344 C   0  0  0  0  0  0
  -29.5569  -16.8941   20.2886 N   0  0  0  0  0  0
  -29.8152  -17.9769   23.7280 N   0  3  2  0  0  0
  -31.4222  -13.2960   19.1311 H   0  0  0  0  0  0
  -30.5939  -12.1807   20.1704 H   0  0  0  0  0  0
  -29.9756  -11.7765   17.7632 H   0  0  0  0  0  0
  -29.5055  -13.4485   17.5836 H   0  0  0  0  0  0
  -28.1283  -11.2856   19.1866 H   0  0  0  0  0  0
  -27.4344  -12.2374   17.8966 H   0  0  0  0  0  0
  -27.4653  -14.2203   19.2437 H   0  0  0  0  0  0
  -28.8841  -12.7079   21.4868 H   0  0  0  0  0  0
  -28.2186  -14.3178   21.6226 H   0  0  0  0  0  0
  -25.2789   -9.5669   22.4767 H   0  0  0  0  0  0
  -24.0003   -7.4638   22.7486 H   0  0  0  0  0  0
  -21.0860   -8.8798   19.8957 H   0  0  0  0  0  0
  -22.3745  -10.9678   19.6164 H   0  0  0  0  0  0
  -21.2018   -7.6146   23.9712 H   0  0  0  0  0  0
  -21.1478   -6.0522   25.9074 H   0  0  0  0  0  0
  -22.0597   -2.7609   23.2850 H   0  0  0  0  0  0
  -22.4031  -11.9824   22.4866 H   0  0  0  0  0  0
  -21.1011  -13.1159   22.2657 H   0  0  0  0  0  0
  -24.6169  -15.8416   20.5184 H   0  0  0  0  0  0
  -26.2236  -15.6395   20.0432 H   0  0  0  0  0  0
  -26.7478  -32.4960   23.0771 H   0  0  0  0  0  0
  -25.0068  -33.9348   25.0056 H   0  0  0  0  0  0
  -22.8295  -31.2426   21.3175 H   0  0  0  0  0  0
  -23.3778  -35.9467   23.3266 H   0  0  0  0  0  0
  -24.3561  -36.8871   22.2079 H   0  0  0  0  0  0
  -23.7235  -37.6321   23.6763 H   0  0  0  0  0  0
  -26.2844  -31.2660   20.6210 H   0  0  0  0  0  0
  -26.9364  -30.6095   22.0759 H   0  0  0  0  0  0
  -28.1824  -28.4259   21.2737 H   0  0  0  0  0  0
  -25.8388  -25.6136   19.0324 H   0  0  0  0  0  0
  -24.0160  -27.2053   18.9660 H   0  0  0  0  0  0
  -23.9379  -30.4587   19.3825 H   0  0  0  0  0  0
  -22.8608  -29.1692   19.8182 H   0  0  0  0  0  0
  -25.1341  -36.1665   25.0776 H   0  0  0  0  0  0
  -21.0059  -28.3405   24.1275 H   0  0  0  0  0  0
  -20.5696  -26.2388   23.3662 H   0  0  0  0  0  0
  -21.6667  -26.7393   22.1205 H   0  0  0  0  0  0
  -19.6948  -25.6256   21.1292 H   0  0  0  0  0  0
  -19.6738  -27.3141   20.6720 H   0  0  0  0  0  0
  -17.4234  -26.6703   21.4014 H   0  0  0  0  0  0
  -18.0350  -26.0095   22.9019 H   0  0  0  0  0  0
  -19.7990  -30.7336   24.2172 H   0  0  0  0  0  0
  -17.5056  -31.6284   24.5159 H   0  0  0  0  0  0
  -15.5390  -30.2967   23.7717 H   0  0  0  0  0  0
  -15.8719  -28.0807   22.7119 H   0  0  0  0  0  0
  -24.5863  -30.7136   25.7566 H   0  0  0  0  0  0
  -24.8792  -32.3033   26.4515 H   0  0  0  0  0  0
  -25.7807  -30.9098   27.0199 H   0  0  0  0  0  0
  -26.3213  -29.6462   24.1569 H   0  0  0  0  0  0
  -27.3958  -29.7292   25.5292 H   0  0  0  0  0  0
  -27.9181  -30.3973   24.0053 H   0  0  0  0  0  0
  -27.2594  -33.3765   26.1822 H   0  0  0  0  0  0
  -28.3952  -32.6778   25.0377 H   0  0  0  0  0  0
  -28.0578  -31.8659   26.5594 H   0  0  0  0  0  0
  -28.2529  -38.0068   24.7519 H   0  0  0  0  0  0
  -28.1102  -36.2589   24.6277 H   0  0  0  0  0  0
  -27.2277  -37.1344   25.8866 H   0  0  0  0  0  0
  -20.9702  -29.8701   21.6554 H   0  0  0  0  0  0
  -26.0097  -38.2705   24.1450 H   0  0  0  0  0  0
  -28.1795  -19.5957   22.2089 H   0  0  0  0  0  0
  -27.3883  -18.3294   21.3233 H   0  0  0  0  0  0
  -31.6318  -18.7399   20.9016 H   0  0  0  0  0  0
  -30.8084  -19.9017   21.8898 H   0  0  0  0  0  0
  -28.5630  -16.6067   22.6868 H   0  0  0  0  0  0
  -27.7106  -17.7370   23.6986 H   0  0  0  0  0  0
  -31.8716  -18.3427   23.3511 H   0  0  0  0  0  0
  -31.2370  -16.9595   22.5209 H   0  0  0  0  0  0
  -30.9811  -17.4267   26.9280 H   0  0  0  0  0  0
  -30.7424  -18.9508   26.0921 H   0  0  0  0  0  0
  -32.0163  -17.8447   25.5767 H   0  0  0  0  0  0
  -30.3607  -15.1930   25.7382 H   0  0  0  0  0  0
  -31.3508  -15.5971   24.3547 H   0  0  0  0  0  0
  -29.6446  -15.2081   24.1438 H   0  0  0  0  0  0
  -27.6295  -21.4691   18.0035 H   0  0  0  0  0  0
  -29.0461  -22.5162   18.0483 H   0  0  0  0  0  0
  -27.4439  -23.1695   18.3502 H   0  0  0  0  0  0
  -26.5391  -20.7219   20.1728 H   0  0  0  0  0  0
  -26.1603  -22.4235   20.4099 H   0  0  0  0  0  0
  -26.9614  -21.5223   21.6844 H   0  0  0  0  0  0
  -28.7439  -19.9176   19.0398 H   0  0  0  0  0  0
  -30.1861  -20.5899   19.6156 H   0  0  0  0  0  0
  -29.4844  -23.9075   20.8550 H   0  0  0  0  0  0
  -27.9429  -23.8727   21.5626 H   0  0  0  0  0  0
  -29.0319  -17.2301   25.5154 H   0  0  0  0  0  0
  -28.6320  -16.6367   19.9749 H   0  0  0  0  0  0
  -29.6943  -18.9341   24.0259 H   0  0  0  0  0  0
  1 25  1  0  0  0
  1 30  2  0  0  0
  1 84  1  0  0  0
  2  3  1  0  0  0
  2 25  1  0  0  0
  2 86  1  0  0  0
  2 87  1  0  0  0
  3  4  1  0  0  0
  3 88  1  0  0  0
  3 89  1  0  0  0
  4  5  1  0  0  0
  4 90  1  0  0  0
  4 91  1  0  0  0
  5  6  1  0  0  0
  5 26  1  0  0  0
  5 92  1  0  0  0
  6 25  1  0  0  0
  6 93  1  0  0  0
  6 94  1  0  0  0
  7  8  2  0  0  0
  7 26  1  0  0  0
  7 29  1  0  0  0
  8  9  1  0  0  0
  8 22  1  0  0  0
  9 10  1  0  0  0
  9 27  2  0  0  0
 10 11  2  0  0  0
 10 15  1  0  0  0
 11 12  1  0  0  0
 11 95  1  0  0  0
 12 13  2  0  0  0
 12 96  1  0  0  0
 13 14  1  0  0  0
 13 31  1  0  0  0
 14 15  2  0  0  0
 14 97  1  0  0  0
 15 98  1  0  0  0
 16 17  2  0  0  0
 16 21  1  0  0  0
 16 31  1  0  0  0
 17 18  1  0  0  0
 17 99  1  0  0  0
 18 19  2  0  0  0
 18100  1  0  0  0
 19 20  1  0  0  0
 19 24  1  0  0  0
 20 21  2  0  0  0
 20101  1  0  0  0
 21 23  1  0  0  0
 22 28  1  0  0  0
 22 32  2  0  0  0
 26 27  1  0  0  0
 28102  1  0  0  0
 28103  1  0  0  0
 29104  1  0  0  0
 29105  1  0  0  0
 33 34  1  0  0  0
 33 66  1  0  0  0
 33 70  2  0  0  0
 34 36  1  0  0  0
 34 59  1  0  0  0
 34106  1  0  0  0
 35 44  2  0  0  0
 35 45  1  0  0  0
 35 68  1  0  0  0
 36 56  1  0  0  0
 36107  1  0  0  0
 37 39  1  0  0  0
 37 47  1  0  0  0
 37 66  1  0  0  0
 37108  1  0  0  0
 38 43  2  0  0  0
 38 46  1  0  0  0
 38 47  1  0  0  0
 39 64  1  0  0  0
 39 67  2  0  0  0
 40 52  1  0  0  0
 40 53  2  0  0  0
 40 58  1  0  0  0
 41109  1  0  0  0
 41110  1  0  0  0
 41111  1  0  0  0
 41 48  1  0  0  0
 42 43  1  0  0  0
 42 66  1  0  0  0
 42112  1  0  0  0
 42113  1  0  0  0
 43 44  1  0  0  0
 44114  1  0  0  0
 45 46  2  0  0  0
 45115  1  0  0  0
 46116  1  0  0  0
 47117  1  0  0  0
 47118  1  0  0  0
 48 56  1  0  0  0
 48 65  1  0  0  0
 48119  1  0  0  0
 49 50  1  0  0  0
 49 53  1  0  0  0
 49 64  1  0  0  0
 49120  1  0  0  0
 50 51  1  0  0  0
 50121  1  0  0  0
 50122  1  0  0  0
 51 52  1  0  0  0
 51123  1  0  0  0
 51124  1  0  0  0
 52125  1  0  0  0
 52126  1  0  0  0
 53 54  1  0  0  0
 54 55  2  0  0  0
 54127  1  0  0  0
 55 57  1  0  0  0
 55128  1  0  0  0
 56 69  2  0  0  0
 57 58  2  0  0  0
 57129  1  0  0  0
 58130  1  0  0  0
 59 60  1  0  0  0
 59 61  1  0  0  0
 59 62  1  0  0  0
 60131  1  0  0  0
 60132  1  0  0  0
 60133  1  0  0  0
 61134  1  0  0  0
 61135  1  0  0  0
 61136  1  0  0  0
 62137  1  0  0  0
 62138  1  0  0  0
 62139  1  0  0  0
 63 65  1  0  0  0
 63140  1  0  0  0
 63141  1  0  0  0
 63142  1  0  0  0
 64143  1  0  0  0
 65144  1  0  0  0
 68 81  1  0  0  0
 71 73  1  0  0  0
 71 75  1  0  0  0
 71145  1  0  0  0
 71146  1  0  0  0
 72 74  1  0  0  0
 72 75  1  0  0  0
 72147  1  0  0  0
 72148  1  0  0  0
 73149  1  0  0  0
 73150  1  0  0  0
 73 85  1  0  0  0
 74 85  1  0  0  0
 74151  1  0  0  0
 74152  1  0  0  0
 75 80  1  0  0  0
 75 84  1  0  0  0
 76153  1  0  0  0
 76154  1  0  0  0
 76155  1  0  0  0
 76 82  1  0  0  0
 77 82  1  0  0  0
 77156  1  0  0  0
 77157  1  0  0  0
 77158  1  0  0  0
 78159  1  0  0  0
 78160  1  0  0  0
 78161  1  0  0  0
 78 83  1  0  0  0
 79 83  1  0  0  0
 79162  1  0  0  0
 79163  1  0  0  0
 79164  1  0  0  0
 80 83  1  0  0  0
 80165  1  0  0  0
 80166  1  0  0  0
 81 83  1  0  0  0
 81167  1  0  0  0
 81168  1  0  0  0
 82 85  1  0  0  0
 82169  1  0  0  0
 84170  1  0  0  0
 85171  1  0  0  0
M  CHG  1  85   1
M  ISO  4   1 100  68 101  81 101  84 100
M  END
> <chiral flag>
0

> <version>
0

> <s_m_source_file>
/data/baiqing/PycharmProjects/Reinvent-master-3.2/result/LINK_invent/BTK/process_docking_weight1_custom_sum_contain_oxygen_bond_distance_aromatic_linkinvent_7_9_3/rearranged_h_0108.sdf

> <i_m_source_file_index>
19

> <r_mmod_Potential_Energy-OPLS-2005>
2545.63159179688

> <r_mmod_Stretch_Energy-OPLS-2005>
1139.09680175781

> <r_mmod_Bend_Energy-OPLS-2005>
804.723937988281

> <r_mmod_Torsional_Energy-OPLS-2005>
318.714874267578

> <r_mmod_Improper_Torsional_Energy-OPLS-2005>
5.324294090271

> <r_mmod_Van_der_Waal_Energy-OPLS-2005>
111.67879486084

> <r_mmod_Electrostatic_Energy-OPLS-2005>
-204.009353637695

> <r_mmod_Solvation_Energy-OPLS-2005>
-430.337249755859

> <b_mmod_Minimization_Converged-OPLS-2005>
0

> <r_mmod_RMS_Derivative-OPLS-2005>
1.52831590175629

$$$$
19
                    3D
 Structure written by MMmdl.
168176  0  0  1  0            999 V2000
  -30.6796  -14.7688   20.4188 C   0  0  0  0  0  0
  -30.3907  -12.4563   19.4673 C   0  0  0  0  0  0
  -29.4764  -12.4813   18.2259 C   0  0  0  0  0  0
  -28.0119  -12.2865   18.6536 C   0  0  0  0  0  0
  -27.6168  -13.2139   19.8331 C   0  0  2  0  0  0
  -28.6728  -13.2470   20.9607 C   0  0  0  0  0  0
  -25.2454  -13.8130   20.5773 C   0  0  0  0  0  0
  -24.1731  -13.0391   20.9258 C   0  0  0  0  0  0
  -24.6325  -11.6880   20.8819 C   0  0  0  0  0  0
  -23.9035  -10.4250   21.0447 C   0  0  0  0  0  0
  -24.3601   -9.4166   21.9222 C   0  0  0  0  0  0
  -23.6273   -8.2201   22.0770 C   0  0  0  0  0  0
  -22.4258   -8.0236   21.3536 C   0  0  0  0  0  0
  -21.9898   -9.0230   20.4648 C   0  0  0  0  0  0
  -22.7227  -10.2099   20.3069 C   0  0  0  0  0  0
  -21.6834   -6.0725   22.5275 C   0  0  0  0  0  0
  -21.4007   -6.5646   23.8224 C   0  0  0  0  0  0
  -21.3666   -5.6789   24.9172 C   0  0  0  0  0  0
  -21.6047   -4.3052   24.7223 C   0  0  0  0  0  0
  -21.8813   -3.8142   23.4332 C   0  0  0  0  0  0
  -21.9192   -4.6967   22.3398 C   0  0  0  0  0  0
  -22.7765  -13.5173   21.1907 C   0  0  0  0  0  0
  -22.1655   -4.2149   21.0964 F   0  0  0  0  0  0
  -21.5642   -3.4534   25.7725 F   0  0  0  0  0  0
  -29.9651  -13.5792   20.3467 N   0  0  0  0  0  0
  -26.2830  -12.9284   20.3305 N   0  0  0  0  0  0
  -25.9238  -11.6459   20.5844 N   0  0  0  0  0  0
  -22.0424  -12.8141   22.0474 N   0  0  0  0  0  0
  -25.4193  -15.1845   20.4258 N   0  0  0  0  0  0
  -31.8871  -14.7286   20.1789 O   0  0  0  0  0  0
  -21.6621   -6.8858   21.4231 O   0  0  0  0  0  0
  -22.3470  -14.5516   20.6802 O   0  0  0  0  0  0
  -24.6396  -31.8438   23.1839 C   0  0  0  0  0  0
  -25.9164  -32.4726   23.8245 C   0  0  1  0  0  0
  -27.2577  -27.1762   20.1200 C   0  0  0  0  0  0
  -25.5976  -33.8526   24.2170 N   0  0  0  0  0  0
  -23.4472  -30.4623   21.5237 C   0  0  2  0  0  0
  -24.9013  -28.8913   20.0969 C   0  0  0  0  0  0
  -22.7568  -29.4541   22.4801 C   0  0  0  0  0  0
  -18.0310  -28.1379   22.8465 C   0  0  0  0  0  0
  -24.1487  -36.7241   23.2664 C   0  0  0  0  0  0
  -25.9975  -30.7386   21.3682 C   0  0  0  0  0  0
  -26.0771  -29.3470   20.7100 C   0  0  0  0  0  0
  -27.2460  -28.5053   20.7059 C   0  0  0  0  0  0
  -26.0524  -26.8003   19.4890 C   0  0  0  0  0  0
  -24.9052  -27.6302   19.4735 C   0  0  0  0  0  0
  -23.6704  -29.7852   20.1433 C   0  0  0  0  0  0
  -25.4124  -36.3030   24.0323 C   0  0  1  0  0  0
  -20.5935  -28.3712   23.1199 C   0  0  2  0  0  0
  -20.6785  -26.9401   22.5412 C   0  0  0  0  0  0
  -19.5782  -26.6327   21.5213 C   0  0  0  0  0  0
  -18.1929  -26.7940   22.1562 C   0  0  0  0  0  0
  -19.1575  -28.8853   23.2851 C   0  0  0  0  0  0
  -18.9498  -30.1465   23.8858 C   0  0  0  0  0  0
  -17.6507  -30.6575   24.0561 C   0  0  0  0  0  0
  -25.9086  -34.9423   23.5033 C   0  0  0  0  0  0
  -16.5396  -29.9073   23.6331 C   0  0  0  0  0  0
  -16.7297  -28.6506   23.0318 C   0  0  0  0  0  0
  -26.4463  -31.6632   25.0715 C   0  0  0  0  0  0
  -25.3634  -31.3866   26.1423 C   0  0  0  0  0  0
  -27.0353  -30.3052   24.6297 C   0  0  0  0  0  0
  -27.6049  -32.4378   25.7431 C   0  0  0  0  0  0
  -27.5564  -37.1768   24.8469 C   0  0  0  0  0  0
  -21.4277  -29.3058   22.3571 N   0  0  0  0  0  0
  -26.4239  -37.3761   23.9463 N   0  0  0  0  0  0
  -24.7152  -31.0337   22.0823 N   0  0  0  0  0  0
  -23.4246  -28.8056   23.2902 O   0  0  0  0  0  0
  -28.3637  -26.2591   20.2225 O   0  0  0  0  0  0
  -26.5657  -34.8931   22.4607 O   0  0  0  0  0  0
  -23.5498  -32.1222   23.7079 O   0  0  0  0  0  0
  -30.8667  -18.6045   20.7883 C   0  0  0  0  0  0
  -28.9530  -18.0891   19.4351 C   0  0  0  0  0  0
  -30.7864  -17.1275   21.4195 C   0  0  0  0  0  0
  -28.8772  -16.6019   20.0096 C   0  0  0  0  0  0
  -29.5060  -19.2767   20.3353 C   0  0  0  0  0  0
  -27.1515  -23.3736   21.0766 C   0  0  0  0  0  0
  -31.8078  -21.3795   18.7266 C   0  0  0  0  0  0
  -29.7512  -21.3330   17.1970 C   0  0  0  0  0  0
  -29.3955  -22.0921   20.4040 C   0  0  0  0  0  0
  -28.5648  -24.8912   19.5307 C   0  0  0  0  0  0
  -28.2830  -23.3108   20.0331 C   0  0  2  0  0  0
  -30.4301  -20.7414   18.4456 C   0  0  0  0  0  0
  -30.0883  -16.0285   20.6623 N   0  0  0  0  0  0
  -29.4973  -20.7056   19.6314 N   0  3  1  0  0  0
  -31.4363  -12.5175   19.1640 H   0  0  0  0  0  0
  -30.2870  -11.5000   19.9843 H   0  0  0  0  0  0
  -29.7598  -11.7021   17.5172 H   0  0  0  0  0  0
  -29.5798  -13.4322   17.7030 H   0  0  0  0  0  0
  -27.8815  -11.2398   18.9384 H   0  0  0  0  0  0
  -27.3393  -12.4444   17.8093 H   0  0  0  0  0  0
  -27.5655  -14.2016   19.3946 H   0  0  0  0  0  0
  -28.7218  -12.2864   21.4757 H   0  0  0  0  0  0
  -28.4026  -13.9867   21.7147 H   0  0  0  0  0  0
  -25.2741   -9.5630   22.4811 H   0  0  0  0  0  0
  -23.9998   -7.4561   22.7460 H   0  0  0  0  0  0
  -21.0849   -8.8718   19.8922 H   0  0  0  0  0  0
  -22.3709  -10.9634   19.6174 H   0  0  0  0  0  0
  -21.1997   -7.6143   23.9717 H   0  0  0  0  0  0
  -21.1507   -6.0516   25.9076 H   0  0  0  0  0  0
  -22.0600   -2.7600   23.2817 H   0  0  0  0  0  0
  -22.4057  -11.9757   22.4734 H   0  0  0  0  0  0
  -21.1073  -13.1161   22.2779 H   0  0  0  0  0  0
  -24.6584  -15.8397   20.5661 H   0  0  0  0  0  0
  -26.2881  -15.6305   20.1615 H   0  0  0  0  0  0
  -26.7259  -32.5347   23.1013 H   0  0  0  0  0  0
  -25.0266  -33.9680   25.0396 H   0  0  0  0  0  0
  -22.7494  -31.2878   21.3682 H   0  0  0  0  0  0
  -23.3789  -35.9540   23.3274 H   0  0  0  0  0  0
  -24.3599  -36.8870   22.2095 H   0  0  0  0  0  0
  -23.7146  -37.6368   23.6743 H   0  0  0  0  0  0
  -26.1390  -31.4891   20.5878 H   0  0  0  0  0  0
  -26.8699  -30.7969   22.0075 H   0  0  0  0  0  0
  -28.1403  -28.8644   21.1953 H   0  0  0  0  0  0
  -25.9728  -25.8220   19.0373 H   0  0  0  0  0  0
  -24.0057  -27.2696   18.9907 H   0  0  0  0  0  0
  -23.7887  -30.5591   19.3834 H   0  0  0  0  0  0
  -22.7882  -29.2208   19.8401 H   0  0  0  0  0  0
  -25.1269  -36.1846   25.0801 H   0  0  0  0  0  0
  -21.0071  -28.3316   24.1301 H   0  0  0  0  0  0
  -20.5591  -26.2352   23.3659 H   0  0  0  0  0  0
  -21.6655  -26.7316   22.1271 H   0  0  0  0  0  0
  -19.6971  -25.6219   21.1255 H   0  0  0  0  0  0
  -19.6764  -27.3140   20.6768 H   0  0  0  0  0  0
  -17.4257  -26.6745   21.3920 H   0  0  0  0  0  0
  -18.0254  -26.0030   22.8868 H   0  0  0  0  0  0
  -19.7998  -30.7267   24.2169 H   0  0  0  0  0  0
  -17.5071  -31.6243   24.5181 H   0  0  0  0  0  0
  -15.5386  -30.2972   23.7685 H   0  0  0  0  0  0
  -15.8691  -28.0843   22.7003 H   0  0  0  0  0  0
  -24.5940  -30.7054   25.7783 H   0  0  0  0  0  0
  -24.8698  -32.3064   26.4593 H   0  0  0  0  0  0
  -25.7861  -30.9265   27.0377 H   0  0  0  0  0  0
  -26.2998  -29.6778   24.1271 H   0  0  0  0  0  0
  -27.3973  -29.7338   25.4850 H   0  0  0  0  0  0
  -27.8856  -30.4329   23.9596 H   0  0  0  0  0  0
  -27.2785  -33.3818   26.1796 H   0  0  0  0  0  0
  -28.3921  -32.6664   25.0255 H   0  0  0  0  0  0
  -28.0678  -31.8644   26.5473 H   0  0  0  0  0  0
  -28.2521  -38.0114   24.7521 H   0  0  0  0  0  0
  -28.1019  -36.2612   24.6158 H   0  0  0  0  0  0
  -27.2317  -37.1265   25.8871 H   0  0  0  0  0  0
  -20.9447  -29.8813   21.6809 H   0  0  0  0  0  0
  -26.0067  -38.2784   24.1554 H   0  0  0  0  0  0
  -31.5405  -18.5455   19.9331 H   0  0  0  0  0  0
  -31.3813  -19.2515   21.5018 H   0  0  0  0  0  0
  -27.9689  -18.3640   19.0569 H   0  0  0  0  0  0
  -29.5724  -17.9903   18.5428 H   0  0  0  0  0  0
  -30.2806  -17.1823   22.3845 H   0  0  0  0  0  0
  -31.7972  -16.7982   21.6709 H   0  0  0  0  0  0
  -28.6332  -15.9764   19.1537 H   0  0  0  0  0  0
  -28.0457  -16.5152   20.7083 H   0  0  0  0  0  0
  -28.8578  -19.3596   21.2079 H   0  0  0  0  0  0
  -26.7890  -22.3826   21.3527 H   0  0  0  0  0  0
  -26.2999  -23.9318   20.6778 H   0  0  0  0  0  0
  -27.4690  -23.8880   21.9856 H   0  0  0  0  0  0
  -32.5597  -21.0404   18.0116 H   0  0  0  0  0  0
  -32.1774  -21.1133   19.7173 H   0  0  0  0  0  0
  -31.7722  -22.4669   18.6593 H   0  0  0  0  0  0
  -30.4023  -21.2598   16.3254 H   0  0  0  0  0  0
  -29.4904  -22.3842   17.3201 H   0  0  0  0  0  0
  -28.8429  -20.7849   16.9449 H   0  0  0  0  0  0
  -29.2358  -21.8126   21.4438 H   0  0  0  0  0  0
  -30.3805  -22.5463   20.4548 H   0  0  0  0  0  0
  -28.0317  -24.9849   18.5851 H   0  0  0  0  0  0
  -29.6050  -24.9079   19.2035 H   0  0  0  0  0  0
  -27.8006  -22.8833   19.1511 H   0  0  0  0  0  0
  -30.6706  -19.7218   18.1560 H   0  0  0  0  0  0
  -28.5842  -20.6538   19.2147 H   0  0  0  0  0  0
  1 25  1  0  0  0
  1 30  2  0  0  0
  1 83  1  0  0  0
  2  3  1  0  0  0
  2 25  1  0  0  0
  2 85  1  0  0  0
  2 86  1  0  0  0
  3  4  1  0  0  0
  3 87  1  0  0  0
  3 88  1  0  0  0
  4  5  1  0  0  0
  4 89  1  0  0  0
  4 90  1  0  0  0
  5  6  1  0  0  0
  5 26  1  0  0  0
  5 91  1  0  0  0
  6 25  1  0  0  0
  6 92  1  0  0  0
  6 93  1  0  0  0
  7  8  2  0  0  0
  7 26  1  0  0  0
  7 29  1  0  0  0
  8  9  1  0  0  0
  8 22  1  0  0  0
  9 10  1  0  0  0
  9 27  2  0  0  0
 10 11  2  0  0  0
 10 15  1  0  0  0
 11 12  1  0  0  0
 11 94  1  0  0  0
 12 13  2  0  0  0
 12 95  1  0  0  0
 13 14  1  0  0  0
 13 31  1  0  0  0
 14 15  2  0  0  0
 14 96  1  0  0  0
 15 97  1  0  0  0
 16 17  2  0  0  0
 16 21  1  0  0  0
 16 31  1  0  0  0
 17 18  1  0  0  0
 17 98  1  0  0  0
 18 19  2  0  0  0
 18 99  1  0  0  0
 19 20  1  0  0  0
 19 24  1  0  0  0
 20 21  2  0  0  0
 20100  1  0  0  0
 21 23  1  0  0  0
 22 28  1  0  0  0
 22 32  2  0  0  0
 26 27  1  0  0  0
 28101  1  0  0  0
 28102  1  0  0  0
 29103  1  0  0  0
 29104  1  0  0  0
 33 34  1  0  0  0
 33 66  1  0  0  0
 33 70  2  0  0  0
 34 36  1  0  0  0
 34 59  1  0  0  0
 34105  1  0  0  0
 35 44  2  0  0  0
 35 45  1  0  0  0
 35 68  1  0  0  0
 36 56  1  0  0  0
 36106  1  0  0  0
 37 39  1  0  0  0
 37 47  1  0  0  0
 37 66  1  0  0  0
 37107  1  0  0  0
 38 43  2  0  0  0
 38 46  1  0  0  0
 38 47  1  0  0  0
 39 64  1  0  0  0
 39 67  2  0  0  0
 40 52  1  0  0  0
 40 53  2  0  0  0
 40 58  1  0  0  0
 41108  1  0  0  0
 41109  1  0  0  0
 41110  1  0  0  0
 41 48  1  0  0  0
 42 43  1  0  0  0
 42 66  1  0  0  0
 42111  1  0  0  0
 42112  1  0  0  0
 43 44  1  0  0  0
 44113  1  0  0  0
 45 46  2  0  0  0
 45114  1  0  0  0
 46115  1  0  0  0
 47116  1  0  0  0
 47117  1  0  0  0
 48 56  1  0  0  0
 48 65  1  0  0  0
 48118  1  0  0  0
 49 50  1  0  0  0
 49 53  1  0  0  0
 49 64  1  0  0  0
 49119  1  0  0  0
 50 51  1  0  0  0
 50120  1  0  0  0
 50121  1  0  0  0
 51 52  1  0  0  0
 51122  1  0  0  0
 51123  1  0  0  0
 52124  1  0  0  0
 52125  1  0  0  0
 53 54  1  0  0  0
 54 55  2  0  0  0
 54126  1  0  0  0
 55 57  1  0  0  0
 55127  1  0  0  0
 56 69  2  0  0  0
 57 58  2  0  0  0
 57128  1  0  0  0
 58129  1  0  0  0
 59 60  1  0  0  0
 59 61  1  0  0  0
 59 62  1  0  0  0
 60130  1  0  0  0
 60131  1  0  0  0
 60132  1  0  0  0
 61133  1  0  0  0
 61134  1  0  0  0
 61135  1  0  0  0
 62136  1  0  0  0
 62137  1  0  0  0
 62138  1  0  0  0
 63 65  1  0  0  0
 63139  1  0  0  0
 63140  1  0  0  0
 63141  1  0  0  0
 64142  1  0  0  0
 65143  1  0  0  0
 68 80  1  0  0  0
 71 73  1  0  0  0
 71144  1  0  0  0
 71145  1  0  0  0
 71 75  1  0  0  0
 72 74  1  0  0  0
 72 75  1  0  0  0
 72146  1  0  0  0
 72147  1  0  0  0
 73 83  1  0  0  0
 73148  1  0  0  0
 73149  1  0  0  0
 74 83  1  0  0  0
 74150  1  0  0  0
 74151  1  0  0  0
 75 84  1  0  0  0
 75152  1  0  0  0
 76153  1  0  0  0
 76154  1  0  0  0
 76155  1  0  0  0
 76 81  1  0  0  0
 77156  1  0  0  0
 77157  1  0  0  0
 77158  1  0  0  0
 77 82  1  0  0  0
 78 82  1  0  0  0
 78159  1  0  0  0
 78160  1  0  0  0
 78161  1  0  0  0
 79 81  1  0  0  0
 79162  1  0  0  0
 79163  1  0  0  0
 79 84  1  0  0  0
 80 81  1  0  0  0
 80164  1  0  0  0
 80165  1  0  0  0
 81166  1  0  0  0
 82 84  1  0  0  0
 82167  1  0  0  0
 84168  1  0  0  0
M  CHG  1  84   1
M  ISO  4   1 100  68 101  80 101  83 100
M  END
> <chiral flag>
0

> <version>
0

> <s_m_source_file>
/data/baiqing/PycharmProjects/Reinvent-master-3.2/result/LINK_invent/BTK/process_docking_weight1_custom_sum_contain_oxygen_bond_distance_aromatic_linkinvent_7_9_3/rearranged_h_0108.sdf

> <i_m_source_file_index>
20

> <r_mmod_Potential_Energy-OPLS-2005>
623.948486328125

> <r_mmod_Stretch_Energy-OPLS-2005>
225.701141357422

> <r_mmod_Bend_Energy-OPLS-2005>
329.931457519531

> <r_mmod_Torsional_Energy-OPLS-2005>
373.959533691406

> <r_mmod_Improper_Torsional_Energy-OPLS-2005>
2.41479468345642

> <r_mmod_Van_der_Waal_Energy-OPLS-2005>
115.225868225098

> <r_mmod_Electrostatic_Energy-OPLS-2005>
-118.372146606445

> <r_mmod_Solvation_Energy-OPLS-2005>
-428.206085205078

> <b_mmod_Minimization_Converged-OPLS-2005>
0

> <r_mmod_RMS_Derivative-OPLS-2005>
7.16463661193848

$$$$
20
                    3D
 Structure written by MMmdl.
168177  0  0  1  0            999 V2000
  -30.6645  -14.6381   20.5177 C   0  0  0  0  0  0
  -30.4307  -12.4003   19.4516 C   0  0  0  0  0  0
  -29.5031  -12.5017   18.2225 C   0  0  0  0  0  0
  -28.0288  -12.3389   18.6396 C   0  0  0  0  0  0
  -27.6496  -13.2228   19.8577 C   0  0  2  0  0  0
  -28.6964  -13.1081   20.9878 C   0  0  0  0  0  0
  -25.2546  -13.8186   20.5691 C   0  0  0  0  0  0
  -24.1823  -13.0442   20.9201 C   0  0  0  0  0  0
  -24.6401  -11.6916   20.8749 C   0  0  0  0  0  0
  -23.9073  -10.4295   21.0411 C   0  0  0  0  0  0
  -24.3621   -9.4208   21.9188 C   0  0  0  0  0  0
  -23.6294   -8.2244   22.0755 C   0  0  0  0  0  0
  -22.4278   -8.0284   21.3545 C   0  0  0  0  0  0
  -21.9916   -9.0259   20.4646 C   0  0  0  0  0  0
  -22.7247  -10.2138   20.3056 C   0  0  0  0  0  0
  -21.6852   -6.0739   22.5280 C   0  0  0  0  0  0
  -21.4015   -6.5642   23.8214 C   0  0  0  0  0  0
  -21.3659   -5.6795   24.9175 C   0  0  0  0  0  0
  -21.6044   -4.3058   24.7227 C   0  0  0  0  0  0
  -21.8818   -3.8149   23.4348 C   0  0  0  0  0  0
  -21.9194   -4.6967   22.3404 C   0  0  0  0  0  0
  -22.7845  -13.5229   21.1863 C   0  0  0  0  0  0
  -22.1661   -4.2153   21.0981 F   0  0  0  0  0  0
  -21.5628   -3.4539   25.7737 F   0  0  0  0  0  0
  -30.0079  -13.4394   20.4125 N   0  0  0  0  0  0
  -26.2976  -12.9379   20.3311 N   0  0  0  0  0  0
  -25.9331  -11.6530   20.5764 N   0  0  0  0  0  0
  -22.0484  -12.8215   22.0410 N   0  0  0  0  0  0
  -25.4244  -15.1907   20.4106 N   0  0  0  0  0  0
  -31.8377  -14.7541   20.1569 O   0  0  0  0  0  0
  -21.6640   -6.8885   21.4243 O   0  0  0  0  0  0
  -22.3528  -14.5535   20.6714 O   0  0  0  0  0  0
  -24.6296  -31.8609   23.2067 C   0  0  0  0  0  0
  -25.9138  -32.4782   23.8387 C   0  0  1  0  0  0
  -27.2130  -27.2954   20.0962 C   0  0  0  0  0  0
  -25.5951  -33.8586   24.2298 N   0  0  0  0  0  0
  -23.4223  -30.4911   21.5515 C   0  0  2  0  0  0
  -24.8640  -28.9559   20.1117 C   0  0  0  0  0  0
  -22.7488  -29.4641   22.4939 C   0  0  0  0  0  0
  -18.0292  -28.1383   22.8485 C   0  0  0  0  0  0
  -24.1487  -36.7296   23.2637 C   0  0  0  0  0  0
  -25.9707  -30.7790   21.3892 C   0  0  0  0  0  0
  -26.0382  -29.4082   20.7257 C   0  0  0  0  0  0
  -27.2101  -28.5872   20.7196 C   0  0  0  0  0  0
  -26.0070  -26.9254   19.4433 C   0  0  0  0  0  0
  -24.8521  -27.7184   19.4654 C   0  0  0  0  0  0
  -23.6369  -29.8400   20.1634 C   0  0  0  0  0  0
  -25.4114  -36.3079   24.0322 C   0  0  1  0  0  0
  -20.5895  -28.3695   23.1271 C   0  0  2  0  0  0
  -20.6783  -26.9419   22.5400 C   0  0  0  0  0  0
  -19.5752  -26.6390   21.5204 C   0  0  0  0  0  0
  -18.1935  -26.7929   22.1623 C   0  0  0  0  0  0
  -19.1546  -28.8855   23.2875 C   0  0  0  0  0  0
  -18.9467  -30.1459   23.8889 C   0  0  0  0  0  0
  -17.6465  -30.6588   24.0562 C   0  0  0  0  0  0
  -25.9054  -34.9450   23.5104 C   0  0  0  0  0  0
  -16.5355  -29.9082   23.6334 C   0  0  0  0  0  0
  -16.7280  -28.6501   23.0354 C   0  0  0  0  0  0
  -26.4508  -31.6596   25.0762 C   0  0  0  0  0  0
  -25.3733  -31.3740   26.1480 C   0  0  0  0  0  0
  -27.0362  -30.3013   24.6249 C   0  0  0  0  0  0
  -27.6057  -32.4348   25.7527 C   0  0  0  0  0  0
  -27.5578  -37.1801   24.8465 C   0  0  0  0  0  0
  -21.4203  -29.3052   22.3668 N   0  0  0  0  0  0
  -26.4292  -37.3773   23.9408 N   0  0  0  0  0  0
  -24.6931  -31.0602   22.1043 N   0  0  0  0  0  0
  -23.4206  -28.8164   23.3011 O   0  0  0  0  0  0
  -28.3199  -26.4112   20.1613 O   0  0  0  0  0  0
  -26.5615  -34.8909   22.4666 O   0  0  0  0  0  0
  -23.5453  -32.1432   23.7369 O   0  0  0  0  0  0
  -28.0891  -23.0506   21.0656 C   0  0  0  0  0  0
  -30.2289  -21.6427   19.9920 C   0  0  0  0  0  0
  -28.8656  -23.7448   20.0962 C   0  0  0  0  0  0
  -28.3431  -21.7067   21.4719 C   0  0  0  0  0  0
  -30.0024  -23.0067   19.6043 C   0  0  0  0  0  0
  -29.4059  -20.9490   20.9116 C   0  0  0  0  0  0
  -33.0356  -24.6079   20.0590 C   0  0  0  0  0  0
  -33.0819  -25.2645   18.7037 C   0  0  0  0  0  0
  -31.7582  -24.8000   19.2705 C   0  0  0  0  0  0
  -27.4310  -21.0786   22.5132 C   0  0  0  0  0  0
  -28.5088  -25.3197   17.9850 C   0  0  0  0  0  0
  -31.0427  -23.6055   18.6617 C   0  0  0  0  0  0
  -29.6774  -18.3852   20.5227 C   0  0  0  0  0  0
  -30.4268  -17.1334   21.1698 C   0  0  0  0  0  0
  -28.2471  -25.0842   19.4846 C   0  0  2  0  0  0
  -29.6842  -19.6171   21.3666 N   0  0  0  0  0  0
  -29.9337  -15.7396   20.8794 N   0  0  0  0  0  0
  -31.4721  -12.5153   19.1464 H   0  0  0  0  0  0
  -30.3608  -11.4122   19.9086 H   0  0  0  0  0  0
  -29.7684  -11.7427   17.4855 H   0  0  0  0  0  0
  -29.6429  -13.4664   17.7325 H   0  0  0  0  0  0
  -27.8727  -11.2878   18.8855 H   0  0  0  0  0  0
  -27.3710  -12.5536   17.7968 H   0  0  0  0  0  0
  -27.6607  -14.2528   19.5012 H   0  0  0  0  0  0
  -28.7109  -12.0983   21.4004 H   0  0  0  0  0  0
  -28.4444  -13.7692   21.8182 H   0  0  0  0  0  0
  -25.2765   -9.5684   22.4765 H   0  0  0  0  0  0
  -24.0003   -7.4636   22.7475 H   0  0  0  0  0  0
  -21.0848   -8.8782   19.8949 H   0  0  0  0  0  0
  -22.3709  -10.9680   19.6166 H   0  0  0  0  0  0
  -21.2006   -7.6151   23.9719 H   0  0  0  0  0  0
  -21.1480   -6.0524   25.9080 H   0  0  0  0  0  0
  -22.0598   -2.7612   23.2846 H   0  0  0  0  0  0
  -22.4100  -11.9875   22.4795 H   0  0  0  0  0  0
  -21.1100  -13.1239   22.2614 H   0  0  0  0  0  0
  -24.6562  -15.8441   20.5199 H   0  0  0  0  0  0
  -26.2709  -15.6303   20.0719 H   0  0  0  0  0  0
  -26.7200  -32.5427   23.1127 H   0  0  0  0  0  0
  -25.0097  -33.9742   25.0439 H   0  0  0  0  0  0
  -22.7178  -31.3137   21.4154 H   0  0  0  0  0  0
  -23.3747  -35.9631   23.3302 H   0  0  0  0  0  0
  -24.3582  -36.8925   22.2055 H   0  0  0  0  0  0
  -23.7246  -37.6497   23.6664 H   0  0  0  0  0  0
  -26.1147  -31.5433   20.6242 H   0  0  0  0  0  0
  -26.8472  -30.8182   22.0240 H   0  0  0  0  0  0
  -28.1049  -28.9284   21.2215 H   0  0  0  0  0  0
  -25.8805  -26.0123   18.8879 H   0  0  0  0  0  0
  -23.9558  -27.3712   18.9695 H   0  0  0  0  0  0
  -23.7615  -30.6234   19.4146 H   0  0  0  0  0  0
  -22.7538  -29.2777   19.8546 H   0  0  0  0  0  0
  -25.1291  -36.1934   25.0814 H   0  0  0  0  0  0
  -20.9982  -28.3267   24.1392 H   0  0  0  0  0  0
  -20.5694  -26.2303   23.3600 H   0  0  0  0  0  0
  -21.6649  -26.7456   22.1183 H   0  0  0  0  0  0
  -19.6913  -25.6299   21.1238 H   0  0  0  0  0  0
  -19.6680  -27.3194   20.6728 H   0  0  0  0  0  0
  -17.4203  -26.6680   21.4027 H   0  0  0  0  0  0
  -18.0332  -26.0072   22.9019 H   0  0  0  0  0  0
  -19.7944  -30.7279   24.2252 H   0  0  0  0  0  0
  -17.5022  -31.6266   24.5168 H   0  0  0  0  0  0
  -15.5354  -30.2981   23.7665 H   0  0  0  0  0  0
  -15.8682  -28.0820   22.7070 H   0  0  0  0  0  0
  -24.5900  -30.7093   25.7814 H   0  0  0  0  0  0
  -24.8927  -32.2906   26.4905 H   0  0  0  0  0  0
  -25.8049  -30.8920   27.0261 H   0  0  0  0  0  0
  -26.2954  -29.6751   24.1259 H   0  0  0  0  0  0
  -27.4032  -29.7276   25.4773 H   0  0  0  0  0  0
  -27.8838  -30.4296   23.9515 H   0  0  0  0  0  0
  -27.2661  -33.3661   26.2074 H   0  0  0  0  0  0
  -28.3872  -32.6899   25.0355 H   0  0  0  0  0  0
  -28.0716  -31.8502   26.5470 H   0  0  0  0  0  0
  -28.2587  -38.0105   24.7513 H   0  0  0  0  0  0
  -28.1082  -36.2635   24.6289 H   0  0  0  0  0  0
  -27.2299  -37.1450   25.8868 H   0  0  0  0  0  0
  -20.9374  -29.8794   21.6896 H   0  0  0  0  0  0
  -26.0171  -38.2847   24.1411 H   0  0  0  0  0  0
  -27.2243  -23.5534   21.4759 H   0  0  0  0  0  0
  -31.0869  -21.1186   19.5946 H   0  0  0  0  0  0
  -33.1861  -25.2411   20.9318 H   0  0  0  0  0  0
  -33.4326  -23.5976   20.1430 H   0  0  0  0  0  0
  -33.5139  -24.6946   17.8827 H   0  0  0  0  0  0
  -33.2653  -26.3370   18.6715 H   0  0  0  0  0  0
  -31.0977  -25.5932   19.6144 H   0  0  0  0  0  0
  -26.6070  -21.7407   22.7791 H   0  0  0  0  0  0
  -27.9888  -20.8580   23.4236 H   0  0  0  0  0  0
  -27.0019  -20.1492   22.1377 H   0  0  0  0  0  0
  -28.3777  -24.4035   17.4093 H   0  0  0  0  0  0
  -29.5044  -25.7184   17.8034 H   0  0  0  0  0  0
  -27.8201  -26.0527   17.5676 H   0  0  0  0  0  0
  -30.6123  -23.8591   17.6972 H   0  0  0  0  0  0
  -31.7939  -22.8528   18.4186 H   0  0  0  0  0  0
  -28.6319  -18.1234   20.3543 H   0  0  0  0  0  0
  -30.0981  -18.6037   19.5400 H   0  0  0  0  0  0
  -30.3646  -17.2247   22.2548 H   0  0  0  0  0  0
  -31.4923  -17.2082   20.9459 H   0  0  0  0  0  0
  -27.2200  -24.7461   19.5395 H   0  0  0  0  0  0
  -29.2612  -19.4352   22.2725 H   0  0  0  0  0  0
  -28.9614  -15.5637   21.0848 H   0  0  0  0  0  0
  1 25  1  0  0  0
  1 30  2  0  0  0
  1 87  1  0  0  0
  2  3  1  0  0  0
  2 25  1  0  0  0
  2 88  1  0  0  0
  2 89  1  0  0  0
  3  4  1  0  0  0
  3 90  1  0  0  0
  3 91  1  0  0  0
  4  5  1  0  0  0
  4 92  1  0  0  0
  4 93  1  0  0  0
  5  6  1  0  0  0
  5 26  1  0  0  0
  5 94  1  0  0  0
  6 25  1  0  0  0
  6 95  1  0  0  0
  6 96  1  0  0  0
  7  8  2  0  0  0
  7 26  1  0  0  0
  7 29  1  0  0  0
  8  9  1  0  0  0
  8 22  1  0  0  0
  9 10  1  0  0  0
  9 27  2  0  0  0
 10 11  2  0  0  0
 10 15  1  0  0  0
 11 12  1  0  0  0
 11 97  1  0  0  0
 12 13  2  0  0  0
 12 98  1  0  0  0
 13 14  1  0  0  0
 13 31  1  0  0  0
 14 15  2  0  0  0
 14 99  1  0  0  0
 15100  1  0  0  0
 16 17  2  0  0  0
 16 21  1  0  0  0
 16 31  1  0  0  0
 17 18  1  0  0  0
 17101  1  0  0  0
 18 19  2  0  0  0
 18102  1  0  0  0
 19 20  1  0  0  0
 19 24  1  0  0  0
 20 21  2  0  0  0
 20103  1  0  0  0
 21 23  1  0  0  0
 22 28  1  0  0  0
 22 32  2  0  0  0
 26 27  1  0  0  0
 28104  1  0  0  0
 28105  1  0  0  0
 29106  1  0  0  0
 29107  1  0  0  0
 33 34  1  0  0  0
 33 66  1  0  0  0
 33 70  2  0  0  0
 34 36  1  0  0  0
 34 59  1  0  0  0
 34108  1  0  0  0
 35 44  2  0  0  0
 35 45  1  0  0  0
 35 68  1  0  0  0
 36 56  1  0  0  0
 36109  1  0  0  0
 37 39  1  0  0  0
 37 47  1  0  0  0
 37 66  1  0  0  0
 37110  1  0  0  0
 38 43  2  0  0  0
 38 46  1  0  0  0
 38 47  1  0  0  0
 39 64  1  0  0  0
 39 67  2  0  0  0
 40 52  1  0  0  0
 40 53  2  0  0  0
 40 58  1  0  0  0
 41111  1  0  0  0
 41112  1  0  0  0
 41113  1  0  0  0
 41 48  1  0  0  0
 42 43  1  0  0  0
 42 66  1  0  0  0
 42114  1  0  0  0
 42115  1  0  0  0
 43 44  1  0  0  0
 44116  1  0  0  0
 45 46  2  0  0  0
 45117  1  0  0  0
 46118  1  0  0  0
 47119  1  0  0  0
 47120  1  0  0  0
 48 56  1  0  0  0
 48 65  1  0  0  0
 48121  1  0  0  0
 49 50  1  0  0  0
 49 53  1  0  0  0
 49 64  1  0  0  0
 49122  1  0  0  0
 50 51  1  0  0  0
 50123  1  0  0  0
 50124  1  0  0  0
 51 52  1  0  0  0
 51125  1  0  0  0
 51126  1  0  0  0
 52127  1  0  0  0
 52128  1  0  0  0
 53 54  1  0  0  0
 54 55  2  0  0  0
 54129  1  0  0  0
 55 57  1  0  0  0
 55130  1  0  0  0
 56 69  2  0  0  0
 57 58  2  0  0  0
 57131  1  0  0  0
 58132  1  0  0  0
 59 60  1  0  0  0
 59 61  1  0  0  0
 59 62  1  0  0  0
 60133  1  0  0  0
 60134  1  0  0  0
 60135  1  0  0  0
 61136  1  0  0  0
 61137  1  0  0  0
 61138  1  0  0  0
 62139  1  0  0  0
 62140  1  0  0  0
 62141  1  0  0  0
 63 65  1  0  0  0
 63142  1  0  0  0
 63143  1  0  0  0
 63144  1  0  0  0
 64145  1  0  0  0
 65146  1  0  0  0
 68 85  1  0  0  0
 71 73  2  0  0  0
 71 74  1  0  0  0
 71147  1  0  0  0
 72 75  2  0  0  0
 72 76  1  0  0  0
 72148  1  0  0  0
 73 75  1  0  0  0
 73 85  1  0  0  0
 74 76  2  0  0  0
 74 80  1  0  0  0
 75 82  1  0  0  0
 76 86  1  0  0  0
 77 78  1  0  0  0
 77 79  1  0  0  0
 77149  1  0  0  0
 77150  1  0  0  0
 78 79  1  0  0  0
 78151  1  0  0  0
 78152  1  0  0  0
 79 82  1  0  0  0
 79153  1  0  0  0
 80154  1  0  0  0
 80155  1  0  0  0
 80156  1  0  0  0
 81157  1  0  0  0
 81158  1  0  0  0
 81159  1  0  0  0
 81 85  1  0  0  0
 82160  1  0  0  0
 82161  1  0  0  0
 83 84  1  0  0  0
 83 86  1  0  0  0
 83162  1  0  0  0
 83163  1  0  0  0
 84 87  1  0  0  0
 84164  1  0  0  0
 84165  1  0  0  0
 85166  1  0  0  0
 86167  1  0  0  0
 87168  1  0  0  0
M  ISO  4   1 100  68 101  85 101  87 100
M  END
> <chiral flag>
0

> <version>
0

> <s_m_source_file>
/data/baiqing/PycharmProjects/Reinvent-master-3.2/result/LINK_invent/BTK/process_docking_weight1_custom_sum_contain_oxygen_bond_distance_aromatic_linkinvent_7_9_3/rearranged_h_0108.sdf

> <i_m_source_file_index>
21

> <r_mmod_Potential_Energy-OPLS-2005>
86.4088821411133

> <r_mmod_Stretch_Energy-OPLS-2005>
89.6029815673828

> <r_mmod_Bend_Energy-OPLS-2005>
170.879516601562

> <r_mmod_Torsional_Energy-OPLS-2005>
263.4814453125

> <r_mmod_Improper_Torsional_Energy-OPLS-2005>
9.28497219085693

> <r_mmod_Van_der_Waal_Energy-OPLS-2005>
158.087799072266

> <r_mmod_Electrostatic_Energy-OPLS-2005>
-445.894439697266

> <r_mmod_Solvation_Energy-OPLS-2005>
-215.871078491211

> <b_mmod_Minimization_Converged-OPLS-2005>
0

> <r_mmod_RMS_Derivative-OPLS-2005>
0.778525114059448

$$$$
21
                    3D
 Structure written by MMmdl.
154162  0  0  1  0            999 V2000
  -30.5728  -15.0291   20.3876 C   0  0  0  0  0  0
  -30.4400  -12.6450   19.4983 C   0  0  0  0  0  0
  -29.5158  -12.4914   18.2668 C   0  0  0  0  0  0
  -28.0498  -12.2915   18.6866 C   0  0  0  0  0  0
  -27.6230  -13.2507   19.8261 C   0  0  2  0  0  0
  -28.6727  -13.3494   20.9561 C   0  0  0  0  0  0
  -25.2504  -13.8232   20.5774 C   0  0  0  0  0  0
  -24.1807  -13.0474   20.9241 C   0  0  0  0  0  0
  -24.6387  -11.6940   20.8734 C   0  0  0  0  0  0
  -23.9055  -10.4314   21.0370 C   0  0  0  0  0  0
  -24.3619   -9.4229   21.9154 C   0  0  0  0  0  0
  -23.6329   -8.2241   22.0707 C   0  0  0  0  0  0
  -22.4305   -8.0262   21.3494 C   0  0  0  0  0  0
  -21.9911   -9.0231   20.4600 C   0  0  0  0  0  0
  -22.7213  -10.2146   20.3028 C   0  0  0  0  0  0
  -21.6891   -6.0722   22.5285 C   0  0  0  0  0  0
  -21.4003   -6.5632   23.8200 C   0  0  0  0  0  0
  -21.3672   -5.6794   24.9169 C   0  0  0  0  0  0
  -21.6046   -4.3059   24.7235 C   0  0  0  0  0  0
  -21.8835   -3.8144   23.4356 C   0  0  0  0  0  0
  -21.9210   -4.6943   22.3412 C   0  0  0  0  0  0
  -22.7819  -13.5204   21.1929 C   0  0  0  0  0  0
  -22.1696   -4.2123   21.0987 F   0  0  0  0  0  0
  -21.5620   -3.4550   25.7754 F   0  0  0  0  0  0
  -29.9397  -13.7757   20.3422 N   0  0  0  0  0  0
  -26.2898  -12.9459   20.3277 N   0  0  0  0  0  0
  -25.9320  -11.6588   20.5723 N   0  0  0  0  0  0
  -22.0536  -12.8128   22.0459 N   0  0  0  0  0  0
  -25.4292  -15.1955   20.4235 N   0  0  0  0  0  0
  -31.7770  -15.0336   20.1259 O   0  0  0  0  0  0
  -21.6685   -6.8850   21.4233 O   0  0  0  0  0  0
  -22.3461  -14.5508   20.6774 O   0  0  0  0  0  0
  -24.6496  -31.8380   23.1801 C   0  0  0  0  0  0
  -25.9214  -32.4694   23.8232 C   0  0  1  0  0  0
  -27.2197  -27.0876   20.1470 C   0  0  0  0  0  0
  -25.5909  -33.8491   24.2167 N   0  0  0  0  0  0
  -23.4555  -30.4524   21.5328 C   0  0  2  0  0  0
  -24.9058  -28.8696   20.1160 C   0  0  0  0  0  0
  -22.7607  -29.4490   22.4886 C   0  0  0  0  0  0
  -18.0284  -28.1456   22.8451 C   0  0  0  0  0  0
  -24.1453  -36.7228   23.2643 C   0  0  0  0  0  0
  -26.0135  -30.7039   21.3754 C   0  0  0  0  0  0
  -26.0906  -29.3082   20.7177 C   0  0  0  0  0  0
  -27.2513  -28.4352   20.7070 C   0  0  0  0  0  0
  -25.9992  -26.7542   19.5186 C   0  0  0  0  0  0
  -24.8747  -27.6112   19.5027 C   0  0  0  0  0  0
  -23.6834  -29.7725   20.1570 C   0  0  0  0  0  0
  -25.4092  -36.3023   24.0321 C   0  0  1  0  0  0
  -20.5883  -28.3736   23.1250 C   0  0  2  0  0  0
  -20.6778  -26.9455   22.5424 C   0  0  0  0  0  0
  -19.5777  -26.6411   21.5217 C   0  0  0  0  0  0
  -18.1930  -26.7986   22.1606 C   0  0  0  0  0  0
  -19.1545  -28.8935   23.2808 C   0  0  0  0  0  0
  -18.9460  -30.1502   23.8868 C   0  0  0  0  0  0
  -17.6476  -30.6640   24.0584 C   0  0  0  0  0  0
  -25.9057  -34.9393   23.5074 C   0  0  0  0  0  0
  -16.5365  -29.9154   23.6386 C   0  0  0  0  0  0
  -16.7255  -28.6578   23.0370 C   0  0  0  0  0  0
  -26.4511  -31.6592   25.0717 C   0  0  0  0  0  0
  -25.3659  -31.3768   26.1399 C   0  0  0  0  0  0
  -27.0396  -30.3027   24.6254 C   0  0  0  0  0  0
  -27.6079  -32.4385   25.7448 C   0  0  0  0  0  0
  -27.5543  -37.1735   24.8475 C   0  0  0  0  0  0
  -21.4295  -29.3033   22.3657 N   0  0  0  0  0  0
  -26.4247  -37.3768   23.9443 N   0  0  0  0  0  0
  -24.7288  -31.0141   22.0892 N   0  0  0  0  0  0
  -23.4230  -28.8060   23.3077 O   0  0  0  0  0  0
  -28.2878  -26.1022   20.1718 O   0  0  0  0  0  0
  -26.5679  -34.8895   22.4669 O   0  0  0  0  0  0
  -23.5584  -32.1263   23.6952 O   0  0  0  0  0  0
  -29.6163  -20.5215   19.8031 C   0  0  0  0  0  0
  -29.6542  -19.2858   20.5263 C   0  0  0  0  0  0
  -29.1589  -19.7638   21.7966 C   0  0  0  0  0  0
  -28.9179  -21.1426   21.7768 C   0  0  0  0  0  0
  -28.9993  -18.9050   23.0373 C   0  0  0  0  0  0
  -28.5527  -21.9916   22.9577 C   0  0  0  0  0  0
  -30.2826  -17.7670   20.1105 C   0  0  0  0  0  0
  -29.1595  -23.2601   20.0552 C   0  0  0  0  0  0
  -28.0714  -24.5465   20.3783 C   0  0  0  0  0  0
  -29.1504  -21.7075   20.5131 N   0  0  0  0  0  0
  -29.8596  -16.2733   20.4950 N   0  0  0  0  0  0
  -31.4569  -12.8180   19.1443 H   0  0  0  0  0  0
  -30.4841  -11.7228   20.0791 H   0  0  0  0  0  0
  -29.8314  -11.6394   17.6639 H   0  0  0  0  0  0
  -29.5989  -13.3701   17.6312 H   0  0  0  0  0  0
  -27.9271  -11.2544   19.0031 H   0  0  0  0  0  0
  -27.3909  -12.4112   17.8262 H   0  0  0  0  0  0
  -27.5619  -14.2334   19.3589 H   0  0  0  0  0  0
  -28.7904  -12.3919   21.4645 H   0  0  0  0  0  0
  -28.3538  -14.0678   21.7136 H   0  0  0  0  0  0
  -25.2761   -9.5753   22.4718 H   0  0  0  0  0  0
  -24.0095   -7.4615   22.7378 H   0  0  0  0  0  0
  -21.0846   -8.8688   19.8875 H   0  0  0  0  0  0
  -22.3609  -10.9666   19.6133 H   0  0  0  0  0  0
  -21.1981   -7.6134   23.9687 H   0  0  0  0  0  0
  -21.1477   -6.0522   25.9057 H   0  0  0  0  0  0
  -22.0605   -2.7602   23.2884 H   0  0  0  0  0  0
  -22.4306  -11.9861   22.4879 H   0  0  0  0  0  0
  -21.1086  -13.0959   22.2623 H   0  0  0  0  0  0
  -24.6944  -15.8717   20.5869 H   0  0  0  0  0  0
  -26.2739  -15.6178   20.0670 H   0  0  0  0  0  0
  -26.7321  -32.5319   23.0989 H   0  0  0  0  0  0
  -25.0038  -33.9641   25.0290 H   0  0  0  0  0  0
  -22.7593  -31.2758   21.3693 H   0  0  0  0  0  0
  -23.3763  -35.9521   23.3305 H   0  0  0  0  0  0
  -24.3525  -36.8882   22.2064 H   0  0  0  0  0  0
  -23.7135  -37.6387   23.6699 H   0  0  0  0  0  0
  -26.1472  -31.4499   20.5898 H   0  0  0  0  0  0
  -26.8899  -30.7783   22.0054 H   0  0  0  0  0  0
  -28.1650  -28.7708   21.1804 H   0  0  0  0  0  0
  -25.8694  -25.7943   19.0368 H   0  0  0  0  0  0
  -23.9631  -27.2766   19.0291 H   0  0  0  0  0  0
  -23.8153  -30.5356   19.3912 H   0  0  0  0  0  0
  -22.8005  -29.2047   19.8593 H   0  0  0  0  0  0
  -25.1255  -36.1881   25.0818 H   0  0  0  0  0  0
  -20.9888  -28.3334   24.1391 H   0  0  0  0  0  0
  -20.5700  -26.2333   23.3624 H   0  0  0  0  0  0
  -21.6638  -26.7542   22.1184 H   0  0  0  0  0  0
  -19.6942  -25.6294   21.1300 H   0  0  0  0  0  0
  -19.6739  -27.3171   20.6718 H   0  0  0  0  0  0
  -17.4207  -26.6705   21.4013 H   0  0  0  0  0  0
  -18.0337  -26.0144   22.9026 H   0  0  0  0  0  0
  -19.7927  -30.7308   24.2238 H   0  0  0  0  0  0
  -17.5038  -31.6309   24.5184 H   0  0  0  0  0  0
  -15.5349  -30.3073   23.7700 H   0  0  0  0  0  0
  -15.8638  -28.0887   22.7143 H   0  0  0  0  0  0
  -24.5837  -30.7173   25.7637 H   0  0  0  0  0  0
  -24.8822  -32.2935   26.4809 H   0  0  0  0  0  0
  -25.7851  -30.8907   27.0212 H   0  0  0  0  0  0
  -26.3024  -29.6761   24.1262 H   0  0  0  0  0  0
  -27.4086  -29.7347   25.4783 H   0  0  0  0  0  0
  -27.8864  -30.4351   23.9526 H   0  0  0  0  0  0
  -27.2772  -33.3779   26.1897 H   0  0  0  0  0  0
  -28.3886  -32.6831   25.0227 H   0  0  0  0  0  0
  -28.0768  -31.8615   26.5426 H   0  0  0  0  0  0
  -28.2578  -38.0024   24.7581 H   0  0  0  0  0  0
  -28.1029  -36.2568   24.6256 H   0  0  0  0  0  0
  -27.2287  -37.1343   25.8888 H   0  0  0  0  0  0
  -20.9577  -29.8707   21.6748 H   0  0  0  0  0  0
  -26.0127  -38.2822   24.1578 H   0  0  0  0  0  0
  -29.9632  -20.6925   18.7921 H   0  0  0  0  0  0
  -28.5805  -17.9304   22.7989 H   0  0  0  0  0  0
  -28.3271  -19.3660   23.7628 H   0  0  0  0  0  0
  -29.9568  -18.7476   23.5358 H   0  0  0  0  0  0
  -28.7417  -23.0504   22.7951 H   0  0  0  0  0  0
  -29.1461  -21.7057   23.8292 H   0  0  0  0  0  0
  -27.5068  -21.8609   23.2345 H   0  0  0  0  0  0
  -31.3387  -17.8284   20.3830 H   0  0  0  0  0  0
  -30.3237  -17.7690   19.0213 H   0  0  0  0  0  0
  -30.1310  -23.6310   20.3683 H   0  0  0  0  0  0
  -29.2510  -23.2288   18.9700 H   0  0  0  0  0  0
  -27.8246  -24.4846   21.4343 H   0  0  0  0  0  0
  -27.1486  -24.2711   19.8743 H   0  0  0  0  0  0
  -28.8756  -16.1663   20.6761 H   0  0  0  0  0  0
  1 25  1  0  0  0
  1 30  2  0  0  0
  1 81  1  0  0  0
  2  3  1  0  0  0
  2 25  1  0  0  0
  2 82  1  0  0  0
  2 83  1  0  0  0
  3  4  1  0  0  0
  3 84  1  0  0  0
  3 85  1  0  0  0
  4  5  1  0  0  0
  4 86  1  0  0  0
  4 87  1  0  0  0
  5  6  1  0  0  0
  5 26  1  0  0  0
  5 88  1  0  0  0
  6 25  1  0  0  0
  6 89  1  0  0  0
  6 90  1  0  0  0
  7  8  2  0  0  0
  7 26  1  0  0  0
  7 29  1  0  0  0
  8  9  1  0  0  0
  8 22  1  0  0  0
  9 10  1  0  0  0
  9 27  2  0  0  0
 10 11  2  0  0  0
 10 15  1  0  0  0
 11 12  1  0  0  0
 11 91  1  0  0  0
 12 13  2  0  0  0
 12 92  1  0  0  0
 13 14  1  0  0  0
 13 31  1  0  0  0
 14 15  2  0  0  0
 14 93  1  0  0  0
 15 94  1  0  0  0
 16 17  2  0  0  0
 16 21  1  0  0  0
 16 31  1  0  0  0
 17 18  1  0  0  0
 17 95  1  0  0  0
 18 19  2  0  0  0
 18 96  1  0  0  0
 19 20  1  0  0  0
 19 24  1  0  0  0
 20 21  2  0  0  0
 20 97  1  0  0  0
 21 23  1  0  0  0
 22 28  1  0  0  0
 22 32  2  0  0  0
 26 27  1  0  0  0
 28 98  1  0  0  0
 28 99  1  0  0  0
 29100  1  0  0  0
 29101  1  0  0  0
 33 34  1  0  0  0
 33 66  1  0  0  0
 33 70  2  0  0  0
 34 36  1  0  0  0
 34 59  1  0  0  0
 34102  1  0  0  0
 35 44  2  0  0  0
 35 45  1  0  0  0
 35 68  1  0  0  0
 36 56  1  0  0  0
 36103  1  0  0  0
 37 39  1  0  0  0
 37 47  1  0  0  0
 37 66  1  0  0  0
 37104  1  0  0  0
 38 43  2  0  0  0
 38 46  1  0  0  0
 38 47  1  0  0  0
 39 64  1  0  0  0
 39 67  2  0  0  0
 40 52  1  0  0  0
 40 53  2  0  0  0
 40 58  1  0  0  0
 41105  1  0  0  0
 41106  1  0  0  0
 41107  1  0  0  0
 41 48  1  0  0  0
 42 43  1  0  0  0
 42 66  1  0  0  0
 42108  1  0  0  0
 42109  1  0  0  0
 43 44  1  0  0  0
 44110  1  0  0  0
 45 46  2  0  0  0
 45111  1  0  0  0
 46112  1  0  0  0
 47113  1  0  0  0
 47114  1  0  0  0
 48 56  1  0  0  0
 48 65  1  0  0  0
 48115  1  0  0  0
 49 50  1  0  0  0
 49 53  1  0  0  0
 49 64  1  0  0  0
 49116  1  0  0  0
 50 51  1  0  0  0
 50117  1  0  0  0
 50118  1  0  0  0
 51 52  1  0  0  0
 51119  1  0  0  0
 51120  1  0  0  0
 52121  1  0  0  0
 52122  1  0  0  0
 53 54  1  0  0  0
 54 55  2  0  0  0
 54123  1  0  0  0
 55 57  1  0  0  0
 55124  1  0  0  0
 56 69  2  0  0  0
 57 58  2  0  0  0
 57125  1  0  0  0
 58126  1  0  0  0
 59 60  1  0  0  0
 59 61  1  0  0  0
 59 62  1  0  0  0
 60127  1  0  0  0
 60128  1  0  0  0
 60129  1  0  0  0
 61130  1  0  0  0
 61131  1  0  0  0
 61132  1  0  0  0
 62133  1  0  0  0
 62134  1  0  0  0
 62135  1  0  0  0
 63 65  1  0  0  0
 63136  1  0  0  0
 63137  1  0  0  0
 63138  1  0  0  0
 64139  1  0  0  0
 65140  1  0  0  0
 68 79  1  0  0  0
 71 72  2  0  0  0
 71 80  1  0  0  0
 71141  1  0  0  0
 72 73  1  0  0  0
 72 77  1  0  0  0
 73 74  2  0  0  0
 73 75  1  0  0  0
 74 76  1  0  0  0
 74 80  1  0  0  0
 75142  1  0  0  0
 75143  1  0  0  0
 75144  1  0  0  0
 76145  1  0  0  0
 76146  1  0  0  0
 76147  1  0  0  0
 77 81  1  0  0  0
 77148  1  0  0  0
 77149  1  0  0  0
 78 79  1  0  0  0
 78 80  1  0  0  0
 78150  1  0  0  0
 78151  1  0  0  0
 79152  1  0  0  0
 79153  1  0  0  0
 81154  1  0  0  0
M  ISO  4   1 100  68 101  79 101  81 100
M  END
> <chiral flag>
0

> <version>
0

> <s_m_source_file>
/data/baiqing/PycharmProjects/Reinvent-master-3.2/result/LINK_invent/BTK/process_docking_weight1_custom_sum_contain_oxygen_bond_distance_aromatic_linkinvent_7_9_3/rearranged_h_0108.sdf

> <i_m_source_file_index>
22

> <r_mmod_Potential_Energy-OPLS-2005>
571.156127929688

> <r_mmod_Stretch_Energy-OPLS-2005>
317.641662597656

> <r_mmod_Bend_Energy-OPLS-2005>
306.248565673828

> <r_mmod_Torsional_Energy-OPLS-2005>
228.43669128418

> <r_mmod_Improper_Torsional_Energy-OPLS-2005>
7.90929651260376

> <r_mmod_Van_der_Waal_Energy-OPLS-2005>
108.675827026367

> <r_mmod_Electrostatic_Energy-OPLS-2005>
-419.404541015625

> <r_mmod_Solvation_Energy-OPLS-2005>
-218.867294311523

> <b_mmod_Minimization_Converged-OPLS-2005>
0

> <r_mmod_RMS_Derivative-OPLS-2005>
6.90276575088501

$$$$
22
                    3D
 Structure written by MMmdl.
169177  0  0  1  0            999 V2000
  -30.5188  -15.0138   20.4232 C   0  0  0  0  0  0
  -30.4394  -12.6389   19.4947 C   0  0  0  0  0  0
  -29.5217  -12.5453   18.2556 C   0  0  0  0  0  0
  -28.0545  -12.3152   18.6686 C   0  0  0  0  0  0
  -27.6199  -13.2520   19.8275 C   0  0  2  0  0  0
  -28.6630  -13.3104   20.9614 C   0  0  0  0  0  0
  -25.2424  -13.8209   20.5704 C   0  0  0  0  0  0
  -24.1752  -13.0430   20.9239 C   0  0  0  0  0  0
  -24.6371  -11.6923   20.8734 C   0  0  0  0  0  0
  -23.9047  -10.4303   21.0378 C   0  0  0  0  0  0
  -24.3610   -9.4233   21.9155 C   0  0  0  0  0  0
  -23.6313   -8.2254   22.0724 C   0  0  0  0  0  0
  -22.4275   -8.0277   21.3544 C   0  0  0  0  0  0
  -21.9916   -9.0233   20.4618 C   0  0  0  0  0  0
  -22.7223  -10.2127   20.3026 C   0  0  0  0  0  0
  -21.6868   -6.0732   22.5283 C   0  0  0  0  0  0
  -21.4025   -6.5633   23.8220 C   0  0  0  0  0  0
  -21.3667   -5.6782   24.9176 C   0  0  0  0  0  0
  -21.6044   -4.3044   24.7231 C   0  0  0  0  0  0
  -21.8823   -3.8140   23.4351 C   0  0  0  0  0  0
  -21.9208   -4.6959   22.3404 C   0  0  0  0  0  0
  -22.7782  -13.5191   21.1923 C   0  0  0  0  0  0
  -22.1672   -4.2138   21.0989 F   0  0  0  0  0  0
  -21.5630   -3.4528   25.7747 F   0  0  0  0  0  0
  -29.9256  -13.7477   20.3518 N   0  0  0  0  0  0
  -26.2827  -12.9445   20.3183 N   0  0  0  0  0  0
  -25.9296  -11.6569   20.5690 N   0  0  0  0  0  0
  -22.0469  -12.8138   22.0470 N   0  0  0  0  0  0
  -25.4163  -15.1942   20.4154 N   0  0  0  0  0  0
  -31.7369  -15.0586   20.2182 O   0  0  0  0  0  0
  -21.6651   -6.8863   21.4240 O   0  0  0  0  0  0
  -22.3451  -14.5503   20.6788 O   0  0  0  0  0  0
  -24.6471  -31.8381   23.1832 C   0  0  0  0  0  0
  -25.9217  -32.4674   23.8238 C   0  0  1  0  0  0
  -27.2210  -27.0936   20.1592 C   0  0  0  0  0  0
  -25.5938  -33.8485   24.2159 N   0  0  0  0  0  0
  -23.4531  -30.4561   21.5295 C   0  0  2  0  0  0
  -24.9040  -28.8739   20.1085 C   0  0  0  0  0  0
  -22.7595  -29.4510   22.4827 C   0  0  0  0  0  0
  -18.0300  -28.1382   22.8488 C   0  0  0  0  0  0
  -24.1488  -36.7264   23.2645 C   0  0  0  0  0  0
  -26.0120  -30.7006   21.3846 C   0  0  0  0  0  0
  -26.0827  -29.3068   20.7285 C   0  0  0  0  0  0
  -27.2423  -28.4356   20.7308 C   0  0  0  0  0  0
  -26.0179  -26.7735   19.4920 C   0  0  0  0  0  0
  -24.8882  -27.6232   19.4701 C   0  0  0  0  0  0
  -23.6830  -29.7818   20.1508 C   0  0  0  0  0  0
  -25.4120  -36.3024   24.0313 C   0  0  1  0  0  0
  -20.5916  -28.3712   23.1226 C   0  0  2  0  0  0
  -20.6780  -26.9406   22.5403 C   0  0  0  0  0  0
  -19.5764  -26.6359   21.5207 C   0  0  0  0  0  0
  -18.1943  -26.7913   22.1621 C   0  0  0  0  0  0
  -19.1563  -28.8866   23.2847 C   0  0  0  0  0  0
  -18.9470  -30.1459   23.8886 C   0  0  0  0  0  0
  -17.6472  -30.6584   24.0546 C   0  0  0  0  0  0
  -25.9070  -34.9401   23.5054 C   0  0  0  0  0  0
  -16.5362  -29.9076   23.6331 C   0  0  0  0  0  0
  -16.7285  -28.6481   23.0373 C   0  0  0  0  0  0
  -26.4517  -31.6565   25.0702 C   0  0  0  0  0  0
  -25.3678  -31.3782   26.1382 C   0  0  0  0  0  0
  -27.0374  -30.2950   24.6314 C   0  0  0  0  0  0
  -27.6027  -32.4356   25.7499 C   0  0  0  0  0  0
  -27.5576  -37.1790   24.8458 C   0  0  0  0  0  0
  -21.4272  -29.3041   22.3602 N   0  0  0  0  0  0
  -26.4277  -37.3747   23.9408 N   0  0  0  0  0  0
  -24.7249  -31.0202   22.0872 N   0  0  0  0  0  0
  -23.4215  -28.8043   23.2974 O   0  0  0  0  0  0
  -28.2665  -26.0884   20.2549 O   0  0  0  0  0  0
  -26.5663  -34.8913   22.4635 O   0  0  0  0  0  0
  -23.5588  -32.1248   23.7055 O   0  0  0  0  0  0
  -29.1657  -19.6528   19.0363 C   0  0  0  0  0  0
  -29.3943  -20.4941   21.0132 C   0  0  0  0  0  0
  -29.5233  -19.2275   20.3580 C   0  0  0  0  0  0
  -28.9520  -21.0304   18.9341 C   0  0  0  0  0  0
  -30.7695  -23.1969   15.5507 C   0  0  0  0  0  0
  -30.1024  -17.7323   20.8912 C   0  0  0  0  0  0
  -29.3808  -21.2082   16.4260 C   0  0  0  0  0  0
  -29.0315  -23.2340   20.5722 C   0  0  0  0  0  0
  -29.8518  -21.4860   13.8960 C   0  0  0  0  0  0
  -28.0609  -24.5376   20.0138 C   0  0  0  0  0  0
  -28.7113  -21.8307   17.6831 C   0  0  1  0  0  0
  -29.6309  -22.1969   15.2559 C   0  0  2  0  0  0
  -29.0441  -21.6534   20.1918 N   0  0  0  0  0  0
  -29.7438  -16.2181   20.5297 N   0  0  0  0  0  0
  -30.9899  -20.5449   13.8994 N   0  3  0  0  0  0
  -27.2642  -22.0113   17.4898 N   0  3  0  0  0  0
  -31.4685  -12.8120   19.1740 H   0  0  0  0  0  0
  -30.4508  -11.6945   20.0434 H   0  0  0  0  0  0
  -29.8604  -11.7518   17.5897 H   0  0  0  0  0  0
  -29.5915  -13.4721   17.6843 H   0  0  0  0  0  0
  -27.9572  -11.2766   18.9856 H   0  0  0  0  0  0
  -27.3922  -12.4325   17.8092 H   0  0  0  0  0  0
  -27.5714  -14.2464   19.3857 H   0  0  0  0  0  0
  -28.7700  -12.3363   21.4437 H   0  0  0  0  0  0
  -28.3490  -14.0108   21.7356 H   0  0  0  0  0  0
  -25.2750   -9.5725   22.4732 H   0  0  0  0  0  0
  -24.0058   -7.4627   22.7414 H   0  0  0  0  0  0
  -21.0870   -8.8704   19.8901 H   0  0  0  0  0  0
  -22.3650  -10.9656   19.6132 H   0  0  0  0  0  0
  -21.2007   -7.6135   23.9711 H   0  0  0  0  0  0
  -21.1493   -6.0512   25.9079 H   0  0  0  0  0  0
  -22.0599   -2.7604   23.2845 H   0  0  0  0  0  0
  -22.4130  -11.9802   22.4839 H   0  0  0  0  0  0
  -21.1061  -13.1093   22.2669 H   0  0  0  0  0  0
  -24.6530  -15.8545   20.5151 H   0  0  0  0  0  0
  -26.2597  -15.6242   20.0612 H   0  0  0  0  0  0
  -26.7282  -32.5271   23.0969 H   0  0  0  0  0  0
  -25.0070  -33.9586   25.0298 H   0  0  0  0  0  0
  -22.7582  -31.2835   21.3724 H   0  0  0  0  0  0
  -23.3756  -35.9590   23.3275 H   0  0  0  0  0  0
  -24.3581  -36.8930   22.2066 H   0  0  0  0  0  0
  -23.7232  -37.6452   23.6701 H   0  0  0  0  0  0
  -26.1692  -31.4515   20.6087 H   0  0  0  0  0  0
  -26.8828  -30.7568   22.0253 H   0  0  0  0  0  0
  -28.1412  -28.7656   21.2328 H   0  0  0  0  0  0
  -25.9212  -25.8180   18.9970 H   0  0  0  0  0  0
  -23.9915  -27.2874   18.9655 H   0  0  0  0  0  0
  -23.8224  -30.5537   19.3932 H   0  0  0  0  0  0
  -22.7977  -29.2249   19.8420 H   0  0  0  0  0  0
  -25.1315  -36.1849   25.0807 H   0  0  0  0  0  0
  -21.0017  -28.3293   24.1340 H   0  0  0  0  0  0
  -20.5639  -26.2330   23.3624 H   0  0  0  0  0  0
  -21.6647  -26.7381   22.1224 H   0  0  0  0  0  0
  -19.6911  -25.6256   21.1269 H   0  0  0  0  0  0
  -19.6696  -27.3148   20.6720 H   0  0  0  0  0  0
  -17.4201  -26.6658   21.4026 H   0  0  0  0  0  0
  -18.0340  -26.0048   22.9018 H   0  0  0  0  0  0
  -19.7950  -30.7268   24.2253 H   0  0  0  0  0  0
  -17.5026  -31.6267   24.5142 H   0  0  0  0  0  0
  -15.5368  -30.2979   23.7647 H   0  0  0  0  0  0
  -15.8677  -28.0785   22.7123 H   0  0  0  0  0  0
  -24.5860  -30.7128   25.7706 H   0  0  0  0  0  0
  -24.8856  -32.2974   26.4726 H   0  0  0  0  0  0
  -25.7932  -30.9004   27.0214 H   0  0  0  0  0  0
  -26.2982  -29.6682   24.1313 H   0  0  0  0  0  0
  -27.3948  -29.7262   25.4912 H   0  0  0  0  0  0
  -27.8918  -30.4174   23.9650 H   0  0  0  0  0  0
  -27.2588  -33.3685   26.1997 H   0  0  0  0  0  0
  -28.3880  -32.6888   25.0356 H   0  0  0  0  0  0
  -28.0643  -31.8530   26.5487 H   0  0  0  0  0  0
  -28.2572  -38.0111   24.7529 H   0  0  0  0  0  0
  -28.1092  -36.2641   24.6247 H   0  0  0  0  0  0
  -27.2299  -37.1396   25.8862 H   0  0  0  0  0  0
  -20.9465  -29.8786   21.6825 H   0  0  0  0  0  0
  -26.0144  -38.2815   24.1420 H   0  0  0  0  0  0
  -29.1646  -18.9946   18.1778 H   0  0  0  0  0  0
  -29.6022  -20.6911   22.0571 H   0  0  0  0  0  0
  -30.6144  -23.7401   16.4823 H   0  0  0  0  0  0
  -30.8354  -23.9460   14.7630 H   0  0  0  0  0  0
  -31.7415  -22.7077   15.6262 H   0  0  0  0  0  0
  -29.9523  -17.7742   21.9708 H   0  0  0  0  0  0
  -31.1840  -17.8027   20.7803 H   0  0  0  0  0  0
  -28.7948  -20.3492   16.0953 H   0  0  0  0  0  0
  -30.3514  -20.8021   16.7191 H   0  0  0  0  0  0
  -28.9509  -23.2651   21.6595 H   0  0  0  0  0  0
  -30.0557  -23.5587   20.3924 H   0  0  0  0  0  0
  -30.0148  -22.2285   13.1123 H   0  0  0  0  0  0
  -28.9502  -20.9456   13.6040 H   0  0  0  0  0  0
  -27.0474  -24.3084   20.3483 H   0  0  0  0  0  0
  -28.0174  -24.4587   18.9290 H   0  0  0  0  0  0
  -29.1553  -22.8119   17.8371 H   0  0  0  0  0  0
  -28.7253  -22.7919   15.1288 H   0  0  0  0  0  0
  -28.7524  -16.0351   20.5537 H   0  0  0  0  0  0
  -31.8448  -21.0002   14.1639 H   0  0  0  0  0  0
  -31.1164  -20.1729   12.9748 H   0  0  0  0  0  0
  -30.8182  -19.7717   14.5162 H   0  0  0  0  0  0
  -26.8257  -21.1397   17.2572 H   0  0  0  0  0  0
  -27.0690  -22.6794   16.7642 H   0  0  0  0  0  0
  -26.8482  -22.3300   18.3454 H   0  0  0  0  0  0
  1 25  1  0  0  0
  1 30  2  0  0  0
  1 84  1  0  0  0
  2  3  1  0  0  0
  2 25  1  0  0  0
  2 87  1  0  0  0
  2 88  1  0  0  0
  3  4  1  0  0  0
  3 89  1  0  0  0
  3 90  1  0  0  0
  4  5  1  0  0  0
  4 91  1  0  0  0
  4 92  1  0  0  0
  5  6  1  0  0  0
  5 26  1  0  0  0
  5 93  1  0  0  0
  6 25  1  0  0  0
  6 94  1  0  0  0
  6 95  1  0  0  0
  7  8  2  0  0  0
  7 26  1  0  0  0
  7 29  1  0  0  0
  8  9  1  0  0  0
  8 22  1  0  0  0
  9 10  1  0  0  0
  9 27  2  0  0  0
 10 11  2  0  0  0
 10 15  1  0  0  0
 11 12  1  0  0  0
 11 96  1  0  0  0
 12 13  2  0  0  0
 12 97  1  0  0  0
 13 14  1  0  0  0
 13 31  1  0  0  0
 14 15  2  0  0  0
 14 98  1  0  0  0
 15 99  1  0  0  0
 16 17  2  0  0  0
 16 21  1  0  0  0
 16 31  1  0  0  0
 17 18  1  0  0  0
 17100  1  0  0  0
 18 19  2  0  0  0
 18101  1  0  0  0
 19 20  1  0  0  0
 19 24  1  0  0  0
 20 21  2  0  0  0
 20102  1  0  0  0
 21 23  1  0  0  0
 22 28  1  0  0  0
 22 32  2  0  0  0
 26 27  1  0  0  0
 28103  1  0  0  0
 28104  1  0  0  0
 29105  1  0  0  0
 29106  1  0  0  0
 33 34  1  0  0  0
 33 66  1  0  0  0
 33 70  2  0  0  0
 34 36  1  0  0  0
 34 59  1  0  0  0
 34107  1  0  0  0
 35 44  2  0  0  0
 35 45  1  0  0  0
 35 68  1  0  0  0
 36 56  1  0  0  0
 36108  1  0  0  0
 37 39  1  0  0  0
 37 47  1  0  0  0
 37 66  1  0  0  0
 37109  1  0  0  0
 38 43  2  0  0  0
 38 46  1  0  0  0
 38 47  1  0  0  0
 39 64  1  0  0  0
 39 67  2  0  0  0
 40 52  1  0  0  0
 40 53  2  0  0  0
 40 58  1  0  0  0
 41110  1  0  0  0
 41111  1  0  0  0
 41112  1  0  0  0
 41 48  1  0  0  0
 42 43  1  0  0  0
 42 66  1  0  0  0
 42113  1  0  0  0
 42114  1  0  0  0
 43 44  1  0  0  0
 44115  1  0  0  0
 45 46  2  0  0  0
 45116  1  0  0  0
 46117  1  0  0  0
 47118  1  0  0  0
 47119  1  0  0  0
 48 56  1  0  0  0
 48 65  1  0  0  0
 48120  1  0  0  0
 49 50  1  0  0  0
 49 53  1  0  0  0
 49 64  1  0  0  0
 49121  1  0  0  0
 50 51  1  0  0  0
 50122  1  0  0  0
 50123  1  0  0  0
 51 52  1  0  0  0
 51124  1  0  0  0
 51125  1  0  0  0
 52126  1  0  0  0
 52127  1  0  0  0
 53 54  1  0  0  0
 54 55  2  0  0  0
 54128  1  0  0  0
 55 57  1  0  0  0
 55129  1  0  0  0
 56 69  2  0  0  0
 57 58  2  0  0  0
 57130  1  0  0  0
 58131  1  0  0  0
 59 60  1  0  0  0
 59 61  1  0  0  0
 59 62  1  0  0  0
 60132  1  0  0  0
 60133  1  0  0  0
 60134  1  0  0  0
 61135  1  0  0  0
 61136  1  0  0  0
 61137  1  0  0  0
 62138  1  0  0  0
 62139  1  0  0  0
 62140  1  0  0  0
 63 65  1  0  0  0
 63141  1  0  0  0
 63142  1  0  0  0
 63143  1  0  0  0
 64144  1  0  0  0
 65145  1  0  0  0
 68 80  1  0  0  0
 71 73  1  0  0  0
 71 74  2  0  0  0
 71146  1  0  0  0
 72 73  2  0  0  0
 72 83  1  0  0  0
 72147  1  0  0  0
 73 76  1  0  0  0
 74 81  1  0  0  0
 74 83  1  0  0  0
 75148  1  0  0  0
 75149  1  0  0  0
 75150  1  0  0  0
 75 82  1  0  0  0
 76 84  1  0  0  0
 76151  1  0  0  0
 76152  1  0  0  0
 77 81  1  0  0  0
 77 82  1  0  0  0
 77153  1  0  0  0
 77154  1  0  0  0
 78 80  1  0  0  0
 78 83  1  0  0  0
 78155  1  0  0  0
 78156  1  0  0  0
 79 82  1  0  0  0
 79 85  1  0  0  0
 79157  1  0  0  0
 79158  1  0  0  0
 80159  1  0  0  0
 80160  1  0  0  0
 81 86  1  0  0  0
 81161  1  0  0  0
 82162  1  0  0  0
 84163  1  0  0  0
 85164  1  0  0  0
 85165  1  0  0  0
 85166  1  0  0  0
 86167  1  0  0  0
 86168  1  0  0  0
 86169  1  0  0  0
M  CHG  2  85   1  86   1
M  ISO  4   1 100  68 101  80 101  84 100
M  END
> <chiral flag>
0

> <version>
0

> <s_m_source_file>
/data/baiqing/PycharmProjects/Reinvent-master-3.2/result/LINK_invent/BTK/process_docking_weight1_custom_sum_contain_oxygen_bond_distance_aromatic_linkinvent_7_9_3/rearranged_h_0108.sdf

> <i_m_source_file_index>
23

> <r_mmod_Potential_Energy-OPLS-2005>
109.261428833008

> <r_mmod_Stretch_Energy-OPLS-2005>
317.004058837891

> <r_mmod_Bend_Energy-OPLS-2005>
313.184814453125

> <r_mmod_Torsional_Energy-OPLS-2005>
249.640533447266

> <r_mmod_Improper_Torsional_Energy-OPLS-2005>
7.0196795463562

> <r_mmod_Van_der_Waal_Energy-OPLS-2005>
106.832168579102

> <r_mmod_Electrostatic_Energy-OPLS-2005>
-73.7063598632812

> <r_mmod_Solvation_Energy-OPLS-2005>
-1049.95703125

> <b_mmod_Minimization_Converged-OPLS-2005>
0

> <r_mmod_RMS_Derivative-OPLS-2005>
3.58551073074341

$$$$
23
                    3D
 Structure written by MMmdl.
160168  0  0  1  0            999 V2000
  -30.3995  -15.3092   20.3863 C   0  0  0  0  0  0
  -30.4319  -12.8472   19.5311 C   0  0  0  0  0  0
  -29.5339  -12.5940   18.2922 C   0  0  0  0  0  0
  -28.0826  -12.3029   18.7131 C   0  0  0  0  0  0
  -27.5967  -13.2722   19.8184 C   0  0  2  0  0  0
  -28.6262  -13.4626   20.9538 C   0  0  0  0  0  0
  -25.2129  -13.7850   20.5568 C   0  0  0  0  0  0
  -24.1573  -13.0122   20.9306 C   0  0  0  0  0  0
  -24.6354  -11.6708   20.8812 C   0  0  0  0  0  0
  -23.9054  -10.4121   21.0437 C   0  0  0  0  0  0
  -24.3611   -9.4073   21.9227 C   0  0  0  0  0  0
  -23.6267   -8.2128   22.0780 C   0  0  0  0  0  0
  -22.4250   -8.0202   21.3551 C   0  0  0  0  0  0
  -21.9888   -9.0170   20.4648 C   0  0  0  0  0  0
  -22.7233  -10.2029   20.3066 C   0  0  0  0  0  0
  -21.6814   -6.0697   22.5278 C   0  0  0  0  0  0
  -21.3991   -6.5622   23.8208 C   0  0  0  0  0  0
  -21.3651   -5.6789   24.9182 C   0  0  0  0  0  0
  -21.6038   -4.3048   24.7231 C   0  0  0  0  0  0
  -21.8824   -3.8130   23.4355 C   0  0  0  0  0  0
  -21.9186   -4.6936   22.3408 C   0  0  0  0  0  0
  -22.7617  -13.4972   21.1942 C   0  0  0  0  0  0
  -22.1656   -4.2128   21.0983 F   0  0  0  0  0  0
  -21.5634   -3.4533   25.7746 F   0  0  0  0  0  0
  -29.8524  -13.9912   20.3319 N   0  0  0  0  0  0
  -26.2708  -12.9312   20.3180 N   0  0  0  0  0  0
  -25.9322  -11.6428   20.5799 N   0  0  0  0  0  0
  -22.0272  -12.8009   22.0540 N   0  0  0  0  0  0
  -25.3277  -15.1394   20.3606 N   0  0  0  0  0  0
  -31.6246  -15.3139   20.1895 O   0  0  0  0  0  0
  -21.6594   -6.8822   21.4233 O   0  0  0  0  0  0
  -22.3340  -14.5289   20.6775 O   0  0  0  0  0  0
  -24.6621  -31.8236   23.1716 C   0  0  0  0  0  0
  -25.9318  -32.4591   23.8192 C   0  0  1  0  0  0
  -27.2113  -26.9251   20.1976 C   0  0  0  0  0  0
  -25.6005  -33.8415   24.2119 N   0  0  0  0  0  0
  -23.4792  -30.4362   21.5158 C   0  0  2  0  0  0
  -24.9333  -28.8244   20.1094 C   0  0  0  0  0  0
  -22.7664  -29.4460   22.4734 C   0  0  0  0  0  0
  -18.0308  -28.1378   22.8521 C   0  0  0  0  0  0
  -24.1494  -36.7215   23.2644 C   0  0  0  0  0  0
  -26.0481  -30.6323   21.4015 C   0  0  0  0  0  0
  -26.1161  -29.2222   20.7456 C   0  0  0  0  0  0
  -27.2526  -28.2940   20.7613 C   0  0  0  0  0  0
  -25.9990  -26.6776   19.5147 C   0  0  0  0  0  0
  -24.9005  -27.5730   19.4727 C   0  0  0  0  0  0
  -23.7222  -29.7560   20.1403 C   0  0  0  0  0  0
  -25.4144  -36.2988   24.0299 C   0  0  1  0  0  0
  -20.5943  -28.3744   23.1104 C   0  0  2  0  0  0
  -20.6810  -26.9474   22.5210 C   0  0  0  0  0  0
  -19.5651  -26.6336   21.5190 C   0  0  0  0  0  0
  -18.1933  -26.7841   22.1823 C   0  0  0  0  0  0
  -19.1593  -28.8888   23.2786 C   0  0  0  0  0  0
  -18.9522  -30.1475   23.8834 C   0  0  0  0  0  0
  -17.6531  -30.6610   24.0547 C   0  0  0  0  0  0
  -25.9108  -34.9354   23.5027 C   0  0  0  0  0  0
  -16.5407  -29.9111   23.6341 C   0  0  0  0  0  0
  -16.7296  -28.6489   23.0421 C   0  0  0  0  0  0
  -26.4591  -31.6521   25.0709 C   0  0  0  0  0  0
  -25.3723  -31.3752   26.1366 C   0  0  0  0  0  0
  -27.0496  -30.2884   24.6442 C   0  0  0  0  0  0
  -27.6098  -32.4327   25.7529 C   0  0  0  0  0  0
  -27.5586  -37.1778   24.8474 C   0  0  0  0  0  0
  -21.4324  -29.3090   22.3514 N   0  0  0  0  0  0
  -26.4301  -37.3712   23.9400 N   0  0  0  0  0  0
  -24.7517  -30.9923   22.0836 N   0  0  0  0  0  0
  -23.4227  -28.8010   23.2944 O   0  0  0  0  0  0
  -28.2074  -25.8169   20.2872 O   0  0  0  0  0  0
  -26.5697  -34.8884   22.4602 O   0  0  0  0  0  0
  -23.5678  -32.1213   23.6786 O   0  0  0  0  0  0
  -26.8996  -21.1526   19.9084 C   0  0  0  0  0  0
  -26.2970  -19.9429   19.8313 C   0  0  0  0  0  0
  -27.2475  -18.9906   20.2904 C   0  0  0  0  0  0
  -28.5262  -19.5094   20.3371 C   0  0  0  0  0  0
  -26.8706  -17.5856   20.6025 C   0  0  0  0  0  0
  -24.9322  -19.1553   17.8871 C   0  0  0  0  0  0
  -23.8954  -20.8311   19.4735 C   0  0  0  0  0  0
  -29.7557  -18.2618   20.4738 C   0  0  0  0  0  0
  -28.8284  -22.6312   20.3951 C   0  0  0  0  0  0
  -27.9192  -24.1943   20.1662 C   0  0  0  0  0  0
  -24.8765  -19.6519   19.3409 C   0  0  0  0  0  0
  -28.2423  -21.0737   20.2570 N   0  0  0  0  0  0
  -29.6073  -16.5712   20.4688 N   0  0  0  0  0  0
  -31.4455  -13.0741   19.1939 H   0  0  0  0  0  0
  -30.5188  -11.9483   20.1424 H   0  0  0  0  0  0
  -29.9279  -11.7669   17.6993 H   0  0  0  0  0  0
  -29.5491  -13.4745   17.6488 H   0  0  0  0  0  0
  -28.0454  -11.2792   19.0867 H   0  0  0  0  0  0
  -27.4159  -12.3419   17.8508 H   0  0  0  0  0  0
  -27.4983  -14.2368   19.3183 H   0  0  0  0  0  0
  -28.8078  -12.5294   21.4906 H   0  0  0  0  0  0
  -28.2486  -14.1768   21.6876 H   0  0  0  0  0  0
  -25.2750   -9.5552   22.4817 H   0  0  0  0  0  0
  -23.9950   -7.4514   22.7510 H   0  0  0  0  0  0
  -21.0810   -8.8700   19.8952 H   0  0  0  0  0  0
  -22.3711  -10.9588   19.6180 H   0  0  0  0  0  0
  -21.1974   -7.6134   23.9700 H   0  0  0  0  0  0
  -21.1473   -6.0528   25.9085 H   0  0  0  0  0  0
  -22.0619   -2.7589   23.2862 H   0  0  0  0  0  0
  -22.3884  -11.9658   22.4904 H   0  0  0  0  0  0
  -21.0914  -13.1065   22.2773 H   0  0  0  0  0  0
  -24.5188  -15.7449   20.4406 H   0  0  0  0  0  0
  -26.1231  -15.5839   19.9290 H   0  0  0  0  0  0
  -26.7375  -32.5119   23.0894 H   0  0  0  0  0  0
  -25.0147  -33.9491   25.0274 H   0  0  0  0  0  0
  -22.7929  -31.2666   21.3424 H   0  0  0  0  0  0
  -23.3759  -35.9531   23.3284 H   0  0  0  0  0  0
  -24.3583  -36.8882   22.2065 H   0  0  0  0  0  0
  -23.7243  -37.6407   23.6709 H   0  0  0  0  0  0
  -26.2221  -31.3728   20.6206 H   0  0  0  0  0  0
  -26.9078  -30.6962   22.0574 H   0  0  0  0  0  0
  -28.1497  -28.5944   21.2850 H   0  0  0  0  0  0
  -25.8588  -25.7189   19.0355 H   0  0  0  0  0  0
  -24.0016  -27.2614   18.9619 H   0  0  0  0  0  0
  -23.8887  -30.5262   19.3838 H   0  0  0  0  0  0
  -22.8303  -29.2149   19.8172 H   0  0  0  0  0  0
  -25.1340  -36.1803   25.0789 H   0  0  0  0  0  0
  -21.0032  -28.3251   24.1208 H   0  0  0  0  0  0
  -20.5857  -26.2366   23.3411 H   0  0  0  0  0  0
  -21.6625  -26.7523   22.0845 H   0  0  0  0  0  0
  -19.6706  -25.6190   21.1356 H   0  0  0  0  0  0
  -19.6400  -27.3050   20.6625 H   0  0  0  0  0  0
  -17.4034  -26.6329   21.4467 H   0  0  0  0  0  0
  -18.0543  -26.0069   22.9367 H   0  0  0  0  0  0
  -19.7988  -30.7280   24.2245 H   0  0  0  0  0  0
  -17.5103  -31.6275   24.5205 H   0  0  0  0  0  0
  -15.5422  -30.3035   23.7687 H   0  0  0  0  0  0
  -15.8680  -28.0769   22.7263 H   0  0  0  0  0  0
  -24.5920  -30.7095   25.7653 H   0  0  0  0  0  0
  -24.8901  -32.2956   26.4686 H   0  0  0  0  0  0
  -25.7949  -30.8983   27.0218 H   0  0  0  0  0  0
  -26.3166  -29.6543   24.1441 H   0  0  0  0  0  0
  -27.4024  -29.7275   25.5109 H   0  0  0  0  0  0
  -27.9110  -30.4079   23.9858 H   0  0  0  0  0  0
  -27.2682  -33.3669   26.2005 H   0  0  0  0  0  0
  -28.3982  -32.6817   25.0408 H   0  0  0  0  0  0
  -28.0692  -31.8518   26.5545 H   0  0  0  0  0  0
  -28.2595  -38.0089   24.7517 H   0  0  0  0  0  0
  -28.1088  -36.2613   24.6300 H   0  0  0  0  0  0
  -27.2294  -37.1427   25.8877 H   0  0  0  0  0  0
  -20.9529  -29.8905   21.6787 H   0  0  0  0  0  0
  -26.0143  -38.2764   24.1387 H   0  0  0  0  0  0
  -26.4380  -22.1087   19.7105 H   0  0  0  0  0  0
  -25.8156  -17.5285   20.8611 H   0  0  0  0  0  0
  -27.3904  -17.2222   21.4900 H   0  0  0  0  0  0
  -27.0829  -16.9535   19.7398 H   0  0  0  0  0  0
  -25.5669  -18.2719   17.8005 H   0  0  0  0  0  0
  -25.3447  -19.9174   17.2246 H   0  0  0  0  0  0
  -23.9434  -18.8833   17.5149 H   0  0  0  0  0  0
  -23.7719  -21.1336   20.5131 H   0  0  0  0  0  0
  -22.9061  -20.5523   19.1070 H   0  0  0  0  0  0
  -24.2164  -21.7004   18.9024 H   0  0  0  0  0  0
  -30.2903  -18.4739   21.3975 H   0  0  0  0  0  0
  -30.4855  -18.4708   19.6926 H   0  0  0  0  0  0
  -29.2312  -22.6773   21.4059 H   0  0  0  0  0  0
  -29.7079  -22.6686   19.7532 H   0  0  0  0  0  0
  -27.0402  -24.0801   20.8015 H   0  0  0  0  0  0
  -27.5310  -24.1117   19.1521 H   0  0  0  0  0  0
  -24.4514  -18.8481   19.9417 H   0  0  0  0  0  0
  -28.6342  -16.3250   20.5496 H   0  0  0  0  0  0
  1 25  1  0  0  0
  1 30  2  0  0  0
  1 83  1  0  0  0
  2  3  1  0  0  0
  2 25  1  0  0  0
  2 84  1  0  0  0
  2 85  1  0  0  0
  3  4  1  0  0  0
  3 86  1  0  0  0
  3 87  1  0  0  0
  4  5  1  0  0  0
  4 88  1  0  0  0
  4 89  1  0  0  0
  5  6  1  0  0  0
  5 26  1  0  0  0
  5 90  1  0  0  0
  6 25  1  0  0  0
  6 91  1  0  0  0
  6 92  1  0  0  0
  7  8  2  0  0  0
  7 26  1  0  0  0
  7 29  1  0  0  0
  8  9  1  0  0  0
  8 22  1  0  0  0
  9 10  1  0  0  0
  9 27  2  0  0  0
 10 11  2  0  0  0
 10 15  1  0  0  0
 11 12  1  0  0  0
 11 93  1  0  0  0
 12 13  2  0  0  0
 12 94  1  0  0  0
 13 14  1  0  0  0
 13 31  1  0  0  0
 14 15  2  0  0  0
 14 95  1  0  0  0
 15 96  1  0  0  0
 16 17  2  0  0  0
 16 21  1  0  0  0
 16 31  1  0  0  0
 17 18  1  0  0  0
 17 97  1  0  0  0
 18 19  2  0  0  0
 18 98  1  0  0  0
 19 20  1  0  0  0
 19 24  1  0  0  0
 20 21  2  0  0  0
 20 99  1  0  0  0
 21 23  1  0  0  0
 22 28  1  0  0  0
 22 32  2  0  0  0
 26 27  1  0  0  0
 28100  1  0  0  0
 28101  1  0  0  0
 29102  1  0  0  0
 29103  1  0  0  0
 33 34  1  0  0  0
 33 66  1  0  0  0
 33 70  2  0  0  0
 34 36  1  0  0  0
 34 59  1  0  0  0
 34104  1  0  0  0
 35 44  2  0  0  0
 35 45  1  0  0  0
 35 68  1  0  0  0
 36 56  1  0  0  0
 36105  1  0  0  0
 37 39  1  0  0  0
 37 47  1  0  0  0
 37 66  1  0  0  0
 37106  1  0  0  0
 38 43  2  0  0  0
 38 46  1  0  0  0
 38 47  1  0  0  0
 39 64  1  0  0  0
 39 67  2  0  0  0
 40 52  1  0  0  0
 40 53  2  0  0  0
 40 58  1  0  0  0
 41107  1  0  0  0
 41108  1  0  0  0
 41109  1  0  0  0
 41 48  1  0  0  0
 42 43  1  0  0  0
 42 66  1  0  0  0
 42110  1  0  0  0
 42111  1  0  0  0
 43 44  1  0  0  0
 44112  1  0  0  0
 45 46  2  0  0  0
 45113  1  0  0  0
 46114  1  0  0  0
 47115  1  0  0  0
 47116  1  0  0  0
 48 56  1  0  0  0
 48 65  1  0  0  0
 48117  1  0  0  0
 49 50  1  0  0  0
 49 53  1  0  0  0
 49 64  1  0  0  0
 49118  1  0  0  0
 50 51  1  0  0  0
 50119  1  0  0  0
 50120  1  0  0  0
 51 52  1  0  0  0
 51121  1  0  0  0
 51122  1  0  0  0
 52123  1  0  0  0
 52124  1  0  0  0
 53 54  1  0  0  0
 54 55  2  0  0  0
 54125  1  0  0  0
 55 57  1  0  0  0
 55126  1  0  0  0
 56 69  2  0  0  0
 57 58  2  0  0  0
 57127  1  0  0  0
 58128  1  0  0  0
 59 60  1  0  0  0
 59 61  1  0  0  0
 59 62  1  0  0  0
 60129  1  0  0  0
 60130  1  0  0  0
 60131  1  0  0  0
 61132  1  0  0  0
 61133  1  0  0  0
 61134  1  0  0  0
 62135  1  0  0  0
 62136  1  0  0  0
 62137  1  0  0  0
 63 65  1  0  0  0
 63138  1  0  0  0
 63139  1  0  0  0
 63140  1  0  0  0
 64141  1  0  0  0
 65142  1  0  0  0
 68 80  1  0  0  0
 71 72  2  0  0  0
 71 82  1  0  0  0
 71143  1  0  0  0
 72 73  1  0  0  0
 72 81  1  0  0  0
 73 74  2  0  0  0
 73 75  1  0  0  0
 74 78  1  0  0  0
 74 82  1  0  0  0
 75144  1  0  0  0
 75145  1  0  0  0
 75146  1  0  0  0
 76147  1  0  0  0
 76148  1  0  0  0
 76149  1  0  0  0
 76 81  1  0  0  0
 77 81  1  0  0  0
 77150  1  0  0  0
 77151  1  0  0  0
 77152  1  0  0  0
 78 83  1  0  0  0
 78153  1  0  0  0
 78154  1  0  0  0
 79 80  1  0  0  0
 79 82  1  0  0  0
 79155  1  0  0  0
 79156  1  0  0  0
 80157  1  0  0  0
 80158  1  0  0  0
 81159  1  0  0  0
 83160  1  0  0  0
M  ISO  4   1 100  68 101  80 101  83 100
M  END
> <chiral flag>
0

> <version>
0

> <s_m_source_file>
/data/baiqing/PycharmProjects/Reinvent-master-3.2/result/LINK_invent/BTK/process_docking_weight1_custom_sum_contain_oxygen_bond_distance_aromatic_linkinvent_7_9_3/rearranged_h_0108.sdf

> <i_m_source_file_index>
24

> <r_mmod_Potential_Energy-OPLS-2005>
1392.72692871094

> <r_mmod_Stretch_Energy-OPLS-2005>
665.695678710938

> <r_mmod_Bend_Energy-OPLS-2005>
507.007293701172

> <r_mmod_Torsional_Energy-OPLS-2005>
235.574935913086

> <r_mmod_Improper_Torsional_Energy-OPLS-2005>
4.46203327178955

> <r_mmod_Van_der_Waal_Energy-OPLS-2005>
126.207290649414

> <r_mmod_Electrostatic_Energy-OPLS-2005>
-427.532409667969

> <r_mmod_Solvation_Energy-OPLS-2005>
-212.877838134766

> <b_mmod_Minimization_Converged-OPLS-2005>
0

> <r_mmod_RMS_Derivative-OPLS-2005>
4.31009960174561

$$$$
24
                    3D
 Structure written by MMmdl.
153161  0  0  1  0            999 V2000
  -30.4679  -15.2045   20.3907 C   0  0  0  0  0  0
  -30.4363  -12.7696   19.5224 C   0  0  0  0  0  0
  -29.5302  -12.5616   18.2834 C   0  0  0  0  0  0
  -28.0782  -12.2946   18.7140 C   0  0  0  0  0  0
  -27.6136  -13.2683   19.8258 C   0  0  2  0  0  0
  -28.6477  -13.4251   20.9609 C   0  0  0  0  0  0
  -25.2397  -13.8234   20.5747 C   0  0  0  0  0  0
  -24.1745  -13.0433   20.9253 C   0  0  0  0  0  0
  -24.6397  -11.6927   20.8770 C   0  0  0  0  0  0
  -23.9095  -10.4292   21.0417 C   0  0  0  0  0  0
  -24.3652   -9.4196   21.9177 C   0  0  0  0  0  0
  -23.6325   -8.2233   22.0738 C   0  0  0  0  0  0
  -22.4293   -8.0286   21.3547 C   0  0  0  0  0  0
  -21.9941   -9.0257   20.4641 C   0  0  0  0  0  0
  -22.7276  -10.2131   20.3052 C   0  0  0  0  0  0
  -21.6853   -6.0753   22.5286 C   0  0  0  0  0  0
  -21.4015   -6.5658   23.8223 C   0  0  0  0  0  0
  -21.3646   -5.6808   24.9180 C   0  0  0  0  0  0
  -21.6035   -4.3071   24.7234 C   0  0  0  0  0  0
  -21.8820   -3.8161   23.4357 C   0  0  0  0  0  0
  -21.9201   -4.6981   22.3413 C   0  0  0  0  0  0
  -22.7767  -13.5182   21.1911 C   0  0  0  0  0  0
  -22.1669   -4.2171   21.0994 F   0  0  0  0  0  0
  -21.5616   -3.4545   25.7742 F   0  0  0  0  0  0
  -29.8872  -13.9115   20.3369 N   0  0  0  0  0  0
  -26.2822  -12.9495   20.3235 N   0  0  0  0  0  0
  -25.9328  -11.6606   20.5733 N   0  0  0  0  0  0
  -22.0459  -12.8137   22.0472 N   0  0  0  0  0  0
  -25.4029  -15.1966   20.4183 N   0  0  0  0  0  0
  -31.6884  -15.2013   20.1793 O   0  0  0  0  0  0
  -21.6643   -6.8891   21.4248 O   0  0  0  0  0  0
  -22.3437  -14.5489   20.6767 O   0  0  0  0  0  0
  -24.6596  -31.8276   23.1758 C   0  0  0  0  0  0
  -25.9301  -32.4608   23.8197 C   0  0  1  0  0  0
  -27.2144  -26.9708   20.1742 C   0  0  0  0  0  0
  -25.5990  -33.8424   24.2111 N   0  0  0  0  0  0
  -23.4716  -30.4434   21.5224 C   0  0  2  0  0  0
  -24.9246  -28.8434   20.1078 C   0  0  0  0  0  0
  -22.7642  -29.4472   22.4779 C   0  0  0  0  0  0
  -18.0304  -28.1433   22.8482 C   0  0  0  0  0  0
  -24.1456  -36.7164   23.2645 C   0  0  0  0  0  0
  -26.0386  -30.6483   21.4010 C   0  0  0  0  0  0
  -26.1059  -29.2429   20.7437 C   0  0  0  0  0  0
  -27.2455  -28.3260   20.7592 C   0  0  0  0  0  0
  -26.0089  -26.7230   19.4783 C   0  0  0  0  0  0
  -24.9002  -27.6015   19.4550 C   0  0  0  0  0  0
  -23.7098  -29.7656   20.1452 C   0  0  0  0  0  0
  -25.4096  -36.2963   24.0318 C   0  0  1  0  0  0
  -20.5937  -28.3754   23.1188 C   0  0  2  0  0  0
  -20.6780  -26.9442   22.5409 C   0  0  0  0  0  0
  -19.5752  -26.6404   21.5217 C   0  0  0  0  0  0
  -18.1929  -26.7971   22.1621 C   0  0  0  0  0  0
  -19.1580  -28.8914   23.2823 C   0  0  0  0  0  0
  -18.9500  -30.1507   23.8853 C   0  0  0  0  0  0
  -17.6503  -30.6626   24.0575 C   0  0  0  0  0  0
  -25.9086  -34.9362   23.5024 C   0  0  0  0  0  0
  -16.5382  -29.9125   23.6369 C   0  0  0  0  0  0
  -16.7296  -28.6552   23.0374 C   0  0  0  0  0  0
  -26.4583  -31.6550   25.0702 C   0  0  0  0  0  0
  -25.3757  -31.3810   26.1398 C   0  0  0  0  0  0
  -27.0475  -30.2915   24.6420 C   0  0  0  0  0  0
  -27.6078  -32.4350   25.7504 C   0  0  0  0  0  0
  -27.5536  -37.1717   24.8468 C   0  0  0  0  0  0
  -21.4322  -29.3047   22.3517 N   0  0  0  0  0  0
  -26.4214  -37.3723   23.9460 N   0  0  0  0  0  0
  -24.7442  -30.9982   22.0867 N   0  0  0  0  0  0
  -23.4216  -28.8033   23.3004 O   0  0  0  0  0  0
  -28.2023  -25.8668   20.2668 O   0  0  0  0  0  0
  -26.5670  -34.8907   22.4602 O   0  0  0  0  0  0
  -23.5678  -32.1223   23.6881 O   0  0  0  0  0  0
  -29.9488  -20.6831   19.4184 C   0  0  0  0  0  0
  -28.4956  -20.3957   21.1541 C   0  0  0  0  0  0
  -29.5707  -22.1143   19.3483 C   0  0  0  0  0  0
  -29.4413  -19.6602   20.3216 C   0  0  0  0  0  0
  -28.6123  -22.7554   20.2283 C   0  0  0  0  0  0
  -29.9798  -22.6702   17.0015 C   0  0  0  0  0  0
  -30.2021  -22.9316   18.3025 C   0  0  0  0  0  0
  -31.1362  -24.0385   18.7673 C   0  0  0  0  0  0
  -30.1570  -18.0714   20.4721 C   0  0  0  0  0  0
  -27.8407  -24.3015   19.9979 C   0  0  0  0  0  0
  -28.1095  -21.7717   21.0947 N   0  0  0  0  0  0
  -29.7241  -16.4762   20.4819 N   0  0  0  0  0  0
  -31.4585  -12.9638   19.1946 H   0  0  0  0  0  0
  -30.4894  -11.8582   20.1206 H   0  0  0  0  0  0
  -29.9016  -11.7353   17.6753 H   0  0  0  0  0  0
  -29.5656  -13.4493   17.6503 H   0  0  0  0  0  0
  -28.0296  -11.2697   19.0825 H   0  0  0  0  0  0
  -27.4082  -12.3438   17.8552 H   0  0  0  0  0  0
  -27.5358  -14.2389   19.3343 H   0  0  0  0  0  0
  -28.8025  -12.4865   21.4956 H   0  0  0  0  0  0
  -28.2963  -14.1504   21.6972 H   0  0  0  0  0  0
  -25.2801   -9.5663   22.4743 H   0  0  0  0  0  0
  -24.0044   -7.4608   22.7435 H   0  0  0  0  0  0
  -21.0873   -8.8780   19.8942 H   0  0  0  0  0  0
  -22.3741  -10.9673   19.6161 H   0  0  0  0  0  0
  -21.2005   -7.6168   23.9733 H   0  0  0  0  0  0
  -21.1454   -6.0536   25.9085 H   0  0  0  0  0  0
  -22.0608   -2.7628   23.2849 H   0  0  0  0  0  0
  -22.4152  -11.9821   22.4842 H   0  0  0  0  0  0
  -21.1054  -13.1074   22.2692 H   0  0  0  0  0  0
  -24.6260  -15.8410   20.5146 H   0  0  0  0  0  0
  -26.2455  -15.6414   20.0790 H   0  0  0  0  0  0
  -26.7364  -32.5172   23.0911 H   0  0  0  0  0  0
  -25.0162  -33.9525   25.0278 H   0  0  0  0  0  0
  -22.7844  -31.2758   21.3564 H   0  0  0  0  0  0
  -23.3755  -35.9454   23.3276 H   0  0  0  0  0  0
  -24.3541  -36.8834   22.2067 H   0  0  0  0  0  0
  -23.7174  -37.6325   23.6712 H   0  0  0  0  0  0
  -26.2131  -31.3931   20.6232 H   0  0  0  0  0  0
  -26.9023  -30.7015   22.0525 H   0  0  0  0  0  0
  -28.1337  -28.6271   21.2950 H   0  0  0  0  0  0
  -25.8807  -25.7814   18.9651 H   0  0  0  0  0  0
  -24.0051  -27.2916   18.9326 H   0  0  0  0  0  0
  -23.8646  -30.5395   19.3928 H   0  0  0  0  0  0
  -22.8209  -29.2211   19.8221 H   0  0  0  0  0  0
  -25.1292  -36.1721   25.0807 H   0  0  0  0  0  0
  -21.0033  -28.3363   24.1307 H   0  0  0  0  0  0
  -20.5607  -26.2398   23.3661 H   0  0  0  0  0  0
  -21.6646  -26.7404   22.1228 H   0  0  0  0  0  0
  -19.6896  -25.6303   21.1261 H   0  0  0  0  0  0
  -19.6672  -27.3200   20.6740 H   0  0  0  0  0  0
  -17.4193  -26.6732   21.4025 H   0  0  0  0  0  0
  -18.0301  -26.0130   22.9036 H   0  0  0  0  0  0
  -19.7986  -30.7336   24.2179 H   0  0  0  0  0  0
  -17.5072  -31.6297   24.5189 H   0  0  0  0  0  0
  -15.5382  -30.3022   23.7741 H   0  0  0  0  0  0
  -15.8696  -28.0875   22.7106 H   0  0  0  0  0  0
  -24.5954  -30.7113   25.7772 H   0  0  0  0  0  0
  -24.8926  -32.3021   26.4671 H   0  0  0  0  0  0
  -25.8046  -30.9126   27.0270 H   0  0  0  0  0  0
  -26.3155  -29.6598   24.1368 H   0  0  0  0  0  0
  -27.3962  -29.7268   25.5076 H   0  0  0  0  0  0
  -27.9127  -30.4109   23.9894 H   0  0  0  0  0  0
  -27.2652  -33.3713   26.1940 H   0  0  0  0  0  0
  -28.3979  -32.6804   25.0393 H   0  0  0  0  0  0
  -28.0650  -31.8556   26.5541 H   0  0  0  0  0  0
  -28.2531  -38.0031   24.7553 H   0  0  0  0  0  0
  -28.1043  -36.2567   24.6220 H   0  0  0  0  0  0
  -27.2286  -37.1299   25.8878 H   0  0  0  0  0  0
  -20.9539  -29.8760   21.6683 H   0  0  0  0  0  0
  -26.0037  -38.2750   24.1560 H   0  0  0  0  0  0
  -30.7141  -20.3622   18.7260 H   0  0  0  0  0  0
  -28.0204  -19.8570   21.9611 H   0  0  0  0  0  0
  -29.3223  -21.8673   16.6915 H   0  0  0  0  0  0
  -30.4433  -23.2492   16.2143 H   0  0  0  0  0  0
  -30.6036  -24.7939   19.3452 H   0  0  0  0  0  0
  -31.6118  -24.5422   17.9264 H   0  0  0  0  0  0
  -31.9281  -23.6325   19.4004 H   0  0  0  0  0  0
  -30.7169  -18.1623   21.4044 H   0  0  0  0  0  0
  -30.9376  -18.0875   19.7115 H   0  0  0  0  0  0
  -26.8593  -24.1709   20.4520 H   0  0  0  0  0  0
  -27.6384  -24.2889   18.9265 H   0  0  0  0  0  0
  -28.7343  -16.3278   20.6111 H   0  0  0  0  0  0
  1 25  1  0  0  0
  1 30  2  0  0  0
  1 82  1  0  0  0
  2  3  1  0  0  0
  2 25  1  0  0  0
  2 83  1  0  0  0
  2 84  1  0  0  0
  3  4  1  0  0  0
  3 85  1  0  0  0
  3 86  1  0  0  0
  4  5  1  0  0  0
  4 87  1  0  0  0
  4 88  1  0  0  0
  5  6  1  0  0  0
  5 26  1  0  0  0
  5 89  1  0  0  0
  6 25  1  0  0  0
  6 90  1  0  0  0
  6 91  1  0  0  0
  7  8  2  0  0  0
  7 26  1  0  0  0
  7 29  1  0  0  0
  8  9  1  0  0  0
  8 22  1  0  0  0
  9 10  1  0  0  0
  9 27  2  0  0  0
 10 11  2  0  0  0
 10 15  1  0  0  0
 11 12  1  0  0  0
 11 92  1  0  0  0
 12 13  2  0  0  0
 12 93  1  0  0  0
 13 14  1  0  0  0
 13 31  1  0  0  0
 14 15  2  0  0  0
 14 94  1  0  0  0
 15 95  1  0  0  0
 16 17  2  0  0  0
 16 21  1  0  0  0
 16 31  1  0  0  0
 17 18  1  0  0  0
 17 96  1  0  0  0
 18 19  2  0  0  0
 18 97  1  0  0  0
 19 20  1  0  0  0
 19 24  1  0  0  0
 20 21  2  0  0  0
 20 98  1  0  0  0
 21 23  1  0  0  0
 22 28  1  0  0  0
 22 32  2  0  0  0
 26 27  1  0  0  0
 28 99  1  0  0  0
 28100  1  0  0  0
 29101  1  0  0  0
 29102  1  0  0  0
 33 34  1  0  0  0
 33 66  1  0  0  0
 33 70  2  0  0  0
 34 36  1  0  0  0
 34 59  1  0  0  0
 34103  1  0  0  0
 35 44  2  0  0  0
 35 45  1  0  0  0
 35 68  1  0  0  0
 36 56  1  0  0  0
 36104  1  0  0  0
 37 39  1  0  0  0
 37 47  1  0  0  0
 37 66  1  0  0  0
 37105  1  0  0  0
 38 43  2  0  0  0
 38 46  1  0  0  0
 38 47  1  0  0  0
 39 64  1  0  0  0
 39 67  2  0  0  0
 40 52  1  0  0  0
 40 53  2  0  0  0
 40 58  1  0  0  0
 41106  1  0  0  0
 41107  1  0  0  0
 41108  1  0  0  0
 41 48  1  0  0  0
 42 43  1  0  0  0
 42 66  1  0  0  0
 42109  1  0  0  0
 42110  1  0  0  0
 43 44  1  0  0  0
 44111  1  0  0  0
 45 46  2  0  0  0
 45112  1  0  0  0
 46113  1  0  0  0
 47114  1  0  0  0
 47115  1  0  0  0
 48 56  1  0  0  0
 48 65  1  0  0  0
 48116  1  0  0  0
 49 50  1  0  0  0
 49 53  1  0  0  0
 49 64  1  0  0  0
 49117  1  0  0  0
 50 51  1  0  0  0
 50118  1  0  0  0
 50119  1  0  0  0
 51 52  1  0  0  0
 51120  1  0  0  0
 51121  1  0  0  0
 52122  1  0  0  0
 52123  1  0  0  0
 53 54  1  0  0  0
 54 55  2  0  0  0
 54124  1  0  0  0
 55 57  1  0  0  0
 55125  1  0  0  0
 56 69  2  0  0  0
 57 58  2  0  0  0
 57126  1  0  0  0
 58127  1  0  0  0
 59 60  1  0  0  0
 59 61  1  0  0  0
 59 62  1  0  0  0
 60128  1  0  0  0
 60129  1  0  0  0
 60130  1  0  0  0
 61131  1  0  0  0
 61132  1  0  0  0
 61133  1  0  0  0
 62134  1  0  0  0
 62135  1  0  0  0
 62136  1  0  0  0
 63 65  1  0  0  0
 63137  1  0  0  0
 63138  1  0  0  0
 63139  1  0  0  0
 64140  1  0  0  0
 65141  1  0  0  0
 68 80  1  0  0  0
 71 73  2  0  0  0
 71 74  1  0  0  0
 71142  1  0  0  0
 72 74  2  0  0  0
 72 81  1  0  0  0
 72143  1  0  0  0
 73 75  1  0  0  0
 73 77  1  0  0  0
 74 79  1  0  0  0
 75 80  1  0  0  0
 75 81  2  0  0  0
 76 77  2  0  0  0
 76144  1  0  0  0
 76145  1  0  0  0
 77 78  1  0  0  0
 78146  1  0  0  0
 78147  1  0  0  0
 78148  1  0  0  0
 79 82  1  0  0  0
 79149  1  0  0  0
 79150  1  0  0  0
 80151  1  0  0  0
 80152  1  0  0  0
 82153  1  0  0  0
M  ISO  4   1 100  68 101  80 101  82 100
M  END
> <chiral flag>
0

> <version>
0

> <s_m_source_file>
/data/baiqing/PycharmProjects/Reinvent-master-3.2/result/LINK_invent/BTK/process_docking_weight1_custom_sum_contain_oxygen_bond_distance_aromatic_linkinvent_7_9_3/rearranged_h_0108.sdf

> <i_m_source_file_index>
25

> <r_mmod_Potential_Energy-OPLS-2005>
1026.681640625

> <r_mmod_Stretch_Energy-OPLS-2005>
468.221282958984

> <r_mmod_Bend_Energy-OPLS-2005>
429.213806152344

> <r_mmod_Torsional_Energy-OPLS-2005>
238.151779174805

> <r_mmod_Improper_Torsional_Energy-OPLS-2005>
8.95687866210938

> <r_mmod_Van_der_Waal_Energy-OPLS-2005>
131.329574584961

> <r_mmod_Electrostatic_Energy-OPLS-2005>
-425.936981201172

> <r_mmod_Solvation_Energy-OPLS-2005>
-224.42350769043

> <b_mmod_Minimization_Converged-OPLS-2005>
0

> <r_mmod_RMS_Derivative-OPLS-2005>
2.47286319732666

$$$$
25
                    3D
 Structure written by MMmdl.
167175  0  0  1  0            999 V2000
  -30.6644  -14.6380   20.4988 C   0  0  0  0  0  0
  -30.4294  -12.3941   19.4498 C   0  0  0  0  0  0
  -29.5044  -12.4603   18.2192 C   0  0  0  0  0  0
  -28.0329  -12.3015   18.6468 C   0  0  0  0  0  0
  -27.6462  -13.2139   19.8415 C   0  0  2  0  0  0
  -28.6885  -13.1336   20.9758 C   0  0  0  0  0  0
  -25.2541  -13.8145   20.5613 C   0  0  0  0  0  0
  -24.1826  -13.0440   20.9248 C   0  0  0  0  0  0
  -24.6396  -11.6912   20.8798 C   0  0  0  0  0  0
  -23.9078  -10.4302   21.0460 C   0  0  0  0  0  0
  -24.3640   -9.4209   21.9215 C   0  0  0  0  0  0
  -23.6288   -8.2257   22.0768 C   0  0  0  0  0  0
  -22.4283   -8.0292   21.3549 C   0  0  0  0  0  0
  -21.9927   -9.0289   20.4688 C   0  0  0  0  0  0
  -22.7264  -10.2153   20.3095 C   0  0  0  0  0  0
  -21.6858   -6.0729   22.5279 C   0  0  0  0  0  0
  -21.4003   -6.5624   23.8210 C   0  0  0  0  0  0
  -21.3658   -5.6776   24.9171 C   0  0  0  0  0  0
  -21.6050   -4.3042   24.7223 C   0  0  0  0  0  0
  -21.8815   -3.8138   23.4340 C   0  0  0  0  0  0
  -21.9196   -4.6952   22.3395 C   0  0  0  0  0  0
  -22.7866  -13.5279   21.1848 C   0  0  0  0  0  0
  -22.1671   -4.2137   21.0971 F   0  0  0  0  0  0
  -21.5645   -3.4525   25.7740 F   0  0  0  0  0  0
  -29.9982  -13.4471   20.3912 N   0  0  0  0  0  0
  -26.2964  -12.9328   20.3242 N   0  0  0  0  0  0
  -25.9320  -11.6492   20.5776 N   0  0  0  0  0  0
  -22.0492  -12.8301   22.0410 N   0  0  0  0  0  0
  -25.4188  -15.1833   20.3749 N   0  0  0  0  0  0
  -31.8520  -14.7293   20.1801 O   0  0  0  0  0  0
  -21.6641   -6.8890   21.4246 O   0  0  0  0  0  0
  -22.3603  -14.5590   20.6673 O   0  0  0  0  0  0
  -24.6211  -31.8612   23.2092 C   0  0  0  0  0  0
  -25.9073  -32.4795   23.8392 C   0  0  1  0  0  0
  -27.2335  -27.3587   20.1368 C   0  0  0  0  0  0
  -25.5916  -33.8589   24.2325 N   0  0  0  0  0  0
  -23.4176  -30.4860   21.5452 C   0  0  2  0  0  0
  -24.8733  -28.9501   20.1165 C   0  0  0  0  0  0
  -22.7480  -29.4597   22.4901 C   0  0  0  0  0  0
  -18.0294  -28.1387   22.8369 C   0  0  0  0  0  0
  -24.1492  -36.7298   23.2624 C   0  0  0  0  0  0
  -25.9572  -30.8119   21.3733 C   0  0  0  0  0  0
  -26.0386  -29.4414   20.7211 C   0  0  0  0  0  0
  -27.2262  -28.6581   20.7186 C   0  0  0  0  0  0
  -26.0525  -26.9079   19.5073 C   0  0  0  0  0  0
  -24.8793  -27.6861   19.5034 C   0  0  0  0  0  0
  -23.6416  -29.8304   20.1580 C   0  0  0  0  0  0
  -25.4110  -36.3098   24.0327 C   0  0  1  0  0  0
  -20.5890  -28.3659   23.1245 C   0  0  2  0  0  0
  -20.6826  -26.9430   22.5251 C   0  0  0  0  0  0
  -19.5822  -26.6514   21.5028 C   0  0  0  0  0  0
  -18.1967  -26.7990   22.1401 C   0  0  0  0  0  0
  -19.1537  -28.8822   23.2847 C   0  0  0  0  0  0
  -18.9435  -30.1373   23.8952 C   0  0  0  0  0  0
  -17.6431  -30.6528   24.0606 C   0  0  0  0  0  0
  -25.9054  -34.9460   23.5127 C   0  0  0  0  0  0
  -16.5345  -29.9042   23.6321 C   0  0  0  0  0  0
  -16.7277  -28.6504   23.0242 C   0  0  0  0  0  0
  -26.4499  -31.6622   25.0749 C   0  0  0  0  0  0
  -25.3734  -31.3776   26.1485 C   0  0  0  0  0  0
  -27.0308  -30.3049   24.6178 C   0  0  0  0  0  0
  -27.6123  -32.4315   25.7494 C   0  0  0  0  0  0
  -27.5579  -37.1798   24.8465 C   0  0  0  0  0  0
  -21.4194  -29.3043   22.3702 N   0  0  0  0  0  0
  -26.4289  -37.3784   23.9408 N   0  0  0  0  0  0
  -24.6834  -31.0661   22.1021 N   0  0  0  0  0  0
  -23.4219  -28.8069   23.2925 O   0  0  0  0  0  0
  -28.3468  -26.5146   20.1963 O   0  0  0  0  0  0
  -26.5625  -34.8929   22.4690 O   0  0  0  0  0  0
  -23.5369  -32.1402   23.7401 O   0  0  0  0  0  0
  -28.2611  -20.3710   21.1761 C   0  0  0  0  0  0
  -30.5943  -19.4551   20.0525 C   0  0  0  0  0  0
  -29.8531  -18.5086   20.8248 C   0  0  0  0  0  0
  -28.6419  -19.0038   21.4007 C   0  0  0  0  0  0
  -29.0402  -21.2608   20.3941 C   0  0  0  0  0  0
  -27.1118  -19.0059   24.3677 C   0  0  0  0  0  0
  -25.6425  -17.4333   23.0271 C   0  0  0  0  0  0
  -28.1109  -25.4791   22.3746 C   0  0  0  0  0  0
  -30.5123  -17.1095   21.1700 C   0  0  0  0  0  0
  -28.5142  -22.6835   19.9876 C   0  0  0  0  0  0
  -29.1530  -24.0260   20.5404 C   0  0  0  0  0  0
  -26.6915  -18.5531   22.9641 C   0  0  0  0  0  0
  -28.1366  -25.2129   20.8546 C   0  0  2  0  0  0
  -30.1795  -20.7472   19.8682 N   0  3  0  0  0  0
  -27.8495  -18.1321   22.1751 N   0  0  0  0  0  0
  -29.9388  -15.7607   20.8040 N   0  0  0  0  0  0
  -31.4690  -12.5168   19.1395 H   0  0  0  0  0  0
  -30.3700  -11.4099   19.9195 H   0  0  0  0  0  0
  -29.7676  -11.6672   17.5159 H   0  0  0  0  0  0
  -29.6494  -13.4008   17.6845 H   0  0  0  0  0  0
  -27.8990  -11.2564   18.9329 H   0  0  0  0  0  0
  -27.3670  -12.4698   17.8013 H   0  0  0  0  0  0
  -27.6517  -14.2360   19.4590 H   0  0  0  0  0  0
  -28.7033  -12.1404   21.4243 H   0  0  0  0  0  0
  -28.4323  -13.8263   21.7778 H   0  0  0  0  0  0
  -25.2787   -9.5656   22.4790 H   0  0  0  0  0  0
  -23.9984   -7.4642   22.7487 H   0  0  0  0  0  0
  -21.0847   -8.8848   19.9002 H   0  0  0  0  0  0
  -22.3755  -10.9706   19.6212 H   0  0  0  0  0  0
  -21.1988   -7.6136   23.9697 H   0  0  0  0  0  0
  -21.1482   -6.0517   25.9073 H   0  0  0  0  0  0
  -22.0591   -2.7599   23.2843 H   0  0  0  0  0  0
  -22.4101  -11.9991   22.4839 H   0  0  0  0  0  0
  -21.1122  -13.1341   22.2588 H   0  0  0  0  0  0
  -24.6432  -15.8248   20.4982 H   0  0  0  0  0  0
  -26.2281  -15.6200   19.9530 H   0  0  0  0  0  0
  -26.7138  -32.5555   23.1143 H   0  0  0  0  0  0
  -25.0087  -33.9741   25.0498 H   0  0  0  0  0  0
  -22.7071  -31.3058   21.4013 H   0  0  0  0  0  0
  -23.3752  -35.9628   23.3284 H   0  0  0  0  0  0
  -24.3609  -36.8915   22.2046 H   0  0  0  0  0  0
  -23.7248  -37.6497   23.6645 H   0  0  0  0  0  0
  -26.0840  -31.5751   20.6013 H   0  0  0  0  0  0
  -26.8403  -30.8653   21.9991 H   0  0  0  0  0  0
  -28.1239  -29.0300   21.1935 H   0  0  0  0  0  0
  -26.0285  -25.9395   19.0251 H   0  0  0  0  0  0
  -23.9840  -27.3011   19.0346 H   0  0  0  0  0  0
  -23.7867  -30.6137   19.4122 H   0  0  0  0  0  0
  -22.7614  -29.2719   19.8360 H   0  0  0  0  0  0
  -25.1266  -36.1949   25.0805 H   0  0  0  0  0  0
  -21.0019  -28.3112   24.1340 H   0  0  0  0  0  0
  -20.5794  -26.2163   23.3305 H   0  0  0  0  0  0
  -21.6677  -26.7573   22.0963 H   0  0  0  0  0  0
  -19.7049  -25.6552   21.0791 H   0  0  0  0  0  0
  -19.6784  -27.3504   20.6707 H   0  0  0  0  0  0
  -17.4297  -26.6864   21.3719 H   0  0  0  0  0  0
  -18.0342  -25.9972   22.8600 H   0  0  0  0  0  0
  -19.7888  -30.7135   24.2470 H   0  0  0  0  0  0
  -17.4998  -31.6202   24.5239 H   0  0  0  0  0  0
  -15.5328  -30.2943   23.7631 H   0  0  0  0  0  0
  -15.8688  -28.0827   22.6924 H   0  0  0  0  0  0
  -24.5933  -30.7086   25.7819 H   0  0  0  0  0  0
  -24.8905  -32.2969   26.4819 H   0  0  0  0  0  0
  -25.8056  -30.9026   27.0304 H   0  0  0  0  0  0
  -26.2846  -29.6835   24.1224 H   0  0  0  0  0  0
  -27.4052  -29.7264   25.4635 H   0  0  0  0  0  0
  -27.8704  -30.4352   23.9352 H   0  0  0  0  0  0
  -27.2796  -33.3609   26.2111 H   0  0  0  0  0  0
  -28.3919  -32.6873   25.0307 H   0  0  0  0  0  0
  -28.0830  -31.8414   26.5370 H   0  0  0  0  0  0
  -28.2589  -38.0097   24.7477 H   0  0  0  0  0  0
  -28.1074  -36.2625   24.6296 H   0  0  0  0  0  0
  -27.2322  -37.1453   25.8878 H   0  0  0  0  0  0
  -20.9339  -29.8808   21.6970 H   0  0  0  0  0  0
  -26.0169  -38.2837   24.1434 H   0  0  0  0  0  0
  -27.3454  -20.7703   21.5744 H   0  0  0  0  0  0
  -31.5401  -19.2209   19.5839 H   0  0  0  0  0  0
  -26.2481  -19.3547   24.9372 H   0  0  0  0  0  0
  -27.8123  -19.8402   24.3220 H   0  0  0  0  0  0
  -27.5793  -18.1994   24.9349 H   0  0  0  0  0  0
  -24.8618  -17.6652   23.7526 H   0  0  0  0  0  0
  -26.0728  -16.4704   23.3018 H   0  0  0  0  0  0
  -25.1453  -17.3103   22.0639 H   0  0  0  0  0  0
  -27.3007  -26.1554   22.6519 H   0  0  0  0  0  0
  -29.0499  -25.9188   22.7204 H   0  0  0  0  0  0
  -27.9567  -24.5551   22.9343 H   0  0  0  0  0  0
  -30.6140  -17.0969   22.2560 H   0  0  0  0  0  0
  -31.5397  -17.1548   20.8137 H   0  0  0  0  0  0
  -27.4575  -22.6915   20.2445 H   0  0  0  0  0  0
  -28.5184  -22.7376   18.8984 H   0  0  0  0  0  0
  -29.9340  -24.3728   19.8640 H   0  0  0  0  0  0
  -29.6863  -23.7867   21.4617 H   0  0  0  0  0  0
  -26.1896  -19.3916   22.4870 H   0  0  0  0  0  0
  -27.1471  -24.8378   20.5946 H   0  0  0  0  0  0
  -30.7562  -21.3545   19.2801 H   0  0  0  0  0  0
  -28.2098  -17.2039   22.3498 H   0  0  0  0  0  0
  -28.9450  -15.6274   20.9063 H   0  0  0  0  0  0
  1 25  1  0  0  0
  1 30  2  0  0  0
  1 86  1  0  0  0
  2  3  1  0  0  0
  2 25  1  0  0  0
  2 87  1  0  0  0
  2 88  1  0  0  0
  3  4  1  0  0  0
  3 89  1  0  0  0
  3 90  1  0  0  0
  4  5  1  0  0  0
  4 91  1  0  0  0
  4 92  1  0  0  0
  5  6  1  0  0  0
  5 26  1  0  0  0
  5 93  1  0  0  0
  6 25  1  0  0  0
  6 94  1  0  0  0
  6 95  1  0  0  0
  7  8  2  0  0  0
  7 26  1  0  0  0
  7 29  1  0  0  0
  8  9  1  0  0  0
  8 22  1  0  0  0
  9 10  1  0  0  0
  9 27  2  0  0  0
 10 11  2  0  0  0
 10 15  1  0  0  0
 11 12  1  0  0  0
 11 96  1  0  0  0
 12 13  2  0  0  0
 12 97  1  0  0  0
 13 14  1  0  0  0
 13 31  1  0  0  0
 14 15  2  0  0  0
 14 98  1  0  0  0
 15 99  1  0  0  0
 16 17  2  0  0  0
 16 21  1  0  0  0
 16 31  1  0  0  0
 17 18  1  0  0  0
 17100  1  0  0  0
 18 19  2  0  0  0
 18101  1  0  0  0
 19 20  1  0  0  0
 19 24  1  0  0  0
 20 21  2  0  0  0
 20102  1  0  0  0
 21 23  1  0  0  0
 22 28  1  0  0  0
 22 32  2  0  0  0
 26 27  1  0  0  0
 28103  1  0  0  0
 28104  1  0  0  0
 29105  1  0  0  0
 29106  1  0  0  0
 33 34  1  0  0  0
 33 66  1  0  0  0
 33 70  2  0  0  0
 34 36  1  0  0  0
 34 59  1  0  0  0
 34107  1  0  0  0
 35 44  2  0  0  0
 35 45  1  0  0  0
 35 68  1  0  0  0
 36 56  1  0  0  0
 36108  1  0  0  0
 37 39  1  0  0  0
 37 47  1  0  0  0
 37 66  1  0  0  0
 37109  1  0  0  0
 38 43  2  0  0  0
 38 46  1  0  0  0
 38 47  1  0  0  0
 39 64  1  0  0  0
 39 67  2  0  0  0
 40 52  1  0  0  0
 40 53  2  0  0  0
 40 58  1  0  0  0
 41110  1  0  0  0
 41111  1  0  0  0
 41112  1  0  0  0
 41 48  1  0  0  0
 42 43  1  0  0  0
 42 66  1  0  0  0
 42113  1  0  0  0
 42114  1  0  0  0
 43 44  1  0  0  0
 44115  1  0  0  0
 45 46  2  0  0  0
 45116  1  0  0  0
 46117  1  0  0  0
 47118  1  0  0  0
 47119  1  0  0  0
 48 56  1  0  0  0
 48 65  1  0  0  0
 48120  1  0  0  0
 49 50  1  0  0  0
 49 53  1  0  0  0
 49 64  1  0  0  0
 49121  1  0  0  0
 50 51  1  0  0  0
 50122  1  0  0  0
 50123  1  0  0  0
 51 52  1  0  0  0
 51124  1  0  0  0
 51125  1  0  0  0
 52126  1  0  0  0
 52127  1  0  0  0
 53 54  1  0  0  0
 54 55  2  0  0  0
 54128  1  0  0  0
 55 57  1  0  0  0
 55129  1  0  0  0
 56 69  2  0  0  0
 57 58  2  0  0  0
 57130  1  0  0  0
 58131  1  0  0  0
 59 60  1  0  0  0
 59 61  1  0  0  0
 59 62  1  0  0  0
 60132  1  0  0  0
 60133  1  0  0  0
 60134  1  0  0  0
 61135  1  0  0  0
 61136  1  0  0  0
 61137  1  0  0  0
 62138  1  0  0  0
 62139  1  0  0  0
 62140  1  0  0  0
 63 65  1  0  0  0
 63141  1  0  0  0
 63142  1  0  0  0
 63143  1  0  0  0
 64144  1  0  0  0
 65145  1  0  0  0
 68 83  1  0  0  0
 71 74  2  0  0  0
 71 75  1  0  0  0
 71146  1  0  0  0
 72 73  2  0  0  0
 72 84  1  0  0  0
 72147  1  0  0  0
 73 74  1  0  0  0
 73 79  1  0  0  0
 74 85  1  0  0  0
 75 80  1  0  0  0
 75 84  2  0  0  0
 76148  1  0  0  0
 76149  1  0  0  0
 76150  1  0  0  0
 76 82  1  0  0  0
 77 82  1  0  0  0
 77151  1  0  0  0
 77152  1  0  0  0
 77153  1  0  0  0
 78154  1  0  0  0
 78155  1  0  0  0
 78156  1  0  0  0
 78 83  1  0  0  0
 79 86  1  0  0  0
 79157  1  0  0  0
 79158  1  0  0  0
 80 81  1  0  0  0
 80159  1  0  0  0
 80160  1  0  0  0
 81 83  1  0  0  0
 81161  1  0  0  0
 81162  1  0  0  0
 82 85  1  0  0  0
 82163  1  0  0  0
 83164  1  0  0  0
 84165  1  0  0  0
 85166  1  0  0  0
 86167  1  0  0  0
M  CHG  1  84   1
M  ISO  4   1 100  68 101  83 101  86 100
M  END
> <chiral flag>
0

> <version>
0

> <s_m_source_file>
/data/baiqing/PycharmProjects/Reinvent-master-3.2/result/LINK_invent/BTK/process_docking_weight1_custom_sum_contain_oxygen_bond_distance_aromatic_linkinvent_7_9_3/rearranged_h_0108.sdf

> <i_m_source_file_index>
26

> <r_mmod_Potential_Energy-OPLS-2005>
-23.7741470336914

> <r_mmod_Stretch_Energy-OPLS-2005>
78.6051864624023

> <r_mmod_Bend_Energy-OPLS-2005>
155.901351928711

> <r_mmod_Torsional_Energy-OPLS-2005>
232.83659362793

> <r_mmod_Improper_Torsional_Energy-OPLS-2005>
6.2861499786377

> <r_mmod_Van_der_Waal_Energy-OPLS-2005>
142.855407714844

> <r_mmod_Electrostatic_Energy-OPLS-2005>
-273.283538818359

> <r_mmod_Solvation_Energy-OPLS-2005>
-415.560577392578

> <b_mmod_Minimization_Converged-OPLS-2005>
0

> <r_mmod_RMS_Derivative-OPLS-2005>
5.22559881210327

$$$$
26
                    3D
 Structure written by MMmdl.
167175  0  0  1  0            999 V2000
  -30.4706  -15.1915   20.3859 C   0  0  0  0  0  0
  -30.4372  -12.7581   19.5212 C   0  0  0  0  0  0
  -29.5298  -12.5634   18.2812 C   0  0  0  0  0  0
  -28.0761  -12.2991   18.7096 C   0  0  0  0  0  0
  -27.6140  -13.2688   19.8259 C   0  0  2  0  0  0
  -28.6492  -13.4160   20.9611 C   0  0  0  0  0  0
  -25.2396  -13.8239   20.5739 C   0  0  0  0  0  0
  -24.1742  -13.0435   20.9250 C   0  0  0  0  0  0
  -24.6391  -11.6929   20.8765 C   0  0  0  0  0  0
  -23.9084  -10.4289   21.0411 C   0  0  0  0  0  0
  -24.3629   -9.4203   21.9188 C   0  0  0  0  0  0
  -23.6297   -8.2243   22.0759 C   0  0  0  0  0  0
  -22.4280   -8.0281   21.3548 C   0  0  0  0  0  0
  -21.9920   -9.0256   20.4650 C   0  0  0  0  0  0
  -22.7255  -10.2130   20.3059 C   0  0  0  0  0  0
  -21.6853   -6.0735   22.5277 C   0  0  0  0  0  0
  -21.4016   -6.5640   23.8210 C   0  0  0  0  0  0
  -21.3659   -5.6792   24.9172 C   0  0  0  0  0  0
  -21.6041   -4.3053   24.7224 C   0  0  0  0  0  0
  -21.8819   -3.8146   23.4344 C   0  0  0  0  0  0
  -21.9193   -4.6963   22.3400 C   0  0  0  0  0  0
  -22.7760  -13.5194   21.1895 C   0  0  0  0  0  0
  -22.1660   -4.2148   21.0977 F   0  0  0  0  0  0
  -21.5628   -3.4538   25.7738 F   0  0  0  0  0  0
  -29.8916  -13.8986   20.3399 N   0  0  0  0  0  0
  -26.2820  -12.9502   20.3227 N   0  0  0  0  0  0
  -25.9325  -11.6615   20.5732 N   0  0  0  0  0  0
  -22.0416  -12.8181   22.0451 N   0  0  0  0  0  0
  -25.4041  -15.1968   20.4159 N   0  0  0  0  0  0
  -31.6878  -15.1950   20.1591 O   0  0  0  0  0  0
  -21.6642   -6.8879   21.4240 O   0  0  0  0  0  0
  -22.3443  -14.5497   20.6734 O   0  0  0  0  0  0
  -24.6586  -31.8287   23.1750 C   0  0  0  0  0  0
  -25.9284  -32.4617   23.8197 C   0  0  1  0  0  0
  -27.2102  -26.9656   20.1890 C   0  0  0  0  0  0
  -25.5968  -33.8427   24.2112 N   0  0  0  0  0  0
  -23.4713  -30.4427   21.5243 C   0  0  2  0  0  0
  -24.9242  -28.8372   20.1165 C   0  0  0  0  0  0
  -22.7650  -29.4467   22.4807 C   0  0  0  0  0  0
  -18.0319  -28.1401   22.8471 C   0  0  0  0  0  0
  -24.1491  -36.7217   23.2650 C   0  0  0  0  0  0
  -26.0395  -30.6467   21.4013 C   0  0  0  0  0  0
  -26.1073  -29.2393   20.7502 C   0  0  0  0  0  0
  -27.2499  -28.3243   20.7626 C   0  0  0  0  0  0
  -26.0068  -26.7162   19.4948 C   0  0  0  0  0  0
  -24.8963  -27.5938   19.4686 C   0  0  0  0  0  0
  -23.7097  -29.7612   20.1498 C   0  0  0  0  0  0
  -25.4132  -36.2986   24.0309 C   0  0  1  0  0  0
  -20.5947  -28.3742   23.1204 C   0  0  2  0  0  0
  -20.6804  -26.9434   22.5402 C   0  0  0  0  0  0
  -19.5777  -26.6378   21.5216 C   0  0  0  0  0  0
  -18.1955  -26.7939   22.1620 C   0  0  0  0  0  0
  -19.1581  -28.8892   23.2824 C   0  0  0  0  0  0
  -18.9493  -30.1485   23.8859 C   0  0  0  0  0  0
  -17.6486  -30.6596   24.0557 C   0  0  0  0  0  0
  -25.9092  -34.9366   23.5029 C   0  0  0  0  0  0
  -16.5376  -29.9083   23.6340 C   0  0  0  0  0  0
  -16.7300  -28.6498   23.0366 C   0  0  0  0  0  0
  -26.4550  -31.6542   25.0702 C   0  0  0  0  0  0
  -25.3684  -31.3775   26.1362 C   0  0  0  0  0  0
  -27.0448  -30.2918   24.6400 C   0  0  0  0  0  0
  -27.6060  -32.4339   25.7495 C   0  0  0  0  0  0
  -27.5573  -37.1768   24.8470 C   0  0  0  0  0  0
  -21.4323  -29.3044   22.3561 N   0  0  0  0  0  0
  -26.4279  -37.3721   23.9415 N   0  0  0  0  0  0
  -24.7443  -30.9985   22.0874 N   0  0  0  0  0  0
  -23.4224  -28.8031   23.3024 O   0  0  0  0  0  0
  -28.2107  -25.8691   20.1894 O   0  0  0  0  0  0
  -26.5700  -34.8895   22.4624 O   0  0  0  0  0  0
  -23.5662  -32.1236   23.6862 O   0  0  0  0  0  0
  -29.9918  -20.7637   21.1461 C   0  0  0  0  0  0
  -29.4216  -19.6386   20.4101 C   0  0  0  0  0  0
  -27.9608  -21.6866   19.6056 C   0  0  0  0  0  0
  -28.3503  -20.2359   19.6194 C   0  0  0  0  0  0
  -28.5971  -22.7598   20.3821 C   0  0  0  0  0  0
  -26.7575  -22.0912   18.7631 C   0  0  0  0  0  0
  -26.5840  -24.2169   21.3583 C   0  0  0  0  0  0
  -30.1509  -18.0516   20.3748 C   0  0  0  0  0  0
  -27.2375  -18.1853   16.6882 C   0  0  0  0  0  0
  -28.1372  -19.1418   17.4898 C   0  0  0  0  0  0
  -27.7169  -17.9687   15.2400 C   0  0  0  0  0  0
  -27.9997  -24.3545   20.7682 C   0  0  2  0  0  0
  -29.5899  -22.1266   21.1277 N   0  3  0  0  0  0
  -27.6142  -19.3360   18.8374 N   0  0  0  0  0  0
  -29.7252  -16.4588   20.4814 N   0  0  0  0  0  0
  -26.8688  -17.0084   14.5113 N   0  3  0  0  0  0
  -31.4597  -12.9493   19.1925 H   0  0  0  0  0  0
  -30.4864  -11.8434   20.1145 H   0  0  0  0  0  0
  -29.8964  -11.7401   17.6668 H   0  0  0  0  0  0
  -29.5707  -13.4566   17.6556 H   0  0  0  0  0  0
  -28.0241  -11.2726   19.0747 H   0  0  0  0  0  0
  -27.4063  -12.3513   17.8507 H   0  0  0  0  0  0
  -27.5385  -14.2419   19.3394 H   0  0  0  0  0  0
  -28.7994  -12.4734   21.4894 H   0  0  0  0  0  0
  -28.3011  -14.1370   21.7024 H   0  0  0  0  0  0
  -25.2769   -9.5677   22.4770 H   0  0  0  0  0  0
  -23.9998   -7.4636   22.7484 H   0  0  0  0  0  0
  -21.0849   -8.8776   19.8959 H   0  0  0  0  0  0
  -22.3710  -10.9670   19.6172 H   0  0  0  0  0  0
  -21.2009   -7.6150   23.9712 H   0  0  0  0  0  0
  -21.1480   -6.0524   25.9074 H   0  0  0  0  0  0
  -22.0599   -2.7608   23.2844 H   0  0  0  0  0  0
  -22.4032  -11.9840   22.4834 H   0  0  0  0  0  0
  -21.1035  -13.1202   22.2670 H   0  0  0  0  0  0
  -24.6319  -15.8454   20.5238 H   0  0  0  0  0  0
  -26.2439  -15.6350   20.0644 H   0  0  0  0  0  0
  -26.7353  -32.5171   23.0918 H   0  0  0  0  0  0
  -25.0077  -33.9525   25.0233 H   0  0  0  0  0  0
  -22.7823  -31.2733   21.3563 H   0  0  0  0  0  0
  -23.3768  -35.9531   23.3281 H   0  0  0  0  0  0
  -24.3574  -36.8885   22.2071 H   0  0  0  0  0  0
  -23.7231  -37.6395   23.6710 H   0  0  0  0  0  0
  -26.2152  -31.3868   20.6197 H   0  0  0  0  0  0
  -26.9024  -30.7051   22.0526 H   0  0  0  0  0  0
  -28.1489  -28.6326   21.2761 H   0  0  0  0  0  0
  -25.9007  -25.7708   18.9823 H   0  0  0  0  0  0
  -24.0011  -27.2832   18.9487 H   0  0  0  0  0  0
  -23.8653  -30.5306   19.3929 H   0  0  0  0  0  0
  -22.8195  -29.2159   19.8306 H   0  0  0  0  0  0
  -25.1330  -36.1794   25.0799 H   0  0  0  0  0  0
  -21.0029  -28.3329   24.1327 H   0  0  0  0  0  0
  -20.5702  -26.2353   23.3632 H   0  0  0  0  0  0
  -21.6667  -26.7428   22.1200 H   0  0  0  0  0  0
  -19.6941  -25.6281   21.1267 H   0  0  0  0  0  0
  -19.6712  -27.3166   20.6735 H   0  0  0  0  0  0
  -17.4231  -26.6687   21.4016 H   0  0  0  0  0  0
  -18.0342  -26.0088   22.9025 H   0  0  0  0  0  0
  -19.7968  -30.7310   24.2211 H   0  0  0  0  0  0
  -17.5038  -31.6273   24.5161 H   0  0  0  0  0  0
  -15.5376  -30.2975   23.7688 H   0  0  0  0  0  0
  -15.8699  -28.0801   22.7118 H   0  0  0  0  0  0
  -24.5892  -30.7097   25.7671 H   0  0  0  0  0  0
  -24.8841  -32.2964   26.4669 H   0  0  0  0  0  0
  -25.7920  -30.9024   27.0218 H   0  0  0  0  0  0
  -26.3104  -29.6604   24.1385 H   0  0  0  0  0  0
  -27.3990  -29.7273   25.5038 H   0  0  0  0  0  0
  -27.9038  -30.4136   23.9803 H   0  0  0  0  0  0
  -27.2651  -33.3694   26.1948 H   0  0  0  0  0  0
  -28.3928  -32.6811   25.0352 H   0  0  0  0  0  0
  -28.0657  -31.8538   26.5513 H   0  0  0  0  0  0
  -28.2580  -38.0078   24.7527 H   0  0  0  0  0  0
  -28.1081  -36.2606   24.6282 H   0  0  0  0  0  0
  -27.2288  -37.1398   25.8873 H   0  0  0  0  0  0
  -20.9565  -29.8730   21.6694 H   0  0  0  0  0  0
  -26.0130  -38.2780   24.1421 H   0  0  0  0  0  0
  -30.8334  -20.5922   21.8017 H   0  0  0  0  0  0
  -26.7667  -21.6147   17.7841 H   0  0  0  0  0  0
  -26.7330  -23.1654   18.5823 H   0  0  0  0  0  0
  -25.8341  -21.8053   19.2672 H   0  0  0  0  0  0
  -26.5338  -23.3735   22.0477 H   0  0  0  0  0  0
  -25.8329  -24.0502   20.5881 H   0  0  0  0  0  0
  -26.2931  -25.1011   21.9252 H   0  0  0  0  0  0
  -30.9282  -18.1302   21.1350 H   0  0  0  0  0  0
  -30.7125  -18.0795   19.4407 H   0  0  0  0  0  0
  -26.2195  -18.5778   16.6743 H   0  0  0  0  0  0
  -27.1911  -17.2234   17.2005 H   0  0  0  0  0  0
  -28.2189  -20.0995   16.9725 H   0  0  0  0  0  0
  -29.1484  -18.7338   17.5446 H   0  0  0  0  0  0
  -28.7455  -17.6058   15.2332 H   0  0  0  0  0  0
  -27.7150  -18.9175   14.7010 H   0  0  0  0  0  0
  -28.5984  -24.5023   21.6675 H   0  0  0  0  0  0
  -30.0984  -22.7351   21.7732 H   0  0  0  0  0  0
  -27.5064  -18.4532   19.3225 H   0  0  0  0  0  0
  -28.7401  -16.3126   20.6410 H   0  0  0  0  0  0
  -26.8889  -16.1046   14.9483 H   0  0  0  0  0  0
  -27.2007  -16.9046   13.5686 H   0  0  0  0  0  0
  -25.9172  -17.3272   14.4716 H   0  0  0  0  0  0
  1 25  1  0  0  0
  1 30  2  0  0  0
  1 85  1  0  0  0
  2  3  1  0  0  0
  2 25  1  0  0  0
  2 87  1  0  0  0
  2 88  1  0  0  0
  3  4  1  0  0  0
  3 89  1  0  0  0
  3 90  1  0  0  0
  4  5  1  0  0  0
  4 91  1  0  0  0
  4 92  1  0  0  0
  5  6  1  0  0  0
  5 26  1  0  0  0
  5 93  1  0  0  0
  6 25  1  0  0  0
  6 94  1  0  0  0
  6 95  1  0  0  0
  7  8  2  0  0  0
  7 26  1  0  0  0
  7 29  1  0  0  0
  8  9  1  0  0  0
  8 22  1  0  0  0
  9 10  1  0  0  0
  9 27  2  0  0  0
 10 11  2  0  0  0
 10 15  1  0  0  0
 11 12  1  0  0  0
 11 96  1  0  0  0
 12 13  2  0  0  0
 12 97  1  0  0  0
 13 14  1  0  0  0
 13 31  1  0  0  0
 14 15  2  0  0  0
 14 98  1  0  0  0
 15 99  1  0  0  0
 16 17  2  0  0  0
 16 21  1  0  0  0
 16 31  1  0  0  0
 17 18  1  0  0  0
 17100  1  0  0  0
 18 19  2  0  0  0
 18101  1  0  0  0
 19 20  1  0  0  0
 19 24  1  0  0  0
 20 21  2  0  0  0
 20102  1  0  0  0
 21 23  1  0  0  0
 22 28  1  0  0  0
 22 32  2  0  0  0
 26 27  1  0  0  0
 28103  1  0  0  0
 28104  1  0  0  0
 29105  1  0  0  0
 29106  1  0  0  0
 33 34  1  0  0  0
 33 66  1  0  0  0
 33 70  2  0  0  0
 34 36  1  0  0  0
 34 59  1  0  0  0
 34107  1  0  0  0
 35 44  2  0  0  0
 35 45  1  0  0  0
 35 68  1  0  0  0
 36 56  1  0  0  0
 36108  1  0  0  0
 37 39  1  0  0  0
 37 47  1  0  0  0
 37 66  1  0  0  0
 37109  1  0  0  0
 38 43  2  0  0  0
 38 46  1  0  0  0
 38 47  1  0  0  0
 39 64  1  0  0  0
 39 67  2  0  0  0
 40 52  1  0  0  0
 40 53  2  0  0  0
 40 58  1  0  0  0
 41110  1  0  0  0
 41111  1  0  0  0
 41112  1  0  0  0
 41 48  1  0  0  0
 42 43  1  0  0  0
 42 66  1  0  0  0
 42113  1  0  0  0
 42114  1  0  0  0
 43 44  1  0  0  0
 44115  1  0  0  0
 45 46  2  0  0  0
 45116  1  0  0  0
 46117  1  0  0  0
 47118  1  0  0  0
 47119  1  0  0  0
 48 56  1  0  0  0
 48 65  1  0  0  0
 48120  1  0  0  0
 49 50  1  0  0  0
 49 53  1  0  0  0
 49 64  1  0  0  0
 49121  1  0  0  0
 50 51  1  0  0  0
 50122  1  0  0  0
 50123  1  0  0  0
 51 52  1  0  0  0
 51124  1  0  0  0
 51125  1  0  0  0
 52126  1  0  0  0
 52127  1  0  0  0
 53 54  1  0  0  0
 54 55  2  0  0  0
 54128  1  0  0  0
 55 57  1  0  0  0
 55129  1  0  0  0
 56 69  2  0  0  0
 57 58  2  0  0  0
 57130  1  0  0  0
 58131  1  0  0  0
 59 60  1  0  0  0
 59 61  1  0  0  0
 59 62  1  0  0  0
 60132  1  0  0  0
 60133  1  0  0  0
 60134  1  0  0  0
 61135  1  0  0  0
 61136  1  0  0  0
 61137  1  0  0  0
 62138  1  0  0  0
 62139  1  0  0  0
 62140  1  0  0  0
 63 65  1  0  0  0
 63141  1  0  0  0
 63142  1  0  0  0
 63143  1  0  0  0
 64144  1  0  0  0
 65145  1  0  0  0
 68 82  1  0  0  0
 71 72  2  0  0  0
 71 83  1  0  0  0
 71146  1  0  0  0
 72 74  1  0  0  0
 72 78  1  0  0  0
 73 74  2  0  0  0
 73 75  1  0  0  0
 73 76  1  0  0  0
 74 84  1  0  0  0
 75 82  1  0  0  0
 75 83  2  0  0  0
 76147  1  0  0  0
 76148  1  0  0  0
 76149  1  0  0  0
 77150  1  0  0  0
 77151  1  0  0  0
 77152  1  0  0  0
 77 82  1  0  0  0
 78 85  1  0  0  0
 78153  1  0  0  0
 78154  1  0  0  0
 79 80  1  0  0  0
 79 81  1  0  0  0
 79155  1  0  0  0
 79156  1  0  0  0
 80 84  1  0  0  0
 80157  1  0  0  0
 80158  1  0  0  0
 81 86  1  0  0  0
 81159  1  0  0  0
 81160  1  0  0  0
 82161  1  0  0  0
 83162  1  0  0  0
 84163  1  0  0  0
 85164  1  0  0  0
 86165  1  0  0  0
 86166  1  0  0  0
 86167  1  0  0  0
M  CHG  2  83   1  86   1
M  ISO  4   1 100  68 101  82 101  85 100
M  END
> <chiral flag>
0

> <version>
0

> <s_m_source_file>
/data/baiqing/PycharmProjects/Reinvent-master-3.2/result/LINK_invent/BTK/process_docking_weight1_custom_sum_contain_oxygen_bond_distance_aromatic_linkinvent_7_9_3/rearranged_h_0108.sdf

> <i_m_source_file_index>
27

> <r_mmod_Potential_Energy-OPLS-2005>
783.9970703125

> <r_mmod_Stretch_Energy-OPLS-2005>
476.415893554688

> <r_mmod_Bend_Energy-OPLS-2005>
439.032287597656

> <r_mmod_Torsional_Energy-OPLS-2005>
262.19091796875

> <r_mmod_Improper_Torsional_Energy-OPLS-2005>
13.9156646728516

> <r_mmod_Van_der_Waal_Energy-OPLS-2005>
127.329902648926

> <r_mmod_Electrostatic_Energy-OPLS-2005>
-10.6648836135864

> <r_mmod_Solvation_Energy-OPLS-2005>
-915.234436035156

> <b_mmod_Minimization_Converged-OPLS-2005>
0

> <r_mmod_RMS_Derivative-OPLS-2005>
0.966350317001343

$$$$
27
                    3D
 Structure written by MMmdl.
146153  0  0  1  0            999 V2000
  -30.1594  -16.0066   20.2966 C   0  0  0  0  0  0
  -30.3938  -13.3595   19.5608 C   0  0  0  0  0  0
  -29.5670  -12.7633   18.3719 C   0  0  0  0  0  0
  -28.1713  -12.3208   18.8268 C   0  0  0  0  0  0
  -27.5869  -13.3480   19.8169 C   0  0  2  0  0  0
  -28.5711  -13.8276   20.9221 C   0  0  0  0  0  0
  -25.2262  -13.8335   20.5850 C   0  0  0  0  0  0
  -24.1683  -13.0437   20.9294 C   0  0  0  0  0  0
  -24.6443  -11.6961   20.8741 C   0  0  0  0  0  0
  -23.9154  -10.4287   21.0361 C   0  0  0  0  0  0
  -24.3684   -9.4202   21.9156 C   0  0  0  0  0  0
  -23.6326   -8.2254   22.0761 C   0  0  0  0  0  0
  -22.4310   -8.0293   21.3553 C   0  0  0  0  0  0
  -21.9947   -9.0269   20.4652 C   0  0  0  0  0  0
  -22.7304  -10.2132   20.3025 C   0  0  0  0  0  0
  -21.6865   -6.0738   22.5271 C   0  0  0  0  0  0
  -21.4018   -6.5638   23.8202 C   0  0  0  0  0  0
  -21.3674   -5.6795   24.9164 C   0  0  0  0  0  0
  -21.6050   -4.3052   24.7210 C   0  0  0  0  0  0
  -21.8815   -3.8146   23.4335 C   0  0  0  0  0  0
  -21.9197   -4.6966   22.3389 C   0  0  0  0  0  0
  -22.7684  -13.5145   21.1885 C   0  0  0  0  0  0
  -22.1661   -4.2146   21.0965 F   0  0  0  0  0  0
  -21.5633   -3.4539   25.7726 F   0  0  0  0  0  0
  -29.6906  -14.5697   20.2584 N   0  0  0  0  0  0
  -26.2757  -12.9748   20.3298 N   0  0  0  0  0  0
  -25.9409  -11.6779   20.5687 N   0  0  0  0  0  0
  -22.0348  -12.8148   22.0448 N   0  0  0  0  0  0
  -25.3832  -15.2072   20.4298 N   0  0  0  0  0  0
  -31.3936  -15.8901   20.1029 O   0  0  0  0  0  0
  -21.6661   -6.8888   21.4242 O   0  0  0  0  0  0
  -22.3354  -14.5428   20.6691 O   0  0  0  0  0  0
  -24.7071  -31.7703   23.1293 C   0  0  0  0  0  0
  -25.9524  -32.4329   23.7943 C   0  0  1  0  0  0
  -27.2513  -26.4466   20.2363 C   0  0  0  0  0  0
  -25.5990  -33.8170   24.1804 N   0  0  0  0  0  0
  -23.5467  -30.3590   21.4880 C   0  0  2  0  0  0
  -25.0115  -28.6445   20.1240 C   0  0  0  0  0  0
  -22.7869  -29.4159   22.4625 C   0  0  0  0  0  0
  -18.0352  -28.1442   22.8451 C   0  0  0  0  0  0
  -24.1491  -36.7079   23.2661 C   0  0  0  0  0  0
  -26.1373  -30.4167   21.4368 C   0  0  0  0  0  0
  -26.2023  -28.9529   20.7904 C   0  0  0  0  0  0
  -27.2883  -27.8890   20.8128 C   0  0  0  0  0  0
  -26.0314  -26.4185   19.4925 C   0  0  0  0  0  0
  -24.9822  -27.4059   19.4503 C   0  0  0  0  0  0
  -23.8171  -29.6287   20.1355 C   0  0  0  0  0  0
  -25.4161  -36.2822   24.0263 C   0  0  1  0  0  0
  -20.5998  -28.3812   23.1088 C   0  0  2  0  0  0
  -20.6804  -26.9446   22.5409 C   0  0  0  0  0  0
  -19.5784  -26.6368   21.5219 C   0  0  0  0  0  0
  -18.1968  -26.7963   22.1621 C   0  0  0  0  0  0
  -19.1625  -28.8961   23.2745 C   0  0  0  0  0  0
  -18.9525  -30.1535   23.8812 C   0  0  0  0  0  0
  -17.6511  -30.6624   24.0552 C   0  0  0  0  0  0
  -25.9156  -34.9213   23.4901 C   0  0  0  0  0  0
  -16.5400  -29.9100   23.6363 C   0  0  0  0  0  0
  -16.7331  -28.6515   23.0393 C   0  0  0  0  0  0
  -26.4636  -31.6475   25.0671 C   0  0  0  0  0  0
  -25.3615  -31.3859   26.1214 C   0  0  0  0  0  0
  -27.0594  -30.2775   24.6774 C   0  0  0  0  0  0
  -27.6047  -32.4397   25.7494 C   0  0  0  0  0  0
  -27.5563  -37.1697   24.8466 C   0  0  0  0  0  0
  -21.4490  -29.3005   22.3367 N   0  0  0  0  0  0
  -26.4268  -37.3609   23.9409 N   0  0  0  0  0  0
  -24.8228  -30.8894   22.0684 N   0  0  0  0  0  0
  -23.4193  -28.7817   23.3096 O   0  0  0  0  0  0
  -28.1811  -25.1154   20.3733 O   0  0  0  0  0  0
  -26.5845  -34.8831   22.4548 O   0  0  0  0  0  0
  -23.6035  -32.0893   23.6081 O   0  0  0  0  0  0
  -29.8586  -21.5589   21.6057 C   0  0  0  0  0  0
  -27.4525  -20.9328   21.3300 C   0  0  0  0  0  0
  -29.3582  -19.3477   19.9976 C   0  0  0  0  0  0
  -28.3205  -23.2590   19.9813 C   0  0  0  0  0  0
  -28.7484  -21.2770   20.5833 C   0  0  0  0  0  0
  -29.4074  -17.4719   20.3748 N   0  0  0  0  0  0
  -31.3588  -13.6699   19.1605 H   0  0  0  0  0  0
  -30.6461  -12.5808   20.2828 H   0  0  0  0  0  0
  -30.1009  -11.9284   17.9140 H   0  0  0  0  0  0
  -29.4664  -13.5234   17.5950 H   0  0  0  0  0  0
  -28.2661  -11.3556   19.3266 H   0  0  0  0  0  0
  -27.5107  -12.1667   17.9716 H   0  0  0  0  0  0
  -27.4078  -14.2247   19.1923 H   0  0  0  0  0  0
  -28.9061  -13.0012   21.5506 H   0  0  0  0  0  0
  -28.0650  -14.5223   21.5939 H   0  0  0  0  0  0
  -25.2828   -9.5683   22.4737 H   0  0  0  0  0  0
  -24.0028   -7.4654   22.7507 H   0  0  0  0  0  0
  -21.0867   -8.8790   19.8976 H   0  0  0  0  0  0
  -22.3749  -10.9669   19.6130 H   0  0  0  0  0  0
  -21.2014   -7.6150   23.9693 H   0  0  0  0  0  0
  -21.1506   -6.0529   25.9065 H   0  0  0  0  0  0
  -22.0586   -2.7609   23.2819 H   0  0  0  0  0  0
  -22.4024  -11.9876   22.4911 H   0  0  0  0  0  0
  -21.0946  -13.1137   22.2608 H   0  0  0  0  0  0
  -24.6116  -15.8560   20.5398 H   0  0  0  0  0  0
  -26.2267  -15.6463   20.0871 H   0  0  0  0  0  0
  -26.7624  -32.4746   23.0661 H   0  0  0  0  0  0
  -24.9987  -33.9177   24.9857 H   0  0  0  0  0  0
  -22.8875  -31.2030   21.2738 H   0  0  0  0  0  0
  -23.3791  -35.9370   23.3275 H   0  0  0  0  0  0
  -24.3522  -36.8811   22.2082 H   0  0  0  0  0  0
  -23.7222  -37.6222   23.6790 H   0  0  0  0  0  0
  -26.3726  -31.1273   20.6441 H   0  0  0  0  0  0
  -26.9739  -30.4924   22.1173 H   0  0  0  0  0  0
  -28.1712  -28.1405   21.3827 H   0  0  0  0  0  0
  -25.8333  -25.4996   18.9576 H   0  0  0  0  0  0
  -24.0933  -27.1579   18.8870 H   0  0  0  0  0  0
  -24.0098  -30.3776   19.3661 H   0  0  0  0  0  0
  -22.9185  -29.1037   19.8069 H   0  0  0  0  0  0
  -25.1388  -36.1557   25.0754 H   0  0  0  0  0  0
  -21.0086  -28.3474   24.1211 H   0  0  0  0  0  0
  -20.5626  -26.2457   23.3701 H   0  0  0  0  0  0
  -21.6663  -26.7336   22.1256 H   0  0  0  0  0  0
  -19.6928  -25.6246   21.1331 H   0  0  0  0  0  0
  -19.6742  -27.3114   20.6698 H   0  0  0  0  0  0
  -17.4236  -26.6716   21.4026 H   0  0  0  0  0  0
  -18.0350  -26.0122   22.9035 H   0  0  0  0  0  0
  -19.8001  -30.7368   24.2154 H   0  0  0  0  0  0
  -17.5065  -31.6294   24.5168 H   0  0  0  0  0  0
  -15.5400  -30.2986   23.7723 H   0  0  0  0  0  0
  -15.8728  -28.0796   22.7182 H   0  0  0  0  0  0
  -24.5831  -30.7207   25.7455 H   0  0  0  0  0  0
  -24.8770  -32.3100   26.4369 H   0  0  0  0  0  0
  -25.7693  -30.9157   27.0169 H   0  0  0  0  0  0
  -26.3335  -29.6316   24.1822 H   0  0  0  0  0  0
  -27.3953  -29.7338   25.5616 H   0  0  0  0  0  0
  -27.9369  -30.3828   24.0391 H   0  0  0  0  0  0
  -27.2567  -33.3800   26.1783 H   0  0  0  0  0  0
  -28.3994  -32.6801   25.0417 H   0  0  0  0  0  0
  -28.0566  -31.8721   26.5639 H   0  0  0  0  0  0
  -28.2550  -38.0019   24.7511 H   0  0  0  0  0  0
  -28.1096  -36.2538   24.6317 H   0  0  0  0  0  0
  -27.2261  -37.1352   25.8862 H   0  0  0  0  0  0
  -20.9850  -29.8618   21.6355 H   0  0  0  0  0  0
  -26.0084  -38.2654   24.1418 H   0  0  0  0  0  0
  -30.0686  -20.6819   22.2186 H   0  0  0  0  0  0
  -29.5941  -22.3781   22.2743 H   0  0  0  0  0  0
  -30.7843  -21.8340   21.0964 H   0  0  0  0  0  0
  -27.5834  -20.0723   21.9871 H   0  0  0  0  0  0
  -26.6531  -20.6908   20.6283 H   0  0  0  0  0  0
  -27.1123  -21.7691   21.9410 H   0  0  0  0  0  0
  -30.4033  -19.5148   19.7349 H   0  0  0  0  0  0
  -28.8678  -19.2894   19.0248 H   0  0  0  0  0  0
  -27.4231  -23.1217   19.3776 H   0  0  0  0  0  0
  -29.1029  -23.3676   19.2306 H   0  0  0  0  0  0
  -28.4630  -17.2303   20.6449 H   0  0  0  0  0  0
  1 25  1  0  0  0
  1 30  2  0  0  0
  1 76  1  0  0  0
  2  3  1  0  0  0
  2 25  1  0  0  0
  2 77  1  0  0  0
  2 78  1  0  0  0
  3  4  1  0  0  0
  3 79  1  0  0  0
  3 80  1  0  0  0
  4  5  1  0  0  0
  4 81  1  0  0  0
  4 82  1  0  0  0
  5  6  1  0  0  0
  5 26  1  0  0  0
  5 83  1  0  0  0
  6 25  1  0  0  0
  6 84  1  0  0  0
  6 85  1  0  0  0
  7  8  2  0  0  0
  7 26  1  0  0  0
  7 29  1  0  0  0
  8  9  1  0  0  0
  8 22  1  0  0  0
  9 10  1  0  0  0
  9 27  2  0  0  0
 10 11  2  0  0  0
 10 15  1  0  0  0
 11 12  1  0  0  0
 11 86  1  0  0  0
 12 13  2  0  0  0
 12 87  1  0  0  0
 13 14  1  0  0  0
 13 31  1  0  0  0
 14 15  2  0  0  0
 14 88  1  0  0  0
 15 89  1  0  0  0
 16 17  2  0  0  0
 16 21  1  0  0  0
 16 31  1  0  0  0
 17 18  1  0  0  0
 17 90  1  0  0  0
 18 19  2  0  0  0
 18 91  1  0  0  0
 19 20  1  0  0  0
 19 24  1  0  0  0
 20 21  2  0  0  0
 20 92  1  0  0  0
 21 23  1  0  0  0
 22 28  1  0  0  0
 22 32  2  0  0  0
 26 27  1  0  0  0
 28 93  1  0  0  0
 28 94  1  0  0  0
 29 95  1  0  0  0
 29 96  1  0  0  0
 33 34  1  0  0  0
 33 66  1  0  0  0
 33 70  2  0  0  0
 34 36  1  0  0  0
 34 59  1  0  0  0
 34 97  1  0  0  0
 35 44  2  0  0  0
 35 45  1  0  0  0
 35 68  1  0  0  0
 36 56  1  0  0  0
 36 98  1  0  0  0
 37 39  1  0  0  0
 37 47  1  0  0  0
 37 66  1  0  0  0
 37 99  1  0  0  0
 38 43  2  0  0  0
 38 46  1  0  0  0
 38 47  1  0  0  0
 39 64  1  0  0  0
 39 67  2  0  0  0
 40 52  1  0  0  0
 40 53  2  0  0  0
 40 58  1  0  0  0
 41100  1  0  0  0
 41101  1  0  0  0
 41102  1  0  0  0
 41 48  1  0  0  0
 42 43  1  0  0  0
 42 66  1  0  0  0
 42103  1  0  0  0
 42104  1  0  0  0
 43 44  1  0  0  0
 44105  1  0  0  0
 45 46  2  0  0  0
 45106  1  0  0  0
 46107  1  0  0  0
 47108  1  0  0  0
 47109  1  0  0  0
 48 56  1  0  0  0
 48 65  1  0  0  0
 48110  1  0  0  0
 49 50  1  0  0  0
 49 53  1  0  0  0
 49 64  1  0  0  0
 49111  1  0  0  0
 50 51  1  0  0  0
 50112  1  0  0  0
 50113  1  0  0  0
 51 52  1  0  0  0
 51114  1  0  0  0
 51115  1  0  0  0
 52116  1  0  0  0
 52117  1  0  0  0
 53 54  1  0  0  0
 54 55  2  0  0  0
 54118  1  0  0  0
 55 57  1  0  0  0
 55119  1  0  0  0
 56 69  2  0  0  0
 57 58  2  0  0  0
 57120  1  0  0  0
 58121  1  0  0  0
 59 60  1  0  0  0
 59 61  1  0  0  0
 59 62  1  0  0  0
 60122  1  0  0  0
 60123  1  0  0  0
 60124  1  0  0  0
 61125  1  0  0  0
 61126  1  0  0  0
 61127  1  0  0  0
 62128  1  0  0  0
 62129  1  0  0  0
 62130  1  0  0  0
 63 65  1  0  0  0
 63131  1  0  0  0
 63132  1  0  0  0
 63133  1  0  0  0
 64134  1  0  0  0
 65135  1  0  0  0
 68 74  1  0  0  0
 71136  1  0  0  0
 71137  1  0  0  0
 71138  1  0  0  0
 71 75  1  0  0  0
 72 75  1  0  0  0
 72139  1  0  0  0
 72140  1  0  0  0
 72141  1  0  0  0
 73 75  1  0  0  0
 73 76  1  0  0  0
 73142  1  0  0  0
 73143  1  0  0  0
 74 75  1  0  0  0
 74144  1  0  0  0
 74145  1  0  0  0
 76146  1  0  0  0
M  ISO  4   1 100  68 101  74 101  76 100
M  END
> <chiral flag>
0

> <version>
0

> <s_m_source_file>
/data/baiqing/PycharmProjects/Reinvent-master-3.2/result/LINK_invent/BTK/process_docking_weight1_custom_sum_contain_oxygen_bond_distance_aromatic_linkinvent_7_9_3/rearranged_h_0108.sdf

> <i_m_source_file_index>
28

> <r_mmod_Potential_Energy-OPLS-2005>
4154.009765625

> <r_mmod_Stretch_Energy-OPLS-2005>
1946.06066894531

> <r_mmod_Bend_Energy-OPLS-2005>
907.354675292969

> <r_mmod_Torsional_Energy-OPLS-2005>
237.135360717773

> <r_mmod_Improper_Torsional_Energy-OPLS-2005>
4.05898284912109

> <r_mmod_Van_der_Waal_Energy-OPLS-2005>
111.919425964355

> <r_mmod_Electrostatic_Energy-OPLS-2005>
-373.071075439453

> <r_mmod_Solvation_Energy-OPLS-2005>
-217.193542480469

> <b_mmod_Minimization_Converged-OPLS-2005>
0

> <r_mmod_RMS_Derivative-OPLS-2005>
2.43039011955261

$$$$
28
                    3D
 Structure written by MMmdl.
158165  0  0  1  0            999 V2000
  -30.4768  -15.1927   20.3855 C   0  0  0  0  0  0
  -30.4473  -12.7653   19.5137 C   0  0  0  0  0  0
  -29.5303  -12.5619   18.2818 C   0  0  0  0  0  0
  -28.0779  -12.3019   18.7188 C   0  0  0  0  0  0
  -27.6191  -13.2719   19.8349 C   0  0  2  0  0  0
  -28.6632  -13.4132   20.9640 C   0  0  0  0  0  0
  -25.2425  -13.8232   20.5810 C   0  0  0  0  0  0
  -24.1763  -13.0430   20.9323 C   0  0  0  0  0  0
  -24.6412  -11.6928   20.8810 C   0  0  0  0  0  0
  -23.9096  -10.4291   21.0432 C   0  0  0  0  0  0
  -24.3626   -9.4205   21.9220 C   0  0  0  0  0  0
  -23.6299   -8.2232   22.0757 C   0  0  0  0  0  0
  -22.4293   -8.0276   21.3537 C   0  0  0  0  0  0
  -21.9939   -9.0260   20.4643 C   0  0  0  0  0  0
  -22.7263  -10.2142   20.3079 C   0  0  0  0  0  0
  -21.6866   -6.0732   22.5291 C   0  0  0  0  0  0
  -21.4019   -6.5640   23.8225 C   0  0  0  0  0  0
  -21.3670   -5.6798   24.9187 C   0  0  0  0  0  0
  -21.6052   -4.3061   24.7247 C   0  0  0  0  0  0
  -21.8822   -3.8142   23.4376 C   0  0  0  0  0  0
  -21.9192   -4.6950   22.3423 C   0  0  0  0  0  0
  -22.7786  -13.5188   21.1907 C   0  0  0  0  0  0
  -22.1643   -4.2129   21.1001 F   0  0  0  0  0  0
  -21.5634   -3.4549   25.7766 F   0  0  0  0  0  0
  -29.9015  -13.8988   20.3369 N   0  0  0  0  0  0
  -26.2855  -12.9500   20.3310 N   0  0  0  0  0  0
  -25.9349  -11.6609   20.5796 N   0  0  0  0  0  0
  -22.0432  -12.8186   22.0457 N   0  0  0  0  0  0
  -25.4051  -15.1951   20.4155 N   0  0  0  0  0  0
  -31.6942  -15.2085   20.1669 O   0  0  0  0  0  0
  -21.6647   -6.8868   21.4248 O   0  0  0  0  0  0
  -22.3488  -14.5487   20.6717 O   0  0  0  0  0  0
  -24.6620  -31.8285   23.1742 C   0  0  0  0  0  0
  -25.9320  -32.4610   23.8214 C   0  0  1  0  0  0
  -27.2375  -26.9873   20.1701 C   0  0  0  0  0  0
  -25.6009  -33.8424   24.2135 N   0  0  0  0  0  0
  -23.4744  -30.4420   21.5189 C   0  0  2  0  0  0
  -24.9306  -28.8370   20.1099 C   0  0  0  0  0  0
  -22.7659  -29.4479   22.4748 C   0  0  0  0  0  0
  -18.0340  -28.1418   22.8461 C   0  0  0  0  0  0
  -24.1486  -36.7230   23.2641 C   0  0  0  0  0  0
  -26.0385  -30.6554   21.3922 C   0  0  0  0  0  0
  -26.1103  -29.2481   20.7417 C   0  0  0  0  0  0
  -27.2555  -28.3414   20.7541 C   0  0  0  0  0  0
  -26.0327  -26.7194   19.4813 C   0  0  0  0  0  0
  -24.9141  -27.5903   19.4635 C   0  0  0  0  0  0
  -23.7153  -29.7599   20.1429 C   0  0  0  0  0  0
  -25.4118  -36.2981   24.0310 C   0  0  1  0  0  0
  -20.5957  -28.3781   23.1165 C   0  0  2  0  0  0
  -20.6792  -26.9457   22.5387 C   0  0  0  0  0  0
  -19.5763  -26.6392   21.5202 C   0  0  0  0  0  0
  -18.1951  -26.7952   22.1616 C   0  0  0  0  0  0
  -19.1597  -28.8917   23.2810 C   0  0  0  0  0  0
  -18.9507  -30.1493   23.8860 C   0  0  0  0  0  0
  -17.6497  -30.6598   24.0571 C   0  0  0  0  0  0
  -25.9088  -34.9363   23.5035 C   0  0  0  0  0  0
  -16.5392  -29.9097   23.6327 C   0  0  0  0  0  0
  -16.7317  -28.6521   23.0344 C   0  0  0  0  0  0
  -26.4585  -31.6521   25.0715 C   0  0  0  0  0  0
  -25.3728  -31.3756   26.1383 C   0  0  0  0  0  0
  -27.0463  -30.2895   24.6393 C   0  0  0  0  0  0
  -27.6084  -32.4315   25.7516 C   0  0  0  0  0  0
  -27.5564  -37.1770   24.8466 C   0  0  0  0  0  0
  -21.4332  -29.3085   22.3508 N   0  0  0  0  0  0
  -26.4265  -37.3720   23.9421 N   0  0  0  0  0  0
  -24.7460  -31.0003   22.0834 N   0  0  0  0  0  0
  -23.4222  -28.8040   23.2973 O   0  0  0  0  0  0
  -28.2610  -25.9220   20.2735 O   0  0  0  0  0  0
  -26.5659  -34.8894   22.4607 O   0  0  0  0  0  0
  -23.5700  -32.1221   23.6856 O   0  0  0  0  0  0
  -28.4669  -22.7655   22.0246 C   0  0  0  0  0  0
  -26.9144  -19.9159   21.6578 C   0  0  0  0  0  0
  -26.6146  -18.7221   19.5440 C   0  0  0  0  0  0
  -30.0069  -18.0760   20.4674 C   0  0  0  0  0  0
  -28.1352  -24.3399   19.9012 C   0  0  0  0  0  0
  -28.8622  -22.8485   20.5466 C   0  0  2  0  0  0
  -28.9157  -19.4550   20.1810 C   0  0  2  0  0  0
  -29.0438  -21.2242   19.8198 C   0  0  2  0  0  0
  -29.7068  -16.4416   20.4758 N   0  0  0  0  0  0
  -27.5533  -19.0507   20.6460 N   0  3  0  0  0  0
  -30.1722  -21.3203   19.1133 F   0  0  0  0  0  0
  -31.4624  -12.9750   19.1729 H   0  0  0  0  0  0
  -30.5160  -11.8516   20.1066 H   0  0  0  0  0  0
  -29.8923  -11.7345   17.6705 H   0  0  0  0  0  0
  -29.5682  -13.4496   17.6486 H   0  0  0  0  0  0
  -28.0304  -11.2797   19.0946 H   0  0  0  0  0  0
  -27.4000  -12.3477   17.8655 H   0  0  0  0  0  0
  -27.5441  -14.2480   19.3542 H   0  0  0  0  0  0
  -28.8198  -12.4653   21.4803 H   0  0  0  0  0  0
  -28.3255  -14.1303   21.7131 H   0  0  0  0  0  0
  -25.2741   -9.5685   22.4838 H   0  0  0  0  0  0
  -24.0002   -7.4614   22.7472 H   0  0  0  0  0  0
  -21.0880   -8.8785   19.8941 H   0  0  0  0  0  0
  -22.3701  -10.9696   19.6214 H   0  0  0  0  0  0
  -21.2005   -7.6149   23.9716 H   0  0  0  0  0  0
  -21.1492   -6.0539   25.9093 H   0  0  0  0  0  0
  -22.0591   -2.7603   23.2907 H   0  0  0  0  0  0
  -22.4071  -11.9862   22.4872 H   0  0  0  0  0  0
  -21.1017  -13.1139   22.2579 H   0  0  0  0  0  0
  -24.5954  -15.8050   20.4487 H   0  0  0  0  0  0
  -26.1668  -15.5712   19.8691 H   0  0  0  0  0  0
  -26.7400  -32.5173   23.0948 H   0  0  0  0  0  0
  -25.0214  -33.9532   25.0325 H   0  0  0  0  0  0
  -22.7898  -31.2749   21.3483 H   0  0  0  0  0  0
  -23.3758  -35.9553   23.3260 H   0  0  0  0  0  0
  -24.3575  -36.8911   22.2065 H   0  0  0  0  0  0
  -23.7239  -37.6412   23.6715 H   0  0  0  0  0  0
  -26.2053  -31.3986   20.6099 H   0  0  0  0  0  0
  -26.9044  -30.7191   22.0388 H   0  0  0  0  0  0
  -28.1467  -28.6588   21.2792 H   0  0  0  0  0  0
  -25.9272  -25.7753   18.9687 H   0  0  0  0  0  0
  -24.0218  -27.2683   18.9452 H   0  0  0  0  0  0
  -23.8808  -30.5324   19.3916 H   0  0  0  0  0  0
  -22.8267  -29.2198   19.8105 H   0  0  0  0  0  0
  -25.1302  -36.1786   25.0801 H   0  0  0  0  0  0
  -21.0077  -28.3396   24.1277 H   0  0  0  0  0  0
  -20.5650  -26.2419   23.3648 H   0  0  0  0  0  0
  -21.6658  -26.7401   22.1213 H   0  0  0  0  0  0
  -19.6921  -25.6292   21.1262 H   0  0  0  0  0  0
  -19.6686  -27.3173   20.6707 H   0  0  0  0  0  0
  -17.4220  -26.6717   21.4021 H   0  0  0  0  0  0
  -18.0342  -26.0097   22.9012 H   0  0  0  0  0  0
  -19.7980  -30.7319   24.2211 H   0  0  0  0  0  0
  -17.5052  -31.6260   24.5202 H   0  0  0  0  0  0
  -15.5388  -30.2998   23.7649 H   0  0  0  0  0  0
  -15.8721  -28.0830   22.7060 H   0  0  0  0  0  0
  -24.5962  -30.7031   25.7729 H   0  0  0  0  0  0
  -24.8860  -32.2941   26.4671 H   0  0  0  0  0  0
  -25.7997  -30.9057   27.0251 H   0  0  0  0  0  0
  -26.3095  -29.6570   24.1429 H   0  0  0  0  0  0
  -27.4054  -29.7258   25.5016 H   0  0  0  0  0  0
  -27.9018  -30.4093   23.9739 H   0  0  0  0  0  0
  -27.2677  -33.3681   26.1949 H   0  0  0  0  0  0
  -28.3980  -32.6765   25.0396 H   0  0  0  0  0  0
  -28.0656  -31.8525   26.5557 H   0  0  0  0  0  0
  -28.2549  -38.0095   24.7525 H   0  0  0  0  0  0
  -28.1084  -36.2624   24.6255 H   0  0  0  0  0  0
  -27.2285  -37.1363   25.8867 H   0  0  0  0  0  0
  -20.9574  -29.8846   21.6694 H   0  0  0  0  0  0
  -26.0109  -38.2775   24.1445 H   0  0  0  0  0  0
  -28.7270  -23.6873   22.5458 H   0  0  0  0  0  0
  -28.9990  -21.9594   22.5270 H   0  0  0  0  0  0
  -27.3951  -22.6277   22.1527 H   0  0  0  0  0  0
  -26.5129  -20.8220   21.2037 H   0  0  0  0  0  0
  -27.6018  -20.1761   22.4605 H   0  0  0  0  0  0
  -26.0758  -19.3898   22.1166 H   0  0  0  0  0  0
  -25.6567  -18.3692   19.9276 H   0  0  0  0  0  0
  -27.0136  -17.9307   18.9073 H   0  0  0  0  0  0
  -26.4206  -19.6004   18.9251 H   0  0  0  0  0  0
  -30.4475  -18.2629   21.4484 H   0  0  0  0  0  0
  -30.8519  -18.2055   19.7896 H   0  0  0  0  0  0
  -27.0683  -24.1261   19.9026 H   0  0  0  0  0  0
  -28.3976  -24.3319   18.8417 H   0  0  0  0  0  0
  -29.9107  -23.1454   20.6043 H   0  0  0  0  0  0
  -28.8623  -19.2067   19.1201 H   0  0  0  0  0  0
  -28.2986  -21.3181   19.0289 H   0  0  0  0  0  0
  -28.7311  -16.2200   20.5971 H   0  0  0  0  0  0
  -27.7152  -18.1846   21.1353 H   0  0  0  0  0  0
  1 25  1  0  0  0
  1 30  2  0  0  0
  1 79  1  0  0  0
  2  3  1  0  0  0
  2 25  1  0  0  0
  2 82  1  0  0  0
  2 83  1  0  0  0
  3  4  1  0  0  0
  3 84  1  0  0  0
  3 85  1  0  0  0
  4  5  1  0  0  0
  4 86  1  0  0  0
  4 87  1  0  0  0
  5  6  1  0  0  0
  5 26  1  0  0  0
  5 88  1  0  0  0
  6 25  1  0  0  0
  6 89  1  0  0  0
  6 90  1  0  0  0
  7  8  2  0  0  0
  7 26  1  0  0  0
  7 29  1  0  0  0
  8  9  1  0  0  0
  8 22  1  0  0  0
  9 10  1  0  0  0
  9 27  2  0  0  0
 10 11  2  0  0  0
 10 15  1  0  0  0
 11 12  1  0  0  0
 11 91  1  0  0  0
 12 13  2  0  0  0
 12 92  1  0  0  0
 13 14  1  0  0  0
 13 31  1  0  0  0
 14 15  2  0  0  0
 14 93  1  0  0  0
 15 94  1  0  0  0
 16 17  2  0  0  0
 16 21  1  0  0  0
 16 31  1  0  0  0
 17 18  1  0  0  0
 17 95  1  0  0  0
 18 19  2  0  0  0
 18 96  1  0  0  0
 19 20  1  0  0  0
 19 24  1  0  0  0
 20 21  2  0  0  0
 20 97  1  0  0  0
 21 23  1  0  0  0
 22 28  1  0  0  0
 22 32  2  0  0  0
 26 27  1  0  0  0
 28 98  1  0  0  0
 28 99  1  0  0  0
 29100  1  0  0  0
 29101  1  0  0  0
 33 34  1  0  0  0
 33 66  1  0  0  0
 33 70  2  0  0  0
 34 36  1  0  0  0
 34 59  1  0  0  0
 34102  1  0  0  0
 35 44  2  0  0  0
 35 45  1  0  0  0
 35 68  1  0  0  0
 36 56  1  0  0  0
 36103  1  0  0  0
 37 39  1  0  0  0
 37 47  1  0  0  0
 37 66  1  0  0  0
 37104  1  0  0  0
 38 43  2  0  0  0
 38 46  1  0  0  0
 38 47  1  0  0  0
 39 64  1  0  0  0
 39 67  2  0  0  0
 40 52  1  0  0  0
 40 53  2  0  0  0
 40 58  1  0  0  0
 41105  1  0  0  0
 41106  1  0  0  0
 41107  1  0  0  0
 41 48  1  0  0  0
 42 43  1  0  0  0
 42 66  1  0  0  0
 42108  1  0  0  0
 42109  1  0  0  0
 43 44  1  0  0  0
 44110  1  0  0  0
 45 46  2  0  0  0
 45111  1  0  0  0
 46112  1  0  0  0
 47113  1  0  0  0
 47114  1  0  0  0
 48 56  1  0  0  0
 48 65  1  0  0  0
 48115  1  0  0  0
 49 50  1  0  0  0
 49 53  1  0  0  0
 49 64  1  0  0  0
 49116  1  0  0  0
 50 51  1  0  0  0
 50117  1  0  0  0
 50118  1  0  0  0
 51 52  1  0  0  0
 51119  1  0  0  0
 51120  1  0  0  0
 52121  1  0  0  0
 52122  1  0  0  0
 53 54  1  0  0  0
 54 55  2  0  0  0
 54123  1  0  0  0
 55 57  1  0  0  0
 55124  1  0  0  0
 56 69  2  0  0  0
 57 58  2  0  0  0
 57125  1  0  0  0
 58126  1  0  0  0
 59 60  1  0  0  0
 59 61  1  0  0  0
 59 62  1  0  0  0
 60127  1  0  0  0
 60128  1  0  0  0
 60129  1  0  0  0
 61130  1  0  0  0
 61131  1  0  0  0
 61132  1  0  0  0
 62133  1  0  0  0
 62134  1  0  0  0
 62135  1  0  0  0
 63 65  1  0  0  0
 63136  1  0  0  0
 63137  1  0  0  0
 63138  1  0  0  0
 64139  1  0  0  0
 65140  1  0  0  0
 68 75  1  0  0  0
 71141  1  0  0  0
 71142  1  0  0  0
 71143  1  0  0  0
 71 76  1  0  0  0
 72144  1  0  0  0
 72145  1  0  0  0
 72146  1  0  0  0
 72 80  1  0  0  0
 73 80  1  0  0  0
 73147  1  0  0  0
 73148  1  0  0  0
 73149  1  0  0  0
 74 79  1  0  0  0
 74150  1  0  0  0
 74151  1  0  0  0
 74 77  1  0  0  0
 75 76  1  0  0  0
 75152  1  0  0  0
 75153  1  0  0  0
 76 78  1  0  0  0
 76154  1  0  0  0
 77 78  1  0  0  0
 77 80  1  0  0  0
 77155  1  0  0  0
 78 81  1  0  0  0
 78156  1  0  0  0
 79157  1  0  0  0
 80158  1  0  0  0
M  CHG  1  80   1
M  ISO  4   1 100  68 101  75 101  79 100
M  END
> <chiral flag>
0

> <version>
0

> <s_m_source_file>
/data/baiqing/PycharmProjects/Reinvent-master-3.2/result/LINK_invent/BTK/process_docking_weight1_custom_sum_contain_oxygen_bond_distance_aromatic_linkinvent_7_9_3/rearranged_h_0108.sdf

> <i_m_source_file_index>
29

> <r_mmod_Potential_Energy-OPLS-2005>
1115.80981445312

> <r_mmod_Stretch_Energy-OPLS-2005>
570.874877929688

> <r_mmod_Bend_Energy-OPLS-2005>
494.376770019531

> <r_mmod_Torsional_Energy-OPLS-2005>
288.614013671875

> <r_mmod_Improper_Torsional_Energy-OPLS-2005>
5.77846431732178

> <r_mmod_Van_der_Waal_Energy-OPLS-2005>
110.309989929199

> <r_mmod_Electrostatic_Energy-OPLS-2005>
-240.426055908203

> <r_mmod_Solvation_Energy-OPLS-2005>
-494.419189453125

> <b_mmod_Minimization_Converged-OPLS-2005>
0

> <r_mmod_RMS_Derivative-OPLS-2005>
3.09418702125549

$$$$
29
                    3D
 Structure written by MMmdl.
170177  0  0  1  0            999 V2000
  -30.5008  -14.8915   20.3989 C   0  0  0  0  0  0
  -30.4565  -12.5462   19.4434 C   0  0  0  0  0  0
  -29.5125  -12.4969   18.2210 C   0  0  0  0  0  0
  -28.0429  -12.2993   18.6513 C   0  0  0  0  0  0
  -27.6313  -13.2250   19.8260 C   0  0  2  0  0  0
  -28.6876  -13.2037   20.9471 C   0  0  0  0  0  0
  -25.2545  -13.8155   20.5706 C   0  0  0  0  0  0
  -24.1828  -13.0406   20.9250 C   0  0  0  0  0  0
  -24.6418  -11.6904   20.8781 C   0  0  0  0  0  0
  -23.9067  -10.4296   21.0439 C   0  0  0  0  0  0
  -24.3618   -9.4216   21.9206 C   0  0  0  0  0  0
  -23.6267   -8.2244   22.0773 C   0  0  0  0  0  0
  -22.4271   -8.0273   21.3554 C   0  0  0  0  0  0
  -21.9889   -9.0271   20.4693 C   0  0  0  0  0  0
  -22.7211  -10.2141   20.3107 C   0  0  0  0  0  0
  -21.6868   -6.0749   22.5283 C   0  0  0  0  0  0
  -21.4030   -6.5633   23.8226 C   0  0  0  0  0  0
  -21.3660   -5.6783   24.9181 C   0  0  0  0  0  0
  -21.6063   -4.3055   24.7244 C   0  0  0  0  0  0
  -21.8829   -3.8168   23.4369 C   0  0  0  0  0  0
  -21.9183   -4.6980   22.3426 C   0  0  0  0  0  0
  -22.7855  -13.5215   21.1873 C   0  0  0  0  0  0
  -22.1681   -4.2153   21.1011 F   0  0  0  0  0  0
  -21.5579   -3.4539   25.7767 F   0  0  0  0  0  0
  -29.9562  -13.6205   20.3364 N   0  0  0  0  0  0
  -26.2920  -12.9336   20.3210 N   0  0  0  0  0  0
  -25.9334  -11.6505   20.5723 N   0  0  0  0  0  0
  -22.0504  -12.8323   22.0544 N   0  0  0  0  0  0
  -25.4230  -15.1887   20.4239 N   0  0  0  0  0  0
  -31.7205  -15.0213   20.2592 O   0  0  0  0  0  0
  -21.6641   -6.8883   21.4240 O   0  0  0  0  0  0
  -22.3574  -14.5457   20.6569 O   0  0  0  0  0  0
  -24.6399  -31.8402   23.1855 C   0  0  0  0  0  0
  -25.9172  -32.4673   23.8247 C   0  0  1  0  0  0
  -27.2360  -27.1462   20.1251 C   0  0  0  0  0  0
  -25.5951  -33.8486   24.2176 N   0  0  0  0  0  0
  -23.4462  -30.4519   21.5286 C   0  0  2  0  0  0
  -24.9032  -28.8805   20.1045 C   0  0  0  0  0  0
  -22.7571  -29.4449   22.4820 C   0  0  0  0  0  0
  -18.0307  -28.1346   22.8499 C   0  0  0  0  0  0
  -24.1487  -36.7277   23.2635 C   0  0  0  0  0  0
  -25.9988  -30.7180   21.3815 C   0  0  0  0  0  0
  -26.0763  -29.3270   20.7213 C   0  0  0  0  0  0
  -27.2366  -28.4703   20.7237 C   0  0  0  0  0  0
  -26.0364  -26.7902   19.4781 C   0  0  0  0  0  0
  -24.8938  -27.6225   19.4777 C   0  0  0  0  0  0
  -23.6727  -29.7731   20.1515 C   0  0  0  0  0  0
  -25.4120  -36.3010   24.0282 C   0  0  1  0  0  0
  -20.5917  -28.3640   23.1278 C   0  0  2  0  0  0
  -20.6759  -26.9338   22.5439 C   0  0  0  0  0  0
  -19.5739  -26.6333   21.5244 C   0  0  0  0  0  0
  -18.1914  -26.7898   22.1630 C   0  0  0  0  0  0
  -19.1573  -28.8828   23.2866 C   0  0  0  0  0  0
  -18.9483  -30.1433   23.8857 C   0  0  0  0  0  0
  -17.6476  -30.6549   24.0540 C   0  0  0  0  0  0
  -25.9068  -34.9382   23.5029 C   0  0  0  0  0  0
  -16.5358  -29.9028   23.6342 C   0  0  0  0  0  0
  -16.7291  -28.6450   23.0351 C   0  0  0  0  0  0
  -26.4533  -31.6575   25.0719 C   0  0  0  0  0  0
  -25.3744  -31.3815   26.1453 C   0  0  0  0  0  0
  -27.0401  -30.2950   24.6324 C   0  0  0  0  0  0
  -27.5993  -32.4412   25.7562 C   0  0  0  0  0  0
  -27.5559  -37.1791   24.8450 C   0  0  0  0  0  0
  -21.4253  -29.3009   22.3652 N   0  0  0  0  0  0
  -26.4278  -37.3723   23.9394 N   0  0  0  0  0  0
  -24.7140  -31.0221   22.0886 N   0  0  0  0  0  0
  -23.4235  -28.8015   23.2968 O   0  0  0  0  0  0
  -28.3245  -26.2150   20.2160 O   0  0  0  0  0  0
  -26.5622  -34.8867   22.4593 O   0  0  0  0  0  0
  -23.5520  -32.1274   23.7056 O   0  0  0  0  0  0
  -28.9930  -23.5607   21.8452 C   0  0  0  0  0  0
  -29.9433  -18.8236   23.2176 C   0  0  0  0  0  0
  -30.1793  -15.9817   24.4665 C   0  0  0  0  0  0
  -27.9671  -16.5424   23.5964 C   0  0  0  0  0  0
  -29.0595  -21.8801   19.8535 C   0  0  0  0  0  0
  -29.5905  -18.9153   20.1092 C   0  0  0  0  0  0
  -28.4219  -24.7793   19.6355 C   0  0  0  0  0  0
  -28.4007  -23.3163   20.4495 C   0  0  2  0  0  0
  -29.4861  -17.4683   20.9800 C   0  0  2  0  0  0
  -30.0273  -17.4803   22.4594 C   0  0  2  0  0  0
  -28.7755  -20.3586   20.4991 C   0  0  2  0  0  0
  -29.6012  -15.9861   20.4281 N   0  0  0  0  0  0
  -27.3165  -20.1312   20.4320 N   0  3  0  0  0  0
  -29.4091  -16.3740   23.2650 N   0  3  0  0  0  0
  -31.4842  -12.7183   19.1108 H   0  0  0  0  0  0
  -30.4666  -11.5839   19.9565 H   0  0  0  0  0  0
  -29.8086  -11.6876   17.5513 H   0  0  0  0  0  0
  -29.6073  -13.4256   17.6554 H   0  0  0  0  0  0
  -27.9328  -11.2547   18.9517 H   0  0  0  0  0  0
  -27.3701  -12.4434   17.8061 H   0  0  0  0  0  0
  -27.5957  -14.2343   19.4116 H   0  0  0  0  0  0
  -28.7756  -12.2027   21.3736 H   0  0  0  0  0  0
  -28.4061  -13.8680   21.7634 H   0  0  0  0  0  0
  -25.2793   -9.5686   22.4735 H   0  0  0  0  0  0
  -24.0007   -7.4658   22.7500 H   0  0  0  0  0  0
  -21.0801   -8.8838   19.9021 H   0  0  0  0  0  0
  -22.3695  -10.9705   19.6241 H   0  0  0  0  0  0
  -21.2058   -7.6165   23.9740 H   0  0  0  0  0  0
  -21.1422   -6.0532   25.9072 H   0  0  0  0  0  0
  -22.0595   -2.7622   23.2882 H   0  0  0  0  0  0
  -22.4079  -12.0041   22.5076 H   0  0  0  0  0  0
  -21.1161  -13.1466   22.2731 H   0  0  0  0  0  0
  -24.6122  -15.7982   20.4738 H   0  0  0  0  0  0
  -26.1911  -15.6073   19.9196 H   0  0  0  0  0  0
  -26.7238  -32.5285   23.0968 H   0  0  0  0  0  0
  -25.0155  -33.9656   25.0349 H   0  0  0  0  0  0
  -22.7533  -31.2780   21.3662 H   0  0  0  0  0  0
  -23.3718  -35.9643   23.3286 H   0  0  0  0  0  0
  -24.3562  -36.8962   22.2067 H   0  0  0  0  0  0
  -23.7321  -37.6485   23.6714 H   0  0  0  0  0  0
  -26.1426  -31.4801   20.6130 H   0  0  0  0  0  0
  -26.8740  -30.7732   22.0202 H   0  0  0  0  0  0
  -28.1334  -28.7973   21.2332 H   0  0  0  0  0  0
  -25.9515  -25.8292   18.9951 H   0  0  0  0  0  0
  -23.9942  -27.2748   18.9890 H   0  0  0  0  0  0
  -23.7949  -30.5434   19.3896 H   0  0  0  0  0  0
  -22.7964  -29.2019   19.8418 H   0  0  0  0  0  0
  -25.1313  -36.1795   25.0775 H   0  0  0  0  0  0
  -21.0006  -28.3193   24.1393 H   0  0  0  0  0  0
  -20.5627  -26.2229   23.3629 H   0  0  0  0  0  0
  -21.6608  -26.7319   22.1234 H   0  0  0  0  0  0
  -19.6855  -25.6255   21.1263 H   0  0  0  0  0  0
  -19.6661  -27.3152   20.6789 H   0  0  0  0  0  0
  -17.4180  -26.6706   21.4017 H   0  0  0  0  0  0
  -18.0218  -26.0035   22.9011 H   0  0  0  0  0  0
  -19.7944  -30.7273   24.2164 H   0  0  0  0  0  0
  -17.5005  -31.6222   24.5130 H   0  0  0  0  0  0
  -15.5331  -30.2874   23.7695 H   0  0  0  0  0  0
  -15.8705  -28.0741   22.7055 H   0  0  0  0  0  0
  -24.5853  -30.7226   25.7864 H   0  0  0  0  0  0
  -24.9035  -32.3023   26.4883 H   0  0  0  0  0  0
  -25.8054  -30.9032   27.0245 H   0  0  0  0  0  0
  -26.3033  -29.6696   24.1282 H   0  0  0  0  0  0
  -27.3936  -29.7252   25.4934 H   0  0  0  0  0  0
  -27.8950  -30.4208   23.9680 H   0  0  0  0  0  0
  -27.2474  -33.3682   26.2102 H   0  0  0  0  0  0
  -28.3836  -32.7062   25.0472 H   0  0  0  0  0  0
  -28.0595  -31.8592   26.5563 H   0  0  0  0  0  0
  -28.2525  -38.0119   24.7445 H   0  0  0  0  0  0
  -28.1074  -36.2631   24.6282 H   0  0  0  0  0  0
  -27.2254  -37.1452   25.8842 H   0  0  0  0  0  0
  -20.9367  -29.8815   21.6962 H   0  0  0  0  0  0
  -26.0097  -38.2758   24.1432 H   0  0  0  0  0  0
  -28.8301  -22.7147   22.5138 H   0  0  0  0  0  0
  -28.5455  -24.4400   22.3103 H   0  0  0  0  0  0
  -30.0655  -23.7343   21.7915 H   0  0  0  0  0  0
  -30.5855  -19.5826   22.7647 H   0  0  0  0  0  0
  -30.2784  -18.7268   24.2509 H   0  0  0  0  0  0
  -28.9228  -19.2024   23.2612 H   0  0  0  0  0  0
  -29.8436  -15.0100   24.8318 H   0  0  0  0  0  0
  -30.0455  -16.6967   25.2786 H   0  0  0  0  0  0
  -31.2454  -15.9012   24.2546 H   0  0  0  0  0  0
  -27.5829  -15.6596   24.1052 H   0  0  0  0  0  0
  -27.3410  -16.6813   22.7182 H   0  0  0  0  0  0
  -27.8048  -17.3846   24.2686 H   0  0  0  0  0  0
  -30.1418  -22.0128   19.8822 H   0  0  0  0  0  0
  -28.8391  -21.8198   18.7867 H   0  0  0  0  0  0
  -29.3175  -18.6796   19.0784 H   0  0  0  0  0  0
  -30.6525  -19.1550   20.0522 H   0  0  0  0  0  0
  -27.7646  -24.6956   18.7744 H   0  0  0  0  0  0
  -29.4086  -24.7769   19.1728 H   0  0  0  0  0  0
  -27.3375  -23.1148   20.5884 H   0  0  0  0  0  0
  -28.4077  -17.4943   21.0931 H   0  0  0  0  0  0
  -31.0909  -17.2532   22.3757 H   0  0  0  0  0  0
  -28.9785  -20.5363   21.5446 H   0  0  0  0  0  0
  -28.6867  -15.6380   20.1737 H   0  0  0  0  0  0
  -27.0216  -19.9532   19.4873 H   0  0  0  0  0  0
  -26.8317  -20.9504   20.7582 H   0  0  0  0  0  0
  -27.0167  -19.3675   21.0105 H   0  0  0  0  0  0
  -29.4589  -15.5717   22.6598 H   0  0  0  0  0  0
  1 25  1  0  0  0
  1 30  2  0  0  0
  1 82  1  0  0  0
  2  3  1  0  0  0
  2 25  1  0  0  0
  2 85  1  0  0  0
  2 86  1  0  0  0
  3  4  1  0  0  0
  3 87  1  0  0  0
  3 88  1  0  0  0
  4  5  1  0  0  0
  4 89  1  0  0  0
  4 90  1  0  0  0
  5  6  1  0  0  0
  5 26  1  0  0  0
  5 91  1  0  0  0
  6 25  1  0  0  0
  6 92  1  0  0  0
  6 93  1  0  0  0
  7  8  2  0  0  0
  7 26  1  0  0  0
  7 29  1  0  0  0
  8  9  1  0  0  0
  8 22  1  0  0  0
  9 10  1  0  0  0
  9 27  2  0  0  0
 10 11  2  0  0  0
 10 15  1  0  0  0
 11 12  1  0  0  0
 11 94  1  0  0  0
 12 13  2  0  0  0
 12 95  1  0  0  0
 13 14  1  0  0  0
 13 31  1  0  0  0
 14 15  2  0  0  0
 14 96  1  0  0  0
 15 97  1  0  0  0
 16 17  2  0  0  0
 16 21  1  0  0  0
 16 31  1  0  0  0
 17 18  1  0  0  0
 17 98  1  0  0  0
 18 19  2  0  0  0
 18 99  1  0  0  0
 19 20  1  0  0  0
 19 24  1  0  0  0
 20 21  2  0  0  0
 20100  1  0  0  0
 21 23  1  0  0  0
 22 28  1  0  0  0
 22 32  2  0  0  0
 26 27  1  0  0  0
 28101  1  0  0  0
 28102  1  0  0  0
 29103  1  0  0  0
 29104  1  0  0  0
 33 34  1  0  0  0
 33 66  1  0  0  0
 33 70  2  0  0  0
 34 36  1  0  0  0
 34 59  1  0  0  0
 34105  1  0  0  0
 35 44  2  0  0  0
 35 45  1  0  0  0
 35 68  1  0  0  0
 36 56  1  0  0  0
 36106  1  0  0  0
 37 39  1  0  0  0
 37 47  1  0  0  0
 37 66  1  0  0  0
 37107  1  0  0  0
 38 43  2  0  0  0
 38 46  1  0  0  0
 38 47  1  0  0  0
 39 64  1  0  0  0
 39 67  2  0  0  0
 40 52  1  0  0  0
 40 53  2  0  0  0
 40 58  1  0  0  0
 41108  1  0  0  0
 41109  1  0  0  0
 41110  1  0  0  0
 41 48  1  0  0  0
 42 43  1  0  0  0
 42 66  1  0  0  0
 42111  1  0  0  0
 42112  1  0  0  0
 43 44  1  0  0  0
 44113  1  0  0  0
 45 46  2  0  0  0
 45114  1  0  0  0
 46115  1  0  0  0
 47116  1  0  0  0
 47117  1  0  0  0
 48 56  1  0  0  0
 48 65  1  0  0  0
 48118  1  0  0  0
 49 50  1  0  0  0
 49 53  1  0  0  0
 49 64  1  0  0  0
 49119  1  0  0  0
 50 51  1  0  0  0
 50120  1  0  0  0
 50121  1  0  0  0
 51 52  1  0  0  0
 51122  1  0  0  0
 51123  1  0  0  0
 52124  1  0  0  0
 52125  1  0  0  0
 53 54  1  0  0  0
 54 55  2  0  0  0
 54126  1  0  0  0
 55 57  1  0  0  0
 55127  1  0  0  0
 56 69  2  0  0  0
 57 58  2  0  0  0
 57128  1  0  0  0
 58129  1  0  0  0
 59 60  1  0  0  0
 59 61  1  0  0  0
 59 62  1  0  0  0
 60130  1  0  0  0
 60131  1  0  0  0
 60132  1  0  0  0
 61133  1  0  0  0
 61134  1  0  0  0
 61135  1  0  0  0
 62136  1  0  0  0
 62137  1  0  0  0
 62138  1  0  0  0
 63 65  1  0  0  0
 63139  1  0  0  0
 63140  1  0  0  0
 63141  1  0  0  0
 64142  1  0  0  0
 65143  1  0  0  0
 68 77  1  0  0  0
 71144  1  0  0  0
 71145  1  0  0  0
 71146  1  0  0  0
 71 78  1  0  0  0
 72147  1  0  0  0
 72148  1  0  0  0
 72149  1  0  0  0
 72 80  1  0  0  0
 73150  1  0  0  0
 73151  1  0  0  0
 73152  1  0  0  0
 73 84  1  0  0  0
 74 84  1  0  0  0
 74153  1  0  0  0
 74154  1  0  0  0
 74155  1  0  0  0
 75 78  1  0  0  0
 75 81  1  0  0  0
 75156  1  0  0  0
 75157  1  0  0  0
 76 81  1  0  0  0
 76158  1  0  0  0
 76159  1  0  0  0
 76 79  1  0  0  0
 77 78  1  0  0  0
 77160  1  0  0  0
 77161  1  0  0  0
 78162  1  0  0  0
 79 80  1  0  0  0
 79 82  1  0  0  0
 79163  1  0  0  0
 80 84  1  0  0  0
 80164  1  0  0  0
 81 83  1  0  0  0
 81165  1  0  0  0
 82166  1  0  0  0
 83167  1  0  0  0
 83168  1  0  0  0
 83169  1  0  0  0
 84170  1  0  0  0
M  CHG  2  83   1  84   1
M  ISO  4   1 100  68 101  77 101  82 100
M  END
> <chiral flag>
0

> <version>
0

> <s_m_source_file>
/data/baiqing/PycharmProjects/Reinvent-master-3.2/result/LINK_invent/BTK/process_docking_weight1_custom_sum_contain_oxygen_bond_distance_aromatic_linkinvent_7_9_3/rearranged_h_0108.sdf

> <i_m_source_file_index>
30

> <r_mmod_Potential_Energy-OPLS-2005>
238.64030456543

> <r_mmod_Stretch_Energy-OPLS-2005>
269.060241699219

> <r_mmod_Bend_Energy-OPLS-2005>
315.530334472656

> <r_mmod_Torsional_Energy-OPLS-2005>
302.057220458984

> <r_mmod_Improper_Torsional_Energy-OPLS-2005>
6.0432825088501

> <r_mmod_Van_der_Waal_Energy-OPLS-2005>
106.653717041016

> <r_mmod_Electrostatic_Energy-OPLS-2005>
71.2570724487305

> <r_mmod_Solvation_Energy-OPLS-2005>
-1003.8701171875

> <b_mmod_Minimization_Converged-OPLS-2005>
0

> <r_mmod_RMS_Derivative-OPLS-2005>
6.01889324188232

$$$$
30
                    3D
 Structure written by MMmdl.
179187  0  0  1  0            999 V2000
  -30.7975  -14.3384   20.5938 C   0  0  0  0  0  0
  -30.4045  -12.2532   19.3916 C   0  0  0  0  0  0
  -29.4777  -12.5252   18.1886 C   0  0  0  0  0  0
  -27.9939  -12.4335   18.5939 C   0  0  0  0  0  0
  -27.6707  -13.2166   19.8983 C   0  0  2  0  0  0
  -28.7271  -12.9117   20.9896 C   0  0  0  0  0  0
  -25.2603  -13.8164   20.5766 C   0  0  0  0  0  0
  -24.1870  -13.0468   20.9172 C   0  0  0  0  0  0
  -24.6453  -11.6902   20.8797 C   0  0  0  0  0  0
  -23.9118  -10.4314   21.0446 C   0  0  0  0  0  0
  -24.3657   -9.4210   21.9230 C   0  0  0  0  0  0
  -23.6316   -8.2261   22.0776 C   0  0  0  0  0  0
  -22.4314   -8.0312   21.3555 C   0  0  0  0  0  0
  -21.9960   -9.0313   20.4670 C   0  0  0  0  0  0
  -22.7292  -10.2178   20.3085 C   0  0  0  0  0  0
  -21.6867   -6.0767   22.5289 C   0  0  0  0  0  0
  -21.4027   -6.5665   23.8211 C   0  0  0  0  0  0
  -21.3646   -5.6805   24.9173 C   0  0  0  0  0  0
  -21.6022   -4.3073   24.7211 C   0  0  0  0  0  0
  -21.8814   -3.8173   23.4345 C   0  0  0  0  0  0
  -21.9196   -4.7003   22.3390 C   0  0  0  0  0  0
  -22.7885  -13.5224   21.1810 C   0  0  0  0  0  0
  -22.1672   -4.2182   21.0976 F   0  0  0  0  0  0
  -21.5613   -3.4553   25.7730 F   0  0  0  0  0  0
  -30.0485  -13.2159   20.4343 N   0  0  0  0  0  0
  -26.3107  -12.9407   20.3576 N   0  0  0  0  0  0
  -25.9403  -11.6550   20.5895 N   0  0  0  0  0  0
  -22.0494  -12.8270   22.0336 N   0  0  0  0  0  0
  -25.4264  -15.1897   20.4138 N   0  0  0  0  0  0
  -31.9368  -14.4667   20.1400 O   0  0  0  0  0  0
  -21.6651   -6.8946   21.4255 O   0  0  0  0  0  0
  -22.3556  -14.5545   20.6633 O   0  0  0  0  0  0
  -24.6141  -31.8638   23.2050 C   0  0  0  0  0  0
  -25.9074  -32.4739   23.8341 C   0  0  1  0  0  0
  -27.1818  -27.4064   20.0958 C   0  0  0  0  0  0
  -25.5888  -33.8522   24.2271 N   0  0  0  0  0  0
  -23.4029  -30.4928   21.5492 C   0  0  2  0  0  0
  -24.8398  -28.9791   20.0990 C   0  0  0  0  0  0
  -22.7545  -29.4621   22.4979 C   0  0  0  0  0  0
  -18.0482  -28.1281   22.8424 C   0  0  0  0  0  0
  -24.1502  -36.7268   23.2629 C   0  0  0  0  0  0
  -25.9414  -30.8343   21.3600 C   0  0  0  0  0  0
  -26.0099  -29.4813   20.6767 C   0  0  0  0  0  0
  -27.1936  -28.7036   20.6654 C   0  0  0  0  0  0
  -26.0101  -26.9528   19.4558 C   0  0  0  0  0  0
  -24.8317  -27.7097   19.4928 C   0  0  0  0  0  0
  -23.6010  -29.8393   20.1600 C   0  0  0  0  0  0
  -25.4114  -36.3070   24.0320 C   0  0  1  0  0  0
  -20.6108  -28.3430   23.1358 C   0  0  2  0  0  0
  -20.6933  -26.8977   22.5731 C   0  0  0  0  0  0
  -19.6147  -26.6164   21.5321 C   0  0  0  0  0  0
  -18.2122  -26.7801   22.1402 C   0  0  0  0  0  0
  -19.1762  -28.8687   23.2917 C   0  0  0  0  0  0
  -18.9756  -30.1275   23.8993 C   0  0  0  0  0  0
  -17.6801  -30.6529   24.0594 C   0  0  0  0  0  0
  -25.9029  -34.9394   23.5102 C   0  0  0  0  0  0
  -16.5634  -29.9073   23.6324 C   0  0  0  0  0  0
  -16.7493  -28.6433   23.0366 C   0  0  0  0  0  0
  -26.4486  -31.6536   25.0700 C   0  0  0  0  0  0
  -25.3780  -31.3538   26.1435 C   0  0  0  0  0  0
  -27.0329  -30.2956   24.6174 C   0  0  0  0  0  0
  -27.6069  -32.4265   25.7477 C   0  0  0  0  0  0
  -27.5604  -37.1778   24.8475 C   0  0  0  0  0  0
  -21.4305  -29.2747   22.3611 N   0  0  0  0  0  0
  -26.4345  -37.3744   23.9365 N   0  0  0  0  0  0
  -24.6708  -31.0836   22.0916 N   0  0  0  0  0  0
  -23.4337  -28.8265   23.3026 O   0  0  0  0  0  0
  -28.2361  -26.5461   20.3059 O   0  0  0  0  0  0
  -26.5648  -34.8879   22.4711 O   0  0  0  0  0  0
  -23.5365  -32.1314   23.7507 O   0  0  0  0  0  0
  -24.4888  -23.6403   22.8763 C   0  0  0  0  0  0
  -24.8340  -25.1317   22.8247 C   0  0  0  0  0  0
  -24.7221  -22.9773   21.5097 C   0  0  0  0  0  0
  -26.3048  -25.4073   22.4358 C   0  0  0  0  0  0
  -25.8146  -23.6702   20.6564 C   0  0  0  0  0  0
  -26.9665  -24.3894   21.4378 C   0  0  0  0  0  0
  -29.8134  -15.6921   23.2799 C   0  0  0  0  0  0
  -26.8612  -20.4873   23.6223 C   0  0  0  0  0  0
  -30.3994  -18.8941   22.7262 C   0  0  0  0  0  0
  -27.7165  -23.2992   22.3120 C   0  0  0  0  0  0
  -27.9762  -25.0988   20.3957 C   0  0  0  0  0  0
  -29.0850  -17.4252   21.4016 C   0  0  0  0  0  0
  -28.2884  -19.5503   21.7823 C   0  0  0  0  0  0
  -29.2826  -15.9659   21.8533 C   0  0  1  0  0  0
  -28.0127  -20.7990   22.6437 C   0  0  1  0  0  0
  -30.1734  -15.4812   20.8249 N   0  0  0  0  0  0
  -29.0283  -18.4622   22.4298 N   0  0  0  0  0  0
  -27.7289  -21.9311   21.7256 N   0  3  0  0  0  0
  -31.4524  -12.3073   19.0887 H   0  0  0  0  0  0
  -30.2626  -11.2395   19.7710 H   0  0  0  0  0  0
  -29.6883  -11.8140   17.3917 H   0  0  0  0  0  0
  -29.6710  -13.5221   17.7873 H   0  0  0  0  0  0
  -27.7405  -11.3793   18.7147 H   0  0  0  0  0  0
  -27.3590  -12.8016   17.7838 H   0  0  0  0  0  0
  -27.7319  -14.2806   19.6491 H   0  0  0  0  0  0
  -28.6903  -11.8554   21.2717 H   0  0  0  0  0  0
  -28.5348  -13.4352   21.9168 H   0  0  0  0  0  0
  -25.2810   -9.5649   22.4816 H   0  0  0  0  0  0
  -24.0012   -7.4628   22.7498 H   0  0  0  0  0  0
  -21.0877   -8.8834   19.8996 H   0  0  0  0  0  0
  -22.3762  -10.9741   19.6188 H   0  0  0  0  0  0
  -21.2043   -7.6177   23.9716 H   0  0  0  0  0  0
  -21.1463   -6.0555   25.9061 H   0  0  0  0  0  0
  -22.0610   -2.7649   23.2816 H   0  0  0  0  0  0
  -22.4165  -11.9950   22.4768 H   0  0  0  0  0  0
  -21.1119  -13.1347   22.2561 H   0  0  0  0  0  0
  -24.6511  -15.8338   20.4971 H   0  0  0  0  0  0
  -26.2691  -15.6325   20.0748 H   0  0  0  0  0  0
  -26.7138  -32.5357   23.1090 H   0  0  0  0  0  0
  -25.0036  -33.9646   25.0407 H   0  0  0  0  0  0
  -22.6933  -31.3089   21.4219 H   0  0  0  0  0  0
  -23.3780  -35.9615   23.3334 H   0  0  0  0  0  0
  -24.3592  -36.8851   22.2061 H   0  0  0  0  0  0
  -23.7281  -37.6471   23.6635 H   0  0  0  0  0  0
  -26.1079  -31.6340   20.6343 H   0  0  0  0  0  0
  -26.8082  -30.8358   22.0045 H   0  0  0  0  0  0
  -28.0854  -29.0848   21.1457 H   0  0  0  0  0  0
  -25.9815  -25.9861   18.9762 H   0  0  0  0  0  0
  -23.9189  -27.3115   19.0644 H   0  0  0  0  0  0
  -23.6977  -30.6164   19.4028 H   0  0  0  0  0  0
  -22.7302  -29.2547   19.8654 H   0  0  0  0  0  0
  -25.1334  -36.1960   25.0838 H   0  0  0  0  0  0
  -21.0493  -28.3073   24.1360 H   0  0  0  0  0  0
  -20.5557  -26.1978   23.3990 H   0  0  0  0  0  0
  -21.6918  -26.6557   22.1966 H   0  0  0  0  0  0
  -19.7459  -25.6072   21.1232 H   0  0  0  0  0  0
  -19.7415  -27.3048   20.6930 H   0  0  0  0  0  0
  -17.4705  -26.6724   21.3433 H   0  0  0  0  0  0
  -18.0208  -25.9772   22.8583 H   0  0  0  0  0  0
  -19.8330  -30.6945   24.2552 H   0  0  0  0  0  0
  -17.5533  -31.6276   24.5095 H   0  0  0  0  0  0
  -15.5661  -30.3033   23.7726 H   0  0  0  0  0  0
  -15.8953  -28.0605   22.7264 H   0  0  0  0  0  0
  -24.5999  -30.6870   25.7709 H   0  0  0  0  0  0
  -24.8904  -32.2618   26.5006 H   0  0  0  0  0  0
  -25.8129  -30.8609   27.0138 H   0  0  0  0  0  0
  -26.2881  -29.6712   24.1234 H   0  0  0  0  0  0
  -27.4032  -29.7212   25.4688 H   0  0  0  0  0  0
  -27.8762  -30.4213   23.9359 H   0  0  0  0  0  0
  -27.2705  -33.3541   26.2115 H   0  0  0  0  0  0
  -28.3842  -32.6863   25.0281 H   0  0  0  0  0  0
  -28.0811  -31.8365   26.5348 H   0  0  0  0  0  0
  -28.2650  -38.0058   24.7517 H   0  0  0  0  0  0
  -28.1082  -36.2585   24.6345 H   0  0  0  0  0  0
  -27.2274  -37.1458   25.8867 H   0  0  0  0  0  0
  -20.9553  -29.8257   21.6582 H   0  0  0  0  0  0
  -26.0240  -38.2843   24.1308 H   0  0  0  0  0  0
  -23.4643  -23.4969   23.2111 H   0  0  0  0  0  0
  -25.0931  -23.1428   23.6355 H   0  0  0  0  0  0
  -24.6159  -25.6266   23.7750 H   0  0  0  0  0  0
  -24.1855  -25.5919   22.0725 H   0  0  0  0  0  0
  -23.7878  -22.9802   20.9388 H   0  0  0  0  0  0
  -24.9289  -21.9216   21.6577 H   0  0  0  0  0  0
  -26.9376  -25.5449   23.3111 H   0  0  0  0  0  0
  -26.2250  -26.4046   22.0380 H   0  0  0  0  0  0
  -25.2863  -24.3988   20.0586 H   0  0  0  0  0  0
  -26.2073  -22.9609   19.9353 H   0  0  0  0  0  0
  -29.1363  -16.1011   24.0267 H   0  0  0  0  0  0
  -30.7877  -16.1261   23.4737 H   0  0  0  0  0  0
  -29.9079  -14.6222   23.4847 H   0  0  0  0  0  0
  -27.0821  -19.5751   24.1802 H   0  0  0  0  0  0
  -25.9175  -20.3222   23.1048 H   0  0  0  0  0  0
  -26.7172  -21.2748   24.3574 H   0  0  0  0  0  0
  -31.0722  -18.0637   22.9154 H   0  0  0  0  0  0
  -30.4322  -19.5198   23.6156 H   0  0  0  0  0  0
  -30.8324  -19.4472   21.8953 H   0  0  0  0  0  0
  -27.2373  -23.2124   23.2817 H   0  0  0  0  0  0
  -28.7447  -23.5695   22.5501 H   0  0  0  0  0  0
  -27.8177  -24.7407   19.3815 H   0  0  0  0  0  0
  -28.9509  -24.6738   20.6132 H   0  0  0  0  0  0
  -28.1473  -17.3895   20.8482 H   0  0  0  0  0  0
  -29.8183  -17.7397   20.6532 H   0  0  0  0  0  0
  -28.8318  -19.8348   20.8775 H   0  0  0  0  0  0
  -27.3230  -19.1706   21.4456 H   0  0  0  0  0  0
  -28.3122  -15.4787   21.7702 H   0  0  0  0  0  0
  -28.9032  -21.0739   23.2029 H   0  0  0  0  0  0
  -30.7574  -16.2346   20.4939 H   0  0  0  0  0  0
  -28.4306  -21.9120   21.0070 H   0  0  0  0  0  0
  -26.8440  -21.7574   21.2767 H   0  0  0  0  0  0
  1 25  1  0  0  0
  1 30  2  0  0  0
  1 86  1  0  0  0
  2  3  1  0  0  0
  2 25  1  0  0  0
  2 89  1  0  0  0
  2 90  1  0  0  0
  3  4  1  0  0  0
  3 91  1  0  0  0
  3 92  1  0  0  0
  4  5  1  0  0  0
  4 93  1  0  0  0
  4 94  1  0  0  0
  5  6  1  0  0  0
  5 26  1  0  0  0
  5 95  1  0  0  0
  6 25  1  0  0  0
  6 96  1  0  0  0
  6 97  1  0  0  0
  7  8  2  0  0  0
  7 26  1  0  0  0
  7 29  1  0  0  0
  8  9  1  0  0  0
  8 22  1  0  0  0
  9 10  1  0  0  0
  9 27  2  0  0  0
 10 11  2  0  0  0
 10 15  1  0  0  0
 11 12  1  0  0  0
 11 98  1  0  0  0
 12 13  2  0  0  0
 12 99  1  0  0  0
 13 14  1  0  0  0
 13 31  1  0  0  0
 14 15  2  0  0  0
 14100  1  0  0  0
 15101  1  0  0  0
 16 17  2  0  0  0
 16 21  1  0  0  0
 16 31  1  0  0  0
 17 18  1  0  0  0
 17102  1  0  0  0
 18 19  2  0  0  0
 18103  1  0  0  0
 19 20  1  0  0  0
 19 24  1  0  0  0
 20 21  2  0  0  0
 20104  1  0  0  0
 21 23  1  0  0  0
 22 28  1  0  0  0
 22 32  2  0  0  0
 26 27  1  0  0  0
 28105  1  0  0  0
 28106  1  0  0  0
 29107  1  0  0  0
 29108  1  0  0  0
 33 34  1  0  0  0
 33 66  1  0  0  0
 33 70  2  0  0  0
 34 36  1  0  0  0
 34 59  1  0  0  0
 34109  1  0  0  0
 35 44  2  0  0  0
 35 45  1  0  0  0
 35 68  1  0  0  0
 36 56  1  0  0  0
 36110  1  0  0  0
 37 39  1  0  0  0
 37 47  1  0  0  0
 37 66  1  0  0  0
 37111  1  0  0  0
 38 43  2  0  0  0
 38 46  1  0  0  0
 38 47  1  0  0  0
 39 64  1  0  0  0
 39 67  2  0  0  0
 40 52  1  0  0  0
 40 53  2  0  0  0
 40 58  1  0  0  0
 41112  1  0  0  0
 41113  1  0  0  0
 41114  1  0  0  0
 41 48  1  0  0  0
 42 43  1  0  0  0
 42 66  1  0  0  0
 42115  1  0  0  0
 42116  1  0  0  0
 43 44  1  0  0  0
 44117  1  0  0  0
 45 46  2  0  0  0
 45118  1  0  0  0
 46119  1  0  0  0
 47120  1  0  0  0
 47121  1  0  0  0
 48 56  1  0  0  0
 48 65  1  0  0  0
 48122  1  0  0  0
 49 50  1  0  0  0
 49 53  1  0  0  0
 49 64  1  0  0  0
 49123  1  0  0  0
 50 51  1  0  0  0
 50124  1  0  0  0
 50125  1  0  0  0
 51 52  1  0  0  0
 51126  1  0  0  0
 51127  1  0  0  0
 52128  1  0  0  0
 52129  1  0  0  0
 53 54  1  0  0  0
 54 55  2  0  0  0
 54130  1  0  0  0
 55 57  1  0  0  0
 55131  1  0  0  0
 56 69  2  0  0  0
 57 58  2  0  0  0
 57132  1  0  0  0
 58133  1  0  0  0
 59 60  1  0  0  0
 59 61  1  0  0  0
 59 62  1  0  0  0
 60134  1  0  0  0
 60135  1  0  0  0
 60136  1  0  0  0
 61137  1  0  0  0
 61138  1  0  0  0
 61139  1  0  0  0
 62140  1  0  0  0
 62141  1  0  0  0
 62142  1  0  0  0
 63 65  1  0  0  0
 63143  1  0  0  0
 63144  1  0  0  0
 63145  1  0  0  0
 64146  1  0  0  0
 65147  1  0  0  0
 68 81  1  0  0  0
 71 72  1  0  0  0
 71 73  1  0  0  0
 71148  1  0  0  0
 71149  1  0  0  0
 72 74  1  0  0  0
 72150  1  0  0  0
 72151  1  0  0  0
 73 75  1  0  0  0
 73152  1  0  0  0
 73153  1  0  0  0
 74 76  1  0  0  0
 74154  1  0  0  0
 74155  1  0  0  0
 75 76  1  0  0  0
 75156  1  0  0  0
 75157  1  0  0  0
 76 80  1  0  0  0
 76 81  1  0  0  0
 77158  1  0  0  0
 77159  1  0  0  0
 77160  1  0  0  0
 77 84  1  0  0  0
 78161  1  0  0  0
 78162  1  0  0  0
 78163  1  0  0  0
 78 85  1  0  0  0
 79 87  1  0  0  0
 79164  1  0  0  0
 79165  1  0  0  0
 79166  1  0  0  0
 80 88  1  0  0  0
 80167  1  0  0  0
 80168  1  0  0  0
 81169  1  0  0  0
 81170  1  0  0  0
 82 84  1  0  0  0
 82 87  1  0  0  0
 82171  1  0  0  0
 82172  1  0  0  0
 83 85  1  0  0  0
 83 87  1  0  0  0
 83173  1  0  0  0
 83174  1  0  0  0
 84 86  1  0  0  0
 84175  1  0  0  0
 85 88  1  0  0  0
 85176  1  0  0  0
 86177  1  0  0  0
 88178  1  0  0  0
 88179  1  0  0  0
M  CHG  1  88   1
M  ISO  4   1 100  68 101  81 101  86 100
M  END
> <chiral flag>
0

> <version>
0

> <s_m_source_file>
/data/baiqing/PycharmProjects/Reinvent-master-3.2/result/LINK_invent/BTK/process_docking_weight1_custom_sum_contain_oxygen_bond_distance_aromatic_linkinvent_7_9_3/rearranged_h_0108.sdf

> <i_m_source_file_index>
31

> <r_mmod_Potential_Energy-OPLS-2005>
132.403106689453

> <r_mmod_Stretch_Energy-OPLS-2005>
57.5598831176758

> <r_mmod_Bend_Energy-OPLS-2005>
198.749084472656

> <r_mmod_Torsional_Energy-OPLS-2005>
378.617980957031

> <r_mmod_Improper_Torsional_Energy-OPLS-2005>
16.9357833862305

> <r_mmod_Van_der_Waal_Energy-OPLS-2005>
165.956085205078

> <r_mmod_Electrostatic_Energy-OPLS-2005>
-276.679168701172

> <r_mmod_Solvation_Energy-OPLS-2005>
-444.087371826172

> <b_mmod_Minimization_Converged-OPLS-2005>
0

> <r_mmod_RMS_Derivative-OPLS-2005>
11.9147481918335

$$$$
31
                    3D
 Structure written by MMmdl.
163171  0  0  1  0            999 V2000
  -30.5683  -14.9177   20.4157 C   0  0  0  0  0  0
  -30.4340  -12.5617   19.5091 C   0  0  0  0  0  0
  -29.5169  -12.5159   18.2644 C   0  0  0  0  0  0
  -28.0511  -12.3086   18.6833 C   0  0  0  0  0  0
  -27.6319  -13.2461   19.8456 C   0  0  2  0  0  0
  -28.6746  -13.2754   20.9857 C   0  0  0  0  0  0
  -25.2462  -13.8220   20.5716 C   0  0  0  0  0  0
  -24.1777  -13.0445   20.9218 C   0  0  0  0  0  0
  -24.6396  -11.6931   20.8772 C   0  0  0  0  0  0
  -23.9090  -10.4297   21.0421 C   0  0  0  0  0  0
  -24.3639   -9.4210   21.9196 C   0  0  0  0  0  0
  -23.6308   -8.2250   22.0765 C   0  0  0  0  0  0
  -22.4289   -8.0290   21.3556 C   0  0  0  0  0  0
  -21.9935   -9.0267   20.4654 C   0  0  0  0  0  0
  -22.7269  -10.2136   20.3064 C   0  0  0  0  0  0
  -21.6855   -6.0740   22.5281 C   0  0  0  0  0  0
  -21.4017   -6.5650   23.8211 C   0  0  0  0  0  0
  -21.3653   -5.6803   24.9178 C   0  0  0  0  0  0
  -21.6038   -4.3067   24.7224 C   0  0  0  0  0  0
  -21.8821   -3.8153   23.4350 C   0  0  0  0  0  0
  -21.9190   -4.6968   22.3403 C   0  0  0  0  0  0
  -22.7790  -13.5203   21.1864 C   0  0  0  0  0  0
  -22.1658   -4.2152   21.0979 F   0  0  0  0  0  0
  -21.5623   -3.4551   25.7741 F   0  0  0  0  0  0
  -29.9587  -13.6664   20.3920 N   0  0  0  0  0  0
  -26.2895  -12.9452   20.3289 N   0  0  0  0  0  0
  -25.9336  -11.6578   20.5798 N   0  0  0  0  0  0
  -22.0446  -12.8179   22.0413 N   0  0  0  0  0  0
  -25.4147  -15.1955   20.4136 N   0  0  0  0  0  0
  -31.7601  -14.9713   20.0990 O   0  0  0  0  0  0
  -21.6650   -6.8889   21.4243 O   0  0  0  0  0  0
  -22.3466  -14.5510   20.6712 O   0  0  0  0  0  0
  -24.6441  -31.8413   23.1914 C   0  0  0  0  0  0
  -25.9203  -32.4689   23.8282 C   0  0  1  0  0  0
  -27.2128  -27.1238   20.1522 C   0  0  0  0  0  0
  -25.5936  -33.8507   24.2185 N   0  0  0  0  0  0
  -23.4487  -30.4615   21.5376 C   0  0  2  0  0  0
  -24.8998  -28.8917   20.1069 C   0  0  0  0  0  0
  -22.7572  -29.4511   22.4872 C   0  0  0  0  0  0
  -18.0301  -28.1387   22.8481 C   0  0  0  0  0  0
  -24.1493  -36.7249   23.2646 C   0  0  0  0  0  0
  -26.0068  -30.7096   21.3943 C   0  0  0  0  0  0
  -26.0757  -29.3218   20.7328 C   0  0  0  0  0  0
  -27.2323  -28.4524   20.7433 C   0  0  0  0  0  0
  -26.0150  -26.8062   19.4723 C   0  0  0  0  0  0
  -24.8817  -27.6475   19.4607 C   0  0  0  0  0  0
  -23.6756  -29.7940   20.1551 C   0  0  0  0  0  0
  -25.4132  -36.3038   24.0310 C   0  0  1  0  0  0
  -20.5912  -28.3711   23.1247 C   0  0  2  0  0  0
  -20.6791  -26.9418   22.5420 C   0  0  0  0  0  0
  -19.5764  -26.6387   21.5234 C   0  0  0  0  0  0
  -18.1932  -26.7931   22.1627 C   0  0  0  0  0  0
  -19.1557  -28.8872   23.2848 C   0  0  0  0  0  0
  -18.9475  -30.1464   23.8874 C   0  0  0  0  0  0
  -17.6473  -30.6585   24.0561 C   0  0  0  0  0  0
  -25.9087  -34.9410   23.5067 C   0  0  0  0  0  0
  -16.5360  -29.9079   23.6343 C   0  0  0  0  0  0
  -16.7283  -28.6500   23.0356 C   0  0  0  0  0  0
  -26.4525  -31.6558   25.0717 C   0  0  0  0  0  0
  -25.3696  -31.3714   26.1392 C   0  0  0  0  0  0
  -27.0412  -30.2968   24.6304 C   0  0  0  0  0  0
  -27.6067  -32.4325   25.7479 C   0  0  0  0  0  0
  -27.5581  -37.1776   24.8472 C   0  0  0  0  0  0
  -21.4274  -29.3019   22.3611 N   0  0  0  0  0  0
  -26.4301  -37.3746   23.9407 N   0  0  0  0  0  0
  -24.7198  -31.0251   22.0965 N   0  0  0  0  0  0
  -23.4209  -28.8048   23.3025 O   0  0  0  0  0  0
  -28.2511  -26.1195   20.2476 O   0  0  0  0  0  0
  -26.5704  -34.8887   22.4661 O   0  0  0  0  0  0
  -23.5558  -32.1306   23.7126 O   0  0  0  0  0  0
  -29.8353  -22.5281   18.4465 C   0  0  0  0  0  0
  -29.3610  -21.9947   19.6076 C   0  0  0  0  0  0
  -29.7120  -20.4901   19.5384 C   0  0  0  0  0  0
  -30.4825  -20.4025   18.3766 C   0  0  0  0  0  0
  -31.2355  -19.2451   17.7660 C   0  0  0  0  0  0
  -31.3500  -23.4100   16.1195 C   0  0  0  0  0  0
  -30.3644  -21.2628   15.2430 C   0  0  0  0  0  0
  -28.6868  -23.1669   20.5446 C   0  0  0  0  0  0
  -29.4354  -19.0798   20.4013 C   0  0  0  0  0  0
  -30.1679  -17.5743   20.0681 C   0  0  0  0  0  0
  -27.9854  -24.6057   19.9511 C   0  0  0  0  0  0
  -31.1515  -21.9077   16.3963 C   0  0  0  0  0  0
  -30.5161  -21.6145   17.6975 N   0  0  0  0  0  0
  -29.8216  -16.1176   20.5666 N   0  0  0  0  0  0
  -31.4727  -12.6935   19.2007 H   0  0  0  0  0  0
  -30.4073  -11.6107   20.0435 H   0  0  0  0  0  0
  -29.8301  -11.7153   17.5929 H   0  0  0  0  0  0
  -29.6085  -13.4451   17.7004 H   0  0  0  0  0  0
  -27.9436  -11.2679   18.9926 H   0  0  0  0  0  0
  -27.3872  -12.4398   17.8280 H   0  0  0  0  0  0
  -27.5991  -14.2475   19.4156 H   0  0  0  0  0  0
  -28.7504  -12.3055   21.4797 H   0  0  0  0  0  0
  -28.3806  -13.9913   21.7547 H   0  0  0  0  0  0
  -25.2786   -9.5673   22.4772 H   0  0  0  0  0  0
  -24.0008   -7.4637   22.7492 H   0  0  0  0  0  0
  -21.0869   -8.8795   19.8956 H   0  0  0  0  0  0
  -22.3750  -10.9678   19.6170 H   0  0  0  0  0  0
  -21.2023   -7.6159   23.9717 H   0  0  0  0  0  0
  -21.1466   -6.0536   25.9075 H   0  0  0  0  0  0
  -22.0605   -2.7616   23.2854 H   0  0  0  0  0  0
  -22.4098  -11.9835   22.4757 H   0  0  0  0  0  0
  -21.1060  -13.1175   22.2635 H   0  0  0  0  0  0
  -24.6498  -15.8510   20.5344 H   0  0  0  0  0  0
  -26.2611  -15.6355   20.0762 H   0  0  0  0  0  0
  -26.7241  -32.5290   23.0985 H   0  0  0  0  0  0
  -25.0001  -33.9629   25.0275 H   0  0  0  0  0  0
  -22.7521  -31.2890   21.3847 H   0  0  0  0  0  0
  -23.3775  -35.9564   23.3306 H   0  0  0  0  0  0
  -24.3583  -36.8909   22.2067 H   0  0  0  0  0  0
  -23.7228  -37.6429   23.6698 H   0  0  0  0  0  0
  -26.1648  -31.4643   20.6226 H   0  0  0  0  0  0
  -26.8768  -30.7583   22.0374 H   0  0  0  0  0  0
  -28.1208  -28.7697   21.2706 H   0  0  0  0  0  0
  -25.9135  -25.8592   18.9632 H   0  0  0  0  0  0
  -23.9859  -27.3188   18.9532 H   0  0  0  0  0  0
  -23.8085  -30.5708   19.4018 H   0  0  0  0  0  0
  -22.7915  -29.2341   19.8457 H   0  0  0  0  0  0
  -25.1309  -36.1885   25.0801 H   0  0  0  0  0  0
  -20.9986  -28.3319   24.1383 H   0  0  0  0  0  0
  -20.5740  -26.2311   23.3634 H   0  0  0  0  0  0
  -21.6641  -26.7463   22.1173 H   0  0  0  0  0  0
  -19.6944  -25.6314   21.1238 H   0  0  0  0  0  0
  -19.6708  -27.3217   20.6782 H   0  0  0  0  0  0
  -17.4216  -26.6709   21.4002 H   0  0  0  0  0  0
  -18.0297  -26.0069   22.9014 H   0  0  0  0  0  0
  -19.7950  -30.7273   24.2242 H   0  0  0  0  0  0
  -17.5026  -31.6268   24.5156 H   0  0  0  0  0  0
  -15.5357  -30.2955   23.7691 H   0  0  0  0  0  0
  -15.8687  -28.0806   22.7075 H   0  0  0  0  0  0
  -24.5929  -30.7012   25.7683 H   0  0  0  0  0  0
  -24.8795  -32.2857   26.4746 H   0  0  0  0  0  0
  -25.7946  -30.8935   27.0223 H   0  0  0  0  0  0
  -26.3036  -29.6665   24.1327 H   0  0  0  0  0  0
  -27.4056  -29.7293   25.4878 H   0  0  0  0  0  0
  -27.8919  -30.4233   23.9611 H   0  0  0  0  0  0
  -27.2720  -33.3704   26.1925 H   0  0  0  0  0  0
  -28.3917  -32.6766   25.0306 H   0  0  0  0  0  0
  -28.0675  -31.8524   26.5487 H   0  0  0  0  0  0
  -28.2579  -38.0088   24.7517 H   0  0  0  0  0  0
  -28.1076  -36.2606   24.6289 H   0  0  0  0  0  0
  -27.2283  -37.1422   25.8870 H   0  0  0  0  0  0
  -20.9510  -29.8720   21.6762 H   0  0  0  0  0  0
  -26.0171  -38.2817   24.1402 H   0  0  0  0  0  0
  -29.7714  -23.5486   18.0980 H   0  0  0  0  0  0
  -31.8748  -18.7598   18.4981 H   0  0  0  0  0  0
  -31.9274  -19.5207   16.9770 H   0  0  0  0  0  0
  -30.5552  -18.5253   17.3136 H   0  0  0  0  0  0
  -31.9726  -23.5547   15.2359 H   0  0  0  0  0  0
  -31.8490  -23.9134   16.9483 H   0  0  0  0  0  0
  -30.4030  -23.9148   15.9300 H   0  0  0  0  0  0
  -30.8246  -21.4885   14.2797 H   0  0  0  0  0  0
  -29.3396  -21.6307   15.2170 H   0  0  0  0  0  0
  -30.3189  -20.1776   15.3353 H   0  0  0  0  0  0
  -29.4494  -23.4544   21.2694 H   0  0  0  0  0  0
  -27.9301  -22.6581   21.1423 H   0  0  0  0  0  0
  -28.3572  -18.9221   20.3641 H   0  0  0  0  0  0
  -29.6459  -19.3138   21.4446 H   0  0  0  0  0  0
  -31.2365  -17.6910   20.2458 H   0  0  0  0  0  0
  -30.0353  -17.4062   19.0062 H   0  0  0  0  0  0
  -26.9505  -24.4667   20.2628 H   0  0  0  0  0  0
  -27.9287  -24.5280   18.8665 H   0  0  0  0  0  0
  -32.1625  -21.5013   16.4174 H   0  0  0  0  0  0
  -28.8628  -15.9766   20.8471 H   0  0  0  0  0  0
  1 25  1  0  0  0
  1 30  2  0  0  0
  1 84  1  0  0  0
  2  3  1  0  0  0
  2 25  1  0  0  0
  2 85  1  0  0  0
  2 86  1  0  0  0
  3  4  1  0  0  0
  3 87  1  0  0  0
  3 88  1  0  0  0
  4  5  1  0  0  0
  4 89  1  0  0  0
  4 90  1  0  0  0
  5  6  1  0  0  0
  5 26  1  0  0  0
  5 91  1  0  0  0
  6 25  1  0  0  0
  6 92  1  0  0  0
  6 93  1  0  0  0
  7  8  2  0  0  0
  7 26  1  0  0  0
  7 29  1  0  0  0
  8  9  1  0  0  0
  8 22  1  0  0  0
  9 10  1  0  0  0
  9 27  2  0  0  0
 10 11  2  0  0  0
 10 15  1  0  0  0
 11 12  1  0  0  0
 11 94  1  0  0  0
 12 13  2  0  0  0
 12 95  1  0  0  0
 13 14  1  0  0  0
 13 31  1  0  0  0
 14 15  2  0  0  0
 14 96  1  0  0  0
 15 97  1  0  0  0
 16 17  2  0  0  0
 16 21  1  0  0  0
 16 31  1  0  0  0
 17 18  1  0  0  0
 17 98  1  0  0  0
 18 19  2  0  0  0
 18 99  1  0  0  0
 19 20  1  0  0  0
 19 24  1  0  0  0
 20 21  2  0  0  0
 20100  1  0  0  0
 21 23  1  0  0  0
 22 28  1  0  0  0
 22 32  2  0  0  0
 26 27  1  0  0  0
 28101  1  0  0  0
 28102  1  0  0  0
 29103  1  0  0  0
 29104  1  0  0  0
 33 34  1  0  0  0
 33 66  1  0  0  0
 33 70  2  0  0  0
 34 36  1  0  0  0
 34 59  1  0  0  0
 34105  1  0  0  0
 35 44  2  0  0  0
 35 45  1  0  0  0
 35 68  1  0  0  0
 36 56  1  0  0  0
 36106  1  0  0  0
 37 39  1  0  0  0
 37 47  1  0  0  0
 37 66  1  0  0  0
 37107  1  0  0  0
 38 43  2  0  0  0
 38 46  1  0  0  0
 38 47  1  0  0  0
 39 64  1  0  0  0
 39 67  2  0  0  0
 40 52  1  0  0  0
 40 53  2  0  0  0
 40 58  1  0  0  0
 41108  1  0  0  0
 41109  1  0  0  0
 41110  1  0  0  0
 41 48  1  0  0  0
 42 43  1  0  0  0
 42 66  1  0  0  0
 42111  1  0  0  0
 42112  1  0  0  0
 43 44  1  0  0  0
 44113  1  0  0  0
 45 46  2  0  0  0
 45114  1  0  0  0
 46115  1  0  0  0
 47116  1  0  0  0
 47117  1  0  0  0
 48 56  1  0  0  0
 48 65  1  0  0  0
 48118  1  0  0  0
 49 50  1  0  0  0
 49 53  1  0  0  0
 49 64  1  0  0  0
 49119  1  0  0  0
 50 51  1  0  0  0
 50120  1  0  0  0
 50121  1  0  0  0
 51 52  1  0  0  0
 51122  1  0  0  0
 51123  1  0  0  0
 52124  1  0  0  0
 52125  1  0  0  0
 53 54  1  0  0  0
 54 55  2  0  0  0
 54126  1  0  0  0
 55 57  1  0  0  0
 55127  1  0  0  0
 56 69  2  0  0  0
 57 58  2  0  0  0
 57128  1  0  0  0
 58129  1  0  0  0
 59 60  1  0  0  0
 59 61  1  0  0  0
 59 62  1  0  0  0
 60130  1  0  0  0
 60131  1  0  0  0
 60132  1  0  0  0
 61133  1  0  0  0
 61134  1  0  0  0
 61135  1  0  0  0
 62136  1  0  0  0
 62137  1  0  0  0
 62138  1  0  0  0
 63 65  1  0  0  0
 63139  1  0  0  0
 63140  1  0  0  0
 63141  1  0  0  0
 64142  1  0  0  0
 65143  1  0  0  0
 68 81  1  0  0  0
 71 72  2  0  0  0
 71 83  1  0  0  0
 71144  1  0  0  0
 72 73  1  0  0  0
 72 78  1  0  0  0
 73 74  2  0  0  0
 73 79  1  0  0  0
 74 75  1  0  0  0
 74 83  1  0  0  0
 75145  1  0  0  0
 75146  1  0  0  0
 75147  1  0  0  0
 76148  1  0  0  0
 76149  1  0  0  0
 76150  1  0  0  0
 76 82  1  0  0  0
 77 82  1  0  0  0
 77151  1  0  0  0
 77152  1  0  0  0
 77153  1  0  0  0
 78 81  1  0  0  0
 78154  1  0  0  0
 78155  1  0  0  0
 79 80  1  0  0  0
 79156  1  0  0  0
 79157  1  0  0  0
 80 84  1  0  0  0
 80158  1  0  0  0
 80159  1  0  0  0
 81160  1  0  0  0
 81161  1  0  0  0
 82 83  1  0  0  0
 82162  1  0  0  0
 84163  1  0  0  0
M  ISO  4   1 100  68 101  81 101  84 100
M  END
> <chiral flag>
0

> <version>
0

> <s_m_source_file>
/data/baiqing/PycharmProjects/Reinvent-master-3.2/result/LINK_invent/BTK/process_docking_weight1_custom_sum_contain_oxygen_bond_distance_aromatic_linkinvent_7_9_3/rearranged_h_0108.sdf

> <i_m_source_file_index>
32

> <r_mmod_Potential_Energy-OPLS-2005>
580.847717285156

> <r_mmod_Stretch_Energy-OPLS-2005>
300.569244384766

> <r_mmod_Bend_Energy-OPLS-2005>
325.131774902344

> <r_mmod_Torsional_Energy-OPLS-2005>
249.327743530273

> <r_mmod_Improper_Torsional_Energy-OPLS-2005>
5.55191230773926

> <r_mmod_Van_der_Waal_Energy-OPLS-2005>
139.85237121582

> <r_mmod_Electrostatic_Energy-OPLS-2005>
-412.466979980469

> <r_mmod_Solvation_Energy-OPLS-2005>
-216.169876098633

> <b_mmod_Minimization_Converged-OPLS-2005>
0

> <r_mmod_RMS_Derivative-OPLS-2005>
2.30392575263977

$$$$
32
                    3D
 Structure written by MMmdl.
169177  0  0  1  0            999 V2000
  -30.5610  -14.9525   20.4072 C   0  0  0  0  0  0
  -30.4412  -12.5824   19.5099 C   0  0  0  0  0  0
  -29.5262  -12.5475   18.2619 C   0  0  0  0  0  0
  -28.0528  -12.3468   18.6647 C   0  0  0  0  0  0
  -27.6361  -13.2610   19.8489 C   0  0  2  0  0  0
  -28.6836  -13.2759   20.9860 C   0  0  0  0  0  0
  -25.2456  -13.8246   20.5720 C   0  0  0  0  0  0
  -24.1779  -13.0463   20.9252 C   0  0  0  0  0  0
  -24.6418  -11.6957   20.8771 C   0  0  0  0  0  0
  -23.9105  -10.4311   21.0398 C   0  0  0  0  0  0
  -24.3635   -9.4218   21.9180 C   0  0  0  0  0  0
  -23.6303   -8.2252   22.0744 C   0  0  0  0  0  0
  -22.4283   -8.0288   21.3540 C   0  0  0  0  0  0
  -21.9931   -9.0267   20.4642 C   0  0  0  0  0  0
  -22.7272  -10.2142   20.3051 C   0  0  0  0  0  0
  -21.6858   -6.0737   22.5283 C   0  0  0  0  0  0
  -21.4023   -6.5640   23.8219 C   0  0  0  0  0  0
  -21.3656   -5.6786   24.9179 C   0  0  0  0  0  0
  -21.6048   -4.3050   24.7232 C   0  0  0  0  0  0
  -21.8811   -3.8147   23.4352 C   0  0  0  0  0  0
  -21.9191   -4.6962   22.3409 C   0  0  0  0  0  0
  -22.7784  -13.5209   21.1902 C   0  0  0  0  0  0
  -22.1653   -4.2148   21.0988 F   0  0  0  0  0  0
  -21.5624   -3.4540   25.7744 F   0  0  0  0  0  0
  -29.9646  -13.6885   20.3914 N   0  0  0  0  0  0
  -26.2941  -12.9522   20.3315 N   0  0  0  0  0  0
  -25.9368  -11.6651   20.5772 N   0  0  0  0  0  0
  -22.0456  -12.8171   22.0443 N   0  0  0  0  0  0
  -25.4065  -15.1987   20.4040 N   0  0  0  0  0  0
  -31.7594  -15.0072   20.1006 O   0  0  0  0  0  0
  -21.6642   -6.8887   21.4245 O   0  0  0  0  0  0
  -22.3445  -14.5502   20.6744 O   0  0  0  0  0  0
  -24.6522  -31.8392   23.1832 C   0  0  0  0  0  0
  -25.9271  -32.4646   23.8247 C   0  0  1  0  0  0
  -27.2332  -27.0975   20.1512 C   0  0  0  0  0  0
  -25.5995  -33.8456   24.2156 N   0  0  0  0  0  0
  -23.4582  -30.4551   21.5258 C   0  0  2  0  0  0
  -24.9103  -28.8738   20.1042 C   0  0  0  0  0  0
  -22.7565  -29.4541   22.4814 C   0  0  0  0  0  0
  -18.0250  -28.1378   22.8501 C   0  0  0  0  0  0
  -24.1487  -36.7237   23.2635 C   0  0  0  0  0  0
  -26.0174  -30.6949   21.3925 C   0  0  0  0  0  0
  -26.0860  -29.3025   20.7364 C   0  0  0  0  0  0
  -27.2425  -28.4281   20.7500 C   0  0  0  0  0  0
  -26.0361  -26.7873   19.4699 C   0  0  0  0  0  0
  -24.9056  -27.6333   19.4509 C   0  0  0  0  0  0
  -23.6829  -29.7715   20.1495 C   0  0  0  0  0  0
  -25.4121  -36.3004   24.0300 C   0  0  1  0  0  0
  -20.5878  -28.3781   23.1192 C   0  0  2  0  0  0
  -20.6779  -26.9445   22.5543 C   0  0  0  0  0  0
  -19.5753  -26.6261   21.5353 C   0  0  0  0  0  0
  -18.1880  -26.7863   22.1722 C   0  0  0  0  0  0
  -19.1511  -28.8888   23.2805 C   0  0  0  0  0  0
  -18.9423  -30.1514   23.8772 C   0  0  0  0  0  0
  -17.6429  -30.6613   24.0499 C   0  0  0  0  0  0
  -25.9102  -34.9393   23.5048 C   0  0  0  0  0  0
  -16.5327  -29.9115   23.6311 C   0  0  0  0  0  0
  -16.7248  -28.6507   23.0392 C   0  0  0  0  0  0
  -26.4549  -31.6528   25.0716 C   0  0  0  0  0  0
  -25.3704  -31.3744   26.1380 C   0  0  0  0  0  0
  -27.0441  -30.2930   24.6330 C   0  0  0  0  0  0
  -27.6054  -32.4322   25.7522 C   0  0  0  0  0  0
  -27.5567  -37.1779   24.8461 C   0  0  0  0  0  0
  -21.4255  -29.3039   22.3496 N   0  0  0  0  0  0
  -26.4287  -37.3716   23.9393 N   0  0  0  0  0  0
  -24.7291  -31.0219   22.0857 N   0  0  0  0  0  0
  -23.4162  -28.8124   23.3024 O   0  0  0  0  0  0
  -28.2825  -26.0987   20.2477 O   0  0  0  0  0  0
  -26.5686  -34.8909   22.4624 O   0  0  0  0  0  0
  -23.5613  -32.1277   23.7021 O   0  0  0  0  0  0
  -28.5767  -20.5652   22.3521 C   0  0  0  0  0  0
  -28.8136  -19.4940   23.2398 C   0  0  0  0  0  0
  -29.0712  -20.3109   21.1022 C   0  0  0  0  0  0
  -29.5414  -18.5754   22.5502 C   0  0  0  0  0  0
  -30.2556  -17.3913   23.1397 C   0  0  0  0  0  0
  -27.1078  -18.4902   24.7457 C   0  0  0  0  0  0
  -28.0725  -20.7599   25.3186 C   0  0  0  0  0  0
  -29.9624  -21.4243   18.9596 C   0  0  0  0  0  0
  -27.5169  -21.3003   19.3573 C   0  0  0  0  0  0
  -28.8522  -23.1966   20.5663 C   0  0  0  0  0  0
  -28.1427  -24.5779   19.8555 C   0  0  0  0  0  0
  -30.0216  -17.6913   20.2233 C   0  0  0  0  0  0
  -28.3475  -19.3910   24.6785 C   0  0  0  0  0  0
  -28.8748  -21.5490   20.0353 C   0  0  0  0  0  0
  -29.5117  -18.8584   21.1729 N   0  0  0  0  0  0
  -29.7916  -16.1417   20.5584 N   0  0  0  0  0  0
  -31.4789  -12.7272   19.2022 H   0  0  0  0  0  0
  -30.4182  -11.6286   20.0407 H   0  0  0  0  0  0
  -29.8420  -11.7584   17.5780 H   0  0  0  0  0  0
  -29.6306  -13.4876   17.7156 H   0  0  0  0  0  0
  -27.9181  -11.3004   18.9353 H   0  0  0  0  0  0
  -27.4019  -12.5272   17.8076 H   0  0  0  0  0  0
  -27.6030  -14.2705   19.4403 H   0  0  0  0  0  0
  -28.7654  -12.2931   21.4531 H   0  0  0  0  0  0
  -28.3910  -13.9686   21.7772 H   0  0  0  0  0  0
  -25.2780   -9.5682   22.4772 H   0  0  0  0  0  0
  -24.0007   -7.4631   22.7455 H   0  0  0  0  0  0
  -21.0874   -8.8803   19.8935 H   0  0  0  0  0  0
  -22.3744  -10.9685   19.6161 H   0  0  0  0  0  0
  -21.2018   -7.6154   23.9728 H   0  0  0  0  0  0
  -21.1487   -6.0522   25.9084 H   0  0  0  0  0  0
  -22.0590   -2.7617   23.2865 H   0  0  0  0  0  0
  -22.4059  -11.9826   22.4849 H   0  0  0  0  0  0
  -21.1066  -13.1148   22.2645 H   0  0  0  0  0  0
  -24.6333  -15.8466   20.4987 H   0  0  0  0  0  0
  -26.2368  -15.6351   20.0256 H   0  0  0  0  0  0
  -26.7358  -32.5200   23.0980 H   0  0  0  0  0  0
  -25.0106  -33.9551   25.0282 H   0  0  0  0  0  0
  -22.7645  -31.2821   21.3585 H   0  0  0  0  0  0
  -23.3767  -35.9560   23.3304 H   0  0  0  0  0  0
  -24.3548  -36.8904   22.2052 H   0  0  0  0  0  0
  -23.7272  -37.6432   23.6703 H   0  0  0  0  0  0
  -26.1819  -31.4436   20.6160 H   0  0  0  0  0  0
  -26.8872  -30.7445   22.0390 H   0  0  0  0  0  0
  -28.1334  -28.7460   21.2747 H   0  0  0  0  0  0
  -25.9287  -25.8457   18.9586 H   0  0  0  0  0  0
  -24.0234  -27.3059   18.9171 H   0  0  0  0  0  0
  -23.8042  -30.5385   19.3836 H   0  0  0  0  0  0
  -22.8022  -29.2073   19.8476 H   0  0  0  0  0  0
  -25.1325  -36.1798   25.0797 H   0  0  0  0  0  0
  -20.9933  -28.3511   24.1341 H   0  0  0  0  0  0
  -20.5797  -26.2438   23.3850 H   0  0  0  0  0  0
  -21.6668  -26.7457   22.1405 H   0  0  0  0  0  0
  -19.6982  -25.6171   21.1431 H   0  0  0  0  0  0
  -19.6632  -27.2971   20.6786 H   0  0  0  0  0  0
  -17.4109  -26.6574   21.4172 H   0  0  0  0  0  0
  -18.0206  -26.0055   22.9191 H   0  0  0  0  0  0
  -19.7915  -30.7359   24.2065 H   0  0  0  0  0  0
  -17.5037  -31.6276   24.5123 H   0  0  0  0  0  0
  -15.5310  -30.3036   23.7688 H   0  0  0  0  0  0
  -15.8631  -28.0789   22.7176 H   0  0  0  0  0  0
  -24.5890  -30.7064   25.7712 H   0  0  0  0  0  0
  -24.8847  -32.2935   26.4688 H   0  0  0  0  0  0
  -25.7950  -30.8998   27.0244 H   0  0  0  0  0  0
  -26.3094  -29.6631   24.1306 H   0  0  0  0  0  0
  -27.4040  -29.7211   25.4905 H   0  0  0  0  0  0
  -27.8995  -30.4167   23.9683 H   0  0  0  0  0  0
  -27.2615  -33.3659   26.1984 H   0  0  0  0  0  0
  -28.3927  -32.6852   25.0401 H   0  0  0  0  0  0
  -28.0657  -31.8533   26.5542 H   0  0  0  0  0  0
  -28.2576  -38.0079   24.7493 H   0  0  0  0  0  0
  -28.1081  -36.2623   24.6312 H   0  0  0  0  0  0
  -27.2277  -37.1437   25.8859 H   0  0  0  0  0  0
  -20.9507  -29.8564   21.6486 H   0  0  0  0  0  0
  -26.0156  -38.2790   24.1372 H   0  0  0  0  0  0
  -28.0635  -21.4717   22.6295 H   0  0  0  0  0  0
  -29.6565  -16.4890   23.0760 H   0  0  0  0  0  0
  -30.4799  -17.5333   24.1940 H   0  0  0  0  0  0
  -31.2168  -17.2330   22.6512 H   0  0  0  0  0  0
  -27.3297  -17.4961   24.3529 H   0  0  0  0  0  0
  -26.2932  -18.9068   24.1509 H   0  0  0  0  0  0
  -26.7525  -18.3742   25.7697 H   0  0  0  0  0  0
  -28.9481  -21.4075   25.2592 H   0  0  0  0  0  0
  -27.8232  -20.6557   26.3751 H   0  0  0  0  0  0
  -27.2377  -21.2660   24.8332 H   0  0  0  0  0  0
  -29.9549  -20.4356   18.5059 H   0  0  0  0  0  0
  -30.9587  -21.5816   19.3743 H   0  0  0  0  0  0
  -29.8188  -22.1480   18.1564 H   0  0  0  0  0  0
  -27.5173  -20.3635   18.7991 H   0  0  0  0  0  0
  -27.2456  -22.1013   18.6675 H   0  0  0  0  0  0
  -26.7216  -21.2352   20.1038 H   0  0  0  0  0  0
  -29.8924  -23.4544   20.7777 H   0  0  0  0  0  0
  -28.3848  -23.2037   21.5430 H   0  0  0  0  0  0
  -27.0806  -24.3418   19.8568 H   0  0  0  0  0  0
  -28.4213  -24.5629   18.8031 H   0  0  0  0  0  0
  -31.0945  -17.8360   20.0975 H   0  0  0  0  0  0
  -29.5866  -17.8721   19.2428 H   0  0  0  0  0  0
  -29.1436  -18.9266   25.2589 H   0  0  0  0  0  0
  -28.8596  -15.9563   20.8891 H   0  0  0  0  0  0
  1 25  1  0  0  0
  1 30  2  0  0  0
  1 86  1  0  0  0
  2  3  1  0  0  0
  2 25  1  0  0  0
  2 87  1  0  0  0
  2 88  1  0  0  0
  3  4  1  0  0  0
  3 89  1  0  0  0
  3 90  1  0  0  0
  4  5  1  0  0  0
  4 91  1  0  0  0
  4 92  1  0  0  0
  5  6  1  0  0  0
  5 26  1  0  0  0
  5 93  1  0  0  0
  6 25  1  0  0  0
  6 94  1  0  0  0
  6 95  1  0  0  0
  7  8  2  0  0  0
  7 26  1  0  0  0
  7 29  1  0  0  0
  8  9  1  0  0  0
  8 22  1  0  0  0
  9 10  1  0  0  0
  9 27  2  0  0  0
 10 11  2  0  0  0
 10 15  1  0  0  0
 11 12  1  0  0  0
 11 96  1  0  0  0
 12 13  2  0  0  0
 12 97  1  0  0  0
 13 14  1  0  0  0
 13 31  1  0  0  0
 14 15  2  0  0  0
 14 98  1  0  0  0
 15 99  1  0  0  0
 16 17  2  0  0  0
 16 21  1  0  0  0
 16 31  1  0  0  0
 17 18  1  0  0  0
 17100  1  0  0  0
 18 19  2  0  0  0
 18101  1  0  0  0
 19 20  1  0  0  0
 19 24  1  0  0  0
 20 21  2  0  0  0
 20102  1  0  0  0
 21 23  1  0  0  0
 22 28  1  0  0  0
 22 32  2  0  0  0
 26 27  1  0  0  0
 28103  1  0  0  0
 28104  1  0  0  0
 29105  1  0  0  0
 29106  1  0  0  0
 33 34  1  0  0  0
 33 66  1  0  0  0
 33 70  2  0  0  0
 34 36  1  0  0  0
 34 59  1  0  0  0
 34107  1  0  0  0
 35 44  2  0  0  0
 35 45  1  0  0  0
 35 68  1  0  0  0
 36 56  1  0  0  0
 36108  1  0  0  0
 37 39  1  0  0  0
 37 47  1  0  0  0
 37 66  1  0  0  0
 37109  1  0  0  0
 38 43  2  0  0  0
 38 46  1  0  0  0
 38 47  1  0  0  0
 39 64  1  0  0  0
 39 67  2  0  0  0
 40 52  1  0  0  0
 40 53  2  0  0  0
 40 58  1  0  0  0
 41110  1  0  0  0
 41111  1  0  0  0
 41112  1  0  0  0
 41 48  1  0  0  0
 42 43  1  0  0  0
 42 66  1  0  0  0
 42113  1  0  0  0
 42114  1  0  0  0
 43 44  1  0  0  0
 44115  1  0  0  0
 45 46  2  0  0  0
 45116  1  0  0  0
 46117  1  0  0  0
 47118  1  0  0  0
 47119  1  0  0  0
 48 56  1  0  0  0
 48 65  1  0  0  0
 48120  1  0  0  0
 49 50  1  0  0  0
 49 53  1  0  0  0
 49 64  1  0  0  0
 49121  1  0  0  0
 50 51  1  0  0  0
 50122  1  0  0  0
 50123  1  0  0  0
 51 52  1  0  0  0
 51124  1  0  0  0
 51125  1  0  0  0
 52126  1  0  0  0
 52127  1  0  0  0
 53 54  1  0  0  0
 54 55  2  0  0  0
 54128  1  0  0  0
 55 57  1  0  0  0
 55129  1  0  0  0
 56 69  2  0  0  0
 57 58  2  0  0  0
 57130  1  0  0  0
 58131  1  0  0  0
 59 60  1  0  0  0
 59 61  1  0  0  0
 59 62  1  0  0  0
 60132  1  0  0  0
 60133  1  0  0  0
 60134  1  0  0  0
 61135  1  0  0  0
 61136  1  0  0  0
 61137  1  0  0  0
 62138  1  0  0  0
 62139  1  0  0  0
 62140  1  0  0  0
 63 65  1  0  0  0
 63141  1  0  0  0
 63142  1  0  0  0
 63143  1  0  0  0
 64144  1  0  0  0
 65145  1  0  0  0
 68 81  1  0  0  0
 71 72  1  0  0  0
 71 73  2  0  0  0
 71146  1  0  0  0
 72 74  2  0  0  0
 72 83  1  0  0  0
 73 84  1  0  0  0
 73 85  1  0  0  0
 74 75  1  0  0  0
 74 85  1  0  0  0
 75147  1  0  0  0
 75148  1  0  0  0
 75149  1  0  0  0
 76150  1  0  0  0
 76151  1  0  0  0
 76152  1  0  0  0
 76 83  1  0  0  0
 77 83  1  0  0  0
 77153  1  0  0  0
 77154  1  0  0  0
 77155  1  0  0  0
 78156  1  0  0  0
 78157  1  0  0  0
 78158  1  0  0  0
 78 84  1  0  0  0
 79 84  1  0  0  0
 79159  1  0  0  0
 79160  1  0  0  0
 79161  1  0  0  0
 80 81  1  0  0  0
 80 84  1  0  0  0
 80162  1  0  0  0
 80163  1  0  0  0
 81164  1  0  0  0
 81165  1  0  0  0
 82 85  1  0  0  0
 82 86  1  0  0  0
 82166  1  0  0  0
 82167  1  0  0  0
 83168  1  0  0  0
 86169  1  0  0  0
M  ISO  4   1 100  68 101  81 101  86 100
M  END
> <chiral flag>
0

> <version>
0

> <s_m_source_file>
/data/baiqing/PycharmProjects/Reinvent-master-3.2/result/LINK_invent/BTK/process_docking_weight1_custom_sum_contain_oxygen_bond_distance_aromatic_linkinvent_7_9_3/rearranged_h_0108.sdf

> <i_m_source_file_index>
33

> <r_mmod_Potential_Energy-OPLS-2005>
570.364135742188

> <r_mmod_Stretch_Energy-OPLS-2005>
333.191925048828

> <r_mmod_Bend_Energy-OPLS-2005>
343.942504882812

> <r_mmod_Torsional_Energy-OPLS-2005>
250.168441772461

> <r_mmod_Improper_Torsional_Energy-OPLS-2005>
5.82012557983398

> <r_mmod_Van_der_Waal_Energy-OPLS-2005>
116.479148864746

> <r_mmod_Electrostatic_Energy-OPLS-2005>
-486.789855957031

> <r_mmod_Solvation_Energy-OPLS-2005>
-200.630157470703

> <b_mmod_Minimization_Converged-OPLS-2005>
0

> <r_mmod_RMS_Derivative-OPLS-2005>
6.80452394485474

$$$$
33
                    3D
 Structure written by MMmdl.
162169  0  0  1  0            999 V2000
  -30.7205  -14.4064   20.6576 C   0  0  0  0  0  0
  -30.4291  -12.3006   19.4032 C   0  0  0  0  0  0
  -29.4926  -12.5256   18.1989 C   0  0  0  0  0  0
  -28.0149  -12.3735   18.6118 C   0  0  0  0  0  0
  -27.6669  -13.1928   19.8822 C   0  0  2  0  0  0
  -28.7044  -12.9317   20.9968 C   0  0  0  0  0  0
  -25.2620  -13.8123   20.5666 C   0  0  0  0  0  0
  -24.1851  -13.0427   20.9144 C   0  0  0  0  0  0
  -24.6380  -11.6880   20.8725 C   0  0  0  0  0  0
  -23.9032  -10.4283   21.0401 C   0  0  0  0  0  0
  -24.3590   -9.4204   21.9180 C   0  0  0  0  0  0
  -23.6279   -8.2236   22.0753 C   0  0  0  0  0  0
  -22.4264   -8.0269   21.3543 C   0  0  0  0  0  0
  -21.9889   -9.0237   20.4640 C   0  0  0  0  0  0
  -22.7207  -10.2126   20.3050 C   0  0  0  0  0  0
  -21.6852   -6.0717   22.5271 C   0  0  0  0  0  0
  -21.4016   -6.5627   23.8202 C   0  0  0  0  0  0
  -21.3661   -5.6787   24.9170 C   0  0  0  0  0  0
  -21.6046   -4.3047   24.7224 C   0  0  0  0  0  0
  -21.8822   -3.8130   23.4349 C   0  0  0  0  0  0
  -21.9196   -4.6945   22.3403 C   0  0  0  0  0  0
  -22.7880  -13.5241   21.1820 C   0  0  0  0  0  0
  -22.1665   -4.2128   21.0984 F   0  0  0  0  0  0
  -21.5633   -3.4533   25.7741 F   0  0  0  0  0  0
  -30.0444  -13.2444   20.4616 N   0  0  0  0  0  0
  -26.3046  -12.9263   20.3381 N   0  0  0  0  0  0
  -25.9302  -11.6435   20.5752 N   0  0  0  0  0  0
  -22.0522  -12.8238   22.0383 N   0  0  0  0  0  0
  -25.4379  -15.1846   20.4080 N   0  0  0  0  0  0
  -31.7779  -14.6901   20.0869 O   0  0  0  0  0  0
  -21.6639   -6.8861   21.4235 O   0  0  0  0  0  0
  -22.3573  -14.5554   20.6679 O   0  0  0  0  0  0
  -24.6112  -31.8690   23.2103 C   0  0  0  0  0  0
  -25.9007  -32.4831   23.8401 C   0  0  1  0  0  0
  -27.2468  -27.4630   20.0985 C   0  0  0  0  0  0
  -25.5876  -33.8629   24.2336 N   0  0  0  0  0  0
  -23.3993  -30.4888   21.5508 C   0  0  2  0  0  0
  -24.8484  -28.9512   20.1204 C   0  0  0  0  0  0
  -22.7395  -29.4655   22.5021 C   0  0  0  0  0  0
  -18.0262  -28.1379   22.8496 C   0  0  0  0  0  0
  -24.1489  -36.7320   23.2640 C   0  0  0  0  0  0
  -25.9231  -30.8441   21.3571 C   0  0  0  0  0  0
  -26.0046  -29.4777   20.7104 C   0  0  0  0  0  0
  -27.2073  -28.7414   20.6927 C   0  0  0  0  0  0
  -26.0772  -26.9369   19.5107 C   0  0  0  0  0  0
  -24.8781  -27.6784   19.5196 C   0  0  0  0  0  0
  -23.6064  -29.8128   20.1683 C   0  0  0  0  0  0
  -25.4108  -36.3122   24.0345 C   0  0  1  0  0  0
  -20.5848  -28.3651   23.1338 C   0  0  2  0  0  0
  -20.6755  -26.9393   22.5427 C   0  0  0  0  0  0
  -19.5735  -26.6383   21.5224 C   0  0  0  0  0  0
  -18.1910  -26.7926   22.1627 C   0  0  0  0  0  0
  -19.1511  -28.8833   23.2912 C   0  0  0  0  0  0
  -18.9439  -30.1442   23.8919 C   0  0  0  0  0  0
  -17.6443  -30.6585   24.0567 C   0  0  0  0  0  0
  -25.9026  -34.9482   23.5138 C   0  0  0  0  0  0
  -16.5333  -29.9090   23.6330 C   0  0  0  0  0  0
  -16.7251  -28.6506   23.0351 C   0  0  0  0  0  0
  -26.4453  -31.6601   25.0713 C   0  0  0  0  0  0
  -25.3731  -31.3679   26.1470 C   0  0  0  0  0  0
  -27.0288  -30.3060   24.6049 C   0  0  0  0  0  0
  -27.6048  -32.4308   25.7459 C   0  0  0  0  0  0
  -27.5586  -37.1808   24.8466 C   0  0  0  0  0  0
  -21.4127  -29.3022   22.3754 N   0  0  0  0  0  0
  -26.4302  -37.3798   23.9409 N   0  0  0  0  0  0
  -24.6627  -31.0813   22.0989 N   0  0  0  0  0  0
  -23.4175  -28.8210   23.3065 O   0  0  0  0  0  0
  -28.4430  -26.7861   20.0510 O   0  0  0  0  0  0
  -26.5595  -34.8929   22.4700 O   0  0  0  0  0  0
  -23.5308  -32.1431   23.7513 O   0  0  0  0  0  0
  -29.5068  -22.1967   20.5650 C   0  0  0  0  0  0
  -28.5768  -17.4733   20.2506 C   0  0  0  0  0  0
  -27.9967  -25.7727   22.2842 C   0  0  0  0  0  0
  -30.8118  -21.4417   20.2831 C   0  0  0  0  0  0
  -30.4926  -16.6582   21.7523 C   0  0  0  0  0  0
  -28.2348  -24.3225   20.1597 C   0  0  0  0  0  0
  -30.6096  -19.9631   19.8681 C   0  0  0  0  0  0
  -30.0640  -17.6362   20.6271 C   0  0  2  0  0  0
  -28.6232  -25.6334   20.8847 C   0  0  1  0  0  0
  -29.3829  -23.4214   20.0360 N   0  0  0  0  0  0
  -30.1132  -15.2692   21.4823 N   0  0  0  0  0  0
  -30.3664  -19.0401   21.0077 N   0  3  0  0  0  0
  -28.6305  -21.6697   21.2521 O   0  0  0  0  0  0
  -31.4718  -12.4175   19.1013 H   0  0  0  0  0  0
  -30.3419  -11.2771   19.7723 H   0  0  0  0  0  0
  -29.7326  -11.8247   17.3986 H   0  0  0  0  0  0
  -29.6575  -13.5249   17.7924 H   0  0  0  0  0  0
  -27.8242  -11.3147   18.7905 H   0  0  0  0  0  0
  -27.3626  -12.6650   17.7877 H   0  0  0  0  0  0
  -27.7241  -14.2450   19.6074 H   0  0  0  0  0  0
  -28.6762  -11.8837   21.3011 H   0  0  0  0  0  0
  -28.4471  -13.4890   21.8986 H   0  0  0  0  0  0
  -25.2736   -9.5685   22.4748 H   0  0  0  0  0  0
  -23.9982   -7.4630   22.7480 H   0  0  0  0  0  0
  -21.0815   -8.8748   19.8951 H   0  0  0  0  0  0
  -22.3653  -10.9660   19.6154 H   0  0  0  0  0  0
  -21.2011   -7.6136   23.9693 H   0  0  0  0  0  0
  -21.1486   -6.0526   25.9073 H   0  0  0  0  0  0
  -22.0604   -2.7589   23.2859 H   0  0  0  0  0  0
  -22.4117  -11.9887   22.4763 H   0  0  0  0  0  0
  -21.1147  -13.1274   22.2599 H   0  0  0  0  0  0
  -24.6731  -15.8428   20.5112 H   0  0  0  0  0  0
  -26.2956  -15.6186   20.0938 H   0  0  0  0  0  0
  -26.7080  -32.5574   23.1178 H   0  0  0  0  0  0
  -25.0042  -33.9797   25.0493 H   0  0  0  0  0  0
  -22.6866  -31.3036   21.4100 H   0  0  0  0  0  0
  -23.3752  -35.9653   23.3319 H   0  0  0  0  0  0
  -24.3588  -36.8919   22.2051 H   0  0  0  0  0  0
  -23.7247  -37.6531   23.6642 H   0  0  0  0  0  0
  -26.0266  -31.6079   20.5852 H   0  0  0  0  0  0
  -26.8137  -30.9046   21.9714 H   0  0  0  0  0  0
  -28.1064  -29.1487   21.1328 H   0  0  0  0  0  0
  -26.0928  -25.9689   19.0320 H   0  0  0  0  0  0
  -23.9894  -27.2679   19.0607 H   0  0  0  0  0  0
  -23.7065  -30.5828   19.4025 H   0  0  0  0  0  0
  -22.7329  -29.2241   19.8815 H   0  0  0  0  0  0
  -25.1287  -36.1998   25.0842 H   0  0  0  0  0  0
  -20.9939  -28.3211   24.1461 H   0  0  0  0  0  0
  -20.5678  -26.2253   23.3607 H   0  0  0  0  0  0
  -21.6624  -26.7458   22.1208 H   0  0  0  0  0  0
  -19.6900  -25.6303   21.1239 H   0  0  0  0  0  0
  -19.6681  -27.3208   20.6767 H   0  0  0  0  0  0
  -17.4187  -26.6684   21.4020 H   0  0  0  0  0  0
  -18.0296  -26.0068   22.9021 H   0  0  0  0  0  0
  -19.7919  -30.7247   24.2309 H   0  0  0  0  0  0
  -17.5002  -31.6278   24.5153 H   0  0  0  0  0  0
  -15.5335  -30.2995   23.7653 H   0  0  0  0  0  0
  -15.8651  -28.0836   22.7055 H   0  0  0  0  0  0
  -24.5900  -30.7039   25.7791 H   0  0  0  0  0  0
  -24.8918  -32.2816   26.4959 H   0  0  0  0  0  0
  -25.8083  -30.8808   27.0205 H   0  0  0  0  0  0
  -26.2816  -29.6809   24.1142 H   0  0  0  0  0  0
  -27.4134  -29.7301   25.4477 H   0  0  0  0  0  0
  -27.8612  -30.4417   23.9142 H   0  0  0  0  0  0
  -27.2696  -33.3604   26.2077 H   0  0  0  0  0  0
  -28.3820  -32.6875   25.0247 H   0  0  0  0  0  0
  -28.0761  -31.8407   26.5332 H   0  0  0  0  0  0
  -28.2607  -38.0101   24.7519 H   0  0  0  0  0  0
  -28.1078  -36.2633   24.6289 H   0  0  0  0  0  0
  -27.2303  -37.1464   25.8869 H   0  0  0  0  0  0
  -20.9289  -29.8733   21.6969 H   0  0  0  0  0  0
  -26.0200  -38.2885   24.1392 H   0  0  0  0  0  0
  -28.3777  -16.4765   19.8594 H   0  0  0  0  0  0
  -28.2715  -18.1746   19.4748 H   0  0  0  0  0  0
  -27.9255  -17.6256   21.1117 H   0  0  0  0  0  0
  -28.2748  -24.9308   22.9186 H   0  0  0  0  0  0
  -26.9081  -25.8059   22.2409 H   0  0  0  0  0  0
  -28.3399  -26.6836   22.7757 H   0  0  0  0  0  0
  -31.4689  -21.5205   21.1495 H   0  0  0  0  0  0
  -31.3312  -21.9533   19.4713 H   0  0  0  0  0  0
  -30.0210  -16.9448   22.6931 H   0  0  0  0  0  0
  -31.5698  -16.7154   21.9178 H   0  0  0  0  0  0
  -27.8982  -24.5405   19.1471 H   0  0  0  0  0  0
  -27.3926  -23.8383   20.6570 H   0  0  0  0  0  0
  -31.5002  -19.6208   19.3401 H   0  0  0  0  0  0
  -29.7928  -19.8990   19.1484 H   0  0  0  0  0  0
  -30.6626  -17.3965   19.7469 H   0  0  0  0  0  0
  -29.7019  -25.6166   21.0500 H   0  0  0  0  0  0
  -30.1609  -23.7693   19.4900 H   0  0  0  0  0  0
  -29.2623  -14.9390   21.9134 H   0  0  0  0  0  0
  -29.6151  -19.3984   21.5781 H   0  0  0  0  0  0
  -31.1999  -19.0314   21.5746 H   0  0  0  0  0  0
  1 25  1  0  0  0
  1 30  2  0  0  0
  1 81  1  0  0  0
  2  3  1  0  0  0
  2 25  1  0  0  0
  2 84  1  0  0  0
  2 85  1  0  0  0
  3  4  1  0  0  0
  3 86  1  0  0  0
  3 87  1  0  0  0
  4  5  1  0  0  0
  4 88  1  0  0  0
  4 89  1  0  0  0
  5  6  1  0  0  0
  5 26  1  0  0  0
  5 90  1  0  0  0
  6 25  1  0  0  0
  6 91  1  0  0  0
  6 92  1  0  0  0
  7  8  2  0  0  0
  7 26  1  0  0  0
  7 29  1  0  0  0
  8  9  1  0  0  0
  8 22  1  0  0  0
  9 10  1  0  0  0
  9 27  2  0  0  0
 10 11  2  0  0  0
 10 15  1  0  0  0
 11 12  1  0  0  0
 11 93  1  0  0  0
 12 13  2  0  0  0
 12 94  1  0  0  0
 13 14  1  0  0  0
 13 31  1  0  0  0
 14 15  2  0  0  0
 14 95  1  0  0  0
 15 96  1  0  0  0
 16 17  2  0  0  0
 16 21  1  0  0  0
 16 31  1  0  0  0
 17 18  1  0  0  0
 17 97  1  0  0  0
 18 19  2  0  0  0
 18 98  1  0  0  0
 19 20  1  0  0  0
 19 24  1  0  0  0
 20 21  2  0  0  0
 20 99  1  0  0  0
 21 23  1  0  0  0
 22 28  1  0  0  0
 22 32  2  0  0  0
 26 27  1  0  0  0
 28100  1  0  0  0
 28101  1  0  0  0
 29102  1  0  0  0
 29103  1  0  0  0
 33 34  1  0  0  0
 33 66  1  0  0  0
 33 70  2  0  0  0
 34 36  1  0  0  0
 34 59  1  0  0  0
 34104  1  0  0  0
 35 44  2  0  0  0
 35 45  1  0  0  0
 35 68  1  0  0  0
 36 56  1  0  0  0
 36105  1  0  0  0
 37 39  1  0  0  0
 37 47  1  0  0  0
 37 66  1  0  0  0
 37106  1  0  0  0
 38 43  2  0  0  0
 38 46  1  0  0  0
 38 47  1  0  0  0
 39 64  1  0  0  0
 39 67  2  0  0  0
 40 52  1  0  0  0
 40 53  2  0  0  0
 40 58  1  0  0  0
 41107  1  0  0  0
 41108  1  0  0  0
 41109  1  0  0  0
 41 48  1  0  0  0
 42 43  1  0  0  0
 42 66  1  0  0  0
 42110  1  0  0  0
 42111  1  0  0  0
 43 44  1  0  0  0
 44112  1  0  0  0
 45 46  2  0  0  0
 45113  1  0  0  0
 46114  1  0  0  0
 47115  1  0  0  0
 47116  1  0  0  0
 48 56  1  0  0  0
 48 65  1  0  0  0
 48117  1  0  0  0
 49 50  1  0  0  0
 49 53  1  0  0  0
 49 64  1  0  0  0
 49118  1  0  0  0
 50 51  1  0  0  0
 50119  1  0  0  0
 50120  1  0  0  0
 51 52  1  0  0  0
 51121  1  0  0  0
 51122  1  0  0  0
 52123  1  0  0  0
 52124  1  0  0  0
 53 54  1  0  0  0
 54 55  2  0  0  0
 54125  1  0  0  0
 55 57  1  0  0  0
 55126  1  0  0  0
 56 69  2  0  0  0
 57 58  2  0  0  0
 57127  1  0  0  0
 58128  1  0  0  0
 59 60  1  0  0  0
 59 61  1  0  0  0
 59 62  1  0  0  0
 60129  1  0  0  0
 60130  1  0  0  0
 60131  1  0  0  0
 61132  1  0  0  0
 61133  1  0  0  0
 61134  1  0  0  0
 62135  1  0  0  0
 62136  1  0  0  0
 62137  1  0  0  0
 63 65  1  0  0  0
 63138  1  0  0  0
 63139  1  0  0  0
 63140  1  0  0  0
 64141  1  0  0  0
 65142  1  0  0  0
 68 79  1  0  0  0
 71 74  1  0  0  0
 71 80  1  0  0  0
 71 83  2  0  0  0
 72143  1  0  0  0
 72144  1  0  0  0
 72145  1  0  0  0
 72 78  1  0  0  0
 73146  1  0  0  0
 73147  1  0  0  0
 73148  1  0  0  0
 73 79  1  0  0  0
 74 77  1  0  0  0
 74149  1  0  0  0
 74150  1  0  0  0
 75 78  1  0  0  0
 75 81  1  0  0  0
 75151  1  0  0  0
 75152  1  0  0  0
 76 79  1  0  0  0
 76 80  1  0  0  0
 76153  1  0  0  0
 76154  1  0  0  0
 77 82  1  0  0  0
 77155  1  0  0  0
 77156  1  0  0  0
 78 82  1  0  0  0
 78157  1  0  0  0
 79158  1  0  0  0
 80159  1  0  0  0
 81160  1  0  0  0
 82161  1  0  0  0
 82162  1  0  0  0
M  CHG  1  82   1
M  ISO  4   1 100  68 101  79 101  81 100
M  END
> <chiral flag>
0

> <version>
0

> <s_m_source_file>
/data/baiqing/PycharmProjects/Reinvent-master-3.2/result/LINK_invent/BTK/process_docking_weight1_custom_sum_contain_oxygen_bond_distance_aromatic_linkinvent_7_9_3/rearranged_h_0108.sdf

> <i_m_source_file_index>
34

> <r_mmod_Potential_Energy-OPLS-2005>
-415.030975341797

> <r_mmod_Stretch_Energy-OPLS-2005>
32.9461708068848

> <r_mmod_Bend_Energy-OPLS-2005>
98.704475402832

> <r_mmod_Torsional_Energy-OPLS-2005>
225.799774169922

> <r_mmod_Improper_Torsional_Energy-OPLS-2005>
2.21615195274353

> <r_mmod_Van_der_Waal_Energy-OPLS-2005>
129.970428466797

> <r_mmod_Electrostatic_Energy-OPLS-2005>
-446.650726318359

> <r_mmod_Solvation_Energy-OPLS-2005>
-465.636108398438

> <b_mmod_Minimization_Converged-OPLS-2005>
0

> <r_mmod_RMS_Derivative-OPLS-2005>
1.26474928855896

$$$$
34
                    3D
 Structure written by MMmdl.
169177  0  0  1  0            999 V2000
  -30.7135  -14.4616   20.6183 C   0  0  0  0  0  0
  -30.4248  -12.3220   19.4080 C   0  0  0  0  0  0
  -29.4886  -12.5117   18.1980 C   0  0  0  0  0  0
  -28.0132  -12.3623   18.6175 C   0  0  0  0  0  0
  -27.6607  -13.2037   19.8728 C   0  0  2  0  0  0
  -28.7027  -12.9780   20.9898 C   0  0  0  0  0  0
  -25.2588  -13.8149   20.5677 C   0  0  0  0  0  0
  -24.1836  -13.0432   20.9172 C   0  0  0  0  0  0
  -24.6382  -11.6896   20.8725 C   0  0  0  0  0  0
  -23.9048  -10.4289   21.0398 C   0  0  0  0  0  0
  -24.3604   -9.4213   21.9183 C   0  0  0  0  0  0
  -23.6283   -8.2245   22.0758 C   0  0  0  0  0  0
  -22.4269   -8.0274   21.3542 C   0  0  0  0  0  0
  -21.9903   -9.0243   20.4642 C   0  0  0  0  0  0
  -22.7224  -10.2125   20.3048 C   0  0  0  0  0  0
  -21.6851   -6.0731   22.5281 C   0  0  0  0  0  0
  -21.4010   -6.5637   23.8211 C   0  0  0  0  0  0
  -21.3657   -5.6791   24.9175 C   0  0  0  0  0  0
  -21.6045   -4.3057   24.7230 C   0  0  0  0  0  0
  -21.8820   -3.8146   23.4351 C   0  0  0  0  0  0
  -21.9193   -4.6958   22.3406 C   0  0  0  0  0  0
  -22.7861  -13.5237   21.1841 C   0  0  0  0  0  0
  -22.1663   -4.2142   21.0983 F   0  0  0  0  0  0
  -21.5629   -3.4542   25.7746 F   0  0  0  0  0  0
  -30.0321  -13.2965   20.4383 N   0  0  0  0  0  0
  -26.3017  -12.9313   20.3354 N   0  0  0  0  0  0
  -25.9306  -11.6476   20.5752 N   0  0  0  0  0  0
  -22.0498  -12.8222   22.0387 N   0  0  0  0  0  0
  -25.4327  -15.1865   20.4098 N   0  0  0  0  0  0
  -31.8181  -14.6754   20.1126 O   0  0  0  0  0  0
  -21.6635   -6.8870   21.4240 O   0  0  0  0  0  0
  -22.3554  -14.5551   20.6700 O   0  0  0  0  0  0
  -24.6158  -31.8664   23.2078 C   0  0  0  0  0  0
  -25.9044  -32.4816   23.8385 C   0  0  1  0  0  0
  -27.2390  -27.4272   20.1070 C   0  0  0  0  0  0
  -25.5899  -33.8613   24.2322 N   0  0  0  0  0  0
  -23.4042  -30.4875   21.5489 C   0  0  2  0  0  0
  -24.8531  -28.9495   20.1177 C   0  0  0  0  0  0
  -22.7418  -29.4648   22.4995 C   0  0  0  0  0  0
  -18.0272  -28.1374   22.8494 C   0  0  0  0  0  0
  -24.1479  -36.7303   23.2637 C   0  0  0  0  0  0
  -25.9320  -30.8324   21.3587 C   0  0  0  0  0  0
  -26.0131  -29.4640   20.7113 C   0  0  0  0  0  0
  -27.2116  -28.7120   20.6977 C   0  0  0  0  0  0
  -26.0645  -26.9293   19.5035 C   0  0  0  0  0  0
  -24.8740  -27.6817   19.5092 C   0  0  0  0  0  0
  -23.6133  -29.8144   20.1661 C   0  0  0  0  0  0
  -25.4102  -36.3105   24.0339 C   0  0  1  0  0  0
  -20.5861  -28.3660   23.1314 C   0  0  2  0  0  0
  -20.6763  -26.9397   22.5412 C   0  0  0  0  0  0
  -19.5741  -26.6380   21.5210 C   0  0  0  0  0  0
  -18.1918  -26.7919   22.1623 C   0  0  0  0  0  0
  -19.1522  -28.8834   23.2898 C   0  0  0  0  0  0
  -18.9453  -30.1442   23.8904 C   0  0  0  0  0  0
  -17.6457  -30.6582   24.0563 C   0  0  0  0  0  0
  -25.9035  -34.9472   23.5129 C   0  0  0  0  0  0
  -16.5347  -29.9083   23.6334 C   0  0  0  0  0  0
  -16.7262  -28.6500   23.0355 C   0  0  0  0  0  0
  -26.4482  -31.6588   25.0708 C   0  0  0  0  0  0
  -25.3749  -31.3651   26.1447 C   0  0  0  0  0  0
  -27.0343  -30.3055   24.6046 C   0  0  0  0  0  0
  -27.6041  -32.4315   25.7493 C   0  0  0  0  0  0
  -27.5573  -37.1806   24.8468 C   0  0  0  0  0  0
  -21.4144  -29.3031   22.3733 N   0  0  0  0  0  0
  -26.4284  -37.3795   23.9417 N   0  0  0  0  0  0
  -24.6694  -31.0763   22.0976 N   0  0  0  0  0  0
  -23.4185  -28.8198   23.3043 O   0  0  0  0  0  0
  -28.4007  -26.6810   20.0904 O   0  0  0  0  0  0
  -26.5598  -34.8921   22.4691 O   0  0  0  0  0  0
  -23.5351  -32.1417   23.7473 O   0  0  0  0  0  0
  -29.1154  -18.6636   21.3491 C   0  0  0  0  0  0
  -30.3059  -17.9366   21.1077 C   0  0  0  0  0  0
  -29.8541  -20.4012   19.9875 C   0  0  0  0  0  0
  -31.0294  -19.6358   19.6936 C   0  0  0  0  0  0
  -28.6383  -21.5700   18.1111 C   0  0  0  0  0  0
  -32.4069  -19.0283   17.6405 C   0  0  0  0  0  0
  -33.4142  -20.4699   19.4904 C   0  0  0  0  0  0
  -29.0167  -25.4937   22.0690 C   0  0  0  0  0  0
  -30.6504  -16.6474   21.8641 C   0  0  0  0  0  0
  -28.9626  -22.8417   20.3241 C   0  0  0  0  0  0
  -29.0056  -24.3090   19.7898 C   0  0  0  0  0  0
  -29.5333  -21.7718   19.3445 C   0  0  1  0  0  0
  -32.1368  -20.0804   18.7303 C   0  0  0  0  0  0
  -28.3353  -25.3745   20.6988 C   0  0  2  0  0  0
  -28.8859  -19.8807   20.7894 N   0  0  0  0  0  0
  -31.2531  -18.4256   20.2755 N   0  0  0  0  0  0
  -30.0797  -15.3934   21.3506 N   0  0  0  0  0  0
  -31.4662  -12.4352   19.1008 H   0  0  0  0  0  0
  -30.3415  -11.3079   19.8022 H   0  0  0  0  0  0
  -29.7292  -11.7873   17.4188 H   0  0  0  0  0  0
  -29.6474  -13.4982   17.7590 H   0  0  0  0  0  0
  -27.8332  -11.3055   18.8191 H   0  0  0  0  0  0
  -27.3566  -12.6287   17.7883 H   0  0  0  0  0  0
  -27.7072  -14.2521   19.5776 H   0  0  0  0  0  0
  -28.6853  -11.9374   21.3172 H   0  0  0  0  0  0
  -28.4525  -13.5601   21.8771 H   0  0  0  0  0  0
  -25.2745   -9.5694   22.4758 H   0  0  0  0  0  0
  -23.9993   -7.4642   22.7483 H   0  0  0  0  0  0
  -21.0836   -8.8750   19.8945 H   0  0  0  0  0  0
  -22.3679  -10.9656   19.6151 H   0  0  0  0  0  0
  -21.1998   -7.6142   23.9711 H   0  0  0  0  0  0
  -21.1478   -6.0524   25.9075 H   0  0  0  0  0  0
  -22.0600   -2.7607   23.2857 H   0  0  0  0  0  0
  -22.4109  -11.9868   22.4749 H   0  0  0  0  0  0
  -21.1114  -13.1245   22.2598 H   0  0  0  0  0  0
  -24.6674  -15.8438   20.5152 H   0  0  0  0  0  0
  -26.2883  -15.6235   20.0909 H   0  0  0  0  0  0
  -26.7118  -32.5538   23.1154 H   0  0  0  0  0  0
  -25.0088  -33.9779   25.0494 H   0  0  0  0  0  0
  -22.6927  -31.3037   21.4062 H   0  0  0  0  0  0
  -23.3748  -35.9626   23.3300 H   0  0  0  0  0  0
  -24.3575  -36.8926   22.2052 H   0  0  0  0  0  0
  -23.7219  -37.6499   23.6662 H   0  0  0  0  0  0
  -26.0352  -31.5928   20.5832 H   0  0  0  0  0  0
  -26.8234  -30.8957   21.9710 H   0  0  0  0  0  0
  -28.1094  -29.1063   21.1534 H   0  0  0  0  0  0
  -26.0711  -25.9589   19.0272 H   0  0  0  0  0  0
  -23.9839  -27.2803   19.0449 H   0  0  0  0  0  0
  -23.7173  -30.5853   19.4016 H   0  0  0  0  0  0
  -22.7388  -29.2293   19.8758 H   0  0  0  0  0  0
  -25.1273  -36.1967   25.0830 H   0  0  0  0  0  0
  -20.9953  -28.3221   24.1434 H   0  0  0  0  0  0
  -20.5679  -26.2262   23.3596 H   0  0  0  0  0  0
  -21.6631  -26.7445   22.1195 H   0  0  0  0  0  0
  -19.6904  -25.6294   21.1233 H   0  0  0  0  0  0
  -19.6681  -27.3194   20.6746 H   0  0  0  0  0  0
  -17.4192  -26.6679   21.4018 H   0  0  0  0  0  0
  -18.0311  -26.0047   22.9003 H   0  0  0  0  0  0
  -19.7930  -30.7256   24.2268 H   0  0  0  0  0  0
  -17.5016  -31.6266   24.5156 H   0  0  0  0  0  0
  -15.5351  -30.2991   23.7651 H   0  0  0  0  0  0
  -15.8663  -28.0827   22.7064 H   0  0  0  0  0  0
  -24.5935  -30.6995   25.7764 H   0  0  0  0  0  0
  -24.8925  -32.2787   26.4934 H   0  0  0  0  0  0
  -25.8110  -30.8790   27.0185 H   0  0  0  0  0  0
  -26.2889  -29.6786   24.1139 H   0  0  0  0  0  0
  -27.4208  -29.7303   25.4471 H   0  0  0  0  0  0
  -27.8665  -30.4424   23.9135 H   0  0  0  0  0  0
  -27.2657  -33.3622   26.2061 H   0  0  0  0  0  0
  -28.3870  -32.6863   25.0335 H   0  0  0  0  0  0
  -28.0684  -31.8439   26.5424 H   0  0  0  0  0  0
  -28.2576  -38.0117   24.7549 H   0  0  0  0  0  0
  -28.1089  -36.2653   24.6266 H   0  0  0  0  0  0
  -27.2296  -37.1420   25.8871 H   0  0  0  0  0  0
  -20.9307  -29.8756   21.6958 H   0  0  0  0  0  0
  -26.0169  -38.2868   24.1436 H   0  0  0  0  0  0
  -28.3618  -18.2872   22.0256 H   0  0  0  0  0  0
  -29.1013  -20.8774   17.4073 H   0  0  0  0  0  0
  -28.4616  -22.4999   17.5732 H   0  0  0  0  0  0
  -27.6698  -21.1567   18.3927 H   0  0  0  0  0  0
  -31.4962  -18.8030   17.0847 H   0  0  0  0  0  0
  -32.7795  -18.0938   18.0613 H   0  0  0  0  0  0
  -33.1481  -19.3849   16.9247 H   0  0  0  0  0  0
  -33.2144  -21.2760   20.1968 H   0  0  0  0  0  0
  -34.1915  -20.8154   18.8087 H   0  0  0  0  0  0
  -33.8168  -19.6278   20.0542 H   0  0  0  0  0  0
  -28.9330  -24.5689   22.6390 H   0  0  0  0  0  0
  -28.5583  -26.2817   22.6675 H   0  0  0  0  0  0
  -30.0760  -25.7288   21.9647 H   0  0  0  0  0  0
  -30.3032  -16.7645   22.8911 H   0  0  0  0  0  0
  -31.7357  -16.5591   21.9427 H   0  0  0  0  0  0
  -27.9433  -22.5741   20.6044 H   0  0  0  0  0  0
  -29.5466  -22.8000   21.2433 H   0  0  0  0  0  0
  -28.5126  -24.3553   18.8195 H   0  0  0  0  0  0
  -30.0426  -24.5942   19.6070 H   0  0  0  0  0  0
  -30.4660  -22.2150   19.0100 H   0  0  0  0  0  0
  -31.8216  -20.9569   18.1735 H   0  0  0  0  0  0
  -27.3022  -25.0674   20.8704 H   0  0  0  0  0  0
  -29.1649  -15.1422   21.6921 H   0  0  0  0  0  0
  1 25  1  0  0  0
  1 30  2  0  0  0
  1 87  1  0  0  0
  2  3  1  0  0  0
  2 25  1  0  0  0
  2 88  1  0  0  0
  2 89  1  0  0  0
  3  4  1  0  0  0
  3 90  1  0  0  0
  3 91  1  0  0  0
  4  5  1  0  0  0
  4 92  1  0  0  0
  4 93  1  0  0  0
  5  6  1  0  0  0
  5 26  1  0  0  0
  5 94  1  0  0  0
  6 25  1  0  0  0
  6 95  1  0  0  0
  6 96  1  0  0  0
  7  8  2  0  0  0
  7 26  1  0  0  0
  7 29  1  0  0  0
  8  9  1  0  0  0
  8 22  1  0  0  0
  9 10  1  0  0  0
  9 27  2  0  0  0
 10 11  2  0  0  0
 10 15  1  0  0  0
 11 12  1  0  0  0
 11 97  1  0  0  0
 12 13  2  0  0  0
 12 98  1  0  0  0
 13 14  1  0  0  0
 13 31  1  0  0  0
 14 15  2  0  0  0
 14 99  1  0  0  0
 15100  1  0  0  0
 16 17  2  0  0  0
 16 21  1  0  0  0
 16 31  1  0  0  0
 17 18  1  0  0  0
 17101  1  0  0  0
 18 19  2  0  0  0
 18102  1  0  0  0
 19 20  1  0  0  0
 19 24  1  0  0  0
 20 21  2  0  0  0
 20103  1  0  0  0
 21 23  1  0  0  0
 22 28  1  0  0  0
 22 32  2  0  0  0
 26 27  1  0  0  0
 28104  1  0  0  0
 28105  1  0  0  0
 29106  1  0  0  0
 29107  1  0  0  0
 33 34  1  0  0  0
 33 66  1  0  0  0
 33 70  2  0  0  0
 34 36  1  0  0  0
 34 59  1  0  0  0
 34108  1  0  0  0
 35 44  2  0  0  0
 35 45  1  0  0  0
 35 68  1  0  0  0
 36 56  1  0  0  0
 36109  1  0  0  0
 37 39  1  0  0  0
 37 47  1  0  0  0
 37 66  1  0  0  0
 37110  1  0  0  0
 38 43  2  0  0  0
 38 46  1  0  0  0
 38 47  1  0  0  0
 39 64  1  0  0  0
 39 67  2  0  0  0
 40 52  1  0  0  0
 40 53  2  0  0  0
 40 58  1  0  0  0
 41111  1  0  0  0
 41112  1  0  0  0
 41113  1  0  0  0
 41 48  1  0  0  0
 42 43  1  0  0  0
 42 66  1  0  0  0
 42114  1  0  0  0
 42115  1  0  0  0
 43 44  1  0  0  0
 44116  1  0  0  0
 45 46  2  0  0  0
 45117  1  0  0  0
 46118  1  0  0  0
 47119  1  0  0  0
 47120  1  0  0  0
 48 56  1  0  0  0
 48 65  1  0  0  0
 48121  1  0  0  0
 49 50  1  0  0  0
 49 53  1  0  0  0
 49 64  1  0  0  0
 49122  1  0  0  0
 50 51  1  0  0  0
 50123  1  0  0  0
 50124  1  0  0  0
 51 52  1  0  0  0
 51125  1  0  0  0
 51126  1  0  0  0
 52127  1  0  0  0
 52128  1  0  0  0
 53 54  1  0  0  0
 54 55  2  0  0  0
 54129  1  0  0  0
 55 57  1  0  0  0
 55130  1  0  0  0
 56 69  2  0  0  0
 57 58  2  0  0  0
 57131  1  0  0  0
 58132  1  0  0  0
 59 60  1  0  0  0
 59 61  1  0  0  0
 59 62  1  0  0  0
 60133  1  0  0  0
 60134  1  0  0  0
 60135  1  0  0  0
 61136  1  0  0  0
 61137  1  0  0  0
 61138  1  0  0  0
 62139  1  0  0  0
 62140  1  0  0  0
 62141  1  0  0  0
 63 65  1  0  0  0
 63142  1  0  0  0
 63143  1  0  0  0
 63144  1  0  0  0
 64145  1  0  0  0
 65146  1  0  0  0
 68 84  1  0  0  0
 71 72  2  0  0  0
 71 85  1  0  0  0
 71147  1  0  0  0
 72 79  1  0  0  0
 72 86  1  0  0  0
 73 74  1  0  0  0
 73 82  1  0  0  0
 73 85  2  0  0  0
 74 83  1  0  0  0
 74 86  2  0  0  0
 75148  1  0  0  0
 75149  1  0  0  0
 75150  1  0  0  0
 75 82  1  0  0  0
 76151  1  0  0  0
 76152  1  0  0  0
 76153  1  0  0  0
 76 83  1  0  0  0
 77 83  1  0  0  0
 77154  1  0  0  0
 77155  1  0  0  0
 77156  1  0  0  0
 78157  1  0  0  0
 78158  1  0  0  0
 78159  1  0  0  0
 78 84  1  0  0  0
 79 87  1  0  0  0
 79160  1  0  0  0
 79161  1  0  0  0
 80 81  1  0  0  0
 80 82  1  0  0  0
 80162  1  0  0  0
 80163  1  0  0  0
 81 84  1  0  0  0
 81164  1  0  0  0
 81165  1  0  0  0
 82166  1  0  0  0
 83167  1  0  0  0
 84168  1  0  0  0
 87169  1  0  0  0
M  ISO  4   1 100  68 101  84 101  87 100
M  END
> <chiral flag>
0

> <version>
0

> <s_m_source_file>
/data/baiqing/PycharmProjects/Reinvent-master-3.2/result/LINK_invent/BTK/process_docking_weight1_custom_sum_contain_oxygen_bond_distance_aromatic_linkinvent_7_9_3/rearranged_h_0108.sdf

> <i_m_source_file_index>
35

> <r_mmod_Potential_Energy-OPLS-2005>
-86.8449401855469

> <r_mmod_Stretch_Energy-OPLS-2005>
44.5111541748047

> <r_mmod_Bend_Energy-OPLS-2005>
104.788162231445

> <r_mmod_Torsional_Energy-OPLS-2005>
195.136566162109

> <r_mmod_Improper_Torsional_Energy-OPLS-2005>
2.69300699234009

> <r_mmod_Van_der_Waal_Energy-OPLS-2005>
151.878494262695

> <r_mmod_Electrostatic_Energy-OPLS-2005>
-381.005462646484

> <r_mmod_Solvation_Energy-OPLS-2005>
-216.354766845703

> <b_mmod_Minimization_Converged-OPLS-2005>
0

> <r_mmod_RMS_Derivative-OPLS-2005>
0.890594840049744

$$$$
35
                    3D
 Structure written by MMmdl.
171179  0  0  1  0            999 V2000
  -30.2578  -15.3773   20.5871 C   0  0  0  0  0  0
  -30.4208  -12.9158   19.5941 C   0  0  0  0  0  0
  -29.5419  -12.6318   18.3363 C   0  0  0  0  0  0
  -28.0894  -12.3169   18.7345 C   0  0  0  0  0  0
  -27.5992  -13.2724   19.8466 C   0  0  2  0  0  0
  -28.5981  -13.4079   21.0143 C   0  0  0  0  0  0
  -25.2278  -13.8225   20.5784 C   0  0  0  0  0  0
  -24.1620  -13.0416   20.9261 C   0  0  0  0  0  0
  -24.6260  -11.6912   20.8733 C   0  0  0  0  0  0
  -23.8993  -10.4290   21.0406 C   0  0  0  0  0  0
  -24.3589   -9.4225   21.9194 C   0  0  0  0  0  0
  -23.6287   -8.2251   22.0751 C   0  0  0  0  0  0
  -22.4274   -8.0280   21.3545 C   0  0  0  0  0  0
  -21.9890   -9.0229   20.4637 C   0  0  0  0  0  0
  -22.7173  -10.2122   20.3050 C   0  0  0  0  0  0
  -21.6851   -6.0721   22.5272 C   0  0  0  0  0  0
  -21.4002   -6.5629   23.8201 C   0  0  0  0  0  0
  -21.3660   -5.6795   24.9175 C   0  0  0  0  0  0
  -21.6063   -4.3056   24.7227 C   0  0  0  0  0  0
  -21.8819   -3.8133   23.4346 C   0  0  0  0  0  0
  -21.9177   -4.6945   22.3397 C   0  0  0  0  0  0
  -22.7657  -13.5196   21.1896 C   0  0  0  0  0  0
  -22.1662   -4.2126   21.0976 F   0  0  0  0  0  0
  -21.5621   -3.4542   25.7738 F   0  0  0  0  0  0
  -29.8026  -14.0195   20.4518 N   0  0  0  0  0  0
  -26.2658  -12.9467   20.3227 N   0  0  0  0  0  0
  -25.9189  -11.6577   20.5731 N   0  0  0  0  0  0
  -22.0337  -12.8190   22.0464 N   0  0  0  0  0  0
  -25.4025  -15.1958   20.4241 N   0  0  0  0  0  0
  -31.4602  -15.4558   20.2685 O   0  0  0  0  0  0
  -21.6658   -6.8870   21.4235 O   0  0  0  0  0  0
  -22.3328  -14.5508   20.6762 O   0  0  0  0  0  0
  -24.5773  -31.8310   23.2859 C   0  0  0  0  0  0
  -25.8632  -32.4749   23.8965 C   0  0  1  0  0  0
  -27.7238  -26.6284   19.3347 C   0  0  0  0  0  0
  -25.5472  -33.8705   24.2316 N   0  0  0  0  0  0
  -23.4052  -30.4183   21.6429 C   0  0  2  0  0  0
  -24.8220  -28.6314   20.3928 C   0  0  0  0  0  0
  -22.7007  -29.4222   22.5617 C   0  0  0  0  0  0
  -18.0087  -28.1349   22.8439 C   0  0  0  0  0  0
  -24.1428  -36.7391   23.2594 C   0  0  0  0  0  0
  -25.8866  -30.2519   21.8991 C   0  0  0  0  0  0
  -26.0210  -28.6196   21.6093 C   0  0  0  0  0  0
  -28.0293  -27.1621   20.8701 C   0  0  0  0  0  0
  -26.2589  -26.8354   18.5225 C   0  0  0  0  0  0
  -24.9821  -27.7764   19.0064 C   0  0  0  0  0  0
  -23.7097  -29.6918   20.3214 C   0  0  0  0  0  0
  -25.4059  -36.3134   24.0262 C   0  0  1  0  0  0
  -20.5574  -28.3491   23.1418 C   0  0  2  0  0  0
  -20.6585  -26.9282   22.5395 C   0  0  0  0  0  0
  -19.5548  -26.6236   21.5218 C   0  0  0  0  0  0
  -18.1719  -26.7869   22.1616 C   0  0  0  0  0  0
  -19.1333  -28.8749   23.2900 C   0  0  0  0  0  0
  -18.9345  -30.1388   23.8866 C   0  0  0  0  0  0
  -17.6390  -30.6576   24.0538 C   0  0  0  0  0  0
  -25.8942  -34.9442   23.5123 C   0  0  0  0  0  0
  -16.5248  -29.9115   23.6300 C   0  0  0  0  0  0
  -16.7127  -28.6548   23.0259 C   0  0  0  0  0  0
  -26.3994  -31.7277   25.1855 C   0  0  0  0  0  0
  -25.3008  -31.4533   26.2308 C   0  0  0  0  0  0
  -27.0472  -30.3807   24.8766 C   0  0  0  0  0  0
  -27.5363  -32.5553   25.8332 C   0  0  0  0  0  0
  -27.5522  -37.1787   24.8404 C   0  0  0  0  0  0
  -21.3825  -29.2879   22.3954 N   0  0  0  0  0  0
  -26.4258  -37.3790   23.9341 N   0  0  0  0  0  0
  -24.6353  -30.8869   22.3003 N   0  0  0  0  0  0
  -23.3460  -28.7699   23.3870 O   0  0  0  0  0  0
  -28.6887  -27.2609   18.7224 O   0  0  0  0  0  0
  -26.5698  -34.8796   22.4820 O   0  0  0  0  0  0
  -23.4862  -32.2172   23.7229 O   0  0  0  0  0  0
  -28.2197  -28.7482   22.6035 C   0  0  0  0  0  0
  -27.4593  -27.2926   23.1679 C   0  0  0  0  0  0
  -28.1575  -29.4731   21.0156 C   0  0  0  0  0  0
  -25.9460  -26.5774   20.8518 C   0  0  0  0  0  0
  -26.5661  -26.0856   22.3394 C   0  0  0  0  0  0
  -27.1232  -28.7489   19.7495 C   0  0  0  0  0  0
  -29.2677  -29.5797   18.3977 C   0  0  0  0  0  0
  -29.4514  -18.6255   19.3438 C   0  0  0  0  0  0
  -28.2697  -19.2034   23.0204 C   0  0  0  0  0  0
  -26.8794  -19.3692   20.9715 C   0  0  0  0  0  0
  -27.1851  -24.3762   22.5184 C   0  0  0  0  0  0
  -28.3598  -21.5485   21.7060 C   0  0  0  0  0  0
  -28.0988  -28.5795   18.5199 C   0  0  1  0  0  0
  -29.3851  -18.3209   20.8518 C   0  0  1  0  0  0
  -28.2747  -19.6644   21.5520 C   0  0  0  0  0  0
  -29.3985  -16.5926   20.9158 N   0  0  0  0  0  0
  -27.2615  -22.8776   21.6807 N   0  3  0  0  0  0
  -31.4214  -13.1956   19.2647 H   0  0  0  0  0  0
  -30.5548  -12.0031   20.1790 H   0  0  0  0  0  0
  -29.9557  -11.8068   17.7523 H   0  0  0  0  0  0
  -29.5500  -13.5050   17.6787 H   0  0  0  0  0  0
  -28.0500  -11.2869   19.0889 H   0  0  0  0  0  0
  -27.4338  -12.3731   17.8637 H   0  0  0  0  0  0
  -27.5303  -14.2495   19.3599 H   0  0  0  0  0  0
  -28.8041  -12.4438   21.4822 H   0  0  0  0  0  0
  -28.2002  -14.0518   21.7956 H   0  0  0  0  0  0
  -25.2712   -9.5715   22.4805 H   0  0  0  0  0  0
  -23.9970   -7.4645   22.7469 H   0  0  0  0  0  0
  -21.0836   -8.8730   19.8952 H   0  0  0  0  0  0
  -22.3611  -10.9666   19.6176 H   0  0  0  0  0  0
  -21.2026   -7.6143   23.9690 H   0  0  0  0  0  0
  -21.1486   -6.0541   25.9076 H   0  0  0  0  0  0
  -22.0600   -2.7587   23.2853 H   0  0  0  0  0  0
  -22.3936  -11.9818   22.4820 H   0  0  0  0  0  0
  -21.0948  -13.1208   22.2680 H   0  0  0  0  0  0
  -24.6597  -15.8649   20.5899 H   0  0  0  0  0  0
  -26.2510  -15.6196   20.0756 H   0  0  0  0  0  0
  -26.6597  -32.5174   23.1580 H   0  0  0  0  0  0
  -24.9244  -34.0088   25.0131 H   0  0  0  0  0  0
  -22.7408  -31.2623   21.4326 H   0  0  0  0  0  0
  -23.3657  -35.9741   23.3256 H   0  0  0  0  0  0
  -24.3479  -36.9030   22.1993 H   0  0  0  0  0  0
  -23.7234  -37.6615   23.6660 H   0  0  0  0  0  0
  -26.0673  -30.7853   20.9651 H   0  0  0  0  0  0
  -26.6871  -30.6134   22.5035 H   0  0  0  0  0  0
  -29.0800  -27.1739   21.1630 H   0  0  0  0  0  0
  -26.2211  -26.4877   17.5007 H   0  0  0  0  0  0
  -24.1924  -27.8978   18.2807 H   0  0  0  0  0  0
  -24.0182  -30.4328   19.5861 H   0  0  0  0  0  0
  -22.8026  -29.2390   19.9171 H   0  0  0  0  0  0
  -25.1228  -36.2071   25.0760 H   0  0  0  0  0  0
  -20.9477  -28.2974   24.1619 H   0  0  0  0  0  0
  -20.5611  -26.2085   23.3549 H   0  0  0  0  0  0
  -21.6466  -26.7446   22.1135 H   0  0  0  0  0  0
  -19.6660  -25.6099   21.1346 H   0  0  0  0  0  0
  -19.6502  -27.2894   20.6662 H   0  0  0  0  0  0
  -17.3955  -26.6632   21.4054 H   0  0  0  0  0  0
  -18.0085  -26.0063   22.9059 H   0  0  0  0  0  0
  -19.7879  -30.7132   24.2201 H   0  0  0  0  0  0
  -17.5012  -31.6278   24.5122 H   0  0  0  0  0  0
  -15.5267  -30.3043   23.7698 H   0  0  0  0  0  0
  -15.8475  -28.1014   22.6895 H   0  0  0  0  0  0
  -24.5342  -30.7744   25.8588 H   0  0  0  0  0  0
  -24.8012  -32.3747   26.5292 H   0  0  0  0  0  0
  -25.7046  -31.0053   27.1391 H   0  0  0  0  0  0
  -26.3689  -29.6727   24.4069 H   0  0  0  0  0  0
  -27.4237  -29.8937   25.7779 H   0  0  0  0  0  0
  -27.9082  -30.6035   24.2608 H   0  0  0  0  0  0
  -27.1712  -33.4996   26.2429 H   0  0  0  0  0  0
  -28.3206  -32.7975   25.1145 H   0  0  0  0  0  0
  -28.0140  -32.0246   26.6582 H   0  0  0  0  0  0
  -28.2527  -38.0089   24.7441 H   0  0  0  0  0  0
  -28.1026  -36.2603   24.6278 H   0  0  0  0  0  0
  -27.2190  -37.1472   25.8788 H   0  0  0  0  0  0
  -20.9138  -29.8620   21.7079 H   0  0  0  0  0  0
  -26.0168  -38.2851   24.1437 H   0  0  0  0  0  0
  -28.9522  -29.1604   23.2839 H   0  0  0  0  0  0
  -27.8575  -26.9587   24.1163 H   0  0  0  0  0  0
  -28.8206  -30.2950   20.8123 H   0  0  0  0  0  0
  -25.4775  -25.7334   20.3525 H   0  0  0  0  0  0
  -28.9211  -30.6160   18.4037 H   0  0  0  0  0  0
  -29.8014  -29.4177   17.4604 H   0  0  0  0  0  0
  -30.0082  -29.4549   19.1903 H   0  0  0  0  0  0
  -29.5294  -19.6941   19.1400 H   0  0  0  0  0  0
  -28.5454  -18.2710   18.8457 H   0  0  0  0  0  0
  -30.3099  -18.1444   18.8704 H   0  0  0  0  0  0
  -27.5819  -19.7816   23.6390 H   0  0  0  0  0  0
  -29.2640  -19.3203   23.4503 H   0  0  0  0  0  0
  -27.9955  -18.1492   23.1071 H   0  0  0  0  0  0
  -26.0950  -19.8093   21.5852 H   0  0  0  0  0  0
  -26.6919  -18.2940   20.9260 H   0  0  0  0  0  0
  -26.7753  -19.7657   19.9632 H   0  0  0  0  0  0
  -26.8510  -24.0828   23.5124 H   0  0  0  0  0  0
  -28.2479  -24.5756   22.6521 H   0  0  0  0  0  0
  -29.0938  -21.8371   20.9538 H   0  0  0  0  0  0
  -28.9085  -21.7303   22.6306 H   0  0  0  0  0  0
  -27.5549  -28.6745   17.5764 H   0  0  0  0  0  0
  -30.3718  -18.5716   21.2507 H   0  0  0  0  0  0
  -28.4858  -16.2575   21.1923 H   0  0  0  0  0  0
  -26.3419  -22.4815   21.7819 H   0  0  0  0  0  0
  -27.3070  -23.1698   20.7182 H   0  0  0  0  0  0
  1 25  1  0  0  0
  1 30  2  0  0  0
  1 86  1  0  0  0
  2  3  1  0  0  0
  2 25  1  0  0  0
  2 88  1  0  0  0
  2 89  1  0  0  0
  3  4  1  0  0  0
  3 90  1  0  0  0
  3 91  1  0  0  0
  4  5  1  0  0  0
  4 92  1  0  0  0
  4 93  1  0  0  0
  5  6  1  0  0  0
  5 26  1  0  0  0
  5 94  1  0  0  0
  6 25  1  0  0  0
  6 95  1  0  0  0
  6 96  1  0  0  0
  7  8  2  0  0  0
  7 26  1  0  0  0
  7 29  1  0  0  0
  8  9  1  0  0  0
  8 22  1  0  0  0
  9 10  1  0  0  0
  9 27  2  0  0  0
 10 11  2  0  0  0
 10 15  1  0  0  0
 11 12  1  0  0  0
 11 97  1  0  0  0
 12 13  2  0  0  0
 12 98  1  0  0  0
 13 14  1  0  0  0
 13 31  1  0  0  0
 14 15  2  0  0  0
 14 99  1  0  0  0
 15100  1  0  0  0
 16 17  2  0  0  0
 16 21  1  0  0  0
 16 31  1  0  0  0
 17 18  1  0  0  0
 17101  1  0  0  0
 18 19  2  0  0  0
 18102  1  0  0  0
 19 20  1  0  0  0
 19 24  1  0  0  0
 20 21  2  0  0  0
 20103  1  0  0  0
 21 23  1  0  0  0
 22 28  1  0  0  0
 22 32  2  0  0  0
 26 27  1  0  0  0
 28104  1  0  0  0
 28105  1  0  0  0
 29106  1  0  0  0
 29107  1  0  0  0
 33 34  1  0  0  0
 33 66  1  0  0  0
 33 70  2  0  0  0
 34 36  1  0  0  0
 34 59  1  0  0  0
 34108  1  0  0  0
 35 44  2  0  0  0
 35 45  1  0  0  0
 35 68  1  0  0  0
 36 56  1  0  0  0
 36109  1  0  0  0
 37 39  1  0  0  0
 37 47  1  0  0  0
 37 66  1  0  0  0
 37110  1  0  0  0
 38 43  2  0  0  0
 38 46  1  0  0  0
 38 47  1  0  0  0
 39 64  1  0  0  0
 39 67  2  0  0  0
 40 52  1  0  0  0
 40 53  2  0  0  0
 40 58  1  0  0  0
 41111  1  0  0  0
 41112  1  0  0  0
 41113  1  0  0  0
 41 48  1  0  0  0
 42 43  1  0  0  0
 42 66  1  0  0  0
 42114  1  0  0  0
 42115  1  0  0  0
 43 44  1  0  0  0
 44116  1  0  0  0
 45 46  2  0  0  0
 45117  1  0  0  0
 46118  1  0  0  0
 47119  1  0  0  0
 47120  1  0  0  0
 48 56  1  0  0  0
 48 65  1  0  0  0
 48121  1  0  0  0
 49 50  1  0  0  0
 49 53  1  0  0  0
 49 64  1  0  0  0
 49122  1  0  0  0
 50 51  1  0  0  0
 50123  1  0  0  0
 50124  1  0  0  0
 51 52  1  0  0  0
 51125  1  0  0  0
 51126  1  0  0  0
 52127  1  0  0  0
 52128  1  0  0  0
 53 54  1  0  0  0
 54 55  2  0  0  0
 54129  1  0  0  0
 55 57  1  0  0  0
 55130  1  0  0  0
 56 69  2  0  0  0
 57 58  2  0  0  0
 57131  1  0  0  0
 58132  1  0  0  0
 59 60  1  0  0  0
 59 61  1  0  0  0
 59 62  1  0  0  0
 60133  1  0  0  0
 60134  1  0  0  0
 60135  1  0  0  0
 61136  1  0  0  0
 61137  1  0  0  0
 61138  1  0  0  0
 62139  1  0  0  0
 62140  1  0  0  0
 62141  1  0  0  0
 63 65  1  0  0  0
 63142  1  0  0  0
 63143  1  0  0  0
 63144  1  0  0  0
 64145  1  0  0  0
 65146  1  0  0  0
 68 83  1  0  0  0
 71 72  2  0  0  0
 71 73  1  0  0  0
 71147  1  0  0  0
 72 75  1  0  0  0
 72148  1  0  0  0
 73 76  2  0  0  0
 73149  1  0  0  0
 74 75  2  0  0  0
 74 76  1  0  0  0
 74150  1  0  0  0
 75 81  1  0  0  0
 76 83  1  0  0  0
 77151  1  0  0  0
 77152  1  0  0  0
 77153  1  0  0  0
 77 83  1  0  0  0
 78154  1  0  0  0
 78155  1  0  0  0
 78156  1  0  0  0
 78 84  1  0  0  0
 79157  1  0  0  0
 79158  1  0  0  0
 79159  1  0  0  0
 79 85  1  0  0  0
 80 85  1  0  0  0
 80160  1  0  0  0
 80161  1  0  0  0
 80162  1  0  0  0
 81 87  1  0  0  0
 81163  1  0  0  0
 81164  1  0  0  0
 82 85  1  0  0  0
 82 87  1  0  0  0
 82165  1  0  0  0
 82166  1  0  0  0
 83167  1  0  0  0
 84 85  1  0  0  0
 84 86  1  0  0  0
 84168  1  0  0  0
 86169  1  0  0  0
 87170  1  0  0  0
 87171  1  0  0  0
M  CHG  1  87   1
M  ISO  4   1 100  68 101  83 101  86 100
M  END
> <chiral flag>
0

> <version>
0

> <s_m_source_file>
/data/baiqing/PycharmProjects/Reinvent-master-3.2/result/LINK_invent/BTK/process_docking_weight1_custom_sum_contain_oxygen_bond_distance_aromatic_linkinvent_7_9_3/rearranged_h_0108.sdf

> <i_m_source_file_index>
36

> <r_mmod_Potential_Energy-OPLS-2005>
14940.6005859375

> <r_mmod_Stretch_Energy-OPLS-2005>
8836.28125

> <r_mmod_Bend_Energy-OPLS-2005>
825.18115234375

> <r_mmod_Torsional_Energy-OPLS-2005>
600.348754882812

> <r_mmod_Improper_Torsional_Energy-OPLS-2005>
95.3169708251953

> <r_mmod_Van_der_Waal_Energy-OPLS-2005>
3904.81494140625

> <r_mmod_Electrostatic_Energy-OPLS-2005>
-330.207733154297

> <r_mmod_Solvation_Energy-OPLS-2005>
-460.596710205078

> <b_mmod_Minimization_Converged-OPLS-2005>
0

> <r_mmod_RMS_Derivative-OPLS-2005>
14.2916965484619

$$$$
36
                    3D
 Structure written by MMmdl.
169177  0  0  1  0            999 V2000
  -30.6044  -14.7193   20.4424 C   0  0  0  0  0  0
  -30.4310  -12.4351   19.4559 C   0  0  0  0  0  0
  -29.5042  -12.4906   18.2238 C   0  0  0  0  0  0
  -28.0281  -12.3255   18.6373 C   0  0  0  0  0  0
  -27.6389  -13.2249   19.8411 C   0  0  2  0  0  0
  -28.6864  -13.1469   20.9709 C   0  0  0  0  0  0
  -25.2506  -13.8201   20.5668 C   0  0  0  0  0  0
  -24.1792  -13.0458   20.9222 C   0  0  0  0  0  0
  -24.6365  -11.6938   20.8762 C   0  0  0  0  0  0
  -23.9038  -10.4325   21.0412 C   0  0  0  0  0  0
  -24.3605   -9.4233   21.9185 C   0  0  0  0  0  0
  -23.6307   -8.2249   22.0730 C   0  0  0  0  0  0
  -22.4294   -8.0276   21.3514 C   0  0  0  0  0  0
  -21.9917   -9.0253   20.4622 C   0  0  0  0  0  0
  -22.7212  -10.2142   20.3049 C   0  0  0  0  0  0
  -21.6866   -6.0741   22.5283 C   0  0  0  0  0  0
  -21.4010   -6.5643   23.8215 C   0  0  0  0  0  0
  -21.3671   -5.6776   24.9175 C   0  0  0  0  0  0
  -21.6061   -4.3049   24.7217 C   0  0  0  0  0  0
  -21.8815   -3.8145   23.4343 C   0  0  0  0  0  0
  -21.9195   -4.6975   22.3393 C   0  0  0  0  0  0
  -22.7808  -13.5245   21.1872 C   0  0  0  0  0  0
  -22.1654   -4.2153   21.0976 F   0  0  0  0  0  0
  -21.5637   -3.4534   25.7740 F   0  0  0  0  0  0
  -29.9845  -13.4951   20.3840 N   0  0  0  0  0  0
  -26.2919  -12.9389   20.3235 N   0  0  0  0  0  0
  -25.9299  -11.6551   20.5746 N   0  0  0  0  0  0
  -22.0420  -12.8252   22.0423 N   0  0  0  0  0  0
  -25.4223  -15.1922   20.4081 N   0  0  0  0  0  0
  -31.8016  -14.8235   20.1659 O   0  0  0  0  0  0
  -21.6631   -6.8893   21.4241 O   0  0  0  0  0  0
  -22.3524  -14.5554   20.6705 O   0  0  0  0  0  0
  -24.6282  -31.8587   23.1988 C   0  0  0  0  0  0
  -25.9127  -32.4769   23.8332 C   0  0  1  0  0  0
  -27.2217  -27.2771   20.1200 C   0  0  0  0  0  0
  -25.5933  -33.8559   24.2275 N   0  0  0  0  0  0
  -23.4231  -30.4839   21.5407 C   0  0  2  0  0  0
  -24.8690  -28.9288   20.1073 C   0  0  0  0  0  0
  -22.7465  -29.4643   22.4879 C   0  0  0  0  0  0
  -18.0292  -28.1392   22.8517 C   0  0  0  0  0  0
  -24.1496  -36.7265   23.2646 C   0  0  0  0  0  0
  -25.9698  -30.7720   21.3794 C   0  0  0  0  0  0
  -26.0384  -29.3960   20.7189 C   0  0  0  0  0  0
  -27.2112  -28.5804   20.7188 C   0  0  0  0  0  0
  -26.0232  -26.8641   19.4954 C   0  0  0  0  0  0
  -24.8667  -27.6681   19.4884 C   0  0  0  0  0  0
  -23.6424  -29.8197   20.1556 C   0  0  0  0  0  0
  -25.4115  -36.3066   24.0350 C   0  0  1  0  0  0
  -20.5905  -28.3699   23.1284 C   0  0  2  0  0  0
  -20.6786  -26.9413   22.5415 C   0  0  0  0  0  0
  -19.5751  -26.6393   21.5227 C   0  0  0  0  0  0
  -18.1931  -26.7945   22.1645 C   0  0  0  0  0  0
  -19.1552  -28.8855   23.2914 C   0  0  0  0  0  0
  -18.9466  -30.1457   23.8926 C   0  0  0  0  0  0
  -17.6465  -30.6595   24.0563 C   0  0  0  0  0  0
  -25.9052  -34.9441   23.5111 C   0  0  0  0  0  0
  -16.5355  -29.9098   23.6325 C   0  0  0  0  0  0
  -16.7280  -28.6513   23.0364 C   0  0  0  0  0  0
  -26.4493  -31.6587   25.0707 C   0  0  0  0  0  0
  -25.3721  -31.3733   26.1431 C   0  0  0  0  0  0
  -27.0355  -30.3023   24.6184 C   0  0  0  0  0  0
  -27.6054  -32.4319   25.7462 C   0  0  0  0  0  0
  -27.5579  -37.1786   24.8466 C   0  0  0  0  0  0
  -21.4173  -29.3054   22.3638 N   0  0  0  0  0  0
  -26.4282  -37.3760   23.9414 N   0  0  0  0  0  0
  -24.6930  -31.0570   22.0953 N   0  0  0  0  0  0
  -23.4192  -28.8173   23.2954 O   0  0  0  0  0  0
  -28.3504  -26.4327   20.2016 O   0  0  0  0  0  0
  -26.5598  -34.8917   22.4664 O   0  0  0  0  0  0
  -23.5445  -32.1391   23.7314 O   0  0  0  0  0  0
  -29.6845  -19.8770   20.3451 C   0  0  0  0  0  0
  -28.8891  -20.9316   19.7495 C   0  0  0  0  0  0
  -27.7433  -20.4713   19.0310 C   0  0  0  0  0  0
  -29.3758  -18.4783   20.1872 C   0  0  0  0  0  0
  -27.5024  -19.0589   18.9315 C   0  0  0  0  0  0
  -33.1865  -23.5852   19.2872 C   0  0  0  0  0  0
  -25.9280  -22.0284   18.9755 C   0  0  0  0  0  0
  -25.2969  -19.0961   17.9427 C   0  0  0  0  0  0
  -30.2702  -17.2915   20.7293 C   0  0  0  0  0  0
  -31.6595  -23.7674   19.2813 C   0  0  0  0  0  0
  -30.9182  -22.5392   19.8494 C   0  0  0  0  0  0
  -28.6099  -23.6948   20.3460 C   0  0  0  0  0  0
  -28.4658  -25.0941   19.5423 C   0  0  0  0  0  0
  -29.3762  -22.4580   19.6212 C   0  0  2  0  0  0
  -28.2877  -18.1122   19.4930 N   0  0  0  0  0  0
  -29.8252  -15.8439   20.6112 N   0  0  0  0  0  0
  -27.0019  -21.3730   18.2959 O   0  0  0  0  0  0
  -26.5305  -18.4433   18.1740 O   0  0  0  0  0  0
  -31.4644  -12.5769   19.1419 H   0  0  0  0  0  0
  -30.3897  -11.4589   19.9405 H   0  0  0  0  0  0
  -29.7852  -11.7158   17.5092 H   0  0  0  0  0  0
  -29.6340  -13.4478   17.7145 H   0  0  0  0  0  0
  -27.8759  -11.2767   18.8955 H   0  0  0  0  0  0
  -27.3710  -12.5206   17.7873 H   0  0  0  0  0  0
  -27.6360  -14.2480   19.4665 H   0  0  0  0  0  0
  -28.7172  -12.1433   21.3990 H   0  0  0  0  0  0
  -28.4302  -13.8245   21.7867 H   0  0  0  0  0  0
  -25.2739   -9.5743   22.4774 H   0  0  0  0  0  0
  -24.0035   -7.4654   22.7449 H   0  0  0  0  0  0
  -21.0844   -8.8769   19.8945 H   0  0  0  0  0  0
  -22.3654  -10.9689   19.6179 H   0  0  0  0  0  0
  -21.1965   -7.6144   23.9736 H   0  0  0  0  0  0
  -21.1509   -6.0491   25.9085 H   0  0  0  0  0  0
  -22.0584   -2.7614   23.2819 H   0  0  0  0  0  0
  -22.4018  -11.9931   22.4846 H   0  0  0  0  0  0
  -21.1041  -13.1310   22.2600 H   0  0  0  0  0  0
  -24.6532  -15.8420   20.5265 H   0  0  0  0  0  0
  -26.2644  -15.6383   20.0653 H   0  0  0  0  0  0
  -26.7165  -32.5421   23.1043 H   0  0  0  0  0  0
  -25.0099  -33.9697   25.0443 H   0  0  0  0  0  0
  -22.7196  -31.3076   21.3966 H   0  0  0  0  0  0
  -23.3770  -35.9581   23.3291 H   0  0  0  0  0  0
  -24.3597  -36.8885   22.2060 H   0  0  0  0  0  0
  -23.7246  -37.6463   23.6669 H   0  0  0  0  0  0
  -26.1190  -31.5357   20.6149 H   0  0  0  0  0  0
  -26.8439  -30.8122   22.0175 H   0  0  0  0  0  0
  -28.1049  -28.9352   21.2141 H   0  0  0  0  0  0
  -25.9335  -25.8972   19.0293 H   0  0  0  0  0  0
  -23.9678  -27.2982   19.0136 H   0  0  0  0  0  0
  -23.7713  -30.6006   19.4053 H   0  0  0  0  0  0
  -22.7577  -29.2628   19.8451 H   0  0  0  0  0  0
  -25.1315  -36.1884   25.0844 H   0  0  0  0  0  0
  -21.0044  -28.3279   24.1394 H   0  0  0  0  0  0
  -20.5690  -26.2298   23.3622 H   0  0  0  0  0  0
  -21.6647  -26.7437   22.1192 H   0  0  0  0  0  0
  -19.6886  -25.6309   21.1247 H   0  0  0  0  0  0
  -19.6683  -27.3210   20.6767 H   0  0  0  0  0  0
  -17.4203  -26.6726   21.4038 H   0  0  0  0  0  0
  -18.0290  -26.0088   22.9039 H   0  0  0  0  0  0
  -19.7930  -30.7274   24.2311 H   0  0  0  0  0  0
  -17.5014  -31.6282   24.5149 H   0  0  0  0  0  0
  -15.5359  -30.3007   23.7636 H   0  0  0  0  0  0
  -15.8685  -28.0835   22.7074 H   0  0  0  0  0  0
  -24.5882  -30.7106   25.7745 H   0  0  0  0  0  0
  -24.8939  -32.2914   26.4856 H   0  0  0  0  0  0
  -25.8055  -30.8888   27.0194 H   0  0  0  0  0  0
  -26.2947  -29.6739   24.1237 H   0  0  0  0  0  0
  -27.4089  -29.7311   25.4688 H   0  0  0  0  0  0
  -27.8796  -30.4323   23.9409 H   0  0  0  0  0  0
  -27.2680  -33.3621   26.2033 H   0  0  0  0  0  0
  -28.3859  -32.6867   25.0282 H   0  0  0  0  0  0
  -28.0723  -31.8441   26.5367 H   0  0  0  0  0  0
  -28.2591  -38.0085   24.7515 H   0  0  0  0  0  0
  -28.1090  -36.2624   24.6297 H   0  0  0  0  0  0
  -27.2304  -37.1427   25.8867 H   0  0  0  0  0  0
  -20.9298  -29.8790   21.6896 H   0  0  0  0  0  0
  -26.0167  -38.2833   24.1402 H   0  0  0  0  0  0
  -30.5940  -20.1316   20.8699 H   0  0  0  0  0  0
  -33.6978  -24.4789   18.9274 H   0  0  0  0  0  0
  -33.4889  -22.7626   18.6384 H   0  0  0  0  0  0
  -33.5627  -23.3692   20.2864 H   0  0  0  0  0  0
  -26.0932  -23.1036   19.0212 H   0  0  0  0  0  0
  -25.7494  -21.6555   19.9835 H   0  0  0  0  0  0
  -25.0026  -21.9005   18.4129 H   0  0  0  0  0  0
  -24.9214  -19.5648   18.8513 H   0  0  0  0  0  0
  -24.5564  -18.3559   17.6387 H   0  0  0  0  0  0
  -25.3812  -19.8215   17.1329 H   0  0  0  0  0  0
  -30.4135  -17.4833   21.7914 H   0  0  0  0  0  0
  -31.2571  -17.4023   20.2751 H   0  0  0  0  0  0
  -31.3450  -23.9556   18.2536 H   0  0  0  0  0  0
  -31.4086  -24.6557   19.8617 H   0  0  0  0  0  0
  -31.1364  -22.4452   20.9154 H   0  0  0  0  0  0
  -31.3792  -21.6758   19.3679 H   0  0  0  0  0  0
  -27.6053  -23.3804   20.6182 H   0  0  0  0  0  0
  -29.0873  -23.8783   21.3093 H   0  0  0  0  0  0
  -27.7189  -24.9525   18.7681 H   0  0  0  0  0  0
  -29.3727  -25.2090   18.9554 H   0  0  0  0  0  0
  -29.2338  -22.6422   18.5565 H   0  0  0  0  0  0
  -28.8301  -15.7105   20.6765 H   0  0  0  0  0  0
  1 25  1  0  0  0
  1 30  2  0  0  0
  1 86  1  0  0  0
  2  3  1  0  0  0
  2 25  1  0  0  0
  2 89  1  0  0  0
  2 90  1  0  0  0
  3  4  1  0  0  0
  3 91  1  0  0  0
  3 92  1  0  0  0
  4  5  1  0  0  0
  4 93  1  0  0  0
  4 94  1  0  0  0
  5  6  1  0  0  0
  5 26  1  0  0  0
  5 95  1  0  0  0
  6 25  1  0  0  0
  6 96  1  0  0  0
  6 97  1  0  0  0
  7  8  2  0  0  0
  7 26  1  0  0  0
  7 29  1  0  0  0
  8  9  1  0  0  0
  8 22  1  0  0  0
  9 10  1  0  0  0
  9 27  2  0  0  0
 10 11  2  0  0  0
 10 15  1  0  0  0
 11 12  1  0  0  0
 11 98  1  0  0  0
 12 13  2  0  0  0
 12 99  1  0  0  0
 13 14  1  0  0  0
 13 31  1  0  0  0
 14 15  2  0  0  0
 14100  1  0  0  0
 15101  1  0  0  0
 16 17  2  0  0  0
 16 21  1  0  0  0
 16 31  1  0  0  0
 17 18  1  0  0  0
 17102  1  0  0  0
 18 19  2  0  0  0
 18103  1  0  0  0
 19 20  1  0  0  0
 19 24  1  0  0  0
 20 21  2  0  0  0
 20104  1  0  0  0
 21 23  1  0  0  0
 22 28  1  0  0  0
 22 32  2  0  0  0
 26 27  1  0  0  0
 28105  1  0  0  0
 28106  1  0  0  0
 29107  1  0  0  0
 29108  1  0  0  0
 33 34  1  0  0  0
 33 66  1  0  0  0
 33 70  2  0  0  0
 34 36  1  0  0  0
 34 59  1  0  0  0
 34109  1  0  0  0
 35 44  2  0  0  0
 35 45  1  0  0  0
 35 68  1  0  0  0
 36 56  1  0  0  0
 36110  1  0  0  0
 37 39  1  0  0  0
 37 47  1  0  0  0
 37 66  1  0  0  0
 37111  1  0  0  0
 38 43  2  0  0  0
 38 46  1  0  0  0
 38 47  1  0  0  0
 39 64  1  0  0  0
 39 67  2  0  0  0
 40 52  1  0  0  0
 40 53  2  0  0  0
 40 58  1  0  0  0
 41112  1  0  0  0
 41113  1  0  0  0
 41114  1  0  0  0
 41 48  1  0  0  0
 42 43  1  0  0  0
 42 66  1  0  0  0
 42115  1  0  0  0
 42116  1  0  0  0
 43 44  1  0  0  0
 44117  1  0  0  0
 45 46  2  0  0  0
 45118  1  0  0  0
 46119  1  0  0  0
 47120  1  0  0  0
 47121  1  0  0  0
 48 56  1  0  0  0
 48 65  1  0  0  0
 48122  1  0  0  0
 49 50  1  0  0  0
 49 53  1  0  0  0
 49 64  1  0  0  0
 49123  1  0  0  0
 50 51  1  0  0  0
 50124  1  0  0  0
 50125  1  0  0  0
 51 52  1  0  0  0
 51126  1  0  0  0
 51127  1  0  0  0
 52128  1  0  0  0
 52129  1  0  0  0
 53 54  1  0  0  0
 54 55  2  0  0  0
 54130  1  0  0  0
 55 57  1  0  0  0
 55131  1  0  0  0
 56 69  2  0  0  0
 57 58  2  0  0  0
 57132  1  0  0  0
 58133  1  0  0  0
 59 60  1  0  0  0
 59 61  1  0  0  0
 59 62  1  0  0  0
 60134  1  0  0  0
 60135  1  0  0  0
 60136  1  0  0  0
 61137  1  0  0  0
 61138  1  0  0  0
 61139  1  0  0  0
 62140  1  0  0  0
 62141  1  0  0  0
 62142  1  0  0  0
 63 65  1  0  0  0
 63143  1  0  0  0
 63144  1  0  0  0
 63145  1  0  0  0
 64146  1  0  0  0
 65147  1  0  0  0
 68 83  1  0  0  0
 71 72  2  0  0  0
 71 74  1  0  0  0
 71148  1  0  0  0
 72 73  1  0  0  0
 72 84  1  0  0  0
 73 75  2  0  0  0
 73 87  1  0  0  0
 74 79  1  0  0  0
 74 85  2  0  0  0
 75 85  1  0  0  0
 75 88  1  0  0  0
 76 80  1  0  0  0
 76149  1  0  0  0
 76150  1  0  0  0
 76151  1  0  0  0
 77 87  1  0  0  0
 77152  1  0  0  0
 77153  1  0  0  0
 77154  1  0  0  0
 78 88  1  0  0  0
 78155  1  0  0  0
 78156  1  0  0  0
 78157  1  0  0  0
 79 86  1  0  0  0
 79158  1  0  0  0
 79159  1  0  0  0
 80 81  1  0  0  0
 80160  1  0  0  0
 80161  1  0  0  0
 81162  1  0  0  0
 81163  1  0  0  0
 81 84  1  0  0  0
 82 83  1  0  0  0
 82 84  1  0  0  0
 82164  1  0  0  0
 82165  1  0  0  0
 83166  1  0  0  0
 83167  1  0  0  0
 84168  1  0  0  0
 86169  1  0  0  0
M  ISO  4   1 100  68 101  83 101  86 100
M  END
> <chiral flag>
0

> <version>
0

> <s_m_source_file>
/data/baiqing/PycharmProjects/Reinvent-master-3.2/result/LINK_invent/BTK/process_docking_weight1_custom_sum_contain_oxygen_bond_distance_aromatic_linkinvent_7_9_3/rearranged_h_0108.sdf

> <i_m_source_file_index>
37

> <r_mmod_Potential_Energy-OPLS-2005>
-46.0539169311523

> <r_mmod_Stretch_Energy-OPLS-2005>
115.70133972168

> <r_mmod_Bend_Energy-OPLS-2005>
193.585159301758

> <r_mmod_Torsional_Energy-OPLS-2005>
262.140899658203

> <r_mmod_Improper_Torsional_Energy-OPLS-2005>
7.36707925796509

> <r_mmod_Van_der_Waal_Energy-OPLS-2005>
144.350570678711

> <r_mmod_Electrostatic_Energy-OPLS-2005>
-630.482299804688

> <r_mmod_Solvation_Energy-OPLS-2005>
-214.423294067383

> <b_mmod_Minimization_Converged-OPLS-2005>
0

> <r_mmod_RMS_Derivative-OPLS-2005>
4.09926176071167

$$$$
37
                    3D
 Structure written by MMmdl.
159167  0  0  1  0            999 V2000
  -30.6499  -14.8317   20.4458 C   0  0  0  0  0  0
  -30.4148  -12.5239   19.4801 C   0  0  0  0  0  0
  -29.5001  -12.5123   18.2385 C   0  0  0  0  0  0
  -28.0335  -12.3226   18.6647 C   0  0  0  0  0  0
  -27.6282  -13.2489   19.8427 C   0  0  2  0  0  0
  -28.6777  -13.2556   20.9746 C   0  0  0  0  0  0
  -25.2447  -13.8238   20.5736 C   0  0  0  0  0  0
  -24.1762  -13.0453   20.9237 C   0  0  0  0  0  0
  -24.6380  -11.6939   20.8776 C   0  0  0  0  0  0
  -23.9075  -10.4300   21.0419 C   0  0  0  0  0  0
  -24.3627   -9.4211   21.9195 C   0  0  0  0  0  0
  -23.6295   -8.2246   22.0764 C   0  0  0  0  0  0
  -22.4277   -8.0287   21.3553 C   0  0  0  0  0  0
  -21.9915   -9.0264   20.4659 C   0  0  0  0  0  0
  -22.7246  -10.2141   20.3065 C   0  0  0  0  0  0
  -21.6850   -6.0739   22.5277 C   0  0  0  0  0  0
  -21.4018   -6.5640   23.8210 C   0  0  0  0  0  0
  -21.3659   -5.6794   24.9173 C   0  0  0  0  0  0
  -21.6043   -4.3057   24.7223 C   0  0  0  0  0  0
  -21.8815   -3.8147   23.4344 C   0  0  0  0  0  0
  -21.9191   -4.6965   22.3400 C   0  0  0  0  0  0
  -22.7778  -13.5218   21.1877 C   0  0  0  0  0  0
  -22.1659   -4.2151   21.0978 F   0  0  0  0  0  0
  -21.5628   -3.4543   25.7738 F   0  0  0  0  0  0
  -29.9514  -13.6366   20.3563 N   0  0  0  0  0  0
  -26.2878  -12.9475   20.3309 N   0  0  0  0  0  0
  -25.9319  -11.6604   20.5792 N   0  0  0  0  0  0
  -22.0424  -12.8214   22.0434 N   0  0  0  0  0  0
  -25.4112  -15.1961   20.4140 N   0  0  0  0  0  0
  -31.8608  -14.7674   20.2042 O   0  0  0  0  0  0
  -21.6639   -6.8885   21.4244 O   0  0  0  0  0  0
  -22.3464  -14.5517   20.6711 O   0  0  0  0  0  0
  -24.6371  -31.8506   23.1946 C   0  0  0  0  0  0
  -25.9170  -32.4730   23.8310 C   0  0  1  0  0  0
  -27.2033  -27.1979   20.1391 C   0  0  0  0  0  0
  -25.5945  -33.8535   24.2228 N   0  0  0  0  0  0
  -23.4364  -30.4743   21.5391 C   0  0  2  0  0  0
  -24.8811  -28.9151   20.1069 C   0  0  0  0  0  0
  -22.7533  -29.4580   22.4881 C   0  0  0  0  0  0
  -18.0302  -28.1384   22.8482 C   0  0  0  0  0  0
  -24.1489  -36.7273   23.2639 C   0  0  0  0  0  0
  -25.9883  -30.7436   21.3843 C   0  0  0  0  0  0
  -26.0567  -29.3626   20.7226 C   0  0  0  0  0  0
  -27.2213  -28.5186   20.7239 C   0  0  0  0  0  0
  -26.0067  -26.8412   19.4785 C   0  0  0  0  0  0
  -24.8655  -27.6662   19.4705 C   0  0  0  0  0  0
  -23.6568  -29.8111   20.1548 C   0  0  0  0  0  0
  -25.4116  -36.3055   24.0320 C   0  0  1  0  0  0
  -20.5909  -28.3708   23.1247 C   0  0  2  0  0  0
  -20.6786  -26.9417   22.5405 C   0  0  0  0  0  0
  -19.5760  -26.6376   21.5209 C   0  0  0  0  0  0
  -18.1941  -26.7926   22.1622 C   0  0  0  0  0  0
  -19.1557  -28.8863   23.2861 C   0  0  0  0  0  0
  -18.9474  -30.1456   23.8892 C   0  0  0  0  0  0
  -17.6472  -30.6584   24.0560 C   0  0  0  0  0  0
  -25.9064  -34.9428   23.5080 C   0  0  0  0  0  0
  -16.5365  -29.9079   23.6328 C   0  0  0  0  0  0
  -16.7288  -28.6494   23.0358 C   0  0  0  0  0  0
  -26.4509  -31.6580   25.0729 C   0  0  0  0  0  0
  -25.3708  -31.3763   26.1434 C   0  0  0  0  0  0
  -27.0362  -30.2984   24.6272 C   0  0  0  0  0  0
  -27.6041  -32.4344   25.7512 C   0  0  0  0  0  0
  -27.5580  -37.1789   24.8459 C   0  0  0  0  0  0
  -21.4235  -29.3049   22.3624 N   0  0  0  0  0  0
  -26.4288  -37.3760   23.9410 N   0  0  0  0  0  0
  -24.7068  -31.0423   22.0946 N   0  0  0  0  0  0
  -23.4210  -28.8118   23.2997 O   0  0  0  0  0  0
  -28.2612  -26.2432   20.2261 O   0  0  0  0  0  0
  -26.5645  -34.8912   22.4658 O   0  0  0  0  0  0
  -23.5509  -32.1352   23.7205 O   0  0  0  0  0  0
  -30.2871  -18.6891   19.5021 C   0  0  0  0  0  0
  -28.5693  -18.2747   21.1534 C   0  0  0  0  0  0
  -30.8373  -17.2046   19.6688 C   0  0  0  0  0  0
  -29.0052  -16.7181   21.2803 C   0  0  0  0  0  0
  -29.7071  -19.2892   20.8022 C   0  0  0  0  0  0
  -30.9835  -21.4021   21.1801 C   0  0  0  0  0  0
  -28.9438  -23.5258   20.5578 C   0  0  0  0  0  0
  -28.7347  -21.8976   20.2378 C   0  0  0  0  0  0
  -27.9824  -24.7498   20.0199 C   0  0  0  0  0  0
  -30.0378  -16.1181   20.3563 N   0  0  0  0  0  0
  -29.6091  -20.8574   21.0102 N   0  3  1  0  0  0
  -31.4537  -12.6309   19.1648 H   0  0  0  0  0  0
  -30.3678  -11.5706   20.0089 H   0  0  0  0  0  0
  -29.7979  -11.7185   17.5521 H   0  0  0  0  0  0
  -29.6090  -13.4499   17.6908 H   0  0  0  0  0  0
  -27.9149  -11.2798   18.9609 H   0  0  0  0  0  0
  -27.3664  -12.4742   17.8161 H   0  0  0  0  0  0
  -27.6003  -14.2563   19.4268 H   0  0  0  0  0  0
  -28.7499  -12.2761   21.4496 H   0  0  0  0  0  0
  -28.4029  -13.9566   21.7626 H   0  0  0  0  0  0
  -25.2770   -9.5680   22.4776 H   0  0  0  0  0  0
  -24.0004   -7.4627   22.7475 H   0  0  0  0  0  0
  -21.0848   -8.8781   19.8958 H   0  0  0  0  0  0
  -22.3708  -10.9681   19.6175 H   0  0  0  0  0  0
  -21.2018   -7.6150   23.9716 H   0  0  0  0  0  0
  -21.1484   -6.0524   25.9074 H   0  0  0  0  0  0
  -22.0594   -2.7611   23.2839 H   0  0  0  0  0  0
  -22.4049  -11.9889   22.4847 H   0  0  0  0  0  0
  -21.1041  -13.1238   22.2635 H   0  0  0  0  0  0
  -24.6430  -15.8485   20.5272 H   0  0  0  0  0  0
  -26.2584  -15.6350   20.0772 H   0  0  0  0  0  0
  -26.7237  -32.5350   23.1041 H   0  0  0  0  0  0
  -25.0080  -33.9664   25.0369 H   0  0  0  0  0  0
  -22.7357  -31.2991   21.3924 H   0  0  0  0  0  0
  -23.3759  -35.9596   23.3281 H   0  0  0  0  0  0
  -24.3583  -36.8924   22.2058 H   0  0  0  0  0  0
  -23.7232  -37.6461   23.6685 H   0  0  0  0  0  0
  -26.1392  -31.5028   20.6158 H   0  0  0  0  0  0
  -26.8615  -30.7885   22.0237 H   0  0  0  0  0  0
  -28.1184  -28.8525   21.2257 H   0  0  0  0  0  0
  -25.9159  -25.8886   18.9788 H   0  0  0  0  0  0
  -23.9671  -27.3209   18.9772 H   0  0  0  0  0  0
  -23.7895  -30.5894   19.4023 H   0  0  0  0  0  0
  -22.7718  -29.2525   19.8454 H   0  0  0  0  0  0
  -25.1297  -36.1893   25.0812 H   0  0  0  0  0  0
  -21.0009  -28.3294   24.1363 H   0  0  0  0  0  0
  -20.5672  -26.2323   23.3619 H   0  0  0  0  0  0
  -21.6653  -26.7421   22.1206 H   0  0  0  0  0  0
  -19.6918  -25.6281   21.1253 H   0  0  0  0  0  0
  -19.6691  -27.3174   20.6727 H   0  0  0  0  0  0
  -17.4207  -26.6674   21.4027 H   0  0  0  0  0  0
  -18.0340  -26.0068   22.9020 H   0  0  0  0  0  0
  -19.7949  -30.7271   24.2267 H   0  0  0  0  0  0
  -17.5026  -31.6265   24.5161 H   0  0  0  0  0  0
  -15.5365  -30.2980   23.7649 H   0  0  0  0  0  0
  -15.8688  -28.0803   22.7086 H   0  0  0  0  0  0
  -24.5877  -30.7120   25.7762 H   0  0  0  0  0  0
  -24.8906  -32.2948   26.4824 H   0  0  0  0  0  0
  -25.7997  -30.8959   27.0238 H   0  0  0  0  0  0
  -26.2963  -29.6722   24.1271 H   0  0  0  0  0  0
  -27.3985  -29.7263   25.4824 H   0  0  0  0  0  0
  -27.8870  -30.4232   23.9568 H   0  0  0  0  0  0
  -27.2624  -33.3650   26.2057 H   0  0  0  0  0  0
  -28.3866  -32.6904   25.0357 H   0  0  0  0  0  0
  -28.0695  -31.8501   26.5459 H   0  0  0  0  0  0
  -28.2575  -38.0108   24.7532 H   0  0  0  0  0  0
  -28.1101  -36.2640   24.6249 H   0  0  0  0  0  0
  -27.2307  -37.1393   25.8865 H   0  0  0  0  0  0
  -20.9424  -29.8780   21.6833 H   0  0  0  0  0  0
  -26.0158  -38.2830   24.1426 H   0  0  0  0  0  0
  -29.5282  -18.7145   18.7193 H   0  0  0  0  0  0
  -31.1006  -19.3172   19.1383 H   0  0  0  0  0  0
  -28.0913  -18.5754   22.0859 H   0  0  0  0  0  0
  -27.7890  -18.3581   20.3961 H   0  0  0  0  0  0
  -31.7813  -17.2939   20.2099 H   0  0  0  0  0  0
  -31.1109  -16.8408   18.6770 H   0  0  0  0  0  0
  -28.1002  -16.1167   21.2179 H   0  0  0  0  0  0
  -29.3820  -16.5632   22.2922 H   0  0  0  0  0  0
  -30.4391  -19.0183   21.5634 H   0  0  0  0  0  0
  -31.6300  -20.7535   21.7708 H   0  0  0  0  0  0
  -30.9789  -22.3526   21.7113 H   0  0  0  0  0  0
  -31.4620  -21.5532   20.2122 H   0  0  0  0  0  0
  -29.9479  -23.7850   20.2230 H   0  0  0  0  0  0
  -28.9685  -23.6327   21.6421 H   0  0  0  0  0  0
  -28.8973  -21.7351   19.1721 H   0  0  0  0  0  0
  -27.6920  -21.6351   20.4167 H   0  0  0  0  0  0
  -27.0019  -24.5464   20.4518 H   0  0  0  0  0  0
  -27.8635  -24.6086   18.9455 H   0  0  0  0  0  0
  -29.2297  -20.9152   21.9446 H   0  0  0  0  0  0
  1 25  1  0  0  0
  1 30  2  0  0  0
  1 80  1  0  0  0
  2  3  1  0  0  0
  2 25  1  0  0  0
  2 82  1  0  0  0
  2 83  1  0  0  0
  3  4  1  0  0  0
  3 84  1  0  0  0
  3 85  1  0  0  0
  4  5  1  0  0  0
  4 86  1  0  0  0
  4 87  1  0  0  0
  5  6  1  0  0  0
  5 26  1  0  0  0
  5 88  1  0  0  0
  6 25  1  0  0  0
  6 89  1  0  0  0
  6 90  1  0  0  0
  7  8  2  0  0  0
  7 26  1  0  0  0
  7 29  1  0  0  0
  8  9  1  0  0  0
  8 22  1  0  0  0
  9 10  1  0  0  0
  9 27  2  0  0  0
 10 11  2  0  0  0
 10 15  1  0  0  0
 11 12  1  0  0  0
 11 91  1  0  0  0
 12 13  2  0  0  0
 12 92  1  0  0  0
 13 14  1  0  0  0
 13 31  1  0  0  0
 14 15  2  0  0  0
 14 93  1  0  0  0
 15 94  1  0  0  0
 16 17  2  0  0  0
 16 21  1  0  0  0
 16 31  1  0  0  0
 17 18  1  0  0  0
 17 95  1  0  0  0
 18 19  2  0  0  0
 18 96  1  0  0  0
 19 20  1  0  0  0
 19 24  1  0  0  0
 20 21  2  0  0  0
 20 97  1  0  0  0
 21 23  1  0  0  0
 22 28  1  0  0  0
 22 32  2  0  0  0
 26 27  1  0  0  0
 28 98  1  0  0  0
 28 99  1  0  0  0
 29100  1  0  0  0
 29101  1  0  0  0
 33 34  1  0  0  0
 33 66  1  0  0  0
 33 70  2  0  0  0
 34 36  1  0  0  0
 34 59  1  0  0  0
 34102  1  0  0  0
 35 44  2  0  0  0
 35 45  1  0  0  0
 35 68  1  0  0  0
 36 56  1  0  0  0
 36103  1  0  0  0
 37 39  1  0  0  0
 37 47  1  0  0  0
 37 66  1  0  0  0
 37104  1  0  0  0
 38 43  2  0  0  0
 38 46  1  0  0  0
 38 47  1  0  0  0
 39 64  1  0  0  0
 39 67  2  0  0  0
 40 52  1  0  0  0
 40 53  2  0  0  0
 40 58  1  0  0  0
 41105  1  0  0  0
 41106  1  0  0  0
 41107  1  0  0  0
 41 48  1  0  0  0
 42 43  1  0  0  0
 42 66  1  0  0  0
 42108  1  0  0  0
 42109  1  0  0  0
 43 44  1  0  0  0
 44110  1  0  0  0
 45 46  2  0  0  0
 45111  1  0  0  0
 46112  1  0  0  0
 47113  1  0  0  0
 47114  1  0  0  0
 48 56  1  0  0  0
 48 65  1  0  0  0
 48115  1  0  0  0
 49 50  1  0  0  0
 49 53  1  0  0  0
 49 64  1  0  0  0
 49116  1  0  0  0
 50 51  1  0  0  0
 50117  1  0  0  0
 50118  1  0  0  0
 51 52  1  0  0  0
 51119  1  0  0  0
 51120  1  0  0  0
 52121  1  0  0  0
 52122  1  0  0  0
 53 54  1  0  0  0
 54 55  2  0  0  0
 54123  1  0  0  0
 55 57  1  0  0  0
 55124  1  0  0  0
 56 69  2  0  0  0
 57 58  2  0  0  0
 57125  1  0  0  0
 58126  1  0  0  0
 59 60  1  0  0  0
 59 61  1  0  0  0
 59 62  1  0  0  0
 60127  1  0  0  0
 60128  1  0  0  0
 60129  1  0  0  0
 61130  1  0  0  0
 61131  1  0  0  0
 61132  1  0  0  0
 62133  1  0  0  0
 62134  1  0  0  0
 62135  1  0  0  0
 63 65  1  0  0  0
 63136  1  0  0  0
 63137  1  0  0  0
 63138  1  0  0  0
 64139  1  0  0  0
 65140  1  0  0  0
 68 79  1  0  0  0
 71 73  1  0  0  0
 71141  1  0  0  0
 71142  1  0  0  0
 71 75  1  0  0  0
 72 74  1  0  0  0
 72 75  1  0  0  0
 72143  1  0  0  0
 72144  1  0  0  0
 73 80  1  0  0  0
 73145  1  0  0  0
 73146  1  0  0  0
 74 80  1  0  0  0
 74147  1  0  0  0
 74148  1  0  0  0
 75 81  1  0  0  0
 75149  1  0  0  0
 76150  1  0  0  0
 76151  1  0  0  0
 76152  1  0  0  0
 76 81  1  0  0  0
 77 78  1  0  0  0
 77 79  1  0  0  0
 77153  1  0  0  0
 77154  1  0  0  0
 78 81  1  0  0  0
 78155  1  0  0  0
 78156  1  0  0  0
 79157  1  0  0  0
 79158  1  0  0  0
 81159  1  0  0  0
M  CHG  1  81   1
M  ISO  4   1 100  68 101  79 101  80 100
M  END
> <chiral flag>
0

> <version>
0

> <s_m_source_file>
/data/baiqing/PycharmProjects/Reinvent-master-3.2/result/LINK_invent/BTK/process_docking_weight1_custom_sum_contain_oxygen_bond_distance_aromatic_linkinvent_7_9_3/rearranged_h_0108.sdf

> <i_m_source_file_index>
38

> <r_mmod_Potential_Energy-OPLS-2005>
484.696868896484

> <r_mmod_Stretch_Energy-OPLS-2005>
187.833312988281

> <r_mmod_Bend_Energy-OPLS-2005>
284.479522705078

> <r_mmod_Torsional_Energy-OPLS-2005>
321.825531005859

> <r_mmod_Improper_Torsional_Energy-OPLS-2005>
14.8991584777832

> <r_mmod_Van_der_Waal_Energy-OPLS-2005>
133.253768920898

> <r_mmod_Electrostatic_Energy-OPLS-2005>
-149.126220703125

> <r_mmod_Solvation_Energy-OPLS-2005>
-442.806488037109

> <b_mmod_Minimization_Converged-OPLS-2005>
0

> <r_mmod_RMS_Derivative-OPLS-2005>
1.06135392189026

$$$$
38
                    3D
 Structure written by MMmdl.
169177  0  0  1  0            999 V2000
  -30.8012  -14.7935   20.3388 C   0  0  0  0  0  0
  -30.3883  -12.4878   19.4536 C   0  0  0  0  0  0
  -29.4670  -12.4749   18.2183 C   0  0  0  0  0  0
  -28.0262  -12.2120   18.6867 C   0  0  0  0  0  0
  -27.6116  -13.1775   19.8105 C   0  0  2  0  0  0
  -28.6929  -13.3194   20.9295 C   0  0  0  0  0  0
  -25.2145  -13.7674   20.5769 C   0  0  0  0  0  0
  -24.1538  -12.9977   20.9356 C   0  0  0  0  0  0
  -24.6221  -11.6554   20.8743 C   0  0  0  0  0  0
  -23.8919  -10.3977   21.0412 C   0  0  0  0  0  0
  -24.3455   -9.3923   21.9217 C   0  0  0  0  0  0
  -23.6150   -8.1978   22.0736 C   0  0  0  0  0  0
  -22.4159   -8.0045   21.3522 C   0  0  0  0  0  0
  -21.9770   -8.9985   20.4614 C   0  0  0  0  0  0
  -22.7089  -10.1869   20.3049 C   0  0  0  0  0  0
  -21.6736   -6.0619   22.5293 C   0  0  0  0  0  0
  -21.3954   -6.5563   23.8199 C   0  0  0  0  0  0
  -21.3676   -5.6771   24.9200 C   0  0  0  0  0  0
  -21.6052   -4.3016   24.7301 C   0  0  0  0  0  0
  -21.8808   -3.8073   23.4421 C   0  0  0  0  0  0
  -21.9151   -4.6874   22.3449 C   0  0  0  0  0  0
  -22.7567  -13.4812   21.2020 C   0  0  0  0  0  0
  -22.1604   -4.2050   21.1009 F   0  0  0  0  0  0
  -21.5683   -3.4476   25.7800 F   0  0  0  0  0  0
  -29.9963  -13.6437   20.3049 N   0  0  0  0  0  0
  -26.2765  -12.9039   20.3282 N   0  0  0  0  0  0
  -25.9154  -11.6193   20.5763 N   0  0  0  0  0  0
  -22.0207  -12.7888   22.0657 N   0  0  0  0  0  0
  -25.3067  -15.1280   20.4278 N   0  0  0  0  0  0
  -31.9786  -14.6742   20.0055 O   0  0  0  0  0  0
  -21.6490   -6.8708   21.4249 O   0  0  0  0  0  0
  -22.3319  -14.5205   20.6945 O   0  0  0  0  0  0
  -24.6322  -31.8502   23.2032 C   0  0  0  0  0  0
  -25.9115  -32.4722   23.8338 C   0  0  1  0  0  0
  -27.3127  -27.4002   20.0206 C   0  0  0  0  0  0
  -25.5736  -33.8487   24.2163 N   0  0  0  0  0  0
  -23.4341  -30.4714   21.5527 C   0  0  2  0  0  0
  -24.8836  -28.9041   20.1593 C   0  0  0  0  0  0
  -22.7528  -29.4567   22.4857 C   0  0  0  0  0  0
  -18.0239  -28.1343   22.8511 C   0  0  0  0  0  0
  -24.1406  -36.7274   23.2608 C   0  0  0  0  0  0
  -25.9717  -30.7952   21.3497 C   0  0  0  0  0  0
  -26.0739  -29.4204   20.7108 C   0  0  0  0  0  0
  -27.2938  -28.6780   20.6442 C   0  0  0  0  0  0
  -26.0935  -26.9032   19.5073 C   0  0  0  0  0  0
  -24.8867  -27.6257   19.5934 C   0  0  0  0  0  0
  -23.6500  -29.7852   20.1973 C   0  0  0  0  0  0
  -25.4000  -36.3047   24.0287 C   0  0  1  0  0  0
  -20.5887  -28.3660   23.1252 C   0  0  2  0  0  0
  -20.6654  -26.9296   22.5444 C   0  0  0  0  0  0
  -19.5650  -26.6276   21.5185 C   0  0  0  0  0  0
  -18.1908  -26.7891   22.1684 C   0  0  0  0  0  0
  -19.1549  -28.8734   23.2932 C   0  0  0  0  0  0
  -18.9448  -30.1340   23.8896 C   0  0  0  0  0  0
  -17.6512  -30.6532   24.0540 C   0  0  0  0  0  0
  -25.8957  -34.9394   23.5084 C   0  0  0  0  0  0
  -16.5400  -29.9019   23.6410 C   0  0  0  0  0  0
  -16.7280  -28.6494   23.0369 C   0  0  0  0  0  0
  -26.4381  -31.6748   25.0912 C   0  0  0  0  0  0
  -25.3540  -31.3945   26.1618 C   0  0  0  0  0  0
  -27.0295  -30.3254   24.6376 C   0  0  0  0  0  0
  -27.5818  -32.4600   25.7673 C   0  0  0  0  0  0
  -27.5500  -37.1884   24.8491 C   0  0  0  0  0  0
  -21.4186  -29.3061   22.3644 N   0  0  0  0  0  0
  -26.4172  -37.3821   23.9431 N   0  0  0  0  0  0
  -24.6981  -31.0611   22.0932 N   0  0  0  0  0  0
  -23.4355  -28.7788   23.2544 O   0  0  0  0  0  0
  -28.4259  -26.6447   19.6275 O   0  0  0  0  0  0
  -26.5765  -34.8890   22.4838 O   0  0  0  0  0  0
  -23.5582  -32.0955   23.7757 O   0  0  0  0  0  0
  -30.5564  -18.5661   19.6907 C   0  0  0  0  0  0
  -28.6743  -17.4221   19.4998 C   0  0  0  0  0  0
  -29.9930  -17.3041   19.9298 C   0  0  0  0  0  0
  -28.4349  -18.6614   18.9723 C   0  0  0  0  0  0
  -27.6202  -16.4628   19.7041 C   0  0  0  0  0  0
  -27.0782  -19.0242   18.4177 C   0  0  0  0  0  0
  -30.2859  -20.7518   17.1292 C   0  0  0  0  0  0
  -28.3236  -21.6110   18.3856 C   0  0  0  0  0  0
  -30.9194  -25.8113   19.7313 C   0  0  0  0  0  0
  -31.1390  -24.5439   18.8078 C   0  0  0  0  0  0
  -30.6648  -21.9550   19.3246 C   0  0  0  0  0  0
  -29.5869  -26.3574   20.4157 C   0  0  0  0  0  0
  -29.7285  -20.9056   18.5620 C   0  0  0  0  0  0
  -29.5920  -19.4680   19.1155 N   0  0  0  0  0  0
  -30.4486  -16.0880   20.7040 N   0  0  0  0  0  0
  -30.2474  -23.3658   18.9451 N   0  3  0  0  0  0
  -31.4381  -12.4893   19.1445 H   0  0  0  0  0  0
  -30.2603  -11.5592   20.0139 H   0  0  0  0  0  0
  -29.7744  -11.6989   17.5124 H   0  0  0  0  0  0
  -29.5184  -13.4333   17.6842 H   0  0  0  0  0  0
  -27.9524  -11.1780   19.0359 H   0  0  0  0  0  0
  -27.3335  -12.2970   17.8450 H   0  0  0  0  0  0
  -27.4962  -14.0677   19.2210 H   0  0  0  0  0  0
  -28.7793  -12.3827   21.4680 H   0  0  0  0  0  0
  -28.4282  -14.0543   21.6800 H   0  0  0  0  0  0
  -25.2560   -9.5431   22.4819 H   0  0  0  0  0  0
  -23.9816   -7.4370   22.7443 H   0  0  0  0  0  0
  -21.0682   -8.8529   19.8883 H   0  0  0  0  0  0
  -22.3548  -10.9430   19.6171 H   0  0  0  0  0  0
  -21.1883   -7.6027   23.9734 H   0  0  0  0  0  0
  -21.1557   -6.0444   25.9131 H   0  0  0  0  0  0
  -22.0590   -2.7497   23.2937 H   0  0  0  0  0  0
  -22.3713  -11.9490   22.5078 H   0  0  0  0  0  0
  -21.0851  -13.1038   22.2939 H   0  0  0  0  0  0
  -24.5348  -15.7626   20.5927 H   0  0  0  0  0  0
  -26.1654  -15.5864   20.1517 H   0  0  0  0  0  0
  -26.7350  -32.5559   23.1214 H   0  0  0  0  0  0
  -24.9833  -33.9411   25.0303 H   0  0  0  0  0  0
  -22.7282  -31.2787   21.3565 H   0  0  0  0  0  0
  -23.3671  -35.9672   23.3391 H   0  0  0  0  0  0
  -24.3452  -36.8883   22.2029 H   0  0  0  0  0  0
  -23.7175  -37.6447   23.6618 H   0  0  0  0  0  0
  -26.1014  -31.5477   20.5764 H   0  0  0  0  0  0
  -26.8576  -30.8795   21.9693 H   0  0  0  0  0  0
  -28.2236  -29.1438   20.9455 H   0  0  0  0  0  0
  -26.0986  -25.9825   18.9470 H   0  0  0  0  0  0
  -23.9960  -27.2001   19.1469 H   0  0  0  0  0  0
  -23.8146  -30.5367   19.4343 H   0  0  0  0  0  0
  -22.7693  -29.2204   19.9144 H   0  0  0  0  0  0
  -25.1259  -36.1715   25.0796 H   0  0  0  0  0  0
  -21.0019  -28.3231   24.1373 H   0  0  0  0  0  0
  -20.5196  -26.2331   23.3709 H   0  0  0  0  0  0
  -21.6500  -26.7013   22.1336 H   0  0  0  0  0  0
  -19.6708  -25.6113   21.1277 H   0  0  0  0  0  0
  -19.6579  -27.3037   20.6714 H   0  0  0  0  0  0
  -17.4111  -26.6645   21.4199 H   0  0  0  0  0  0
  -18.0321  -25.9873   22.8945 H   0  0  0  0  0  0
  -19.7913  -30.7102   24.2347 H   0  0  0  0  0  0
  -17.5130  -31.6216   24.5011 H   0  0  0  0  0  0
  -15.5448  -30.2978   23.7482 H   0  0  0  0  0  0
  -15.8824  -28.0798   22.7061 H   0  0  0  0  0  0
  -24.5608  -30.7349   25.8105 H   0  0  0  0  0  0
  -24.8763  -32.3129   26.5077 H   0  0  0  0  0  0
  -25.7815  -30.9186   27.0440 H   0  0  0  0  0  0
  -26.3011  -29.7056   24.1163 H   0  0  0  0  0  0
  -27.3782  -29.7278   25.4833 H   0  0  0  0  0  0
  -27.8773  -30.4719   23.9651 H   0  0  0  0  0  0
  -27.2240  -33.3939   26.1967 H   0  0  0  0  0  0
  -28.3661  -32.7123   25.0570 H   0  0  0  0  0  0
  -28.0302  -31.8944   26.5799 H   0  0  0  0  0  0
  -28.2664  -38.0079   24.7545 H   0  0  0  0  0  0
  -28.0843  -36.2669   24.6232 H   0  0  0  0  0  0
  -27.2335  -37.1560   25.8945 H   0  0  0  0  0  0
  -20.9338  -29.8901   21.6961 H   0  0  0  0  0  0
  -26.0021  -38.2894   24.1509 H   0  0  0  0  0  0
  -31.5609  -18.9513   19.9021 H   0  0  0  0  0  0
  -27.9749  -15.6957   20.3711 H   0  0  0  0  0  0
  -27.2966  -16.0448   18.7501 H   0  0  0  0  0  0
  -26.8374  -16.9938   20.2434 H   0  0  0  0  0  0
  -26.3672  -18.2031   18.4236 H   0  0  0  0  0  0
  -27.1437  -19.2715   17.3645 H   0  0  0  0  0  0
  -26.5901  -19.8128   18.9900 H   0  0  0  0  0  0
  -30.2756  -21.7078   16.5971 H   0  0  0  0  0  0
  -29.6913  -20.0595   16.5428 H   0  0  0  0  0  0
  -31.3085  -20.3843   17.1148 H   0  0  0  0  0  0
  -28.3105  -22.6293   18.0001 H   0  0  0  0  0  0
  -27.7681  -21.6475   19.3223 H   0  0  0  0  0  0
  -27.7239  -21.1905   17.5895 H   0  0  0  0  0  0
  -31.3780  -26.6379   19.1843 H   0  0  0  0  0  0
  -31.6304  -25.6335   20.5499 H   0  0  0  0  0  0
  -32.1885  -24.2187   18.8395 H   0  0  0  0  0  0
  -31.0187  -24.9003   17.7793 H   0  0  0  0  0  0
  -31.7018  -21.7620   19.0414 H   0  0  0  0  0  0
  -30.5900  -21.8425   20.4142 H   0  0  0  0  0  0
  -29.8560  -27.3077   20.8891 H   0  0  0  0  0  0
  -29.3227  -25.6871   21.2257 H   0  0  0  0  0  0
  -31.2489  -16.3885   21.2476 H   0  0  0  0  0  0
  -29.9720  -23.1890   17.9828 H   0  0  0  0  0  0
  -29.4188  -23.6124   19.4452 H   0  0  0  0  0  0
  1 25  1  0  0  0
  1 30  2  0  0  0
  1 85  1  0  0  0
  2  3  1  0  0  0
  2 25  1  0  0  0
  2 87  1  0  0  0
  2 88  1  0  0  0
  3  4  1  0  0  0
  3 89  1  0  0  0
  3 90  1  0  0  0
  4  5  1  0  0  0
  4 91  1  0  0  0
  4 92  1  0  0  0
  5  6  1  0  0  0
  5 26  1  0  0  0
  5 93  1  0  0  0
  6 25  1  0  0  0
  6 94  1  0  0  0
  6 95  1  0  0  0
  7  8  2  0  0  0
  7 26  1  0  0  0
  7 29  1  0  0  0
  8  9  1  0  0  0
  8 22  1  0  0  0
  9 10  1  0  0  0
  9 27  2  0  0  0
 10 11  2  0  0  0
 10 15  1  0  0  0
 11 12  1  0  0  0
 11 96  1  0  0  0
 12 13  2  0  0  0
 12 97  1  0  0  0
 13 14  1  0  0  0
 13 31  1  0  0  0
 14 15  2  0  0  0
 14 98  1  0  0  0
 15 99  1  0  0  0
 16 17  2  0  0  0
 16 21  1  0  0  0
 16 31  1  0  0  0
 17 18  1  0  0  0
 17100  1  0  0  0
 18 19  2  0  0  0
 18101  1  0  0  0
 19 20  1  0  0  0
 19 24  1  0  0  0
 20 21  2  0  0  0
 20102  1  0  0  0
 21 23  1  0  0  0
 22 28  1  0  0  0
 22 32  2  0  0  0
 26 27  1  0  0  0
 28103  1  0  0  0
 28104  1  0  0  0
 29105  1  0  0  0
 29106  1  0  0  0
 33 34  1  0  0  0
 33 66  1  0  0  0
 33 70  2  0  0  0
 34 36  1  0  0  0
 34 59  1  0  0  0
 34107  1  0  0  0
 35 44  2  0  0  0
 35 45  1  0  0  0
 35 68  1  0  0  0
 36 56  1  0  0  0
 36108  1  0  0  0
 37 39  1  0  0  0
 37 47  1  0  0  0
 37 66  1  0  0  0
 37109  1  0  0  0
 38 43  2  0  0  0
 38 46  1  0  0  0
 38 47  1  0  0  0
 39 64  1  0  0  0
 39 67  2  0  0  0
 40 52  1  0  0  0
 40 53  2  0  0  0
 40 58  1  0  0  0
 41110  1  0  0  0
 41111  1  0  0  0
 41112  1  0  0  0
 41 48  1  0  0  0
 42 43  1  0  0  0
 42 66  1  0  0  0
 42113  1  0  0  0
 42114  1  0  0  0
 43 44  1  0  0  0
 44115  1  0  0  0
 45 46  2  0  0  0
 45116  1  0  0  0
 46117  1  0  0  0
 47118  1  0  0  0
 47119  1  0  0  0
 48 56  1  0  0  0
 48 65  1  0  0  0
 48120  1  0  0  0
 49 50  1  0  0  0
 49 53  1  0  0  0
 49 64  1  0  0  0
 49121  1  0  0  0
 50 51  1  0  0  0
 50122  1  0  0  0
 50123  1  0  0  0
 51 52  1  0  0  0
 51124  1  0  0  0
 51125  1  0  0  0
 52126  1  0  0  0
 52127  1  0  0  0
 53 54  1  0  0  0
 54 55  2  0  0  0
 54128  1  0  0  0
 55 57  1  0  0  0
 55129  1  0  0  0
 56 69  2  0  0  0
 57 58  2  0  0  0
 57130  1  0  0  0
 58131  1  0  0  0
 59 60  1  0  0  0
 59 61  1  0  0  0
 59 62  1  0  0  0
 60132  1  0  0  0
 60133  1  0  0  0
 60134  1  0  0  0
 61135  1  0  0  0
 61136  1  0  0  0
 61137  1  0  0  0
 62138  1  0  0  0
 62139  1  0  0  0
 62140  1  0  0  0
 63 65  1  0  0  0
 63141  1  0  0  0
 63142  1  0  0  0
 63143  1  0  0  0
 64144  1  0  0  0
 65145  1  0  0  0
 68 82  1  0  0  0
 71 73  2  0  0  0
 71 84  1  0  0  0
 71146  1  0  0  0
 72 73  1  0  0  0
 72 74  2  0  0  0
 72 75  1  0  0  0
 73 85  1  0  0  0
 74 76  1  0  0  0
 74 84  1  0  0  0
 75147  1  0  0  0
 75148  1  0  0  0
 75149  1  0  0  0
 76150  1  0  0  0
 76151  1  0  0  0
 76152  1  0  0  0
 77153  1  0  0  0
 77154  1  0  0  0
 77155  1  0  0  0
 77 83  1  0  0  0
 78 83  1  0  0  0
 78156  1  0  0  0
 78157  1  0  0  0
 78158  1  0  0  0
 79 80  1  0  0  0
 79 82  1  0  0  0
 79159  1  0  0  0
 79160  1  0  0  0
 80 86  1  0  0  0
 80161  1  0  0  0
 80162  1  0  0  0
 81 83  1  0  0  0
 81 86  1  0  0  0
 81163  1  0  0  0
 81164  1  0  0  0
 82165  1  0  0  0
 82166  1  0  0  0
 83 84  1  0  0  0
 85167  1  0  0  0
 86168  1  0  0  0
 86169  1  0  0  0
M  CHG  1  86   1
M  ISO  4   1 100  68 101  82 101  85 100
M  END
> <chiral flag>
0

> <version>
0

> <s_m_source_file>
/data/baiqing/PycharmProjects/Reinvent-master-3.2/result/LINK_invent/BTK/process_docking_weight1_custom_sum_contain_oxygen_bond_distance_aromatic_linkinvent_7_9_3/rearranged_h_0108.sdf

> <i_m_source_file_index>
39

> <r_mmod_Potential_Energy-OPLS-2005>
364.493530273438

> <r_mmod_Stretch_Energy-OPLS-2005>
126.561630249023

> <r_mmod_Bend_Energy-OPLS-2005>
372.12939453125

> <r_mmod_Torsional_Energy-OPLS-2005>
364.884552001953

> <r_mmod_Improper_Torsional_Energy-OPLS-2005>
12.4048051834106

> <r_mmod_Van_der_Waal_Energy-OPLS-2005>
200.715637207031

> <r_mmod_Electrostatic_Energy-OPLS-2005>
-371.153656005859

> <r_mmod_Solvation_Energy-OPLS-2005>
-459.523010253906

> <b_mmod_Minimization_Converged-OPLS-2005>
0

> <r_mmod_RMS_Derivative-OPLS-2005>
25.173807144165

$$$$
39
                    3D
 Structure written by MMmdl.
159166  0  0  1  0            999 V2000
  -30.5584  -14.9436   20.4308 C   0  0  0  0  0  0
  -30.4443  -12.5877   19.5062 C   0  0  0  0  0  0
  -29.5233  -12.5268   18.2653 C   0  0  0  0  0  0
  -28.0575  -12.3137   18.6828 C   0  0  0  0  0  0
  -27.6340  -13.2489   19.8450 C   0  0  2  0  0  0
  -28.6761  -13.2789   20.9849 C   0  0  0  0  0  0
  -25.2477  -13.8225   20.5727 C   0  0  0  0  0  0
  -24.1791  -13.0455   20.9228 C   0  0  0  0  0  0
  -24.6396  -11.6930   20.8759 C   0  0  0  0  0  0
  -23.9079  -10.4302   21.0412 C   0  0  0  0  0  0
  -24.3629   -9.4213   21.9186 C   0  0  0  0  0  0
  -23.6304   -8.2247   22.0756 C   0  0  0  0  0  0
  -22.4283   -8.0287   21.3550 C   0  0  0  0  0  0
  -21.9926   -9.0256   20.4647 C   0  0  0  0  0  0
  -22.7254  -10.2136   20.3060 C   0  0  0  0  0  0
  -21.6857   -6.0740   22.5275 C   0  0  0  0  0  0
  -21.4008   -6.5644   23.8205 C   0  0  0  0  0  0
  -21.3660   -5.6798   24.9170 C   0  0  0  0  0  0
  -21.6047   -4.3061   24.7222 C   0  0  0  0  0  0
  -21.8821   -3.8152   23.4344 C   0  0  0  0  0  0
  -21.9190   -4.6966   22.3398 C   0  0  0  0  0  0
  -22.7809  -13.5211   21.1880 C   0  0  0  0  0  0
  -22.1665   -4.2155   21.0977 F   0  0  0  0  0  0
  -21.5632   -3.4542   25.7735 F   0  0  0  0  0  0
  -29.9554  -13.6866   20.3901 N   0  0  0  0  0  0
  -26.2913  -12.9457   20.3283 N   0  0  0  0  0  0
  -25.9335  -11.6583   20.5766 N   0  0  0  0  0  0
  -22.0454  -12.8196   22.0424 N   0  0  0  0  0  0
  -25.4144  -15.1959   20.4142 N   0  0  0  0  0  0
  -31.7532  -15.0045   20.1256 O   0  0  0  0  0  0
  -21.6648   -6.8885   21.4241 O   0  0  0  0  0  0
  -22.3484  -14.5508   20.6717 O   0  0  0  0  0  0
  -24.6452  -31.8448   23.1886 C   0  0  0  0  0  0
  -25.9211  -32.4694   23.8282 C   0  0  1  0  0  0
  -27.2072  -27.1215   20.1591 C   0  0  0  0  0  0
  -25.5963  -33.8493   24.2208 N   0  0  0  0  0  0
  -23.4504  -30.4648   21.5337 C   0  0  2  0  0  0
  -24.9008  -28.8922   20.1088 C   0  0  0  0  0  0
  -22.7576  -29.4555   22.4845 C   0  0  0  0  0  0
  -18.0299  -28.1388   22.8459 C   0  0  0  0  0  0
  -24.1484  -36.7267   23.2638 C   0  0  0  0  0  0
  -26.0076  -30.7107   21.3951 C   0  0  0  0  0  0
  -26.0770  -29.3207   20.7373 C   0  0  0  0  0  0
  -27.2320  -28.4490   20.7514 C   0  0  0  0  0  0
  -26.0267  -26.8224   19.4468 C   0  0  0  0  0  0
  -24.8878  -27.6551   19.4490 C   0  0  0  0  0  0
  -23.6794  -29.7967   20.1528 C   0  0  0  0  0  0
  -25.4113  -36.3025   24.0313 C   0  0  1  0  0  0
  -20.5919  -28.3727   23.1225 C   0  0  2  0  0  0
  -20.6790  -26.9425   22.5395 C   0  0  0  0  0  0
  -19.5770  -26.6369   21.5199 C   0  0  0  0  0  0
  -18.1949  -26.7925   22.1604 C   0  0  0  0  0  0
  -19.1557  -28.8870   23.2837 C   0  0  0  0  0  0
  -18.9470  -30.1460   23.8882 C   0  0  0  0  0  0
  -17.6468  -30.6592   24.0547 C   0  0  0  0  0  0
  -25.9053  -34.9401   23.5058 C   0  0  0  0  0  0
  -16.5360  -29.9082   23.6334 C   0  0  0  0  0  0
  -16.7283  -28.6493   23.0367 C   0  0  0  0  0  0
  -26.4510  -31.6553   25.0727 C   0  0  0  0  0  0
  -25.3686  -31.3730   26.1416 C   0  0  0  0  0  0
  -27.0382  -30.2952   24.6318 C   0  0  0  0  0  0
  -27.6044  -32.4327   25.7499 C   0  0  0  0  0  0
  -27.5572  -37.1775   24.8459 C   0  0  0  0  0  0
  -21.4265  -29.3060   22.3595 N   0  0  0  0  0  0
  -26.4277  -37.3736   23.9408 N   0  0  0  0  0  0
  -24.7204  -31.0291   22.0934 N   0  0  0  0  0  0
  -23.4210  -28.8102   23.3006 O   0  0  0  0  0  0
  -28.2388  -26.1084   20.2114 O   0  0  0  0  0  0
  -26.5628  -34.8890   22.4629 O   0  0  0  0  0  0
  -23.5566  -32.1335   23.7085 O   0  0  0  0  0  0
  -28.9053  -21.7167   20.7682 C   0  0  0  0  0  0
  -26.3016  -23.3270   22.2515 C   0  0  0  0  0  0
  -31.2223  -20.7897   18.6769 C   0  0  0  0  0  0
  -28.6662  -23.2024   20.0313 C   0  0  0  0  0  0
  -26.5805  -24.4350   21.2287 C   0  0  0  0  0  0
  -29.7148  -20.5046   18.7560 C   0  0  0  0  0  0
  -30.1212  -17.6555   20.2756 C   0  0  0  0  0  0
  -29.1972  -18.9970   20.7497 C   0  0  0  0  0  0
  -28.0519  -24.6293   20.7388 C   0  0  2  0  0  0
  -29.7986  -16.1362   20.5993 N   0  0  0  0  0  0
  -29.2602  -20.4733   20.1487 N   0  0  0  0  0  0
  -28.7690  -21.6969   21.9926 O   0  0  0  0  0  0
  -31.4748  -12.7481   19.1851 H   0  0  0  0  0  0
  -30.4463  -11.6364   20.0408 H   0  0  0  0  0  0
  -29.8414  -11.7266   17.5953 H   0  0  0  0  0  0
  -29.6118  -13.4551   17.6983 H   0  0  0  0  0  0
  -27.9510  -11.2731   18.9912 H   0  0  0  0  0  0
  -27.3955  -12.4461   17.8267 H   0  0  0  0  0  0
  -27.5969  -14.2512   19.4161 H   0  0  0  0  0  0
  -28.7606  -12.3055   21.4694 H   0  0  0  0  0  0
  -28.3754  -13.9856   21.7600 H   0  0  0  0  0  0
  -25.2770   -9.5690   22.4766 H   0  0  0  0  0  0
  -24.0013   -7.4638   22.7476 H   0  0  0  0  0  0
  -21.0861   -8.8779   19.8945 H   0  0  0  0  0  0
  -22.3712  -10.9682   19.6178 H   0  0  0  0  0  0
  -21.1991   -7.6150   23.9709 H   0  0  0  0  0  0
  -21.1487   -6.0529   25.9074 H   0  0  0  0  0  0
  -22.0594   -2.7614   23.2841 H   0  0  0  0  0  0
  -22.4084  -11.9873   22.4840 H   0  0  0  0  0  0
  -21.1065  -13.1208   22.2615 H   0  0  0  0  0  0
  -24.6454  -15.8480   20.5239 H   0  0  0  0  0  0
  -26.2566  -15.6340   20.0656 H   0  0  0  0  0  0
  -26.7292  -32.5291   23.1022 H   0  0  0  0  0  0
  -25.0115  -33.9613   25.0360 H   0  0  0  0  0  0
  -22.7525  -31.2908   21.3795 H   0  0  0  0  0  0
  -23.3739  -35.9607   23.3281 H   0  0  0  0  0  0
  -24.3568  -36.8918   22.2052 H   0  0  0  0  0  0
  -23.7247  -37.6459   23.6701 H   0  0  0  0  0  0
  -26.1706  -31.4660   20.6244 H   0  0  0  0  0  0
  -26.8753  -30.7591   22.0405 H   0  0  0  0  0  0
  -28.1264  -28.7626   21.2703 H   0  0  0  0  0  0
  -25.9658  -25.8901   18.9052 H   0  0  0  0  0  0
  -23.9945  -27.3315   18.9326 H   0  0  0  0  0  0
  -23.8209  -30.5750   19.4018 H   0  0  0  0  0  0
  -22.7945  -29.2426   19.8360 H   0  0  0  0  0  0
  -25.1294  -36.1847   25.0808 H   0  0  0  0  0  0
  -21.0005  -28.3319   24.1347 H   0  0  0  0  0  0
  -20.5687  -26.2328   23.3608 H   0  0  0  0  0  0
  -21.6657  -26.7424   22.1194 H   0  0  0  0  0  0
  -19.6931  -25.6268   21.1263 H   0  0  0  0  0  0
  -19.6727  -27.3148   20.6709 H   0  0  0  0  0  0
  -17.4215  -26.6666   21.4009 H   0  0  0  0  0  0
  -18.0354  -26.0060   22.9000 H   0  0  0  0  0  0
  -19.7946  -30.7269   24.2264 H   0  0  0  0  0  0
  -17.5022  -31.6273   24.5145 H   0  0  0  0  0  0
  -15.5363  -30.2980   23.7673 H   0  0  0  0  0  0
  -15.8677  -28.0806   22.7119 H   0  0  0  0  0  0
  -24.5893  -30.7054   25.7715 H   0  0  0  0  0  0
  -24.8833  -32.2897   26.4770 H   0  0  0  0  0  0
  -25.7941  -30.8937   27.0243 H   0  0  0  0  0  0
  -26.2997  -29.6639   24.1358 H   0  0  0  0  0  0
  -27.4006  -29.7294   25.4914 H   0  0  0  0  0  0
  -27.8903  -30.4174   23.9630 H   0  0  0  0  0  0
  -27.2663  -33.3682   26.1970 H   0  0  0  0  0  0
  -28.3890  -32.6776   25.0327 H   0  0  0  0  0  0
  -28.0671  -31.8512   26.5484 H   0  0  0  0  0  0
  -28.2560  -38.0094   24.7520 H   0  0  0  0  0  0
  -28.1089  -36.2619   24.6274 H   0  0  0  0  0  0
  -27.2291  -37.1411   25.8858 H   0  0  0  0  0  0
  -20.9468  -29.8815   21.6814 H   0  0  0  0  0  0
  -26.0144  -38.2801   24.1417 H   0  0  0  0  0  0
  -27.0244  -23.3380   23.0669 H   0  0  0  0  0  0
  -26.3035  -22.3412   21.7890 H   0  0  0  0  0  0
  -25.3147  -23.4597   22.6970 H   0  0  0  0  0  0
  -31.5621  -20.8076   17.6410 H   0  0  0  0  0  0
  -31.8015  -20.0257   19.1975 H   0  0  0  0  0  0
  -31.4735  -21.7514   19.1255 H   0  0  0  0  0  0
  -28.0408  -23.0012   19.1612 H   0  0  0  0  0  0
  -29.6392  -23.4632   19.6188 H   0  0  0  0  0  0
  -26.2455  -25.3476   21.7198 H   0  0  0  0  0  0
  -25.9197  -24.2748   20.3786 H   0  0  0  0  0  0
  -29.4863  -19.5623   18.2602 H   0  0  0  0  0  0
  -29.1701  -21.2564   18.1827 H   0  0  0  0  0  0
  -31.1399  -17.8344   20.6245 H   0  0  0  0  0  0
  -30.2020  -17.6797   19.1896 H   0  0  0  0  0  0
  -29.3236  -19.0982   21.8282 H   0  0  0  0  0  0
  -28.1533  -18.7089   20.6291 H   0  0  0  0  0  0
  -28.6318  -24.6896   21.6592 H   0  0  0  0  0  0
  -28.8414  -15.9631   20.8712 H   0  0  0  0  0  0
  1 25  1  0  0  0
  1 30  2  0  0  0
  1 80  1  0  0  0
  2  3  1  0  0  0
  2 25  1  0  0  0
  2 83  1  0  0  0
  2 84  1  0  0  0
  3  4  1  0  0  0
  3 85  1  0  0  0
  3 86  1  0  0  0
  4  5  1  0  0  0
  4 87  1  0  0  0
  4 88  1  0  0  0
  5  6  1  0  0  0
  5 26  1  0  0  0
  5 89  1  0  0  0
  6 25  1  0  0  0
  6 90  1  0  0  0
  6 91  1  0  0  0
  7  8  2  0  0  0
  7 26  1  0  0  0
  7 29  1  0  0  0
  8  9  1  0  0  0
  8 22  1  0  0  0
  9 10  1  0  0  0
  9 27  2  0  0  0
 10 11  2  0  0  0
 10 15  1  0  0  0
 11 12  1  0  0  0
 11 92  1  0  0  0
 12 13  2  0  0  0
 12 93  1  0  0  0
 13 14  1  0  0  0
 13 31  1  0  0  0
 14 15  2  0  0  0
 14 94  1  0  0  0
 15 95  1  0  0  0
 16 17  2  0  0  0
 16 21  1  0  0  0
 16 31  1  0  0  0
 17 18  1  0  0  0
 17 96  1  0  0  0
 18 19  2  0  0  0
 18 97  1  0  0  0
 19 20  1  0  0  0
 19 24  1  0  0  0
 20 21  2  0  0  0
 20 98  1  0  0  0
 21 23  1  0  0  0
 22 28  1  0  0  0
 22 32  2  0  0  0
 26 27  1  0  0  0
 28 99  1  0  0  0
 28100  1  0  0  0
 29101  1  0  0  0
 29102  1  0  0  0
 33 34  1  0  0  0
 33 66  1  0  0  0
 33 70  2  0  0  0
 34 36  1  0  0  0
 34 59  1  0  0  0
 34103  1  0  0  0
 35 44  2  0  0  0
 35 45  1  0  0  0
 35 68  1  0  0  0
 36 56  1  0  0  0
 36104  1  0  0  0
 37 39  1  0  0  0
 37 47  1  0  0  0
 37 66  1  0  0  0
 37105  1  0  0  0
 38 43  2  0  0  0
 38 46  1  0  0  0
 38 47  1  0  0  0
 39 64  1  0  0  0
 39 67  2  0  0  0
 40 52  1  0  0  0
 40 53  2  0  0  0
 40 58  1  0  0  0
 41106  1  0  0  0
 41107  1  0  0  0
 41108  1  0  0  0
 41 48  1  0  0  0
 42 43  1  0  0  0
 42 66  1  0  0  0
 42109  1  0  0  0
 42110  1  0  0  0
 43 44  1  0  0  0
 44111  1  0  0  0
 45 46  2  0  0  0
 45112  1  0  0  0
 46113  1  0  0  0
 47114  1  0  0  0
 47115  1  0  0  0
 48 56  1  0  0  0
 48 65  1  0  0  0
 48116  1  0  0  0
 49 50  1  0  0  0
 49 53  1  0  0  0
 49 64  1  0  0  0
 49117  1  0  0  0
 50 51  1  0  0  0
 50118  1  0  0  0
 50119  1  0  0  0
 51 52  1  0  0  0
 51120  1  0  0  0
 51121  1  0  0  0
 52122  1  0  0  0
 52123  1  0  0  0
 53 54  1  0  0  0
 54 55  2  0  0  0
 54124  1  0  0  0
 55 57  1  0  0  0
 55125  1  0  0  0
 56 69  2  0  0  0
 57 58  2  0  0  0
 57126  1  0  0  0
 58127  1  0  0  0
 59 60  1  0  0  0
 59 61  1  0  0  0
 59 62  1  0  0  0
 60128  1  0  0  0
 60129  1  0  0  0
 60130  1  0  0  0
 61131  1  0  0  0
 61132  1  0  0  0
 61133  1  0  0  0
 62134  1  0  0  0
 62135  1  0  0  0
 62136  1  0  0  0
 63 65  1  0  0  0
 63137  1  0  0  0
 63138  1  0  0  0
 63139  1  0  0  0
 64140  1  0  0  0
 65141  1  0  0  0
 68 79  1  0  0  0
 71 74  1  0  0  0
 71 81  1  0  0  0
 71 82  2  0  0  0
 72 75  1  0  0  0
 72142  1  0  0  0
 72143  1  0  0  0
 72144  1  0  0  0
 73 76  1  0  0  0
 73145  1  0  0  0
 73146  1  0  0  0
 73147  1  0  0  0
 74148  1  0  0  0
 74149  1  0  0  0
 74 79  1  0  0  0
 75 79  1  0  0  0
 75150  1  0  0  0
 75151  1  0  0  0
 76 81  1  0  0  0
 76152  1  0  0  0
 76153  1  0  0  0
 77 78  1  0  0  0
 77 80  1  0  0  0
 77154  1  0  0  0
 77155  1  0  0  0
 78 81  1  0  0  0
 78156  1  0  0  0
 78157  1  0  0  0
 79158  1  0  0  0
 80159  1  0  0  0
M  ISO  4   1 100  68 101  79 101  80 100
M  END
> <chiral flag>
0

> <version>
0

> <s_m_source_file>
/data/baiqing/PycharmProjects/Reinvent-master-3.2/result/LINK_invent/BTK/process_docking_weight1_custom_sum_contain_oxygen_bond_distance_aromatic_linkinvent_7_9_3/rearranged_h_0108.sdf

> <i_m_source_file_index>
40

> <r_mmod_Potential_Energy-OPLS-2005>
558.739440917969

> <r_mmod_Stretch_Energy-OPLS-2005>
295.723205566406

> <r_mmod_Bend_Energy-OPLS-2005>
274.417388916016

> <r_mmod_Torsional_Energy-OPLS-2005>
262.770751953125

> <r_mmod_Improper_Torsional_Energy-OPLS-2005>
4.66133451461792

> <r_mmod_Van_der_Waal_Energy-OPLS-2005>
121.864387512207

> <r_mmod_Electrostatic_Energy-OPLS-2005>
-370.784881591797

> <r_mmod_Solvation_Energy-OPLS-2005>
-228.512588500977

> <b_mmod_Minimization_Converged-OPLS-2005>
0

> <r_mmod_RMS_Derivative-OPLS-2005>
2.223299741745

$$$$
40
                    3D
 Structure written by MMmdl.
158165  0  0  1  0            999 V2000
  -30.5614  -14.9554   20.4422 C   0  0  0  0  0  0
  -30.4504  -12.6000   19.5146 C   0  0  0  0  0  0
  -29.5280  -12.5348   18.2792 C   0  0  0  0  0  0
  -28.0633  -12.3138   18.7034 C   0  0  0  0  0  0
  -27.6314  -13.2615   19.8515 C   0  0  2  0  0  0
  -28.6759  -13.2962   20.9884 C   0  0  0  0  0  0
  -25.2394  -13.8270   20.5756 C   0  0  0  0  0  0
  -24.1698  -13.0429   20.9284 C   0  0  0  0  0  0
  -24.6353  -11.6948   20.8775 C   0  0  0  0  0  0
  -23.9024  -10.4279   21.0411 C   0  0  0  0  0  0
  -24.3581   -9.4205   21.9188 C   0  0  0  0  0  0
  -23.6265   -8.2236   22.0744 C   0  0  0  0  0  0
  -22.4237   -8.0254   21.3541 C   0  0  0  0  0  0
  -21.9883   -9.0224   20.4643 C   0  0  0  0  0  0
  -22.7195  -10.2126   20.3057 C   0  0  0  0  0  0
  -21.6871   -6.0722   22.5281 C   0  0  0  0  0  0
  -21.4007   -6.5618   23.8221 C   0  0  0  0  0  0
  -21.3661   -5.6783   24.9177 C   0  0  0  0  0  0
  -21.6049   -4.3051   24.7245 C   0  0  0  0  0  0
  -21.8808   -3.8125   23.4368 C   0  0  0  0  0  0
  -21.9179   -4.6935   22.3407 C   0  0  0  0  0  0
  -22.7730  -13.5219   21.1915 C   0  0  0  0  0  0
  -22.1655   -4.2106   21.0999 F   0  0  0  0  0  0
  -21.5627   -3.4540   25.7763 F   0  0  0  0  0  0
  -29.9513  -13.7039   20.3812 N   0  0  0  0  0  0
  -26.2865  -12.9547   20.3359 N   0  0  0  0  0  0
  -25.9311  -11.6653   20.5829 N   0  0  0  0  0  0
  -22.0370  -12.8198   22.0499 N   0  0  0  0  0  0
  -25.4059  -15.1979   20.4138 N   0  0  0  0  0  0
  -31.7719  -15.0012   20.2019 O   0  0  0  0  0  0
  -21.6629   -6.8850   21.4226 O   0  0  0  0  0  0
  -22.3399  -14.5495   20.6757 O   0  0  0  0  0  0
  -24.6430  -31.8438   23.1921 C   0  0  0  0  0  0
  -25.9180  -32.4708   23.8290 C   0  0  1  0  0  0
  -27.2127  -27.1052   20.1524 C   0  0  0  0  0  0
  -25.5919  -33.8540   24.2224 N   0  0  0  0  0  0
  -23.4523  -30.4576   21.5468 C   0  0  2  0  0  0
  -24.9005  -28.8835   20.1100 C   0  0  0  0  0  0
  -22.7571  -29.4564   22.4996 C   0  0  0  0  0  0
  -18.0319  -28.1391   22.8374 C   0  0  0  0  0  0
  -24.1482  -36.7262   23.2661 C   0  0  0  0  0  0
  -26.0087  -30.6976   21.3988 C   0  0  0  0  0  0
  -26.0775  -29.3091   20.7392 C   0  0  0  0  0  0
  -27.2361  -28.4415   20.7372 C   0  0  0  0  0  0
  -26.0160  -26.7969   19.4774 C   0  0  0  0  0  0
  -24.8926  -27.6491   19.4466 C   0  0  0  0  0  0
  -23.6730  -29.7887   20.1633 C   0  0  0  0  0  0
  -25.4129  -36.3109   24.0356 C   0  0  1  0  0  0
  -20.5880  -28.3775   23.1162 C   0  0  2  0  0  0
  -20.6982  -26.9588   22.5077 C   0  0  0  0  0  0
  -19.5827  -26.6364   21.5084 C   0  0  0  0  0  0
  -18.1961  -26.8024   22.1335 C   0  0  0  0  0  0
  -19.1530  -28.8874   23.2773 C   0  0  0  0  0  0
  -18.9426  -30.1568   23.8680 C   0  0  0  0  0  0
  -17.6402  -30.6575   24.0483 C   0  0  0  0  0  0
  -25.9066  -34.9463   23.5128 C   0  0  0  0  0  0
  -16.5323  -29.8963   23.6342 C   0  0  0  0  0  0
  -16.7309  -28.6465   23.0259 C   0  0  0  0  0  0
  -26.4509  -31.6591   25.0729 C   0  0  0  0  0  0
  -25.3644  -31.3725   26.1372 C   0  0  0  0  0  0
  -27.0387  -30.3002   24.6296 C   0  0  0  0  0  0
  -27.6084  -32.4320   25.7438 C   0  0  0  0  0  0
  -27.5602  -37.1783   24.8482 C   0  0  0  0  0  0
  -21.4237  -29.3276   22.3782 N   0  0  0  0  0  0
  -26.4307  -37.3807   23.9411 N   0  0  0  0  0  0
  -24.7221  -31.0201   22.1008 N   0  0  0  0  0  0
  -23.4178  -28.7909   23.2994 O   0  0  0  0  0  0
  -28.2769  -26.1314   20.1502 O   0  0  0  0  0  0
  -26.5707  -34.8967   22.4737 O   0  0  0  0  0  0
  -23.5533  -32.1401   23.7072 O   0  0  0  0  0  0
  -27.2590  -23.6596   18.4442 C   0  0  0  0  0  0
  -28.8671  -21.1206   18.0450 C   0  0  0  0  0  0
  -29.1206  -20.8116   21.8186 C   0  0  0  0  0  0
  -30.1323  -17.7033   20.6660 C   0  0  0  0  0  0
  -29.1318  -18.9378   20.0886 C   0  0  0  0  0  0
  -28.1431  -24.5941   20.4790 C   0  0  0  0  0  0
  -28.4207  -23.3030   19.4230 C   0  0  1  0  0  0
  -28.4568  -21.5545   19.4847 C   0  0  2  0  0  0
  -29.7939  -16.1495   20.5672 N   0  0  0  0  0  0
  -29.2818  -20.5181   20.3786 N   0  3  1  0  0  0
  -31.4855  -12.7565   19.2092 H   0  0  0  0  0  0
  -30.4565  -11.6564   20.0572 H   0  0  0  0  0  0
  -29.8438  -11.7428   17.6013 H   0  0  0  0  0  0
  -29.6066  -13.4746   17.7304 H   0  0  0  0  0  0
  -27.9688  -11.2826   19.0427 H   0  0  0  0  0  0
  -27.3921  -12.4230   17.8505 H   0  0  0  0  0  0
  -27.5949  -14.2609   19.4122 H   0  0  0  0  0  0
  -28.7612  -12.3202   21.4673 H   0  0  0  0  0  0
  -28.3899  -13.9988   21.7742 H   0  0  0  0  0  0
  -25.2706   -9.5705   22.4771 H   0  0  0  0  0  0
  -23.9961   -7.4647   22.7473 H   0  0  0  0  0  0
  -21.0811   -8.8740   19.8964 H   0  0  0  0  0  0
  -22.3607  -10.9666   19.6168 H   0  0  0  0  0  0
  -21.2004   -7.6130   23.9703 H   0  0  0  0  0  0
  -21.1504   -6.0529   25.9090 H   0  0  0  0  0  0
  -22.0583   -2.7573   23.2901 H   0  0  0  0  0  0
  -22.3965  -11.9841   22.4844 H   0  0  0  0  0  0
  -21.1000  -13.1238   22.2736 H   0  0  0  0  0  0
  -24.6361  -15.8525   20.4951 H   0  0  0  0  0  0
  -26.2273  -15.6122   19.9951 H   0  0  0  0  0  0
  -26.7197  -32.5266   23.0984 H   0  0  0  0  0  0
  -24.9927  -33.9603   25.0262 H   0  0  0  0  0  0
  -22.7585  -31.2859   21.3984 H   0  0  0  0  0  0
  -23.3806  -35.9530   23.3329 H   0  0  0  0  0  0
  -24.3567  -36.8859   22.2074 H   0  0  0  0  0  0
  -23.7137  -37.6425   23.6654 H   0  0  0  0  0  0
  -26.1799  -31.4420   20.6224 H   0  0  0  0  0  0
  -26.8773  -30.7416   22.0412 H   0  0  0  0  0  0
  -28.1387  -28.7691   21.2331 H   0  0  0  0  0  0
  -25.9312  -25.8687   18.9450 H   0  0  0  0  0  0
  -24.0235  -27.3349   18.8853 H   0  0  0  0  0  0
  -23.7887  -30.5742   19.4136 H   0  0  0  0  0  0
  -22.7876  -29.2257   19.8588 H   0  0  0  0  0  0
  -25.1303  -36.2025   25.0844 H   0  0  0  0  0  0
  -20.9821  -28.3176   24.1322 H   0  0  0  0  0  0
  -20.6513  -26.2219   23.3097 H   0  0  0  0  0  0
  -21.6778  -26.8126   22.0460 H   0  0  0  0  0  0
  -19.7043  -25.6159   21.1369 H   0  0  0  0  0  0
  -19.6772  -27.2972   20.6457 H   0  0  0  0  0  0
  -17.4473  -26.7203   21.3441 H   0  0  0  0  0  0
  -17.9897  -26.0000   22.8406 H   0  0  0  0  0  0
  -19.7892  -30.7523   24.1769 H   0  0  0  0  0  0
  -17.4924  -31.6278   24.5042 H   0  0  0  0  0  0
  -15.5317  -30.2826   23.7694 H   0  0  0  0  0  0
  -15.8734  -28.0806   22.6841 H   0  0  0  0  0  0
  -24.5863  -30.7089   25.7589 H   0  0  0  0  0  0
  -24.8783  -32.2875   26.4765 H   0  0  0  0  0  0
  -25.7843  -30.8859   27.0183 H   0  0  0  0  0  0
  -26.3022  -29.6691   24.1330 H   0  0  0  0  0  0
  -27.4064  -29.7315   25.4840 H   0  0  0  0  0  0
  -27.8905  -30.4269   23.9615 H   0  0  0  0  0  0
  -27.2796  -33.3667   26.1983 H   0  0  0  0  0  0
  -28.3874  -32.6790   25.0213 H   0  0  0  0  0  0
  -28.0824  -31.8474   26.5332 H   0  0  0  0  0  0
  -28.2661  -38.0044   24.7587 H   0  0  0  0  0  0
  -28.1045  -36.2596   24.6273 H   0  0  0  0  0  0
  -27.2303  -37.1423   25.8871 H   0  0  0  0  0  0
  -20.9363  -29.9419   21.7406 H   0  0  0  0  0  0
  -26.0240  -38.2889   24.1381 H   0  0  0  0  0  0
  -27.4500  -24.6281   17.9839 H   0  0  0  0  0  0
  -26.3115  -23.7409   18.9840 H   0  0  0  0  0  0
  -27.0481  -22.9792   17.6232 H   0  0  0  0  0  0
  -28.7043  -21.8561   17.2639 H   0  0  0  0  0  0
  -28.3488  -20.2130   17.7344 H   0  0  0  0  0  0
  -29.9406  -20.9348   17.9878 H   0  0  0  0  0  0
  -29.8135  -20.2331   22.4338 H   0  0  0  0  0  0
  -28.1098  -20.5642   22.1390 H   0  0  0  0  0  0
  -29.3192  -21.8617   22.0308 H   0  0  0  0  0  0
  -30.2834  -17.9135   21.7258 H   0  0  0  0  0  0
  -31.1261  -17.8288   20.2245 H   0  0  0  0  0  0
  -29.2301  -18.7919   19.0124 H   0  0  0  0  0  0
  -28.0986  -18.6545   20.3083 H   0  0  0  0  0  0
  -28.8441  -24.4388   21.2952 H   0  0  0  0  0  0
  -27.1747  -24.4433   20.9572 H   0  0  0  0  0  0
  -29.3572  -23.5744   18.9349 H   0  0  0  0  0  0
  -27.4179  -21.2467   19.6150 H   0  0  0  0  0  0
  -28.8127  -15.9653   20.7133 H   0  0  0  0  0  0
  -30.2490  -20.7312   20.1950 H   0  0  0  0  0  0
  1 25  1  0  0  0
  1 30  2  0  0  0
  1 79  1  0  0  0
  2  3  1  0  0  0
  2 25  1  0  0  0
  2 81  1  0  0  0
  2 82  1  0  0  0
  3  4  1  0  0  0
  3 83  1  0  0  0
  3 84  1  0  0  0
  4  5  1  0  0  0
  4 85  1  0  0  0
  4 86  1  0  0  0
  5  6  1  0  0  0
  5 26  1  0  0  0
  5 87  1  0  0  0
  6 25  1  0  0  0
  6 88  1  0  0  0
  6 89  1  0  0  0
  7  8  2  0  0  0
  7 26  1  0  0  0
  7 29  1  0  0  0
  8  9  1  0  0  0
  8 22  1  0  0  0
  9 10  1  0  0  0
  9 27  2  0  0  0
 10 11  2  0  0  0
 10 15  1  0  0  0
 11 12  1  0  0  0
 11 90  1  0  0  0
 12 13  2  0  0  0
 12 91  1  0  0  0
 13 14  1  0  0  0
 13 31  1  0  0  0
 14 15  2  0  0  0
 14 92  1  0  0  0
 15 93  1  0  0  0
 16 17  2  0  0  0
 16 21  1  0  0  0
 16 31  1  0  0  0
 17 18  1  0  0  0
 17 94  1  0  0  0
 18 19  2  0  0  0
 18 95  1  0  0  0
 19 20  1  0  0  0
 19 24  1  0  0  0
 20 21  2  0  0  0
 20 96  1  0  0  0
 21 23  1  0  0  0
 22 28  1  0  0  0
 22 32  2  0  0  0
 26 27  1  0  0  0
 28 97  1  0  0  0
 28 98  1  0  0  0
 29 99  1  0  0  0
 29100  1  0  0  0
 33 34  1  0  0  0
 33 66  1  0  0  0
 33 70  2  0  0  0
 34 36  1  0  0  0
 34 59  1  0  0  0
 34101  1  0  0  0
 35 44  2  0  0  0
 35 45  1  0  0  0
 35 68  1  0  0  0
 36 56  1  0  0  0
 36102  1  0  0  0
 37 39  1  0  0  0
 37 47  1  0  0  0
 37 66  1  0  0  0
 37103  1  0  0  0
 38 43  2  0  0  0
 38 46  1  0  0  0
 38 47  1  0  0  0
 39 64  1  0  0  0
 39 67  2  0  0  0
 40 52  1  0  0  0
 40 53  2  0  0  0
 40 58  1  0  0  0
 41104  1  0  0  0
 41105  1  0  0  0
 41106  1  0  0  0
 41 48  1  0  0  0
 42 43  1  0  0  0
 42 66  1  0  0  0
 42107  1  0  0  0
 42108  1  0  0  0
 43 44  1  0  0  0
 44109  1  0  0  0
 45 46  2  0  0  0
 45110  1  0  0  0
 46111  1  0  0  0
 47112  1  0  0  0
 47113  1  0  0  0
 48 56  1  0  0  0
 48 65  1  0  0  0
 48114  1  0  0  0
 49 50  1  0  0  0
 49 53  1  0  0  0
 49 64  1  0  0  0
 49115  1  0  0  0
 50 51  1  0  0  0
 50116  1  0  0  0
 50117  1  0  0  0
 51 52  1  0  0  0
 51118  1  0  0  0
 51119  1  0  0  0
 52120  1  0  0  0
 52121  1  0  0  0
 53 54  1  0  0  0
 54 55  2  0  0  0
 54122  1  0  0  0
 55 57  1  0  0  0
 55123  1  0  0  0
 56 69  2  0  0  0
 57 58  2  0  0  0
 57124  1  0  0  0
 58125  1  0  0  0
 59 60  1  0  0  0
 59 61  1  0  0  0
 59 62  1  0  0  0
 60126  1  0  0  0
 60127  1  0  0  0
 60128  1  0  0  0
 61129  1  0  0  0
 61130  1  0  0  0
 61131  1  0  0  0
 62132  1  0  0  0
 62133  1  0  0  0
 62134  1  0  0  0
 63 65  1  0  0  0
 63135  1  0  0  0
 63136  1  0  0  0
 63137  1  0  0  0
 64138  1  0  0  0
 65139  1  0  0  0
 68 76  1  0  0  0
 71140  1  0  0  0
 71141  1  0  0  0
 71142  1  0  0  0
 71 77  1  0  0  0
 72143  1  0  0  0
 72144  1  0  0  0
 72145  1  0  0  0
 72 78  1  0  0  0
 73146  1  0  0  0
 73147  1  0  0  0
 73148  1  0  0  0
 73 80  1  0  0  0
 74 75  1  0  0  0
 74 79  1  0  0  0
 74149  1  0  0  0
 74150  1  0  0  0
 75 80  1  0  0  0
 75151  1  0  0  0
 75152  1  0  0  0
 76 77  1  0  0  0
 76153  1  0  0  0
 76154  1  0  0  0
 77 78  1  0  0  0
 77155  1  0  0  0
 78 80  1  0  0  0
 78156  1  0  0  0
 79157  1  0  0  0
 80158  1  0  0  0
M  CHG  1  80   1
M  ISO  4   1 100  68 101  76 101  79 100
M  END
> <chiral flag>
0

> <version>
0

> <s_m_source_file>
/data/baiqing/PycharmProjects/Reinvent-master-3.2/result/LINK_invent/BTK/process_docking_weight1_custom_sum_contain_oxygen_bond_distance_aromatic_linkinvent_7_9_3/rearranged_h_0108.sdf

> <i_m_source_file_index>
41

> <r_mmod_Potential_Energy-OPLS-2005>
564.720031738281

> <r_mmod_Stretch_Energy-OPLS-2005>
318.175598144531

> <r_mmod_Bend_Energy-OPLS-2005>
376.141357421875

> <r_mmod_Torsional_Energy-OPLS-2005>
249.923355102539

> <r_mmod_Improper_Torsional_Energy-OPLS-2005>
4.85386848449707

> <r_mmod_Van_der_Waal_Energy-OPLS-2005>
129.779754638672

> <r_mmod_Electrostatic_Energy-OPLS-2005>
-254.774826049805

> <r_mmod_Solvation_Energy-OPLS-2005>
-463.170013427734

> <b_mmod_Minimization_Converged-OPLS-2005>
0

> <r_mmod_RMS_Derivative-OPLS-2005>
9.54522705078125

$$$$
41
                    3D
 Structure written by MMmdl.
167174  0  0  1  0            999 V2000
  -30.3822  -15.5273   20.3696 C   0  0  0  0  0  0
  -30.4135  -12.9920   19.5747 C   0  0  0  0  0  0
  -29.5485  -12.6723   18.3237 C   0  0  0  0  0  0
  -28.1050  -12.3452   18.7337 C   0  0  0  0  0  0
  -27.5958  -13.3172   19.8239 C   0  0  2  0  0  0
  -28.6115  -13.6006   20.9594 C   0  0  0  0  0  0
  -25.2276  -13.8314   20.5795 C   0  0  0  0  0  0
  -24.1677  -13.0463   20.9253 C   0  0  0  0  0  0
  -24.6392  -11.6959   20.8734 C   0  0  0  0  0  0
  -23.9096  -10.4314   21.0379 C   0  0  0  0  0  0
  -24.3639   -9.4220   21.9157 C   0  0  0  0  0  0
  -23.6326   -8.2245   22.0740 C   0  0  0  0  0  0
  -22.4320   -8.0268   21.3527 C   0  0  0  0  0  0
  -21.9964   -9.0232   20.4619 C   0  0  0  0  0  0
  -22.7274  -10.2121   20.3030 C   0  0  0  0  0  0
  -21.6867   -6.0724   22.5261 C   0  0  0  0  0  0
  -21.4019   -6.5632   23.8195 C   0  0  0  0  0  0
  -21.3696   -5.6786   24.9157 C   0  0  0  0  0  0
  -21.6068   -4.3042   24.7208 C   0  0  0  0  0  0
  -21.8823   -3.8132   23.4329 C   0  0  0  0  0  0
  -21.9197   -4.6948   22.3384 C   0  0  0  0  0  0
  -22.7689  -13.5142   21.1943 C   0  0  0  0  0  0
  -22.1687   -4.2135   21.0964 F   0  0  0  0  0  0
  -21.5651   -3.4524   25.7728 F   0  0  0  0  0  0
  -29.8165  -14.1845   20.3305 N   0  0  0  0  0  0
  -26.2745  -12.9678   20.3237 N   0  0  0  0  0  0
  -25.9342  -11.6743   20.5670 N   0  0  0  0  0  0
  -22.0397  -12.8065   22.0479 N   0  0  0  0  0  0
  -25.3881  -15.2077   20.4283 N   0  0  0  0  0  0
  -31.5953  -15.4223   20.1401 O   0  0  0  0  0  0
  -21.6680   -6.8869   21.4228 O   0  0  0  0  0  0
  -22.3338  -14.5446   20.6785 O   0  0  0  0  0  0
  -24.6832  -31.8026   23.1523 C   0  0  0  0  0  0
  -25.9430  -32.4453   23.8074 C   0  0  1  0  0  0
  -27.2406  -26.7533   20.1871 C   0  0  0  0  0  0
  -25.6009  -33.8272   24.1956 N   0  0  0  0  0  0
  -23.5074  -30.4070   21.5029 C   0  0  2  0  0  0
  -24.9627  -28.7516   20.1192 C   0  0  0  0  0  0
  -22.7761  -29.4341   22.4683 C   0  0  0  0  0  0
  -18.0345  -28.1415   22.8437 C   0  0  0  0  0  0
  -24.1501  -36.7153   23.2645 C   0  0  0  0  0  0
  -26.0864  -30.5518   21.4056 C   0  0  0  0  0  0
  -26.1545  -29.1211   20.7546 C   0  0  0  0  0  0
  -27.2830  -28.1509   20.7511 C   0  0  0  0  0  0
  -26.0111  -26.5801   19.5067 C   0  0  0  0  0  0
  -24.9250  -27.5038   19.4742 C   0  0  0  0  0  0
  -23.7590  -29.7027   20.1396 C   0  0  0  0  0  0
  -25.4145  -36.2874   24.0277 C   0  0  1  0  0  0
  -20.5976  -28.3776   23.1108 C   0  0  2  0  0  0
  -20.6789  -26.9429   22.5366 C   0  0  0  0  0  0
  -19.5762  -26.6370   21.5178 C   0  0  0  0  0  0
  -18.1961  -26.7944   22.1603 C   0  0  0  0  0  0
  -19.1612  -28.8922   23.2748 C   0  0  0  0  0  0
  -18.9511  -30.1496   23.8802 C   0  0  0  0  0  0
  -17.6503  -30.6585   24.0557 C   0  0  0  0  0  0
  -25.9129  -34.9266   23.4946 C   0  0  0  0  0  0
  -16.5392  -29.9077   23.6333 C   0  0  0  0  0  0
  -16.7326  -28.6499   23.0348 C   0  0  0  0  0  0
  -26.4625  -31.6467   25.0678 C   0  0  0  0  0  0
  -25.3699  -31.3765   26.1288 C   0  0  0  0  0  0
  -27.0571  -30.2812   24.6552 C   0  0  0  0  0  0
  -27.6069  -32.4338   25.7505 C   0  0  0  0  0  0
  -27.5558  -37.1740   24.8457 C   0  0  0  0  0  0
  -21.4410  -29.3050   22.3455 N   0  0  0  0  0  0
  -26.4270  -37.3636   23.9399 N   0  0  0  0  0  0
  -24.7825  -30.9525   22.0737 N   0  0  0  0  0  0
  -23.4205  -28.7917   23.3008 O   0  0  0  0  0  0
  -28.2334  -25.5722   20.2046 O   0  0  0  0  0  0
  -26.5755  -34.8861   22.4548 O   0  0  0  0  0  0
  -23.5850  -32.1084   23.6491 O   0  0  0  0  0  0
  -29.1629  -22.2157   18.4473 C   0  0  0  0  0  0
  -31.5877  -18.4876   22.0148 C   0  0  0  0  0  0
  -32.5197  -18.4412   19.6613 C   0  0  0  0  0  0
  -31.7358  -20.5120   20.6150 C   0  0  0  0  0  0
  -29.5300  -17.1717   16.5115 C   0  0  0  0  0  0
  -28.9315  -20.3098   20.4228 C   0  0  0  0  0  0
  -29.7574  -18.6868   18.5027 C   0  0  0  0  0  0
  -28.0411  -23.8406   20.2664 C   0  0  0  0  0  0
  -29.0019  -22.2023   19.9792 C   0  0  2  0  0  0
  -31.3915  -19.0034   20.5655 C   0  0  0  0  0  0
  -29.9042  -18.6664   20.0644 C   0  0  1  0  0  0
  -29.6856  -16.9218   20.4205 N   0  0  0  0  0  0
  -30.1143  -17.4144   17.8432 N   0  3  0  0  0  0
  -31.4400  -13.1837   19.2650 H   0  0  0  0  0  0
  -30.4812  -12.1088   20.2154 H   0  0  0  0  0  0
  -29.9788  -11.8559   17.7442 H   0  0  0  0  0  0
  -29.5453  -13.5476   17.6731 H   0  0  0  0  0  0
  -28.0807  -11.3196   19.1042 H   0  0  0  0  0  0
  -27.4495  -12.3783   17.8645 H   0  0  0  0  0  0
  -27.4710  -14.2598   19.2882 H   0  0  0  0  0  0
  -28.8308  -12.7023   21.5419 H   0  0  0  0  0  0
  -28.1915  -14.3179   21.6658 H   0  0  0  0  0  0
  -25.2793   -9.5720   22.4707 H   0  0  0  0  0  0
  -24.0063   -7.4646   22.7456 H   0  0  0  0  0  0
  -21.0920   -8.8719   19.8910 H   0  0  0  0  0  0
  -22.3726  -10.9631   19.6132 H   0  0  0  0  0  0
  -21.1999   -7.6147   23.9690 H   0  0  0  0  0  0
  -21.1554   -6.0519   25.9060 H   0  0  0  0  0  0
  -22.0576   -2.7585   23.2820 H   0  0  0  0  0  0
  -22.4114  -11.9745   22.4835 H   0  0  0  0  0  0
  -21.0978  -13.0956   22.2714 H   0  0  0  0  0  0
  -24.6085  -15.8490   20.5219 H   0  0  0  0  0  0
  -26.2273  -15.6570   20.0885 H   0  0  0  0  0  0
  -26.7508  -32.4957   23.0789 H   0  0  0  0  0  0
  -25.0123  -33.9312   25.0086 H   0  0  0  0  0  0
  -22.8311  -31.2423   21.3117 H   0  0  0  0  0  0
  -23.3775  -35.9467   23.3237 H   0  0  0  0  0  0
  -24.3572  -36.8888   22.2070 H   0  0  0  0  0  0
  -23.7260  -37.6313   23.6774 H   0  0  0  0  0  0
  -26.2865  -31.2810   20.6190 H   0  0  0  0  0  0
  -26.9372  -30.6171   22.0715 H   0  0  0  0  0  0
  -28.1920  -28.4482   21.2564 H   0  0  0  0  0  0
  -25.8602  -25.6382   18.9992 H   0  0  0  0  0  0
  -24.0267  -27.2098   18.9490 H   0  0  0  0  0  0
  -23.9306  -30.4602   19.3731 H   0  0  0  0  0  0
  -22.8667  -29.1635   19.8180 H   0  0  0  0  0  0
  -25.1352  -36.1635   25.0769 H   0  0  0  0  0  0
  -21.0066  -28.3408   24.1232 H   0  0  0  0  0  0
  -20.5596  -26.2427   23.3643 H   0  0  0  0  0  0
  -21.6661  -26.7336   22.1229 H   0  0  0  0  0  0
  -19.6917  -25.6260   21.1255 H   0  0  0  0  0  0
  -19.6708  -27.3141   20.6674 H   0  0  0  0  0  0
  -17.4223  -26.6658   21.4023 H   0  0  0  0  0  0
  -18.0372  -26.0108   22.9018 H   0  0  0  0  0  0
  -19.7984  -30.7326   24.2141 H   0  0  0  0  0  0
  -17.5052  -31.6248   24.5182 H   0  0  0  0  0  0
  -15.5377  -30.2949   23.7702 H   0  0  0  0  0  0
  -15.8731  -28.0794   22.7094 H   0  0  0  0  0  0
  -24.5899  -30.7105   25.7581 H   0  0  0  0  0  0
  -24.8881  -32.2978   26.4561 H   0  0  0  0  0  0
  -25.7884  -30.9021   27.0164 H   0  0  0  0  0  0
  -26.3296  -29.6414   24.1545 H   0  0  0  0  0  0
  -27.4017  -29.7267   25.5289 H   0  0  0  0  0  0
  -27.9259  -30.3947   24.0070 H   0  0  0  0  0  0
  -27.2584  -33.3686   26.1907 H   0  0  0  0  0  0
  -28.3971  -32.6817   25.0407 H   0  0  0  0  0  0
  -28.0633  -31.8586   26.5567 H   0  0  0  0  0  0
  -28.2521  -38.0087   24.7511 H   0  0  0  0  0  0
  -28.1120  -36.2607   24.6284 H   0  0  0  0  0  0
  -27.2274  -37.1355   25.8861 H   0  0  0  0  0  0
  -20.9705  -29.8791   21.6608 H   0  0  0  0  0  0
  -26.0089  -38.2679   24.1427 H   0  0  0  0  0  0
  -29.9737  -21.5798   18.1061 H   0  0  0  0  0  0
  -29.3825  -23.2159   18.0656 H   0  0  0  0  0  0
  -28.2466  -21.8734   17.9655 H   0  0  0  0  0  0
  -32.4808  -18.9141   22.4754 H   0  0  0  0  0  0
  -31.7178  -17.4089   22.0679 H   0  0  0  0  0  0
  -30.7448  -18.7471   22.6569 H   0  0  0  0  0  0
  -32.6916  -19.0705   18.7860 H   0  0  0  0  0  0
  -32.3515  -17.4439   19.2829 H   0  0  0  0  0  0
  -33.4700  -18.4071   20.1971 H   0  0  0  0  0  0
  -32.8015  -20.6708   20.8000 H   0  0  0  0  0  0
  -31.2281  -21.0387   21.4239 H   0  0  0  0  0  0
  -31.5271  -21.0047   19.6685 H   0  0  0  0  0  0
  -29.6011  -16.1118   16.2627 H   0  0  0  0  0  0
  -30.0691  -17.7319   15.7483 H   0  0  0  0  0  0
  -28.4769  -17.4510   16.4772 H   0  0  0  0  0  0
  -27.9011  -20.0450   20.1933 H   0  0  0  0  0  0
  -28.9321  -20.3424   21.5121 H   0  0  0  0  0  0
  -30.3187  -19.4928   18.0396 H   0  0  0  0  0  0
  -28.7068  -18.8824   18.2811 H   0  0  0  0  0  0
  -27.6390  -23.7111   21.2699 H   0  0  0  0  0  0
  -27.1693  -23.7126   19.6244 H   0  0  0  0  0  0
  -29.9671  -22.5072   20.3778 H   0  0  0  0  0  0
  -28.7413  -16.7689   20.7492 H   0  0  0  0  0  0
  -31.1164  -17.3309   17.7994 H   0  0  0  0  0  0
  -29.7807  -16.7000   18.4672 H   0  0  0  0  0  0
  1 25  1  0  0  0
  1 30  2  0  0  0
  1 82  1  0  0  0
  2  3  1  0  0  0
  2 25  1  0  0  0
  2 84  1  0  0  0
  2 85  1  0  0  0
  3  4  1  0  0  0
  3 86  1  0  0  0
  3 87  1  0  0  0
  4  5  1  0  0  0
  4 88  1  0  0  0
  4 89  1  0  0  0
  5  6  1  0  0  0
  5 26  1  0  0  0
  5 90  1  0  0  0
  6 25  1  0  0  0
  6 91  1  0  0  0
  6 92  1  0  0  0
  7  8  2  0  0  0
  7 26  1  0  0  0
  7 29  1  0  0  0
  8  9  1  0  0  0
  8 22  1  0  0  0
  9 10  1  0  0  0
  9 27  2  0  0  0
 10 11  2  0  0  0
 10 15  1  0  0  0
 11 12  1  0  0  0
 11 93  1  0  0  0
 12 13  2  0  0  0
 12 94  1  0  0  0
 13 14  1  0  0  0
 13 31  1  0  0  0
 14 15  2  0  0  0
 14 95  1  0  0  0
 15 96  1  0  0  0
 16 17  2  0  0  0
 16 21  1  0  0  0
 16 31  1  0  0  0
 17 18  1  0  0  0
 17 97  1  0  0  0
 18 19  2  0  0  0
 18 98  1  0  0  0
 19 20  1  0  0  0
 19 24  1  0  0  0
 20 21  2  0  0  0
 20 99  1  0  0  0
 21 23  1  0  0  0
 22 28  1  0  0  0
 22 32  2  0  0  0
 26 27  1  0  0  0
 28100  1  0  0  0
 28101  1  0  0  0
 29102  1  0  0  0
 29103  1  0  0  0
 33 34  1  0  0  0
 33 66  1  0  0  0
 33 70  2  0  0  0
 34 36  1  0  0  0
 34 59  1  0  0  0
 34104  1  0  0  0
 35 44  2  0  0  0
 35 45  1  0  0  0
 35 68  1  0  0  0
 36 56  1  0  0  0
 36105  1  0  0  0
 37 39  1  0  0  0
 37 47  1  0  0  0
 37 66  1  0  0  0
 37106  1  0  0  0
 38 43  2  0  0  0
 38 46  1  0  0  0
 38 47  1  0  0  0
 39 64  1  0  0  0
 39 67  2  0  0  0
 40 52  1  0  0  0
 40 53  2  0  0  0
 40 58  1  0  0  0
 41107  1  0  0  0
 41108  1  0  0  0
 41109  1  0  0  0
 41 48  1  0  0  0
 42 43  1  0  0  0
 42 66  1  0  0  0
 42110  1  0  0  0
 42111  1  0  0  0
 43 44  1  0  0  0
 44112  1  0  0  0
 45 46  2  0  0  0
 45113  1  0  0  0
 46114  1  0  0  0
 47115  1  0  0  0
 47116  1  0  0  0
 48 56  1  0  0  0
 48 65  1  0  0  0
 48117  1  0  0  0
 49 50  1  0  0  0
 49 53  1  0  0  0
 49 64  1  0  0  0
 49118  1  0  0  0
 50 51  1  0  0  0
 50119  1  0  0  0
 50120  1  0  0  0
 51 52  1  0  0  0
 51121  1  0  0  0
 51122  1  0  0  0
 52123  1  0  0  0
 52124  1  0  0  0
 53 54  1  0  0  0
 54 55  2  0  0  0
 54125  1  0  0  0
 55 57  1  0  0  0
 55126  1  0  0  0
 56 69  2  0  0  0
 57 58  2  0  0  0
 57127  1  0  0  0
 58128  1  0  0  0
 59 60  1  0  0  0
 59 61  1  0  0  0
 59 62  1  0  0  0
 60129  1  0  0  0
 60130  1  0  0  0
 60131  1  0  0  0
 61132  1  0  0  0
 61133  1  0  0  0
 61134  1  0  0  0
 62135  1  0  0  0
 62136  1  0  0  0
 62137  1  0  0  0
 63 65  1  0  0  0
 63138  1  0  0  0
 63139  1  0  0  0
 63140  1  0  0  0
 64141  1  0  0  0
 65142  1  0  0  0
 68 78  1  0  0  0
 71143  1  0  0  0
 71144  1  0  0  0
 71145  1  0  0  0
 71 79  1  0  0  0
 72146  1  0  0  0
 72147  1  0  0  0
 72148  1  0  0  0
 72 80  1  0  0  0
 73 80  1  0  0  0
 73149  1  0  0  0
 73150  1  0  0  0
 73151  1  0  0  0
 74 80  1  0  0  0
 74152  1  0  0  0
 74153  1  0  0  0
 74154  1  0  0  0
 75 83  1  0  0  0
 75155  1  0  0  0
 75156  1  0  0  0
 75157  1  0  0  0
 76 79  1  0  0  0
 76158  1  0  0  0
 76159  1  0  0  0
 76 81  1  0  0  0
 77 81  1  0  0  0
 77 83  1  0  0  0
 77160  1  0  0  0
 77161  1  0  0  0
 78 79  1  0  0  0
 78162  1  0  0  0
 78163  1  0  0  0
 79164  1  0  0  0
 80 81  1  0  0  0
 81 82  1  0  0  0
 82165  1  0  0  0
 83166  1  0  0  0
 83167  1  0  0  0
M  CHG  1  83   1
M  ISO  4   1 100  68 101  78 101  82 100
M  END
> <chiral flag>
0

> <version>
0

> <s_m_source_file>
/data/baiqing/PycharmProjects/Reinvent-master-3.2/result/LINK_invent/BTK/process_docking_weight1_custom_sum_contain_oxygen_bond_distance_aromatic_linkinvent_7_9_3/rearranged_h_0108.sdf

> <i_m_source_file_index>
42

> <r_mmod_Potential_Energy-OPLS-2005>
2204.26782226562

> <r_mmod_Stretch_Energy-OPLS-2005>
1172.49084472656

> <r_mmod_Bend_Energy-OPLS-2005>
654.286682128906

> <r_mmod_Torsional_Energy-OPLS-2005>
299.172332763672

> <r_mmod_Improper_Torsional_Energy-OPLS-2005>
4.9965500831604

> <r_mmod_Van_der_Waal_Energy-OPLS-2005>
138.612564086914

> <r_mmod_Electrostatic_Energy-OPLS-2005>
-371.100280761719

> <r_mmod_Solvation_Energy-OPLS-2005>
-443.884796142578

> <b_mmod_Minimization_Converged-OPLS-2005>
0

> <r_mmod_RMS_Derivative-OPLS-2005>
5.04724884033203

$$$$
42
                    3D
 Structure written by MMmdl.
168176  0  0  1  0            999 V2000
  -30.6270  -14.8007   20.4538 C   0  0  0  0  0  0
  -30.4255  -12.4884   19.4816 C   0  0  0  0  0  0
  -29.5060  -12.5196   18.2408 C   0  0  0  0  0  0
  -28.0336  -12.3391   18.6476 C   0  0  0  0  0  0
  -27.6399  -13.2411   19.8435 C   0  0  2  0  0  0
  -28.6860  -13.2105   20.9827 C   0  0  0  0  0  0
  -25.2508  -13.8244   20.5681 C   0  0  0  0  0  0
  -24.1802  -13.0456   20.9207 C   0  0  0  0  0  0
  -24.6389  -11.6932   20.8710 C   0  0  0  0  0  0
  -23.9057  -10.4293   21.0349 C   0  0  0  0  0  0
  -24.3628   -9.4222   21.9117 C   0  0  0  0  0  0
  -23.6333   -8.2252   22.0709 C   0  0  0  0  0  0
  -22.4298   -8.0283   21.3519 C   0  0  0  0  0  0
  -21.9919   -9.0225   20.4601 C   0  0  0  0  0  0
  -22.7232  -10.2113   20.3001 C   0  0  0  0  0  0
  -21.6888   -6.0714   22.5247 C   0  0  0  0  0  0
  -21.4001   -6.5612   23.8171 C   0  0  0  0  0  0
  -21.3686   -5.6776   24.9138 C   0  0  0  0  0  0
  -21.6069   -4.3046   24.7199 C   0  0  0  0  0  0
  -21.8840   -3.8119   23.4317 C   0  0  0  0  0  0
  -21.9192   -4.6937   22.3368 C   0  0  0  0  0  0
  -22.7811  -13.5186   21.1885 C   0  0  0  0  0  0
  -22.1679   -4.2106   21.0955 F   0  0  0  0  0  0
  -21.5642   -3.4537   25.7718 F   0  0  0  0  0  0
  -29.9883  -13.5700   20.4046 N   0  0  0  0  0  0
  -26.2924  -12.9451   20.3246 N   0  0  0  0  0  0
  -25.9323  -11.6581   20.5725 N   0  0  0  0  0  0
  -22.0510  -12.8125   22.0448 N   0  0  0  0  0  0
  -25.4252  -15.1970   20.4070 N   0  0  0  0  0  0
  -31.8034  -14.8812   20.0946 O   0  0  0  0  0  0
  -21.6685   -6.8872   21.4216 O   0  0  0  0  0  0
  -22.3421  -14.5451   20.6721 O   0  0  0  0  0  0
  -24.6425  -31.8562   23.2049 C   0  0  0  0  0  0
  -25.9220  -32.4775   23.8359 C   0  0  1  0  0  0
  -27.1868  -27.1520   20.1163 C   0  0  0  0  0  0
  -25.6020  -33.8584   24.2261 N   0  0  0  0  0  0
  -23.4392  -30.4868   21.5547 C   0  0  2  0  0  0
  -24.8816  -28.9427   20.1236 C   0  0  0  0  0  0
  -22.7527  -29.4625   22.4921 C   0  0  0  0  0  0
  -18.0309  -28.1408   22.8478 C   0  0  0  0  0  0
  -24.1486  -36.7253   23.2631 C   0  0  0  0  0  0
  -26.0036  -30.7210   21.4202 C   0  0  0  0  0  0
  -26.0631  -29.3359   20.7646 C   0  0  0  0  0  0
  -27.2083  -28.4471   20.7779 C   0  0  0  0  0  0
  -26.0174  -26.9651   19.3459 C   0  0  0  0  0  0
  -24.8708  -27.7572   19.4008 C   0  0  0  0  0  0
  -23.6649  -29.8419   20.1674 C   0  0  0  0  0  0
  -25.4118  -36.3076   24.0314 C   0  0  1  0  0  0
  -20.5913  -28.3706   23.1261 C   0  0  2  0  0  0
  -20.6792  -26.9426   22.5403 C   0  0  0  0  0  0
  -19.5766  -26.6398   21.5214 C   0  0  0  0  0  0
  -18.1944  -26.7942   22.1613 C   0  0  0  0  0  0
  -19.1566  -28.8875   23.2877 C   0  0  0  0  0  0
  -18.9484  -30.1477   23.8903 C   0  0  0  0  0  0
  -17.6484  -30.6620   24.0552 C   0  0  0  0  0  0
  -25.9085  -34.9451   23.5068 C   0  0  0  0  0  0
  -16.5374  -29.9103   23.6362 C   0  0  0  0  0  0
  -16.7289  -28.6526   23.0366 C   0  0  0  0  0  0
  -26.4531  -31.6627   25.0774 C   0  0  0  0  0  0
  -25.3693  -31.3825   26.1441 C   0  0  0  0  0  0
  -27.0391  -30.3028   24.6364 C   0  0  0  0  0  0
  -27.6090  -32.4349   25.7553 C   0  0  0  0  0  0
  -27.5571  -37.1805   24.8468 C   0  0  0  0  0  0
  -21.4229  -29.3065   22.3660 N   0  0  0  0  0  0
  -26.4277  -37.3792   23.9424 N   0  0  0  0  0  0
  -24.7141  -31.0409   22.1125 N   0  0  0  0  0  0
  -23.4205  -28.8130   23.3003 O   0  0  0  0  0  0
  -28.1979  -26.1082   20.1639 O   0  0  0  0  0  0
  -26.5624  -34.8937   22.4625 O   0  0  0  0  0  0
  -23.5544  -32.1444   23.7265 O   0  0  0  0  0  0
  -28.4989  -22.4945   21.8961 C   0  0  0  0  0  0
  -30.0134  -22.6000   19.9309 C   0  0  0  0  0  0
  -28.4631  -20.8897   21.8189 C   0  0  0  0  0  0
  -30.4583  -21.1222   20.4322 C   0  0  0  0  0  0
  -28.6767  -23.1955   20.5240 C   0  0  1  0  0  0
  -26.0252  -21.9094   18.6375 C   0  0  0  0  0  0
  -26.6659  -23.0093   16.4801 C   0  0  0  0  0  0
  -27.1930  -24.2471   18.6243 C   0  0  0  0  0  0
  -30.1303  -17.4458   20.2880 C   0  0  0  0  0  0
  -29.6247  -18.6808   21.2536 C   0  0  0  0  0  0
  -27.8521  -24.5773   20.0288 C   0  0  2  0  0  0
  -27.0673  -22.8402   17.9525 C   0  0  0  0  0  0
  -29.8843  -15.9610   20.6917 N   0  0  0  0  0  0
  -29.3462  -20.1704   20.8128 N   0  3  1  0  0  0
  -31.4636  -12.6066   19.1670 H   0  0  0  0  0  0
  -30.3690  -11.5149   19.9732 H   0  0  0  0  0  0
  -29.7879  -11.7373   17.5355 H   0  0  0  0  0  0
  -29.6258  -13.4685   17.7144 H   0  0  0  0  0  0
  -27.8947  -11.2901   18.9121 H   0  0  0  0  0  0
  -27.3752  -12.5272   17.7961 H   0  0  0  0  0  0
  -27.6254  -14.2583   19.4535 H   0  0  0  0  0  0
  -28.7288  -12.2242   21.4480 H   0  0  0  0  0  0
  -28.4090  -13.9151   21.7688 H   0  0  0  0  0  0
  -25.2793   -9.5681   22.4669 H   0  0  0  0  0  0
  -24.0044   -7.4625   22.7411 H   0  0  0  0  0  0
  -21.0870   -8.8707   19.8899 H   0  0  0  0  0  0
  -22.3687  -10.9622   19.6089 H   0  0  0  0  0  0
  -21.1989   -7.6115   23.9636 H   0  0  0  0  0  0
  -21.1509   -6.0523   25.9042 H   0  0  0  0  0  0
  -22.0601   -2.7578   23.2829 H   0  0  0  0  0  0
  -22.4259  -11.9853   22.4856 H   0  0  0  0  0  0
  -21.1041  -13.0947   22.2591 H   0  0  0  0  0  0
  -24.6659  -15.8640   20.5066 H   0  0  0  0  0  0
  -26.2749  -15.6166   20.0514 H   0  0  0  0  0  0
  -26.7268  -32.5384   23.1066 H   0  0  0  0  0  0
  -25.0262  -33.9716   25.0464 H   0  0  0  0  0  0
  -22.7419  -31.3163   21.4136 H   0  0  0  0  0  0
  -23.3789  -35.9556   23.3308 H   0  0  0  0  0  0
  -24.3559  -36.8858   22.2048 H   0  0  0  0  0  0
  -23.7190  -37.6436   23.6638 H   0  0  0  0  0  0
  -26.1664  -31.4757   20.6493 H   0  0  0  0  0  0
  -26.8724  -30.7650   22.0627 H   0  0  0  0  0  0
  -28.0879  -28.7329   21.3384 H   0  0  0  0  0  0
  -25.9361  -26.2661   18.5553 H   0  0  0  0  0  0
  -24.0127  -27.4964   18.7970 H   0  0  0  0  0  0
  -23.8074  -30.6281   19.4259 H   0  0  0  0  0  0
  -22.7797  -29.2930   19.8429 H   0  0  0  0  0  0
  -25.1314  -36.1919   25.0809 H   0  0  0  0  0  0
  -20.9996  -28.3285   24.1379 H   0  0  0  0  0  0
  -20.5691  -26.2324   23.3608 H   0  0  0  0  0  0
  -21.6658  -26.7455   22.1205 H   0  0  0  0  0  0
  -19.6916  -25.6311   21.1263 H   0  0  0  0  0  0
  -19.6708  -27.3186   20.6740 H   0  0  0  0  0  0
  -17.4209  -26.6708   21.4021 H   0  0  0  0  0  0
  -18.0337  -26.0091   22.9021 H   0  0  0  0  0  0
  -19.7976  -30.7295   24.2244 H   0  0  0  0  0  0
  -17.5059  -31.6287   24.5163 H   0  0  0  0  0  0
  -15.5382  -30.2999   23.7711 H   0  0  0  0  0  0
  -15.8680  -28.0851   22.7062 H   0  0  0  0  0  0
  -24.5926  -30.7104   25.7763 H   0  0  0  0  0  0
  -24.8791  -32.3003   26.4734 H   0  0  0  0  0  0
  -25.7950  -30.9115   27.0309 H   0  0  0  0  0  0
  -26.3019  -29.6776   24.1311 H   0  0  0  0  0  0
  -27.3945  -29.7320   25.4957 H   0  0  0  0  0  0
  -27.8968  -30.4296   23.9743 H   0  0  0  0  0  0
  -27.2753  -33.3705   26.2070 H   0  0  0  0  0  0
  -28.3956  -32.6809   25.0396 H   0  0  0  0  0  0
  -28.0686  -31.8475   26.5522 H   0  0  0  0  0  0
  -28.2621  -38.0080   24.7547 H   0  0  0  0  0  0
  -28.1041  -36.2626   24.6271 H   0  0  0  0  0  0
  -27.2292  -37.1421   25.8868 H   0  0  0  0  0  0
  -20.9412  -29.8835   21.6903 H   0  0  0  0  0  0
  -26.0158  -38.2871   24.1436 H   0  0  0  0  0  0
  -29.3127  -22.7995   22.5534 H   0  0  0  0  0  0
  -27.5845  -22.8398   22.3815 H   0  0  0  0  0  0
  -30.8229  -23.2909   20.1656 H   0  0  0  0  0  0
  -29.9669  -22.5987   18.8421 H   0  0  0  0  0  0
  -27.4373  -20.5539   21.6454 H   0  0  0  0  0  0
  -28.7267  -20.5248   22.8130 H   0  0  0  0  0  0
  -31.1084  -21.2403   21.3007 H   0  0  0  0  0  0
  -31.0871  -20.6531   19.6744 H   0  0  0  0  0  0
  -28.0028  -22.4923   20.0908 H   0  0  0  0  0  0
  -25.5963  -21.1963   17.9334 H   0  0  0  0  0  0
  -25.1895  -22.4628   19.0725 H   0  0  0  0  0  0
  -26.4474  -21.2983   19.4333 H   0  0  0  0  0  0
  -27.3716  -23.6494   15.9499 H   0  0  0  0  0  0
  -25.6711  -23.4501   16.3833 H   0  0  0  0  0  0
  -26.6561  -22.0474   15.9657 H   0  0  0  0  0  0
  -27.5907  -24.9516   17.8934 H   0  0  0  0  0  0
  -26.1329  -24.4176   18.7472 H   0  0  0  0  0  0
  -31.2011  -17.5683   20.1114 H   0  0  0  0  0  0
  -29.6754  -17.5675   19.3032 H   0  0  0  0  0  0
  -30.2926  -18.7232   22.1135 H   0  0  0  0  0  0
  -28.6739  -18.3341   21.6565 H   0  0  0  0  0  0
  -27.0019  -24.5352   20.7118 H   0  0  0  0  0  0
  -28.0355  -22.3443   17.9203 H   0  0  0  0  0  0
  -28.9413  -15.7634   20.9885 H   0  0  0  0  0  0
  -28.7947  -20.0898   19.9720 H   0  0  0  0  0  0
  1 25  1  0  0  0
  1 30  2  0  0  0
  1 83  1  0  0  0
  2  3  1  0  0  0
  2 25  1  0  0  0
  2 85  1  0  0  0
  2 86  1  0  0  0
  3  4  1  0  0  0
  3 87  1  0  0  0
  3 88  1  0  0  0
  4  5  1  0  0  0
  4 89  1  0  0  0
  4 90  1  0  0  0
  5  6  1  0  0  0
  5 26  1  0  0  0
  5 91  1  0  0  0
  6 25  1  0  0  0
  6 92  1  0  0  0
  6 93  1  0  0  0
  7  8  2  0  0  0
  7 26  1  0  0  0
  7 29  1  0  0  0
  8  9  1  0  0  0
  8 22  1  0  0  0
  9 10  1  0  0  0
  9 27  2  0  0  0
 10 11  2  0  0  0
 10 15  1  0  0  0
 11 12  1  0  0  0
 11 94  1  0  0  0
 12 13  2  0  0  0
 12 95  1  0  0  0
 13 14  1  0  0  0
 13 31  1  0  0  0
 14 15  2  0  0  0
 14 96  1  0  0  0
 15 97  1  0  0  0
 16 17  2  0  0  0
 16 21  1  0  0  0
 16 31  1  0  0  0
 17 18  1  0  0  0
 17 98  1  0  0  0
 18 19  2  0  0  0
 18 99  1  0  0  0
 19 20  1  0  0  0
 19 24  1  0  0  0
 20 21  2  0  0  0
 20100  1  0  0  0
 21 23  1  0  0  0
 22 28  1  0  0  0
 22 32  2  0  0  0
 26 27  1  0  0  0
 28101  1  0  0  0
 28102  1  0  0  0
 29103  1  0  0  0
 29104  1  0  0  0
 33 34  1  0  0  0
 33 66  1  0  0  0
 33 70  2  0  0  0
 34 36  1  0  0  0
 34 59  1  0  0  0
 34105  1  0  0  0
 35 44  2  0  0  0
 35 45  1  0  0  0
 35 68  1  0  0  0
 36 56  1  0  0  0
 36106  1  0  0  0
 37 39  1  0  0  0
 37 47  1  0  0  0
 37 66  1  0  0  0
 37107  1  0  0  0
 38 43  2  0  0  0
 38 46  1  0  0  0
 38 47  1  0  0  0
 39 64  1  0  0  0
 39 67  2  0  0  0
 40 52  1  0  0  0
 40 53  2  0  0  0
 40 58  1  0  0  0
 41108  1  0  0  0
 41109  1  0  0  0
 41110  1  0  0  0
 41 48  1  0  0  0
 42 43  1  0  0  0
 42 66  1  0  0  0
 42111  1  0  0  0
 42112  1  0  0  0
 43 44  1  0  0  0
 44113  1  0  0  0
 45 46  2  0  0  0
 45114  1  0  0  0
 46115  1  0  0  0
 47116  1  0  0  0
 47117  1  0  0  0
 48 56  1  0  0  0
 48 65  1  0  0  0
 48118  1  0  0  0
 49 50  1  0  0  0
 49 53  1  0  0  0
 49 64  1  0  0  0
 49119  1  0  0  0
 50 51  1  0  0  0
 50120  1  0  0  0
 50121  1  0  0  0
 51 52  1  0  0  0
 51122  1  0  0  0
 51123  1  0  0  0
 52124  1  0  0  0
 52125  1  0  0  0
 53 54  1  0  0  0
 54 55  2  0  0  0
 54126  1  0  0  0
 55 57  1  0  0  0
 55127  1  0  0  0
 56 69  2  0  0  0
 57 58  2  0  0  0
 57128  1  0  0  0
 58129  1  0  0  0
 59 60  1  0  0  0
 59 61  1  0  0  0
 59 62  1  0  0  0
 60130  1  0  0  0
 60131  1  0  0  0
 60132  1  0  0  0
 61133  1  0  0  0
 61134  1  0  0  0
 61135  1  0  0  0
 62136  1  0  0  0
 62137  1  0  0  0
 62138  1  0  0  0
 63 65  1  0  0  0
 63139  1  0  0  0
 63140  1  0  0  0
 63141  1  0  0  0
 64142  1  0  0  0
 65143  1  0  0  0
 68 81  1  0  0  0
 71 73  1  0  0  0
 71144  1  0  0  0
 71145  1  0  0  0
 71 75  1  0  0  0
 72 74  1  0  0  0
 72 75  1  0  0  0
 72146  1  0  0  0
 72147  1  0  0  0
 73 84  1  0  0  0
 73148  1  0  0  0
 73149  1  0  0  0
 74 84  1  0  0  0
 74150  1  0  0  0
 74151  1  0  0  0
 75 81  1  0  0  0
 75152  1  0  0  0
 76153  1  0  0  0
 76154  1  0  0  0
 76155  1  0  0  0
 76 82  1  0  0  0
 77 82  1  0  0  0
 77156  1  0  0  0
 77157  1  0  0  0
 77158  1  0  0  0
 78 82  1  0  0  0
 78159  1  0  0  0
 78160  1  0  0  0
 78 81  1  0  0  0
 79 80  1  0  0  0
 79 83  1  0  0  0
 79161  1  0  0  0
 79162  1  0  0  0
 80163  1  0  0  0
 80164  1  0  0  0
 80 84  1  0  0  0
 81165  1  0  0  0
 82166  1  0  0  0
 83167  1  0  0  0
 84168  1  0  0  0
M  CHG  1  84   1
M  ISO  4   1 100  68 101  81 101  83 100
M  END
> <chiral flag>
0

> <version>
0

> <s_m_source_file>
/data/baiqing/PycharmProjects/Reinvent-master-3.2/result/LINK_invent/BTK/process_docking_weight1_custom_sum_contain_oxygen_bond_distance_aromatic_linkinvent_7_9_3/rearranged_h_0108.sdf

> <i_m_source_file_index>
43

> <r_mmod_Potential_Energy-OPLS-2005>
494.912994384766

> <r_mmod_Stretch_Energy-OPLS-2005>
217.884552001953

> <r_mmod_Bend_Energy-OPLS-2005>
353.217529296875

> <r_mmod_Torsional_Energy-OPLS-2005>
317.600921630859

> <r_mmod_Improper_Torsional_Energy-OPLS-2005>
5.7388653755188

> <r_mmod_Van_der_Waal_Energy-OPLS-2005>
165.230392456055

> <r_mmod_Electrostatic_Energy-OPLS-2005>
-252.408065795898

> <r_mmod_Solvation_Energy-OPLS-2005>
-460.760437011719

> <b_mmod_Minimization_Converged-OPLS-2005>
0

> <r_mmod_RMS_Derivative-OPLS-2005>
4.63924837112427

$$$$
43
                    3D
 Structure written by MMmdl.
169177  0  0  1  0            999 V2000
  -30.6148  -14.9372   20.3796 C   0  0  0  0  0  0
  -30.4245  -12.5941   19.4509 C   0  0  0  0  0  0
  -29.4989  -12.4966   18.2211 C   0  0  0  0  0  0
  -28.0366  -12.2980   18.6608 C   0  0  0  0  0  0
  -27.6171  -13.2552   19.8078 C   0  0  2  0  0  0
  -28.6747  -13.3364   20.9253 C   0  0  0  0  0  0
  -25.2462  -13.8267   20.5718 C   0  0  0  0  0  0
  -24.1782  -13.0481   20.9240 C   0  0  0  0  0  0
  -24.6392  -11.6962   20.8776 C   0  0  0  0  0  0
  -23.9083  -10.4323   21.0405 C   0  0  0  0  0  0
  -24.3641   -9.4235   21.9178 C   0  0  0  0  0  0
  -23.6313   -8.2267   22.0740 C   0  0  0  0  0  0
  -22.4287   -8.0314   21.3541 C   0  0  0  0  0  0
  -21.9930   -9.0284   20.4635 C   0  0  0  0  0  0
  -22.7260  -10.2158   20.3048 C   0  0  0  0  0  0
  -21.6877   -6.0746   22.5267 C   0  0  0  0  0  0
  -21.4033   -6.5640   23.8208 C   0  0  0  0  0  0
  -21.3664   -5.6785   24.9166 C   0  0  0  0  0  0
  -21.6053   -4.3050   24.7212 C   0  0  0  0  0  0
  -21.8828   -3.8146   23.4332 C   0  0  0  0  0  0
  -21.9207   -4.6970   22.3388 C   0  0  0  0  0  0
  -22.7794  -13.5221   21.1893 C   0  0  0  0  0  0
  -22.1670   -4.2158   21.0962 F   0  0  0  0  0  0
  -21.5627   -3.4527   25.7720 F   0  0  0  0  0  0
  -29.9262  -13.7341   20.2690 N   0  0  0  0  0  0
  -26.2851  -12.9496   20.3175 N   0  0  0  0  0  0
  -25.9319  -11.6618   20.5715 N   0  0  0  0  0  0
  -22.0458  -12.8180   22.0443 N   0  0  0  0  0  0
  -25.4172  -15.1993   20.4180 N   0  0  0  0  0  0
  -31.8453  -14.8265   20.3806 O   0  0  0  0  0  0
  -21.6664   -6.8898   21.4234 O   0  0  0  0  0  0
  -22.3452  -14.5507   20.6723 O   0  0  0  0  0  0
  -24.6407  -31.8444   23.1890 C   0  0  0  0  0  0
  -25.9190  -32.4694   23.8271 C   0  0  1  0  0  0
  -27.2146  -27.1585   20.1645 C   0  0  0  0  0  0
  -25.5957  -33.8498   24.2193 N   0  0  0  0  0  0
  -23.4426  -30.4634   21.5325 C   0  0  2  0  0  0
  -24.8903  -28.8832   20.1194 C   0  0  0  0  0  0
  -22.7543  -29.4549   22.4859 C   0  0  0  0  0  0
  -18.0298  -28.1381   22.8468 C   0  0  0  0  0  0
  -24.1495  -36.7263   23.2645 C   0  0  0  0  0  0
  -25.9951  -30.7259   21.3825 C   0  0  0  0  0  0
  -26.0664  -29.3370   20.7291 C   0  0  0  0  0  0
  -27.2351  -28.4929   20.7253 C   0  0  0  0  0  0
  -26.0108  -26.7821   19.5382 C   0  0  0  0  0  0
  -24.8705  -27.6179   19.5110 C   0  0  0  0  0  0
  -23.6680  -29.7863   20.1535 C   0  0  0  0  0  0
  -25.4126  -36.3025   24.0309 C   0  0  1  0  0  0
  -20.5906  -28.3710   23.1240 C   0  0  2  0  0  0
  -20.6780  -26.9418   22.5396 C   0  0  0  0  0  0
  -19.5761  -26.6371   21.5202 C   0  0  0  0  0  0
  -18.1943  -26.7915   22.1607 C   0  0  0  0  0  0
  -19.1548  -28.8859   23.2846 C   0  0  0  0  0  0
  -18.9472  -30.1455   23.8877 C   0  0  0  0  0  0
  -17.6467  -30.6583   24.0552 C   0  0  0  0  0  0
  -25.9065  -34.9405   23.5052 C   0  0  0  0  0  0
  -16.5364  -29.9071   23.6334 C   0  0  0  0  0  0
  -16.7281  -28.6492   23.0367 C   0  0  0  0  0  0
  -26.4532  -31.6566   25.0712 C   0  0  0  0  0  0
  -25.3746  -31.3736   26.1432 C   0  0  0  0  0  0
  -27.0404  -30.2968   24.6294 C   0  0  0  0  0  0
  -27.6042  -32.4353   25.7501 C   0  0  0  0  0  0
  -27.5577  -37.1784   24.8457 C   0  0  0  0  0  0
  -21.4235  -29.3043   22.3612 N   0  0  0  0  0  0
  -26.4284  -37.3740   23.9399 N   0  0  0  0  0  0
  -24.7117  -31.0319   22.0904 N   0  0  0  0  0  0
  -23.4189  -28.8090   23.3012 O   0  0  0  0  0  0
  -28.3030  -26.2289   20.1274 O   0  0  0  0  0  0
  -26.5643  -34.8896   22.4625 O   0  0  0  0  0  0
  -23.5531  -32.1302   23.7136 O   0  0  0  0  0  0
  -29.9115  -16.6724   17.3707 C   0  0  0  0  0  0
  -31.5738  -17.9380   18.9003 C   0  0  0  0  0  0
  -30.6554  -19.1509   19.1067 C   0  0  0  0  0  0
  -29.2640  -17.3678   20.4604 C   0  0  0  0  0  0
  -30.8045  -16.6162   18.6249 C   0  0  1  0  0  0
  -29.7208  -18.9912   20.3117 C   0  0  2  0  0  0
  -31.0118  -17.2219   13.8887 C   0  0  0  0  0  0
  -29.1999  -18.7080   14.8632 C   0  0  0  0  0  0
  -28.6796  -20.3159   20.2930 C   0  0  0  0  0  0
  -29.1049  -21.9283   20.5268 C   0  0  0  0  0  0
  -28.2928  -23.2985   19.9752 C   0  0  0  0  0  0
  -28.2582  -24.8034   20.7211 C   0  0  0  0  0  0
  -29.9086  -17.3465   14.9497 C   0  0  0  0  0  0
  -30.0903  -16.1661   19.8554 N   0  0  0  0  0  0
  -30.4998  -17.1662   16.2695 N   0  0  0  0  0  0
  -28.7476  -16.2645   17.3881 O   0  0  0  0  0  0
  -31.4551  -12.7396   19.1192 H   0  0  0  0  0  0
  -30.4206  -11.6660   20.0243 H   0  0  0  0  0  0
  -29.8041  -11.6702   17.5778 H   0  0  0  0  0  0
  -29.5856  -13.4049   17.6221 H   0  0  0  0  0  0
  -27.9380  -11.2642   18.9935 H   0  0  0  0  0  0
  -27.3649  -12.4084   17.8087 H   0  0  0  0  0  0
  -27.5622  -14.2428   19.3497 H   0  0  0  0  0  0
  -28.7782  -12.3850   21.4475 H   0  0  0  0  0  0
  -28.3854  -14.0822   21.6689 H   0  0  0  0  0  0
  -25.2808   -9.5710   22.4734 H   0  0  0  0  0  0
  -24.0054   -7.4653   22.7436 H   0  0  0  0  0  0
  -21.0870   -8.8789   19.8927 H   0  0  0  0  0  0
  -22.3730  -10.9691   19.6144 H   0  0  0  0  0  0
  -21.2026   -7.6149   23.9702 H   0  0  0  0  0  0
  -21.1475   -6.0510   25.9063 H   0  0  0  0  0  0
  -22.0601   -2.7605   23.2812 H   0  0  0  0  0  0
  -22.4119  -11.9860   22.4837 H   0  0  0  0  0  0
  -21.1058  -13.1161   22.2641 H   0  0  0  0  0  0
  -24.6579  -15.8632   20.5310 H   0  0  0  0  0  0
  -26.2755  -15.6293   20.0950 H   0  0  0  0  0  0
  -26.7249  -32.5302   23.0988 H   0  0  0  0  0  0
  -25.0112  -33.9628   25.0346 H   0  0  0  0  0  0
  -22.7438  -31.2879   21.3753 H   0  0  0  0  0  0
  -23.3754  -35.9598   23.3277 H   0  0  0  0  0  0
  -24.3582  -36.8931   22.2064 H   0  0  0  0  0  0
  -23.7259  -37.6453   23.6709 H   0  0  0  0  0  0
  -26.1483  -31.4795   20.6088 H   0  0  0  0  0  0
  -26.8667  -30.7766   22.0237 H   0  0  0  0  0  0
  -28.1423  -28.8457   21.1937 H   0  0  0  0  0  0
  -25.9435  -25.8084   19.0727 H   0  0  0  0  0  0
  -23.9698  -27.2626   19.0296 H   0  0  0  0  0  0
  -23.8048  -30.5574   19.3946 H   0  0  0  0  0  0
  -22.7825  -29.2282   19.8433 H   0  0  0  0  0  0
  -25.1309  -36.1833   25.0800 H   0  0  0  0  0  0
  -21.0002  -28.3294   24.1360 H   0  0  0  0  0  0
  -20.5673  -26.2326   23.3609 H   0  0  0  0  0  0
  -21.6651  -26.7420   22.1207 H   0  0  0  0  0  0
  -19.6933  -25.6276   21.1254 H   0  0  0  0  0  0
  -19.6709  -27.3154   20.6713 H   0  0  0  0  0  0
  -17.4214  -26.6668   21.4004 H   0  0  0  0  0  0
  -18.0352  -26.0051   22.8996 H   0  0  0  0  0  0
  -19.7947  -30.7270   24.2252 H   0  0  0  0  0  0
  -17.5022  -31.6264   24.5146 H   0  0  0  0  0  0
  -15.5360  -30.2970   23.7670 H   0  0  0  0  0  0
  -15.8676  -28.0784   22.7115 H   0  0  0  0  0  0
  -24.5903  -30.7100   25.7765 H   0  0  0  0  0  0
  -24.8980  -32.2927   26.4858 H   0  0  0  0  0  0
  -25.8079  -30.8904   27.0206 H   0  0  0  0  0  0
  -26.3017  -29.6672   24.1327 H   0  0  0  0  0  0
  -27.4033  -29.7275   25.4866 H   0  0  0  0  0  0
  -27.8918  -30.4179   23.9592 H   0  0  0  0  0  0
  -27.2594  -33.3650   26.2031 H   0  0  0  0  0  0
  -28.3891  -32.6935   25.0378 H   0  0  0  0  0  0
  -28.0685  -31.8534   26.5472 H   0  0  0  0  0  0
  -28.2568  -38.0103   24.7505 H   0  0  0  0  0  0
  -28.1098  -36.2632   24.6269 H   0  0  0  0  0  0
  -27.2295  -37.1401   25.8860 H   0  0  0  0  0  0
  -20.9428  -29.8765   21.6797 H   0  0  0  0  0  0
  -26.0140  -38.2802   24.1417 H   0  0  0  0  0  0
  -32.2265  -17.8163   19.7657 H   0  0  0  0  0  0
  -32.2477  -18.1539   18.0695 H   0  0  0  0  0  0
  -30.0670  -19.3292   18.2060 H   0  0  0  0  0  0
  -31.2628  -20.0479   19.2365 H   0  0  0  0  0  0
  -28.2716  -17.2798   20.0174 H   0  0  0  0  0  0
  -29.1110  -17.1553   21.5188 H   0  0  0  0  0  0
  -31.5637  -15.8943   18.3107 H   0  0  0  0  0  0
  -30.3517  -19.1499   21.1892 H   0  0  0  0  0  0
  -30.6013  -17.3036   12.8807 H   0  0  0  0  0  0
  -31.5185  -16.2589   13.9546 H   0  0  0  0  0  0
  -31.7678  -18.0013   13.9991 H   0  0  0  0  0  0
  -28.7424  -18.8490   13.8823 H   0  0  0  0  0  0
  -29.8973  -19.5314   15.0229 H   0  0  0  0  0  0
  -28.4092  -18.7906   15.6103 H   0  0  0  0  0  0
  -27.9008  -20.1066   21.0275 H   0  0  0  0  0  0
  -28.1541  -20.2757   19.3371 H   0  0  0  0  0  0
  -30.1182  -22.0310   20.1387 H   0  0  0  0  0  0
  -29.2296  -22.0527   21.6025 H   0  0  0  0  0  0
  -27.2499  -23.0116   19.8496 H   0  0  0  0  0  0
  -28.6358  -23.4647   18.9544 H   0  0  0  0  0  0
  -29.1314  -24.8015   21.3728 H   0  0  0  0  0  0
  -27.4227  -24.7888   21.4216 H   0  0  0  0  0  0
  -29.1758  -16.5564   14.7736 H   0  0  0  0  0  0
  -31.4623  -17.4621   16.3735 H   0  0  0  0  0  0
  1 25  1  0  0  0
  1 30  2  0  0  0
  1 84  1  0  0  0
  2  3  1  0  0  0
  2 25  1  0  0  0
  2 87  1  0  0  0
  2 88  1  0  0  0
  3  4  1  0  0  0
  3 89  1  0  0  0
  3 90  1  0  0  0
  4  5  1  0  0  0
  4 91  1  0  0  0
  4 92  1  0  0  0
  5  6  1  0  0  0
  5 26  1  0  0  0
  5 93  1  0  0  0
  6 25  1  0  0  0
  6 94  1  0  0  0
  6 95  1  0  0  0
  7  8  2  0  0  0
  7 26  1  0  0  0
  7 29  1  0  0  0
  8  9  1  0  0  0
  8 22  1  0  0  0
  9 10  1  0  0  0
  9 27  2  0  0  0
 10 11  2  0  0  0
 10 15  1  0  0  0
 11 12  1  0  0  0
 11 96  1  0  0  0
 12 13  2  0  0  0
 12 97  1  0  0  0
 13 14  1  0  0  0
 13 31  1  0  0  0
 14 15  2  0  0  0
 14 98  1  0  0  0
 15 99  1  0  0  0
 16 17  2  0  0  0
 16 21  1  0  0  0
 16 31  1  0  0  0
 17 18  1  0  0  0
 17100  1  0  0  0
 18 19  2  0  0  0
 18101  1  0  0  0
 19 20  1  0  0  0
 19 24  1  0  0  0
 20 21  2  0  0  0
 20102  1  0  0  0
 21 23  1  0  0  0
 22 28  1  0  0  0
 22 32  2  0  0  0
 26 27  1  0  0  0
 28103  1  0  0  0
 28104  1  0  0  0
 29105  1  0  0  0
 29106  1  0  0  0
 33 34  1  0  0  0
 33 66  1  0  0  0
 33 70  2  0  0  0
 34 36  1  0  0  0
 34 59  1  0  0  0
 34107  1  0  0  0
 35 44  2  0  0  0
 35 45  1  0  0  0
 35 68  1  0  0  0
 36 56  1  0  0  0
 36108  1  0  0  0
 37 39  1  0  0  0
 37 47  1  0  0  0
 37 66  1  0  0  0
 37109  1  0  0  0
 38 43  2  0  0  0
 38 46  1  0  0  0
 38 47  1  0  0  0
 39 64  1  0  0  0
 39 67  2  0  0  0
 40 52  1  0  0  0
 40 53  2  0  0  0
 40 58  1  0  0  0
 41110  1  0  0  0
 41111  1  0  0  0
 41112  1  0  0  0
 41 48  1  0  0  0
 42 43  1  0  0  0
 42 66  1  0  0  0
 42113  1  0  0  0
 42114  1  0  0  0
 43 44  1  0  0  0
 44115  1  0  0  0
 45 46  2  0  0  0
 45116  1  0  0  0
 46117  1  0  0  0
 47118  1  0  0  0
 47119  1  0  0  0
 48 56  1  0  0  0
 48 65  1  0  0  0
 48120  1  0  0  0
 49 50  1  0  0  0
 49 53  1  0  0  0
 49 64  1  0  0  0
 49121  1  0  0  0
 50 51  1  0  0  0
 50122  1  0  0  0
 50123  1  0  0  0
 51 52  1  0  0  0
 51124  1  0  0  0
 51125  1  0  0  0
 52126  1  0  0  0
 52127  1  0  0  0
 53 54  1  0  0  0
 54 55  2  0  0  0
 54128  1  0  0  0
 55 57  1  0  0  0
 55129  1  0  0  0
 56 69  2  0  0  0
 57 58  2  0  0  0
 57130  1  0  0  0
 58131  1  0  0  0
 59 60  1  0  0  0
 59 61  1  0  0  0
 59 62  1  0  0  0
 60132  1  0  0  0
 60133  1  0  0  0
 60134  1  0  0  0
 61135  1  0  0  0
 61136  1  0  0  0
 61137  1  0  0  0
 62138  1  0  0  0
 62139  1  0  0  0
 62140  1  0  0  0
 63 65  1  0  0  0
 63141  1  0  0  0
 63142  1  0  0  0
 63143  1  0  0  0
 64144  1  0  0  0
 65145  1  0  0  0
 68 82  1  0  0  0
 71 85  1  0  0  0
 71 86  2  0  0  0
 71 75  1  0  0  0
 72 73  1  0  0  0
 72 75  1  0  0  0
 72146  1  0  0  0
 72147  1  0  0  0
 73 76  1  0  0  0
 73148  1  0  0  0
 73149  1  0  0  0
 74 76  1  0  0  0
 74 84  1  0  0  0
 74150  1  0  0  0
 74151  1  0  0  0
 75 84  1  0  0  0
 75152  1  0  0  0
 76 79  1  0  0  0
 76153  1  0  0  0
 77154  1  0  0  0
 77155  1  0  0  0
 77156  1  0  0  0
 77 83  1  0  0  0
 78 83  1  0  0  0
 78157  1  0  0  0
 78158  1  0  0  0
 78159  1  0  0  0
 79 80  1  0  0  0
 79160  1  0  0  0
 79161  1  0  0  0
 80 81  1  0  0  0
 80162  1  0  0  0
 80163  1  0  0  0
 81 82  1  0  0  0
 81164  1  0  0  0
 81165  1  0  0  0
 82166  1  0  0  0
 82167  1  0  0  0
 83 85  1  0  0  0
 83168  1  0  0  0
 85169  1  0  0  0
M  ISO  4   1 100  68 101  82 101  84 100
M  END
> <chiral flag>
0

> <version>
0

> <s_m_source_file>
/data/baiqing/PycharmProjects/Reinvent-master-3.2/result/LINK_invent/BTK/process_docking_weight1_custom_sum_contain_oxygen_bond_distance_aromatic_linkinvent_7_9_3/rearranged_h_0108.sdf

> <i_m_source_file_index>
44

> <r_mmod_Potential_Energy-OPLS-2005>
677.598693847656

> <r_mmod_Stretch_Energy-OPLS-2005>
265.512115478516

> <r_mmod_Bend_Energy-OPLS-2005>
301.685302734375

> <r_mmod_Torsional_Energy-OPLS-2005>
377.083770751953

> <r_mmod_Improper_Torsional_Energy-OPLS-2005>
26.4068145751953

> <r_mmod_Van_der_Waal_Energy-OPLS-2005>
113.426910400391

> <r_mmod_Electrostatic_Energy-OPLS-2005>
-395.479827880859

> <r_mmod_Solvation_Energy-OPLS-2005>
-199.74235534668

> <b_mmod_Minimization_Converged-OPLS-2005>
0

> <r_mmod_RMS_Derivative-OPLS-2005>
2.70933675765991

$$$$
44
                    3D
 Structure written by MMmdl.
160168  0  0  1  0            999 V2000
  -30.5060  -14.8583   20.4506 C   0  0  0  0  0  0
  -30.4578  -12.5237   19.4826 C   0  0  0  0  0  0
  -29.5270  -12.5305   18.2466 C   0  0  0  0  0  0
  -28.0553  -12.3267   18.6611 C   0  0  0  0  0  0
  -27.6469  -13.2277   19.8570 C   0  0  2  0  0  0
  -28.6908  -13.1586   20.9926 C   0  0  0  0  0  0
  -25.2572  -13.8181   20.5712 C   0  0  0  0  0  0
  -24.1832  -13.0424   20.9178 C   0  0  0  0  0  0
  -24.6417  -11.6898   20.8720 C   0  0  0  0  0  0
  -23.9081  -10.4283   21.0397 C   0  0  0  0  0  0
  -24.3622   -9.4203   21.9181 C   0  0  0  0  0  0
  -23.6295   -8.2247   22.0752 C   0  0  0  0  0  0
  -22.4277   -8.0284   21.3547 C   0  0  0  0  0  0
  -21.9909   -9.0258   20.4645 C   0  0  0  0  0  0
  -22.7247  -10.2131   20.3055 C   0  0  0  0  0  0
  -21.6860   -6.0733   22.5279 C   0  0  0  0  0  0
  -21.4019   -6.5639   23.8208 C   0  0  0  0  0  0
  -21.3650   -5.6795   24.9174 C   0  0  0  0  0  0
  -21.6041   -4.3059   24.7219 C   0  0  0  0  0  0
  -21.8827   -3.8141   23.4348 C   0  0  0  0  0  0
  -21.9200   -4.6960   22.3398 C   0  0  0  0  0  0
  -22.7860  -13.5206   21.1830 C   0  0  0  0  0  0
  -22.1675   -4.2149   21.0982 F   0  0  0  0  0  0
  -21.5616   -3.4531   25.7728 F   0  0  0  0  0  0
  -29.9811  -13.5750   20.4204 N   0  0  0  0  0  0
  -26.2985  -12.9368   20.3309 N   0  0  0  0  0  0
  -25.9354  -11.6515   20.5727 N   0  0  0  0  0  0
  -22.0509  -12.8215   22.0405 N   0  0  0  0  0  0
  -25.4272  -15.1912   20.4185 N   0  0  0  0  0  0
  -31.6722  -15.0336   20.0750 O   0  0  0  0  0  0
  -21.6653   -6.8876   21.4240 O   0  0  0  0  0  0
  -22.3549  -14.5523   20.6694 O   0  0  0  0  0  0
  -24.6408  -31.8492   23.1904 C   0  0  0  0  0  0
  -25.9186  -32.4716   23.8298 C   0  0  1  0  0  0
  -27.1960  -27.1514   20.1504 C   0  0  0  0  0  0
  -25.5916  -33.8516   24.2204 N   0  0  0  0  0  0
  -23.4415  -30.4713   21.5371 C   0  0  2  0  0  0
  -24.8844  -28.9059   20.1070 C   0  0  0  0  0  0
  -22.7565  -29.4579   22.4875 C   0  0  0  0  0  0
  -18.0333  -28.1363   22.8638 C   0  0  0  0  0  0
  -24.1476  -36.7268   23.2648 C   0  0  0  0  0  0
  -25.9978  -30.7248   21.3895 C   0  0  0  0  0  0
  -26.0627  -29.3403   20.7269 C   0  0  0  0  0  0
  -27.2216  -28.4799   20.7324 C   0  0  0  0  0  0
  -25.9959  -26.8196   19.4836 C   0  0  0  0  0  0
  -24.8654  -27.6598   19.4670 C   0  0  0  0  0  0
  -23.6617  -29.8081   20.1546 C   0  0  0  0  0  0
  -25.4102  -36.3042   24.0327 C   0  0  1  0  0  0
  -20.5955  -28.3782   23.1358 C   0  0  2  0  0  0
  -20.6767  -26.9444   22.5660 C   0  0  0  0  0  0
  -19.5820  -26.6548   21.5323 C   0  0  0  0  0  0
  -18.2042  -26.7859   22.1884 C   0  0  0  0  0  0
  -19.1587  -28.8907   23.2925 C   0  0  0  0  0  0
  -18.9511  -30.1562   23.8798 C   0  0  0  0  0  0
  -17.6512  -30.6690   24.0425 C   0  0  0  0  0  0
  -25.9059  -34.9421   23.5089 C   0  0  0  0  0  0
  -16.5401  -29.9106   23.6346 C   0  0  0  0  0  0
  -16.7307  -28.6462   23.0511 C   0  0  0  0  0  0
  -26.4502  -31.6579   25.0744 C   0  0  0  0  0  0
  -25.3666  -31.3809   26.1430 C   0  0  0  0  0  0
  -27.0383  -30.2962   24.6373 C   0  0  0  0  0  0
  -27.6003  -32.4377   25.7532 C   0  0  0  0  0  0
  -27.5564  -37.1787   24.8464 C   0  0  0  0  0  0
  -21.4260  -29.3063   22.3634 N   0  0  0  0  0  0
  -26.4274  -37.3740   23.9407 N   0  0  0  0  0  0
  -24.7131  -31.0365   22.0933 N   0  0  0  0  0  0
  -23.4221  -28.8141   23.3018 O   0  0  0  0  0  0
  -28.2309  -26.1555   20.2404 O   0  0  0  0  0  0
  -26.5674  -34.8910   22.4684 O   0  0  0  0  0  0
  -23.5526  -32.1346   23.7122 O   0  0  0  0  0  0
  -30.1983  -18.3065   19.8239 C   0  0  0  0  0  0
  -28.8730  -20.2710   20.3861 C   0  0  0  0  0  0
  -28.2287  -19.3793   21.3225 C   0  0  0  0  0  0
  -29.4988  -17.4011   20.6958 C   0  0  0  0  0  0
  -28.0672  -21.6992   18.3984 C   0  0  0  0  0  0
  -27.3856  -19.4991   23.7244 C   0  0  0  0  0  0
  -25.7389  -19.2185   21.8167 C   0  0  0  0  0  0
  -28.7967  -23.2770   20.3619 C   0  0  0  0  0  0
  -27.9017  -24.6564   20.0222 C   0  0  0  0  0  0
  -28.2776  -21.7465   19.9268 C   0  0  2  0  0  0
  -27.0880  -19.8199   22.2471 C   0  0  0  0  0  0
  -29.8968  -19.6683   19.6758 N   0  0  0  0  0  0
  -28.5312  -18.0292   21.4378 N   0  0  0  0  0  0
  -29.6345  -15.8985   20.8099 N   0  0  0  0  0  0
  -31.4928  -12.6907   19.1805 H   0  0  0  0  0  0
  -30.4416  -11.5449   19.9637 H   0  0  0  0  0  0
  -29.8285  -11.7556   17.5389 H   0  0  0  0  0  0
  -29.6296  -13.4787   17.7200 H   0  0  0  0  0  0
  -27.9348  -11.2761   18.9338 H   0  0  0  0  0  0
  -27.3927  -12.4986   17.8128 H   0  0  0  0  0  0
  -27.6393  -14.2483   19.4754 H   0  0  0  0  0  0
  -28.7559  -12.1473   21.3952 H   0  0  0  0  0  0
  -28.4059  -13.7933   21.8320 H   0  0  0  0  0  0
  -25.2768   -9.5686   22.4751 H   0  0  0  0  0  0
  -23.9999   -7.4643   22.7485 H   0  0  0  0  0  0
  -21.0826   -8.8779   19.8963 H   0  0  0  0  0  0
  -22.3704  -10.9670   19.6157 H   0  0  0  0  0  0
  -21.2035   -7.6146   23.9709 H   0  0  0  0  0  0
  -21.1455   -6.0525   25.9076 H   0  0  0  0  0  0
  -22.0618   -2.7605   23.2846 H   0  0  0  0  0  0
  -22.4120  -11.9852   22.4751 H   0  0  0  0  0  0
  -21.1134  -13.1256   22.2623 H   0  0  0  0  0  0
  -24.6565  -15.8398   20.5347 H   0  0  0  0  0  0
  -26.2830  -15.6454   20.1258 H   0  0  0  0  0  0
  -26.7268  -32.5321   23.1029 H   0  0  0  0  0  0
  -24.9972  -33.9636   25.0298 H   0  0  0  0  0  0
  -22.7406  -31.2972   21.3925 H   0  0  0  0  0  0
  -23.3739  -35.9603   23.3312 H   0  0  0  0  0  0
  -24.3550  -36.8894   22.2061 H   0  0  0  0  0  0
  -23.7230  -37.6459   23.6689 H   0  0  0  0  0  0
  -26.1628  -31.4810   20.6206 H   0  0  0  0  0  0
  -26.8653  -30.7653   22.0384 H   0  0  0  0  0  0
  -28.1161  -28.8057   21.2429 H   0  0  0  0  0  0
  -25.8843  -25.8663   18.9908 H   0  0  0  0  0  0
  -23.9687  -27.3255   18.9647 H   0  0  0  0  0  0
  -23.7911  -30.5869   19.4030 H   0  0  0  0  0  0
  -22.7732  -29.2522   19.8496 H   0  0  0  0  0  0
  -25.1287  -36.1882   25.0823 H   0  0  0  0  0  0
  -21.0075  -28.3541   24.1486 H   0  0  0  0  0  0
  -20.5352  -26.2466   23.3932 H   0  0  0  0  0  0
  -21.6706  -26.7230   22.1755 H   0  0  0  0  0  0
  -19.7053  -25.6557   21.1110 H   0  0  0  0  0  0
  -19.6691  -27.3601   20.7047 H   0  0  0  0  0  0
  -17.4179  -26.6371   21.4473 H   0  0  0  0  0  0
  -18.0769  -26.0069   22.9439 H   0  0  0  0  0  0
  -19.7990  -30.7422   24.2046 H   0  0  0  0  0  0
  -17.5083  -31.6458   24.4844 H   0  0  0  0  0  0
  -15.5404  -30.3019   23.7672 H   0  0  0  0  0  0
  -15.8677  -28.0714   22.7419 H   0  0  0  0  0  0
  -24.5818  -30.7189   25.7757 H   0  0  0  0  0  0
  -24.8894  -32.3024   26.4777 H   0  0  0  0  0  0
  -25.7904  -30.9012   27.0266 H   0  0  0  0  0  0
  -26.3042  -29.6671   24.1321 H   0  0  0  0  0  0
  -27.3905  -29.7257   25.4981 H   0  0  0  0  0  0
  -27.8975  -30.4168   23.9769 H   0  0  0  0  0  0
  -27.2546  -33.3680   26.2053 H   0  0  0  0  0  0
  -28.3824  -32.6953   25.0382 H   0  0  0  0  0  0
  -28.0676  -31.8571   26.5492 H   0  0  0  0  0  0
  -28.2590  -38.0081   24.7490 H   0  0  0  0  0  0
  -28.1055  -36.2602   24.6310 H   0  0  0  0  0  0
  -27.2291  -37.1454   25.8875 H   0  0  0  0  0  0
  -20.9476  -29.8772   21.6804 H   0  0  0  0  0  0
  -26.0157  -38.2822   24.1375 H   0  0  0  0  0  0
  -30.9826  -17.9328   19.1814 H   0  0  0  0  0  0
  -27.5294  -22.5700   18.0250 H   0  0  0  0  0  0
  -27.4837  -20.8218   18.1111 H   0  0  0  0  0  0
  -29.0172  -21.6485   17.8651 H   0  0  0  0  0  0
  -28.3060  -19.9762   24.0592 H   0  0  0  0  0  0
  -27.4882  -18.4263   23.8908 H   0  0  0  0  0  0
  -26.5818  -19.8519   24.3703 H   0  0  0  0  0  0
  -25.4782  -19.5094   20.7993 H   0  0  0  0  0  0
  -24.9337  -19.5476   22.4726 H   0  0  0  0  0  0
  -25.7622  -18.1283   21.8590 H   0  0  0  0  0  0
  -28.9403  -23.2527   21.4418 H   0  0  0  0  0  0
  -29.7937  -23.4162   19.9438 H   0  0  0  0  0  0
  -26.9507  -24.4901   20.5327 H   0  0  0  0  0  0
  -27.6814  -24.5909   18.9581 H   0  0  0  0  0  0
  -27.2558  -21.7351   20.2990 H   0  0  0  0  0  0
  -26.9997  -20.9027   22.2118 H   0  0  0  0  0  0
  -28.8105  -15.4980   21.2283 H   0  0  0  0  0  0
  1 25  1  0  0  0
  1 30  2  0  0  0
  1 84  1  0  0  0
  2  3  1  0  0  0
  2 25  1  0  0  0
  2 85  1  0  0  0
  2 86  1  0  0  0
  3  4  1  0  0  0
  3 87  1  0  0  0
  3 88  1  0  0  0
  4  5  1  0  0  0
  4 89  1  0  0  0
  4 90  1  0  0  0
  5  6  1  0  0  0
  5 26  1  0  0  0
  5 91  1  0  0  0
  6 25  1  0  0  0
  6 92  1  0  0  0
  6 93  1  0  0  0
  7  8  2  0  0  0
  7 26  1  0  0  0
  7 29  1  0  0  0
  8  9  1  0  0  0
  8 22  1  0  0  0
  9 10  1  0  0  0
  9 27  2  0  0  0
 10 11  2  0  0  0
 10 15  1  0  0  0
 11 12  1  0  0  0
 11 94  1  0  0  0
 12 13  2  0  0  0
 12 95  1  0  0  0
 13 14  1  0  0  0
 13 31  1  0  0  0
 14 15  2  0  0  0
 14 96  1  0  0  0
 15 97  1  0  0  0
 16 17  2  0  0  0
 16 21  1  0  0  0
 16 31  1  0  0  0
 17 18  1  0  0  0
 17 98  1  0  0  0
 18 19  2  0  0  0
 18 99  1  0  0  0
 19 20  1  0  0  0
 19 24  1  0  0  0
 20 21  2  0  0  0
 20100  1  0  0  0
 21 23  1  0  0  0
 22 28  1  0  0  0
 22 32  2  0  0  0
 26 27  1  0  0  0
 28101  1  0  0  0
 28102  1  0  0  0
 29103  1  0  0  0
 29104  1  0  0  0
 33 34  1  0  0  0
 33 66  1  0  0  0
 33 70  2  0  0  0
 34 36  1  0  0  0
 34 59  1  0  0  0
 34105  1  0  0  0
 35 44  2  0  0  0
 35 45  1  0  0  0
 35 68  1  0  0  0
 36 56  1  0  0  0
 36106  1  0  0  0
 37 39  1  0  0  0
 37 47  1  0  0  0
 37 66  1  0  0  0
 37107  1  0  0  0
 38 43  2  0  0  0
 38 46  1  0  0  0
 38 47  1  0  0  0
 39 64  1  0  0  0
 39 67  2  0  0  0
 40 52  1  0  0  0
 40 53  2  0  0  0
 40 58  1  0  0  0
 41108  1  0  0  0
 41109  1  0  0  0
 41110  1  0  0  0
 41 48  1  0  0  0
 42 43  1  0  0  0
 42 66  1  0  0  0
 42111  1  0  0  0
 42112  1  0  0  0
 43 44  1  0  0  0
 44113  1  0  0  0
 45 46  2  0  0  0
 45114  1  0  0  0
 46115  1  0  0  0
 47116  1  0  0  0
 47117  1  0  0  0
 48 56  1  0  0  0
 48 65  1  0  0  0
 48118  1  0  0  0
 49 50  1  0  0  0
 49 53  1  0  0  0
 49 64  1  0  0  0
 49119  1  0  0  0
 50 51  1  0  0  0
 50120  1  0  0  0
 50121  1  0  0  0
 51 52  1  0  0  0
 51122  1  0  0  0
 51123  1  0  0  0
 52124  1  0  0  0
 52125  1  0  0  0
 53 54  1  0  0  0
 54 55  2  0  0  0
 54126  1  0  0  0
 55 57  1  0  0  0
 55127  1  0  0  0
 56 69  2  0  0  0
 57 58  2  0  0  0
 57128  1  0  0  0
 58129  1  0  0  0
 59 60  1  0  0  0
 59 61  1  0  0  0
 59 62  1  0  0  0
 60130  1  0  0  0
 60131  1  0  0  0
 60132  1  0  0  0
 61133  1  0  0  0
 61134  1  0  0  0
 61135  1  0  0  0
 62136  1  0  0  0
 62137  1  0  0  0
 62138  1  0  0  0
 63 65  1  0  0  0
 63139  1  0  0  0
 63140  1  0  0  0
 63141  1  0  0  0
 64142  1  0  0  0
 65143  1  0  0  0
 68 79  1  0  0  0
 71 74  2  0  0  0
 71 82  1  0  0  0
 71144  1  0  0  0
 72 73  1  0  0  0
 72 80  1  0  0  0
 72 82  2  0  0  0
 73 81  1  0  0  0
 73 83  2  0  0  0
 74 83  1  0  0  0
 74 84  1  0  0  0
 75145  1  0  0  0
 75146  1  0  0  0
 75147  1  0  0  0
 75 80  1  0  0  0
 76148  1  0  0  0
 76149  1  0  0  0
 76150  1  0  0  0
 76 81  1  0  0  0
 77 81  1  0  0  0
 77151  1  0  0  0
 77152  1  0  0  0
 77153  1  0  0  0
 78 79  1  0  0  0
 78 80  1  0  0  0
 78154  1  0  0  0
 78155  1  0  0  0
 79156  1  0  0  0
 79157  1  0  0  0
 80158  1  0  0  0
 81159  1  0  0  0
 84160  1  0  0  0
M  ISO  4   1 100  68 101  79 101  84 100
M  END
> <chiral flag>
0

> <version>
0

> <s_m_source_file>
/data/baiqing/PycharmProjects/Reinvent-master-3.2/result/LINK_invent/BTK/process_docking_weight1_custom_sum_contain_oxygen_bond_distance_aromatic_linkinvent_7_9_3/rearranged_h_0108.sdf

> <i_m_source_file_index>
45

> <r_mmod_Potential_Energy-OPLS-2005>
404.013641357422

> <r_mmod_Stretch_Energy-OPLS-2005>
215.093612670898

> <r_mmod_Bend_Energy-OPLS-2005>
267.231872558594

> <r_mmod_Torsional_Energy-OPLS-2005>
203.641036987305

> <r_mmod_Improper_Torsional_Energy-OPLS-2005>
4.80041551589966

> <r_mmod_Van_der_Waal_Energy-OPLS-2005>
137.811599731445

> <r_mmod_Electrostatic_Energy-OPLS-2005>
-376.197418212891

> <r_mmod_Solvation_Energy-OPLS-2005>
-209.484466552734

> <b_mmod_Minimization_Converged-OPLS-2005>
0

> <r_mmod_RMS_Derivative-OPLS-2005>
3.65237855911255

$$$$
45
                    3D
 Structure written by MMmdl.
179187  0  0  1  0            999 V2000
  -30.5391  -15.1774   20.3675 C   0  0  0  0  0  0
  -30.4483  -12.7476   19.5242 C   0  0  0  0  0  0
  -29.5462  -12.5656   18.2823 C   0  0  0  0  0  0
  -28.0848  -12.3253   18.6987 C   0  0  0  0  0  0
  -27.6264  -13.2802   19.8288 C   0  0  2  0  0  0
  -28.6685  -13.4287   20.9592 C   0  0  0  0  0  0
  -25.2472  -13.8282   20.5744 C   0  0  0  0  0  0
  -24.1803  -13.0468   20.9235 C   0  0  0  0  0  0
  -24.6450  -11.6968   20.8758 C   0  0  0  0  0  0
  -23.9120  -10.4344   21.0389 C   0  0  0  0  0  0
  -24.3634   -9.4242   21.9184 C   0  0  0  0  0  0
  -23.6328   -8.2272   22.0733 C   0  0  0  0  0  0
  -22.4296   -8.0297   21.3521 C   0  0  0  0  0  0
  -21.9958   -9.0276   20.4628 C   0  0  0  0  0  0
  -22.7278  -10.2166   20.3054 C   0  0  0  0  0  0
  -21.6875   -6.0747   22.5268 C   0  0  0  0  0  0
  -21.4037   -6.5642   23.8213 C   0  0  0  0  0  0
  -21.3666   -5.6777   24.9154 C   0  0  0  0  0  0
  -21.6053   -4.3026   24.7209 C   0  0  0  0  0  0
  -21.8817   -3.8150   23.4328 C   0  0  0  0  0  0
  -21.9218   -4.6972   22.3391 C   0  0  0  0  0  0
  -22.7801  -13.5221   21.1851 C   0  0  0  0  0  0
  -22.1656   -4.2159   21.0973 F   0  0  0  0  0  0
  -21.5623   -3.4520   25.7731 F   0  0  0  0  0  0
  -29.9215  -13.8997   20.3380 N   0  0  0  0  0  0
  -26.2925  -12.9561   20.3220 N   0  0  0  0  0  0
  -25.9402  -11.6677   20.5696 N   0  0  0  0  0  0
  -22.0396  -12.8245   22.0393 N   0  0  0  0  0  0
  -25.4124  -15.2006   20.4200 N   0  0  0  0  0  0
  -31.7508  -15.1436   20.1217 O   0  0  0  0  0  0
  -21.6647   -6.8900   21.4235 O   0  0  0  0  0  0
  -22.3504  -14.5525   20.6673 O   0  0  0  0  0  0
  -24.6649  -31.8319   23.1763 C   0  0  0  0  0  0
  -25.9337  -32.4638   23.8216 C   0  0  1  0  0  0
  -27.2248  -26.9625   20.1646 C   0  0  0  0  0  0
  -25.6005  -33.8450   24.2130 N   0  0  0  0  0  0
  -23.4752  -30.4548   21.5254 C   0  0  2  0  0  0
  -24.9268  -28.8658   20.1112 C   0  0  0  0  0  0
  -22.7640  -29.4543   22.4770 C   0  0  0  0  0  0
  -18.0330  -28.1401   22.8451 C   0  0  0  0  0  0
  -24.1483  -36.7237   23.2643 C   0  0  0  0  0  0
  -26.0490  -30.6552   21.4007 C   0  0  0  0  0  0
  -26.1197  -29.2534   20.7352 C   0  0  0  0  0  0
  -27.2634  -28.3310   20.7314 C   0  0  0  0  0  0
  -25.9749  -26.7267   19.5274 C   0  0  0  0  0  0
  -24.8832  -27.6181   19.4868 C   0  0  0  0  0  0
  -23.7123  -29.7887   20.1461 C   0  0  0  0  0  0
  -25.4123  -36.2997   24.0295 C   0  0  1  0  0  0
  -20.5961  -28.3803   23.1139 C   0  0  2  0  0  0
  -20.6814  -26.9479   22.5370 C   0  0  0  0  0  0
  -19.5789  -26.6363   21.5202 C   0  0  0  0  0  0
  -18.1963  -26.7925   22.1606 C   0  0  0  0  0  0
  -19.1588  -28.8907   23.2789 C   0  0  0  0  0  0
  -18.9502  -30.1481   23.8856 C   0  0  0  0  0  0
  -17.6501  -30.6592   24.0535 C   0  0  0  0  0  0
  -25.9096  -34.9377   23.5024 C   0  0  0  0  0  0
  -16.5387  -29.9080   23.6327 C   0  0  0  0  0  0
  -16.7311  -28.6486   23.0365 C   0  0  0  0  0  0
  -26.4562  -31.6551   25.0726 C   0  0  0  0  0  0
  -25.3673  -31.3804   26.1375 C   0  0  0  0  0  0
  -27.0456  -30.2899   24.6485 C   0  0  0  0  0  0
  -27.6041  -32.4352   25.7552 C   0  0  0  0  0  0
  -27.5575  -37.1777   24.8458 C   0  0  0  0  0  0
  -21.4323  -29.3102   22.3485 N   0  0  0  0  0  0
  -26.4283  -37.3720   23.9406 N   0  0  0  0  0  0
  -24.7513  -31.0021   22.0893 N   0  0  0  0  0  0
  -23.4193  -28.8091   23.2997 O   0  0  0  0  0  0
  -28.2294  -25.8444   20.2496 O   0  0  0  0  0  0
  -26.5675  -34.8913   22.4605 O   0  0  0  0  0  0
  -23.5725  -32.1287   23.6881 O   0  0  0  0  0  0
  -30.0598  -22.2593   19.8405 C   0  0  0  0  0  0
  -28.5290  -20.2213   20.7434 C   0  0  0  0  0  0
  -30.5389  -20.8525   19.8024 C   0  0  0  0  0  0
  -29.7809  -19.6710   20.2674 C   0  0  0  0  0  0
  -28.7873  -22.7226   20.3509 C   0  0  0  0  0  0
  -35.3574  -20.2500   18.7449 C   0  0  0  0  0  0
  -34.9825  -22.7080   18.3296 C   0  0  0  0  0  0
  -34.5712  -23.0131   21.7865 C   0  0  0  0  0  0
  -34.1837  -21.0353   23.2946 C   0  0  0  0  0  0
  -27.6236  -24.0634   18.5749 C   0  0  0  0  0  0
  -26.6603  -24.1013   21.0019 C   0  0  0  0  0  0
  -31.8721  -20.6362   19.0605 C   0  0  0  0  0  0
  -30.3597  -18.0253   20.1701 C   0  0  0  0  0  0
  -34.2914  -21.3454   18.5177 C   0  0  0  0  0  0
  -33.6787  -21.7813   22.0435 C   0  0  0  0  0  0
  -33.1405  -21.3798   19.5839 C   0  0  2  0  0  0
  -27.9170  -24.2263   20.0862 C   0  0  0  0  0  0
  -28.0899  -21.5715   20.7472 N   0  0  0  0  0  0
  -29.8629  -16.4803   20.4548 N   0  0  0  0  0  0
  -33.6275  -20.8513   20.8860 N   0  3  0  0  0  0
  -31.4754  -12.9152   19.1991 H   0  0  0  0  0  0
  -30.4825  -11.8316   20.1162 H   0  0  0  0  0  0
  -29.9055  -11.7343   17.6748 H   0  0  0  0  0  0
  -29.6096  -13.4621   17.6611 H   0  0  0  0  0  0
  -28.0021  -11.2904   19.0333 H   0  0  0  0  0  0
  -27.4294  -12.4167   17.8328 H   0  0  0  0  0  0
  -27.5558  -14.2573   19.3533 H   0  0  0  0  0  0
  -28.8125  -12.4900   21.4964 H   0  0  0  0  0  0
  -28.3252  -14.1546   21.6933 H   0  0  0  0  0  0
  -25.2783   -9.5728   22.4747 H   0  0  0  0  0  0
  -24.0019   -7.4689   22.7482 H   0  0  0  0  0  0
  -21.0856   -8.8852   19.8961 H   0  0  0  0  0  0
  -22.3749  -10.9709   19.6159 H   0  0  0  0  0  0
  -21.2011   -7.6147   23.9730 H   0  0  0  0  0  0
  -21.1478   -6.0476   25.9050 H   0  0  0  0  0  0
  -22.0598   -2.7622   23.2824 H   0  0  0  0  0  0
  -22.3980  -11.9946   22.4896 H   0  0  0  0  0  0
  -21.1006  -13.1322   22.2513 H   0  0  0  0  0  0
  -24.6456  -15.8542   20.5415 H   0  0  0  0  0  0
  -26.2557  -15.6394   20.0777 H   0  0  0  0  0  0
  -26.7420  -32.5201   23.0959 H   0  0  0  0  0  0
  -25.0089  -33.9540   25.0242 H   0  0  0  0  0  0
  -22.7885  -31.2895   21.3645 H   0  0  0  0  0  0
  -23.3767  -35.9556   23.3276 H   0  0  0  0  0  0
  -24.3560  -36.8906   22.2063 H   0  0  0  0  0  0
  -23.7220  -37.6407   23.6718 H   0  0  0  0  0  0
  -26.2304  -31.4098   20.6311 H   0  0  0  0  0  0
  -26.9048  -30.6998   22.0604 H   0  0  0  0  0  0
  -28.1623  -28.6406   21.2480 H   0  0  0  0  0  0
  -25.7348  -25.7709   19.1019 H   0  0  0  0  0  0
  -23.9726  -27.2948   18.9981 H   0  0  0  0  0  0
  -23.8615  -30.5680   19.3955 H   0  0  0  0  0  0
  -22.8202  -29.2447   19.8268 H   0  0  0  0  0  0
  -25.1319  -36.1804   25.0780 H   0  0  0  0  0  0
  -21.0080  -28.3431   24.1258 H   0  0  0  0  0  0
  -20.5688  -26.2437   23.3632 H   0  0  0  0  0  0
  -21.6667  -26.7411   22.1194 H   0  0  0  0  0  0
  -19.6940  -25.6249   21.1283 H   0  0  0  0  0  0
  -19.6719  -27.3122   20.6686 H   0  0  0  0  0  0
  -17.4223  -26.6681   21.4000 H   0  0  0  0  0  0
  -18.0351  -26.0080   22.9017 H   0  0  0  0  0  0
  -19.7981  -30.7276   24.2234 H   0  0  0  0  0  0
  -17.5058  -31.6279   24.5135 H   0  0  0  0  0  0
  -15.5385  -30.2975   23.7659 H   0  0  0  0  0  0
  -15.8706  -28.0768   22.7151 H   0  0  0  0  0  0
  -24.5851  -30.7172   25.7655 H   0  0  0  0  0  0
  -24.8893  -32.3028   26.4692 H   0  0  0  0  0  0
  -25.7882  -30.9003   27.0222 H   0  0  0  0  0  0
  -26.3113  -29.6552   24.1515 H   0  0  0  0  0  0
  -27.3966  -29.7288   25.5157 H   0  0  0  0  0  0
  -27.9061  -30.4033   23.9900 H   0  0  0  0  0  0
  -27.2572  -33.3675   26.2034 H   0  0  0  0  0  0
  -28.3912  -32.6887   25.0435 H   0  0  0  0  0  0
  -28.0658  -31.8556   26.5566 H   0  0  0  0  0  0
  -28.2549  -38.0103   24.7506 H   0  0  0  0  0  0
  -28.1093  -36.2630   24.6268 H   0  0  0  0  0  0
  -27.2293  -37.1385   25.8854 H   0  0  0  0  0  0
  -20.9580  -29.8835   21.6654 H   0  0  0  0  0  0
  -26.0141  -38.2783   24.1411 H   0  0  0  0  0  0
  -30.6691  -23.0181   19.3664 H   0  0  0  0  0  0
  -27.7952  -19.5260   21.1245 H   0  0  0  0  0  0
  -36.0253  -20.1813   17.8846 H   0  0  0  0  0  0
  -34.9165  -19.2622   18.8824 H   0  0  0  0  0  0
  -35.9883  -20.4692   19.6078 H   0  0  0  0  0  0
  -35.6643  -22.6838   17.4769 H   0  0  0  0  0  0
  -35.5764  -22.9890   19.1989 H   0  0  0  0  0  0
  -34.2633  -23.5059   18.1378 H   0  0  0  0  0  0
  -34.6662  -23.6190   22.6861 H   0  0  0  0  0  0
  -34.1666  -23.6729   21.0191 H   0  0  0  0  0  0
  -35.5792  -22.7233   21.4880 H   0  0  0  0  0  0
  -34.1374  -21.6716   24.1787 H   0  0  0  0  0  0
  -35.2231  -20.7230   23.1820 H   0  0  0  0  0  0
  -33.5932  -20.1437   23.5084 H   0  0  0  0  0  0
  -27.0143  -23.1778   18.3890 H   0  0  0  0  0  0
  -28.5606  -23.9124   18.0394 H   0  0  0  0  0  0
  -27.1640  -24.9020   18.0692 H   0  0  0  0  0  0
  -25.7587  -23.8583   20.4392 H   0  0  0  0  0  0
  -26.4626  -24.9986   21.5827 H   0  0  0  0  0  0
  -26.7648  -23.3458   21.7786 H   0  0  0  0  0  0
  -31.6714  -21.0089   18.0535 H   0  0  0  0  0  0
  -32.1044  -19.5827   18.9185 H   0  0  0  0  0  0
  -31.3190  -18.0632   20.6880 H   0  0  0  0  0  0
  -30.6254  -17.9531   19.1148 H   0  0  0  0  0  0
  -33.8366  -21.1265   17.5498 H   0  0  0  0  0  0
  -32.6594  -22.1210   22.2366 H   0  0  0  0  0  0
  -32.8412  -22.4206   19.7100 H   0  0  0  0  0  0
  -28.8795  -16.4021   20.6640 H   0  0  0  0  0  0
  -33.0583  -20.0598   21.1437 H   0  0  0  0  0  0
  -34.5557  -20.4957   20.7159 H   0  0  0  0  0  0
  1 25  1  0  0  0
  1 30  2  0  0  0
  1 89  1  0  0  0
  2  3  1  0  0  0
  2 25  1  0  0  0
  2 91  1  0  0  0
  2 92  1  0  0  0
  3  4  1  0  0  0
  3 93  1  0  0  0
  3 94  1  0  0  0
  4  5  1  0  0  0
  4 95  1  0  0  0
  4 96  1  0  0  0
  5  6  1  0  0  0
  5 26  1  0  0  0
  5 97  1  0  0  0
  6 25  1  0  0  0
  6 98  1  0  0  0
  6 99  1  0  0  0
  7  8  2  0  0  0
  7 26  1  0  0  0
  7 29  1  0  0  0
  8  9  1  0  0  0
  8 22  1  0  0  0
  9 10  1  0  0  0
  9 27  2  0  0  0
 10 11  2  0  0  0
 10 15  1  0  0  0
 11 12  1  0  0  0
 11100  1  0  0  0
 12 13  2  0  0  0
 12101  1  0  0  0
 13 14  1  0  0  0
 13 31  1  0  0  0
 14 15  2  0  0  0
 14102  1  0  0  0
 15103  1  0  0  0
 16 17  2  0  0  0
 16 21  1  0  0  0
 16 31  1  0  0  0
 17 18  1  0  0  0
 17104  1  0  0  0
 18 19  2  0  0  0
 18105  1  0  0  0
 19 20  1  0  0  0
 19 24  1  0  0  0
 20 21  2  0  0  0
 20106  1  0  0  0
 21 23  1  0  0  0
 22 28  1  0  0  0
 22 32  2  0  0  0
 26 27  1  0  0  0
 28107  1  0  0  0
 28108  1  0  0  0
 29109  1  0  0  0
 29110  1  0  0  0
 33 34  1  0  0  0
 33 66  1  0  0  0
 33 70  2  0  0  0
 34 36  1  0  0  0
 34 59  1  0  0  0
 34111  1  0  0  0
 35 44  2  0  0  0
 35 45  1  0  0  0
 35 68  1  0  0  0
 36 56  1  0  0  0
 36112  1  0  0  0
 37 39  1  0  0  0
 37 47  1  0  0  0
 37 66  1  0  0  0
 37113  1  0  0  0
 38 43  2  0  0  0
 38 46  1  0  0  0
 38 47  1  0  0  0
 39 64  1  0  0  0
 39 67  2  0  0  0
 40 52  1  0  0  0
 40 53  2  0  0  0
 40 58  1  0  0  0
 41114  1  0  0  0
 41115  1  0  0  0
 41116  1  0  0  0
 41 48  1  0  0  0
 42 43  1  0  0  0
 42 66  1  0  0  0
 42117  1  0  0  0
 42118  1  0  0  0
 43 44  1  0  0  0
 44119  1  0  0  0
 45 46  2  0  0  0
 45120  1  0  0  0
 46121  1  0  0  0
 47122  1  0  0  0
 47123  1  0  0  0
 48 56  1  0  0  0
 48 65  1  0  0  0
 48124  1  0  0  0
 49 50  1  0  0  0
 49 53  1  0  0  0
 49 64  1  0  0  0
 49125  1  0  0  0
 50 51  1  0  0  0
 50126  1  0  0  0
 50127  1  0  0  0
 51 52  1  0  0  0
 51128  1  0  0  0
 51129  1  0  0  0
 52130  1  0  0  0
 52131  1  0  0  0
 53 54  1  0  0  0
 54 55  2  0  0  0
 54132  1  0  0  0
 55 57  1  0  0  0
 55133  1  0  0  0
 56 69  2  0  0  0
 57 58  2  0  0  0
 57134  1  0  0  0
 58135  1  0  0  0
 59 60  1  0  0  0
 59 61  1  0  0  0
 59 62  1  0  0  0
 60136  1  0  0  0
 60137  1  0  0  0
 60138  1  0  0  0
 61139  1  0  0  0
 61140  1  0  0  0
 61141  1  0  0  0
 62142  1  0  0  0
 62143  1  0  0  0
 62144  1  0  0  0
 63 65  1  0  0  0
 63145  1  0  0  0
 63146  1  0  0  0
 63147  1  0  0  0
 64148  1  0  0  0
 65149  1  0  0  0
 68 87  1  0  0  0
 71 73  2  0  0  0
 71 75  1  0  0  0
 71150  1  0  0  0
 72 74  2  0  0  0
 72 88  1  0  0  0
 72151  1  0  0  0
 73 74  1  0  0  0
 73 82  1  0  0  0
 74 83  1  0  0  0
 75 87  1  0  0  0
 75 88  2  0  0  0
 76152  1  0  0  0
 76153  1  0  0  0
 76154  1  0  0  0
 76 84  1  0  0  0
 77 84  1  0  0  0
 77155  1  0  0  0
 77156  1  0  0  0
 77157  1  0  0  0
 78158  1  0  0  0
 78159  1  0  0  0
 78160  1  0  0  0
 78 85  1  0  0  0
 79 85  1  0  0  0
 79161  1  0  0  0
 79162  1  0  0  0
 79163  1  0  0  0
 80164  1  0  0  0
 80165  1  0  0  0
 80166  1  0  0  0
 80 87  1  0  0  0
 81 87  1  0  0  0
 81167  1  0  0  0
 81168  1  0  0  0
 81169  1  0  0  0
 82170  1  0  0  0
 82171  1  0  0  0
 82 86  1  0  0  0
 83 89  1  0  0  0
 83172  1  0  0  0
 83173  1  0  0  0
 84 86  1  0  0  0
 84174  1  0  0  0
 85 90  1  0  0  0
 85175  1  0  0  0
 86 90  1  0  0  0
 86176  1  0  0  0
 89177  1  0  0  0
 90178  1  0  0  0
 90179  1  0  0  0
M  CHG  1  90   1
M  ISO  4   1 100  68 101  87 101  89 100
M  END
> <chiral flag>
0

> <version>
0

> <s_m_source_file>
/data/baiqing/PycharmProjects/Reinvent-master-3.2/result/LINK_invent/BTK/process_docking_weight1_custom_sum_contain_oxygen_bond_distance_aromatic_linkinvent_7_9_3/rearranged_h_0108.sdf

> <i_m_source_file_index>
46

> <r_mmod_Potential_Energy-OPLS-2005>
980.150817871094

> <r_mmod_Stretch_Energy-OPLS-2005>
510.177185058594

> <r_mmod_Bend_Energy-OPLS-2005>
499.204772949219

> <r_mmod_Torsional_Energy-OPLS-2005>
279.078216552734

> <r_mmod_Improper_Torsional_Energy-OPLS-2005>
8.36881923675537

> <r_mmod_Van_der_Waal_Energy-OPLS-2005>
157.544387817383

> <r_mmod_Electrostatic_Energy-OPLS-2005>
-410.186187744141

> <r_mmod_Solvation_Energy-OPLS-2005>
-447.04833984375

> <b_mmod_Minimization_Converged-OPLS-2005>
0

> <r_mmod_RMS_Derivative-OPLS-2005>
4.81951761245728

$$$$
46
                    3D
 Structure written by MMmdl.
162170  0  0  1  0            999 V2000
  -30.6354  -14.6202   20.5356 C   0  0  0  0  0  0
  -30.4485  -12.3863   19.4556 C   0  0  0  0  0  0
  -29.5132  -12.5048   18.2326 C   0  0  0  0  0  0
  -28.0374  -12.3361   18.6467 C   0  0  0  0  0  0
  -27.6640  -13.2057   19.8755 C   0  0  2  0  0  0
  -28.7081  -13.0478   21.0052 C   0  0  0  0  0  0
  -25.2627  -13.8150   20.5705 C   0  0  0  0  0  0
  -24.1865  -13.0433   20.9186 C   0  0  0  0  0  0
  -24.6411  -11.6899   20.8744 C   0  0  0  0  0  0
  -23.9057  -10.4284   21.0380 C   0  0  0  0  0  0
  -24.3602   -9.4204   21.9166 C   0  0  0  0  0  0
  -23.6288   -8.2234   22.0743 C   0  0  0  0  0  0
  -22.4270   -8.0272   21.3544 C   0  0  0  0  0  0
  -21.9903   -9.0239   20.4635 C   0  0  0  0  0  0
  -22.7214  -10.2129   20.3043 C   0  0  0  0  0  0
  -21.6864   -6.0718   22.5276 C   0  0  0  0  0  0
  -21.3994   -6.5632   23.8197 C   0  0  0  0  0  0
  -21.3669   -5.6797   24.9168 C   0  0  0  0  0  0
  -21.6057   -4.3061   24.7233 C   0  0  0  0  0  0
  -21.8816   -3.8143   23.4355 C   0  0  0  0  0  0
  -21.9186   -4.6943   22.3398 C   0  0  0  0  0  0
  -22.7885  -13.5228   21.1833 C   0  0  0  0  0  0
  -22.1667   -4.2118   21.0976 F   0  0  0  0  0  0
  -21.5637   -3.4555   25.7747 F   0  0  0  0  0  0
  -30.0226  -13.3966   20.4409 N   0  0  0  0  0  0
  -26.3054  -12.9304   20.3376 N   0  0  0  0  0  0
  -25.9344  -11.6478   20.5776 N   0  0  0  0  0  0
  -22.0563  -12.8225   22.0407 N   0  0  0  0  0  0
  -25.4414  -15.1855   20.4099 N   0  0  0  0  0  0
  -31.7828  -14.8043   20.1238 O   0  0  0  0  0  0
  -21.6652   -6.8861   21.4242 O   0  0  0  0  0  0
  -22.3561  -14.5540   20.6691 O   0  0  0  0  0  0
  -24.6230  -31.8654   23.2100 C   0  0  0  0  0  0
  -25.9085  -32.4806   23.8412 C   0  0  1  0  0  0
  -27.2259  -27.3495   20.1067 C   0  0  0  0  0  0
  -25.5941  -33.8620   24.2335 N   0  0  0  0  0  0
  -23.4135  -30.4916   21.5512 C   0  0  2  0  0  0
  -24.8562  -28.9508   20.1167 C   0  0  0  0  0  0
  -22.7443  -29.4635   22.4949 C   0  0  0  0  0  0
  -18.0275  -28.1375   22.8471 C   0  0  0  0  0  0
  -24.1494  -36.7315   23.2637 C   0  0  0  0  0  0
  -25.9518  -30.8052   21.3731 C   0  0  0  0  0  0
  -26.0262  -29.4365   20.7141 C   0  0  0  0  0  0
  -27.2090  -28.6466   20.7010 C   0  0  0  0  0  0
  -26.0157  -26.8929   19.5292 C   0  0  0  0  0  0
  -24.8506  -27.6797   19.5217 C   0  0  0  0  0  0
  -23.6276  -29.8336   20.1641 C   0  0  0  0  0  0
  -25.4119  -36.3105   24.0344 C   0  0  1  0  0  0
  -20.5875  -28.3690   23.1276 C   0  0  2  0  0  0
  -20.6768  -26.9417   22.5399 C   0  0  0  0  0  0
  -19.5750  -26.6381   21.5191 C   0  0  0  0  0  0
  -18.1928  -26.7906   22.1608 C   0  0  0  0  0  0
  -19.1529  -28.8847   23.2873 C   0  0  0  0  0  0
  -18.9448  -30.1445   23.8897 C   0  0  0  0  0  0
  -17.6448  -30.6583   24.0551 C   0  0  0  0  0  0
  -25.9063  -34.9467   23.5133 C   0  0  0  0  0  0
  -16.5340  -29.9082   23.6319 C   0  0  0  0  0  0
  -16.7258  -28.6501   23.0341 C   0  0  0  0  0  0
  -26.4471  -31.6593   25.0766 C   0  0  0  0  0  0
  -25.3716  -31.3705   26.1503 C   0  0  0  0  0  0
  -27.0297  -30.3021   24.6181 C   0  0  0  0  0  0
  -27.6045  -32.4298   25.7529 C   0  0  0  0  0  0
  -27.5585  -37.1829   24.8460 C   0  0  0  0  0  0
  -21.4166  -29.3052   22.3679 N   0  0  0  0  0  0
  -26.4298  -37.3796   23.9398 N   0  0  0  0  0  0
  -24.6817  -31.0679   22.1022 N   0  0  0  0  0  0
  -23.4172  -28.8168   23.3017 O   0  0  0  0  0  0
  -28.3683  -26.5340   20.1587 O   0  0  0  0  0  0
  -26.5605  -34.8922   22.4680 O   0  0  0  0  0  0
  -23.5397  -32.1418   23.7459 O   0  0  0  0  0  0
  -28.3339  -24.0498   17.4095 C   0  0  0  0  0  0
  -28.2044  -25.2632   18.0938 C   0  0  0  0  0  0
  -28.8241  -22.9166   18.0877 C   0  0  0  0  0  0
  -29.1707  -23.0179   19.4626 C   0  0  0  0  0  0
  -28.4752  -25.3143   19.4676 C   0  0  0  0  0  0
  -29.7613  -17.9660   19.8088 C   0  0  0  0  0  0
  -28.9860  -21.6342   17.2854 C   0  0  0  0  0  0
  -30.9143  -22.3883   21.2384 C   0  0  0  0  0  0
  -29.2396  -20.1647   22.1245 C   0  0  0  0  0  0
  -30.1271  -17.1229   21.0756 C   0  0  0  0  0  0
  -29.9412  -21.8322   20.1766 C   0  0  1  0  0  0
  -29.1635  -20.4936   20.6189 C   0  0  2  0  0  0
  -28.9549  -24.2076   20.1347 N   0  0  0  0  0  0
  -29.4494  -19.3006   19.7435 N   0  0  0  0  0  0
  -29.8565  -15.6470   20.9758 N   0  0  0  0  0  0
  -29.7770  -17.3622   18.7365 O   0  0  0  0  0  0
  -31.4889  -12.5226   19.1538 H   0  0  0  0  0  0
  -30.3975  -11.3858   19.8902 H   0  0  0  0  0  0
  -29.7792  -11.7602   17.4821 H   0  0  0  0  0  0
  -29.6528  -13.4814   17.7653 H   0  0  0  0  0  0
  -27.8816  -11.2812   18.8821 H   0  0  0  0  0  0
  -27.3790  -12.5604   17.8068 H   0  0  0  0  0  0
  -27.6894  -14.2422   19.5404 H   0  0  0  0  0  0
  -28.7217  -12.0186   21.3690 H   0  0  0  0  0  0
  -28.4526  -13.6606   21.8711 H   0  0  0  0  0  0
  -25.2753   -9.5691   22.4737 H   0  0  0  0  0  0
  -24.0004   -7.4628   22.7467 H   0  0  0  0  0  0
  -21.0837   -8.8735   19.8953 H   0  0  0  0  0  0
  -22.3649  -10.9652   19.6154 H   0  0  0  0  0  0
  -21.1984   -7.6134   23.9686 H   0  0  0  0  0  0
  -21.1506   -6.0533   25.9062 H   0  0  0  0  0  0
  -22.0595   -2.7599   23.2865 H   0  0  0  0  0  0
  -22.4207  -11.9890   22.4758 H   0  0  0  0  0  0
  -21.1167  -13.1206   22.2612 H   0  0  0  0  0  0
  -24.6849  -15.8514   20.5210 H   0  0  0  0  0  0
  -26.2955  -15.6125   20.0740 H   0  0  0  0  0  0
  -26.7156  -32.5447   23.1165 H   0  0  0  0  0  0
  -25.0077  -33.9765   25.0475 H   0  0  0  0  0  0
  -22.7064  -31.3125   21.4151 H   0  0  0  0  0  0
  -23.3760  -35.9641   23.3291 H   0  0  0  0  0  0
  -24.3574  -36.8943   22.2048 H   0  0  0  0  0  0
  -23.7256  -37.6533   23.6646 H   0  0  0  0  0  0
  -26.0771  -31.5738   20.6083 H   0  0  0  0  0  0
  -26.8354  -30.8532   22.0002 H   0  0  0  0  0  0
  -28.1076  -29.0182   21.1743 H   0  0  0  0  0  0
  -25.9351  -25.9047   19.1009 H   0  0  0  0  0  0
  -23.9419  -27.2909   19.0823 H   0  0  0  0  0  0
  -23.7538  -30.6164   19.4142 H   0  0  0  0  0  0
  -22.7432  -29.2735   19.8525 H   0  0  0  0  0  0
  -25.1293  -36.1978   25.0846 H   0  0  0  0  0  0
  -20.9955  -28.3261   24.1402 H   0  0  0  0  0  0
  -20.5648  -26.2306   23.3605 H   0  0  0  0  0  0
  -21.6642  -26.7434   22.1214 H   0  0  0  0  0  0
  -19.6925  -25.6290   21.1236 H   0  0  0  0  0  0
  -19.6691  -27.3177   20.6711 H   0  0  0  0  0  0
  -17.4193  -26.6629   21.4016 H   0  0  0  0  0  0
  -18.0355  -26.0050   22.9018 H   0  0  0  0  0  0
  -19.7933  -30.7253   24.2266 H   0  0  0  0  0  0
  -17.5016  -31.6254   24.5163 H   0  0  0  0  0  0
  -15.5351  -30.2989   23.7655 H   0  0  0  0  0  0
  -15.8652  -28.0826   22.7059 H   0  0  0  0  0  0
  -24.5908  -30.7034   25.7830 H   0  0  0  0  0  0
  -24.8889  -32.2860   26.4937 H   0  0  0  0  0  0
  -25.8067  -30.8888   27.0277 H   0  0  0  0  0  0
  -26.2868  -29.6821   24.1160 H   0  0  0  0  0  0
  -27.3950  -29.7217   25.4668 H   0  0  0  0  0  0
  -27.8754  -30.4309   23.9421 H   0  0  0  0  0  0
  -27.2676  -33.3590   26.2135 H   0  0  0  0  0  0
  -28.3852  -32.6877   25.0355 H   0  0  0  0  0  0
  -28.0720  -31.8410   26.5437 H   0  0  0  0  0  0
  -28.2606  -38.0121   24.7501 H   0  0  0  0  0  0
  -28.1085  -36.2659   24.6292 H   0  0  0  0  0  0
  -27.2292  -37.1488   25.8859 H   0  0  0  0  0  0
  -20.9334  -29.8798   21.6918 H   0  0  0  0  0  0
  -26.0193  -38.2880   24.1391 H   0  0  0  0  0  0
  -28.0866  -24.0119   16.3578 H   0  0  0  0  0  0
  -27.8682  -26.1463   17.5678 H   0  0  0  0  0  0
  -28.8416  -21.8189   16.2193 H   0  0  0  0  0  0
  -28.2363  -20.9025   17.5930 H   0  0  0  0  0  0
  -29.9796  -21.2013   17.3888 H   0  0  0  0  0  0
  -31.5744  -21.6180   21.6299 H   0  0  0  0  0  0
  -30.3803  -22.8353   22.0776 H   0  0  0  0  0  0
  -31.5506  -23.1641   20.8108 H   0  0  0  0  0  0
  -30.2359  -19.8474   22.4339 H   0  0  0  0  0  0
  -28.5323  -19.3808   22.3946 H   0  0  0  0  0  0
  -28.9652  -21.0322   22.7264 H   0  0  0  0  0  0
  -29.5769  -17.4910   21.9382 H   0  0  0  0  0  0
  -31.1830  -17.2797   21.2999 H   0  0  0  0  0  0
  -30.6453  -21.4962   19.4173 H   0  0  0  0  0  0
  -28.1097  -20.7119   20.4440 H   0  0  0  0  0  0
  -29.2840  -19.5389   18.7755 H   0  0  0  0  0  0
  -28.9332  -15.3757   21.2743 H   0  0  0  0  0  0
  1 25  1  0  0  0
  1 30  2  0  0  0
  1 85  1  0  0  0
  2  3  1  0  0  0
  2 25  1  0  0  0
  2 87  1  0  0  0
  2 88  1  0  0  0
  3  4  1  0  0  0
  3 89  1  0  0  0
  3 90  1  0  0  0
  4  5  1  0  0  0
  4 91  1  0  0  0
  4 92  1  0  0  0
  5  6  1  0  0  0
  5 26  1  0  0  0
  5 93  1  0  0  0
  6 25  1  0  0  0
  6 94  1  0  0  0
  6 95  1  0  0  0
  7  8  2  0  0  0
  7 26  1  0  0  0
  7 29  1  0  0  0
  8  9  1  0  0  0
  8 22  1  0  0  0
  9 10  1  0  0  0
  9 27  2  0  0  0
 10 11  2  0  0  0
 10 15  1  0  0  0
 11 12  1  0  0  0
 11 96  1  0  0  0
 12 13  2  0  0  0
 12 97  1  0  0  0
 13 14  1  0  0  0
 13 31  1  0  0  0
 14 15  2  0  0  0
 14 98  1  0  0  0
 15 99  1  0  0  0
 16 17  2  0  0  0
 16 21  1  0  0  0
 16 31  1  0  0  0
 17 18  1  0  0  0
 17100  1  0  0  0
 18 19  2  0  0  0
 18101  1  0  0  0
 19 20  1  0  0  0
 19 24  1  0  0  0
 20 21  2  0  0  0
 20102  1  0  0  0
 21 23  1  0  0  0
 22 28  1  0  0  0
 22 32  2  0  0  0
 26 27  1  0  0  0
 28103  1  0  0  0
 28104  1  0  0  0
 29105  1  0  0  0
 29106  1  0  0  0
 33 34  1  0  0  0
 33 66  1  0  0  0
 33 70  2  0  0  0
 34 36  1  0  0  0
 34 59  1  0  0  0
 34107  1  0  0  0
 35 44  2  0  0  0
 35 45  1  0  0  0
 35 68  1  0  0  0
 36 56  1  0  0  0
 36108  1  0  0  0
 37 39  1  0  0  0
 37 47  1  0  0  0
 37 66  1  0  0  0
 37109  1  0  0  0
 38 43  2  0  0  0
 38 46  1  0  0  0
 38 47  1  0  0  0
 39 64  1  0  0  0
 39 67  2  0  0  0
 40 52  1  0  0  0
 40 53  2  0  0  0
 40 58  1  0  0  0
 41110  1  0  0  0
 41111  1  0  0  0
 41112  1  0  0  0
 41 48  1  0  0  0
 42 43  1  0  0  0
 42 66  1  0  0  0
 42113  1  0  0  0
 42114  1  0  0  0
 43 44  1  0  0  0
 44115  1  0  0  0
 45 46  2  0  0  0
 45116  1  0  0  0
 46117  1  0  0  0
 47118  1  0  0  0
 47119  1  0  0  0
 48 56  1  0  0  0
 48 65  1  0  0  0
 48120  1  0  0  0
 49 50  1  0  0  0
 49 53  1  0  0  0
 49 64  1  0  0  0
 49121  1  0  0  0
 50 51  1  0  0  0
 50122  1  0  0  0
 50123  1  0  0  0
 51 52  1  0  0  0
 51124  1  0  0  0
 51125  1  0  0  0
 52126  1  0  0  0
 52127  1  0  0  0
 53 54  1  0  0  0
 54 55  2  0  0  0
 54128  1  0  0  0
 55 57  1  0  0  0
 55129  1  0  0  0
 56 69  2  0  0  0
 57 58  2  0  0  0
 57130  1  0  0  0
 58131  1  0  0  0
 59 60  1  0  0  0
 59 61  1  0  0  0
 59 62  1  0  0  0
 60132  1  0  0  0
 60133  1  0  0  0
 60134  1  0  0  0
 61135  1  0  0  0
 61136  1  0  0  0
 61137  1  0  0  0
 62138  1  0  0  0
 62139  1  0  0  0
 62140  1  0  0  0
 63 65  1  0  0  0
 63141  1  0  0  0
 63142  1  0  0  0
 63143  1  0  0  0
 64144  1  0  0  0
 65145  1  0  0  0
 68 75  1  0  0  0
 71 72  2  0  0  0
 71 73  1  0  0  0
 71146  1  0  0  0
 72 75  1  0  0  0
 72147  1  0  0  0
 73 74  2  0  0  0
 73 77  1  0  0  0
 74 81  1  0  0  0
 74 83  1  0  0  0
 75 83  2  0  0  0
 76 80  1  0  0  0
 76 84  1  0  0  0
 76 86  2  0  0  0
 77148  1  0  0  0
 77149  1  0  0  0
 77150  1  0  0  0
 78151  1  0  0  0
 78152  1  0  0  0
 78153  1  0  0  0
 78 81  1  0  0  0
 79154  1  0  0  0
 79155  1  0  0  0
 79156  1  0  0  0
 79 82  1  0  0  0
 80 85  1  0  0  0
 80157  1  0  0  0
 80158  1  0  0  0
 81 82  1  0  0  0
 81159  1  0  0  0
 82 84  1  0  0  0
 82160  1  0  0  0
 84161  1  0  0  0
 85162  1  0  0  0
M  ISO  4   1 100  68 101  75 101  85 100
M  END
> <chiral flag>
0

> <version>
0

> <s_m_source_file>
/data/baiqing/PycharmProjects/Reinvent-master-3.2/result/LINK_invent/BTK/process_docking_weight1_custom_sum_contain_oxygen_bond_distance_aromatic_linkinvent_7_9_3/rearranged_h_0108.sdf

> <i_m_source_file_index>
47

> <r_mmod_Potential_Energy-OPLS-2005>
-187.075622558594

> <r_mmod_Stretch_Energy-OPLS-2005>
79.2202072143555

> <r_mmod_Bend_Energy-OPLS-2005>
183.02734375

> <r_mmod_Torsional_Energy-OPLS-2005>
227.118011474609

> <r_mmod_Improper_Torsional_Energy-OPLS-2005>
4.2981014251709

> <r_mmod_Van_der_Waal_Energy-OPLS-2005>
152.162475585938

> <r_mmod_Electrostatic_Energy-OPLS-2005>
-628.942993164062

> <r_mmod_Solvation_Energy-OPLS-2005>
-243.216384887695

> <b_mmod_Minimization_Converged-OPLS-2005>
0

> <r_mmod_RMS_Derivative-OPLS-2005>
3.93103194236755

$$$$
47
                    3D
 Structure written by MMmdl.
150158  0  0  1  0            999 V2000
  -30.5416  -15.0100   20.3868 C   0  0  0  0  0  0
  -30.4399  -12.6245   19.5048 C   0  0  0  0  0  0
  -29.5271  -12.5121   18.2621 C   0  0  0  0  0  0
  -28.0631  -12.2919   18.6853 C   0  0  0  0  0  0
  -27.6247  -13.2475   19.8239 C   0  0  2  0  0  0
  -28.6647  -13.3313   20.9603 C   0  0  0  0  0  0
  -25.2492  -13.8224   20.5714 C   0  0  0  0  0  0
  -24.1792  -13.0457   20.9230 C   0  0  0  0  0  0
  -24.6384  -11.6926   20.8698 C   0  0  0  0  0  0
  -23.9052  -10.4306   21.0374 C   0  0  0  0  0  0
  -24.3621   -9.4228   21.9152 C   0  0  0  0  0  0
  -23.6315   -8.2242   22.0736 C   0  0  0  0  0  0
  -22.4302   -8.0260   21.3529 C   0  0  0  0  0  0
  -21.9913   -9.0232   20.4632 C   0  0  0  0  0  0
  -22.7219  -10.2130   20.3033 C   0  0  0  0  0  0
  -21.6855   -6.0712   22.5258 C   0  0  0  0  0  0
  -21.4012   -6.5620   23.8200 C   0  0  0  0  0  0
  -21.3669   -5.6784   24.9170 C   0  0  0  0  0  0
  -21.6059   -4.3045   24.7220 C   0  0  0  0  0  0
  -21.8827   -3.8130   23.4340 C   0  0  0  0  0  0
  -21.9221   -4.6941   22.3397 C   0  0  0  0  0  0
  -22.7818  -13.5211   21.1897 C   0  0  0  0  0  0
  -22.1682   -4.2127   21.0976 F   0  0  0  0  0  0
  -21.5645   -3.4527   25.7736 F   0  0  0  0  0  0
  -29.9341  -13.7482   20.3522 N   0  0  0  0  0  0
  -26.2882  -12.9422   20.3178 N   0  0  0  0  0  0
  -25.9315  -11.6557   20.5668 N   0  0  0  0  0  0
  -22.0498  -12.8169   22.0439 N   0  0  0  0  0  0
  -25.4241  -15.1941   20.4150 N   0  0  0  0  0  0
  -31.7527  -15.0401   20.1439 O   0  0  0  0  0  0
  -21.6665   -6.8850   21.4222 O   0  0  0  0  0  0
  -22.3506  -14.5526   20.6765 O   0  0  0  0  0  0
  -24.6486  -31.8396   23.1835 C   0  0  0  0  0  0
  -25.9228  -32.4671   23.8261 C   0  0  1  0  0  0
  -27.2236  -27.0744   20.1474 C   0  0  0  0  0  0
  -25.5943  -33.8483   24.2168 N   0  0  0  0  0  0
  -23.4578  -30.4535   21.5324 C   0  0  2  0  0  0
  -24.9076  -28.8695   20.1138 C   0  0  0  0  0  0
  -22.7595  -29.4511   22.4864 C   0  0  0  0  0  0
  -18.0293  -28.1422   22.8480 C   0  0  0  0  0  0
  -24.1503  -36.7240   23.2641 C   0  0  0  0  0  0
  -26.0194  -30.6874   21.3960 C   0  0  0  0  0  0
  -26.0880  -29.2949   20.7343 C   0  0  0  0  0  0
  -27.2448  -28.4158   20.7289 C   0  0  0  0  0  0
  -26.0097  -26.7636   19.4939 C   0  0  0  0  0  0
  -24.8835  -27.6179   19.4792 C   0  0  0  0  0  0
  -23.6878  -29.7784   20.1544 C   0  0  0  0  0  0
  -25.4139  -36.3024   24.0303 C   0  0  1  0  0  0
  -20.5917  -28.3752   23.1232 C   0  0  2  0  0  0
  -20.6795  -26.9451   22.5406 C   0  0  0  0  0  0
  -19.5755  -26.6410   21.5228 C   0  0  0  0  0  0
  -18.1940  -26.7959   22.1636 C   0  0  0  0  0  0
  -19.1554  -28.8905   23.2855 C   0  0  0  0  0  0
  -18.9464  -30.1500   23.8884 C   0  0  0  0  0  0
  -17.6467  -30.6624   24.0555 C   0  0  0  0  0  0
  -25.9087  -34.9396   23.5055 C   0  0  0  0  0  0
  -16.5357  -29.9112   23.6347 C   0  0  0  0  0  0
  -16.7284  -28.6526   23.0381 C   0  0  0  0  0  0
  -26.4541  -31.6556   25.0732 C   0  0  0  0  0  0
  -25.3710  -31.3762   26.1414 C   0  0  0  0  0  0
  -27.0400  -30.2930   24.6375 C   0  0  0  0  0  0
  -27.6075  -32.4330   25.7492 C   0  0  0  0  0  0
  -27.5586  -37.1764   24.8459 C   0  0  0  0  0  0
  -21.4284  -29.3064   22.3593 N   0  0  0  0  0  0
  -26.4304  -37.3736   23.9397 N   0  0  0  0  0  0
  -24.7287  -31.0153   22.0919 N   0  0  0  0  0  0
  -23.4194  -28.8064   23.3059 O   0  0  0  0  0  0
  -28.2786  -26.0675   20.1886 O   0  0  0  0  0  0
  -26.5691  -34.8898   22.4651 O   0  0  0  0  0  0
  -23.5576  -32.1313   23.6987 O   0  0  0  0  0  0
  -27.9501  -19.3850   20.5330 C   0  0  0  0  0  0
  -27.6648  -20.8121   20.4781 C   0  0  0  0  0  0
  -29.2885  -19.1323   20.3451 C   0  0  0  0  0  0
  -28.8061  -21.5525   20.2701 C   0  0  0  0  0  0
  -30.2183  -17.7544   20.2712 C   0  0  0  0  0  0
  -28.0204  -24.4977   20.1462 C   0  0  0  0  0  0
  -29.1354  -23.1848   20.1333 C   0  0  2  0  0  0
  -29.7907  -16.2277   20.4714 N   0  0  0  0  0  0
  -30.0057  -23.3266   18.9499 N   0  3  0  0  0  0
  -29.8121  -20.4908   20.1791 O   0  0  0  0  0  0
  -31.4723  -12.7796   19.1903 H   0  0  0  0  0  0
  -30.4391  -11.6900   20.0689 H   0  0  0  0  0  0
  -29.8525  -11.6884   17.6253 H   0  0  0  0  0  0
  -29.6130  -13.4161   17.6597 H   0  0  0  0  0  0
  -27.9748  -11.2584   19.0203 H   0  0  0  0  0  0
  -27.3974  -12.3889   17.8271 H   0  0  0  0  0  0
  -27.5709  -14.2341   19.3639 H   0  0  0  0  0  0
  -28.7704  -12.3749   21.4735 H   0  0  0  0  0  0
  -28.3554  -14.0553   21.7124 H   0  0  0  0  0  0
  -25.2755   -9.5718   22.4735 H   0  0  0  0  0  0
  -24.0049   -7.4617   22.7417 H   0  0  0  0  0  0
  -21.0858   -8.8705   19.8907 H   0  0  0  0  0  0
  -22.3631  -10.9666   19.6145 H   0  0  0  0  0  0
  -21.1972   -7.6123   23.9673 H   0  0  0  0  0  0
  -21.1495   -6.0519   25.9069 H   0  0  0  0  0  0
  -22.0610   -2.7587   23.2849 H   0  0  0  0  0  0
  -22.4191  -11.9889   22.4879 H   0  0  0  0  0  0
  -21.1070  -13.1103   22.2592 H   0  0  0  0  0  0
  -24.6726  -15.8621   20.5336 H   0  0  0  0  0  0
  -26.2709  -15.6176   20.0597 H   0  0  0  0  0  0
  -26.7287  -32.5253   23.0969 H   0  0  0  0  0  0
  -24.9986  -33.9603   25.0237 H   0  0  0  0  0  0
  -22.7634  -31.2816   21.3722 H   0  0  0  0  0  0
  -23.3789  -35.9546   23.3272 H   0  0  0  0  0  0
  -24.3583  -36.8910   22.2063 H   0  0  0  0  0  0
  -23.7228  -37.6405   23.6710 H   0  0  0  0  0  0
  -26.1912  -31.4414   20.6256 H   0  0  0  0  0  0
  -26.8822  -30.7346   22.0477 H   0  0  0  0  0  0
  -28.1483  -28.7343   21.2303 H   0  0  0  0  0  0
  -25.8888  -25.8175   18.9910 H   0  0  0  0  0  0
  -23.9833  -27.2913   18.9781 H   0  0  0  0  0  0
  -23.8273  -30.5520   19.3990 H   0  0  0  0  0  0
  -22.8018  -29.2233   19.8418 H   0  0  0  0  0  0
  -25.1331  -36.1846   25.0793 H   0  0  0  0  0  0
  -20.9998  -28.3369   24.1355 H   0  0  0  0  0  0
  -20.5759  -26.2352   23.3636 H   0  0  0  0  0  0
  -21.6659  -26.7506   22.1164 H   0  0  0  0  0  0
  -19.6940  -25.6327   21.1276 H   0  0  0  0  0  0
  -19.6711  -27.3205   20.6753 H   0  0  0  0  0  0
  -17.4214  -26.6692   21.4048 H   0  0  0  0  0  0
  -18.0347  -26.0132   22.9058 H   0  0  0  0  0  0
  -19.7936  -30.7317   24.2272 H   0  0  0  0  0  0
  -17.5012  -31.6304   24.5153 H   0  0  0  0  0  0
  -15.5359  -30.3002   23.7708 H   0  0  0  0  0  0
  -15.8674  -28.0837   22.7135 H   0  0  0  0  0  0
  -24.5746  -30.7341   25.7641 H   0  0  0  0  0  0
  -24.9113  -32.2982   26.4986 H   0  0  0  0  0  0
  -25.7931  -30.8707   27.0106 H   0  0  0  0  0  0
  -26.3032  -29.6631   24.1384 H   0  0  0  0  0  0
  -27.3951  -29.7262   25.4989 H   0  0  0  0  0  0
  -27.8976  -30.4118   23.9750 H   0  0  0  0  0  0
  -27.2643  -33.3560   26.2158 H   0  0  0  0  0  0
  -28.3805  -32.7008   25.0285 H   0  0  0  0  0  0
  -28.0854  -31.8441   26.5317 H   0  0  0  0  0  0
  -28.2579  -38.0086   24.7528 H   0  0  0  0  0  0
  -28.1116  -36.2613   24.6274 H   0  0  0  0  0  0
  -27.2302  -37.1373   25.8863 H   0  0  0  0  0  0
  -20.9514  -29.8694   21.6686 H   0  0  0  0  0  0
  -26.0173  -38.2799   24.1425 H   0  0  0  0  0  0
  -27.2168  -18.6065   20.6964 H   0  0  0  0  0  0
  -26.6866  -21.2569   20.6020 H   0  0  0  0  0  0
  -31.0566  -17.9024   20.9566 H   0  0  0  0  0  0
  -30.6902  -17.7577   19.2876 H   0  0  0  0  0  0
  -27.3823  -24.3144   21.0116 H   0  0  0  0  0  0
  -27.3794  -24.3120   19.2856 H   0  0  0  0  0  0
  -29.7924  -23.3984   20.9764 H   0  0  0  0  0  0
  -28.8051  -16.0896   20.6380 H   0  0  0  0  0  0
  -29.4731  -23.2850   18.0998 H   0  0  0  0  0  0
  -30.6656  -22.5706   18.9320 H   0  0  0  0  0  0
  -30.5145  -24.1923   18.9685 H   0  0  0  0  0  0
  1 25  1  0  0  0
  1 30  2  0  0  0
  1 78  1  0  0  0
  2  3  1  0  0  0
  2 25  1  0  0  0
  2 81  1  0  0  0
  2 82  1  0  0  0
  3  4  1  0  0  0
  3 83  1  0  0  0
  3 84  1  0  0  0
  4  5  1  0  0  0
  4 85  1  0  0  0
  4 86  1  0  0  0
  5  6  1  0  0  0
  5 26  1  0  0  0
  5 87  1  0  0  0
  6 25  1  0  0  0
  6 88  1  0  0  0
  6 89  1  0  0  0
  7  8  2  0  0  0
  7 26  1  0  0  0
  7 29  1  0  0  0
  8  9  1  0  0  0
  8 22  1  0  0  0
  9 10  1  0  0  0
  9 27  2  0  0  0
 10 11  2  0  0  0
 10 15  1  0  0  0
 11 12  1  0  0  0
 11 90  1  0  0  0
 12 13  2  0  0  0
 12 91  1  0  0  0
 13 14  1  0  0  0
 13 31  1  0  0  0
 14 15  2  0  0  0
 14 92  1  0  0  0
 15 93  1  0  0  0
 16 17  2  0  0  0
 16 21  1  0  0  0
 16 31  1  0  0  0
 17 18  1  0  0  0
 17 94  1  0  0  0
 18 19  2  0  0  0
 18 95  1  0  0  0
 19 20  1  0  0  0
 19 24  1  0  0  0
 20 21  2  0  0  0
 20 96  1  0  0  0
 21 23  1  0  0  0
 22 28  1  0  0  0
 22 32  2  0  0  0
 26 27  1  0  0  0
 28 97  1  0  0  0
 28 98  1  0  0  0
 29 99  1  0  0  0
 29100  1  0  0  0
 33 34  1  0  0  0
 33 66  1  0  0  0
 33 70  2  0  0  0
 34 36  1  0  0  0
 34 59  1  0  0  0
 34101  1  0  0  0
 35 44  2  0  0  0
 35 45  1  0  0  0
 35 68  1  0  0  0
 36 56  1  0  0  0
 36102  1  0  0  0
 37 39  1  0  0  0
 37 47  1  0  0  0
 37 66  1  0  0  0
 37103  1  0  0  0
 38 43  2  0  0  0
 38 46  1  0  0  0
 38 47  1  0  0  0
 39 64  1  0  0  0
 39 67  2  0  0  0
 40 52  1  0  0  0
 40 53  2  0  0  0
 40 58  1  0  0  0
 41104  1  0  0  0
 41105  1  0  0  0
 41106  1  0  0  0
 41 48  1  0  0  0
 42 43  1  0  0  0
 42 66  1  0  0  0
 42107  1  0  0  0
 42108  1  0  0  0
 43 44  1  0  0  0
 44109  1  0  0  0
 45 46  2  0  0  0
 45110  1  0  0  0
 46111  1  0  0  0
 47112  1  0  0  0
 47113  1  0  0  0
 48 56  1  0  0  0
 48 65  1  0  0  0
 48114  1  0  0  0
 49 50  1  0  0  0
 49 53  1  0  0  0
 49 64  1  0  0  0
 49115  1  0  0  0
 50 51  1  0  0  0
 50116  1  0  0  0
 50117  1  0  0  0
 51 52  1  0  0  0
 51118  1  0  0  0
 51119  1  0  0  0
 52120  1  0  0  0
 52121  1  0  0  0
 53 54  1  0  0  0
 54 55  2  0  0  0
 54122  1  0  0  0
 55 57  1  0  0  0
 55123  1  0  0  0
 56 69  2  0  0  0
 57 58  2  0  0  0
 57124  1  0  0  0
 58125  1  0  0  0
 59 60  1  0  0  0
 59 61  1  0  0  0
 59 62  1  0  0  0
 60126  1  0  0  0
 60127  1  0  0  0
 60128  1  0  0  0
 61129  1  0  0  0
 61130  1  0  0  0
 61131  1  0  0  0
 62132  1  0  0  0
 62133  1  0  0  0
 62134  1  0  0  0
 63 65  1  0  0  0
 63135  1  0  0  0
 63136  1  0  0  0
 63137  1  0  0  0
 64138  1  0  0  0
 65139  1  0  0  0
 68 76  1  0  0  0
 71 72  1  0  0  0
 71 73  2  0  0  0
 71140  1  0  0  0
 72 74  2  0  0  0
 72141  1  0  0  0
 73 75  1  0  0  0
 73 80  1  0  0  0
 74 77  1  0  0  0
 74 80  1  0  0  0
 75 78  1  0  0  0
 75142  1  0  0  0
 75143  1  0  0  0
 76 77  1  0  0  0
 76144  1  0  0  0
 76145  1  0  0  0
 77 79  1  0  0  0
 77146  1  0  0  0
 78147  1  0  0  0
 79148  1  0  0  0
 79149  1  0  0  0
 79150  1  0  0  0
M  CHG  1  79   1
M  ISO  4   1 100  68 101  76 101  78 100
M  END
> <chiral flag>
0

> <version>
0

> <s_m_source_file>
/data/baiqing/PycharmProjects/Reinvent-master-3.2/result/LINK_invent/BTK/process_docking_weight1_custom_sum_contain_oxygen_bond_distance_aromatic_linkinvent_7_9_3/rearranged_h_0108.sdf

> <i_m_source_file_index>
48

> <r_mmod_Potential_Energy-OPLS-2005>
267.073333740234

> <r_mmod_Stretch_Energy-OPLS-2005>
324.018218994141

> <r_mmod_Bend_Energy-OPLS-2005>
278.584045410156

> <r_mmod_Torsional_Energy-OPLS-2005>
208.668014526367

> <r_mmod_Improper_Torsional_Energy-OPLS-2005>
4.55153751373291

> <r_mmod_Van_der_Waal_Energy-OPLS-2005>
108.533142089844

> <r_mmod_Electrostatic_Energy-OPLS-2005>
-406.918640136719

> <r_mmod_Solvation_Energy-OPLS-2005>
-492.8154296875

> <b_mmod_Minimization_Converged-OPLS-2005>
0

> <r_mmod_RMS_Derivative-OPLS-2005>
4.23693561553955

$$$$
48
                    3D
 Structure written by MMmdl.
152159  0  0  1  0            999 V2000
  -30.3364  -15.5577   20.3338 C   0  0  0  0  0  0
  -30.4254  -13.0240   19.5351 C   0  0  0  0  0  0
  -29.5444  -12.6356   18.3159 C   0  0  0  0  0  0
  -28.1139  -12.2946   18.7600 C   0  0  0  0  0  0
  -27.5970  -13.3007   19.8138 C   0  0  2  0  0  0
  -28.6172  -13.6071   20.9343 C   0  0  0  0  0  0
  -25.2328  -13.8276   20.5788 C   0  0  0  0  0  0
  -24.1711  -13.0433   20.9285 C   0  0  0  0  0  0
  -24.6402  -11.6941   20.8768 C   0  0  0  0  0  0
  -23.9106  -10.4291   21.0401 C   0  0  0  0  0  0
  -24.3644   -9.4203   21.9182 C   0  0  0  0  0  0
  -23.6306   -8.2244   22.0754 C   0  0  0  0  0  0
  -22.4289   -8.0284   21.3543 C   0  0  0  0  0  0
  -21.9933   -9.0259   20.4644 C   0  0  0  0  0  0
  -22.7274  -10.2133   20.3052 C   0  0  0  0  0  0
  -21.6857   -6.0736   22.5277 C   0  0  0  0  0  0
  -21.4018   -6.5639   23.8210 C   0  0  0  0  0  0
  -21.3661   -5.6791   24.9171 C   0  0  0  0  0  0
  -21.6045   -4.3054   24.7223 C   0  0  0  0  0  0
  -21.8819   -3.8146   23.4344 C   0  0  0  0  0  0
  -21.9194   -4.6963   22.3399 C   0  0  0  0  0  0
  -22.7723  -13.5168   21.1922 C   0  0  0  0  0  0
  -22.1662   -4.2147   21.0977 F   0  0  0  0  0  0
  -21.5628   -3.4538   25.7736 F   0  0  0  0  0  0
  -29.8021  -14.2046   20.2801 N   0  0  0  0  0  0
  -26.2769  -12.9595   20.3235 N   0  0  0  0  0  0
  -25.9346  -11.6674   20.5713 N   0  0  0  0  0  0
  -22.0390  -12.8144   22.0475 N   0  0  0  0  0  0
  -25.3929  -15.2015   20.4223 N   0  0  0  0  0  0
  -31.5697  -15.4953   20.1761 O   0  0  0  0  0  0
  -21.6647   -6.8883   21.4240 O   0  0  0  0  0  0
  -22.3398  -14.5468   20.6758 O   0  0  0  0  0  0
  -24.6805  -31.8039   23.1534 C   0  0  0  0  0  0
  -25.9399  -32.4489   23.8069 C   0  0  1  0  0  0
  -27.2228  -26.7380   20.2123 C   0  0  0  0  0  0
  -25.5989  -33.8313   24.1963 N   0  0  0  0  0  0
  -23.5047  -30.4065   21.5077 C   0  0  2  0  0  0
  -24.9601  -28.7533   20.1183 C   0  0  0  0  0  0
  -22.7752  -29.4335   22.4728 C   0  0  0  0  0  0
  -18.0337  -28.1420   22.8460 C   0  0  0  0  0  0
  -24.1493  -36.7164   23.2652 C   0  0  0  0  0  0
  -26.0832  -30.5487   21.4111 C   0  0  0  0  0  0
  -26.1489  -29.1169   20.7619 C   0  0  0  0  0  0
  -27.2680  -28.1365   20.7755 C   0  0  0  0  0  0
  -26.0004  -26.5721   19.5155 C   0  0  0  0  0  0
  -24.9224  -27.5055   19.4721 C   0  0  0  0  0  0
  -23.7554  -29.7053   20.1421 C   0  0  0  0  0  0
  -25.4142  -36.2910   24.0285 C   0  0  1  0  0  0
  -20.5971  -28.3775   23.1154 C   0  0  2  0  0  0
  -20.6804  -26.9439   22.5406 C   0  0  0  0  0  0
  -19.5777  -26.6372   21.5221 C   0  0  0  0  0  0
  -18.1959  -26.7948   22.1624 C   0  0  0  0  0  0
  -19.1602  -28.8922   23.2786 C   0  0  0  0  0  0
  -18.9509  -30.1507   23.8827 C   0  0  0  0  0  0
  -17.6500  -30.6602   24.0553 C   0  0  0  0  0  0
  -25.9122  -34.9299   23.4961 C   0  0  0  0  0  0
  -16.5389  -29.9085   23.6351 C   0  0  0  0  0  0
  -16.7318  -28.6508   23.0366 C   0  0  0  0  0  0
  -26.4582  -31.6508   25.0678 C   0  0  0  0  0  0
  -25.3655  -31.3818   26.1298 C   0  0  0  0  0  0
  -27.0509  -30.2851   24.6549 C   0  0  0  0  0  0
  -27.6036  -32.4362   25.7495 C   0  0  0  0  0  0
  -27.5564  -37.1735   24.8465 C   0  0  0  0  0  0
  -21.4403  -29.3030   22.3480 N   0  0  0  0  0  0
  -26.4271  -37.3667   23.9411 N   0  0  0  0  0  0
  -24.7795  -30.9518   22.0769 N   0  0  0  0  0  0
  -23.4212  -28.7934   23.3061 O   0  0  0  0  0  0
  -28.2002  -25.5446   20.2772 O   0  0  0  0  0  0
  -26.5765  -34.8871   22.4580 O   0  0  0  0  0  0
  -23.5833  -32.1097   23.6510 O   0  0  0  0  0  0
  -30.1661  -18.6421   22.8661 C   0  0  0  0  0  0
  -30.6311  -18.8404   19.0090 C   0  0  0  0  0  0
  -30.7964  -18.9167   21.4932 C   0  0  0  0  0  0
  -28.9922  -22.1667   20.2925 C   0  0  0  0  0  0
  -28.7607  -20.2548   20.3017 C   0  0  0  0  0  0
  -27.9951  -23.8123   20.2111 C   0  0  0  0  0  0
  -29.8371  -18.6631   20.3126 C   0  0  1  0  0  0
  -29.5868  -16.9151   20.3724 N   0  0  0  0  0  0
  -31.4238  -13.2730   19.1744 H   0  0  0  0  0  0
  -30.5680  -12.1701   20.1998 H   0  0  0  0  0  0
  -29.9835  -11.7949   17.7773 H   0  0  0  0  0  0
  -29.5163  -13.4703   17.6140 H   0  0  0  0  0  0
  -28.1308  -11.2935   19.1926 H   0  0  0  0  0  0
  -27.4423  -12.2496   17.9017 H   0  0  0  0  0  0
  -27.4684  -14.2296   19.2559 H   0  0  0  0  0  0
  -28.8598  -12.7170   21.5168 H   0  0  0  0  0  0
  -28.1998  -14.3311   21.6357 H   0  0  0  0  0  0
  -25.2782   -9.5678   22.4768 H   0  0  0  0  0  0
  -24.0006   -7.4637   22.7479 H   0  0  0  0  0  0
  -21.0862   -8.8786   19.8951 H   0  0  0  0  0  0
  -22.3730  -10.9674   19.6165 H   0  0  0  0  0  0
  -21.2013   -7.6148   23.9712 H   0  0  0  0  0  0
  -21.1482   -6.0522   25.9074 H   0  0  0  0  0  0
  -22.0598   -2.7608   23.2845 H   0  0  0  0  0  0
  -22.4028  -11.9816   22.4862 H   0  0  0  0  0  0
  -21.1001  -13.1145   22.2682 H   0  0  0  0  0  0
  -24.6207  -15.8498   20.5342 H   0  0  0  0  0  0
  -26.2326  -15.6439   20.0730 H   0  0  0  0  0  0
  -26.7481  -32.4971   23.0783 H   0  0  0  0  0  0
  -25.0040  -33.9358   25.0051 H   0  0  0  0  0  0
  -22.8281  -31.2430   21.3205 H   0  0  0  0  0  0
  -23.3775  -35.9473   23.3267 H   0  0  0  0  0  0
  -24.3562  -36.8876   22.2076 H   0  0  0  0  0  0
  -23.7234  -37.6323   23.6761 H   0  0  0  0  0  0
  -26.2810  -31.2758   20.6223 H   0  0  0  0  0  0
  -26.9362  -30.6156   22.0740 H   0  0  0  0  0  0
  -28.1647  -28.4204   21.3079 H   0  0  0  0  0  0
  -25.8404  -25.6255   19.0193 H   0  0  0  0  0  0
  -24.0231  -27.2176   18.9448 H   0  0  0  0  0  0
  -23.9280  -30.4663   19.3801 H   0  0  0  0  0  0
  -22.8607  -29.1702   19.8196 H   0  0  0  0  0  0
  -25.1348  -36.1675   25.0775 H   0  0  0  0  0  0
  -21.0052  -28.3399   24.1281 H   0  0  0  0  0  0
  -20.5677  -26.2399   23.3666 H   0  0  0  0  0  0
  -21.6664  -26.7392   22.1215 H   0  0  0  0  0  0
  -19.6935  -25.6268   21.1290 H   0  0  0  0  0  0
  -19.6716  -27.3151   20.6726 H   0  0  0  0  0  0
  -17.4230  -26.6700   21.4023 H   0  0  0  0  0  0
  -18.0339  -26.0104   22.9032 H   0  0  0  0  0  0
  -19.7986  -30.7342   24.2162 H   0  0  0  0  0  0
  -17.5051  -31.6274   24.5170 H   0  0  0  0  0  0
  -15.5385  -30.2962   23.7715 H   0  0  0  0  0  0
  -15.8720  -28.0803   22.7116 H   0  0  0  0  0  0
  -24.5861  -30.7147   25.7594 H   0  0  0  0  0  0
  -24.8816  -32.3038   26.4529 H   0  0  0  0  0  0
  -25.7828  -30.9104   27.0205 H   0  0  0  0  0  0
  -26.3217  -29.6472   24.1542 H   0  0  0  0  0  0
  -27.3956  -29.7286   25.5274 H   0  0  0  0  0  0
  -27.9189  -30.3986   24.0052 H   0  0  0  0  0  0
  -27.2583  -33.3737   26.1867 H   0  0  0  0  0  0
  -28.3946  -32.6807   25.0394 H   0  0  0  0  0  0
  -28.0593  -31.8629   26.5578 H   0  0  0  0  0  0
  -28.2543  -38.0063   24.7521 H   0  0  0  0  0  0
  -28.1095  -36.2586   24.6281 H   0  0  0  0  0  0
  -27.2281  -37.1360   25.8866 H   0  0  0  0  0  0
  -20.9705  -29.8694   21.6554 H   0  0  0  0  0  0
  -26.0100  -38.2716   24.1430 H   0  0  0  0  0  0
  -30.8760  -18.8579   23.6651 H   0  0  0  0  0  0
  -29.8651  -17.6001   22.9722 H   0  0  0  0  0  0
  -29.2864  -19.2631   23.0335 H   0  0  0  0  0  0
  -31.0254  -19.8535   18.9171 H   0  0  0  0  0  0
  -29.9963  -18.6594   18.1411 H   0  0  0  0  0  0
  -31.4781  -18.1561   18.9464 H   0  0  0  0  0  0
  -31.6893  -18.2976   21.3903 H   0  0  0  0  0  0
  -31.1493  -19.9489   21.4638 H   0  0  0  0  0  0
  -29.7078  -22.2997   19.4813 H   0  0  0  0  0  0
  -29.5969  -22.3184   21.1864 H   0  0  0  0  0  0
  -28.1099  -20.0940   19.4420 H   0  0  0  0  0  0
  -28.0873  -20.1030   21.1454 H   0  0  0  0  0  0
  -27.2452  -23.6697   20.9894 H   0  0  0  0  0  0
  -27.4245  -23.6998   19.2892 H   0  0  0  0  0  0
  -28.5992  -16.7197   20.4551 H   0  0  0  0  0  0
  1 25  1  0  0  0
  1 30  2  0  0  0
  1 78  1  0  0  0
  2  3  1  0  0  0
  2 25  1  0  0  0
  2 79  1  0  0  0
  2 80  1  0  0  0
  3  4  1  0  0  0
  3 81  1  0  0  0
  3 82  1  0  0  0
  4  5  1  0  0  0
  4 83  1  0  0  0
  4 84  1  0  0  0
  5  6  1  0  0  0
  5 26  1  0  0  0
  5 85  1  0  0  0
  6 25  1  0  0  0
  6 86  1  0  0  0
  6 87  1  0  0  0
  7  8  2  0  0  0
  7 26  1  0  0  0
  7 29  1  0  0  0
  8  9  1  0  0  0
  8 22  1  0  0  0
  9 10  1  0  0  0
  9 27  2  0  0  0
 10 11  2  0  0  0
 10 15  1  0  0  0
 11 12  1  0  0  0
 11 88  1  0  0  0
 12 13  2  0  0  0
 12 89  1  0  0  0
 13 14  1  0  0  0
 13 31  1  0  0  0
 14 15  2  0  0  0
 14 90  1  0  0  0
 15 91  1  0  0  0
 16 17  2  0  0  0
 16 21  1  0  0  0
 16 31  1  0  0  0
 17 18  1  0  0  0
 17 92  1  0  0  0
 18 19  2  0  0  0
 18 93  1  0  0  0
 19 20  1  0  0  0
 19 24  1  0  0  0
 20 21  2  0  0  0
 20 94  1  0  0  0
 21 23  1  0  0  0
 22 28  1  0  0  0
 22 32  2  0  0  0
 26 27  1  0  0  0
 28 95  1  0  0  0
 28 96  1  0  0  0
 29 97  1  0  0  0
 29 98  1  0  0  0
 33 34  1  0  0  0
 33 66  1  0  0  0
 33 70  2  0  0  0
 34 36  1  0  0  0
 34 59  1  0  0  0
 34 99  1  0  0  0
 35 44  2  0  0  0
 35 45  1  0  0  0
 35 68  1  0  0  0
 36 56  1  0  0  0
 36100  1  0  0  0
 37 39  1  0  0  0
 37 47  1  0  0  0
 37 66  1  0  0  0
 37101  1  0  0  0
 38 43  2  0  0  0
 38 46  1  0  0  0
 38 47  1  0  0  0
 39 64  1  0  0  0
 39 67  2  0  0  0
 40 52  1  0  0  0
 40 53  2  0  0  0
 40 58  1  0  0  0
 41102  1  0  0  0
 41103  1  0  0  0
 41104  1  0  0  0
 41 48  1  0  0  0
 42 43  1  0  0  0
 42 66  1  0  0  0
 42105  1  0  0  0
 42106  1  0  0  0
 43 44  1  0  0  0
 44107  1  0  0  0
 45 46  2  0  0  0
 45108  1  0  0  0
 46109  1  0  0  0
 47110  1  0  0  0
 47111  1  0  0  0
 48 56  1  0  0  0
 48 65  1  0  0  0
 48112  1  0  0  0
 49 50  1  0  0  0
 49 53  1  0  0  0
 49 64  1  0  0  0
 49113  1  0  0  0
 50 51  1  0  0  0
 50114  1  0  0  0
 50115  1  0  0  0
 51 52  1  0  0  0
 51116  1  0  0  0
 51117  1  0  0  0
 52118  1  0  0  0
 52119  1  0  0  0
 53 54  1  0  0  0
 54 55  2  0  0  0
 54120  1  0  0  0
 55 57  1  0  0  0
 55121  1  0  0  0
 56 69  2  0  0  0
 57 58  2  0  0  0
 57122  1  0  0  0
 58123  1  0  0  0
 59 60  1  0  0  0
 59 61  1  0  0  0
 59 62  1  0  0  0
 60124  1  0  0  0
 60125  1  0  0  0
 60126  1  0  0  0
 61127  1  0  0  0
 61128  1  0  0  0
 61129  1  0  0  0
 62130  1  0  0  0
 62131  1  0  0  0
 62132  1  0  0  0
 63 65  1  0  0  0
 63133  1  0  0  0
 63134  1  0  0  0
 63135  1  0  0  0
 64136  1  0  0  0
 65137  1  0  0  0
 68 76  1  0  0  0
 71 73  1  0  0  0
 71138  1  0  0  0
 71139  1  0  0  0
 71140  1  0  0  0
 72141  1  0  0  0
 72142  1  0  0  0
 72143  1  0  0  0
 72 77  1  0  0  0
 73 77  1  0  0  0
 73144  1  0  0  0
 73145  1  0  0  0
 74 75  1  0  0  0
 74 76  1  0  0  0
 74146  1  0  0  0
 74147  1  0  0  0
 75 77  1  0  0  0
 75148  1  0  0  0
 75149  1  0  0  0
 76150  1  0  0  0
 76151  1  0  0  0
 77 78  1  0  0  0
 78152  1  0  0  0
M  ISO  4   1 100  68 101  76 101  78 100
M  END
> <chiral flag>
0

> <version>
0

> <s_m_source_file>
/data/baiqing/PycharmProjects/Reinvent-master-3.2/result/LINK_invent/BTK/process_docking_weight1_custom_sum_contain_oxygen_bond_distance_aromatic_linkinvent_7_9_3/rearranged_h_0108.sdf

> <i_m_source_file_index>
49

> <r_mmod_Potential_Energy-OPLS-2005>
2259.35717773438

> <r_mmod_Stretch_Energy-OPLS-2005>
1097.62451171875

> <r_mmod_Bend_Energy-OPLS-2005>
607.240234375

> <r_mmod_Torsional_Energy-OPLS-2005>
216.943511962891

> <r_mmod_Improper_Torsional_Energy-OPLS-2005>
3.72549438476562

> <r_mmod_Van_der_Waal_Energy-OPLS-2005>
106.144241333008

> <r_mmod_Electrostatic_Energy-OPLS-2005>
-372.683898925781

> <r_mmod_Solvation_Energy-OPLS-2005>
-202.418670654297

> <b_mmod_Minimization_Converged-OPLS-2005>
0

> <r_mmod_RMS_Derivative-OPLS-2005>
0.458785772323608

$$$$
49
                    3D
 Structure written by MMmdl.
160168  0  0  1  0            999 V2000
  -30.3839  -15.3477   20.3665 C   0  0  0  0  0  0
  -30.4353  -12.8751   19.5174 C   0  0  0  0  0  0
  -29.5344  -12.5891   18.2889 C   0  0  0  0  0  0
  -28.0894  -12.2948   18.7215 C   0  0  0  0  0  0
  -27.6037  -13.2734   19.8174 C   0  0  2  0  0  0
  -28.6345  -13.4678   20.9466 C   0  0  0  0  0  0
  -25.2377  -13.8214   20.5727 C   0  0  0  0  0  0
  -24.1712  -13.0434   20.9266 C   0  0  0  0  0  0
  -24.6354  -11.6921   20.8758 C   0  0  0  0  0  0
  -23.9051  -10.4290   21.0415 C   0  0  0  0  0  0
  -24.3605   -9.4222   21.9215 C   0  0  0  0  0  0
  -23.6245   -8.2281   22.0827 C   0  0  0  0  0  0
  -22.4219   -8.0323   21.3607 C   0  0  0  0  0  0
  -21.9853   -9.0299   20.4705 C   0  0  0  0  0  0
  -22.7216  -10.2146   20.3072 C   0  0  0  0  0  0
  -21.6867   -6.0734   22.5279 C   0  0  0  0  0  0
  -21.4077   -6.5645   23.8217 C   0  0  0  0  0  0
  -21.3646   -5.6792   24.9170 C   0  0  0  0  0  0
  -21.6020   -4.3053   24.7211 C   0  0  0  0  0  0
  -21.8808   -3.8154   23.4327 C   0  0  0  0  0  0
  -21.9192   -4.6962   22.3391 C   0  0  0  0  0  0
  -22.7747  -13.5227   21.1857 C   0  0  0  0  0  0
  -22.1647   -4.2161   21.0952 F   0  0  0  0  0  0
  -21.5579   -3.4551   25.7723 F   0  0  0  0  0  0
  -29.8441  -14.0237   20.3091 N   0  0  0  0  0  0
  -26.2772  -12.9478   20.3161 N   0  0  0  0  0  0
  -25.9280  -11.6597   20.5691 N   0  0  0  0  0  0
  -22.0289  -12.8321   22.0391 N   0  0  0  0  0  0
  -25.4057  -15.1940   20.4161 N   0  0  0  0  0  0
  -31.6126  -15.3427   20.1888 O   0  0  0  0  0  0
  -21.6632   -6.8883   21.4243 O   0  0  0  0  0  0
  -22.3445  -14.5495   20.6606 O   0  0  0  0  0  0
  -24.6659  -31.8151   23.1603 C   0  0  0  0  0  0
  -25.9311  -32.4507   23.8112 C   0  0  1  0  0  0
  -27.2171  -26.8595   20.2141 C   0  0  0  0  0  0
  -25.5965  -33.8339   24.2018 N   0  0  0  0  0  0
  -23.4877  -30.4234   21.5075 C   0  0  2  0  0  0
  -24.9476  -28.7977   20.1175 C   0  0  0  0  0  0
  -22.7693  -29.4376   22.4701 C   0  0  0  0  0  0
  -18.0322  -28.1364   22.8433 C   0  0  0  0  0  0
  -24.1550  -36.7241   23.2644 C   0  0  0  0  0  0
  -26.0607  -30.6060   21.3986 C   0  0  0  0  0  0
  -26.1337  -29.1854   20.7544 C   0  0  0  0  0  0
  -27.2688  -28.2433   20.7685 C   0  0  0  0  0  0
  -26.0039  -26.6423   19.5255 C   0  0  0  0  0  0
  -24.9139  -27.5483   19.4790 C   0  0  0  0  0  0
  -23.7357  -29.7292   20.1398 C   0  0  0  0  0  0
  -25.4160  -36.2917   24.0292 C   0  0  1  0  0  0
  -20.5947  -28.3722   23.1139 C   0  0  2  0  0  0
  -20.6788  -26.9385   22.5375 C   0  0  0  0  0  0
  -19.5769  -26.6339   21.5167 C   0  0  0  0  0  0
  -18.1957  -26.7904   22.1589 C   0  0  0  0  0  0
  -19.1589  -28.8864   23.2787 C   0  0  0  0  0  0
  -18.9492  -30.1442   23.8846 C   0  0  0  0  0  0
  -17.6486  -30.6551   24.0538 C   0  0  0  0  0  0
  -25.9109  -34.9289   23.4995 C   0  0  0  0  0  0
  -16.5383  -29.9039   23.6296 C   0  0  0  0  0  0
  -16.7305  -28.6454   23.0330 C   0  0  0  0  0  0
  -26.4526  -31.6453   25.0659 C   0  0  0  0  0  0
  -25.3645  -31.3771   26.1319 C   0  0  0  0  0  0
  -27.0340  -30.2763   24.6441 C   0  0  0  0  0  0
  -27.6035  -32.4240   25.7446 C   0  0  0  0  0  0
  -27.5594  -37.1768   24.8420 C   0  0  0  0  0  0
  -21.4358  -29.3041   22.3494 N   0  0  0  0  0  0
  -26.4295  -37.3649   23.9374 N   0  0  0  0  0  0
  -24.7597  -30.9763   22.0764 N   0  0  0  0  0  0
  -23.4228  -28.7931   23.2937 O   0  0  0  0  0  0
  -28.1870  -25.6999   20.2306 O   0  0  0  0  0  0
  -26.5742  -34.8831   22.4594 O   0  0  0  0  0  0
  -23.5716  -32.1147   23.6656 O   0  0  0  0  0  0
  -29.4011  -21.3122   20.3707 C   0  0  0  0  0  0
  -27.3047  -21.4235   20.6156 C   0  0  0  0  0  0
  -28.3015  -22.3906   20.4973 C   0  0  0  0  0  0
  -29.0826  -19.8633   20.4280 C   0  0  0  0  0  0
  -25.2975  -19.2400   20.7293 C   0  0  0  0  0  0
  -27.0691  -18.3147   22.2751 C   0  0  0  0  0  0
  -29.9521  -18.2989   20.4486 C   0  0  0  0  0  0
  -28.2570  -24.3125   22.3143 C   0  0  0  0  0  0
  -27.9154  -24.1491   20.8174 C   0  0  1  0  0  0
  -26.7997  -18.9066   20.8790 C   0  0  0  0  0  0
  -27.7023  -20.0360   20.6201 N   0  0  0  0  0  0
  -29.6126  -16.6391   20.4257 N   0  0  0  0  0  0
  -27.7782  -25.5799   22.9038 N   0  3  0  0  0  0
  -31.4422  -13.1103   19.1736 H   0  0  0  0  0  0
  -30.5496  -11.9868   20.1386 H   0  0  0  0  0  0
  -29.9250  -11.7591   17.6982 H   0  0  0  0  0  0
  -29.5456  -13.4607   17.6348 H   0  0  0  0  0  0
  -28.0533  -11.2700   19.0962 H   0  0  0  0  0  0
  -27.4224  -12.3271   17.8610 H   0  0  0  0  0  0
  -27.5087  -14.2297   19.3043 H   0  0  0  0  0  0
  -28.8313  -12.5244   21.4597 H   0  0  0  0  0  0
  -28.2523  -14.1645   21.6946 H   0  0  0  0  0  0
  -25.2732   -9.5701   22.4824 H   0  0  0  0  0  0
  -23.9940   -7.4665   22.7560 H   0  0  0  0  0  0
  -21.0782   -8.8818   19.8998 H   0  0  0  0  0  0
  -22.3687  -10.9701   19.6188 H   0  0  0  0  0  0
  -21.2165   -7.6181   23.9724 H   0  0  0  0  0  0
  -21.1440   -6.0534   25.9061 H   0  0  0  0  0  0
  -22.0584   -2.7627   23.2824 H   0  0  0  0  0  0
  -22.3804  -12.0043   22.4970 H   0  0  0  0  0  0
  -21.0922  -13.1508   22.2440 H   0  0  0  0  0  0
  -24.6378  -15.8422   20.5393 H   0  0  0  0  0  0
  -26.2071  -15.6177   19.9694 H   0  0  0  0  0  0
  -26.7405  -32.5060   23.0851 H   0  0  0  0  0  0
  -24.9949  -33.9397   25.0058 H   0  0  0  0  0  0
  -22.8052  -31.2552   21.3244 H   0  0  0  0  0  0
  -23.3770  -35.9615   23.3191 H   0  0  0  0  0  0
  -24.3674  -36.9001   22.2092 H   0  0  0  0  0  0
  -23.7366  -37.6425   23.6782 H   0  0  0  0  0  0
  -26.2358  -31.3388   20.6083 H   0  0  0  0  0  0
  -26.9240  -30.6810   22.0488 H   0  0  0  0  0  0
  -28.1715  -28.5558   21.2772 H   0  0  0  0  0  0
  -25.8696  -25.6871   19.0357 H   0  0  0  0  0  0
  -24.0158  -27.2420   18.9626 H   0  0  0  0  0  0
  -23.8974  -30.4892   19.3749 H   0  0  0  0  0  0
  -22.8492  -29.1787   19.8202 H   0  0  0  0  0  0
  -25.1365  -36.1700   25.0785 H   0  0  0  0  0  0
  -21.0055  -28.3318   24.1251 H   0  0  0  0  0  0
  -20.5544  -26.2353   23.3626 H   0  0  0  0  0  0
  -21.6660  -26.7261   22.1238 H   0  0  0  0  0  0
  -19.6917  -25.6232   21.1224 H   0  0  0  0  0  0
  -19.6706  -27.3110   20.6665 H   0  0  0  0  0  0
  -17.4206  -26.6595   21.4014 H   0  0  0  0  0  0
  -18.0384  -26.0050   22.8995 H   0  0  0  0  0  0
  -19.7975  -30.7258   24.2210 H   0  0  0  0  0  0
  -17.5030  -31.6226   24.5159 H   0  0  0  0  0  0
  -15.5379  -30.2931   23.7620 H   0  0  0  0  0  0
  -15.8706  -28.0748   22.7070 H   0  0  0  0  0  0
  -24.5821  -30.7110   25.7643 H   0  0  0  0  0  0
  -24.8857  -32.3005   26.4607 H   0  0  0  0  0  0
  -25.7873  -30.9020   27.0180 H   0  0  0  0  0  0
  -26.2919  -29.6439   24.1539 H   0  0  0  0  0  0
  -27.3852  -29.7170   25.5126 H   0  0  0  0  0  0
  -27.8924  -30.3821   23.9802 H   0  0  0  0  0  0
  -27.2611  -33.3599   26.1871 H   0  0  0  0  0  0
  -28.3918  -32.6675   25.0313 H   0  0  0  0  0  0
  -28.0590  -31.8445   26.5484 H   0  0  0  0  0  0
  -28.2496  -38.0160   24.7474 H   0  0  0  0  0  0
  -28.1201  -36.2677   24.6198 H   0  0  0  0  0  0
  -27.2324  -37.1340   25.8821 H   0  0  0  0  0  0
  -20.9588  -29.8862   21.6752 H   0  0  0  0  0  0
  -26.0125  -38.2712   24.1331 H   0  0  0  0  0  0
  -30.4397  -21.6066   20.3196 H   0  0  0  0  0  0
  -26.2608  -21.6397   20.7945 H   0  0  0  0  0  0
  -24.6807  -18.3499   20.8614 H   0  0  0  0  0  0
  -25.0697  -19.6509   19.7476 H   0  0  0  0  0  0
  -24.9601  -19.9519   21.4833 H   0  0  0  0  0  0
  -26.5598  -17.3582   22.3980 H   0  0  0  0  0  0
  -26.7188  -18.9812   23.0614 H   0  0  0  0  0  0
  -28.1282  -18.1401   22.4608 H   0  0  0  0  0  0
  -30.5232  -18.3497   21.3756 H   0  0  0  0  0  0
  -30.7221  -18.3961   19.6836 H   0  0  0  0  0  0
  -29.3406  -24.2606   22.4351 H   0  0  0  0  0  0
  -27.8386  -23.4830   22.8883 H   0  0  0  0  0  0
  -26.8289  -24.1171   20.7387 H   0  0  0  0  0  0
  -27.0284  -18.1453   20.1293 H   0  0  0  0  0  0
  -28.6209  -16.4649   20.4309 H   0  0  0  0  0  0
  -28.0305  -26.3328   22.2833 H   0  0  0  0  0  0
  -28.1979  -25.7434   23.8020 H   0  0  0  0  0  0
  -26.7783  -25.5768   23.0123 H   0  0  0  0  0  0
  1 25  1  0  0  0
  1 30  2  0  0  0
  1 82  1  0  0  0
  2  3  1  0  0  0
  2 25  1  0  0  0
  2 84  1  0  0  0
  2 85  1  0  0  0
  3  4  1  0  0  0
  3 86  1  0  0  0
  3 87  1  0  0  0
  4  5  1  0  0  0
  4 88  1  0  0  0
  4 89  1  0  0  0
  5  6  1  0  0  0
  5 26  1  0  0  0
  5 90  1  0  0  0
  6 25  1  0  0  0
  6 91  1  0  0  0
  6 92  1  0  0  0
  7  8  2  0  0  0
  7 26  1  0  0  0
  7 29  1  0  0  0
  8  9  1  0  0  0
  8 22  1  0  0  0
  9 10  1  0  0  0
  9 27  2  0  0  0
 10 11  2  0  0  0
 10 15  1  0  0  0
 11 12  1  0  0  0
 11 93  1  0  0  0
 12 13  2  0  0  0
 12 94  1  0  0  0
 13 14  1  0  0  0
 13 31  1  0  0  0
 14 15  2  0  0  0
 14 95  1  0  0  0
 15 96  1  0  0  0
 16 17  2  0  0  0
 16 21  1  0  0  0
 16 31  1  0  0  0
 17 18  1  0  0  0
 17 97  1  0  0  0
 18 19  2  0  0  0
 18 98  1  0  0  0
 19 20  1  0  0  0
 19 24  1  0  0  0
 20 21  2  0  0  0
 20 99  1  0  0  0
 21 23  1  0  0  0
 22 28  1  0  0  0
 22 32  2  0  0  0
 26 27  1  0  0  0
 28100  1  0  0  0
 28101  1  0  0  0
 29102  1  0  0  0
 29103  1  0  0  0
 33 34  1  0  0  0
 33 66  1  0  0  0
 33 70  2  0  0  0
 34 36  1  0  0  0
 34 59  1  0  0  0
 34104  1  0  0  0
 35 44  2  0  0  0
 35 45  1  0  0  0
 35 68  1  0  0  0
 36 56  1  0  0  0
 36105  1  0  0  0
 37 39  1  0  0  0
 37 47  1  0  0  0
 37 66  1  0  0  0
 37106  1  0  0  0
 38 43  2  0  0  0
 38 46  1  0  0  0
 38 47  1  0  0  0
 39 64  1  0  0  0
 39 67  2  0  0  0
 40 52  1  0  0  0
 40 53  2  0  0  0
 40 58  1  0  0  0
 41107  1  0  0  0
 41108  1  0  0  0
 41109  1  0  0  0
 41 48  1  0  0  0
 42 43  1  0  0  0
 42 66  1  0  0  0
 42110  1  0  0  0
 42111  1  0  0  0
 43 44  1  0  0  0
 44112  1  0  0  0
 45 46  2  0  0  0
 45113  1  0  0  0
 46114  1  0  0  0
 47115  1  0  0  0
 47116  1  0  0  0
 48 56  1  0  0  0
 48 65  1  0  0  0
 48117  1  0  0  0
 49 50  1  0  0  0
 49 53  1  0  0  0
 49 64  1  0  0  0
 49118  1  0  0  0
 50 51  1  0  0  0
 50119  1  0  0  0
 50120  1  0  0  0
 51 52  1  0  0  0
 51121  1  0  0  0
 51122  1  0  0  0
 52123  1  0  0  0
 52124  1  0  0  0
 53 54  1  0  0  0
 54 55  2  0  0  0
 54125  1  0  0  0
 55 57  1  0  0  0
 55126  1  0  0  0
 56 69  2  0  0  0
 57 58  2  0  0  0
 57127  1  0  0  0
 58128  1  0  0  0
 59 60  1  0  0  0
 59 61  1  0  0  0
 59 62  1  0  0  0
 60129  1  0  0  0
 60130  1  0  0  0
 60131  1  0  0  0
 61132  1  0  0  0
 61133  1  0  0  0
 61134  1  0  0  0
 62135  1  0  0  0
 62136  1  0  0  0
 62137  1  0  0  0
 63 65  1  0  0  0
 63138  1  0  0  0
 63139  1  0  0  0
 63140  1  0  0  0
 64141  1  0  0  0
 65142  1  0  0  0
 68 79  1  0  0  0
 71 73  1  0  0  0
 71 74  2  0  0  0
 71143  1  0  0  0
 72 73  2  0  0  0
 72 81  1  0  0  0
 72144  1  0  0  0
 73 79  1  0  0  0
 74 77  1  0  0  0
 74 81  1  0  0  0
 75145  1  0  0  0
 75146  1  0  0  0
 75147  1  0  0  0
 75 80  1  0  0  0
 76 80  1  0  0  0
 76148  1  0  0  0
 76149  1  0  0  0
 76150  1  0  0  0
 77 82  1  0  0  0
 77151  1  0  0  0
 77152  1  0  0  0
 78 83  1  0  0  0
 78153  1  0  0  0
 78154  1  0  0  0
 78 79  1  0  0  0
 79155  1  0  0  0
 80 81  1  0  0  0
 80156  1  0  0  0
 82157  1  0  0  0
 83158  1  0  0  0
 83159  1  0  0  0
 83160  1  0  0  0
M  CHG  1  83   1
M  ISO  4   1 100  68 101  79 101  82 100
M  END
> <chiral flag>
0

> <version>
0

> <s_m_source_file>
/data/baiqing/PycharmProjects/Reinvent-master-3.2/result/LINK_invent/BTK/process_docking_weight1_custom_sum_contain_oxygen_bond_distance_aromatic_linkinvent_7_9_3/rearranged_h_0108.sdf

> <i_m_source_file_index>
50

> <r_mmod_Potential_Energy-OPLS-2005>
1345.33874511719

> <r_mmod_Stretch_Energy-OPLS-2005>
685.147033691406

> <r_mmod_Bend_Energy-OPLS-2005>
535.68505859375

> <r_mmod_Torsional_Energy-OPLS-2005>
277.652740478516

> <r_mmod_Improper_Torsional_Energy-OPLS-2005>
8.14628505706787

> <r_mmod_Van_der_Waal_Energy-OPLS-2005>
104.894134521484

> <r_mmod_Electrostatic_Energy-OPLS-2005>
-375.484375

> <r_mmod_Solvation_Energy-OPLS-2005>
-452.00439453125

> <b_mmod_Minimization_Converged-OPLS-2005>
0

> <r_mmod_RMS_Derivative-OPLS-2005>
5.44256114959717

$$$$
50
                    3D
 Structure written by MMmdl.
168177  0  0  1  0            999 V2000
  -30.6063  -14.8017   20.4639 C   0  0  0  0  0  0
  -30.4328  -12.5032   19.4650 C   0  0  0  0  0  0
  -29.5068  -12.4979   18.2320 C   0  0  0  0  0  0
  -28.0380  -12.3122   18.6569 C   0  0  0  0  0  0
  -27.6345  -13.2325   19.8403 C   0  0  2  0  0  0
  -28.6813  -13.2149   20.9721 C   0  0  0  0  0  0
  -25.2497  -13.8197   20.5696 C   0  0  0  0  0  0
  -24.1797  -13.0440   20.9216 C   0  0  0  0  0  0
  -24.6393  -11.6923   20.8764 C   0  0  0  0  0  0
  -23.9073  -10.4298   21.0423 C   0  0  0  0  0  0
  -24.3621   -9.4212   21.9203 C   0  0  0  0  0  0
  -23.6293   -8.2249   22.0764 C   0  0  0  0  0  0
  -22.4275   -8.0291   21.3548 C   0  0  0  0  0  0
  -21.9916   -9.0269   20.4650 C   0  0  0  0  0  0
  -22.7250  -10.2149   20.3069 C   0  0  0  0  0  0
  -21.6860   -6.0739   22.5281 C   0  0  0  0  0  0
  -21.4012   -6.5640   23.8213 C   0  0  0  0  0  0
  -21.3648   -5.6794   24.9173 C   0  0  0  0  0  0
  -21.6044   -4.3057   24.7226 C   0  0  0  0  0  0
  -21.8820   -3.8149   23.4349 C   0  0  0  0  0  0
  -21.9193   -4.6965   22.3402 C   0  0  0  0  0  0
  -22.7820  -13.5230   21.1857 C   0  0  0  0  0  0
  -22.1666   -4.2149   21.0981 F   0  0  0  0  0  0
  -21.5621   -3.4542   25.7737 F   0  0  0  0  0  0
  -29.9628  -13.5853   20.3635 N   0  0  0  0  0  0
  -26.2906  -12.9401   20.3257 N   0  0  0  0  0  0
  -25.9321  -11.6544   20.5761 N   0  0  0  0  0  0
  -22.0454  -12.8234   22.0411 N   0  0  0  0  0  0
  -25.4195  -15.1922   20.4092 N   0  0  0  0  0  0
  -31.8068  -14.8562   20.1765 O   0  0  0  0  0  0
  -21.6646   -6.8888   21.4247 O   0  0  0  0  0  0
  -22.3515  -14.5538   20.6698 O   0  0  0  0  0  0
  -24.6359  -31.8510   23.1916 C   0  0  0  0  0  0
  -25.9165  -32.4723   23.8296 C   0  0  1  0  0  0
  -27.2157  -27.2228   20.1249 C   0  0  0  0  0  0
  -25.5965  -33.8534   24.2219 N   0  0  0  0  0  0
  -23.4328  -30.4733   21.5371 C   0  0  2  0  0  0
  -24.8757  -28.9099   20.1061 C   0  0  0  0  0  0
  -22.7528  -29.4585   22.4877 C   0  0  0  0  0  0
  -18.0305  -28.1394   22.8472 C   0  0  0  0  0  0
  -24.1478  -36.7275   23.2643 C   0  0  0  0  0  0
  -25.9807  -30.7507   21.3759 C   0  0  0  0  0  0
  -26.0480  -29.3707   20.7157 C   0  0  0  0  0  0
  -27.2162  -28.5381   20.7139 C   0  0  0  0  0  0
  -26.0135  -26.8311   19.4947 C   0  0  0  0  0  0
  -24.8657  -27.6510   19.4856 C   0  0  0  0  0  0
  -23.6498  -29.8035   20.1545 C   0  0  0  0  0  0
  -25.4110  -36.3049   24.0312 C   0  0  1  0  0  0
  -20.5909  -28.3704   23.1249 C   0  0  2  0  0  0
  -20.6781  -26.9419   22.5404 C   0  0  0  0  0  0
  -19.5758  -26.6380   21.5212 C   0  0  0  0  0  0
  -18.1935  -26.7934   22.1612 C   0  0  0  0  0  0
  -19.1556  -28.8862   23.2851 C   0  0  0  0  0  0
  -18.9484  -30.1466   23.8862 C   0  0  0  0  0  0
  -17.6482  -30.6585   24.0566 C   0  0  0  0  0  0
  -25.9067  -34.9423   23.5063 C   0  0  0  0  0  0
  -16.5368  -29.9079   23.6342 C   0  0  0  0  0  0
  -16.7296  -28.6504   23.0341 C   0  0  0  0  0  0
  -26.4506  -31.6590   25.0731 C   0  0  0  0  0  0
  -25.3696  -31.3789   26.1442 C   0  0  0  0  0  0
  -27.0362  -30.2992   24.6276 C   0  0  0  0  0  0
  -27.6027  -32.4367   25.7529 C   0  0  0  0  0  0
  -27.5560  -37.1790   24.8463 C   0  0  0  0  0  0
  -21.4226  -29.3045   22.3632 N   0  0  0  0  0  0
  -26.4273  -37.3759   23.9406 N   0  0  0  0  0  0
  -24.7027  -31.0439   22.0907 N   0  0  0  0  0  0
  -23.4203  -28.8116   23.2986 O   0  0  0  0  0  0
  -28.3197  -26.3327   20.2171 O   0  0  0  0  0  0
  -26.5634  -34.8899   22.4631 O   0  0  0  0  0  0
  -23.5499  -32.1386   23.7162 O   0  0  0  0  0  0
  -31.5924  -17.6930   23.5026 C   0  0  0  0  0  0
  -31.0600  -16.8033   22.5659 C   0  0  0  0  0  0
  -30.6935  -19.5225   22.2246 C   0  0  0  0  0  0
  -28.8765  -22.2870   19.9450 C   0  0  0  0  0  0
  -27.5392  -23.5055   21.5328 C   0  0  0  0  0  0
  -31.4289  -19.0713   23.3323 C   0  0  0  0  0  0
  -28.3135  -23.5723   20.3667 C   0  0  0  0  0  0
  -30.0550  -18.6700   21.2828 C   0  0  0  0  0  0
  -28.6532  -21.0313   20.6640 C   0  0  0  0  0  0
  -30.3114  -17.1990   21.4232 C   0  0  0  0  0  0
  -27.8132  -21.1769   21.7979 C   0  0  0  0  0  0
  -27.3918  -19.9909   22.6507 C   0  0  0  0  0  0
  -33.0254  -19.5006   25.3117 C   0  0  0  0  0  0
  -30.8612  -20.7873   25.0977 C   0  0  0  0  0  0
  -29.2009  -19.5501   20.2503 C   0  0  0  0  0  0
  -28.4126  -24.9643   19.5672 C   0  0  0  0  0  0
  -31.9917  -20.0849   24.3291 C   0  0  0  0  0  0
  -27.3009  -22.3609   22.2145 N   0  0  0  0  0  0
  -29.8797  -15.9908   20.6574 N   0  0  0  0  0  0
  -31.4672  -12.6462   19.1468 H   0  0  0  0  0  0
  -30.4097  -11.5409   19.9776 H   0  0  0  0  0  0
  -29.8018  -11.7049   17.5436 H   0  0  0  0  0  0
  -29.6159  -13.4362   17.6851 H   0  0  0  0  0  0
  -27.9130  -11.2672   18.9448 H   0  0  0  0  0  0
  -27.3753  -12.4746   17.8071 H   0  0  0  0  0  0
  -27.6167  -14.2445   19.4360 H   0  0  0  0  0  0
  -28.7416  -12.2310   21.4390 H   0  0  0  0  0  0
  -28.4093  -13.9177   21.7618 H   0  0  0  0  0  0
  -25.2761   -9.5690   22.4780 H   0  0  0  0  0  0
  -23.9997   -7.4641   22.7485 H   0  0  0  0  0  0
  -21.0847   -8.8796   19.8954 H   0  0  0  0  0  0
  -22.3713  -10.9691   19.6176 H   0  0  0  0  0  0
  -21.2012   -7.6148   23.9718 H   0  0  0  0  0  0
  -21.1460   -6.0521   25.9073 H   0  0  0  0  0  0
  -22.0609   -2.7613   23.2853 H   0  0  0  0  0  0
  -22.4055  -11.9886   22.4792 H   0  0  0  0  0  0
  -21.1068  -13.1268   22.2602 H   0  0  0  0  0  0
  -24.6523  -15.8458   20.5179 H   0  0  0  0  0  0
  -26.2622  -15.6299   20.0614 H   0  0  0  0  0  0
  -26.7226  -32.5328   23.1031 H   0  0  0  0  0  0
  -25.0159  -33.9665   25.0392 H   0  0  0  0  0  0
  -22.7318  -31.2975   21.3866 H   0  0  0  0  0  0
  -23.3730  -35.9616   23.3309 H   0  0  0  0  0  0
  -24.3577  -36.8915   22.2063 H   0  0  0  0  0  0
  -23.7228  -37.6470   23.6681 H   0  0  0  0  0  0
  -26.1294  -31.5074   20.6045 H   0  0  0  0  0  0
  -26.8566  -30.7974   22.0122 H   0  0  0  0  0  0
  -28.1123  -28.8896   21.2050 H   0  0  0  0  0  0
  -25.9160  -25.8608   19.0343 H   0  0  0  0  0  0
  -23.9640  -27.2893   19.0104 H   0  0  0  0  0  0
  -23.7805  -30.5796   19.4001 H   0  0  0  0  0  0
  -22.7650  -29.2448   19.8452 H   0  0  0  0  0  0
  -25.1286  -36.1894   25.0804 H   0  0  0  0  0  0
  -21.0017  -28.3280   24.1366 H   0  0  0  0  0  0
  -20.5675  -26.2321   23.3608 H   0  0  0  0  0  0
  -21.6638  -26.7426   22.1193 H   0  0  0  0  0  0
  -19.6931  -25.6291   21.1244 H   0  0  0  0  0  0
  -19.6686  -27.3173   20.6727 H   0  0  0  0  0  0
  -17.4209  -26.6694   21.4014 H   0  0  0  0  0  0
  -18.0310  -26.0084   22.9007 H   0  0  0  0  0  0
  -19.7967  -30.7297   24.2181 H   0  0  0  0  0  0
  -17.5044  -31.6253   24.5188 H   0  0  0  0  0  0
  -15.5371  -30.2965   23.7690 H   0  0  0  0  0  0
  -15.8700  -28.0827   22.7044 H   0  0  0  0  0  0
  -24.5855  -30.7149   25.7794 H   0  0  0  0  0  0
  -24.8897  -32.2979   26.4824 H   0  0  0  0  0  0
  -25.7990  -30.9012   27.0253 H   0  0  0  0  0  0
  -26.2975  -29.6743   24.1248 H   0  0  0  0  0  0
  -27.3972  -29.7273   25.4836 H   0  0  0  0  0  0
  -27.8873  -30.4263   23.9579 H   0  0  0  0  0  0
  -27.2598  -33.3680   26.2049 H   0  0  0  0  0  0
  -28.3869  -32.6930   25.0397 H   0  0  0  0  0  0
  -28.0652  -31.8542   26.5513 H   0  0  0  0  0  0
  -28.2568  -38.0093   24.7511 H   0  0  0  0  0  0
  -28.1064  -36.2624   24.6282 H   0  0  0  0  0  0
  -27.2289  -37.1431   25.8871 H   0  0  0  0  0  0
  -20.9407  -29.8813   21.6879 H   0  0  0  0  0  0
  -26.0145  -38.2824   24.1438 H   0  0  0  0  0  0
  -32.1301  -17.2865   24.3453 H   0  0  0  0  0  0
  -31.2409  -15.7610   22.7850 H   0  0  0  0  0  0
  -30.5914  -20.5940   22.1346 H   0  0  0  0  0  0
  -29.4656  -22.2624   19.0390 H   0  0  0  0  0  0
  -27.0577  -24.3940   21.9155 H   0  0  0  0  0  0
  -28.1649  -19.7497   23.3797 H   0  0  0  0  0  0
  -27.1997  -19.1054   22.0459 H   0  0  0  0  0  0
  -26.4751  -20.2031   23.2026 H   0  0  0  0  0  0
  -33.8529  -19.0190   24.7882 H   0  0  0  0  0  0
  -32.5771  -18.7663   25.9828 H   0  0  0  0  0  0
  -33.4536  -20.2847   25.9374 H   0  0  0  0  0  0
  -30.1933  -21.3281   24.4254 H   0  0  0  0  0  0
  -31.2633  -21.5145   25.8042 H   0  0  0  0  0  0
  -30.2597  -20.0720   25.6599 H   0  0  0  0  0  0
  -28.3427  -18.9514   19.9423 H   0  0  0  0  0  0
  -29.8077  -19.6605   19.3513 H   0  0  0  0  0  0
  -27.7534  -24.8987   18.7035 H   0  0  0  0  0  0
  -29.4077  -24.9570   19.1232 H   0  0  0  0  0  0
  -32.5077  -20.8428   23.7376 H   0  0  0  0  0  0
  -28.8843  -15.9062   20.5189 H   0  0  0  0  0  0
  1 25  1  0  0  0
  1 30  2  0  0  0
  1 89  1  0  0  0
  2  3  1  0  0  0
  2 25  1  0  0  0
  2 90  1  0  0  0
  2 91  1  0  0  0
  3  4  1  0  0  0
  3 92  1  0  0  0
  3 93  1  0  0  0
  4  5  1  0  0  0
  4 94  1  0  0  0
  4 95  1  0  0  0
  5  6  1  0  0  0
  5 26  1  0  0  0
  5 96  1  0  0  0
  6 25  1  0  0  0
  6 97  1  0  0  0
  6 98  1  0  0  0
  7  8  2  0  0  0
  7 26  1  0  0  0
  7 29  1  0  0  0
  8  9  1  0  0  0
  8 22  1  0  0  0
  9 10  1  0  0  0
  9 27  2  0  0  0
 10 11  2  0  0  0
 10 15  1  0  0  0
 11 12  1  0  0  0
 11 99  1  0  0  0
 12 13  2  0  0  0
 12100  1  0  0  0
 13 14  1  0  0  0
 13 31  1  0  0  0
 14 15  2  0  0  0
 14101  1  0  0  0
 15102  1  0  0  0
 16 17  2  0  0  0
 16 21  1  0  0  0
 16 31  1  0  0  0
 17 18  1  0  0  0
 17103  1  0  0  0
 18 19  2  0  0  0
 18104  1  0  0  0
 19 20  1  0  0  0
 19 24  1  0  0  0
 20 21  2  0  0  0
 20105  1  0  0  0
 21 23  1  0  0  0
 22 28  1  0  0  0
 22 32  2  0  0  0
 26 27  1  0  0  0
 28106  1  0  0  0
 28107  1  0  0  0
 29108  1  0  0  0
 29109  1  0  0  0
 33 34  1  0  0  0
 33 66  1  0  0  0
 33 70  2  0  0  0
 34 36  1  0  0  0
 34 59  1  0  0  0
 34110  1  0  0  0
 35 44  2  0  0  0
 35 45  1  0  0  0
 35 68  1  0  0  0
 36 56  1  0  0  0
 36111  1  0  0  0
 37 39  1  0  0  0
 37 47  1  0  0  0
 37 66  1  0  0  0
 37112  1  0  0  0
 38 43  2  0  0  0
 38 46  1  0  0  0
 38 47  1  0  0  0
 39 64  1  0  0  0
 39 67  2  0  0  0
 40 52  1  0  0  0
 40 53  2  0  0  0
 40 58  1  0  0  0
 41113  1  0  0  0
 41114  1  0  0  0
 41115  1  0  0  0
 41 48  1  0  0  0
 42 43  1  0  0  0
 42 66  1  0  0  0
 42116  1  0  0  0
 42117  1  0  0  0
 43 44  1  0  0  0
 44118  1  0  0  0
 45 46  2  0  0  0
 45119  1  0  0  0
 46120  1  0  0  0
 47121  1  0  0  0
 47122  1  0  0  0
 48 56  1  0  0  0
 48 65  1  0  0  0
 48123  1  0  0  0
 49 50  1  0  0  0
 49 53  1  0  0  0
 49 64  1  0  0  0
 49124  1  0  0  0
 50 51  1  0  0  0
 50125  1  0  0  0
 50126  1  0  0  0
 51 52  1  0  0  0
 51127  1  0  0  0
 51128  1  0  0  0
 52129  1  0  0  0
 52130  1  0  0  0
 53 54  1  0  0  0
 54 55  2  0  0  0
 54131  1  0  0  0
 55 57  1  0  0  0
 55132  1  0  0  0
 56 69  2  0  0  0
 57 58  2  0  0  0
 57133  1  0  0  0
 58134  1  0  0  0
 59 60  1  0  0  0
 59 61  1  0  0  0
 59 62  1  0  0  0
 60135  1  0  0  0
 60136  1  0  0  0
 60137  1  0  0  0
 61138  1  0  0  0
 61139  1  0  0  0
 61140  1  0  0  0
 62141  1  0  0  0
 62142  1  0  0  0
 62143  1  0  0  0
 63 65  1  0  0  0
 63144  1  0  0  0
 63145  1  0  0  0
 63146  1  0  0  0
 64147  1  0  0  0
 65148  1  0  0  0
 68 86  1  0  0  0
 71 72  2  0  0  0
 71 76  1  0  0  0
 71149  1  0  0  0
 72 80  1  0  0  0
 72150  1  0  0  0
 73 76  2  0  0  0
 73 78  1  0  0  0
 73151  1  0  0  0
 74 77  2  0  0  0
 74 79  1  0  0  0
 74152  1  0  0  0
 75 77  1  0  0  0
 75 88  2  0  0  0
 75153  1  0  0  0
 76 87  1  0  0  0
 77 86  1  0  0  0
 78 80  2  0  0  0
 78 85  1  0  0  0
 79 81  2  0  0  0
 79 85  1  0  0  0
 80 89  1  0  0  0
 81 82  1  0  0  0
 81 88  1  0  0  0
 82154  1  0  0  0
 82155  1  0  0  0
 82156  1  0  0  0
 83157  1  0  0  0
 83158  1  0  0  0
 83159  1  0  0  0
 83 87  1  0  0  0
 84 87  1  0  0  0
 84160  1  0  0  0
 84161  1  0  0  0
 84162  1  0  0  0
 85163  1  0  0  0
 85164  1  0  0  0
 86165  1  0  0  0
 86166  1  0  0  0
 87167  1  0  0  0
 89168  1  0  0  0
M  ISO  4   1 100  68 101  86 101  89 100
M  END
> <chiral flag>
0

> <version>
0

> <s_m_source_file>
/data/baiqing/PycharmProjects/Reinvent-master-3.2/result/LINK_invent/BTK/process_docking_weight1_custom_sum_contain_oxygen_bond_distance_aromatic_linkinvent_7_9_3/rearranged_h_0108.sdf

> <i_m_source_file_index>
51

> <r_mmod_Potential_Energy-OPLS-2005>
187.527450561523

> <r_mmod_Stretch_Energy-OPLS-2005>
168.917266845703

> <r_mmod_Bend_Energy-OPLS-2005>
230.858901977539

> <r_mmod_Torsional_Energy-OPLS-2005>
239.249694824219

> <r_mmod_Improper_Torsional_Energy-OPLS-2005>
6.56687641143799

> <r_mmod_Van_der_Waal_Energy-OPLS-2005>
164.375289916992

> <r_mmod_Electrostatic_Energy-OPLS-2005>
-515.534545898438

> <r_mmod_Solvation_Energy-OPLS-2005>
-219.105133056641

> <b_mmod_Minimization_Converged-OPLS-2005>
0

> <r_mmod_RMS_Derivative-OPLS-2005>
2.02406311035156

$$$$
51
                    3D
 Structure written by MMmdl.
168176  0  0  1  0            999 V2000
  -29.6165  -16.6017   20.3134 C   0  0  0  0  0  0
  -30.2127  -13.8609   19.5595 C   0  0  0  0  0  0
  -29.5513  -12.9669   18.4320 C   0  0  0  0  0  0
  -28.2124  -12.3825   18.8781 C   0  0  0  0  0  0
  -27.5195  -13.3933   19.8013 C   0  0  2  0  0  0
  -28.4005  -14.0901   20.8762 C   0  0  0  0  0  0
  -25.1925  -13.8410   20.5811 C   0  0  0  0  0  0
  -24.1475  -13.0454   20.9346 C   0  0  0  0  0  0
  -24.6346  -11.6987   20.8765 C   0  0  0  0  0  0
  -23.9128  -10.4299   21.0424 C   0  0  0  0  0  0
  -24.3698   -9.4230   21.9201 C   0  0  0  0  0  0
  -23.6356   -8.2290   22.0767 C   0  0  0  0  0  0
  -22.4333   -8.0338   21.3558 C   0  0  0  0  0  0
  -21.9988   -9.0304   20.4647 C   0  0  0  0  0  0
  -22.7318  -10.2158   20.3050 C   0  0  0  0  0  0
  -21.6869   -6.0755   22.5283 C   0  0  0  0  0  0
  -21.4001   -6.5643   23.8220 C   0  0  0  0  0  0
  -21.3660   -5.6797   24.9186 C   0  0  0  0  0  0
  -21.6050   -4.3064   24.7231 C   0  0  0  0  0  0
  -21.8808   -3.8153   23.4351 C   0  0  0  0  0  0
  -21.9205   -4.6974   22.3408 C   0  0  0  0  0  0
  -22.7485  -13.5146   21.1927 C   0  0  0  0  0  0
  -22.1671   -4.2159   21.0990 F   0  0  0  0  0  0
  -21.5657   -3.4547   25.7750 F   0  0  0  0  0  0
  -29.3330  -15.0559   20.1797 N   0  0  0  0  0  0
  -26.2386  -12.9826   20.3216 N   0  0  0  0  0  0
  -25.9297  -11.6798   20.5564 N   0  0  0  0  0  0
  -22.0219  -12.8144   22.0518 N   0  0  0  0  0  0
  -25.3498  -15.2184   20.4305 N   0  0  0  0  0  0
  -30.8868  -16.4534   20.2585 O   0  0  0  0  0  0
  -21.6664   -6.8934   21.4263 O   0  0  0  0  0  0
  -22.3178  -14.5470   20.6770 O   0  0  0  0  0  0
  -24.6095  -31.7475   23.1421 C   0  0  0  0  0  0
  -25.8830  -32.4136   23.7827 C   0  0  1  0  0  0
  -28.5218  -26.5170   19.6726 C   0  0  0  0  0  0
  -25.5635  -33.8045   24.1728 N   0  0  0  0  0  0
  -23.4302  -30.1717   21.5662 C   0  0  2  0  0  0
  -24.5282  -27.8829   20.4564 C   0  0  0  0  0  0
  -22.7050  -29.3730   22.6192 C   0  0  0  0  0  0
  -18.0009  -28.1262   22.8540 C   0  0  0  0  0  0
  -24.1491  -36.7051   23.2696 C   0  0  0  0  0  0
  -25.9548  -30.2990   21.5609 C   0  0  0  0  0  0
  -26.1185  -28.7502   21.3265 C   0  0  0  0  0  0
  -28.0474  -28.1652   21.0622 C   0  0  0  0  0  0
  -26.8182  -25.6001   18.4598 C   0  0  0  0  0  0
  -24.7351  -26.2185   19.0448 C   0  0  0  0  0  0
  -23.5213  -29.1142   20.3643 C   0  0  0  0  0  0
  -25.4135  -36.2738   24.0303 C   0  0  1  0  0  0
  -20.5454  -28.3319   23.1762 C   0  0  2  0  0  0
  -20.6394  -26.9167   22.5566 C   0  0  0  0  0  0
  -19.5458  -26.6354   21.5221 C   0  0  0  0  0  0
  -18.1654  -26.7815   22.1640 C   0  0  0  0  0  0
  -19.1228  -28.8649   23.3082 C   0  0  0  0  0  0
  -18.9220  -30.1286   23.9031 C   0  0  0  0  0  0
  -17.6243  -30.6512   24.0545 C   0  0  0  0  0  0
  -25.9001  -34.9137   23.4904 C   0  0  0  0  0  0
  -16.5141  -29.9081   23.6229 C   0  0  0  0  0  0
  -16.7027  -28.6497   23.0267 C   0  0  0  0  0  0
  -26.4315  -31.6415   25.0531 C   0  0  0  0  0  0
  -25.3562  -31.3814   26.1365 C   0  0  0  0  0  0
  -27.0389  -30.2772   24.6557 C   0  0  0  0  0  0
  -27.5670  -32.4518   25.7203 C   0  0  0  0  0  0
  -27.5543  -37.1606   24.8483 C   0  0  0  0  0  0
  -21.3852  -29.2682   22.4574 N   0  0  0  0  0  0
  -26.4282  -37.3488   23.9381 N   0  0  0  0  0  0
  -24.6825  -30.7890   22.1370 N   0  0  0  0  0  0
  -23.3355  -28.7632   23.4858 O   0  0  0  0  0  0
  -29.1092  -25.7918   20.6037 O   0  0  0  0  0  0
  -26.5752  -34.8730   22.4573 O   0  0  0  0  0  0
  -23.5225  -32.1205   23.6107 O   0  0  0  0  0  0
  -25.8026  -25.2041   21.3905 C   0  0  0  0  0  0
  -26.6207  -24.4966   20.5998 C   0  0  0  0  0  0
  -26.4252  -26.4745   20.4879 C   0  0  0  0  0  0
  -26.4526  -27.5888   19.3737 C   0  0  0  0  0  0
  -25.2564  -27.5965   16.4741 C   0  0  0  0  0  0
  -25.1034  -29.8483   17.5608 C   0  0  0  0  0  0
  -28.1812  -30.3906   18.9392 C   0  0  0  0  0  0
  -28.4272  -28.7843   17.0232 C   0  0  0  0  0  0
  -27.1071  -22.2573   20.3245 C   0  0  0  0  0  0
  -28.4139  -20.2744   20.3511 C   0  0  0  0  0  0
  -28.2323  -25.8664   21.7344 C   0  0  0  0  0  0
  -25.1587  -28.3243   17.8567 C   0  0  0  0  0  0
  -28.1324  -28.8936   18.5304 C   0  0  0  0  0  0
  -26.6804  -26.2760   20.9156 N   0  0  0  0  0  0
  -26.8479  -27.9093   19.1477 N   0  0  0  0  0  0
  -28.7548  -18.1779   20.3860 N   0  0  0  0  0  0
  -31.0858  -14.3158   19.0973 H   0  0  0  0  0  0
  -30.6336  -13.2238   20.3400 H   0  0  0  0  0  0
  -30.2366  -12.1730   18.1284 H   0  0  0  0  0  0
  -29.3964  -13.5791   17.5476 H   0  0  0  0  0  0
  -28.4006  -11.4510   19.4133 H   0  0  0  0  0  0
  -27.5930  -12.1228   18.0199 H   0  0  0  0  0  0
  -27.2742  -14.1831   19.0964 H   0  0  0  0  0  0
  -28.8707  -13.3797   21.5614 H   0  0  0  0  0  0
  -27.7556  -14.6976   21.5106 H   0  0  0  0  0  0
  -25.2866   -9.5697   22.4728 H   0  0  0  0  0  0
  -24.0044   -7.4691   22.7513 H   0  0  0  0  0  0
  -21.0914   -8.8855   19.8966 H   0  0  0  0  0  0
  -22.3839  -10.9706   19.6121 H   0  0  0  0  0  0
  -21.1939   -7.6141   23.9711 H   0  0  0  0  0  0
  -21.1506   -6.0534   25.9085 H   0  0  0  0  0  0
  -22.0578   -2.7616   23.2853 H   0  0  0  0  0  0
  -22.3897  -11.9877   22.4902 H   0  0  0  0  0  0
  -21.0819  -13.1077   22.2676 H   0  0  0  0  0  0
  -24.5963  -15.8828   20.5633 H   0  0  0  0  0  0
  -26.2188  -15.6633   20.1523 H   0  0  0  0  0  0
  -26.6901  -32.4507   23.0532 H   0  0  0  0  0  0
  -24.9733  -33.9226   24.9845 H   0  0  0  0  0  0
  -22.7948  -31.0034   21.2552 H   0  0  0  0  0  0
  -23.3739  -35.9355   23.3242 H   0  0  0  0  0  0
  -24.3673  -36.8747   22.2142 H   0  0  0  0  0  0
  -23.7235  -37.6214   23.6778 H   0  0  0  0  0  0
  -26.0083  -30.7449   20.5702 H   0  0  0  0  0  0
  -26.8591  -30.6325   22.0500 H   0  0  0  0  0  0
  -28.7913  -28.6300   21.6909 H   0  0  0  0  0  0
  -26.9826  -24.6889   17.9045 H   0  0  0  0  0  0
  -23.8846  -25.7762   18.5582 H   0  0  0  0  0  0
  -23.7366  -29.7638   19.5462 H   0  0  0  0  0  0
  -22.5323  -28.7243   20.1006 H   0  0  0  0  0  0
  -25.1342  -36.1548   25.0786 H   0  0  0  0  0  0
  -20.9283  -28.2637   24.1944 H   0  0  0  0  0  0
  -20.5176  -26.1897   23.3612 H   0  0  0  0  0  0
  -21.6294  -26.7145   22.1402 H   0  0  0  0  0  0
  -19.6578  -25.6361   21.1016 H   0  0  0  0  0  0
  -19.6396  -27.3356   20.6929 H   0  0  0  0  0  0
  -17.3900  -26.6598   21.4064 H   0  0  0  0  0  0
  -18.0002  -25.9942   22.9018 H   0  0  0  0  0  0
  -19.7717  -30.7018   24.2517 H   0  0  0  0  0  0
  -17.4799  -31.6197   24.5124 H   0  0  0  0  0  0
  -15.5164  -30.3000   23.7397 H   0  0  0  0  0  0
  -15.8434  -28.0832   22.6868 H   0  0  0  0  0  0
  -24.5530  -30.7348   25.7860 H   0  0  0  0  0  0
  -24.9011  -32.3105   26.4785 H   0  0  0  0  0  0
  -25.7918  -30.8990   27.0148 H   0  0  0  0  0  0
  -26.3056  -29.6143   24.1977 H   0  0  0  0  0  0
  -27.4238  -29.7480   25.5306 H   0  0  0  0  0  0
  -27.8778  -30.3897   23.9687 H   0  0  0  0  0  0
  -27.1967  -33.3836   26.1515 H   0  0  0  0  0  0
  -28.3415  -32.7163   24.9980 H   0  0  0  0  0  0
  -28.0405  -31.8970   26.5332 H   0  0  0  0  0  0
  -28.2530  -37.9944   24.7488 H   0  0  0  0  0  0
  -28.1097  -36.2447   24.6331 H   0  0  0  0  0  0
  -27.2293  -37.1232   25.8918 H   0  0  0  0  0  0
  -20.9405  -29.8209   21.7359 H   0  0  0  0  0  0
  -26.0119  -38.2527   24.1318 H   0  0  0  0  0  0
  -25.6277  -24.7740   22.3658 H   0  0  0  0  0  0
  -25.2102  -26.5073   16.4983 H   0  0  0  0  0  0
  -26.1663  -27.8481   15.9403 H   0  0  0  0  0  0
  -24.4312  -27.9054   15.8309 H   0  0  0  0  0  0
  -24.1195  -30.0719   17.1228 H   0  0  0  0  0  0
  -25.8656  -30.2297   16.8876 H   0  0  0  0  0  0
  -25.1995  -30.4606   18.4531 H   0  0  0  0  0  0
  -29.0145  -30.9099   18.4639 H   0  0  0  0  0  0
  -28.3677  -30.5372   19.9909 H   0  0  0  0  0  0
  -27.2995  -30.9509   18.6836 H   0  0  0  0  0  0
  -29.4375  -29.1626   16.8382 H   0  0  0  0  0  0
  -27.7760  -29.4100   16.4197 H   0  0  0  0  0  0
  -28.3991  -27.7499   16.6718 H   0  0  0  0  0  0
  -26.6089  -22.1386   19.3504 H   0  0  0  0  0  0
  -26.3644  -21.9252   21.0453 H   0  0  0  0  0  0
  -29.0666  -20.5169   21.2076 H   0  0  0  0  0  0
  -28.9987  -20.4957   19.4535 H   0  0  0  0  0  0
  -28.2769  -24.8758   22.2046 H   0  0  0  0  0  0
  -28.4645  -26.4838   22.6080 H   0  0  0  0  0  0
  -24.0995  -28.1993   18.0966 H   0  0  0  0  0  0
  -29.0979  -28.5824   18.9275 H   0  0  0  0  0  0
  -26.2293  -27.7287   18.3590 H   0  0  0  0  0  0
  -29.3356  -18.3456   21.1999 H   0  0  0  0  0  0
  1 25  1  0  0  0
  1 30  2  0  0  0
  1 86  1  0  0  0
  2  3  1  0  0  0
  2 25  1  0  0  0
  2 87  1  0  0  0
  2 88  1  0  0  0
  3  4  1  0  0  0
  3 89  1  0  0  0
  3 90  1  0  0  0
  4  5  1  0  0  0
  4 91  1  0  0  0
  4 92  1  0  0  0
  5  6  1  0  0  0
  5 26  1  0  0  0
  5 93  1  0  0  0
  6 25  1  0  0  0
  6 94  1  0  0  0
  6 95  1  0  0  0
  7  8  2  0  0  0
  7 26  1  0  0  0
  7 29  1  0  0  0
  8  9  1  0  0  0
  8 22  1  0  0  0
  9 10  1  0  0  0
  9 27  2  0  0  0
 10 11  2  0  0  0
 10 15  1  0  0  0
 11 12  1  0  0  0
 11 96  1  0  0  0
 12 13  2  0  0  0
 12 97  1  0  0  0
 13 14  1  0  0  0
 13 31  1  0  0  0
 14 15  2  0  0  0
 14 98  1  0  0  0
 15 99  1  0  0  0
 16 17  2  0  0  0
 16 21  1  0  0  0
 16 31  1  0  0  0
 17 18  1  0  0  0
 17100  1  0  0  0
 18 19  2  0  0  0
 18101  1  0  0  0
 19 20  1  0  0  0
 19 24  1  0  0  0
 20 21  2  0  0  0
 20102  1  0  0  0
 21 23  1  0  0  0
 22 28  1  0  0  0
 22 32  2  0  0  0
 26 27  1  0  0  0
 28103  1  0  0  0
 28104  1  0  0  0
 29105  1  0  0  0
 29106  1  0  0  0
 33 34  1  0  0  0
 33 66  1  0  0  0
 33 70  2  0  0  0
 34 36  1  0  0  0
 34 59  1  0  0  0
 34107  1  0  0  0
 35 44  2  0  0  0
 35 45  1  0  0  0
 35 68  1  0  0  0
 36 56  1  0  0  0
 36108  1  0  0  0
 37 39  1  0  0  0
 37 47  1  0  0  0
 37 66  1  0  0  0
 37109  1  0  0  0
 38 43  2  0  0  0
 38 46  1  0  0  0
 38 47  1  0  0  0
 39 64  1  0  0  0
 39 67  2  0  0  0
 40 52  1  0  0  0
 40 53  2  0  0  0
 40 58  1  0  0  0
 41110  1  0  0  0
 41111  1  0  0  0
 41112  1  0  0  0
 41 48  1  0  0  0
 42 43  1  0  0  0
 42 66  1  0  0  0
 42113  1  0  0  0
 42114  1  0  0  0
 43 44  1  0  0  0
 44115  1  0  0  0
 45 46  2  0  0  0
 45116  1  0  0  0
 46117  1  0  0  0
 47118  1  0  0  0
 47119  1  0  0  0
 48 56  1  0  0  0
 48 65  1  0  0  0
 48120  1  0  0  0
 49 50  1  0  0  0
 49 53  1  0  0  0
 49 64  1  0  0  0
 49121  1  0  0  0
 50 51  1  0  0  0
 50122  1  0  0  0
 50123  1  0  0  0
 51 52  1  0  0  0
 51124  1  0  0  0
 51125  1  0  0  0
 52126  1  0  0  0
 52127  1  0  0  0
 53 54  1  0  0  0
 54 55  2  0  0  0
 54128  1  0  0  0
 55 57  1  0  0  0
 55129  1  0  0  0
 56 69  2  0  0  0
 57 58  2  0  0  0
 57130  1  0  0  0
 58131  1  0  0  0
 59 60  1  0  0  0
 59 61  1  0  0  0
 59 62  1  0  0  0
 60132  1  0  0  0
 60133  1  0  0  0
 60134  1  0  0  0
 61135  1  0  0  0
 61136  1  0  0  0
 61137  1  0  0  0
 62138  1  0  0  0
 62139  1  0  0  0
 62140  1  0  0  0
 63 65  1  0  0  0
 63141  1  0  0  0
 63142  1  0  0  0
 63143  1  0  0  0
 64144  1  0  0  0
 65145  1  0  0  0
 68 81  1  0  0  0
 71 72  2  0  0  0
 71 84  1  0  0  0
 71146  1  0  0  0
 72 73  1  0  0  0
 72 79  1  0  0  0
 73 74  2  0  0  0
 73 85  1  0  0  0
 74 82  1  0  0  0
 74 84  1  0  0  0
 75147  1  0  0  0
 75148  1  0  0  0
 75149  1  0  0  0
 75 82  1  0  0  0
 76 82  1  0  0  0
 76150  1  0  0  0
 76151  1  0  0  0
 76152  1  0  0  0
 77153  1  0  0  0
 77154  1  0  0  0
 77155  1  0  0  0
 77 83  1  0  0  0
 78 83  1  0  0  0
 78156  1  0  0  0
 78157  1  0  0  0
 78158  1  0  0  0
 79 80  1  0  0  0
 79159  1  0  0  0
 79160  1  0  0  0
 80 86  1  0  0  0
 80161  1  0  0  0
 80162  1  0  0  0
 81 84  1  0  0  0
 81163  1  0  0  0
 81164  1  0  0  0
 82165  1  0  0  0
 83 85  1  0  0  0
 83166  1  0  0  0
 85167  1  0  0  0
 86168  1  0  0  0
M  ISO  4   1 100  68 101  81 101  86 100
M  END
> <chiral flag>
0

> <version>
0

> <s_m_source_file>
/data/baiqing/PycharmProjects/Reinvent-master-3.2/result/LINK_invent/BTK/process_docking_weight1_custom_sum_contain_oxygen_bond_distance_aromatic_linkinvent_7_9_3/rearranged_h_0108.sdf

> <i_m_source_file_index>
52

> <r_mmod_Potential_Energy-OPLS-2005>
25093.396484375

> <r_mmod_Stretch_Energy-OPLS-2005>
12950.5478515625

> <r_mmod_Bend_Energy-OPLS-2005>
3870.7314453125

> <r_mmod_Torsional_Energy-OPLS-2005>
641.635864257812

> <r_mmod_Improper_Torsional_Energy-OPLS-2005>
102.22038269043

> <r_mmod_Van_der_Waal_Energy-OPLS-2005>
4705.7919921875

> <r_mmod_Electrostatic_Energy-OPLS-2005>
-414.072937011719

> <r_mmod_Solvation_Energy-OPLS-2005>
-205.163970947266

> <b_mmod_Minimization_Converged-OPLS-2005>
0

> <r_mmod_RMS_Derivative-OPLS-2005>
32.1420860290527

$$$$
52
                    3D
 Structure written by MMmdl.
172181  0  0  1  0            999 V2000
  -30.6380  -14.8827   20.4551 C   0  0  0  0  0  0
  -30.4251  -12.5532   19.4858 C   0  0  0  0  0  0
  -29.5031  -12.5352   18.2431 C   0  0  0  0  0  0
  -28.0256  -12.3827   18.6573 C   0  0  0  0  0  0
  -27.6400  -13.2767   19.8641 C   0  0  2  0  0  0
  -28.7002  -13.2714   20.9911 C   0  0  0  0  0  0
  -25.2486  -13.8259   20.5907 C   0  0  0  0  0  0
  -24.1830  -13.0407   20.9432 C   0  0  0  0  0  0
  -24.6495  -11.6931   20.8881 C   0  0  0  0  0  0
  -23.9148  -10.4292   21.0444 C   0  0  0  0  0  0
  -24.3752   -9.4145   21.9077 C   0  0  0  0  0  0
  -23.6400   -8.2188   22.0609 C   0  0  0  0  0  0
  -22.4345   -8.0273   21.3461 C   0  0  0  0  0  0
  -21.9947   -9.0311   20.4642 C   0  0  0  0  0  0
  -22.7301  -10.2183   20.3117 C   0  0  0  0  0  0
  -21.6917   -6.0730   22.5184 C   0  0  0  0  0  0
  -21.4066   -6.5673   23.8099 C   0  0  0  0  0  0
  -21.3739   -5.6872   24.9105 C   0  0  0  0  0  0
  -21.6095   -4.3135   24.7195 C   0  0  0  0  0  0
  -21.8874   -3.8170   23.4337 C   0  0  0  0  0  0
  -21.9283   -4.6962   22.3369 C   0  0  0  0  0  0
  -22.7860  -13.5203   21.2105 C   0  0  0  0  0  0
  -22.1700   -4.2113   21.0955 F   0  0  0  0  0  0
  -21.5704   -3.4613   25.7719 F   0  0  0  0  0  0
  -29.9796  -13.6567   20.3849 N   0  0  0  0  0  0
  -26.2990  -12.9589   20.3529 N   0  0  0  0  0  0
  -25.9430  -11.6660   20.5836 N   0  0  0  0  0  0
  -22.0436  -12.8146   22.0606 N   0  0  0  0  0  0
  -25.3959  -15.1928   20.4194 N   0  0  0  0  0  0
  -31.7901  -14.9383   20.0120 O   0  0  0  0  0  0
  -21.6726   -6.8851   21.4131 O   0  0  0  0  0  0
  -22.3654  -14.5587   20.7051 O   0  0  0  0  0  0
  -24.6336  -31.8527   23.1981 C   0  0  0  0  0  0
  -25.9156  -32.4744   23.8327 C   0  0  1  0  0  0
  -27.2140  -27.1777   20.1668 C   0  0  0  0  0  0
  -25.5924  -33.8541   24.2235 N   0  0  0  0  0  0
  -23.4351  -30.4756   21.5381 C   0  0  2  0  0  0
  -24.8903  -28.9178   20.1127 C   0  0  0  0  0  0
  -22.7508  -29.4583   22.4845 C   0  0  0  0  0  0
  -18.0297  -28.1396   22.8471 C   0  0  0  0  0  0
  -24.1503  -36.7288   23.2637 C   0  0  0  0  0  0
  -25.9885  -30.7365   21.4000 C   0  0  0  0  0  0
  -26.0621  -29.3493   20.7497 C   0  0  0  0  0  0
  -27.2167  -28.4882   20.7845 C   0  0  0  0  0  0
  -26.0312  -26.8661   19.4541 C   0  0  0  0  0  0
  -24.8850  -27.6815   19.4554 C   0  0  0  0  0  0
  -23.6657  -29.8135   20.1550 C   0  0  0  0  0  0
  -25.4127  -36.3056   24.0315 C   0  0  1  0  0  0
  -20.5908  -28.3729   23.1217 C   0  0  2  0  0  0
  -20.6786  -26.9430   22.5393 C   0  0  0  0  0  0
  -19.5770  -26.6381   21.5196 C   0  0  0  0  0  0
  -18.1952  -26.7927   22.1616 C   0  0  0  0  0  0
  -19.1553  -28.8877   23.2849 C   0  0  0  0  0  0
  -18.9474  -30.1463   23.8886 C   0  0  0  0  0  0
  -17.6479  -30.6589   24.0573 C   0  0  0  0  0  0
  -25.9065  -34.9423   23.5093 C   0  0  0  0  0  0
  -16.5368  -29.9095   23.6326 C   0  0  0  0  0  0
  -16.7282  -28.6515   23.0337 C   0  0  0  0  0  0
  -26.4493  -31.6576   25.0748 C   0  0  0  0  0  0
  -25.3668  -31.3805   26.1449 C   0  0  0  0  0  0
  -27.0369  -30.2955   24.6339 C   0  0  0  0  0  0
  -27.6023  -32.4329   25.7535 C   0  0  0  0  0  0
  -27.5580  -37.1815   24.8457 C   0  0  0  0  0  0
  -21.4206  -29.3074   22.3594 N   0  0  0  0  0  0
  -26.4299  -37.3753   23.9392 N   0  0  0  0  0  0
  -24.7047  -31.0419   22.1007 N   0  0  0  0  0  0
  -23.4177  -28.8097   23.2956 O   0  0  0  0  0  0
  -28.2374  -26.1739   20.2874 O   0  0  0  0  0  0
  -26.5640  -34.8904   22.4662 O   0  0  0  0  0  0
  -23.5461  -32.1393   23.7212 O   0  0  0  0  0  0
  -29.0878  -20.8863   19.6089 C   0  0  0  0  0  0
  -28.7891  -22.2735   19.3093 C   0  0  0  0  0  0
  -28.6847  -22.7766   21.6063 C   0  0  0  0  0  0
  -29.2088  -20.3512   20.9310 C   0  0  0  0  0  0
  -28.5643  -23.2986   20.2870 C   0  0  0  0  0  0
  -29.0073  -21.3968   21.9270 C   0  0  0  0  0  0
  -30.7176  -16.3853   22.2688 C   0  0  0  0  0  0
  -29.7970  -17.4496   20.3227 C   0  0  0  0  0  0
  -29.9157  -17.2905   23.2326 C   0  0  0  0  0  0
  -29.6367  -18.7912   21.2966 C   0  0  2  0  0  0
  -29.1226  -21.1119   23.4263 C   0  0  0  0  0  0
  -25.8788  -18.5982   24.2949 C   0  0  0  0  0  0
  -26.3289  -16.1545   23.8098 C   0  0  0  0  0  0
  -27.8935  -24.7301   19.8809 C   0  0  0  0  0  0
  -27.6012  -17.9203   22.4805 C   0  0  0  0  0  0
  -26.9223  -17.5686   23.8428 C   0  0  0  0  0  0
  -30.0476  -16.0531   20.9982 N   0  0  0  0  0  0
  -29.0416  -18.3027   22.5731 N   0  3  1  0  0  0
  -31.4630  -12.6650   19.1690 H   0  0  0  0  0  0
  -30.3720  -11.6056   20.0261 H   0  0  0  0  0  0
  -29.7857  -11.7141   17.5841 H   0  0  0  0  0  0
  -29.6319  -13.4597   17.6702 H   0  0  0  0  0  0
  -27.8575  -11.3354   18.9009 H   0  0  0  0  0  0
  -27.3656  -12.5963   17.8142 H   0  0  0  0  0  0
  -27.6170  -14.2992   19.4750 H   0  0  0  0  0  0
  -28.7804  -12.2918   21.4715 H   0  0  0  0  0  0
  -28.4190  -13.9891   21.7661 H   0  0  0  0  0  0
  -25.3002   -9.5572   22.4482 H   0  0  0  0  0  0
  -24.0195   -7.4548   22.7190 H   0  0  0  0  0  0
  -21.0951   -8.8799   19.8841 H   0  0  0  0  0  0
  -22.3765  -10.9777   19.6274 H   0  0  0  0  0  0
  -21.2013   -7.6169   23.9534 H   0  0  0  0  0  0
  -21.1542   -6.0665   25.8980 H   0  0  0  0  0  0
  -22.0636   -2.7609   23.2838 H   0  0  0  0  0  0
  -22.3739  -11.9503   22.4651 H   0  0  0  0  0  0
  -21.1078  -13.1287   22.2765 H   0  0  0  0  0  0
  -24.5722  -15.7857   20.4260 H   0  0  0  0  0  0
  -26.1961  -15.6216   19.9692 H   0  0  0  0  0  0
  -26.7238  -32.5387   23.1076 H   0  0  0  0  0  0
  -25.0053  -33.9697   25.0360 H   0  0  0  0  0  0
  -22.7330  -31.2998   21.3875 H   0  0  0  0  0  0
  -23.3762  -35.9627   23.3273 H   0  0  0  0  0  0
  -24.3608  -36.8936   22.2065 H   0  0  0  0  0  0
  -23.7284  -37.6481   23.6685 H   0  0  0  0  0  0
  -26.1394  -31.4835   20.6188 H   0  0  0  0  0  0
  -26.8594  -30.7873   22.0428 H   0  0  0  0  0  0
  -28.0834  -28.8006   21.3522 H   0  0  0  0  0  0
  -25.9300  -25.9463   18.9017 H   0  0  0  0  0  0
  -23.9934  -27.3467   18.9415 H   0  0  0  0  0  0
  -23.8112  -30.5894   19.4040 H   0  0  0  0  0  0
  -22.7852  -29.2561   19.8370 H   0  0  0  0  0  0
  -25.1328  -36.1889   25.0809 H   0  0  0  0  0  0
  -21.0022  -28.3360   24.1333 H   0  0  0  0  0  0
  -20.5679  -26.2369   23.3635 H   0  0  0  0  0  0
  -21.6658  -26.7454   22.1213 H   0  0  0  0  0  0
  -19.6953  -25.6291   21.1246 H   0  0  0  0  0  0
  -19.6696  -27.3175   20.6720 H   0  0  0  0  0  0
  -17.4216  -26.6634   21.4023 H   0  0  0  0  0  0
  -18.0385  -26.0067   22.9029 H   0  0  0  0  0  0
  -19.7949  -30.7268   24.2248 H   0  0  0  0  0  0
  -17.5040  -31.6261   24.5187 H   0  0  0  0  0  0
  -15.5370  -30.3015   23.7641 H   0  0  0  0  0  0
  -15.8676  -28.0844   22.7054 H   0  0  0  0  0  0
  -24.5845  -30.7147   25.7794 H   0  0  0  0  0  0
  -24.8874  -32.3019   26.4749 H   0  0  0  0  0  0
  -25.7926  -30.9076   27.0303 H   0  0  0  0  0  0
  -26.3024  -29.6673   24.1293 H   0  0  0  0  0  0
  -27.3911  -29.7253   25.4935 H   0  0  0  0  0  0
  -27.8939  -30.4172   23.9714 H   0  0  0  0  0  0
  -27.2603  -33.3635   26.2061 H   0  0  0  0  0  0
  -28.3850  -32.6864   25.0381 H   0  0  0  0  0  0
  -28.0651  -31.8496   26.5498 H   0  0  0  0  0  0
  -28.2594  -38.0113   24.7489 H   0  0  0  0  0  0
  -28.1075  -36.2644   24.6287 H   0  0  0  0  0  0
  -27.2302  -37.1474   25.8859 H   0  0  0  0  0  0
  -20.9381  -29.8844   21.6840 H   0  0  0  0  0  0
  -26.0163  -38.2827   24.1338 H   0  0  0  0  0  0
  -29.2289  -20.2093   18.7794 H   0  0  0  0  0  0
  -28.6886  -22.5359   18.2628 H   0  0  0  0  0  0
  -28.4730  -23.4624   22.4154 H   0  0  0  0  0  0
  -30.9877  -15.4862   22.8264 H   0  0  0  0  0  0
  -31.6753  -16.8564   22.0202 H   0  0  0  0  0  0
  -30.5986  -17.6323   19.6092 H   0  0  0  0  0  0
  -28.9002  -17.3508   19.7123 H   0  0  0  0  0  0
  -30.6123  -17.8392   23.8702 H   0  0  0  0  0  0
  -29.3672  -16.6407   23.9114 H   0  0  0  0  0  0
  -30.6767  -19.0023   21.5495 H   0  0  0  0  0  0
  -29.0096  -22.0207   24.0200 H   0  0  0  0  0  0
  -30.1094  -20.7140   23.6745 H   0  0  0  0  0  0
  -28.3448  -20.4353   23.7800 H   0  0  0  0  0  0
  -25.2618  -18.1950   25.0983 H   0  0  0  0  0  0
  -25.2038  -18.8951   23.4950 H   0  0  0  0  0  0
  -26.3626  -19.4922   24.6883 H   0  0  0  0  0  0
  -25.8837  -15.8873   24.7685 H   0  0  0  0  0  0
  -27.0910  -15.4036   23.6031 H   0  0  0  0  0  0
  -25.5562  -16.0686   23.0420 H   0  0  0  0  0  0
  -26.8695  -24.5542   20.2070 H   0  0  0  0  0  0
  -27.8966  -24.7407   18.7900 H   0  0  0  0  0  0
  -27.0470  -18.7290   22.0011 H   0  0  0  0  0  0
  -27.5123  -17.0798   21.7918 H   0  0  0  0  0  0
  -27.6372  -17.5584   24.6639 H   0  0  0  0  0  0
  -29.0630  -19.1143   23.1740 H   0  0  0  0  0  0
  1 25  1  0  0  0
  1 30  2  0  0  0
  1 87  1  0  0  0
  2  3  1  0  0  0
  2 25  1  0  0  0
  2 89  1  0  0  0
  2 90  1  0  0  0
  3  4  1  0  0  0
  3 91  1  0  0  0
  3 92  1  0  0  0
  4  5  1  0  0  0
  4 93  1  0  0  0
  4 94  1  0  0  0
  5  6  1  0  0  0
  5 26  1  0  0  0
  5 95  1  0  0  0
  6 25  1  0  0  0
  6 96  1  0  0  0
  6 97  1  0  0  0
  7  8  2  0  0  0
  7 26  1  0  0  0
  7 29  1  0  0  0
  8  9  1  0  0  0
  8 22  1  0  0  0
  9 10  1  0  0  0
  9 27  2  0  0  0
 10 11  2  0  0  0
 10 15  1  0  0  0
 11 12  1  0  0  0
 11 98  1  0  0  0
 12 13  2  0  0  0
 12 99  1  0  0  0
 13 14  1  0  0  0
 13 31  1  0  0  0
 14 15  2  0  0  0
 14100  1  0  0  0
 15101  1  0  0  0
 16 17  2  0  0  0
 16 21  1  0  0  0
 16 31  1  0  0  0
 17 18  1  0  0  0
 17102  1  0  0  0
 18 19  2  0  0  0
 18103  1  0  0  0
 19 20  1  0  0  0
 19 24  1  0  0  0
 20 21  2  0  0  0
 20104  1  0  0  0
 21 23  1  0  0  0
 22 28  1  0  0  0
 22 32  2  0  0  0
 26 27  1  0  0  0
 28105  1  0  0  0
 28106  1  0  0  0
 29107  1  0  0  0
 29108  1  0  0  0
 33 34  1  0  0  0
 33 66  1  0  0  0
 33 70  2  0  0  0
 34 36  1  0  0  0
 34 59  1  0  0  0
 34109  1  0  0  0
 35 44  2  0  0  0
 35 45  1  0  0  0
 35 68  1  0  0  0
 36 56  1  0  0  0
 36110  1  0  0  0
 37 39  1  0  0  0
 37 47  1  0  0  0
 37 66  1  0  0  0
 37111  1  0  0  0
 38 43  2  0  0  0
 38 46  1  0  0  0
 38 47  1  0  0  0
 39 64  1  0  0  0
 39 67  2  0  0  0
 40 52  1  0  0  0
 40 53  2  0  0  0
 40 58  1  0  0  0
 41112  1  0  0  0
 41113  1  0  0  0
 41114  1  0  0  0
 41 48  1  0  0  0
 42 43  1  0  0  0
 42 66  1  0  0  0
 42115  1  0  0  0
 42116  1  0  0  0
 43 44  1  0  0  0
 44117  1  0  0  0
 45 46  2  0  0  0
 45118  1  0  0  0
 46119  1  0  0  0
 47120  1  0  0  0
 47121  1  0  0  0
 48 56  1  0  0  0
 48 65  1  0  0  0
 48122  1  0  0  0
 49 50  1  0  0  0
 49 53  1  0  0  0
 49 64  1  0  0  0
 49123  1  0  0  0
 50 51  1  0  0  0
 50124  1  0  0  0
 50125  1  0  0  0
 51 52  1  0  0  0
 51126  1  0  0  0
 51127  1  0  0  0
 52128  1  0  0  0
 52129  1  0  0  0
 53 54  1  0  0  0
 54 55  2  0  0  0
 54130  1  0  0  0
 55 57  1  0  0  0
 55131  1  0  0  0
 56 69  2  0  0  0
 57 58  2  0  0  0
 57132  1  0  0  0
 58133  1  0  0  0
 59 60  1  0  0  0
 59 61  1  0  0  0
 59 62  1  0  0  0
 60134  1  0  0  0
 60135  1  0  0  0
 60136  1  0  0  0
 61137  1  0  0  0
 61138  1  0  0  0
 61139  1  0  0  0
 62140  1  0  0  0
 62141  1  0  0  0
 62142  1  0  0  0
 63 65  1  0  0  0
 63143  1  0  0  0
 63144  1  0  0  0
 63145  1  0  0  0
 64146  1  0  0  0
 65147  1  0  0  0
 68 84  1  0  0  0
 71 72  2  0  0  0
 71 74  1  0  0  0
 71148  1  0  0  0
 72 75  1  0  0  0
 72149  1  0  0  0
 73 75  2  0  0  0
 73 76  1  0  0  0
 73150  1  0  0  0
 74 76  2  0  0  0
 74 80  1  0  0  0
 75 84  1  0  0  0
 76 81  1  0  0  0
 77 79  1  0  0  0
 77 87  1  0  0  0
 77151  1  0  0  0
 77152  1  0  0  0
 78 80  1  0  0  0
 78 87  1  0  0  0
 78153  1  0  0  0
 78154  1  0  0  0
 79 88  1  0  0  0
 79155  1  0  0  0
 79156  1  0  0  0
 80 88  1  0  0  0
 80157  1  0  0  0
 81158  1  0  0  0
 81159  1  0  0  0
 81160  1  0  0  0
 82161  1  0  0  0
 82162  1  0  0  0
 82163  1  0  0  0
 82 86  1  0  0  0
 83 86  1  0  0  0
 83164  1  0  0  0
 83165  1  0  0  0
 83166  1  0  0  0
 84167  1  0  0  0
 84168  1  0  0  0
 85 86  1  0  0  0
 85169  1  0  0  0
 85170  1  0  0  0
 85 88  1  0  0  0
 86171  1  0  0  0
 88172  1  0  0  0
M  CHG  1  88   1
M  ISO  4   1 100  68 101  84 101  87 100
M  END
> <chiral flag>
0

> <version>
0

> <s_m_source_file>
/data/baiqing/PycharmProjects/Reinvent-master-3.2/result/LINK_invent/BTK/process_docking_weight1_custom_sum_contain_oxygen_bond_distance_aromatic_linkinvent_7_9_3/rearranged_h_0108.sdf

> <i_m_source_file_index>
53

> <r_mmod_Potential_Energy-OPLS-2005>
613.593566894531

> <r_mmod_Stretch_Energy-OPLS-2005>
212.706115722656

> <r_mmod_Bend_Energy-OPLS-2005>
294.104217529297

> <r_mmod_Torsional_Energy-OPLS-2005>
417.696594238281

> <r_mmod_Improper_Torsional_Energy-OPLS-2005>
11.1875019073486

> <r_mmod_Van_der_Waal_Energy-OPLS-2005>
153.265045166016

> <r_mmod_Electrostatic_Energy-OPLS-2005>
-218.870529174805

> <r_mmod_Solvation_Energy-OPLS-2005>
-417.596923828125

> <b_mmod_Minimization_Converged-OPLS-2005>
0

> <r_mmod_RMS_Derivative-OPLS-2005>
8.25112152099609

$$$$
53
                    3D
 Structure written by MMmdl.
170178  0  0  1  0            999 V2000
  -30.6444  -14.6113   20.5152 C   0  0  0  0  0  0
  -30.4312  -12.3839   19.4368 C   0  0  0  0  0  0
  -29.4950  -12.4868   18.2139 C   0  0  0  0  0  0
  -28.0216  -12.3266   18.6381 C   0  0  0  0  0  0
  -27.6495  -13.2085   19.8587 C   0  0  2  0  0  0
  -28.6966  -13.0730   20.9859 C   0  0  0  0  0  0
  -25.2561  -13.8148   20.5693 C   0  0  0  0  0  0
  -24.1828  -13.0439   20.9218 C   0  0  0  0  0  0
  -24.6371  -11.6901   20.8769 C   0  0  0  0  0  0
  -23.9040  -10.4294   21.0425 C   0  0  0  0  0  0
  -24.3597   -9.4221   21.9206 C   0  0  0  0  0  0
  -23.6277   -8.2251   22.0768 C   0  0  0  0  0  0
  -22.4269   -8.0279   21.3540 C   0  0  0  0  0  0
  -21.9907   -9.0259   20.4649 C   0  0  0  0  0  0
  -22.7221  -10.2140   20.3067 C   0  0  0  0  0  0
  -21.6848   -6.0736   22.5276 C   0  0  0  0  0  0
  -21.4012   -6.5643   23.8207 C   0  0  0  0  0  0
  -21.3654   -5.6800   24.9172 C   0  0  0  0  0  0
  -21.6044   -4.3059   24.7228 C   0  0  0  0  0  0
  -21.8821   -3.8152   23.4347 C   0  0  0  0  0  0
  -21.9195   -4.6966   22.3402 C   0  0  0  0  0  0
  -22.7859  -13.5251   21.1862 C   0  0  0  0  0  0
  -22.1667   -4.2153   21.0982 F   0  0  0  0  0  0
  -21.5625   -3.4546   25.7743 F   0  0  0  0  0  0
  -30.0051  -13.4084   20.4082 N   0  0  0  0  0  0
  -26.2965  -12.9307   20.3314 N   0  0  0  0  0  0
  -25.9293  -11.6474   20.5788 N   0  0  0  0  0  0
  -22.0478  -12.8248   22.0389 N   0  0  0  0  0  0
  -25.4307  -15.1862   20.4042 N   0  0  0  0  0  0
  -31.8159  -14.7544   20.1557 O   0  0  0  0  0  0
  -21.6636   -6.8879   21.4235 O   0  0  0  0  0  0
  -22.3575  -14.5576   20.6706 O   0  0  0  0  0  0
  -24.6198  -31.8656   23.2068 C   0  0  0  0  0  0
  -25.9055  -32.4818   23.8390 C   0  0  1  0  0  0
  -27.2232  -27.3653   20.0904 C   0  0  0  0  0  0
  -25.5881  -33.8621   24.2307 N   0  0  0  0  0  0
  -23.4098  -30.4875   21.5527 C   0  0  2  0  0  0
  -24.8522  -28.9462   20.1155 C   0  0  0  0  0  0
  -22.7451  -29.4623   22.5010 C   0  0  0  0  0  0
  -18.0273  -28.1364   22.8499 C   0  0  0  0  0  0
  -24.1472  -36.7303   23.2641 C   0  0  0  0  0  0
  -25.9467  -30.8066   21.3707 C   0  0  0  0  0  0
  -26.0186  -29.4371   20.7124 C   0  0  0  0  0  0
  -27.2053  -28.6554   20.6918 C   0  0  0  0  0  0
  -26.0249  -26.9005   19.5005 C   0  0  0  0  0  0
  -24.8533  -27.6814   19.5072 C   0  0  0  0  0  0
  -23.6175  -29.8210   20.1684 C   0  0  0  0  0  0
  -25.4103  -36.3115   24.0332 C   0  0  1  0  0  0
  -20.5865  -28.3647   23.1320 C   0  0  2  0  0  0
  -20.6752  -26.9378   22.5428 C   0  0  0  0  0  0
  -19.5726  -26.6370   21.5216 C   0  0  0  0  0  0
  -18.1908  -26.7913   22.1626 C   0  0  0  0  0  0
  -19.1524  -28.8826   23.2900 C   0  0  0  0  0  0
  -18.9448  -30.1438   23.8906 C   0  0  0  0  0  0
  -17.6449  -30.6573   24.0553 C   0  0  0  0  0  0
  -25.9045  -34.9472   23.5123 C   0  0  0  0  0  0
  -16.5340  -29.9072   23.6322 C   0  0  0  0  0  0
  -16.7262  -28.6487   23.0350 C   0  0  0  0  0  0
  -26.4449  -31.6632   25.0756 C   0  0  0  0  0  0
  -25.3661  -31.3711   26.1455 C   0  0  0  0  0  0
  -27.0340  -30.3086   24.6189 C   0  0  0  0  0  0
  -27.6010  -32.4379   25.7532 C   0  0  0  0  0  0
  -27.5574  -37.1813   24.8460 C   0  0  0  0  0  0
  -21.4172  -29.3013   22.3739 N   0  0  0  0  0  0
  -26.4287  -37.3803   23.9401 N   0  0  0  0  0  0
  -24.6779  -31.0694   22.1006 N   0  0  0  0  0  0
  -23.4214  -28.8160   23.3048 O   0  0  0  0  0  0
  -28.3929  -26.6086   20.1125 O   0  0  0  0  0  0
  -26.5647  -34.8923   22.4714 O   0  0  0  0  0  0
  -23.5366  -32.1443   23.7413 O   0  0  0  0  0  0
  -30.8570  -19.5481   21.1067 C   0  0  0  0  0  0
  -28.3707  -20.1389   19.9417 C   0  0  0  0  0  0
  -29.2101  -21.3221   20.5472 C   0  0  2  0  0  0
  -30.0274  -18.3696   20.5217 C   0  0  1  0  0  0
  -29.2613  -24.3497   21.7353 C   0  0  0  0  0  0
  -32.9293  -21.6828   20.1634 C   0  0  0  0  0  0
  -31.8657  -21.8625   22.4652 C   0  0  0  0  0  0
  -28.9512  -22.6824   19.7412 C   0  0  0  0  0  0
  -30.3814  -17.0350   21.3188 C   0  0  0  0  0  0
  -28.5008  -25.2814   19.5033 C   0  0  0  0  0  0
  -28.4751  -24.0218   20.4583 C   0  0  2  0  0  0
  -31.6197  -21.8666   20.9432 C   0  0  0  0  0  0
  -30.6294  -20.8748   20.4736 N   0  0  0  0  0  0
  -29.8862  -15.6859   20.8882 N   0  0  0  0  0  0
  -28.6083  -18.8076   20.5885 N   0  3  0  0  0  0
  -31.4693  -12.5119   19.1249 H   0  0  0  0  0  0
  -30.3736  -11.3909   19.8864 H   0  0  0  0  0  0
  -29.7522  -11.7229   17.4786 H   0  0  0  0  0  0
  -29.6318  -13.4492   17.7182 H   0  0  0  0  0  0
  -27.8655  -11.2757   18.8849 H   0  0  0  0  0  0
  -27.3584  -12.5405   17.7992 H   0  0  0  0  0  0
  -27.6684  -14.2406   19.5081 H   0  0  0  0  0  0
  -28.7122  -12.0559   21.3811 H   0  0  0  0  0  0
  -28.4494  -13.7173   21.8315 H   0  0  0  0  0  0
  -25.2726   -9.5708   22.4803 H   0  0  0  0  0  0
  -23.9984   -7.4652   22.7497 H   0  0  0  0  0  0
  -21.0840   -8.8767   19.8956 H   0  0  0  0  0  0
  -22.3669  -10.9683   19.6190 H   0  0  0  0  0  0
  -21.2003   -7.6152   23.9710 H   0  0  0  0  0  0
  -21.1470   -6.0531   25.9073 H   0  0  0  0  0  0
  -22.0607   -2.7617   23.2849 H   0  0  0  0  0  0
  -22.4055  -11.9877   22.4747 H   0  0  0  0  0  0
  -21.1108  -13.1300   22.2599 H   0  0  0  0  0  0
  -24.6537  -15.8334   20.4829 H   0  0  0  0  0  0
  -26.2508  -15.5988   19.9809 H   0  0  0  0  0  0
  -26.7129  -32.5497   23.1152 H   0  0  0  0  0  0
  -24.9924  -33.9764   25.0381 H   0  0  0  0  0  0
  -22.6977  -31.3038   21.4143 H   0  0  0  0  0  0
  -23.3748  -35.9625   23.3316 H   0  0  0  0  0  0
  -24.3529  -36.8940   22.2051 H   0  0  0  0  0  0
  -23.7215  -37.6494   23.6677 H   0  0  0  0  0  0
  -26.0688  -31.5698   20.6019 H   0  0  0  0  0  0
  -26.8305  -30.8590   21.9954 H   0  0  0  0  0  0
  -28.1090  -29.0310   21.1514 H   0  0  0  0  0  0
  -25.9540  -25.9274   19.0434 H   0  0  0  0  0  0
  -23.9518  -27.2969   19.0494 H   0  0  0  0  0  0
  -23.7241  -30.5960   19.4086 H   0  0  0  0  0  0
  -22.7391  -29.2434   19.8755 H   0  0  0  0  0  0
  -25.1283  -36.1991   25.0831 H   0  0  0  0  0  0
  -20.9937  -28.3217   24.1449 H   0  0  0  0  0  0
  -20.5649  -26.2248   23.3610 H   0  0  0  0  0  0
  -21.6616  -26.7403   22.1220 H   0  0  0  0  0  0
  -19.6868  -25.6290   21.1223 H   0  0  0  0  0  0
  -19.6669  -27.3194   20.6761 H   0  0  0  0  0  0
  -17.4181  -26.6686   21.4019 H   0  0  0  0  0  0
  -18.0278  -26.0041   22.8999 H   0  0  0  0  0  0
  -19.7928  -30.7240   24.2286 H   0  0  0  0  0  0
  -17.5006  -31.6251   24.5166 H   0  0  0  0  0  0
  -15.5337  -30.2968   23.7649 H   0  0  0  0  0  0
  -15.8661  -28.0807   22.7060 H   0  0  0  0  0  0
  -24.5853  -30.7072   25.7720 H   0  0  0  0  0  0
  -24.8791  -32.2834   26.4906 H   0  0  0  0  0  0
  -25.7932  -30.8839   27.0228 H   0  0  0  0  0  0
  -26.2946  -29.6829   24.1169 H   0  0  0  0  0  0
  -27.4033  -29.7349   25.4706 H   0  0  0  0  0  0
  -27.8799  -30.4441   23.9444 H   0  0  0  0  0  0
  -27.2640  -33.3684   26.2115 H   0  0  0  0  0  0
  -28.3798  -32.6949   25.0340 H   0  0  0  0  0  0
  -28.0706  -31.8506   26.5435 H   0  0  0  0  0  0
  -28.2595  -38.0113   24.7534 H   0  0  0  0  0  0
  -28.1079  -36.2644   24.6284 H   0  0  0  0  0  0
  -27.2271  -37.1457   25.8858 H   0  0  0  0  0  0
  -20.9351  -29.8770   21.6976 H   0  0  0  0  0  0
  -26.0184  -38.2885   24.1415 H   0  0  0  0  0  0
  -31.9099  -19.2826   21.0177 H   0  0  0  0  0  0
  -30.6505  -19.6128   22.1763 H   0  0  0  0  0  0
  -28.5806  -20.0538   18.8746 H   0  0  0  0  0  0
  -27.3089  -20.3761   20.0181 H   0  0  0  0  0  0
  -28.9190  -21.4556   21.5901 H   0  0  0  0  0  0
  -30.2998  -18.2349   19.4732 H   0  0  0  0  0  0
  -29.3200  -23.5006   22.4130 H   0  0  0  0  0  0
  -28.7714  -25.1558   22.2841 H   0  0  0  0  0  0
  -30.2721  -24.6864   21.5070 H   0  0  0  0  0  0
  -33.6507  -22.4554   20.4319 H   0  0  0  0  0  0
  -32.7613  -21.7593   19.0884 H   0  0  0  0  0  0
  -33.4045  -20.7226   20.3595 H   0  0  0  0  0  0
  -32.4735  -22.7216   22.7503 H   0  0  0  0  0  0
  -32.4095  -20.9768   22.7956 H   0  0  0  0  0  0
  -30.9372  -21.9228   23.0331 H   0  0  0  0  0  0
  -28.1788  -22.4761   19.0000 H   0  0  0  0  0  0
  -29.8174  -22.9002   19.1161 H   0  0  0  0  0  0
  -30.0610  -17.1634   22.3533 H   0  0  0  0  0  0
  -31.4696  -16.9799   21.3834 H   0  0  0  0  0  0
  -27.8247  -25.1400   18.6629 H   0  0  0  0  0  0
  -29.4818  -25.2921   19.0293 H   0  0  0  0  0  0
  -27.4403  -23.8654   20.7667 H   0  0  0  0  0  0
  -31.2791  -22.8672   20.6891 H   0  0  0  0  0  0
  -28.9212  -15.4754   21.0936 H   0  0  0  0  0  0
  -28.0264  -18.1257   20.1329 H   0  0  0  0  0  0
  -28.3208  -18.8717   21.5511 H   0  0  0  0  0  0
  1 25  1  0  0  0
  1 30  2  0  0  0
  1 84  1  0  0  0
  2  3  1  0  0  0
  2 25  1  0  0  0
  2 86  1  0  0  0
  2 87  1  0  0  0
  3  4  1  0  0  0
  3 88  1  0  0  0
  3 89  1  0  0  0
  4  5  1  0  0  0
  4 90  1  0  0  0
  4 91  1  0  0  0
  5  6  1  0  0  0
  5 26  1  0  0  0
  5 92  1  0  0  0
  6 25  1  0  0  0
  6 93  1  0  0  0
  6 94  1  0  0  0
  7  8  2  0  0  0
  7 26  1  0  0  0
  7 29  1  0  0  0
  8  9  1  0  0  0
  8 22  1  0  0  0
  9 10  1  0  0  0
  9 27  2  0  0  0
 10 11  2  0  0  0
 10 15  1  0  0  0
 11 12  1  0  0  0
 11 95  1  0  0  0
 12 13  2  0  0  0
 12 96  1  0  0  0
 13 14  1  0  0  0
 13 31  1  0  0  0
 14 15  2  0  0  0
 14 97  1  0  0  0
 15 98  1  0  0  0
 16 17  2  0  0  0
 16 21  1  0  0  0
 16 31  1  0  0  0
 17 18  1  0  0  0
 17 99  1  0  0  0
 18 19  2  0  0  0
 18100  1  0  0  0
 19 20  1  0  0  0
 19 24  1  0  0  0
 20 21  2  0  0  0
 20101  1  0  0  0
 21 23  1  0  0  0
 22 28  1  0  0  0
 22 32  2  0  0  0
 26 27  1  0  0  0
 28102  1  0  0  0
 28103  1  0  0  0
 29104  1  0  0  0
 29105  1  0  0  0
 33 34  1  0  0  0
 33 66  1  0  0  0
 33 70  2  0  0  0
 34 36  1  0  0  0
 34 59  1  0  0  0
 34106  1  0  0  0
 35 44  2  0  0  0
 35 45  1  0  0  0
 35 68  1  0  0  0
 36 56  1  0  0  0
 36107  1  0  0  0
 37 39  1  0  0  0
 37 47  1  0  0  0
 37 66  1  0  0  0
 37108  1  0  0  0
 38 43  2  0  0  0
 38 46  1  0  0  0
 38 47  1  0  0  0
 39 64  1  0  0  0
 39 67  2  0  0  0
 40 52  1  0  0  0
 40 53  2  0  0  0
 40 58  1  0  0  0
 41109  1  0  0  0
 41110  1  0  0  0
 41111  1  0  0  0
 41 48  1  0  0  0
 42 43  1  0  0  0
 42 66  1  0  0  0
 42112  1  0  0  0
 42113  1  0  0  0
 43 44  1  0  0  0
 44114  1  0  0  0
 45 46  2  0  0  0
 45115  1  0  0  0
 46116  1  0  0  0
 47117  1  0  0  0
 47118  1  0  0  0
 48 56  1  0  0  0
 48 65  1  0  0  0
 48119  1  0  0  0
 49 50  1  0  0  0
 49 53  1  0  0  0
 49 64  1  0  0  0
 49120  1  0  0  0
 50 51  1  0  0  0
 50121  1  0  0  0
 50122  1  0  0  0
 51 52  1  0  0  0
 51123  1  0  0  0
 51124  1  0  0  0
 52125  1  0  0  0
 52126  1  0  0  0
 53 54  1  0  0  0
 54 55  2  0  0  0
 54127  1  0  0  0
 55 57  1  0  0  0
 55128  1  0  0  0
 56 69  2  0  0  0
 57 58  2  0  0  0
 57129  1  0  0  0
 58130  1  0  0  0
 59 60  1  0  0  0
 59 61  1  0  0  0
 59 62  1  0  0  0
 60131  1  0  0  0
 60132  1  0  0  0
 60133  1  0  0  0
 61134  1  0  0  0
 61135  1  0  0  0
 61136  1  0  0  0
 62137  1  0  0  0
 62138  1  0  0  0
 62139  1  0  0  0
 63 65  1  0  0  0
 63140  1  0  0  0
 63141  1  0  0  0
 63142  1  0  0  0
 64143  1  0  0  0
 65144  1  0  0  0
 68 80  1  0  0  0
 71 74  1  0  0  0
 71 83  1  0  0  0
 71145  1  0  0  0
 71146  1  0  0  0
 72 73  1  0  0  0
 72 85  1  0  0  0
 72147  1  0  0  0
 72148  1  0  0  0
 73 78  1  0  0  0
 73 83  1  0  0  0
 73149  1  0  0  0
 74 79  1  0  0  0
 74 85  1  0  0  0
 74150  1  0  0  0
 75151  1  0  0  0
 75152  1  0  0  0
 75153  1  0  0  0
 75 81  1  0  0  0
 76154  1  0  0  0
 76155  1  0  0  0
 76156  1  0  0  0
 76 82  1  0  0  0
 77 82  1  0  0  0
 77157  1  0  0  0
 77158  1  0  0  0
 77159  1  0  0  0
 78 81  1  0  0  0
 78160  1  0  0  0
 78161  1  0  0  0
 79 84  1  0  0  0
 79162  1  0  0  0
 79163  1  0  0  0
 80 81  1  0  0  0
 80164  1  0  0  0
 80165  1  0  0  0
 81166  1  0  0  0
 82 83  1  0  0  0
 82167  1  0  0  0
 84168  1  0  0  0
 85169  1  0  0  0
 85170  1  0  0  0
M  CHG  1  85   1
M  ISO  4   1 100  68 101  80 101  84 100
M  END
> <chiral flag>
0

> <version>
0

> <s_m_source_file>
/data/baiqing/PycharmProjects/Reinvent-master-3.2/result/LINK_invent/BTK/process_docking_weight1_custom_sum_contain_oxygen_bond_distance_aromatic_linkinvent_7_9_3/rearranged_h_0108.sdf

> <i_m_source_file_index>
54

> <r_mmod_Potential_Energy-OPLS-2005>
-120.044357299805

> <r_mmod_Stretch_Energy-OPLS-2005>
72.8452911376953

> <r_mmod_Bend_Energy-OPLS-2005>
160.864166259766

> <r_mmod_Torsional_Energy-OPLS-2005>
265.853088378906

> <r_mmod_Improper_Torsional_Energy-OPLS-2005>
4.2940731048584

> <r_mmod_Van_der_Waal_Energy-OPLS-2005>
143.304336547852

> <r_mmod_Electrostatic_Energy-OPLS-2005>
-326.355834960938

> <r_mmod_Solvation_Energy-OPLS-2005>
-475.757476806641

> <b_mmod_Minimization_Converged-OPLS-2005>
0

> <r_mmod_RMS_Derivative-OPLS-2005>
2.17044591903687

$$$$
54
                    3D
 Structure written by MMmdl.
159167  0  0  1  0            999 V2000
  -30.5452  -14.9563   20.3214 C   0  0  0  0  0  0
  -30.4344  -12.5705   19.4634 C   0  0  0  0  0  0
  -29.5144  -12.4526   18.2263 C   0  0  0  0  0  0
  -28.0387  -12.2863   18.6523 C   0  0  0  0  0  0
  -27.6170  -13.2359   19.8069 C   0  0  2  0  0  0
  -28.6754  -13.2909   20.9248 C   0  0  0  0  0  0
  -25.2467  -13.8213   20.5643 C   0  0  0  0  0  0
  -24.1788  -13.0444   20.9172 C   0  0  0  0  0  0
  -24.6420  -11.6943   20.8760 C   0  0  0  0  0  0
  -23.9121  -10.4320   21.0403 C   0  0  0  0  0  0
  -24.3702   -9.4273   21.9178 C   0  0  0  0  0  0
  -23.6383   -8.2315   22.0782 C   0  0  0  0  0  0
  -22.4345   -8.0351   21.3574 C   0  0  0  0  0  0
  -21.9961   -9.0308   20.4657 C   0  0  0  0  0  0
  -22.7297  -10.2180   20.3054 C   0  0  0  0  0  0
  -21.6896   -6.0792   22.5304 C   0  0  0  0  0  0
  -21.4026   -6.5679   23.8238 C   0  0  0  0  0  0
  -21.3658   -5.6811   24.9177 C   0  0  0  0  0  0
  -21.6053   -4.3077   24.7211 C   0  0  0  0  0  0
  -21.8843   -3.8185   23.4326 C   0  0  0  0  0  0
  -21.9226   -4.7020   22.3398 C   0  0  0  0  0  0
  -22.7836  -13.5240   21.1812 C   0  0  0  0  0  0
  -22.1697   -4.2228   21.0969 F   0  0  0  0  0  0
  -21.5618   -3.4544   25.7711 F   0  0  0  0  0  0
  -29.9349  -13.6996   20.2936 N   0  0  0  0  0  0
  -26.2859  -12.9409   20.3135 N   0  0  0  0  0  0
  -25.9343  -11.6565   20.5717 N   0  0  0  0  0  0
  -22.0483  -12.8230   22.0370 N   0  0  0  0  0  0
  -25.4072  -15.1934   20.4131 N   0  0  0  0  0  0
  -31.7763  -14.9808   20.2427 O   0  0  0  0  0  0
  -21.6706   -6.8946   21.4278 O   0  0  0  0  0  0
  -22.3548  -14.5560   20.6694 O   0  0  0  0  0  0
  -24.6354  -31.8541   23.1989 C   0  0  0  0  0  0
  -25.9166  -32.4748   23.8365 C   0  0  1  0  0  0
  -27.2026  -27.1978   20.1421 C   0  0  0  0  0  0
  -25.5969  -33.8572   24.2269 N   0  0  0  0  0  0
  -23.4359  -30.4724   21.5444 C   0  0  2  0  0  0
  -24.8812  -28.9204   20.1122 C   0  0  0  0  0  0
  -22.7542  -29.4552   22.4917 C   0  0  0  0  0  0
  -18.0301  -28.1331   22.8509 C   0  0  0  0  0  0
  -24.1504  -36.7242   23.2648 C   0  0  0  0  0  0
  -25.9896  -30.7447   21.3964 C   0  0  0  0  0  0
  -26.0584  -29.3672   20.7282 C   0  0  0  0  0  0
  -27.2210  -28.5199   20.7274 C   0  0  0  0  0  0
  -26.0008  -26.8477   19.4844 C   0  0  0  0  0  0
  -24.8643  -27.6713   19.4793 C   0  0  0  0  0  0
  -23.6579  -29.8134   20.1580 C   0  0  0  0  0  0
  -25.4156  -36.3074   24.0319 C   0  0  1  0  0  0
  -20.5903  -28.3627   23.1267 C   0  0  2  0  0  0
  -20.6753  -26.9323   22.5403 C   0  0  0  0  0  0
  -19.5738  -26.6323   21.5199 C   0  0  0  0  0  0
  -18.1915  -26.7875   22.1611 C   0  0  0  0  0  0
  -19.1556  -28.8799   23.2879 C   0  0  0  0  0  0
  -18.9510  -30.1410   23.8874 C   0  0  0  0  0  0
  -17.6505  -30.6545   24.0544 C   0  0  0  0  0  0
  -25.9119  -34.9441   23.5104 C   0  0  0  0  0  0
  -16.5379  -29.9055   23.6349 C   0  0  0  0  0  0
  -16.7283  -28.6454   23.0401 C   0  0  0  0  0  0
  -26.4551  -31.6607   25.0756 C   0  0  0  0  0  0
  -25.3765  -31.3713   26.1444 C   0  0  0  0  0  0
  -27.0439  -30.3023   24.6314 C   0  0  0  0  0  0
  -27.6111  -32.4384   25.7498 C   0  0  0  0  0  0
  -27.5595  -37.1771   24.8464 C   0  0  0  0  0  0
  -21.4222  -29.3000   22.3670 N   0  0  0  0  0  0
  -26.4310  -37.3787   23.9416 N   0  0  0  0  0  0
  -24.7075  -31.0416   22.1029 N   0  0  0  0  0  0
  -23.4214  -28.8067   23.3039 O   0  0  0  0  0  0
  -28.2494  -26.2276   20.2253 O   0  0  0  0  0  0
  -26.5642  -34.8887   22.4656 O   0  0  0  0  0  0
  -23.5469  -32.1411   23.7176 O   0  0  0  0  0  0
  -27.9555  -17.2168   18.7786 C   0  0  0  0  0  0
  -28.3081  -18.7020   18.9611 C   0  0  0  0  0  0
  -29.2201  -16.3258   18.7889 C   0  0  0  0  0  0
  -30.1183  -17.6445   20.5593 C   0  0  0  0  0  0
  -29.0627  -18.9292   20.2878 C   0  0  1  0  0  0
  -29.4865  -20.5448   20.4403 C   0  0  0  0  0  0
  -28.5038  -21.8615   20.1306 C   0  0  0  0  0  0
  -27.9290  -24.7321   20.0488 C   0  0  0  0  0  0
  -28.8947  -23.4535   20.4882 C   0  0  1  0  0  0
  -29.7825  -16.1636   20.1421 N   0  0  0  0  0  0
  -29.1083  -23.5625   21.9478 N   0  3  0  0  0  0
  -31.4656  -12.7250   19.1487 H   0  0  0  0  0  0
  -30.4352  -11.6376   20.0292 H   0  0  0  0  0  0
  -29.8068  -11.5866   17.6300 H   0  0  0  0  0  0
  -29.6325  -13.3173   17.5691 H   0  0  0  0  0  0
  -27.9113  -11.2507   18.9660 H   0  0  0  0  0  0
  -27.3821  -12.4144   17.7915 H   0  0  0  0  0  0
  -27.5445  -14.2234   19.3652 H   0  0  0  0  0  0
  -28.7735  -12.3154   21.4061 H   0  0  0  0  0  0
  -28.3851  -13.9997   21.6991 H   0  0  0  0  0  0
  -25.2858   -9.5811   22.4718 H   0  0  0  0  0  0
  -24.0141   -7.4746   22.7534 H   0  0  0  0  0  0
  -21.0881   -8.8819   19.8968 H   0  0  0  0  0  0
  -22.3750  -10.9737   19.6164 H   0  0  0  0  0  0
  -21.2010   -7.6181   23.9756 H   0  0  0  0  0  0
  -21.1438   -6.0515   25.9072 H   0  0  0  0  0  0
  -22.0617   -2.7660   23.2788 H   0  0  0  0  0  0
  -22.4112  -11.9901   22.4739 H   0  0  0  0  0  0
  -21.1097  -13.1272   22.2544 H   0  0  0  0  0  0
  -24.6322  -15.8354   20.5390 H   0  0  0  0  0  0
  -26.2629  -15.6500   20.1302 H   0  0  0  0  0  0
  -26.7192  -32.5297   23.1059 H   0  0  0  0  0  0
  -25.0177  -33.9799   25.0442 H   0  0  0  0  0  0
  -22.7330  -31.2939   21.3907 H   0  0  0  0  0  0
  -23.3830  -35.9512   23.3308 H   0  0  0  0  0  0
  -24.3570  -36.8883   22.2058 H   0  0  0  0  0  0
  -23.7194  -37.6405   23.6698 H   0  0  0  0  0  0
  -26.1545  -31.5149   20.6391 H   0  0  0  0  0  0
  -26.8543  -30.7694   22.0489 H   0  0  0  0  0  0
  -28.1122  -28.8571   21.2338 H   0  0  0  0  0  0
  -25.8940  -25.8992   18.9826 H   0  0  0  0  0  0
  -23.9673  -27.3261   18.9853 H   0  0  0  0  0  0
  -23.7891  -30.5933   19.4044 H   0  0  0  0  0  0
  -22.7701  -29.2532   19.8521 H   0  0  0  0  0  0
  -25.1349  -36.1944   25.0808 H   0  0  0  0  0  0
  -21.0004  -28.3163   24.1382 H   0  0  0  0  0  0
  -20.5566  -26.2220   23.3598 H   0  0  0  0  0  0
  -21.6631  -26.7269   22.1248 H   0  0  0  0  0  0
  -19.6887  -25.6260   21.1196 H   0  0  0  0  0  0
  -19.6691  -27.3146   20.6745 H   0  0  0  0  0  0
  -17.4197  -26.6657   21.3985 H   0  0  0  0  0  0
  -18.0277  -25.9981   22.8956 H   0  0  0  0  0  0
  -19.8015  -30.7232   24.2212 H   0  0  0  0  0  0
  -17.5087  -31.6228   24.5145 H   0  0  0  0  0  0
  -15.5394  -30.2935   23.7744 H   0  0  0  0  0  0
  -15.8679  -28.0756   22.7194 H   0  0  0  0  0  0
  -24.5956  -30.7064   25.7735 H   0  0  0  0  0  0
  -24.8916  -32.2841   26.4895 H   0  0  0  0  0  0
  -25.8055  -30.8844   27.0211 H   0  0  0  0  0  0
  -26.3051  -29.6699   24.1361 H   0  0  0  0  0  0
  -27.4136  -29.7344   25.4866 H   0  0  0  0  0  0
  -27.8931  -30.4289   23.9593 H   0  0  0  0  0  0
  -27.2777  -33.3735   26.2006 H   0  0  0  0  0  0
  -28.3948  -32.6894   25.0341 H   0  0  0  0  0  0
  -28.0790  -31.8575   26.5445 H   0  0  0  0  0  0
  -28.2619  -38.0068   24.7584 H   0  0  0  0  0  0
  -28.1085  -36.2602   24.6257 H   0  0  0  0  0  0
  -27.2251  -37.1353   25.8841 H   0  0  0  0  0  0
  -20.9395  -29.8810   21.6955 H   0  0  0  0  0  0
  -26.0176  -38.2849   24.1481 H   0  0  0  0  0  0
  -27.4066  -17.0783   17.8458 H   0  0  0  0  0  0
  -27.2762  -16.9181   19.5765 H   0  0  0  0  0  0
  -27.3924  -19.2951   18.9589 H   0  0  0  0  0  0
  -28.8904  -19.0538   18.1065 H   0  0  0  0  0  0
  -29.9848  -16.7679   18.1467 H   0  0  0  0  0  0
  -29.0010  -15.3725   18.3178 H   0  0  0  0  0  0
  -30.3387  -17.6196   21.6258 H   0  0  0  0  0  0
  -31.0723  -17.8919   20.0879 H   0  0  0  0  0  0
  -28.2977  -18.7839   21.0540 H   0  0  0  0  0  0
  -30.3840  -20.6936   19.8361 H   0  0  0  0  0  0
  -29.8452  -20.6676   21.4630 H   0  0  0  0  0  0
  -27.5289  -21.6636   20.5836 H   0  0  0  0  0  0
  -28.2870  -21.8307   19.0618 H   0  0  0  0  0  0
  -26.9784  -24.5724   20.5594 H   0  0  0  0  0  0
  -27.7125  -24.6029   18.9904 H   0  0  0  0  0  0
  -29.8649  -23.6449   20.0198 H   0  0  0  0  0  0
  -28.2731  -23.3183   22.4564 H   0  0  0  0  0  0
  -29.3463  -24.5097   22.1940 H   0  0  0  0  0  0
  -29.8567  -22.9723   22.2627 H   0  0  0  0  0  0
  1 25  1  0  0  0
  1 30  2  0  0  0
  1 80  1  0  0  0
  2  3  1  0  0  0
  2 25  1  0  0  0
  2 82  1  0  0  0
  2 83  1  0  0  0
  3  4  1  0  0  0
  3 84  1  0  0  0
  3 85  1  0  0  0
  4  5  1  0  0  0
  4 86  1  0  0  0
  4 87  1  0  0  0
  5  6  1  0  0  0
  5 26  1  0  0  0
  5 88  1  0  0  0
  6 25  1  0  0  0
  6 89  1  0  0  0
  6 90  1  0  0  0
  7  8  2  0  0  0
  7 26  1  0  0  0
  7 29  1  0  0  0
  8  9  1  0  0  0
  8 22  1  0  0  0
  9 10  1  0  0  0
  9 27  2  0  0  0
 10 11  2  0  0  0
 10 15  1  0  0  0
 11 12  1  0  0  0
 11 91  1  0  0  0
 12 13  2  0  0  0
 12 92  1  0  0  0
 13 14  1  0  0  0
 13 31  1  0  0  0
 14 15  2  0  0  0
 14 93  1  0  0  0
 15 94  1  0  0  0
 16 17  2  0  0  0
 16 21  1  0  0  0
 16 31  1  0  0  0
 17 18  1  0  0  0
 17 95  1  0  0  0
 18 19  2  0  0  0
 18 96  1  0  0  0
 19 20  1  0  0  0
 19 24  1  0  0  0
 20 21  2  0  0  0
 20 97  1  0  0  0
 21 23  1  0  0  0
 22 28  1  0  0  0
 22 32  2  0  0  0
 26 27  1  0  0  0
 28 98  1  0  0  0
 28 99  1  0  0  0
 29100  1  0  0  0
 29101  1  0  0  0
 33 34  1  0  0  0
 33 66  1  0  0  0
 33 70  2  0  0  0
 34 36  1  0  0  0
 34 59  1  0  0  0
 34102  1  0  0  0
 35 44  2  0  0  0
 35 45  1  0  0  0
 35 68  1  0  0  0
 36 56  1  0  0  0
 36103  1  0  0  0
 37 39  1  0  0  0
 37 47  1  0  0  0
 37 66  1  0  0  0
 37104  1  0  0  0
 38 43  2  0  0  0
 38 46  1  0  0  0
 38 47  1  0  0  0
 39 64  1  0  0  0
 39 67  2  0  0  0
 40 52  1  0  0  0
 40 53  2  0  0  0
 40 58  1  0  0  0
 41105  1  0  0  0
 41106  1  0  0  0
 41107  1  0  0  0
 41 48  1  0  0  0
 42 43  1  0  0  0
 42 66  1  0  0  0
 42108  1  0  0  0
 42109  1  0  0  0
 43 44  1  0  0  0
 44110  1  0  0  0
 45 46  2  0  0  0
 45111  1  0  0  0
 46112  1  0  0  0
 47113  1  0  0  0
 47114  1  0  0  0
 48 56  1  0  0  0
 48 65  1  0  0  0
 48115  1  0  0  0
 49 50  1  0  0  0
 49 53  1  0  0  0
 49 64  1  0  0  0
 49116  1  0  0  0
 50 51  1  0  0  0
 50117  1  0  0  0
 50118  1  0  0  0
 51 52  1  0  0  0
 51119  1  0  0  0
 51120  1  0  0  0
 52121  1  0  0  0
 52122  1  0  0  0
 53 54  1  0  0  0
 54 55  2  0  0  0
 54123  1  0  0  0
 55 57  1  0  0  0
 55124  1  0  0  0
 56 69  2  0  0  0
 57 58  2  0  0  0
 57125  1  0  0  0
 58126  1  0  0  0
 59 60  1  0  0  0
 59 61  1  0  0  0
 59 62  1  0  0  0
 60127  1  0  0  0
 60128  1  0  0  0
 60129  1  0  0  0
 61130  1  0  0  0
 61131  1  0  0  0
 61132  1  0  0  0
 62133  1  0  0  0
 62134  1  0  0  0
 62135  1  0  0  0
 63 65  1  0  0  0
 63136  1  0  0  0
 63137  1  0  0  0
 63138  1  0  0  0
 64139  1  0  0  0
 65140  1  0  0  0
 68 78  1  0  0  0
 71 72  1  0  0  0
 71 73  1  0  0  0
 71141  1  0  0  0
 71142  1  0  0  0
 72 75  1  0  0  0
 72143  1  0  0  0
 72144  1  0  0  0
 73 80  1  0  0  0
 73145  1  0  0  0
 73146  1  0  0  0
 74 75  1  0  0  0
 74 80  1  0  0  0
 74147  1  0  0  0
 74148  1  0  0  0
 75 76  1  0  0  0
 75149  1  0  0  0
 76 77  1  0  0  0
 76150  1  0  0  0
 76151  1  0  0  0
 77 79  1  0  0  0
 77152  1  0  0  0
 77153  1  0  0  0
 78 79  1  0  0  0
 78154  1  0  0  0
 78155  1  0  0  0
 79 81  1  0  0  0
 79156  1  0  0  0
 81157  1  0  0  0
 81158  1  0  0  0
 81159  1  0  0  0
M  CHG  1  81   1
M  ISO  4   1 100  68 101  78 101  80 100
M  END
> <chiral flag>
0

> <version>
0

> <s_m_source_file>
/data/baiqing/PycharmProjects/Reinvent-master-3.2/result/LINK_invent/BTK/process_docking_weight1_custom_sum_contain_oxygen_bond_distance_aromatic_linkinvent_7_9_3/rearranged_h_0108.sdf

> <i_m_source_file_index>
55

> <r_mmod_Potential_Energy-OPLS-2005>
479.697174072266

> <r_mmod_Stretch_Energy-OPLS-2005>
242.23030090332

> <r_mmod_Bend_Energy-OPLS-2005>
239.18327331543

> <r_mmod_Torsional_Energy-OPLS-2005>
351.819122314453

> <r_mmod_Improper_Torsional_Energy-OPLS-2005>
11.101035118103

> <r_mmod_Van_der_Waal_Energy-OPLS-2005>
119.008026123047

> <r_mmod_Electrostatic_Energy-OPLS-2005>
-210.219589233398

> <r_mmod_Solvation_Energy-OPLS-2005>
-457.254638671875

> <b_mmod_Minimization_Converged-OPLS-2005>
0

> <r_mmod_RMS_Derivative-OPLS-2005>
6.77854871749878

$$$$
55
                    3D
 Structure written by MMmdl.
149156  0  0  1  0            999 V2000
  -30.3315  -15.5563   20.3398 C   0  0  0  0  0  0
  -30.4270  -13.0232   19.5378 C   0  0  0  0  0  0
  -29.5472  -12.6375   18.3166 C   0  0  0  0  0  0
  -28.1154  -12.2955   18.7572 C   0  0  0  0  0  0
  -27.5976  -13.2993   19.8134 C   0  0  2  0  0  0
  -28.6163  -13.6024   20.9356 C   0  0  0  0  0  0
  -25.2329  -13.8273   20.5779 C   0  0  0  0  0  0
  -24.1710  -13.0433   20.9275 C   0  0  0  0  0  0
  -24.6398  -11.6941   20.8756 C   0  0  0  0  0  0
  -23.9100  -10.4290   21.0392 C   0  0  0  0  0  0
  -24.3640   -9.4205   21.9176 C   0  0  0  0  0  0
  -23.6305   -8.2245   22.0751 C   0  0  0  0  0  0
  -22.4285   -8.0283   21.3545 C   0  0  0  0  0  0
  -21.9925   -9.0256   20.4645 C   0  0  0  0  0  0
  -22.7265  -10.2129   20.3047 C   0  0  0  0  0  0
  -21.6858   -6.0736   22.5277 C   0  0  0  0  0  0
  -21.4021   -6.5639   23.8210 C   0  0  0  0  0  0
  -21.3661   -5.6790   24.9172 C   0  0  0  0  0  0
  -21.6042   -4.3053   24.7222 C   0  0  0  0  0  0
  -21.8819   -3.8146   23.4343 C   0  0  0  0  0  0
  -21.9193   -4.6962   22.3400 C   0  0  0  0  0  0
  -22.7724  -13.5171   21.1914 C   0  0  0  0  0  0
  -22.1662   -4.2150   21.0978 F   0  0  0  0  0  0
  -21.5626   -3.4535   25.7735 F   0  0  0  0  0  0
  -29.8022  -14.2016   20.2846 N   0  0  0  0  0  0
  -26.2768  -12.9586   20.3219 N   0  0  0  0  0  0
  -25.9342  -11.6666   20.5699 N   0  0  0  0  0  0
  -22.0386  -12.8152   22.0469 N   0  0  0  0  0  0
  -25.3936  -15.2012   20.4225 N   0  0  0  0  0  0
  -31.5644  -15.5060   20.1783 O   0  0  0  0  0  0
  -21.6645   -6.8881   21.4241 O   0  0  0  0  0  0
  -22.3400  -14.5471   20.6751 O   0  0  0  0  0  0
  -24.6804  -31.8038   23.1543 C   0  0  0  0  0  0
  -25.9401  -32.4487   23.8075 C   0  0  1  0  0  0
  -27.2260  -26.7390   20.2134 C   0  0  0  0  0  0
  -25.5992  -33.8311   24.1968 N   0  0  0  0  0  0
  -23.5044  -30.4068   21.5077 C   0  0  2  0  0  0
  -24.9613  -28.7532   20.1186 C   0  0  0  0  0  0
  -22.7748  -29.4338   22.4730 C   0  0  0  0  0  0
  -18.0334  -28.1416   22.8460 C   0  0  0  0  0  0
  -24.1496  -36.7160   23.2653 C   0  0  0  0  0  0
  -26.0831  -30.5490   21.4124 C   0  0  0  0  0  0
  -26.1497  -29.1174   20.7626 C   0  0  0  0  0  0
  -27.2693  -28.1380   20.7760 C   0  0  0  0  0  0
  -26.0047  -26.5727   19.5147 C   0  0  0  0  0  0
  -24.9257  -27.5058   19.4711 C   0  0  0  0  0  0
  -23.7559  -29.7046   20.1423 C   0  0  0  0  0  0
  -25.4146  -36.2908   24.0284 C   0  0  1  0  0  0
  -20.5967  -28.3776   23.1154 C   0  0  2  0  0  0
  -20.6800  -26.9439   22.5406 C   0  0  0  0  0  0
  -19.5777  -26.6373   21.5217 C   0  0  0  0  0  0
  -18.1960  -26.7945   22.1622 C   0  0  0  0  0  0
  -19.1599  -28.8920   23.2788 C   0  0  0  0  0  0
  -18.9506  -30.1503   23.8832 C   0  0  0  0  0  0
  -17.6496  -30.6603   24.0550 C   0  0  0  0  0  0
  -25.9122  -34.9296   23.4962 C   0  0  0  0  0  0
  -16.5387  -29.9085   23.6349 C   0  0  0  0  0  0
  -16.7314  -28.6504   23.0370 C   0  0  0  0  0  0
  -26.4588  -31.6507   25.0682 C   0  0  0  0  0  0
  -25.3661  -31.3812   26.1302 C   0  0  0  0  0  0
  -27.0512  -30.2851   24.6551 C   0  0  0  0  0  0
  -27.6044  -32.4358   25.7496 C   0  0  0  0  0  0
  -27.5565  -37.1740   24.8466 C   0  0  0  0  0  0
  -21.4399  -29.3032   22.3479 N   0  0  0  0  0  0
  -26.4275  -37.3666   23.9406 N   0  0  0  0  0  0
  -24.7791  -30.9518   22.0773 N   0  0  0  0  0  0
  -23.4207  -28.7937   23.3061 O   0  0  0  0  0  0
  -28.2050  -25.5470   20.2835 O   0  0  0  0  0  0
  -26.5760  -34.8867   22.4576 O   0  0  0  0  0  0
  -23.5833  -32.1092   23.6523 O   0  0  0  0  0  0
  -30.0624  -22.3790   19.2010 C   0  0  0  0  0  0
  -29.7529  -22.3754   21.6753 C   0  0  0  0  0  0
  -28.7674  -20.2818   20.2950 C   0  0  0  0  0  0
  -29.7994  -18.6577   20.3582 C   0  0  0  0  0  0
  -28.0103  -23.8142   20.2027 C   0  0  0  0  0  0
  -29.0377  -22.1887   20.3287 C   0  0  0  0  0  0
  -29.5732  -16.9059   20.3868 N   0  0  0  0  0  0
  -31.4260  -13.2748   19.1797 H   0  0  0  0  0  0
  -30.5690  -12.1677   20.2007 H   0  0  0  0  0  0
  -29.9880  -11.7989   17.7756 H   0  0  0  0  0  0
  -29.5206  -13.4750   17.6178 H   0  0  0  0  0  0
  -28.1293  -11.2924   19.1858 H   0  0  0  0  0  0
  -27.4459  -12.2550   17.8973 H   0  0  0  0  0  0
  -27.4707  -14.2296   19.2576 H   0  0  0  0  0  0
  -28.8569  -12.7100   21.5157 H   0  0  0  0  0  0
  -28.1964  -14.3233   21.6390 H   0  0  0  0  0  0
  -25.2779   -9.5685   22.4759 H   0  0  0  0  0  0
  -24.0007   -7.4638   22.7476 H   0  0  0  0  0  0
  -21.0853   -8.8782   19.8955 H   0  0  0  0  0  0
  -22.3719  -10.9669   19.6159 H   0  0  0  0  0  0
  -21.2023   -7.6148   23.9715 H   0  0  0  0  0  0
  -21.1482   -6.0520   25.9075 H   0  0  0  0  0  0
  -22.0597   -2.7608   23.2841 H   0  0  0  0  0  0
  -22.4022  -11.9831   22.4874 H   0  0  0  0  0  0
  -21.0997  -13.1158   22.2673 H   0  0  0  0  0  0
  -24.6210  -15.8487   20.5337 H   0  0  0  0  0  0
  -26.2336  -15.6437   20.0744 H   0  0  0  0  0  0
  -26.7480  -32.4969   23.0786 H   0  0  0  0  0  0
  -25.0053  -33.9353   25.0063 H   0  0  0  0  0  0
  -22.8279  -31.2433   21.3205 H   0  0  0  0  0  0
  -23.3775  -35.9471   23.3271 H   0  0  0  0  0  0
  -24.3567  -36.8862   22.2076 H   0  0  0  0  0  0
  -23.7238  -37.6322   23.6753 H   0  0  0  0  0  0
  -26.2827  -31.2764   20.6243 H   0  0  0  0  0  0
  -26.9353  -30.6150   22.0764 H   0  0  0  0  0  0
  -28.1659  -28.4239   21.3078 H   0  0  0  0  0  0
  -25.8467  -25.6260   19.0177 H   0  0  0  0  0  0
  -24.0279  -27.2189   18.9413 H   0  0  0  0  0  0
  -23.9286  -30.4647   19.3796 H   0  0  0  0  0  0
  -22.8609  -29.1696   19.8204 H   0  0  0  0  0  0
  -25.1357  -36.1674   25.0775 H   0  0  0  0  0  0
  -21.0051  -28.3397   24.1279 H   0  0  0  0  0  0
  -20.5667  -26.2400   23.3665 H   0  0  0  0  0  0
  -21.6663  -26.7389   22.1225 H   0  0  0  0  0  0
  -19.6935  -25.6267   21.1290 H   0  0  0  0  0  0
  -19.6715  -27.3146   20.6717 H   0  0  0  0  0  0
  -17.4230  -26.6690   21.4025 H   0  0  0  0  0  0
  -18.0349  -26.0101   22.9032 H   0  0  0  0  0  0
  -19.7981  -30.7336   24.2177 H   0  0  0  0  0  0
  -17.5047  -31.6276   24.5164 H   0  0  0  0  0  0
  -15.5384  -30.2966   23.7708 H   0  0  0  0  0  0
  -15.8715  -28.0798   22.7129 H   0  0  0  0  0  0
  -24.5861  -30.7149   25.7601 H   0  0  0  0  0  0
  -24.8831  -32.3029   26.4555 H   0  0  0  0  0  0
  -25.7843  -30.9084   27.0195 H   0  0  0  0  0  0
  -26.3219  -29.6476   24.1542 H   0  0  0  0  0  0
  -27.3954  -29.7286   25.5280 H   0  0  0  0  0  0
  -27.9195  -30.3990   24.0059 H   0  0  0  0  0  0
  -27.2590  -33.3722   26.1888 H   0  0  0  0  0  0
  -28.3947  -32.6818   25.0391 H   0  0  0  0  0  0
  -28.0607  -31.8607   26.5564 H   0  0  0  0  0  0
  -28.2560  -38.0056   24.7512 H   0  0  0  0  0  0
  -28.1082  -36.2580   24.6296 H   0  0  0  0  0  0
  -27.2276  -37.1381   25.8868 H   0  0  0  0  0  0
  -20.9698  -29.8688   21.6549 H   0  0  0  0  0  0
  -26.0102  -38.2716   24.1414 H   0  0  0  0  0  0
  -30.8783  -21.6585   19.2714 H   0  0  0  0  0  0
  -30.5012  -23.3776   19.2233 H   0  0  0  0  0  0
  -29.5920  -22.2508   18.2257 H   0  0  0  0  0  0
  -30.5513  -21.6453   21.8133 H   0  0  0  0  0  0
  -29.0538  -22.2599   22.5041 H   0  0  0  0  0  0
  -30.1972  -23.3682   21.7589 H   0  0  0  0  0  0
  -28.0456  -20.1333   21.0991 H   0  0  0  0  0  0
  -28.1665  -20.1451   19.3959 H   0  0  0  0  0  0
  -30.4260  -18.8031   21.2387 H   0  0  0  0  0  0
  -30.5005  -18.7762   19.5313 H   0  0  0  0  0  0
  -27.2215  -23.6592   20.9391 H   0  0  0  0  0  0
  -27.4897  -23.7010   19.2517 H   0  0  0  0  0  0
  -28.5877  -16.6964   20.4649 H   0  0  0  0  0  0
  1 25  1  0  0  0
  1 30  2  0  0  0
  1 77  1  0  0  0
  2  3  1  0  0  0
  2 25  1  0  0  0
  2 78  1  0  0  0
  2 79  1  0  0  0
  3  4  1  0  0  0
  3 80  1  0  0  0
  3 81  1  0  0  0
  4  5  1  0  0  0
  4 82  1  0  0  0
  4 83  1  0  0  0
  5  6  1  0  0  0
  5 26  1  0  0  0
  5 84  1  0  0  0
  6 25  1  0  0  0
  6 85  1  0  0  0
  6 86  1  0  0  0
  7  8  2  0  0  0
  7 26  1  0  0  0
  7 29  1  0  0  0
  8  9  1  0  0  0
  8 22  1  0  0  0
  9 10  1  0  0  0
  9 27  2  0  0  0
 10 11  2  0  0  0
 10 15  1  0  0  0
 11 12  1  0  0  0
 11 87  1  0  0  0
 12 13  2  0  0  0
 12 88  1  0  0  0
 13 14  1  0  0  0
 13 31  1  0  0  0
 14 15  2  0  0  0
 14 89  1  0  0  0
 15 90  1  0  0  0
 16 17  2  0  0  0
 16 21  1  0  0  0
 16 31  1  0  0  0
 17 18  1  0  0  0
 17 91  1  0  0  0
 18 19  2  0  0  0
 18 92  1  0  0  0
 19 20  1  0  0  0
 19 24  1  0  0  0
 20 21  2  0  0  0
 20 93  1  0  0  0
 21 23  1  0  0  0
 22 28  1  0  0  0
 22 32  2  0  0  0
 26 27  1  0  0  0
 28 94  1  0  0  0
 28 95  1  0  0  0
 29 96  1  0  0  0
 29 97  1  0  0  0
 33 34  1  0  0  0
 33 66  1  0  0  0
 33 70  2  0  0  0
 34 36  1  0  0  0
 34 59  1  0  0  0
 34 98  1  0  0  0
 35 44  2  0  0  0
 35 45  1  0  0  0
 35 68  1  0  0  0
 36 56  1  0  0  0
 36 99  1  0  0  0
 37 39  1  0  0  0
 37 47  1  0  0  0
 37 66  1  0  0  0
 37100  1  0  0  0
 38 43  2  0  0  0
 38 46  1  0  0  0
 38 47  1  0  0  0
 39 64  1  0  0  0
 39 67  2  0  0  0
 40 52  1  0  0  0
 40 53  2  0  0  0
 40 58  1  0  0  0
 41101  1  0  0  0
 41102  1  0  0  0
 41103  1  0  0  0
 41 48  1  0  0  0
 42 43  1  0  0  0
 42 66  1  0  0  0
 42104  1  0  0  0
 42105  1  0  0  0
 43 44  1  0  0  0
 44106  1  0  0  0
 45 46  2  0  0  0
 45107  1  0  0  0
 46108  1  0  0  0
 47109  1  0  0  0
 47110  1  0  0  0
 48 56  1  0  0  0
 48 65  1  0  0  0
 48111  1  0  0  0
 49 50  1  0  0  0
 49 53  1  0  0  0
 49 64  1  0  0  0
 49112  1  0  0  0
 50 51  1  0  0  0
 50113  1  0  0  0
 50114  1  0  0  0
 51 52  1  0  0  0
 51115  1  0  0  0
 51116  1  0  0  0
 52117  1  0  0  0
 52118  1  0  0  0
 53 54  1  0  0  0
 54 55  2  0  0  0
 54119  1  0  0  0
 55 57  1  0  0  0
 55120  1  0  0  0
 56 69  2  0  0  0
 57 58  2  0  0  0
 57121  1  0  0  0
 58122  1  0  0  0
 59 60  1  0  0  0
 59 61  1  0  0  0
 59 62  1  0  0  0
 60123  1  0  0  0
 60124  1  0  0  0
 60125  1  0  0  0
 61126  1  0  0  0
 61127  1  0  0  0
 61128  1  0  0  0
 62129  1  0  0  0
 62130  1  0  0  0
 62131  1  0  0  0
 63 65  1  0  0  0
 63132  1  0  0  0
 63133  1  0  0  0
 63134  1  0  0  0
 64135  1  0  0  0
 65136  1  0  0  0
 68 75  1  0  0  0
 71137  1  0  0  0
 71138  1  0  0  0
 71139  1  0  0  0
 71 76  1  0  0  0
 72 76  1  0  0  0
 72140  1  0  0  0
 72141  1  0  0  0
 72142  1  0  0  0
 73 74  1  0  0  0
 73 76  1  0  0  0
 73143  1  0  0  0
 73144  1  0  0  0
 74 77  1  0  0  0
 74145  1  0  0  0
 74146  1  0  0  0
 75 76  1  0  0  0
 75147  1  0  0  0
 75148  1  0  0  0
 77149  1  0  0  0
M  ISO  4   1 100  68 101  75 101  77 100
M  END
> <chiral flag>
0

> <version>
0

> <s_m_source_file>
/data/baiqing/PycharmProjects/Reinvent-master-3.2/result/LINK_invent/BTK/process_docking_weight1_custom_sum_contain_oxygen_bond_distance_aromatic_linkinvent_7_9_3/rearranged_h_0108.sdf

> <i_m_source_file_index>
56

> <r_mmod_Potential_Energy-OPLS-2005>
2277.4052734375

> <r_mmod_Stretch_Energy-OPLS-2005>
1099.90832519531

> <r_mmod_Bend_Energy-OPLS-2005>
608.213195800781

> <r_mmod_Torsional_Energy-OPLS-2005>
218.865051269531

> <r_mmod_Improper_Torsional_Energy-OPLS-2005>
3.63943529129028

> <r_mmod_Van_der_Waal_Energy-OPLS-2005>
107.358436584473

> <r_mmod_Electrostatic_Energy-OPLS-2005>
-352.276336669922

> <r_mmod_Solvation_Energy-OPLS-2005>
-210.505645751953

> <b_mmod_Minimization_Converged-OPLS-2005>
0

> <r_mmod_RMS_Derivative-OPLS-2005>
0.656064033508301

$$$$
56
                    3D
 Structure written by MMmdl.
165173  0  0  1  0            999 V2000
  -30.5048  -14.7624   20.5092 C   0  0  0  0  0  0
  -30.4716  -12.4901   19.4282 C   0  0  0  0  0  0
  -29.5171  -12.5291   18.2081 C   0  0  0  0  0  0
  -28.0389  -12.3331   18.6217 C   0  0  0  0  0  0
  -27.6490  -13.2015   19.8465 C   0  0  2  0  0  0
  -28.7025  -13.0239   20.9570 C   0  0  0  0  0  0
  -25.2568  -13.8114   20.5594 C   0  0  0  0  0  0
  -24.1845  -13.0400   20.9201 C   0  0  0  0  0  0
  -24.6382  -11.6868   20.8734 C   0  0  0  0  0  0
  -23.9034  -10.4283   21.0407 C   0  0  0  0  0  0
  -24.3583   -9.4215   21.9194 C   0  0  0  0  0  0
  -23.6265   -8.2245   22.0761 C   0  0  0  0  0  0
  -22.4265   -8.0259   21.3522 C   0  0  0  0  0  0
  -21.9885   -9.0246   20.4640 C   0  0  0  0  0  0
  -22.7207  -10.2134   20.3053 C   0  0  0  0  0  0
  -21.6853   -6.0730   22.5273 C   0  0  0  0  0  0
  -21.4021   -6.5637   23.8214 C   0  0  0  0  0  0
  -21.3658   -5.6789   24.9182 C   0  0  0  0  0  0
  -21.6022   -4.3047   24.7230 C   0  0  0  0  0  0
  -21.8819   -3.8137   23.4356 C   0  0  0  0  0  0
  -21.9198   -4.6952   22.3409 C   0  0  0  0  0  0
  -22.7870  -13.5217   21.1830 C   0  0  0  0  0  0
  -22.1672   -4.2133   21.0990 F   0  0  0  0  0  0
  -21.5627   -3.4527   25.7744 F   0  0  0  0  0  0
  -29.9850  -13.4870   20.4069 N   0  0  0  0  0  0
  -26.2967  -12.9255   20.3199 N   0  0  0  0  0  0
  -25.9291  -11.6434   20.5691 N   0  0  0  0  0  0
  -22.0452  -12.8280   22.0385 N   0  0  0  0  0  0
  -25.4221  -15.1839   20.3913 N   0  0  0  0  0  0
  -31.6935  -14.9673   20.2316 O   0  0  0  0  0  0
  -21.6624   -6.8862   21.4226 O   0  0  0  0  0  0
  -22.3597  -14.5516   20.6645 O   0  0  0  0  0  0
  -24.6369  -31.8544   23.1983 C   0  0  0  0  0  0
  -25.9210  -32.4736   23.8312 C   0  0  1  0  0  0
  -27.2155  -27.2534   20.1063 C   0  0  0  0  0  0
  -25.6007  -33.8538   24.2261 N   0  0  0  0  0  0
  -23.4312  -30.4859   21.5365 C   0  0  2  0  0  0
  -24.8748  -28.9340   20.1047 C   0  0  0  0  0  0
  -22.7515  -29.4642   22.4827 C   0  0  0  0  0  0
  -18.0299  -28.1470   22.8500 C   0  0  0  0  0  0
  -24.1439  -36.7204   23.2640 C   0  0  0  0  0  0
  -25.9798  -30.7616   21.3818 C   0  0  0  0  0  0
  -26.0463  -29.3843   20.7216 C   0  0  0  0  0  0
  -27.2157  -28.5553   20.7172 C   0  0  0  0  0  0
  -26.0105  -26.8782   19.4626 C   0  0  0  0  0  0
  -24.8615  -27.6874   19.4676 C   0  0  0  0  0  0
  -23.6546  -29.8315   20.1494 C   0  0  0  0  0  0
  -25.4086  -36.3044   24.0337 C   0  0  1  0  0  0
  -20.5916  -28.3754   23.1247 C   0  0  2  0  0  0
  -20.6803  -26.9473   22.5400 C   0  0  0  0  0  0
  -19.5753  -26.6443   21.5241 C   0  0  0  0  0  0
  -18.1926  -26.8014   22.1635 C   0  0  0  0  0  0
  -19.1575  -28.8928   23.2883 C   0  0  0  0  0  0
  -18.9519  -30.1532   23.8898 C   0  0  0  0  0  0
  -17.6526  -30.6667   24.0602 C   0  0  0  0  0  0
  -25.9066  -34.9435   23.5090 C   0  0  0  0  0  0
  -16.5397  -29.9199   23.6357 C   0  0  0  0  0  0
  -16.7294  -28.6625   23.0355 C   0  0  0  0  0  0
  -26.4587  -31.6546   25.0685 C   0  0  0  0  0  0
  -25.3835  -31.3699   26.1420 C   0  0  0  0  0  0
  -27.0453  -30.2974   24.6157 C   0  0  0  0  0  0
  -27.6136  -32.4285   25.7483 C   0  0  0  0  0  0
  -27.5539  -37.1757   24.8508 C   0  0  0  0  0  0
  -21.4220  -29.3095   22.3615 N   0  0  0  0  0  0
  -26.4231  -37.3791   23.9472 N   0  0  0  0  0  0
  -24.7011  -31.0529   22.0937 N   0  0  0  0  0  0
  -23.4216  -28.8165   23.2922 O   0  0  0  0  0  0
  -28.3179  -26.3571   20.1609 O   0  0  0  0  0  0
  -26.5615  -34.8949   22.4639 O   0  0  0  0  0  0
  -23.5527  -32.1328   23.7306 O   0  0  0  0  0  0
  -28.8705  -19.8201   22.1634 C   0  0  0  0  0  0
  -28.5527  -18.6633   22.8857 C   0  0  0  0  0  0
  -29.7672  -18.4027   20.3952 C   0  0  0  0  0  0
  -29.4479  -19.7449   20.8868 C   0  0  0  0  0  0
  -28.7892  -17.3668   22.3832 C   0  0  0  0  0  0
  -29.4694  -17.1745   21.1343 C   0  0  0  0  0  0
  -26.8396  -16.4039   23.7767 C   0  0  0  0  0  0
  -29.2646  -15.8533   24.3504 C   0  0  0  0  0  0
  -28.3560  -24.8791   18.2233 C   0  0  0  0  0  0
  -29.7874  -21.1503   20.2133 C   0  0  0  0  0  0
  -29.1211  -23.7475   20.3851 C   0  0  0  0  0  0
  -28.2715  -16.2052   23.2359 C   0  0  0  0  0  0
  -28.1755  -24.9077   19.7534 C   0  0  1  0  0  0
  -29.5548  -15.7759   20.6201 N   0  0  0  0  0  0
  -28.7297  -22.2686   20.1604 N   0  3  0  0  0  0
  -31.4907  -12.7100   19.1060 H   0  0  0  0  0  0
  -30.5058  -11.4917   19.8687 H   0  0  0  0  0  0
  -29.8050  -11.7699   17.4809 H   0  0  0  0  0  0
  -29.6256  -13.4873   17.6978 H   0  0  0  0  0  0
  -27.9011  -11.2789   18.8642 H   0  0  0  0  0  0
  -27.3801  -12.5392   17.7764 H   0  0  0  0  0  0
  -27.6614  -14.2363   19.5060 H   0  0  0  0  0  0
  -28.7693  -11.9708   21.2271 H   0  0  0  0  0  0
  -28.4310  -13.5117   21.8819 H   0  0  0  0  0  0
  -25.2715   -9.5712   22.4797 H   0  0  0  0  0  0
  -23.9959   -7.4650   22.7501 H   0  0  0  0  0  0
  -21.0809   -8.8760   19.8966 H   0  0  0  0  0  0
  -22.3626  -10.9679   19.6183 H   0  0  0  0  0  0
  -21.2012   -7.6148   23.9730 H   0  0  0  0  0  0
  -21.1472   -6.0511   25.9094 H   0  0  0  0  0  0
  -22.0589   -2.7594   23.2855 H   0  0  0  0  0  0
  -22.3991  -11.9942   22.4842 H   0  0  0  0  0  0
  -21.1062  -13.1364   22.2483 H   0  0  0  0  0  0
  -24.6264  -15.8077   20.4757 H   0  0  0  0  0  0
  -26.2118  -15.6242   19.9382 H   0  0  0  0  0  0
  -26.7252  -32.5386   23.1030 H   0  0  0  0  0  0
  -25.0265  -33.9650   25.0491 H   0  0  0  0  0  0
  -22.7257  -31.3090   21.3943 H   0  0  0  0  0  0
  -23.3755  -35.9482   23.3323 H   0  0  0  0  0  0
  -24.3522  -36.8793   22.2049 H   0  0  0  0  0  0
  -23.7155  -37.6394   23.6648 H   0  0  0  0  0  0
  -26.1271  -31.5225   20.6144 H   0  0  0  0  0  0
  -26.8560  -30.8039   22.0150 H   0  0  0  0  0  0
  -28.1060  -28.8944   21.2270 H   0  0  0  0  0  0
  -25.9065  -25.9385   18.9433 H   0  0  0  0  0  0
  -23.9655  -27.3424   18.9696 H   0  0  0  0  0  0
  -23.8039  -30.6121   19.4007 H   0  0  0  0  0  0
  -22.7673  -29.2862   19.8211 H   0  0  0  0  0  0
  -25.1274  -36.1830   25.0827 H   0  0  0  0  0  0
  -21.0034  -28.3373   24.1364 H   0  0  0  0  0  0
  -20.5757  -26.2379   23.3619 H   0  0  0  0  0  0
  -21.6663  -26.7546   22.1165 H   0  0  0  0  0  0
  -19.6909  -25.6371   21.1258 H   0  0  0  0  0  0
  -19.6686  -27.3276   20.6796 H   0  0  0  0  0  0
  -17.4203  -26.6787   21.4022 H   0  0  0  0  0  0
  -18.0299  -26.0191   22.9050 H   0  0  0  0  0  0
  -19.8008  -30.7361   24.2223 H   0  0  0  0  0  0
  -17.5111  -31.6328   24.5250 H   0  0  0  0  0  0
  -15.5415  -30.3130   23.7725 H   0  0  0  0  0  0
  -15.8676  -28.0988   22.7036 H   0  0  0  0  0  0
  -24.6069  -30.6949   25.7811 H   0  0  0  0  0  0
  -24.8960  -32.2853   26.4768 H   0  0  0  0  0  0
  -25.8214  -30.9007   27.0236 H   0  0  0  0  0  0
  -26.3014  -29.6666   24.1263 H   0  0  0  0  0  0
  -27.4248  -29.7285   25.4649 H   0  0  0  0  0  0
  -27.8850  -30.4288   23.9328 H   0  0  0  0  0  0
  -27.2765  -33.3641   26.1967 H   0  0  0  0  0  0
  -28.4042  -32.6712   25.0365 H   0  0  0  0  0  0
  -28.0678  -31.8431   26.5485 H   0  0  0  0  0  0
  -28.2624  -37.9994   24.7575 H   0  0  0  0  0  0
  -28.0973  -36.2560   24.6309 H   0  0  0  0  0  0
  -27.2263  -37.1365   25.8911 H   0  0  0  0  0  0
  -20.9406  -29.8787   21.6790 H   0  0  0  0  0  0
  -26.0077  -38.2832   24.1571 H   0  0  0  0  0  0
  -28.6631  -20.7813   22.6106 H   0  0  0  0  0  0
  -28.0890  -18.7962   23.8535 H   0  0  0  0  0  0
  -30.2362  -18.3176   19.4242 H   0  0  0  0  0  0
  -26.1361  -16.5705   22.9589 H   0  0  0  0  0  0
  -26.7501  -17.2350   24.4736 H   0  0  0  0  0  0
  -26.5033  -15.5136   24.3085 H   0  0  0  0  0  0
  -30.2566  -15.6481   23.9481 H   0  0  0  0  0  0
  -28.9489  -14.9683   24.9032 H   0  0  0  0  0  0
  -29.3675  -16.6696   25.0646 H   0  0  0  0  0  0
  -28.0778  -23.9144   17.8015 H   0  0  0  0  0  0
  -29.3968  -25.0651   17.9555 H   0  0  0  0  0  0
  -27.7514  -25.6301   17.7154 H   0  0  0  0  0  0
  -30.1492  -20.9841   19.1986 H   0  0  0  0  0  0
  -30.6437  -21.5426   20.7650 H   0  0  0  0  0  0
  -29.1645  -23.8916   21.4652 H   0  0  0  0  0  0
  -30.1411  -23.8985   20.0283 H   0  0  0  0  0  0
  -28.1596  -15.3495   22.5974 H   0  0  0  0  0  0
  -27.1625  -24.5948   20.0106 H   0  0  0  0  0  0
  -28.6504  -15.3303   20.6584 H   0  0  0  0  0  0
  -28.3040  -22.1857   19.2523 H   0  0  0  0  0  0
  -28.0052  -22.0414   20.8203 H   0  0  0  0  0  0
  1 25  1  0  0  0
  1 30  2  0  0  0
  1 84  1  0  0  0
  2  3  1  0  0  0
  2 25  1  0  0  0
  2 86  1  0  0  0
  2 87  1  0  0  0
  3  4  1  0  0  0
  3 88  1  0  0  0
  3 89  1  0  0  0
  4  5  1  0  0  0
  4 90  1  0  0  0
  4 91  1  0  0  0
  5  6  1  0  0  0
  5 26  1  0  0  0
  5 92  1  0  0  0
  6 25  1  0  0  0
  6 93  1  0  0  0
  6 94  1  0  0  0
  7  8  2  0  0  0
  7 26  1  0  0  0
  7 29  1  0  0  0
  8  9  1  0  0  0
  8 22  1  0  0  0
  9 10  1  0  0  0
  9 27  2  0  0  0
 10 11  2  0  0  0
 10 15  1  0  0  0
 11 12  1  0  0  0
 11 95  1  0  0  0
 12 13  2  0  0  0
 12 96  1  0  0  0
 13 14  1  0  0  0
 13 31  1  0  0  0
 14 15  2  0  0  0
 14 97  1  0  0  0
 15 98  1  0  0  0
 16 17  2  0  0  0
 16 21  1  0  0  0
 16 31  1  0  0  0
 17 18  1  0  0  0
 17 99  1  0  0  0
 18 19  2  0  0  0
 18100  1  0  0  0
 19 20  1  0  0  0
 19 24  1  0  0  0
 20 21  2  0  0  0
 20101  1  0  0  0
 21 23  1  0  0  0
 22 28  1  0  0  0
 22 32  2  0  0  0
 26 27  1  0  0  0
 28102  1  0  0  0
 28103  1  0  0  0
 29104  1  0  0  0
 29105  1  0  0  0
 33 34  1  0  0  0
 33 66  1  0  0  0
 33 70  2  0  0  0
 34 36  1  0  0  0
 34 59  1  0  0  0
 34106  1  0  0  0
 35 44  2  0  0  0
 35 45  1  0  0  0
 35 68  1  0  0  0
 36 56  1  0  0  0
 36107  1  0  0  0
 37 39  1  0  0  0
 37 47  1  0  0  0
 37 66  1  0  0  0
 37108  1  0  0  0
 38 43  2  0  0  0
 38 46  1  0  0  0
 38 47  1  0  0  0
 39 64  1  0  0  0
 39 67  2  0  0  0
 40 52  1  0  0  0
 40 53  2  0  0  0
 40 58  1  0  0  0
 41109  1  0  0  0
 41110  1  0  0  0
 41111  1  0  0  0
 41 48  1  0  0  0
 42 43  1  0  0  0
 42 66  1  0  0  0
 42112  1  0  0  0
 42113  1  0  0  0
 43 44  1  0  0  0
 44114  1  0  0  0
 45 46  2  0  0  0
 45115  1  0  0  0
 46116  1  0  0  0
 47117  1  0  0  0
 47118  1  0  0  0
 48 56  1  0  0  0
 48 65  1  0  0  0
 48119  1  0  0  0
 49 50  1  0  0  0
 49 53  1  0  0  0
 49 64  1  0  0  0
 49120  1  0  0  0
 50 51  1  0  0  0
 50121  1  0  0  0
 50122  1  0  0  0
 51 52  1  0  0  0
 51123  1  0  0  0
 51124  1  0  0  0
 52125  1  0  0  0
 52126  1  0  0  0
 53 54  1  0  0  0
 54 55  2  0  0  0
 54127  1  0  0  0
 55 57  1  0  0  0
 55128  1  0  0  0
 56 69  2  0  0  0
 57 58  2  0  0  0
 57129  1  0  0  0
 58130  1  0  0  0
 59 60  1  0  0  0
 59 61  1  0  0  0
 59 62  1  0  0  0
 60131  1  0  0  0
 60132  1  0  0  0
 60133  1  0  0  0
 61134  1  0  0  0
 61135  1  0  0  0
 61136  1  0  0  0
 62137  1  0  0  0
 62138  1  0  0  0
 62139  1  0  0  0
 63 65  1  0  0  0
 63140  1  0  0  0
 63141  1  0  0  0
 63142  1  0  0  0
 64143  1  0  0  0
 65144  1  0  0  0
 68 83  1  0  0  0
 71 72  2  0  0  0
 71 74  1  0  0  0
 71145  1  0  0  0
 72 75  1  0  0  0
 72146  1  0  0  0
 73 74  2  0  0  0
 73 76  1  0  0  0
 73147  1  0  0  0
 74 80  1  0  0  0
 75 76  2  0  0  0
 75 82  1  0  0  0
 76 84  1  0  0  0
 77148  1  0  0  0
 77149  1  0  0  0
 77150  1  0  0  0
 77 82  1  0  0  0
 78 82  1  0  0  0
 78151  1  0  0  0
 78152  1  0  0  0
 78153  1  0  0  0
 79154  1  0  0  0
 79155  1  0  0  0
 79156  1  0  0  0
 79 83  1  0  0  0
 80 85  1  0  0  0
 80157  1  0  0  0
 80158  1  0  0  0
 81 83  1  0  0  0
 81 85  1  0  0  0
 81159  1  0  0  0
 81160  1  0  0  0
 82161  1  0  0  0
 83162  1  0  0  0
 84163  1  0  0  0
 85164  1  0  0  0
 85165  1  0  0  0
M  CHG  1  85   1
M  ISO  4   1 100  68 101  83 101  84 100
M  END
> <chiral flag>
0

> <version>
0

> <s_m_source_file>
/data/baiqing/PycharmProjects/Reinvent-master-3.2/result/LINK_invent/BTK/process_docking_weight1_custom_sum_contain_oxygen_bond_distance_aromatic_linkinvent_7_9_3/rearranged_h_0108.sdf

> <i_m_source_file_index>
57

> <r_mmod_Potential_Energy-OPLS-2005>
62.1264953613281

> <r_mmod_Stretch_Energy-OPLS-2005>
135.21142578125

> <r_mmod_Bend_Energy-OPLS-2005>
195.77717590332

> <r_mmod_Torsional_Energy-OPLS-2005>
249.244384765625

> <r_mmod_Improper_Torsional_Energy-OPLS-2005>
12.3372020721436

> <r_mmod_Van_der_Waal_Energy-OPLS-2005>
140.093399047852

> <r_mmod_Electrostatic_Energy-OPLS-2005>
-316.684997558594

> <r_mmod_Solvation_Energy-OPLS-2005>
-450.0458984375

> <b_mmod_Minimization_Converged-OPLS-2005>
0

> <r_mmod_RMS_Derivative-OPLS-2005>
3.79430389404297

$$$$
57
                    3D
 Structure written by MMmdl.
157165  0  0  1  0            999 V2000
  -30.6479  -14.6104   20.5070 C   0  0  0  0  0  0
  -30.4314  -12.3770   19.4533 C   0  0  0  0  0  0
  -29.5046  -12.5008   18.2244 C   0  0  0  0  0  0
  -28.0276  -12.3433   18.6366 C   0  0  0  0  0  0
  -27.6520  -13.2180   19.8621 C   0  0  2  0  0  0
  -28.6949  -13.0792   20.9938 C   0  0  0  0  0  0
  -25.2547  -13.8182   20.5680 C   0  0  0  0  0  0
  -24.1818  -13.0443   20.9194 C   0  0  0  0  0  0
  -24.6393  -11.6914   20.8752 C   0  0  0  0  0  0
  -23.9064  -10.4292   21.0412 C   0  0  0  0  0  0
  -24.3615   -9.4205   21.9183 C   0  0  0  0  0  0
  -23.6293   -8.2240   22.0754 C   0  0  0  0  0  0
  -22.4275   -8.0277   21.3542 C   0  0  0  0  0  0
  -21.9912   -9.0258   20.4647 C   0  0  0  0  0  0
  -22.7242  -10.2135   20.3059 C   0  0  0  0  0  0
  -21.6855   -6.0735   22.5276 C   0  0  0  0  0  0
  -21.4015   -6.5638   23.8209 C   0  0  0  0  0  0
  -21.3664   -5.6793   24.9173 C   0  0  0  0  0  0
  -21.6047   -4.3057   24.7222 C   0  0  0  0  0  0
  -21.8819   -3.8145   23.4346 C   0  0  0  0  0  0
  -21.9190   -4.6961   22.3399 C   0  0  0  0  0  0
  -22.7837  -13.5230   21.1851 C   0  0  0  0  0  0
  -22.1656   -4.2146   21.0977 F   0  0  0  0  0  0
  -21.5630   -3.4543   25.7736 F   0  0  0  0  0  0
  -30.0129  -13.4014   20.4287 N   0  0  0  0  0  0
  -26.2978  -12.9365   20.3314 N   0  0  0  0  0  0
  -25.9317  -11.6519   20.5759 N   0  0  0  0  0  0
  -22.0473  -12.8231   22.0411 N   0  0  0  0  0  0
  -25.4263  -15.1900   20.4076 N   0  0  0  0  0  0
  -31.8119  -14.7568   20.1267 O   0  0  0  0  0  0
  -21.6639   -6.8880   21.4236 O   0  0  0  0  0  0
  -22.3525  -14.5533   20.6691 O   0  0  0  0  0  0
  -24.6227  -31.8607   23.2042 C   0  0  0  0  0  0
  -25.9085  -32.4779   23.8365 C   0  0  1  0  0  0
  -27.2263  -27.3458   20.1142 C   0  0  0  0  0  0
  -25.5916  -33.8582   24.2295 N   0  0  0  0  0  0
  -23.4152  -30.4853   21.5450 C   0  0  2  0  0  0
  -24.8622  -28.9444   20.1106 C   0  0  0  0  0  0
  -22.7457  -29.4626   22.4930 C   0  0  0  0  0  0
  -18.0282  -28.1376   22.8486 C   0  0  0  0  0  0
  -24.1491  -36.7300   23.2637 C   0  0  0  0  0  0
  -25.9537  -30.8016   21.3703 C   0  0  0  0  0  0
  -26.0289  -29.4312   20.7126 C   0  0  0  0  0  0
  -27.2146  -28.6432   20.7040 C   0  0  0  0  0  0
  -26.0368  -26.9044   19.4892 C   0  0  0  0  0  0
  -24.8664  -27.6856   19.4902 C   0  0  0  0  0  0
  -23.6284  -29.8202   20.1598 C   0  0  0  0  0  0
  -25.4109  -36.3084   24.0332 C   0  0  1  0  0  0
  -20.5883  -28.3675   23.1285 C   0  0  2  0  0  0
  -20.6771  -26.9400   22.5407 C   0  0  0  0  0  0
  -19.5748  -26.6378   21.5207 C   0  0  0  0  0  0
  -18.1928  -26.7918   22.1622 C   0  0  0  0  0  0
  -19.1535  -28.8841   23.2886 C   0  0  0  0  0  0
  -18.9457  -30.1444   23.8902 C   0  0  0  0  0  0
  -17.6458  -30.6581   24.0559 C   0  0  0  0  0  0
  -25.9042  -34.9449   23.5111 C   0  0  0  0  0  0
  -16.5350  -29.9080   23.6325 C   0  0  0  0  0  0
  -16.7269  -28.6495   23.0350 C   0  0  0  0  0  0
  -26.4489  -31.6577   25.0720 C   0  0  0  0  0  0
  -25.3743  -31.3704   26.1464 C   0  0  0  0  0  0
  -27.0327  -30.3004   24.6148 C   0  0  0  0  0  0
  -27.6054  -32.4304   25.7488 C   0  0  0  0  0  0
  -27.5581  -37.1801   24.8461 C   0  0  0  0  0  0
  -21.4172  -29.3038   22.3683 N   0  0  0  0  0  0
  -26.4290  -37.3775   23.9409 N   0  0  0  0  0  0
  -24.6823  -31.0655   22.0970 N   0  0  0  0  0  0
  -23.4193  -28.8158   23.2995 O   0  0  0  0  0  0
  -28.3563  -26.5233   20.1649 O   0  0  0  0  0  0
  -26.5607  -34.8912   22.4677 O   0  0  0  0  0  0
  -23.5397  -32.1388   23.7390 O   0  0  0  0  0  0
  -28.5840  -21.8519   19.5926 C   0  0  0  0  0  0
  -28.5566  -20.4290   19.6486 C   0  0  0  0  0  0
  -29.9215  -21.8757   21.5942 C   0  0  0  0  0  0
  -29.2606  -22.6134   20.5753 C   0  0  0  0  0  0
  -29.2006  -19.6921   20.6800 C   0  0  0  0  0  0
  -29.8980  -20.4432   21.6632 C   0  0  0  0  0  0
  -31.3005  -20.4293   23.6192 C   0  0  0  0  0  0
  -29.3757  -24.1785   20.5404 C   0  0  0  0  0  0
  -29.0004  -18.1390   20.7929 C   0  0  0  0  0  0
  -30.2269  -17.1460   20.6894 C   0  0  0  0  0  0
  -28.1617  -25.0656   20.0687 C   0  0  0  0  0  0
  -29.8750  -15.6904   20.8200 N   0  0  0  0  0  0
  -30.5103  -19.7253   22.6686 O   0  0  0  0  0  0
  -31.4742  -12.4907   19.1522 H   0  0  0  0  0  0
  -30.3561  -11.3825   19.8960 H   0  0  0  0  0  0
  -29.7662  -11.7485   17.4792 H   0  0  0  0  0  0
  -29.6517  -13.4703   17.7456 H   0  0  0  0  0  0
  -27.8637  -11.2910   18.8717 H   0  0  0  0  0  0
  -27.3725  -12.5719   17.7950 H   0  0  0  0  0  0
  -27.6724  -14.2519   19.5166 H   0  0  0  0  0  0
  -28.6950  -12.0639   21.3930 H   0  0  0  0  0  0
  -28.4468  -13.7308   21.8332 H   0  0  0  0  0  0
  -25.2761   -9.5686   22.4754 H   0  0  0  0  0  0
  -24.0005   -7.4634   22.7480 H   0  0  0  0  0  0
  -21.0836   -8.8791   19.8956 H   0  0  0  0  0  0
  -22.3708  -10.9679   19.6167 H   0  0  0  0  0  0
  -21.2015   -7.6148   23.9718 H   0  0  0  0  0  0
  -21.1482   -6.0518   25.9076 H   0  0  0  0  0  0
  -22.0594   -2.7605   23.2846 H   0  0  0  0  0  0
  -22.4087  -11.9903   22.4822 H   0  0  0  0  0  0
  -21.1088  -13.1267   22.2602 H   0  0  0  0  0  0
  -24.6594  -15.8449   20.5155 H   0  0  0  0  0  0
  -26.2707  -15.6258   20.0599 H   0  0  0  0  0  0
  -26.7150  -32.5460   23.1115 H   0  0  0  0  0  0
  -25.0079  -33.9733   25.0449 H   0  0  0  0  0  0
  -22.7073  -31.3042   21.4027 H   0  0  0  0  0  0
  -23.3750  -35.9636   23.3287 H   0  0  0  0  0  0
  -24.3593  -36.8931   22.2056 H   0  0  0  0  0  0
  -23.7248  -37.6501   23.6665 H   0  0  0  0  0  0
  -26.0826  -31.5663   20.6029 H   0  0  0  0  0  0
  -26.8349  -30.8495   21.9983 H   0  0  0  0  0  0
  -28.1110  -29.0136   21.1819 H   0  0  0  0  0  0
  -25.9865  -25.9440   18.9988 H   0  0  0  0  0  0
  -23.9727  -27.3076   19.0135 H   0  0  0  0  0  0
  -23.7435  -30.5953   19.4014 H   0  0  0  0  0  0
  -22.7503  -29.2454   19.8603 H   0  0  0  0  0  0
  -25.1288  -36.1938   25.0824 H   0  0  0  0  0  0
  -20.9985  -28.3250   24.1401 H   0  0  0  0  0  0
  -20.5669  -26.2284   23.3604 H   0  0  0  0  0  0
  -21.6639  -26.7426   22.1203 H   0  0  0  0  0  0
  -19.6909  -25.6291   21.1231 H   0  0  0  0  0  0
  -19.6687  -27.3191   20.6740 H   0  0  0  0  0  0
  -17.4197  -26.6662   21.4026 H   0  0  0  0  0  0
  -18.0333  -26.0061   22.9019 H   0  0  0  0  0  0
  -19.7933  -30.7256   24.2276 H   0  0  0  0  0  0
  -17.5011  -31.6261   24.5157 H   0  0  0  0  0  0
  -15.5350  -30.2983   23.7641 H   0  0  0  0  0  0
  -15.8669  -28.0813   22.7065 H   0  0  0  0  0  0
  -24.5926  -30.7033   25.7810 H   0  0  0  0  0  0
  -24.8928  -32.2865   26.4891 H   0  0  0  0  0  0
  -25.8094  -30.8896   27.0234 H   0  0  0  0  0  0
  -26.2889  -29.6754   24.1190 H   0  0  0  0  0  0
  -27.4057  -29.7252   25.4633 H   0  0  0  0  0  0
  -27.8744  -30.4295   23.9340 H   0  0  0  0  0  0
  -27.2673  -33.3612   26.2053 H   0  0  0  0  0  0
  -28.3874  -32.6844   25.0322 H   0  0  0  0  0  0
  -28.0706  -31.8434   26.5417 H   0  0  0  0  0  0
  -28.2582  -38.0112   24.7518 H   0  0  0  0  0  0
  -28.1093  -36.2644   24.6271 H   0  0  0  0  0  0
  -27.2303  -37.1427   25.8864 H   0  0  0  0  0  0
  -20.9334  -29.8775   21.6915 H   0  0  0  0  0  0
  -26.0171  -38.2847   24.1421 H   0  0  0  0  0  0
  -28.0751  -22.3553   18.7820 H   0  0  0  0  0  0
  -27.9999  -19.8969   18.8894 H   0  0  0  0  0  0
  -30.4528  -22.4468   22.3412 H   0  0  0  0  0  0
  -31.7654  -19.7172   24.3013 H   0  0  0  0  0  0
  -30.6952  -21.1112   24.2181 H   0  0  0  0  0  0
  -32.1023  -20.9893   23.1357 H   0  0  0  0  0  0
  -30.2401  -24.4230   19.9229 H   0  0  0  0  0  0
  -29.6398  -24.5082   21.5454 H   0  0  0  0  0  0
  -28.2702  -17.8492   20.0361 H   0  0  0  0  0  0
  -28.5008  -17.9643   21.7463 H   0  0  0  0  0  0
  -30.9601  -17.3879   21.4592 H   0  0  0  0  0  0
  -30.7273  -17.2994   19.7323 H   0  0  0  0  0  0
  -27.2928  -24.7826   20.6648 H   0  0  0  0  0  0
  -27.9332  -24.8133   19.0325 H   0  0  0  0  0  0
  -28.9296  -15.4801   21.1021 H   0  0  0  0  0  0
  1 25  1  0  0  0
  1 30  2  0  0  0
  1 82  1  0  0  0
  2  3  1  0  0  0
  2 25  1  0  0  0
  2 84  1  0  0  0
  2 85  1  0  0  0
  3  4  1  0  0  0
  3 86  1  0  0  0
  3 87  1  0  0  0
  4  5  1  0  0  0
  4 88  1  0  0  0
  4 89  1  0  0  0
  5  6  1  0  0  0
  5 26  1  0  0  0
  5 90  1  0  0  0
  6 25  1  0  0  0
  6 91  1  0  0  0
  6 92  1  0  0  0
  7  8  2  0  0  0
  7 26  1  0  0  0
  7 29  1  0  0  0
  8  9  1  0  0  0
  8 22  1  0  0  0
  9 10  1  0  0  0
  9 27  2  0  0  0
 10 11  2  0  0  0
 10 15  1  0  0  0
 11 12  1  0  0  0
 11 93  1  0  0  0
 12 13  2  0  0  0
 12 94  1  0  0  0
 13 14  1  0  0  0
 13 31  1  0  0  0
 14 15  2  0  0  0
 14 95  1  0  0  0
 15 96  1  0  0  0
 16 17  2  0  0  0
 16 21  1  0  0  0
 16 31  1  0  0  0
 17 18  1  0  0  0
 17 97  1  0  0  0
 18 19  2  0  0  0
 18 98  1  0  0  0
 19 20  1  0  0  0
 19 24  1  0  0  0
 20 21  2  0  0  0
 20 99  1  0  0  0
 21 23  1  0  0  0
 22 28  1  0  0  0
 22 32  2  0  0  0
 26 27  1  0  0  0
 28100  1  0  0  0
 28101  1  0  0  0
 29102  1  0  0  0
 29103  1  0  0  0
 33 34  1  0  0  0
 33 66  1  0  0  0
 33 70  2  0  0  0
 34 36  1  0  0  0
 34 59  1  0  0  0
 34104  1  0  0  0
 35 44  2  0  0  0
 35 45  1  0  0  0
 35 68  1  0  0  0
 36 56  1  0  0  0
 36105  1  0  0  0
 37 39  1  0  0  0
 37 47  1  0  0  0
 37 66  1  0  0  0
 37106  1  0  0  0
 38 43  2  0  0  0
 38 46  1  0  0  0
 38 47  1  0  0  0
 39 64  1  0  0  0
 39 67  2  0  0  0
 40 52  1  0  0  0
 40 53  2  0  0  0
 40 58  1  0  0  0
 41107  1  0  0  0
 41108  1  0  0  0
 41109  1  0  0  0
 41 48  1  0  0  0
 42 43  1  0  0  0
 42 66  1  0  0  0
 42110  1  0  0  0
 42111  1  0  0  0
 43 44  1  0  0  0
 44112  1  0  0  0
 45 46  2  0  0  0
 45113  1  0  0  0
 46114  1  0  0  0
 47115  1  0  0  0
 47116  1  0  0  0
 48 56  1  0  0  0
 48 65  1  0  0  0
 48117  1  0  0  0
 49 50  1  0  0  0
 49 53  1  0  0  0
 49 64  1  0  0  0
 49118  1  0  0  0
 50 51  1  0  0  0
 50119  1  0  0  0
 50120  1  0  0  0
 51 52  1  0  0  0
 51121  1  0  0  0
 51122  1  0  0  0
 52123  1  0  0  0
 52124  1  0  0  0
 53 54  1  0  0  0
 54 55  2  0  0  0
 54125  1  0  0  0
 55 57  1  0  0  0
 55126  1  0  0  0
 56 69  2  0  0  0
 57 58  2  0  0  0
 57127  1  0  0  0
 58128  1  0  0  0
 59 60  1  0  0  0
 59 61  1  0  0  0
 59 62  1  0  0  0
 60129  1  0  0  0
 60130  1  0  0  0
 60131  1  0  0  0
 61132  1  0  0  0
 61133  1  0  0  0
 61134  1  0  0  0
 62135  1  0  0  0
 62136  1  0  0  0
 62137  1  0  0  0
 63 65  1  0  0  0
 63138  1  0  0  0
 63139  1  0  0  0
 63140  1  0  0  0
 64141  1  0  0  0
 65142  1  0  0  0
 68 81  1  0  0  0
 71 72  2  0  0  0
 71 74  1  0  0  0
 71143  1  0  0  0
 72 75  1  0  0  0
 72144  1  0  0  0
 73 74  2  0  0  0
 73 76  1  0  0  0
 73145  1  0  0  0
 74 78  1  0  0  0
 75 76  2  0  0  0
 75 79  1  0  0  0
 76 83  1  0  0  0
 77 83  1  0  0  0
 77146  1  0  0  0
 77147  1  0  0  0
 77148  1  0  0  0
 78 81  1  0  0  0
 78149  1  0  0  0
 78150  1  0  0  0
 79 80  1  0  0  0
 79151  1  0  0  0
 79152  1  0  0  0
 80 82  1  0  0  0
 80153  1  0  0  0
 80154  1  0  0  0
 81155  1  0  0  0
 81156  1  0  0  0
 82157  1  0  0  0
M  ISO  4   1 100  68 101  81 101  82 100
M  END
> <chiral flag>
0

> <version>
0

> <s_m_source_file>
/data/baiqing/PycharmProjects/Reinvent-master-3.2/result/LINK_invent/BTK/process_docking_weight1_custom_sum_contain_oxygen_bond_distance_aromatic_linkinvent_7_9_3/rearranged_h_0108.sdf

> <i_m_source_file_index>
58

> <r_mmod_Potential_Energy-OPLS-2005>
-11.0194778442383

> <r_mmod_Stretch_Energy-OPLS-2005>
68.5195922851562

> <r_mmod_Bend_Energy-OPLS-2005>
123.527702331543

> <r_mmod_Torsional_Energy-OPLS-2005>
199.377593994141

> <r_mmod_Improper_Torsional_Energy-OPLS-2005>
5.42837619781494

> <r_mmod_Van_der_Waal_Energy-OPLS-2005>
148.255020141602

> <r_mmod_Electrostatic_Energy-OPLS-2005>
-379.169952392578

> <r_mmod_Solvation_Energy-OPLS-2005>
-216.343109130859

> <b_mmod_Minimization_Converged-OPLS-2005>
0

> <r_mmod_RMS_Derivative-OPLS-2005>
0.969894051551819

$$$$
58
                    3D
 Structure written by MMmdl.
168176  0  0  1  0            999 V2000
  -30.6819  -14.4198   20.6484 C   0  0  0  0  0  0
  -30.4244  -12.2882   19.4245 C   0  0  0  0  0  0
  -29.5018  -12.5330   18.2121 C   0  0  0  0  0  0
  -28.0149  -12.4132   18.6068 C   0  0  0  0  0  0
  -27.6708  -13.2042   19.8976 C   0  0  2  0  0  0
  -28.7005  -12.9152   21.0125 C   0  0  0  0  0  0
  -25.2590  -13.8140   20.5740 C   0  0  0  0  0  0
  -24.1839  -13.0420   20.9160 C   0  0  0  0  0  0
  -24.6385  -11.6890   20.8676 C   0  0  0  0  0  0
  -23.9032  -10.4306   21.0366 C   0  0  0  0  0  0
  -24.3597   -9.4240   21.9157 C   0  0  0  0  0  0
  -23.6292   -8.2260   22.0749 C   0  0  0  0  0  0
  -22.4272   -8.0280   21.3543 C   0  0  0  0  0  0
  -21.9892   -9.0242   20.4642 C   0  0  0  0  0  0
  -22.7202  -10.2140   20.3027 C   0  0  0  0  0  0
  -21.6849   -6.0722   22.5274 C   0  0  0  0  0  0
  -21.3985   -6.5613   23.8212 C   0  0  0  0  0  0
  -21.3666   -5.6783   24.9180 C   0  0  0  0  0  0
  -21.6076   -4.3049   24.7240 C   0  0  0  0  0  0
  -21.8804   -3.8128   23.4357 C   0  0  0  0  0  0
  -21.9169   -4.6939   22.3410 C   0  0  0  0  0  0
  -22.7896  -13.5224   21.1880 C   0  0  0  0  0  0
  -22.1613   -4.2120   21.0984 F   0  0  0  0  0  0
  -21.5680   -3.4532   25.7753 F   0  0  0  0  0  0
  -30.0456  -13.2285   20.4902 N   0  0  0  0  0  0
  -26.3049  -12.9323   20.3409 N   0  0  0  0  0  0
  -25.9317  -11.6479   20.5748 N   0  0  0  0  0  0
  -22.0601  -12.8206   22.0487 N   0  0  0  0  0  0
  -25.4209  -15.1880   20.4303 N   0  0  0  0  0  0
  -31.7283  -14.7237   20.0647 O   0  0  0  0  0  0
  -21.6659   -6.8855   21.4245 O   0  0  0  0  0  0
  -22.3599  -14.5565   20.6801 O   0  0  0  0  0  0
  -24.6186  -31.8675   23.2084 C   0  0  0  0  0  0
  -25.9075  -32.4806   23.8385 C   0  0  1  0  0  0
  -27.2343  -27.4381   20.0984 C   0  0  0  0  0  0
  -25.5940  -33.8611   24.2347 N   0  0  0  0  0  0
  -23.4036  -30.4931   21.5483 C   0  0  2  0  0  0
  -24.8476  -28.9508   20.1181 C   0  0  0  0  0  0
  -22.7400  -29.4682   22.4961 C   0  0  0  0  0  0
  -18.0283  -28.1376   22.8499 C   0  0  0  0  0  0
  -24.1479  -36.7291   23.2621 C   0  0  0  0  0  0
  -25.9311  -30.8348   21.3568 C   0  0  0  0  0  0
  -26.0079  -29.4702   20.7064 C   0  0  0  0  0  0
  -27.2077  -28.7223   20.6869 C   0  0  0  0  0  0
  -26.0551  -26.9244   19.5157 C   0  0  0  0  0  0
  -24.8646  -27.6743   19.5234 C   0  0  0  0  0  0
  -23.6131  -29.8245   20.1618 C   0  0  0  0  0  0
  -25.4090  -36.3109   24.0356 C   0  0  1  0  0  0
  -20.5874  -28.3681   23.1298 C   0  0  2  0  0  0
  -20.6795  -26.9418   22.5396 C   0  0  0  0  0  0
  -19.5763  -26.6404   21.5199 C   0  0  0  0  0  0
  -18.1936  -26.7933   22.1617 C   0  0  0  0  0  0
  -19.1526  -28.8840   23.2908 C   0  0  0  0  0  0
  -18.9459  -30.1449   23.8917 C   0  0  0  0  0  0
  -17.6455  -30.6582   24.0579 C   0  0  0  0  0  0
  -25.9040  -34.9481   23.5153 C   0  0  0  0  0  0
  -16.5348  -29.9088   23.6330 C   0  0  0  0  0  0
  -16.7268  -28.6504   23.0354 C   0  0  0  0  0  0
  -26.4494  -31.6556   25.0693 C   0  0  0  0  0  0
  -25.3782  -31.3691   26.1456 C   0  0  0  0  0  0
  -27.0251  -30.2977   24.6055 C   0  0  0  0  0  0
  -27.6119  -32.4199   25.7450 C   0  0  0  0  0  0
  -27.5585  -37.1771   24.8430 C   0  0  0  0  0  0
  -21.4118  -29.3044   22.3671 N   0  0  0  0  0  0
  -26.4251  -37.3813   23.9457 N   0  0  0  0  0  0
  -24.6699  -31.0788   22.0980 N   0  0  0  0  0  0
  -23.4164  -28.8254   23.3021 O   0  0  0  0  0  0
  -28.3983  -26.7019   20.0727 O   0  0  0  0  0  0
  -26.5554  -34.8956   22.4685 O   0  0  0  0  0  0
  -23.5376  -32.1429   23.7482 O   0  0  0  0  0  0
  -26.6106  -20.2001   21.3060 C   0  0  0  0  0  0
  -28.7114  -19.5229   20.7977 C   0  0  0  0  0  0
  -27.8203  -20.5453   20.6548 C   0  0  0  0  0  0
  -26.8105  -18.9869   21.9147 C   0  0  0  0  0  0
  -24.4311  -18.7252   22.7790 C   0  0  0  0  0  0
  -26.3667  -18.2996   24.2986 C   0  0  0  0  0  0
  -29.6253  -22.6400   21.7047 C   0  0  0  0  0  0
  -28.4525  -24.2023   20.0251 C   0  0  0  0  0  0
  -28.7208  -17.2934   22.0261 C   0  0  0  0  0  0
  -29.8766  -16.7360   21.1565 C   0  0  0  0  0  0
  -28.3883  -25.5042   20.8658 C   0  0  0  0  0  0
  -25.8864  -18.2286   22.8409 C   0  0  0  0  0  0
  -28.3614  -22.8857   20.8509 C   0  0  1  0  0  0
  -28.0984  -18.5424   21.5734 N   0  0  0  0  0  0
  -28.0623  -21.7447   19.9749 N   0  0  0  0  0  0
  -30.0027  -15.2958   21.4003 N   0  0  0  0  0  0
  -31.4740  -12.3985   19.1402 H   0  0  0  0  0  0
  -30.3194  -11.2635   19.7810 H   0  0  0  0  0  0
  -29.7328  -11.8318   17.4078 H   0  0  0  0  0  0
  -29.6931  -13.5277   17.8120 H   0  0  0  0  0  0
  -27.7820  -11.3563   18.7384 H   0  0  0  0  0  0
  -27.3900  -12.7642   17.7850 H   0  0  0  0  0  0
  -27.7380  -14.2662   19.6577 H   0  0  0  0  0  0
  -28.6648  -11.8638   21.3002 H   0  0  0  0  0  0
  -28.4410  -13.4583   21.9220 H   0  0  0  0  0  0
  -25.2711   -9.5778   22.4734 H   0  0  0  0  0  0
  -24.0023   -7.4629   22.7422 H   0  0  0  0  0  0
  -21.0830   -8.8730   19.8940 H   0  0  0  0  0  0
  -22.3631  -10.9649   19.6130 H   0  0  0  0  0  0
  -21.1929   -7.6113   23.9706 H   0  0  0  0  0  0
  -21.1523   -6.0491   25.9089 H   0  0  0  0  0  0
  -22.0583   -2.7600   23.2861 H   0  0  0  0  0  0
  -22.4313  -11.9844   22.4714 H   0  0  0  0  0  0
  -21.1294  -13.1255   22.2957 H   0  0  0  0  0  0
  -24.6413  -15.8187   20.5735 H   0  0  0  0  0  0
  -26.2592  -15.6546   20.1148 H   0  0  0  0  0  0
  -26.7150  -32.5517   23.1149 H   0  0  0  0  0  0
  -25.0202  -33.9800   25.0566 H   0  0  0  0  0  0
  -22.6925  -31.3122   21.4088 H   0  0  0  0  0  0
  -23.3792  -35.9560   23.3207 H   0  0  0  0  0  0
  -24.3601  -36.8949   22.2043 H   0  0  0  0  0  0
  -23.7170  -37.6469   23.6632 H   0  0  0  0  0  0
  -26.0412  -31.6041   20.5919 H   0  0  0  0  0  0
  -26.8222  -30.8862   21.9734 H   0  0  0  0  0  0
  -28.1053  -29.1292   21.1335 H   0  0  0  0  0  0
  -26.0578  -25.9513   19.0458 H   0  0  0  0  0  0
  -23.9711  -27.2654   19.0708 H   0  0  0  0  0  0
  -23.7259  -30.6028   19.4042 H   0  0  0  0  0  0
  -22.7353  -29.2492   19.8669 H   0  0  0  0  0  0
  -25.1257  -36.1953   25.0842 H   0  0  0  0  0  0
  -20.9994  -28.3256   24.1413 H   0  0  0  0  0  0
  -20.5713  -26.2286   23.3589 H   0  0  0  0  0  0
  -21.6668  -26.7471   22.1187 H   0  0  0  0  0  0
  -19.6924  -25.6329   21.1204 H   0  0  0  0  0  0
  -19.6707  -27.3253   20.6756 H   0  0  0  0  0  0
  -17.4224  -26.6690   21.4003 H   0  0  0  0  0  0
  -18.0335  -26.0063   22.9000 H   0  0  0  0  0  0
  -19.7931  -30.7260   24.2279 H   0  0  0  0  0  0
  -17.5020  -31.6270   24.5170 H   0  0  0  0  0  0
  -15.5355  -30.3006   23.7629 H   0  0  0  0  0  0
  -15.8679  -28.0838   22.7042 H   0  0  0  0  0  0
  -24.5951  -30.7036   25.7819 H   0  0  0  0  0  0
  -24.9008  -32.2864   26.4902 H   0  0  0  0  0  0
  -25.8169  -30.8867   27.0204 H   0  0  0  0  0  0
  -26.2773  -29.6814   24.1043 H   0  0  0  0  0  0
  -27.3921  -29.7129   25.4499 H   0  0  0  0  0  0
  -27.8671  -30.4255   23.9253 H   0  0  0  0  0  0
  -27.2804  -33.3502   26.2069 H   0  0  0  0  0  0
  -28.3930  -32.6692   25.0265 H   0  0  0  0  0  0
  -28.0767  -31.8251   26.5333 H   0  0  0  0  0  0
  -28.2506  -38.0167   24.7667 H   0  0  0  0  0  0
  -28.1179  -36.2725   24.5992 H   0  0  0  0  0  0
  -27.2349  -37.1112   25.8833 H   0  0  0  0  0  0
  -20.9229  -29.8708   21.6870 H   0  0  0  0  0  0
  -26.0133  -38.2853   24.1606 H   0  0  0  0  0  0
  -25.7040  -20.7869   21.3766 H   0  0  0  0  0  0
  -29.7266  -19.4066   20.4430 H   0  0  0  0  0  0
  -24.0169  -18.6303   21.7761 H   0  0  0  0  0  0
  -24.3512  -19.7696   23.0846 H   0  0  0  0  0  0
  -23.7968  -18.1401   23.4461 H   0  0  0  0  0  0
  -27.3210  -17.7981   24.4419 H   0  0  0  0  0  0
  -25.6499  -17.8146   24.9610 H   0  0  0  0  0  0
  -26.4811  -19.3326   24.6280 H   0  0  0  0  0  0
  -29.8583  -23.5015   22.3296 H   0  0  0  0  0  0
  -30.5085  -22.4268   21.0964 H   0  0  0  0  0  0
  -29.4862  -21.8015   22.3908 H   0  0  0  0  0  0
  -29.3705  -24.2058   19.4346 H   0  0  0  0  0  0
  -27.6317  -24.2234   19.3065 H   0  0  0  0  0  0
  -29.0842  -17.4400   23.0434 H   0  0  0  0  0  0
  -27.9362  -16.5395   22.0805 H   0  0  0  0  0  0
  -30.8134  -17.2507   21.3730 H   0  0  0  0  0  0
  -29.6617  -16.8816   20.0940 H   0  0  0  0  0  0
  -29.2601  -25.5625   21.5193 H   0  0  0  0  0  0
  -27.5235  -25.4738   21.5308 H   0  0  0  0  0  0
  -25.8616  -17.1787   22.5476 H   0  0  0  0  0  0
  -27.5172  -22.9813   21.5394 H   0  0  0  0  0  0
  -27.2819  -21.9732   19.3639 H   0  0  0  0  0  0
  -29.2550  -14.8835   21.9368 H   0  0  0  0  0  0
  1 25  1  0  0  0
  1 30  2  0  0  0
  1 86  1  0  0  0
  2  3  1  0  0  0
  2 25  1  0  0  0
  2 87  1  0  0  0
  2 88  1  0  0  0
  3  4  1  0  0  0
  3 89  1  0  0  0
  3 90  1  0  0  0
  4  5  1  0  0  0
  4 91  1  0  0  0
  4 92  1  0  0  0
  5  6  1  0  0  0
  5 26  1  0  0  0
  5 93  1  0  0  0
  6 25  1  0  0  0
  6 94  1  0  0  0
  6 95  1  0  0  0
  7  8  2  0  0  0
  7 26  1  0  0  0
  7 29  1  0  0  0
  8  9  1  0  0  0
  8 22  1  0  0  0
  9 10  1  0  0  0
  9 27  2  0  0  0
 10 11  2  0  0  0
 10 15  1  0  0  0
 11 12  1  0  0  0
 11 96  1  0  0  0
 12 13  2  0  0  0
 12 97  1  0  0  0
 13 14  1  0  0  0
 13 31  1  0  0  0
 14 15  2  0  0  0
 14 98  1  0  0  0
 15 99  1  0  0  0
 16 17  2  0  0  0
 16 21  1  0  0  0
 16 31  1  0  0  0
 17 18  1  0  0  0
 17100  1  0  0  0
 18 19  2  0  0  0
 18101  1  0  0  0
 19 20  1  0  0  0
 19 24  1  0  0  0
 20 21  2  0  0  0
 20102  1  0  0  0
 21 23  1  0  0  0
 22 28  1  0  0  0
 22 32  2  0  0  0
 26 27  1  0  0  0
 28103  1  0  0  0
 28104  1  0  0  0
 29105  1  0  0  0
 29106  1  0  0  0
 33 34  1  0  0  0
 33 66  1  0  0  0
 33 70  2  0  0  0
 34 36  1  0  0  0
 34 59  1  0  0  0
 34107  1  0  0  0
 35 44  2  0  0  0
 35 45  1  0  0  0
 35 68  1  0  0  0
 36 56  1  0  0  0
 36108  1  0  0  0
 37 39  1  0  0  0
 37 47  1  0  0  0
 37 66  1  0  0  0
 37109  1  0  0  0
 38 43  2  0  0  0
 38 46  1  0  0  0
 38 47  1  0  0  0
 39 64  1  0  0  0
 39 67  2  0  0  0
 40 52  1  0  0  0
 40 53  2  0  0  0
 40 58  1  0  0  0
 41110  1  0  0  0
 41111  1  0  0  0
 41112  1  0  0  0
 41 48  1  0  0  0
 42 43  1  0  0  0
 42 66  1  0  0  0
 42113  1  0  0  0
 42114  1  0  0  0
 43 44  1  0  0  0
 44115  1  0  0  0
 45 46  2  0  0  0
 45116  1  0  0  0
 46117  1  0  0  0
 47118  1  0  0  0
 47119  1  0  0  0
 48 56  1  0  0  0
 48 65  1  0  0  0
 48120  1  0  0  0
 49 50  1  0  0  0
 49 53  1  0  0  0
 49 64  1  0  0  0
 49121  1  0  0  0
 50 51  1  0  0  0
 50122  1  0  0  0
 50123  1  0  0  0
 51 52  1  0  0  0
 51124  1  0  0  0
 51125  1  0  0  0
 52126  1  0  0  0
 52127  1  0  0  0
 53 54  1  0  0  0
 54 55  2  0  0  0
 54128  1  0  0  0
 55 57  1  0  0  0
 55129  1  0  0  0
 56 69  2  0  0  0
 57 58  2  0  0  0
 57130  1  0  0  0
 58131  1  0  0  0
 59 60  1  0  0  0
 59 61  1  0  0  0
 59 62  1  0  0  0
 60132  1  0  0  0
 60133  1  0  0  0
 60134  1  0  0  0
 61135  1  0  0  0
 61136  1  0  0  0
 61137  1  0  0  0
 62138  1  0  0  0
 62139  1  0  0  0
 62140  1  0  0  0
 63 65  1  0  0  0
 63141  1  0  0  0
 63142  1  0  0  0
 63143  1  0  0  0
 64144  1  0  0  0
 65145  1  0  0  0
 68 81  1  0  0  0
 71 73  1  0  0  0
 71 74  2  0  0  0
 71146  1  0  0  0
 72 73  2  0  0  0
 72 84  1  0  0  0
 72147  1  0  0  0
 73 85  1  0  0  0
 74 82  1  0  0  0
 74 84  1  0  0  0
 75148  1  0  0  0
 75149  1  0  0  0
 75150  1  0  0  0
 75 82  1  0  0  0
 76 82  1  0  0  0
 76151  1  0  0  0
 76152  1  0  0  0
 76153  1  0  0  0
 77154  1  0  0  0
 77155  1  0  0  0
 77156  1  0  0  0
 77 83  1  0  0  0
 78 81  1  0  0  0
 78 83  1  0  0  0
 78157  1  0  0  0
 78158  1  0  0  0
 79 80  1  0  0  0
 79 84  1  0  0  0
 79159  1  0  0  0
 79160  1  0  0  0
 80 86  1  0  0  0
 80161  1  0  0  0
 80162  1  0  0  0
 81163  1  0  0  0
 81164  1  0  0  0
 82165  1  0  0  0
 83 85  1  0  0  0
 83166  1  0  0  0
 85167  1  0  0  0
 86168  1  0  0  0
M  ISO  4   1 100  68 101  81 101  86 100
M  END
> <chiral flag>
0

> <version>
0

> <s_m_source_file>
/data/baiqing/PycharmProjects/Reinvent-master-3.2/result/LINK_invent/BTK/process_docking_weight1_custom_sum_contain_oxygen_bond_distance_aromatic_linkinvent_7_9_3/rearranged_h_0108.sdf

> <i_m_source_file_index>
59

> <r_mmod_Potential_Energy-OPLS-2005>
-104.792350769043

> <r_mmod_Stretch_Energy-OPLS-2005>
37.244441986084

> <r_mmod_Bend_Energy-OPLS-2005>
101.417083740234

> <r_mmod_Torsional_Energy-OPLS-2005>
275.189514160156

> <r_mmod_Improper_Torsional_Energy-OPLS-2005>
10.5377426147461

> <r_mmod_Van_der_Waal_Energy-OPLS-2005>
122.345573425293

> <r_mmod_Electrostatic_Energy-OPLS-2005>
-442.487091064453

> <r_mmod_Solvation_Energy-OPLS-2005>
-219.227493286133

> <b_mmod_Minimization_Converged-OPLS-2005>
0

> <r_mmod_RMS_Derivative-OPLS-2005>
5.40341711044312

$$$$
59
                    3D
 Structure written by MMmdl.
158165  0  0  1  0            999 V2000
  -30.5253  -14.9534   20.4125 C   0  0  0  0  0  0
  -30.4423  -12.5848   19.5171 C   0  0  0  0  0  0
  -29.5291  -12.5360   18.2702 C   0  0  0  0  0  0
  -28.0577  -12.3242   18.6729 C   0  0  0  0  0  0
  -27.6343  -13.2459   19.8461 C   0  0  2  0  0  0
  -28.6718  -13.2615   20.9914 C   0  0  0  0  0  0
  -25.2479  -13.8211   20.5658 C   0  0  0  0  0  0
  -24.1790  -13.0439   20.9199 C   0  0  0  0  0  0
  -24.6396  -11.6916   20.8751 C   0  0  0  0  0  0
  -23.9075  -10.4279   21.0393 C   0  0  0  0  0  0
  -24.3622   -9.4198   21.9180 C   0  0  0  0  0  0
  -23.6290   -8.2227   22.0754 C   0  0  0  0  0  0
  -22.4260   -8.0278   21.3534 C   0  0  0  0  0  0
  -21.9905   -9.0265   20.4640 C   0  0  0  0  0  0
  -22.7247  -10.2139   20.3033 C   0  0  0  0  0  0
  -21.6848   -6.0728   22.5287 C   0  0  0  0  0  0
  -21.4033   -6.5641   23.8218 C   0  0  0  0  0  0
  -21.3652   -5.6796   24.9188 C   0  0  0  0  0  0
  -21.6048   -4.3061   24.7232 C   0  0  0  0  0  0
  -21.8822   -3.8138   23.4356 C   0  0  0  0  0  0
  -21.9196   -4.6955   22.3411 C   0  0  0  0  0  0
  -22.7814  -13.5206   21.1854 C   0  0  0  0  0  0
  -22.1653   -4.2138   21.0985 F   0  0  0  0  0  0
  -21.5618   -3.4550   25.7742 F   0  0  0  0  0  0
  -29.9562  -13.6776   20.4099 N   0  0  0  0  0  0
  -26.2895  -12.9438   20.3237 N   0  0  0  0  0  0
  -25.9330  -11.6565   20.5739 N   0  0  0  0  0  0
  -22.0444  -12.8216   22.0403 N   0  0  0  0  0  0
  -25.4195  -15.1945   20.4023 N   0  0  0  0  0  0
  -31.7002  -15.0450   20.0417 O   0  0  0  0  0  0
  -21.6630   -6.8885   21.4234 O   0  0  0  0  0  0
  -22.3517  -14.5510   20.6701 O   0  0  0  0  0  0
  -24.6464  -31.8400   23.1860 C   0  0  0  0  0  0
  -25.9227  -32.4676   23.8268 C   0  0  1  0  0  0
  -27.2259  -27.1187   20.1427 C   0  0  0  0  0  0
  -25.5955  -33.8486   24.2174 N   0  0  0  0  0  0
  -23.4521  -30.4583   21.5299 C   0  0  2  0  0  0
  -24.9014  -28.8802   20.1053 C   0  0  0  0  0  0
  -22.7584  -29.4527   22.4838 C   0  0  0  0  0  0
  -18.0302  -28.1395   22.8453 C   0  0  0  0  0  0
  -24.1487  -36.7246   23.2637 C   0  0  0  0  0  0
  -26.0085  -30.7049   21.3895 C   0  0  0  0  0  0
  -26.0772  -29.3164   20.7273 C   0  0  0  0  0  0
  -27.2335  -28.4487   20.7317 C   0  0  0  0  0  0
  -26.0226  -26.7855   19.4799 C   0  0  0  0  0  0
  -24.8891  -27.6309   19.4662 C   0  0  0  0  0  0
  -23.6783  -29.7842   20.1501 C   0  0  0  0  0  0
  -25.4113  -36.3022   24.0318 C   0  0  1  0  0  0
  -20.5914  -28.3718   23.1217 C   0  0  2  0  0  0
  -20.6780  -26.9425   22.5382 C   0  0  0  0  0  0
  -19.5762  -26.6374   21.5188 C   0  0  0  0  0  0
  -18.1944  -26.7929   22.1605 C   0  0  0  0  0  0
  -19.1558  -28.8876   23.2832 C   0  0  0  0  0  0
  -18.9476  -30.1466   23.8880 C   0  0  0  0  0  0
  -17.6474  -30.6594   24.0542 C   0  0  0  0  0  0
  -25.9074  -34.9397   23.5057 C   0  0  0  0  0  0
  -16.5364  -29.9076   23.6337 C   0  0  0  0  0  0
  -16.7289  -28.6489   23.0374 C   0  0  0  0  0  0
  -26.4536  -31.6577   25.0738 C   0  0  0  0  0  0
  -25.3708  -31.3774   26.1427 C   0  0  0  0  0  0
  -27.0411  -30.2970   24.6361 C   0  0  0  0  0  0
  -27.6058  -32.4363   25.7514 C   0  0  0  0  0  0
  -27.5595  -37.1747   24.8440 C   0  0  0  0  0  0
  -21.4273  -29.3040   22.3586 N   0  0  0  0  0  0
  -26.4265  -37.3754   23.9444 N   0  0  0  0  0  0
  -24.7221  -31.0235   22.0891 N   0  0  0  0  0  0
  -23.4201  -28.8095   23.3018 O   0  0  0  0  0  0
  -28.2980  -26.1551   20.2713 O   0  0  0  0  0  0
  -26.5667  -34.8906   22.4640 O   0  0  0  0  0  0
  -23.5580  -32.1286   23.7059 O   0  0  0  0  0  0
  -29.4926  -24.8072   18.6707 C   0  0  0  0  0  0
  -27.2178  -22.9528   21.2544 C   0  0  0  0  0  0
  -29.5715  -23.6068   21.7628 C   0  0  0  0  0  0
  -29.6827  -17.5860   20.0220 C   0  0  0  0  0  0
  -29.5321  -19.0568   20.8469 C   0  0  0  0  0  0
  -29.2005  -21.7914   19.9716 C   0  0  0  0  0  0
  -28.3817  -24.6876   19.7279 C   0  0  1  0  0  0
  -28.5922  -23.2506   20.6250 C   0  0  0  0  0  0
  -29.7300  -16.1138   20.6327 N   0  0  0  0  0  0
  -28.7109  -20.3229   20.3276 N   0  3  0  0  0  0
  -31.4760  -12.7400   19.2019 H   0  0  0  0  0  0
  -30.4357  -11.6286   20.0441 H   0  0  0  0  0  0
  -29.8537  -11.7438   17.5967 H   0  0  0  0  0  0
  -29.6250  -13.4708   17.7151 H   0  0  0  0  0  0
  -27.9418  -11.2804   18.9662 H   0  0  0  0  0  0
  -27.4009  -12.4724   17.8135 H   0  0  0  0  0  0
  -27.6045  -14.2513   19.4258 H   0  0  0  0  0  0
  -28.7510  -12.2813   21.4642 H   0  0  0  0  0  0
  -28.3593  -13.9598   21.7709 H   0  0  0  0  0  0
  -25.2752   -9.5691   22.4774 H   0  0  0  0  0  0
  -24.0007   -7.4623   22.7469 H   0  0  0  0  0  0
  -21.0834   -8.8786   19.8951 H   0  0  0  0  0  0
  -22.3698  -10.9686   19.6142 H   0  0  0  0  0  0
  -21.2036   -7.6151   23.9734 H   0  0  0  0  0  0
  -21.1467   -6.0518   25.9105 H   0  0  0  0  0  0
  -22.0604   -2.7593   23.2859 H   0  0  0  0  0  0
  -22.4024  -11.9894   22.4834 H   0  0  0  0  0  0
  -21.1057  -13.1278   22.2550 H   0  0  0  0  0  0
  -24.6546  -15.8537   20.4978 H   0  0  0  0  0  0
  -26.2580  -15.6169   20.0222 H   0  0  0  0  0  0
  -26.7297  -32.5263   23.0999 H   0  0  0  0  0  0
  -25.0083  -33.9580   25.0312 H   0  0  0  0  0  0
  -22.7573  -31.2856   21.3735 H   0  0  0  0  0  0
  -23.3787  -35.9533   23.3195 H   0  0  0  0  0  0
  -24.3607  -36.8983   22.2074 H   0  0  0  0  0  0
  -23.7176  -37.6384   23.6740 H   0  0  0  0  0  0
  -26.1740  -31.4604   20.6200 H   0  0  0  0  0  0
  -26.8743  -30.7492   22.0386 H   0  0  0  0  0  0
  -28.1272  -28.7720   21.2466 H   0  0  0  0  0  0
  -25.9070  -25.8299   18.9944 H   0  0  0  0  0  0
  -23.9907  -27.2919   18.9677 H   0  0  0  0  0  0
  -23.8120  -30.5552   19.3906 H   0  0  0  0  0  0
  -22.7923  -29.2247   19.8456 H   0  0  0  0  0  0
  -25.1290  -36.1831   25.0808 H   0  0  0  0  0  0
  -21.0007  -28.3301   24.1340 H   0  0  0  0  0  0
  -20.5636  -26.2344   23.3600 H   0  0  0  0  0  0
  -21.6649  -26.7402   22.1212 H   0  0  0  0  0  0
  -19.6921  -25.6270   21.1255 H   0  0  0  0  0  0
  -19.6713  -27.3143   20.6687 H   0  0  0  0  0  0
  -17.4209  -26.6659   21.4018 H   0  0  0  0  0  0
  -18.0368  -26.0078   22.9014 H   0  0  0  0  0  0
  -19.7955  -30.7273   24.2251 H   0  0  0  0  0  0
  -17.5034  -31.6277   24.5138 H   0  0  0  0  0  0
  -15.5367  -30.2978   23.7678 H   0  0  0  0  0  0
  -15.8681  -28.0791   22.7134 H   0  0  0  0  0  0
  -24.5866  -30.7156   25.7739 H   0  0  0  0  0  0
  -24.8920  -32.2951   26.4846 H   0  0  0  0  0  0
  -25.7968  -30.8936   27.0221 H   0  0  0  0  0  0
  -26.3037  -29.6677   24.1358 H   0  0  0  0  0  0
  -27.3989  -29.7310   25.4972 H   0  0  0  0  0  0
  -27.8969  -30.4210   23.9722 H   0  0  0  0  0  0
  -27.2648  -33.3673   26.2062 H   0  0  0  0  0  0
  -28.3876  -32.6915   25.0347 H   0  0  0  0  0  0
  -28.0736  -31.8523   26.5450 H   0  0  0  0  0  0
  -28.2502  -38.0155   24.7648 H   0  0  0  0  0  0
  -28.1201  -36.2693   24.6048 H   0  0  0  0  0  0
  -27.2350  -37.1127   25.8845 H   0  0  0  0  0  0
  -20.9494  -29.8760   21.6765 H   0  0  0  0  0  0
  -26.0121  -38.2800   24.1538 H   0  0  0  0  0  0
  -29.5864  -23.9054   18.0657 H   0  0  0  0  0  0
  -30.4638  -25.0056   19.1258 H   0  0  0  0  0  0
  -29.2815  -25.6236   17.9792 H   0  0  0  0  0  0
  -27.2665  -22.1482   21.9888 H   0  0  0  0  0  0
  -26.4847  -22.6720   20.4971 H   0  0  0  0  0  0
  -26.8280  -23.8311   21.7710 H   0  0  0  0  0  0
  -29.6994  -22.7783   22.4608 H   0  0  0  0  0  0
  -29.2273  -24.4675   22.3375 H   0  0  0  0  0  0
  -30.5619  -23.8556   21.3752 H   0  0  0  0  0  0
  -30.5713  -17.6782   19.3941 H   0  0  0  0  0  0
  -28.8578  -17.5543   19.3115 H   0  0  0  0  0  0
  -30.5271  -19.4012   21.1252 H   0  0  0  0  0  0
  -29.0638  -18.8139   21.8002 H   0  0  0  0  0  0
  -30.2899  -21.7986   20.0364 H   0  0  0  0  0  0
  -29.0015  -21.8517   18.9016 H   0  0  0  0  0  0
  -27.4850  -24.5017   19.1436 H   0  0  0  0  0  0
  -28.8525  -15.8606   21.0653 H   0  0  0  0  0  0
  -27.9974  -20.4593   21.0261 H   0  0  0  0  0  0
  -28.2050  -20.0081   19.5151 H   0  0  0  0  0  0
  1 25  1  0  0  0
  1 30  2  0  0  0
  1 79  1  0  0  0
  2  3  1  0  0  0
  2 25  1  0  0  0
  2 81  1  0  0  0
  2 82  1  0  0  0
  3  4  1  0  0  0
  3 83  1  0  0  0
  3 84  1  0  0  0
  4  5  1  0  0  0
  4 85  1  0  0  0
  4 86  1  0  0  0
  5  6  1  0  0  0
  5 26  1  0  0  0
  5 87  1  0  0  0
  6 25  1  0  0  0
  6 88  1  0  0  0
  6 89  1  0  0  0
  7  8  2  0  0  0
  7 26  1  0  0  0
  7 29  1  0  0  0
  8  9  1  0  0  0
  8 22  1  0  0  0
  9 10  1  0  0  0
  9 27  2  0  0  0
 10 11  2  0  0  0
 10 15  1  0  0  0
 11 12  1  0  0  0
 11 90  1  0  0  0
 12 13  2  0  0  0
 12 91  1  0  0  0
 13 14  1  0  0  0
 13 31  1  0  0  0
 14 15  2  0  0  0
 14 92  1  0  0  0
 15 93  1  0  0  0
 16 17  2  0  0  0
 16 21  1  0  0  0
 16 31  1  0  0  0
 17 18  1  0  0  0
 17 94  1  0  0  0
 18 19  2  0  0  0
 18 95  1  0  0  0
 19 20  1  0  0  0
 19 24  1  0  0  0
 20 21  2  0  0  0
 20 96  1  0  0  0
 21 23  1  0  0  0
 22 28  1  0  0  0
 22 32  2  0  0  0
 26 27  1  0  0  0
 28 97  1  0  0  0
 28 98  1  0  0  0
 29 99  1  0  0  0
 29100  1  0  0  0
 33 34  1  0  0  0
 33 66  1  0  0  0
 33 70  2  0  0  0
 34 36  1  0  0  0
 34 59  1  0  0  0
 34101  1  0  0  0
 35 44  2  0  0  0
 35 45  1  0  0  0
 35 68  1  0  0  0
 36 56  1  0  0  0
 36102  1  0  0  0
 37 39  1  0  0  0
 37 47  1  0  0  0
 37 66  1  0  0  0
 37103  1  0  0  0
 38 43  2  0  0  0
 38 46  1  0  0  0
 38 47  1  0  0  0
 39 64  1  0  0  0
 39 67  2  0  0  0
 40 52  1  0  0  0
 40 53  2  0  0  0
 40 58  1  0  0  0
 41104  1  0  0  0
 41105  1  0  0  0
 41106  1  0  0  0
 41 48  1  0  0  0
 42 43  1  0  0  0
 42 66  1  0  0  0
 42107  1  0  0  0
 42108  1  0  0  0
 43 44  1  0  0  0
 44109  1  0  0  0
 45 46  2  0  0  0
 45110  1  0  0  0
 46111  1  0  0  0
 47112  1  0  0  0
 47113  1  0  0  0
 48 56  1  0  0  0
 48 65  1  0  0  0
 48114  1  0  0  0
 49 50  1  0  0  0
 49 53  1  0  0  0
 49 64  1  0  0  0
 49115  1  0  0  0
 50 51  1  0  0  0
 50116  1  0  0  0
 50117  1  0  0  0
 51 52  1  0  0  0
 51118  1  0  0  0
 51119  1  0  0  0
 52120  1  0  0  0
 52121  1  0  0  0
 53 54  1  0  0  0
 54 55  2  0  0  0
 54122  1  0  0  0
 55 57  1  0  0  0
 55123  1  0  0  0
 56 69  2  0  0  0
 57 58  2  0  0  0
 57124  1  0  0  0
 58125  1  0  0  0
 59 60  1  0  0  0
 59 61  1  0  0  0
 59 62  1  0  0  0
 60126  1  0  0  0
 60127  1  0  0  0
 60128  1  0  0  0
 61129  1  0  0  0
 61130  1  0  0  0
 61131  1  0  0  0
 62132  1  0  0  0
 62133  1  0  0  0
 62134  1  0  0  0
 63 65  1  0  0  0
 63135  1  0  0  0
 63136  1  0  0  0
 63137  1  0  0  0
 64138  1  0  0  0
 65139  1  0  0  0
 68 77  1  0  0  0
 71140  1  0  0  0
 71141  1  0  0  0
 71142  1  0  0  0
 71 77  1  0  0  0
 72143  1  0  0  0
 72144  1  0  0  0
 72145  1  0  0  0
 72 78  1  0  0  0
 73 78  1  0  0  0
 73146  1  0  0  0
 73147  1  0  0  0
 73148  1  0  0  0
 74 75  1  0  0  0
 74 79  1  0  0  0
 74149  1  0  0  0
 74150  1  0  0  0
 75 80  1  0  0  0
 75151  1  0  0  0
 75152  1  0  0  0
 76 78  1  0  0  0
 76 80  1  0  0  0
 76153  1  0  0  0
 76154  1  0  0  0
 77 78  1  0  0  0
 77155  1  0  0  0
 79156  1  0  0  0
 80157  1  0  0  0
 80158  1  0  0  0
M  CHG  1  80   1
M  ISO  4   1 100  68 101  77 101  79 100
M  END
> <chiral flag>
0

> <version>
0

> <s_m_source_file>
/data/baiqing/PycharmProjects/Reinvent-master-3.2/result/LINK_invent/BTK/process_docking_weight1_custom_sum_contain_oxygen_bond_distance_aromatic_linkinvent_7_9_3/rearranged_h_0108.sdf

> <i_m_source_file_index>
60

> <r_mmod_Potential_Energy-OPLS-2005>
413.387664794922

> <r_mmod_Stretch_Energy-OPLS-2005>
292.647064208984

> <r_mmod_Bend_Energy-OPLS-2005>
324.716979980469

> <r_mmod_Torsional_Energy-OPLS-2005>
284.398040771484

> <r_mmod_Improper_Torsional_Energy-OPLS-2005>
5.83833694458008

> <r_mmod_Van_der_Waal_Energy-OPLS-2005>
109.11888885498

> <r_mmod_Electrostatic_Energy-OPLS-2005>
-312.785522460938

> <r_mmod_Solvation_Energy-OPLS-2005>
-490.943450927734

> <b_mmod_Minimization_Converged-OPLS-2005>
0

> <r_mmod_RMS_Derivative-OPLS-2005>
3.3608181476593

$$$$
60
                    3D
 Structure written by MMmdl.
169177  0  0  1  0            999 V2000
  -30.5027  -15.0074   20.3937 C   0  0  0  0  0  0
  -30.4378  -12.6152   19.5219 C   0  0  0  0  0  0
  -29.5284  -12.5387   18.2719 C   0  0  0  0  0  0
  -28.0609  -12.3173   18.6830 C   0  0  0  0  0  0
  -27.6269  -13.2577   19.8373 C   0  0  2  0  0  0
  -28.6612  -13.3097   20.9790 C   0  0  0  0  0  0
  -25.2455  -13.8236   20.5727 C   0  0  0  0  0  0
  -24.1771  -13.0449   20.9222 C   0  0  0  0  0  0
  -24.6405  -11.6948   20.8764 C   0  0  0  0  0  0
  -23.9101  -10.4307   21.0428 C   0  0  0  0  0  0
  -24.3643   -9.4209   21.9210 C   0  0  0  0  0  0
  -23.6305   -8.2246   22.0767 C   0  0  0  0  0  0
  -22.4285   -8.0297   21.3552 C   0  0  0  0  0  0
  -21.9937   -9.0278   20.4652 C   0  0  0  0  0  0
  -22.7275  -10.2151   20.3072 C   0  0  0  0  0  0
  -21.6856   -6.0759   22.5282 C   0  0  0  0  0  0
  -21.4006   -6.5658   23.8218 C   0  0  0  0  0  0
  -21.3652   -5.6803   24.9176 C   0  0  0  0  0  0
  -21.6045   -4.3069   24.7222 C   0  0  0  0  0  0
  -21.8813   -3.8165   23.4341 C   0  0  0  0  0  0
  -21.9184   -4.6985   22.3399 C   0  0  0  0  0  0
  -22.7787  -13.5219   21.1889 C   0  0  0  0  0  0
  -22.1660   -4.2172   21.0973 F   0  0  0  0  0  0
  -21.5631   -3.4547   25.7731 F   0  0  0  0  0  0
  -29.9394  -13.7259   20.3928 N   0  0  0  0  0  0
  -26.2877  -12.9488   20.3248 N   0  0  0  0  0  0
  -25.9340  -11.6610   20.5747 N   0  0  0  0  0  0
  -22.0439  -12.8195   22.0434 N   0  0  0  0  0  0
  -25.4139  -15.1971   20.4201 N   0  0  0  0  0  0
  -31.6990  -15.0407   20.0779 O   0  0  0  0  0  0
  -21.6642   -6.8901   21.4246 O   0  0  0  0  0  0
  -22.3474  -14.5529   20.6744 O   0  0  0  0  0  0
  -24.6480  -31.8373   23.1837 C   0  0  0  0  0  0
  -25.9225  -32.4676   23.8263 C   0  0  1  0  0  0
  -27.2150  -27.0867   20.1680 C   0  0  0  0  0  0
  -25.5955  -33.8485   24.2172 N   0  0  0  0  0  0
  -23.4570  -30.4526   21.5291 C   0  0  2  0  0  0
  -24.9073  -28.8697   20.1143 C   0  0  0  0  0  0
  -22.7607  -29.4480   22.4829 C   0  0  0  0  0  0
  -18.0299  -28.1389   22.8459 C   0  0  0  0  0  0
  -24.1486  -36.7228   23.2655 C   0  0  0  0  0  0
  -26.0159  -30.6980   21.3871 C   0  0  0  0  0  0
  -26.0871  -29.3032   20.7334 C   0  0  0  0  0  0
  -27.2447  -28.4313   20.7329 C   0  0  0  0  0  0
  -26.0102  -26.7637   19.5107 C   0  0  0  0  0  0
  -24.8853  -27.6160   19.4833 C   0  0  0  0  0  0
  -23.6879  -29.7783   20.1507 C   0  0  0  0  0  0
  -25.4116  -36.3010   24.0324 C   0  0  1  0  0  0
  -20.5922  -28.3701   23.1224 C   0  0  2  0  0  0
  -20.6776  -26.9396   22.5387 C   0  0  0  0  0  0
  -19.5752  -26.6355   21.5201 C   0  0  0  0  0  0
  -18.1934  -26.7932   22.1605 C   0  0  0  0  0  0
  -19.1565  -28.8862   23.2835 C   0  0  0  0  0  0
  -18.9487  -30.1465   23.8857 C   0  0  0  0  0  0
  -17.6482  -30.6583   24.0553 C   0  0  0  0  0  0
  -25.9061  -34.9391   23.5051 C   0  0  0  0  0  0
  -16.5370  -29.9071   23.6343 C   0  0  0  0  0  0
  -16.7285  -28.6497   23.0348 C   0  0  0  0  0  0
  -26.4531  -31.6569   25.0717 C   0  0  0  0  0  0
  -25.3708  -31.3755   26.1404 C   0  0  0  0  0  0
  -27.0417  -30.2976   24.6306 C   0  0  0  0  0  0
  -27.6051  -32.4342   25.7504 C   0  0  0  0  0  0
  -27.5561  -37.1763   24.8471 C   0  0  0  0  0  0
  -21.4280  -29.3034   22.3612 N   0  0  0  0  0  0
  -26.4267  -37.3726   23.9427 N   0  0  0  0  0  0
  -24.7278  -31.0189   22.0883 N   0  0  0  0  0  0
  -23.4234  -28.8020   23.2988 O   0  0  0  0  0  0
  -28.2598  -26.0809   20.1790 O   0  0  0  0  0  0
  -26.5649  -34.8902   22.4630 O   0  0  0  0  0  0
  -23.5587  -32.1244   23.7016 O   0  0  0  0  0  0
  -30.6517  -17.6801   21.2472 C   0  0  0  0  0  0
  -29.0858  -17.3461   19.4868 C   0  0  0  0  0  0
  -30.0278  -19.1542   21.5339 C   0  0  0  0  0  0
  -28.4433  -18.8332   19.7665 C   0  0  0  0  0  0
  -29.7448  -16.4947   20.6800 C   0  0  1  0  0  0
  -29.3396  -20.0233   20.3763 C   0  0  1  0  0  0
  -24.9045  -21.2603   23.5021 C   0  0  0  0  0  0
  -26.9792  -19.9534   24.2134 C   0  0  0  0  0  0
  -28.6833  -23.0885   20.0364 C   0  0  0  0  0  0
  -27.2408  -22.0947   22.8228 C   0  0  0  0  0  0
  -28.0207  -24.5759   20.5936 C   0  0  0  0  0  0
  -28.7130  -21.5676   20.8470 C   0  0  1  0  0  0
  -26.3948  -21.3349   23.8672 C   0  0  0  0  0  0
  -27.4362  -21.3259   21.5675 N   0  3  0  0  0  0
  -31.4735  -12.7637   19.2126 H   0  0  0  0  0  0
  -30.4293  -11.6685   20.0644 H   0  0  0  0  0  0
  -29.8567  -11.7352   17.6110 H   0  0  0  0  0  0
  -29.6145  -13.4618   17.6979 H   0  0  0  0  0  0
  -27.9633  -11.2789   19.0019 H   0  0  0  0  0  0
  -27.3994  -12.4371   17.8243 H   0  0  0  0  0  0
  -27.5846  -14.2555   19.4002 H   0  0  0  0  0  0
  -28.7510  -12.3436   21.4775 H   0  0  0  0  0  0
  -28.3477  -14.0221   21.7434 H   0  0  0  0  0  0
  -25.2787   -9.5684   22.4802 H   0  0  0  0  0  0
  -24.0010   -7.4637   22.7494 H   0  0  0  0  0  0
  -21.0873   -8.8808   19.8961 H   0  0  0  0  0  0
  -22.3748  -10.9701   19.6191 H   0  0  0  0  0  0
  -21.1993   -7.6163   23.9722 H   0  0  0  0  0  0
  -21.1483   -6.0538   25.9079 H   0  0  0  0  0  0
  -22.0593   -2.7626   23.2827 H   0  0  0  0  0  0
  -22.4040  -11.9828   22.4788 H   0  0  0  0  0  0
  -21.1072  -13.1242   22.2675 H   0  0  0  0  0  0
  -24.6490  -15.8531   20.5393 H   0  0  0  0  0  0
  -26.2739  -15.6412   20.1253 H   0  0  0  0  0  0
  -26.7292  -32.5249   23.0993 H   0  0  0  0  0  0
  -25.0124  -33.9614   25.0341 H   0  0  0  0  0  0
  -22.7638  -31.2800   21.3672 H   0  0  0  0  0  0
  -23.3766  -35.9541   23.3280 H   0  0  0  0  0  0
  -24.3571  -36.8879   22.2073 H   0  0  0  0  0  0
  -23.7213  -37.6406   23.6700 H   0  0  0  0  0  0
  -26.1748  -31.4477   20.6113 H   0  0  0  0  0  0
  -26.8886  -30.7514   22.0261 H   0  0  0  0  0  0
  -28.1518  -28.7611   21.2206 H   0  0  0  0  0  0
  -25.9250  -25.8026   19.0235 H   0  0  0  0  0  0
  -23.9868  -27.2821   18.9846 H   0  0  0  0  0  0
  -23.8356  -30.5504   19.3951 H   0  0  0  0  0  0
  -22.8041  -29.2224   19.8333 H   0  0  0  0  0  0
  -25.1301  -36.1826   25.0813 H   0  0  0  0  0  0
  -21.0003  -28.3257   24.1354 H   0  0  0  0  0  0
  -20.5654  -26.2300   23.3600 H   0  0  0  0  0  0
  -21.6639  -26.7367   22.1197 H   0  0  0  0  0  0
  -19.6921  -25.6263   21.1233 H   0  0  0  0  0  0
  -19.6721  -27.3166   20.6743 H   0  0  0  0  0  0
  -17.4201  -26.6669   21.4008 H   0  0  0  0  0  0
  -18.0333  -26.0093   22.9019 H   0  0  0  0  0  0
  -19.7969  -30.7275   24.2213 H   0  0  0  0  0  0
  -17.5044  -31.6271   24.5136 H   0  0  0  0  0  0
  -15.5374  -30.2961   23.7715 H   0  0  0  0  0  0
  -15.8676  -28.0811   22.7087 H   0  0  0  0  0  0
  -24.5932  -30.7053   25.7730 H   0  0  0  0  0  0
  -24.8860  -32.2933   26.4737 H   0  0  0  0  0  0
  -25.7998  -30.9002   27.0241 H   0  0  0  0  0  0
  -26.3054  -29.6689   24.1290 H   0  0  0  0  0  0
  -27.4044  -29.7261   25.4864 H   0  0  0  0  0  0
  -27.8944  -30.4256   23.9632 H   0  0  0  0  0  0
  -27.2665  -33.3704   26.1958 H   0  0  0  0  0  0
  -28.3935  -32.6795   25.0372 H   0  0  0  0  0  0
  -28.0647  -31.8542   26.5519 H   0  0  0  0  0  0
  -28.2538  -38.0092   24.7524 H   0  0  0  0  0  0
  -28.1081  -36.2611   24.6273 H   0  0  0  0  0  0
  -27.2277  -37.1378   25.8872 H   0  0  0  0  0  0
  -20.9495  -29.8797   21.6821 H   0  0  0  0  0  0
  -26.0113  -38.2778   24.1469 H   0  0  0  0  0  0
  -31.1037  -17.3264   22.1738 H   0  0  0  0  0  0
  -31.4948  -17.8102   20.5661 H   0  0  0  0  0  0
  -29.8332  -17.4505   18.6985 H   0  0  0  0  0  0
  -28.3071  -16.7276   19.0383 H   0  0  0  0  0  0
  -30.8263  -19.7612   21.9616 H   0  0  0  0  0  0
  -29.3092  -19.0413   22.3457 H   0  0  0  0  0  0
  -27.5851  -18.6819   20.4232 H   0  0  0  0  0  0
  -28.0113  -19.1921   18.8311 H   0  0  0  0  0  0
  -28.9611  -16.2922   21.4097 H   0  0  0  0  0  0
  -30.1205  -20.2360   19.6460 H   0  0  0  0  0  0
  -24.3283  -20.8260   24.3205 H   0  0  0  0  0  0
  -24.7258  -20.6538   22.6139 H   0  0  0  0  0  0
  -24.4936  -22.2549   23.3192 H   0  0  0  0  0  0
  -26.4439  -19.5008   25.0493 H   0  0  0  0  0  0
  -28.0270  -20.0295   24.5083 H   0  0  0  0  0  0
  -26.9187  -19.2559   23.3772 H   0  0  0  0  0  0
  -29.7268  -23.3051   19.8110 H   0  0  0  0  0  0
  -28.2381  -22.9083   19.0584 H   0  0  0  0  0  0
  -28.2020  -22.3222   23.2853 H   0  0  0  0  0  0
  -26.7791  -23.0552   22.5958 H   0  0  0  0  0  0
  -28.2754  -24.6014   21.6525 H   0  0  0  0  0  0
  -26.9411  -24.4303   20.5921 H   0  0  0  0  0  0
  -29.4403  -21.7985   21.6265 H   0  0  0  0  0  0
  -26.4476  -21.9287   24.7813 H   0  0  0  0  0  0
  -26.6514  -21.4564   20.9493 H   0  0  0  0  0  0
  -27.4406  -20.3576   21.8449 H   0  0  0  0  0  0
  1 25  1  0  0  0
  1 30  2  0  0  0
  1 75  1  0  0  0
  2  3  1  0  0  0
  2 25  1  0  0  0
  2 85  1  0  0  0
  2 86  1  0  0  0
  3  4  1  0  0  0
  3 87  1  0  0  0
  3 88  1  0  0  0
  4  5  1  0  0  0
  4 89  1  0  0  0
  4 90  1  0  0  0
  5  6  1  0  0  0
  5 26  1  0  0  0
  5 91  1  0  0  0
  6 25  1  0  0  0
  6 92  1  0  0  0
  6 93  1  0  0  0
  7  8  2  0  0  0
  7 26  1  0  0  0
  7 29  1  0  0  0
  8  9  1  0  0  0
  8 22  1  0  0  0
  9 10  1  0  0  0
  9 27  2  0  0  0
 10 11  2  0  0  0
 10 15  1  0  0  0
 11 12  1  0  0  0
 11 94  1  0  0  0
 12 13  2  0  0  0
 12 95  1  0  0  0
 13 14  1  0  0  0
 13 31  1  0  0  0
 14 15  2  0  0  0
 14 96  1  0  0  0
 15 97  1  0  0  0
 16 17  2  0  0  0
 16 21  1  0  0  0
 16 31  1  0  0  0
 17 18  1  0  0  0
 17 98  1  0  0  0
 18 19  2  0  0  0
 18 99  1  0  0  0
 19 20  1  0  0  0
 19 24  1  0  0  0
 20 21  2  0  0  0
 20100  1  0  0  0
 21 23  1  0  0  0
 22 28  1  0  0  0
 22 32  2  0  0  0
 26 27  1  0  0  0
 28101  1  0  0  0
 28102  1  0  0  0
 29103  1  0  0  0
 29104  1  0  0  0
 33 34  1  0  0  0
 33 66  1  0  0  0
 33 70  2  0  0  0
 34 36  1  0  0  0
 34 59  1  0  0  0
 34105  1  0  0  0
 35 44  2  0  0  0
 35 45  1  0  0  0
 35 68  1  0  0  0
 36 56  1  0  0  0
 36106  1  0  0  0
 37 39  1  0  0  0
 37 47  1  0  0  0
 37 66  1  0  0  0
 37107  1  0  0  0
 38 43  2  0  0  0
 38 46  1  0  0  0
 38 47  1  0  0  0
 39 64  1  0  0  0
 39 67  2  0  0  0
 40 52  1  0  0  0
 40 53  2  0  0  0
 40 58  1  0  0  0
 41108  1  0  0  0
 41109  1  0  0  0
 41110  1  0  0  0
 41 48  1  0  0  0
 42 43  1  0  0  0
 42 66  1  0  0  0
 42111  1  0  0  0
 42112  1  0  0  0
 43 44  1  0  0  0
 44113  1  0  0  0
 45 46  2  0  0  0
 45114  1  0  0  0
 46115  1  0  0  0
 47116  1  0  0  0
 47117  1  0  0  0
 48 56  1  0  0  0
 48 65  1  0  0  0
 48118  1  0  0  0
 49 50  1  0  0  0
 49 53  1  0  0  0
 49 64  1  0  0  0
 49119  1  0  0  0
 50 51  1  0  0  0
 50120  1  0  0  0
 50121  1  0  0  0
 51 52  1  0  0  0
 51122  1  0  0  0
 51123  1  0  0  0
 52124  1  0  0  0
 52125  1  0  0  0
 53 54  1  0  0  0
 54 55  2  0  0  0
 54126  1  0  0  0
 55 57  1  0  0  0
 55127  1  0  0  0
 56 69  2  0  0  0
 57 58  2  0  0  0
 57128  1  0  0  0
 58129  1  0  0  0
 59 60  1  0  0  0
 59 61  1  0  0  0
 59 62  1  0  0  0
 60130  1  0  0  0
 60131  1  0  0  0
 60132  1  0  0  0
 61133  1  0  0  0
 61134  1  0  0  0
 61135  1  0  0  0
 62136  1  0  0  0
 62137  1  0  0  0
 62138  1  0  0  0
 63 65  1  0  0  0
 63139  1  0  0  0
 63140  1  0  0  0
 63141  1  0  0  0
 64142  1  0  0  0
 65143  1  0  0  0
 68 81  1  0  0  0
 71 73  1  0  0  0
 71 75  1  0  0  0
 71144  1  0  0  0
 71145  1  0  0  0
 72 74  1  0  0  0
 72 75  1  0  0  0
 72146  1  0  0  0
 72147  1  0  0  0
 73148  1  0  0  0
 73149  1  0  0  0
 73 76  1  0  0  0
 74 76  1  0  0  0
 74150  1  0  0  0
 74151  1  0  0  0
 75152  1  0  0  0
 76 82  1  0  0  0
 76153  1  0  0  0
 77154  1  0  0  0
 77155  1  0  0  0
 77156  1  0  0  0
 77 83  1  0  0  0
 78 83  1  0  0  0
 78157  1  0  0  0
 78158  1  0  0  0
 78159  1  0  0  0
 79 81  1  0  0  0
 79160  1  0  0  0
 79161  1  0  0  0
 79 82  1  0  0  0
 80 83  1  0  0  0
 80 84  1  0  0  0
 80162  1  0  0  0
 80163  1  0  0  0
 81164  1  0  0  0
 81165  1  0  0  0
 82 84  1  0  0  0
 82166  1  0  0  0
 83167  1  0  0  0
 84168  1  0  0  0
 84169  1  0  0  0
M  CHG  1  84   1
M  ISO  4   1 100  68 101  75 100  81 101
M  END
> <chiral flag>
0

> <version>
0

> <s_m_source_file>
/data/baiqing/PycharmProjects/Reinvent-master-3.2/result/LINK_invent/BTK/process_docking_weight1_custom_sum_contain_oxygen_bond_distance_aromatic_linkinvent_7_9_3/rearranged_h_0108.sdf

> <i_m_source_file_index>
61

> <r_mmod_Potential_Energy-OPLS-2005>
664.579162597656

> <r_mmod_Stretch_Energy-OPLS-2005>
328.258636474609

> <r_mmod_Bend_Energy-OPLS-2005>
345.661682128906

> <r_mmod_Torsional_Energy-OPLS-2005>
282.562744140625

> <r_mmod_Improper_Torsional_Energy-OPLS-2005>
2.01306986808777

> <r_mmod_Van_der_Waal_Energy-OPLS-2005>
104.938407897949

> <r_mmod_Electrostatic_Energy-OPLS-2005>
-196.81120300293

> <r_mmod_Solvation_Energy-OPLS-2005>
-435.372375488281

> <b_mmod_Minimization_Converged-OPLS-2005>
0

> <r_mmod_RMS_Derivative-OPLS-2005>
2.35498547554016

$$$$
61
                    3D
 Structure written by MMmdl.
163171  0  0  1  0            999 V2000
  -30.6996  -14.4837   20.5256 C   0  0  0  0  0  0
  -30.4221  -12.2854   19.4675 C   0  0  0  0  0  0
  -29.5203  -12.4863   18.2303 C   0  0  0  0  0  0
  -28.0309  -12.3649   18.6129 C   0  0  0  0  0  0
  -27.6657  -13.2055   19.8678 C   0  0  2  0  0  0
  -28.7001  -13.0144   21.0049 C   0  0  0  0  0  0
  -25.2570  -13.8189   20.5607 C   0  0  0  0  0  0
  -24.1821  -13.0462   20.9141 C   0  0  0  0  0  0
  -24.6396  -11.6926   20.8665 C   0  0  0  0  0  0
  -23.9078  -10.4321   21.0359 C   0  0  0  0  0  0
  -24.3646   -9.4258   21.9149 C   0  0  0  0  0  0
  -23.6338   -8.2278   22.0733 C   0  0  0  0  0  0
  -22.4303   -8.0294   21.3539 C   0  0  0  0  0  0
  -21.9935   -9.0267   20.4630 C   0  0  0  0  0  0
  -22.7253  -10.2136   20.3029 C   0  0  0  0  0  0
  -21.6877   -6.0756   22.5302 C   0  0  0  0  0  0
  -21.4012   -6.5664   23.8238 C   0  0  0  0  0  0
  -21.3636   -5.6809   24.9200 C   0  0  0  0  0  0
  -21.6046   -4.3075   24.7252 C   0  0  0  0  0  0
  -21.8811   -3.8179   23.4359 C   0  0  0  0  0  0
  -21.9182   -4.6983   22.3414 C   0  0  0  0  0  0
  -22.7823  -13.5258   21.1840 C   0  0  0  0  0  0
  -22.1656   -4.2155   21.0994 F   0  0  0  0  0  0
  -21.5623   -3.4548   25.7755 F   0  0  0  0  0  0
  -30.0414  -13.2906   20.4702 N   0  0  0  0  0  0
  -26.3010  -12.9354   20.3269 N   0  0  0  0  0  0
  -25.9326  -11.6525   20.5743 N   0  0  0  0  0  0
  -22.0450  -12.8241   22.0368 N   0  0  0  0  0  0
  -25.4298  -15.1897   20.4030 N   0  0  0  0  0  0
  -31.8258  -14.6576   20.0589 O   0  0  0  0  0  0
  -21.6659   -6.8890   21.4262 O   0  0  0  0  0  0
  -22.3505  -14.5572   20.6738 O   0  0  0  0  0  0
  -24.6089  -31.8702   23.2105 C   0  0  0  0  0  0
  -25.8989  -32.4840   23.8413 C   0  0  1  0  0  0
  -27.2722  -27.4766   20.0991 C   0  0  0  0  0  0
  -25.5865  -33.8637   24.2348 N   0  0  0  0  0  0
  -23.3953  -30.4921   21.5504 C   0  0  2  0  0  0
  -24.8506  -28.9619   20.1161 C   0  0  0  0  0  0
  -22.7366  -29.4679   22.5015 C   0  0  0  0  0  0
  -18.0259  -28.1375   22.8497 C   0  0  0  0  0  0
  -24.1485  -36.7325   23.2641 C   0  0  0  0  0  0
  -25.9156  -30.8543   21.3505 C   0  0  0  0  0  0
  -26.0036  -29.4879   20.7084 C   0  0  0  0  0  0
  -27.2099  -28.7577   20.7033 C   0  0  0  0  0  0
  -26.0939  -26.9567   19.5179 C   0  0  0  0  0  0
  -24.8889  -27.6901   19.5186 C   0  0  0  0  0  0
  -23.6027  -29.8172   20.1671 C   0  0  0  0  0  0
  -25.4103  -36.3130   24.0347 C   0  0  1  0  0  0
  -20.5843  -28.3661   23.1331 C   0  0  2  0  0  0
  -20.6745  -26.9400   22.5433 C   0  0  0  0  0  0
  -19.5733  -26.6399   21.5207 C   0  0  0  0  0  0
  -18.1904  -26.7925   22.1606 C   0  0  0  0  0  0
  -19.1504  -28.8821   23.2907 C   0  0  0  0  0  0
  -18.9438  -30.1433   23.8928 C   0  0  0  0  0  0
  -17.6449  -30.6583   24.0570 C   0  0  0  0  0  0
  -25.9018  -34.9489   23.5142 C   0  0  0  0  0  0
  -16.5340  -29.9101   23.6319 C   0  0  0  0  0  0
  -16.7258  -28.6503   23.0352 C   0  0  0  0  0  0
  -26.4449  -31.6602   25.0709 C   0  0  0  0  0  0
  -25.3740  -31.3680   26.1481 C   0  0  0  0  0  0
  -27.0268  -30.3069   24.6006 C   0  0  0  0  0  0
  -27.6056  -32.4303   25.7443 C   0  0  0  0  0  0
  -27.5584  -37.1812   24.8466 C   0  0  0  0  0  0
  -21.4099  -29.3029   22.3740 N   0  0  0  0  0  0
  -26.4297  -37.3807   23.9411 N   0  0  0  0  0  0
  -24.6592  -31.0849   22.0984 N   0  0  0  0  0  0
  -23.4159  -28.8232   23.3037 O   0  0  0  0  0  0
  -28.3956  -26.6688   20.0549 O   0  0  0  0  0  0
  -26.5585  -34.8937   22.4701 O   0  0  0  0  0  0
  -23.5297  -32.1429   23.7554 O   0  0  0  0  0  0
  -28.5686  -18.1226   17.6293 C   0  0  0  0  0  0
  -27.9225  -18.8419   16.6173 C   0  0  0  0  0  0
  -28.5763  -20.8374   17.5380 C   0  0  0  0  0  0
  -29.2693  -18.7902   18.6657 C   0  0  0  0  0  0
  -29.2663  -20.2205   18.6135 C   0  0  0  0  0  0
  -30.4315  -23.5977   20.4117 C   0  0  0  0  0  0
  -29.9837  -17.9563   19.7659 C   0  0  0  0  0  0
  -29.9669  -21.1138   19.6585 C   0  0  0  0  0  0
  -29.8748  -22.6422   19.3550 C   0  0  0  0  0  0
  -30.9315  -24.9565   19.9009 C   0  0  0  0  0  0
  -30.6743  -26.1632   20.8374 C   0  0  0  0  0  0
  -29.4962  -16.4700   19.7894 C   0  0  0  0  0  0
  -29.7020  -27.2181   20.2626 C   0  0  0  0  0  0
  -27.9264  -20.1813   16.5638 N   0  0  0  0  0  0
  -29.9317  -15.5395   20.8511 N   0  0  0  0  0  0
  -30.4723  -23.2932   21.6069 O   0  0  0  0  0  0
  -31.4757  -12.3484   19.1969 H   0  0  0  0  0  0
  -30.2805  -11.2864   19.8828 H   0  0  0  0  0  0
  -29.7724  -11.7585   17.4563 H   0  0  0  0  0  0
  -29.7094  -13.4673   17.7937 H   0  0  0  0  0  0
  -27.8139  -11.3107   18.7942 H   0  0  0  0  0  0
  -27.4067  -12.6537   17.7693 H   0  0  0  0  0  0
  -27.7049  -14.2466   19.5549 H   0  0  0  0  0  0
  -28.6595  -11.9911   21.3785 H   0  0  0  0  0  0
  -28.4617  -13.6448   21.8601 H   0  0  0  0  0  0
  -25.2786   -9.5795   22.4725 H   0  0  0  0  0  0
  -24.0051   -7.4713   22.7480 H   0  0  0  0  0  0
  -21.0832   -8.8801   19.8977 H   0  0  0  0  0  0
  -22.3683  -10.9682   19.6143 H   0  0  0  0  0  0
  -21.2007   -7.6174   23.9764 H   0  0  0  0  0  0
  -21.1456   -6.0523   25.9105 H   0  0  0  0  0  0
  -22.0592   -2.7646   23.2877 H   0  0  0  0  0  0
  -22.4084  -11.9910   22.4775 H   0  0  0  0  0  0
  -21.1077  -13.1292   22.2622 H   0  0  0  0  0  0
  -24.6619  -15.8429   20.5173 H   0  0  0  0  0  0
  -26.2848  -15.6380   20.0951 H   0  0  0  0  0  0
  -26.7056  -32.5601   23.1191 H   0  0  0  0  0  0
  -25.0023  -33.9806   25.0501 H   0  0  0  0  0  0
  -22.6819  -31.3068   21.4108 H   0  0  0  0  0  0
  -23.3742  -35.9661   23.3317 H   0  0  0  0  0  0
  -24.3579  -36.8913   22.2051 H   0  0  0  0  0  0
  -23.7234  -37.6540   23.6628 H   0  0  0  0  0  0
  -26.0022  -31.6158   20.5750 H   0  0  0  0  0  0
  -26.8099  -30.9293   21.9547 H   0  0  0  0  0  0
  -28.0645  -29.2044   21.1829 H   0  0  0  0  0  0
  -26.1122  -25.9771   19.0585 H   0  0  0  0  0  0
  -24.0019  -27.2709   19.0628 H   0  0  0  0  0  0
  -23.6945  -30.5870   19.4001 H   0  0  0  0  0  0
  -22.7310  -29.2242   19.8825 H   0  0  0  0  0  0
  -25.1271  -36.2009   25.0843 H   0  0  0  0  0  0
  -20.9935  -28.3229   24.1448 H   0  0  0  0  0  0
  -20.5629  -26.2266   23.3616 H   0  0  0  0  0  0
  -21.6625  -26.7448   22.1233 H   0  0  0  0  0  0
  -19.6902  -25.6314   21.1221 H   0  0  0  0  0  0
  -19.6684  -27.3225   20.6742 H   0  0  0  0  0  0
  -17.4187  -26.6690   21.4001 H   0  0  0  0  0  0
  -18.0306  -26.0065   22.8999 H   0  0  0  0  0  0
  -19.7921  -30.7227   24.2332 H   0  0  0  0  0  0
  -17.5014  -31.6277   24.5166 H   0  0  0  0  0  0
  -15.5341  -30.3013   23.7638 H   0  0  0  0  0  0
  -15.8648  -28.0845   22.7060 H   0  0  0  0  0  0
  -24.5923  -30.7006   25.7824 H   0  0  0  0  0  0
  -24.8921  -32.2827   26.4943 H   0  0  0  0  0  0
  -25.8140  -30.8857   27.0218 H   0  0  0  0  0  0
  -26.2774  -29.6828   24.1123 H   0  0  0  0  0  0
  -27.4145  -29.7294   25.4405 H   0  0  0  0  0  0
  -27.8553  -30.4423   23.9049 H   0  0  0  0  0  0
  -27.2705  -33.3596   26.2050 H   0  0  0  0  0  0
  -28.3831  -32.6860   25.0231 H   0  0  0  0  0  0
  -28.0750  -31.8397   26.5318 H   0  0  0  0  0  0
  -28.2623  -38.0093   24.7500 H   0  0  0  0  0  0
  -28.1054  -36.2620   24.6294 H   0  0  0  0  0  0
  -27.2302  -37.1476   25.8872 H   0  0  0  0  0  0
  -20.9249  -29.8737   21.6957 H   0  0  0  0  0  0
  -26.0194  -38.2892   24.1403 H   0  0  0  0  0  0
  -28.4872  -17.0516   17.5571 H   0  0  0  0  0  0
  -27.3955  -18.3296   15.8254 H   0  0  0  0  0  0
  -28.5326  -21.9092   17.4142 H   0  0  0  0  0  0
  -29.8317  -18.4135   20.7454 H   0  0  0  0  0  0
  -31.0583  -17.9823   19.5707 H   0  0  0  0  0  0
  -31.0165  -20.8195   19.7297 H   0  0  0  0  0  0
  -29.5208  -20.9207   20.6342 H   0  0  0  0  0  0
  -30.3706  -22.8678   18.4091 H   0  0  0  0  0  0
  -28.8295  -22.9283   19.2374 H   0  0  0  0  0  0
  -30.4844  -25.1453   18.9247 H   0  0  0  0  0  0
  -32.0038  -24.8621   19.7181 H   0  0  0  0  0  0
  -31.6363  -26.6514   21.0182 H   0  0  0  0  0  0
  -30.3281  -25.8480   21.8246 H   0  0  0  0  0  0
  -29.7528  -16.0200   18.8299 H   0  0  0  0  0  0
  -28.4059  -16.4795   19.8531 H   0  0  0  0  0  0
  -30.0759  -27.5909   19.3066 H   0  0  0  0  0  0
  -29.7199  -28.0544   20.9542 H   0  0  0  0  0  0
  -29.1907  -15.2990   21.4927 H   0  0  0  0  0  0
  1 25  1  0  0  0
  1 30  2  0  0  0
  1 85  1  0  0  0
  2  3  1  0  0  0
  2 25  1  0  0  0
  2 87  1  0  0  0
  2 88  1  0  0  0
  3  4  1  0  0  0
  3 89  1  0  0  0
  3 90  1  0  0  0
  4  5  1  0  0  0
  4 91  1  0  0  0
  4 92  1  0  0  0
  5  6  1  0  0  0
  5 26  1  0  0  0
  5 93  1  0  0  0
  6 25  1  0  0  0
  6 94  1  0  0  0
  6 95  1  0  0  0
  7  8  2  0  0  0
  7 26  1  0  0  0
  7 29  1  0  0  0
  8  9  1  0  0  0
  8 22  1  0  0  0
  9 10  1  0  0  0
  9 27  2  0  0  0
 10 11  2  0  0  0
 10 15  1  0  0  0
 11 12  1  0  0  0
 11 96  1  0  0  0
 12 13  2  0  0  0
 12 97  1  0  0  0
 13 14  1  0  0  0
 13 31  1  0  0  0
 14 15  2  0  0  0
 14 98  1  0  0  0
 15 99  1  0  0  0
 16 17  2  0  0  0
 16 21  1  0  0  0
 16 31  1  0  0  0
 17 18  1  0  0  0
 17100  1  0  0  0
 18 19  2  0  0  0
 18101  1  0  0  0
 19 20  1  0  0  0
 19 24  1  0  0  0
 20 21  2  0  0  0
 20102  1  0  0  0
 21 23  1  0  0  0
 22 28  1  0  0  0
 22 32  2  0  0  0
 26 27  1  0  0  0
 28103  1  0  0  0
 28104  1  0  0  0
 29105  1  0  0  0
 29106  1  0  0  0
 33 34  1  0  0  0
 33 66  1  0  0  0
 33 70  2  0  0  0
 34 36  1  0  0  0
 34 59  1  0  0  0
 34107  1  0  0  0
 35 44  2  0  0  0
 35 45  1  0  0  0
 35 68  1  0  0  0
 36 56  1  0  0  0
 36108  1  0  0  0
 37 39  1  0  0  0
 37 47  1  0  0  0
 37 66  1  0  0  0
 37109  1  0  0  0
 38 43  2  0  0  0
 38 46  1  0  0  0
 38 47  1  0  0  0
 39 64  1  0  0  0
 39 67  2  0  0  0
 40 52  1  0  0  0
 40 53  2  0  0  0
 40 58  1  0  0  0
 41110  1  0  0  0
 41111  1  0  0  0
 41112  1  0  0  0
 41 48  1  0  0  0
 42 43  1  0  0  0
 42 66  1  0  0  0
 42113  1  0  0  0
 42114  1  0  0  0
 43 44  1  0  0  0
 44115  1  0  0  0
 45 46  2  0  0  0
 45116  1  0  0  0
 46117  1  0  0  0
 47118  1  0  0  0
 47119  1  0  0  0
 48 56  1  0  0  0
 48 65  1  0  0  0
 48120  1  0  0  0
 49 50  1  0  0  0
 49 53  1  0  0  0
 49 64  1  0  0  0
 49121  1  0  0  0
 50 51  1  0  0  0
 50122  1  0  0  0
 50123  1  0  0  0
 51 52  1  0  0  0
 51124  1  0  0  0
 51125  1  0  0  0
 52126  1  0  0  0
 52127  1  0  0  0
 53 54  1  0  0  0
 54 55  2  0  0  0
 54128  1  0  0  0
 55 57  1  0  0  0
 55129  1  0  0  0
 56 69  2  0  0  0
 57 58  2  0  0  0
 57130  1  0  0  0
 58131  1  0  0  0
 59 60  1  0  0  0
 59 61  1  0  0  0
 59 62  1  0  0  0
 60132  1  0  0  0
 60133  1  0  0  0
 60134  1  0  0  0
 61135  1  0  0  0
 61136  1  0  0  0
 61137  1  0  0  0
 62138  1  0  0  0
 62139  1  0  0  0
 62140  1  0  0  0
 63 65  1  0  0  0
 63141  1  0  0  0
 63142  1  0  0  0
 63143  1  0  0  0
 64144  1  0  0  0
 65145  1  0  0  0
 68 83  1  0  0  0
 71 72  2  0  0  0
 71 74  1  0  0  0
 71146  1  0  0  0
 72 84  1  0  0  0
 72147  1  0  0  0
 73 75  1  0  0  0
 73 84  2  0  0  0
 73148  1  0  0  0
 74 75  2  0  0  0
 74 77  1  0  0  0
 75 78  1  0  0  0
 76 79  1  0  0  0
 76 80  1  0  0  0
 76 86  2  0  0  0
 77 82  1  0  0  0
 77149  1  0  0  0
 77150  1  0  0  0
 78 79  1  0  0  0
 78151  1  0  0  0
 78152  1  0  0  0
 79153  1  0  0  0
 79154  1  0  0  0
 80 81  1  0  0  0
 80155  1  0  0  0
 80156  1  0  0  0
 81 83  1  0  0  0
 81157  1  0  0  0
 81158  1  0  0  0
 82 85  1  0  0  0
 82159  1  0  0  0
 82160  1  0  0  0
 83161  1  0  0  0
 83162  1  0  0  0
 85163  1  0  0  0
M  ISO  4   1 100  68 101  83 101  85 100
M  END
> <chiral flag>
0

> <version>
0

> <s_m_source_file>
/data/baiqing/PycharmProjects/Reinvent-master-3.2/result/LINK_invent/BTK/process_docking_weight1_custom_sum_contain_oxygen_bond_distance_aromatic_linkinvent_7_9_3/rearranged_h_0108.sdf

> <i_m_source_file_index>
62

> <r_mmod_Potential_Energy-OPLS-2005>
-148.843200683594

> <r_mmod_Stretch_Energy-OPLS-2005>
43.7713584899902

> <r_mmod_Bend_Energy-OPLS-2005>
124.682075500488

> <r_mmod_Torsional_Energy-OPLS-2005>
248.774154663086

> <r_mmod_Improper_Torsional_Energy-OPLS-2005>
11.3963460922241

> <r_mmod_Van_der_Waal_Energy-OPLS-2005>
167.886032104492

> <r_mmod_Electrostatic_Energy-OPLS-2005>
-509.819702148438

> <r_mmod_Solvation_Energy-OPLS-2005>
-248.144943237305

> <b_mmod_Minimization_Converged-OPLS-2005>
0

> <r_mmod_RMS_Derivative-OPLS-2005>
5.43802642822266

$$$$
62
                    3D
 Structure written by MMmdl.
140147  0  0  1  0            999 V2000
  -29.9389  -16.5760   20.2662 C   0  0  0  0  0  0
  -30.3176  -13.8043   19.5262 C   0  0  0  0  0  0
  -29.5742  -12.9496   18.4171 C   0  0  0  0  0  0
  -28.2410  -12.3836   18.9092 C   0  0  0  0  0  0
  -27.5756  -13.4264   19.8179 C   0  0  2  0  0  0
  -28.5156  -14.1344   20.8629 C   0  0  0  0  0  0
  -25.2173  -13.8472   20.5943 C   0  0  0  0  0  0
  -24.1678  -13.0461   20.9345 C   0  0  0  0  0  0
  -24.6544  -11.7026   20.8745 C   0  0  0  0  0  0
  -23.9256  -10.4317   21.0339 C   0  0  0  0  0  0
  -24.3737   -9.4225   21.9148 C   0  0  0  0  0  0
  -23.6361   -8.2282   22.0747 C   0  0  0  0  0  0
  -22.4338   -8.0319   21.3542 C   0  0  0  0  0  0
  -22.0013   -9.0301   20.4633 C   0  0  0  0  0  0
  -22.7394  -10.2155   20.3016 C   0  0  0  0  0  0
  -21.6876   -6.0762   22.5275 C   0  0  0  0  0  0
  -21.4033   -6.5654   23.8212 C   0  0  0  0  0  0
  -21.3666   -5.6801   24.9169 C   0  0  0  0  0  0
  -21.6044   -4.3063   24.7216 C   0  0  0  0  0  0
  -21.8816   -3.8161   23.4334 C   0  0  0  0  0  0
  -21.9200   -4.6985   22.3394 C   0  0  0  0  0  0
  -22.7653  -13.5088   21.1941 C   0  0  0  0  0  0
  -22.1662   -4.2166   21.0972 F   0  0  0  0  0  0
  -21.5626   -3.4543   25.7727 F   0  0  0  0  0  0
  -29.5184  -15.0479   20.1521 N   0  0  0  0  0  0
  -26.2809  -13.0062   20.3467 N   0  0  0  0  0  0
  -25.9553  -11.6988   20.5673 N   0  0  0  0  0  0
  -22.0350  -12.8037   22.0491 N   0  0  0  0  0  0
  -25.3537  -15.2234   20.4362 N   0  0  0  0  0  0
  -31.1888  -16.3514   20.2253 O   0  0  0  0  0  0
  -21.6675   -6.8925   21.4245 O   0  0  0  0  0  0
  -22.3286  -14.5370   20.6771 O   0  0  0  0  0  0
  -24.7457  -31.7205   23.0969 C   0  0  0  0  0  0
  -25.9716  -32.4085   23.7760 C   0  0  1  0  0  0
  -27.2638  -26.0517   20.2693 C   0  0  0  0  0  0
  -25.6018  -33.7947   24.1574 N   0  0  0  0  0  0
  -23.6009  -30.2905   21.4671 C   0  0  2  0  0  0
  -25.0637  -28.4896   20.1401 C   0  0  0  0  0  0
  -22.8040  -29.3890   22.4546 C   0  0  0  0  0  0
  -18.0378  -28.1458   22.8418 C   0  0  0  0  0  0
  -24.1497  -36.6992   23.2669 C   0  0  0  0  0  0
  -26.2013  -30.2374   21.4588 C   0  0  0  0  0  0
  -26.2612  -28.7278   20.8222 C   0  0  0  0  0  0
  -27.3109  -27.5622   20.8345 C   0  0  0  0  0  0
  -26.0278  -26.1887   19.5221 C   0  0  0  0  0  0
  -25.0247  -27.2496   19.4637 C   0  0  0  0  0  0
  -23.8893  -29.5225   20.1331 C   0  0  0  0  0  0
  -25.4171  -36.2675   24.0235 C   0  0  1  0  0  0
  -20.6040  -28.3838   23.1030 C   0  0  2  0  0  0
  -20.6807  -26.9438   22.5422 C   0  0  0  0  0  0
  -19.5800  -26.6350   21.5224 C   0  0  0  0  0  0
  -18.1980  -26.7973   22.1602 C   0  0  0  0  0  0
  -19.1659  -28.8987   23.2685 C   0  0  0  0  0  0
  -18.9556  -30.1553   23.8760 C   0  0  0  0  0  0
  -17.6539  -30.6620   24.0540 C   0  0  0  0  0  0
  -25.9188  -34.9081   23.4795 C   0  0  0  0  0  0
  -16.5425  -29.9094   23.6366 C   0  0  0  0  0  0
  -16.7355  -28.6524   23.0371 C   0  0  0  0  0  0
  -26.4696  -31.6404   25.0646 C   0  0  0  0  0  0
  -25.3601  -31.3894   26.1144 C   0  0  0  0  0  0
  -27.0736  -30.2687   24.6993 C   0  0  0  0  0  0
  -27.6016  -32.4423   25.7499 C   0  0  0  0  0  0
  -27.5542  -37.1647   24.8468 C   0  0  0  0  0  0
  -21.4633  -29.2949   22.3280 N   0  0  0  0  0  0
  -26.4243  -37.3508   23.9408 N   0  0  0  0  0  0
  -24.8815  -30.7987   22.0595 N   0  0  0  0  0  0
  -23.4175  -28.7610   23.3196 O   0  0  0  0  0  0
  -28.1693  -24.5545   20.3177 O   0  0  0  0  0  0
  -26.5930  -34.8792   22.4483 O   0  0  0  0  0  0
  -23.6342  -32.0579   23.5511 O   0  0  0  0  0  0
  -30.0741  -20.5256   21.5707 C   0  0  0  0  0  0
  -28.2019  -22.4477   20.2407 C   0  0  0  0  0  0
  -29.2098  -20.3157   20.3240 C   0  0  2  0  0  0
  -29.2104  -18.2064   20.2672 N   0  0  0  0  0  0
  -31.2158  -14.1969   19.0487 H   0  0  0  0  0  0
  -30.7119  -13.1524   20.3084 H   0  0  0  0  0  0
  -30.2168  -12.1445   18.0582 H   0  0  0  0  0  0
  -29.3864  -13.5934   17.5565 H   0  0  0  0  0  0
  -28.4344  -11.4763   19.4828 H   0  0  0  0  0  0
  -27.5966  -12.1026   18.0751 H   0  0  0  0  0  0
  -27.3221  -14.2175   19.1099 H   0  0  0  0  0  0
  -28.9737  -13.4199   21.5493 H   0  0  0  0  0  0
  -27.9166  -14.7827   21.5028 H   0  0  0  0  0  0
  -25.2866   -9.5689   22.4751 H   0  0  0  0  0  0
  -24.0041   -7.4683   22.7494 H   0  0  0  0  0  0
  -21.0936   -8.8847   19.8945 H   0  0  0  0  0  0
  -22.3851  -10.9693   19.6126 H   0  0  0  0  0  0
  -21.2032   -7.6163   23.9719 H   0  0  0  0  0  0
  -21.1489   -6.0529   25.9073 H   0  0  0  0  0  0
  -22.0586   -2.7622   23.2829 H   0  0  0  0  0  0
  -22.4038  -11.9741   22.4902 H   0  0  0  0  0  0
  -21.0934  -13.0976   22.2670 H   0  0  0  0  0  0
  -24.5706  -15.8588   20.5446 H   0  0  0  0  0  0
  -26.1953  -15.6806   20.1107 H   0  0  0  0  0  0
  -26.7881  -32.4437   23.0534 H   0  0  0  0  0  0
  -24.9951  -33.8867   24.9586 H   0  0  0  0  0  0
  -22.9650  -31.1429   21.2192 H   0  0  0  0  0  0
  -23.3792  -35.9284   23.3224 H   0  0  0  0  0  0
  -24.3543  -36.8802   22.2105 H   0  0  0  0  0  0
  -23.7232  -37.6105   23.6870 H   0  0  0  0  0  0
  -26.4674  -30.9159   20.6473 H   0  0  0  0  0  0
  -27.0318  -30.3264   22.1448 H   0  0  0  0  0  0
  -28.2003  -27.7844   21.4070 H   0  0  0  0  0  0
  -25.7594  -25.3047   18.9609 H   0  0  0  0  0  0
  -24.1430  -27.0414   18.8732 H   0  0  0  0  0  0
  -24.1163  -30.2523   19.3553 H   0  0  0  0  0  0
  -22.9818  -29.0198   19.7947 H   0  0  0  0  0  0
  -25.1411  -36.1344   25.0721 H   0  0  0  0  0  0
  -21.0094  -28.3511   24.1170 H   0  0  0  0  0  0
  -20.5604  -26.2483   23.3741 H   0  0  0  0  0  0
  -21.6666  -26.7278   22.1287 H   0  0  0  0  0  0
  -19.6945  -25.6223   21.1346 H   0  0  0  0  0  0
  -19.6769  -27.3084   20.6697 H   0  0  0  0  0  0
  -17.4258  -26.6727   21.3994 H   0  0  0  0  0  0
  -18.0335  -26.0147   22.9022 H   0  0  0  0  0  0
  -19.8034  -30.7398   24.2072 H   0  0  0  0  0  0
  -17.5091  -31.6283   24.5175 H   0  0  0  0  0  0
  -15.5420  -30.2956   23.7770 H   0  0  0  0  0  0
  -15.8754  -28.0803   22.7156 H   0  0  0  0  0  0
  -24.5819  -30.7231   25.7404 H   0  0  0  0  0  0
  -24.8771  -32.3175   26.4210 H   0  0  0  0  0  0
  -25.7626  -30.9259   27.0160 H   0  0  0  0  0  0
  -26.3561  -29.6088   24.2112 H   0  0  0  0  0  0
  -27.4049  -29.7403   25.5944 H   0  0  0  0  0  0
  -27.9575  -30.3693   24.0695 H   0  0  0  0  0  0
  -27.2462  -33.3856   26.1659 H   0  0  0  0  0  0
  -28.4030  -32.6778   25.0485 H   0  0  0  0  0  0
  -28.0464  -31.8850   26.5753 H   0  0  0  0  0  0
  -28.2487  -38.0005   24.7520 H   0  0  0  0  0  0
  -28.1107  -36.2517   24.6294 H   0  0  0  0  0  0
  -27.2252  -37.1265   25.8867 H   0  0  0  0  0  0
  -21.0095  -29.8496   21.6155 H   0  0  0  0  0  0
  -26.0011  -38.2525   24.1434 H   0  0  0  0  0  0
  -30.4923  -21.5323   21.5890 H   0  0  0  0  0  0
  -30.9066  -19.8227   21.6054 H   0  0  0  0  0  0
  -29.4839  -20.3969   22.4782 H   0  0  0  0  0  0
  -27.4360  -22.2889   20.9997 H   0  0  0  0  0  0
  -27.6577  -22.3405   19.3024 H   0  0  0  0  0  0
  -29.8778  -20.4468   19.4720 H   0  0  0  0  0  0
  -28.2262  -17.9723   20.2107 H   0  0  0  0  0  0
  1 25  1  0  0  0
  1 30  2  0  0  0
  1 74  1  0  0  0
  2  3  1  0  0  0
  2 25  1  0  0  0
  2 75  1  0  0  0
  2 76  1  0  0  0
  3  4  1  0  0  0
  3 77  1  0  0  0
  3 78  1  0  0  0
  4  5  1  0  0  0
  4 79  1  0  0  0
  4 80  1  0  0  0
  5  6  1  0  0  0
  5 26  1  0  0  0
  5 81  1  0  0  0
  6 25  1  0  0  0
  6 82  1  0  0  0
  6 83  1  0  0  0
  7  8  2  0  0  0
  7 26  1  0  0  0
  7 29  1  0  0  0
  8  9  1  0  0  0
  8 22  1  0  0  0
  9 10  1  0  0  0
  9 27  2  0  0  0
 10 11  2  0  0  0
 10 15  1  0  0  0
 11 12  1  0  0  0
 11 84  1  0  0  0
 12 13  2  0  0  0
 12 85  1  0  0  0
 13 14  1  0  0  0
 13 31  1  0  0  0
 14 15  2  0  0  0
 14 86  1  0  0  0
 15 87  1  0  0  0
 16 17  2  0  0  0
 16 21  1  0  0  0
 16 31  1  0  0  0
 17 18  1  0  0  0
 17 88  1  0  0  0
 18 19  2  0  0  0
 18 89  1  0  0  0
 19 20  1  0  0  0
 19 24  1  0  0  0
 20 21  2  0  0  0
 20 90  1  0  0  0
 21 23  1  0  0  0
 22 28  1  0  0  0
 22 32  2  0  0  0
 26 27  1  0  0  0
 28 91  1  0  0  0
 28 92  1  0  0  0
 29 93  1  0  0  0
 29 94  1  0  0  0
 33 34  1  0  0  0
 33 66  1  0  0  0
 33 70  2  0  0  0
 34 36  1  0  0  0
 34 59  1  0  0  0
 34 95  1  0  0  0
 35 44  2  0  0  0
 35 45  1  0  0  0
 35 68  1  0  0  0
 36 56  1  0  0  0
 36 96  1  0  0  0
 37 39  1  0  0  0
 37 47  1  0  0  0
 37 66  1  0  0  0
 37 97  1  0  0  0
 38 43  2  0  0  0
 38 46  1  0  0  0
 38 47  1  0  0  0
 39 64  1  0  0  0
 39 67  2  0  0  0
 40 52  1  0  0  0
 40 53  2  0  0  0
 40 58  1  0  0  0
 41 98  1  0  0  0
 41 99  1  0  0  0
 41100  1  0  0  0
 41 48  1  0  0  0
 42 43  1  0  0  0
 42 66  1  0  0  0
 42101  1  0  0  0
 42102  1  0  0  0
 43 44  1  0  0  0
 44103  1  0  0  0
 45 46  2  0  0  0
 45104  1  0  0  0
 46105  1  0  0  0
 47106  1  0  0  0
 47107  1  0  0  0
 48 56  1  0  0  0
 48 65  1  0  0  0
 48108  1  0  0  0
 49 50  1  0  0  0
 49 53  1  0  0  0
 49 64  1  0  0  0
 49109  1  0  0  0
 50 51  1  0  0  0
 50110  1  0  0  0
 50111  1  0  0  0
 51 52  1  0  0  0
 51112  1  0  0  0
 51113  1  0  0  0
 52114  1  0  0  0
 52115  1  0  0  0
 53 54  1  0  0  0
 54 55  2  0  0  0
 54116  1  0  0  0
 55 57  1  0  0  0
 55117  1  0  0  0
 56 69  2  0  0  0
 57 58  2  0  0  0
 57118  1  0  0  0
 58119  1  0  0  0
 59 60  1  0  0  0
 59 61  1  0  0  0
 59 62  1  0  0  0
 60120  1  0  0  0
 60121  1  0  0  0
 60122  1  0  0  0
 61123  1  0  0  0
 61124  1  0  0  0
 61125  1  0  0  0
 62126  1  0  0  0
 62127  1  0  0  0
 62128  1  0  0  0
 63 65  1  0  0  0
 63129  1  0  0  0
 63130  1  0  0  0
 63131  1  0  0  0
 64132  1  0  0  0
 65133  1  0  0  0
 68 72  1  0  0  0
 71134  1  0  0  0
 71135  1  0  0  0
 71136  1  0  0  0
 71 73  1  0  0  0
 72 73  1  0  0  0
 72137  1  0  0  0
 72138  1  0  0  0
 73 74  1  0  0  0
 73139  1  0  0  0
 74140  1  0  0  0
M  ISO  4   1 100  68 101  72 101  74 100
M  END
> <chiral flag>
0

> <version>
0

> <s_m_source_file>
/data/baiqing/PycharmProjects/Reinvent-master-3.2/result/LINK_invent/BTK/process_docking_weight1_custom_sum_contain_oxygen_bond_distance_aromatic_linkinvent_7_9_3/rearranged_h_0108.sdf

> <i_m_source_file_index>
63

> <r_mmod_Potential_Energy-OPLS-2005>
6874.669921875

> <r_mmod_Stretch_Energy-OPLS-2005>
3161.67700195312

> <r_mmod_Bend_Energy-OPLS-2005>
1107.17126464844

> <r_mmod_Torsional_Energy-OPLS-2005>
219.971496582031

> <r_mmod_Improper_Torsional_Energy-OPLS-2005>
4.63404893875122

> <r_mmod_Van_der_Waal_Energy-OPLS-2005>
118.461982727051

> <r_mmod_Electrostatic_Energy-OPLS-2005>
-364.919128417969

> <r_mmod_Solvation_Energy-OPLS-2005>
-226.15885925293

> <b_mmod_Minimization_Converged-OPLS-2005>
0

> <r_mmod_RMS_Derivative-OPLS-2005>
0.380653589963913

$$$$
63
                    3D
 Structure written by MMmdl.
163172  0  0  1  0            999 V2000
  -30.4112  -15.2706   20.3680 C   0  0  0  0  0  0
  -30.4377  -12.8029   19.5574 C   0  0  0  0  0  0
  -29.5419  -12.5710   18.3117 C   0  0  0  0  0  0
  -28.0891  -12.2947   18.7312 C   0  0  0  0  0  0
  -27.6134  -13.2734   19.8325 C   0  0  2  0  0  0
  -28.6362  -13.4424   20.9782 C   0  0  0  0  0  0
  -25.2396  -13.8246   20.5771 C   0  0  0  0  0  0
  -24.1738  -13.0444   20.9273 C   0  0  0  0  0  0
  -24.6377  -11.6937   20.8766 C   0  0  0  0  0  0
  -23.9080  -10.4297   21.0409 C   0  0  0  0  0  0
  -24.3625   -9.4211   21.9184 C   0  0  0  0  0  0
  -23.6304   -8.2242   22.0742 C   0  0  0  0  0  0
  -22.4281   -8.0279   21.3535 C   0  0  0  0  0  0
  -21.9933   -9.0250   20.4630 C   0  0  0  0  0  0
  -22.7257  -10.2135   20.3048 C   0  0  0  0  0  0
  -21.6858   -6.0738   22.5271 C   0  0  0  0  0  0
  -21.4014   -6.5645   23.8209 C   0  0  0  0  0  0
  -21.3660   -5.6800   24.9174 C   0  0  0  0  0  0
  -21.6042   -4.3062   24.7231 C   0  0  0  0  0  0
  -21.8819   -3.8146   23.4348 C   0  0  0  0  0  0
  -21.9194   -4.6966   22.3406 C   0  0  0  0  0  0
  -22.7755  -13.5198   21.1917 C   0  0  0  0  0  0
  -22.1661   -4.2154   21.0981 F   0  0  0  0  0  0
  -21.5636   -3.4543   25.7739 F   0  0  0  0  0  0
  -29.8794  -13.9466   20.3752 N   0  0  0  0  0  0
  -26.2806  -12.9514   20.3226 N   0  0  0  0  0  0
  -25.9312  -11.6625   20.5722 N   0  0  0  0  0  0
  -22.0424  -12.8158   22.0463 N   0  0  0  0  0  0
  -25.4084  -15.1975   20.4207 N   0  0  0  0  0  0
  -31.6052  -15.2948   20.0319 O   0  0  0  0  0  0
  -21.6643   -6.8879   21.4234 O   0  0  0  0  0  0
  -22.3433  -14.5510   20.6779 O   0  0  0  0  0  0
  -24.6609  -31.8223   23.1707 C   0  0  0  0  0  0
  -25.9291  -32.4602   23.8170 C   0  0  1  0  0  0
  -27.2260  -26.9333   20.1998 C   0  0  0  0  0  0
  -25.5954  -33.8412   24.2079 N   0  0  0  0  0  0
  -23.4790  -30.4336   21.5170 C   0  0  2  0  0  0
  -24.9356  -28.8216   20.1108 C   0  0  0  0  0  0
  -22.7650  -29.4420   22.4721 C   0  0  0  0  0  0
  -18.0307  -28.1430   22.8434 C   0  0  0  0  0  0
  -24.1454  -36.7188   23.2656 C   0  0  0  0  0  0
  -26.0445  -30.6350   21.3979 C   0  0  0  0  0  0
  -26.1172  -29.2217   20.7491 C   0  0  0  0  0  0
  -27.2547  -28.2984   20.7711 C   0  0  0  0  0  0
  -26.0211  -26.6858   19.5001 C   0  0  0  0  0  0
  -24.9130  -27.5737   19.4657 C   0  0  0  0  0  0
  -23.7248  -29.7544   20.1414 C   0  0  0  0  0  0
  -25.4099  -36.2951   24.0315 C   0  0  1  0  0  0
  -20.5936  -28.3753   23.1151 C   0  0  2  0  0  0
  -20.6786  -26.9427   22.5386 C   0  0  0  0  0  0
  -19.5772  -26.6393   21.5188 C   0  0  0  0  0  0
  -18.1939  -26.7967   22.1595 C   0  0  0  0  0  0
  -19.1583  -28.8903   23.2790 C   0  0  0  0  0  0
  -18.9520  -30.1489   23.8834 C   0  0  0  0  0  0
  -17.6523  -30.6618   24.0547 C   0  0  0  0  0  0
  -25.9081  -34.9349   23.5011 C   0  0  0  0  0  0
  -16.5383  -29.9121   23.6349 C   0  0  0  0  0  0
  -16.7291  -28.6553   23.0333 C   0  0  0  0  0  0
  -26.4550  -31.6563   25.0693 C   0  0  0  0  0  0
  -25.3682  -31.3821   26.1351 C   0  0  0  0  0  0
  -27.0476  -30.2955   24.6412 C   0  0  0  0  0  0
  -27.6026  -32.4374   25.7507 C   0  0  0  0  0  0
  -27.5532  -37.1720   24.8483 C   0  0  0  0  0  0
  -21.4319  -29.3061   22.3507 N   0  0  0  0  0  0
  -26.4228  -37.3708   23.9448 N   0  0  0  0  0  0
  -24.7502  -30.9888   22.0859 N   0  0  0  0  0  0
  -23.4175  -28.7944   23.2936 O   0  0  0  0  0  0
  -28.2312  -25.8362   20.3134 O   0  0  0  0  0  0
  -26.5675  -34.8885   22.4604 O   0  0  0  0  0  0
  -23.5670  -32.1199   23.6795 O   0  0  0  0  0  0
  -27.7121  -21.9165   22.8273 C   0  0  0  0  0  0
  -29.0071  -18.5981   17.8687 C   0  0  0  0  0  0
  -26.5960  -21.5859   21.8162 C   0  0  0  0  0  0
  -28.8379  -22.7702   22.2093 C   0  0  0  0  0  0
  -30.2513  -18.1459   18.6308 C   0  0  0  0  0  0
  -28.2226  -17.8402   18.9331 C   0  0  0  0  0  0
  -27.1036  -20.9054   20.5139 C   0  0  0  0  0  0
  -28.8672  -22.7041   20.6637 C   0  0  2  0  0  0
  -29.3988  -18.0632   19.9231 C   0  0  0  0  0  0
  -28.0335  -24.2107   20.0823 C   0  0  0  0  0  0
  -29.3209  -19.6772   20.7485 C   0  0  0  0  0  0
  -29.6280  -16.5224   20.5688 N   0  0  0  0  0  0
  -28.5594  -21.1034   20.2620 N   0  3  1  0  0  0
  -31.4590  -13.0028   19.2291 H   0  0  0  0  0  0
  -30.5009  -11.8968   20.1617 H   0  0  0  0  0  0
  -29.9245  -11.7366   17.7223 H   0  0  0  0  0  0
  -29.5765  -13.4498   17.6661 H   0  0  0  0  0  0
  -28.0470  -11.2743   19.1127 H   0  0  0  0  0  0
  -27.4232  -12.3259   17.8670 H   0  0  0  0  0  0
  -27.5352  -14.2398   19.3327 H   0  0  0  0  0  0
  -28.7929  -12.5061   21.5158 H   0  0  0  0  0  0
  -28.2648  -14.1616   21.7096 H   0  0  0  0  0  0
  -25.2762   -9.5706   22.4771 H   0  0  0  0  0  0
  -24.0020   -7.4638   22.7461 H   0  0  0  0  0  0
  -21.0872   -8.8767   19.8925 H   0  0  0  0  0  0
  -22.3705  -10.9677   19.6165 H   0  0  0  0  0  0
  -21.1992   -7.6150   23.9721 H   0  0  0  0  0  0
  -21.1488   -6.0524   25.9084 H   0  0  0  0  0  0
  -22.0592   -2.7612   23.2848 H   0  0  0  0  0  0
  -22.4046  -11.9814   22.4834 H   0  0  0  0  0  0
  -21.1025  -13.1121   22.2655 H   0  0  0  0  0  0
  -24.6469  -15.8547   20.5454 H   0  0  0  0  0  0
  -26.2504  -15.6306   20.0652 H   0  0  0  0  0  0
  -26.7359  -32.5148   23.0883 H   0  0  0  0  0  0
  -25.0118  -33.9497   25.0239 H   0  0  0  0  0  0
  -22.7978  -31.2694   21.3446 H   0  0  0  0  0  0
  -23.3734  -35.9493   23.3306 H   0  0  0  0  0  0
  -24.3517  -36.8851   22.2073 H   0  0  0  0  0  0
  -23.7197  -37.6358   23.6736 H   0  0  0  0  0  0
  -26.2072  -31.3721   20.6103 H   0  0  0  0  0  0
  -26.9104  -30.7056   22.0447 H   0  0  0  0  0  0
  -28.1457  -28.5970   21.3084 H   0  0  0  0  0  0
  -25.8985  -25.7343   19.0025 H   0  0  0  0  0  0
  -24.0158  -27.2640   18.9457 H   0  0  0  0  0  0
  -23.8961  -30.5292   19.3943 H   0  0  0  0  0  0
  -22.8358  -29.2195   19.8059 H   0  0  0  0  0  0
  -25.1288  -36.1742   25.0803 H   0  0  0  0  0  0
  -21.0033  -28.3375   24.1272 H   0  0  0  0  0  0
  -20.5668  -26.2351   23.3621 H   0  0  0  0  0  0
  -21.6643  -26.7403   22.1192 H   0  0  0  0  0  0
  -19.6942  -25.6297   21.1247 H   0  0  0  0  0  0
  -19.6751  -27.3162   20.6681 H   0  0  0  0  0  0
  -17.4211  -26.6668   21.3996 H   0  0  0  0  0  0
  -18.0351  -26.0135   22.9023 H   0  0  0  0  0  0
  -19.8006  -30.7282   24.2208 H   0  0  0  0  0  0
  -17.5102  -31.6312   24.5135 H   0  0  0  0  0  0
  -15.5397  -30.3016   23.7766 H   0  0  0  0  0  0
  -15.8669  -28.0886   22.7063 H   0  0  0  0  0  0
  -24.5900  -30.7133   25.7664 H   0  0  0  0  0  0
  -24.8826  -32.3031   26.4592 H   0  0  0  0  0  0
  -25.7900  -30.9134   27.0257 H   0  0  0  0  0  0
  -26.3171  -29.6600   24.1403 H   0  0  0  0  0  0
  -27.4035  -29.7348   25.5058 H   0  0  0  0  0  0
  -27.9074  -30.4160   23.9811 H   0  0  0  0  0  0
  -27.2622  -33.3780   26.1860 H   0  0  0  0  0  0
  -28.3956  -32.6760   25.0412 H   0  0  0  0  0  0
  -28.0563  -31.8665   26.5619 H   0  0  0  0  0  0
  -28.2516  -38.0033   24.7521 H   0  0  0  0  0  0
  -28.1036  -36.2561   24.6313 H   0  0  0  0  0  0
  -27.2244  -37.1365   25.8876 H   0  0  0  0  0  0
  -20.9554  -29.8831   21.6727 H   0  0  0  0  0  0
  -26.0074  -38.2739   24.1550 H   0  0  0  0  0  0
  -28.1326  -20.9889   23.2171 H   0  0  0  0  0  0
  -27.3007  -22.4296   23.6973 H   0  0  0  0  0  0
  -28.9168  -18.1957   16.8587 H   0  0  0  0  0  0
  -28.8450  -19.6761   17.8859 H   0  0  0  0  0  0
  -26.0628  -22.5025   21.5695 H   0  0  0  0  0  0
  -25.8444  -20.9490   22.2845 H   0  0  0  0  0  0
  -29.7931  -22.4408   22.6218 H   0  0  0  0  0  0
  -28.7239  -23.8083   22.5273 H   0  0  0  0  0  0
  -31.0493  -18.8871   18.6447 H   0  0  0  0  0  0
  -30.6215  -17.1883   18.2630 H   0  0  0  0  0  0
  -28.0697  -16.7955   18.6488 H   0  0  0  0  0  0
  -27.2699  -18.2931   19.1959 H   0  0  0  0  0  0
  -26.5467  -21.2845   19.6573 H   0  0  0  0  0  0
  -26.8666  -19.8457   20.5781 H   0  0  0  0  0  0
  -29.9044  -22.8536   20.3659 H   0  0  0  0  0  0
  -26.9837  -24.0666   20.3248 H   0  0  0  0  0  0
  -28.0569  -24.1212   18.9961 H   0  0  0  0  0  0
  -30.3555  -19.9920   20.8893 H   0  0  0  0  0  0
  -28.9864  -19.4873   21.7680 H   0  0  0  0  0  0
  -28.7849  -16.2640   21.0617 H   0  0  0  0  0  0
  -28.6711  -21.0877   19.2573 H   0  0  0  0  0  0
  1 25  1  0  0  0
  1 30  2  0  0  0
  1 82  1  0  0  0
  2  3  1  0  0  0
  2 25  1  0  0  0
  2 84  1  0  0  0
  2 85  1  0  0  0
  3  4  1  0  0  0
  3 86  1  0  0  0
  3 87  1  0  0  0
  4  5  1  0  0  0
  4 88  1  0  0  0
  4 89  1  0  0  0
  5  6  1  0  0  0
  5 26  1  0  0  0
  5 90  1  0  0  0
  6 25  1  0  0  0
  6 91  1  0  0  0
  6 92  1  0  0  0
  7  8  2  0  0  0
  7 26  1  0  0  0
  7 29  1  0  0  0
  8  9  1  0  0  0
  8 22  1  0  0  0
  9 10  1  0  0  0
  9 27  2  0  0  0
 10 11  2  0  0  0
 10 15  1  0  0  0
 11 12  1  0  0  0
 11 93  1  0  0  0
 12 13  2  0  0  0
 12 94  1  0  0  0
 13 14  1  0  0  0
 13 31  1  0  0  0
 14 15  2  0  0  0
 14 95  1  0  0  0
 15 96  1  0  0  0
 16 17  2  0  0  0
 16 21  1  0  0  0
 16 31  1  0  0  0
 17 18  1  0  0  0
 17 97  1  0  0  0
 18 19  2  0  0  0
 18 98  1  0  0  0
 19 20  1  0  0  0
 19 24  1  0  0  0
 20 21  2  0  0  0
 20 99  1  0  0  0
 21 23  1  0  0  0
 22 28  1  0  0  0
 22 32  2  0  0  0
 26 27  1  0  0  0
 28100  1  0  0  0
 28101  1  0  0  0
 29102  1  0  0  0
 29103  1  0  0  0
 33 34  1  0  0  0
 33 66  1  0  0  0
 33 70  2  0  0  0
 34 36  1  0  0  0
 34 59  1  0  0  0
 34104  1  0  0  0
 35 44  2  0  0  0
 35 45  1  0  0  0
 35 68  1  0  0  0
 36 56  1  0  0  0
 36105  1  0  0  0
 37 39  1  0  0  0
 37 47  1  0  0  0
 37 66  1  0  0  0
 37106  1  0  0  0
 38 43  2  0  0  0
 38 46  1  0  0  0
 38 47  1  0  0  0
 39 64  1  0  0  0
 39 67  2  0  0  0
 40 52  1  0  0  0
 40 53  2  0  0  0
 40 58  1  0  0  0
 41107  1  0  0  0
 41108  1  0  0  0
 41109  1  0  0  0
 41 48  1  0  0  0
 42 43  1  0  0  0
 42 66  1  0  0  0
 42110  1  0  0  0
 42111  1  0  0  0
 43 44  1  0  0  0
 44112  1  0  0  0
 45 46  2  0  0  0
 45113  1  0  0  0
 46114  1  0  0  0
 47115  1  0  0  0
 47116  1  0  0  0
 48 56  1  0  0  0
 48 65  1  0  0  0
 48117  1  0  0  0
 49 50  1  0  0  0
 49 53  1  0  0  0
 49 64  1  0  0  0
 49118  1  0  0  0
 50 51  1  0  0  0
 50119  1  0  0  0
 50120  1  0  0  0
 51 52  1  0  0  0
 51121  1  0  0  0
 51122  1  0  0  0
 52123  1  0  0  0
 52124  1  0  0  0
 53 54  1  0  0  0
 54 55  2  0  0  0
 54125  1  0  0  0
 55 57  1  0  0  0
 55126  1  0  0  0
 56 69  2  0  0  0
 57 58  2  0  0  0
 57127  1  0  0  0
 58128  1  0  0  0
 59 60  1  0  0  0
 59 61  1  0  0  0
 59 62  1  0  0  0
 60129  1  0  0  0
 60130  1  0  0  0
 60131  1  0  0  0
 61132  1  0  0  0
 61133  1  0  0  0
 61134  1  0  0  0
 62135  1  0  0  0
 62136  1  0  0  0
 62137  1  0  0  0
 63 65  1  0  0  0
 63138  1  0  0  0
 63139  1  0  0  0
 63140  1  0  0  0
 64141  1  0  0  0
 65142  1  0  0  0
 68 80  1  0  0  0
 71 73  1  0  0  0
 71 74  1  0  0  0
 71143  1  0  0  0
 71144  1  0  0  0
 72 75  1  0  0  0
 72 76  1  0  0  0
 72145  1  0  0  0
 72146  1  0  0  0
 73 77  1  0  0  0
 73147  1  0  0  0
 73148  1  0  0  0
 74 78  1  0  0  0
 74149  1  0  0  0
 74150  1  0  0  0
 75 79  1  0  0  0
 75151  1  0  0  0
 75152  1  0  0  0
 76 79  1  0  0  0
 76153  1  0  0  0
 76154  1  0  0  0
 77 83  1  0  0  0
 77155  1  0  0  0
 77156  1  0  0  0
 78 80  1  0  0  0
 78 83  1  0  0  0
 78157  1  0  0  0
 79 81  1  0  0  0
 79 82  1  0  0  0
 80158  1  0  0  0
 80159  1  0  0  0
 81160  1  0  0  0
 81161  1  0  0  0
 81 83  1  0  0  0
 82162  1  0  0  0
 83163  1  0  0  0
M  CHG  1  83   1
M  ISO  4   1 100  68 101  80 101  82 100
M  END
> <chiral flag>
0

> <version>
0

> <s_m_source_file>
/data/baiqing/PycharmProjects/Reinvent-master-3.2/result/LINK_invent/BTK/process_docking_weight1_custom_sum_contain_oxygen_bond_distance_aromatic_linkinvent_7_9_3/rearranged_h_0108.sdf

> <i_m_source_file_index>
64

> <r_mmod_Potential_Energy-OPLS-2005>
1413.89306640625

> <r_mmod_Stretch_Energy-OPLS-2005>
649.955383300781

> <r_mmod_Bend_Energy-OPLS-2005>
474.675720214844

> <r_mmod_Torsional_Energy-OPLS-2005>
350.645324707031

> <r_mmod_Improper_Torsional_Energy-OPLS-2005>
4.76162576675415

> <r_mmod_Van_der_Waal_Energy-OPLS-2005>
117.331596374512

> <r_mmod_Electrostatic_Energy-OPLS-2005>
-204.816696166992

> <r_mmod_Solvation_Energy-OPLS-2005>
-440.891632080078

> <b_mmod_Minimization_Converged-OPLS-2005>
0

> <r_mmod_RMS_Derivative-OPLS-2005>
3.38202929496765

$$$$
64
                    3D
 Structure written by MMmdl.
156163  0  0  1  0            999 V2000
  -30.5478  -14.9316   20.3792 C   0  0  0  0  0  0
  -30.4398  -12.5776   19.4798 C   0  0  0  0  0  0
  -29.5145  -12.5005   18.2458 C   0  0  0  0  0  0
  -28.0452  -12.3051   18.6659 C   0  0  0  0  0  0
  -27.6252  -13.2436   19.8247 C   0  0  2  0  0  0
  -28.6740  -13.2813   20.9535 C   0  0  0  0  0  0
  -25.2472  -13.8206   20.5731 C   0  0  0  0  0  0
  -24.1791  -13.0425   20.9259 C   0  0  0  0  0  0
  -24.6389  -11.6900   20.8730 C   0  0  0  0  0  0
  -23.9071  -10.4251   21.0372 C   0  0  0  0  0  0
  -24.3619   -9.4181   21.9174 C   0  0  0  0  0  0
  -23.6279   -8.2217   22.0756 C   0  0  0  0  0  0
  -22.4267   -8.0264   21.3543 C   0  0  0  0  0  0
  -21.9892   -9.0255   20.4642 C   0  0  0  0  0  0
  -22.7224  -10.2118   20.3032 C   0  0  0  0  0  0
  -21.6858   -6.0711   22.5256 C   0  0  0  0  0  0
  -21.4008   -6.5627   23.8201 C   0  0  0  0  0  0
  -21.3646   -5.6798   24.9166 C   0  0  0  0  0  0
  -21.6027   -4.3053   24.7230 C   0  0  0  0  0  0
  -21.8824   -3.8137   23.4370 C   0  0  0  0  0  0
  -21.9195   -4.6936   22.3394 C   0  0  0  0  0  0
  -22.7803  -13.5190   21.1891 C   0  0  0  0  0  0
  -22.1670   -4.2113   21.0963 F   0  0  0  0  0  0
  -21.5633   -3.4545   25.7745 F   0  0  0  0  0  0
  -29.9480  -13.6806   20.3451 N   0  0  0  0  0  0
  -26.2875  -12.9417   20.3223 N   0  0  0  0  0  0
  -25.9321  -11.6552   20.5717 N   0  0  0  0  0  0
  -22.0466  -12.8190   22.0432 N   0  0  0  0  0  0
  -25.4146  -15.1922   20.4170 N   0  0  0  0  0  0
  -31.7620  -14.9967   20.1667 O   0  0  0  0  0  0
  -21.6629   -6.8863   21.4228 O   0  0  0  0  0  0
  -22.3433  -14.5463   20.6677 O   0  0  0  0  0  0
  -24.6487  -31.8400   23.1873 C   0  0  0  0  0  0
  -25.9237  -32.4691   23.8274 C   0  0  1  0  0  0
  -27.2167  -27.1206   20.1289 C   0  0  0  0  0  0
  -25.5978  -33.8491   24.2232 N   0  0  0  0  0  0
  -23.4523  -30.4667   21.5330 C   0  0  2  0  0  0
  -24.8974  -28.8850   20.1149 C   0  0  0  0  0  0
  -22.7564  -29.4591   22.4800 C   0  0  0  0  0  0
  -18.0318  -28.1398   22.8465 C   0  0  0  0  0  0
  -24.1498  -36.7270   23.2635 C   0  0  0  0  0  0
  -26.0125  -30.7065   21.3894 C   0  0  0  0  0  0
  -26.0799  -29.3166   20.7278 C   0  0  0  0  0  0
  -27.2452  -28.4532   20.7125 C   0  0  0  0  0  0
  -26.0081  -26.7943   19.4770 C   0  0  0  0  0  0
  -24.8726  -27.6332   19.4802 C   0  0  0  0  0  0
  -23.6773  -29.7948   20.1551 C   0  0  0  0  0  0
  -25.4133  -36.3029   24.0306 C   0  0  1  0  0  0
  -20.5927  -28.3777   23.1202 C   0  0  2  0  0  0
  -20.6788  -26.9466   22.5407 C   0  0  0  0  0  0
  -19.5758  -26.6382   21.5220 C   0  0  0  0  0  0
  -18.1943  -26.7917   22.1629 C   0  0  0  0  0  0
  -19.1567  -28.8894   23.2837 C   0  0  0  0  0  0
  -18.9473  -30.1472   23.8893 C   0  0  0  0  0  0
  -17.6481  -30.6585   24.0583 C   0  0  0  0  0  0
  -25.9083  -34.9403   23.5092 C   0  0  0  0  0  0
  -16.5380  -29.9088   23.6320 C   0  0  0  0  0  0
  -16.7304  -28.6517   23.0342 C   0  0  0  0  0  0
  -26.4527  -31.6528   25.0706 C   0  0  0  0  0  0
  -25.3717  -31.3731   26.1403 C   0  0  0  0  0  0
  -27.0392  -30.2898   24.6355 C   0  0  0  0  0  0
  -27.6047  -32.4287   25.7517 C   0  0  0  0  0  0
  -27.5584  -37.1810   24.8458 C   0  0  0  0  0  0
  -21.4253  -29.3099   22.3529 N   0  0  0  0  0  0
  -26.4297  -37.3750   23.9394 N   0  0  0  0  0  0
  -24.7248  -31.0264   22.0899 N   0  0  0  0  0  0
  -23.4176  -28.8101   23.2954 O   0  0  0  0  0  0
  -28.2606  -26.1196   20.1858 O   0  0  0  0  0  0
  -26.5669  -34.8914   22.4662 O   0  0  0  0  0  0
  -23.5608  -32.1261   23.7102 O   0  0  0  0  0  0
  -29.1830  -23.2089   21.8200 C   0  0  0  0  0  0
  -28.9599  -18.8485   18.4144 C   0  0  0  0  0  0
  -27.7117  -18.5349   20.5544 C   0  0  0  0  0  0
  -30.1369  -17.6467   20.3766 C   0  0  0  0  0  0
  -27.9713  -24.5979   19.9454 C   0  0  0  0  0  0
  -28.5538  -21.6378   19.8794 C   0  0  0  0  0  0
  -28.9141  -23.2348   20.3109 C   0  0  2  0  0  0
  -29.0784  -18.8906   19.9498 C   0  0  0  0  0  0
  -29.7663  -16.1121   20.4239 N   0  0  0  0  0  0
  -29.3656  -20.3802   20.3021 O   0  0  0  0  0  0
  -31.4651  -12.7517   19.1520 H   0  0  0  0  0  0
  -30.4648  -11.6356   20.0308 H   0  0  0  0  0  0
  -29.8264  -11.6844   17.5914 H   0  0  0  0  0  0
  -29.6093  -13.4172   17.6640 H   0  0  0  0  0  0
  -27.9262  -11.2685   18.9789 H   0  0  0  0  0  0
  -27.3856  -12.4408   17.8079 H   0  0  0  0  0  0
  -27.5838  -14.2408   19.3867 H   0  0  0  0  0  0
  -28.7591  -12.3082   21.4377 H   0  0  0  0  0  0
  -28.3829  -13.9906   21.7299 H   0  0  0  0  0  0
  -25.2765   -9.5650   22.4768 H   0  0  0  0  0  0
  -23.9986   -7.4583   22.7456 H   0  0  0  0  0  0
  -21.0840   -8.8742   19.8939 H   0  0  0  0  0  0
  -22.3669  -10.9674   19.6135 H   0  0  0  0  0  0
  -21.1995   -7.6132   23.9677 H   0  0  0  0  0  0
  -21.1468   -6.0532   25.9060 H   0  0  0  0  0  0
  -22.0619   -2.7597   23.2864 H   0  0  0  0  0  0
  -22.4124  -11.9911   22.4919 H   0  0  0  0  0  0
  -21.1040  -13.1142   22.2533 H   0  0  0  0  0  0
  -24.6568  -15.8553   20.5422 H   0  0  0  0  0  0
  -26.2566  -15.6239   20.0648 H   0  0  0  0  0  0
  -26.7326  -32.5260   23.1010 H   0  0  0  0  0  0
  -25.0074  -33.9611   25.0352 H   0  0  0  0  0  0
  -22.7633  -31.2978   21.3780 H   0  0  0  0  0  0
  -23.3756  -35.9609   23.3286 H   0  0  0  0  0  0
  -24.3585  -36.8896   22.2058 H   0  0  0  0  0  0
  -23.7283  -37.6476   23.6671 H   0  0  0  0  0  0
  -26.1847  -31.4592   20.6213 H   0  0  0  0  0  0
  -26.8808  -30.7483   22.0354 H   0  0  0  0  0  0
  -28.1478  -28.7822   21.2100 H   0  0  0  0  0  0
  -25.9039  -25.8445   18.9725 H   0  0  0  0  0  0
  -23.9733  -27.2930   18.9868 H   0  0  0  0  0  0
  -23.8235  -30.5708   19.4024 H   0  0  0  0  0  0
  -22.7869  -29.2467   19.8408 H   0  0  0  0  0  0
  -25.1331  -36.1859   25.0805 H   0  0  0  0  0  0
  -21.0110  -28.3426   24.1291 H   0  0  0  0  0  0
  -20.5647  -26.2451   23.3657 H   0  0  0  0  0  0
  -21.6662  -26.7402   22.1261 H   0  0  0  0  0  0
  -19.6943  -25.6279   21.1276 H   0  0  0  0  0  0
  -19.6682  -27.3167   20.6719 H   0  0  0  0  0  0
  -17.4226  -26.6671   21.4029 H   0  0  0  0  0  0
  -18.0347  -26.0055   22.9025 H   0  0  0  0  0  0
  -19.7964  -30.7272   24.2280 H   0  0  0  0  0  0
  -17.5037  -31.6247   24.5173 H   0  0  0  0  0  0
  -15.5379  -30.3008   23.7592 H   0  0  0  0  0  0
  -15.8711  -28.0826   22.7053 H   0  0  0  0  0  0
  -24.5967  -30.6981   25.7762 H   0  0  0  0  0  0
  -24.8812  -32.2898   26.4690 H   0  0  0  0  0  0
  -25.7996  -30.9036   27.0283 H   0  0  0  0  0  0
  -26.3039  -29.6623   24.1327 H   0  0  0  0  0  0
  -27.3908  -29.7181   25.4961 H   0  0  0  0  0  0
  -27.8990  -30.4053   23.9756 H   0  0  0  0  0  0
  -27.2648  -33.3637   26.1999 H   0  0  0  0  0  0
  -28.3929  -32.6781   25.0393 H   0  0  0  0  0  0
  -28.0665  -31.8479   26.5517 H   0  0  0  0  0  0
  -28.2598  -38.0108   24.7502 H   0  0  0  0  0  0
  -28.1083  -36.2646   24.6288 H   0  0  0  0  0  0
  -27.2299  -37.1476   25.8854 H   0  0  0  0  0  0
  -20.9409  -29.8839   21.6752 H   0  0  0  0  0  0
  -26.0154  -38.2829   24.1320 H   0  0  0  0  0  0
  -29.4670  -24.1932   22.1841 H   0  0  0  0  0  0
  -29.9923  -22.5197   22.0667 H   0  0  0  0  0  0
  -28.2994  -22.8771   22.3679 H   0  0  0  0  0  0
  -28.1425  -19.4684   18.0417 H   0  0  0  0  0  0
  -28.7740  -17.8360   18.0510 H   0  0  0  0  0  0
  -29.8764  -19.2019   17.9376 H   0  0  0  0  0  0
  -27.4318  -17.5106   20.3085 H   0  0  0  0  0  0
  -26.9166  -19.1737   20.1732 H   0  0  0  0  0  0
  -27.7280  -18.6121   21.6426 H   0  0  0  0  0  0
  -31.0150  -17.7276   19.7305 H   0  0  0  0  0  0
  -30.5190  -17.8837   21.3685 H   0  0  0  0  0  0
  -27.0176  -24.4173   20.4414 H   0  0  0  0  0  0
  -27.7571  -24.5226   18.8799 H   0  0  0  0  0  0
  -28.5182  -21.6188   18.7896 H   0  0  0  0  0  0
  -27.5221  -21.4601   20.1781 H   0  0  0  0  0  0
  -29.8773  -23.4345   19.8378 H   0  0  0  0  0  0
  -28.7786  -15.9383   20.5277 H   0  0  0  0  0  0
  1 25  1  0  0  0
  1 30  2  0  0  0
  1 79  1  0  0  0
  2  3  1  0  0  0
  2 25  1  0  0  0
  2 81  1  0  0  0
  2 82  1  0  0  0
  3  4  1  0  0  0
  3 83  1  0  0  0
  3 84  1  0  0  0
  4  5  1  0  0  0
  4 85  1  0  0  0
  4 86  1  0  0  0
  5  6  1  0  0  0
  5 26  1  0  0  0
  5 87  1  0  0  0
  6 25  1  0  0  0
  6 88  1  0  0  0
  6 89  1  0  0  0
  7  8  2  0  0  0
  7 26  1  0  0  0
  7 29  1  0  0  0
  8  9  1  0  0  0
  8 22  1  0  0  0
  9 10  1  0  0  0
  9 27  2  0  0  0
 10 11  2  0  0  0
 10 15  1  0  0  0
 11 12  1  0  0  0
 11 90  1  0  0  0
 12 13  2  0  0  0
 12 91  1  0  0  0
 13 14  1  0  0  0
 13 31  1  0  0  0
 14 15  2  0  0  0
 14 92  1  0  0  0
 15 93  1  0  0  0
 16 17  2  0  0  0
 16 21  1  0  0  0
 16 31  1  0  0  0
 17 18  1  0  0  0
 17 94  1  0  0  0
 18 19  2  0  0  0
 18 95  1  0  0  0
 19 20  1  0  0  0
 19 24  1  0  0  0
 20 21  2  0  0  0
 20 96  1  0  0  0
 21 23  1  0  0  0
 22 28  1  0  0  0
 22 32  2  0  0  0
 26 27  1  0  0  0
 28 97  1  0  0  0
 28 98  1  0  0  0
 29 99  1  0  0  0
 29100  1  0  0  0
 33 34  1  0  0  0
 33 66  1  0  0  0
 33 70  2  0  0  0
 34 36  1  0  0  0
 34 59  1  0  0  0
 34101  1  0  0  0
 35 44  2  0  0  0
 35 45  1  0  0  0
 35 68  1  0  0  0
 36 56  1  0  0  0
 36102  1  0  0  0
 37 39  1  0  0  0
 37 47  1  0  0  0
 37 66  1  0  0  0
 37103  1  0  0  0
 38 43  2  0  0  0
 38 46  1  0  0  0
 38 47  1  0  0  0
 39 64  1  0  0  0
 39 67  2  0  0  0
 40 52  1  0  0  0
 40 53  2  0  0  0
 40 58  1  0  0  0
 41104  1  0  0  0
 41105  1  0  0  0
 41106  1  0  0  0
 41 48  1  0  0  0
 42 43  1  0  0  0
 42 66  1  0  0  0
 42107  1  0  0  0
 42108  1  0  0  0
 43 44  1  0  0  0
 44109  1  0  0  0
 45 46  2  0  0  0
 45110  1  0  0  0
 46111  1  0  0  0
 47112  1  0  0  0
 47113  1  0  0  0
 48 56  1  0  0  0
 48 65  1  0  0  0
 48114  1  0  0  0
 49 50  1  0  0  0
 49 53  1  0  0  0
 49 64  1  0  0  0
 49115  1  0  0  0
 50 51  1  0  0  0
 50116  1  0  0  0
 50117  1  0  0  0
 51 52  1  0  0  0
 51118  1  0  0  0
 51119  1  0  0  0
 52120  1  0  0  0
 52121  1  0  0  0
 53 54  1  0  0  0
 54 55  2  0  0  0
 54122  1  0  0  0
 55 57  1  0  0  0
 55123  1  0  0  0
 56 69  2  0  0  0
 57 58  2  0  0  0
 57124  1  0  0  0
 58125  1  0  0  0
 59 60  1  0  0  0
 59 61  1  0  0  0
 59 62  1  0  0  0
 60126  1  0  0  0
 60127  1  0  0  0
 60128  1  0  0  0
 61129  1  0  0  0
 61130  1  0  0  0
 61131  1  0  0  0
 62132  1  0  0  0
 62133  1  0  0  0
 62134  1  0  0  0
 63 65  1  0  0  0
 63135  1  0  0  0
 63136  1  0  0  0
 63137  1  0  0  0
 64138  1  0  0  0
 65139  1  0  0  0
 68 75  1  0  0  0
 71140  1  0  0  0
 71141  1  0  0  0
 71142  1  0  0  0
 71 77  1  0  0  0
 72143  1  0  0  0
 72144  1  0  0  0
 72145  1  0  0  0
 72 78  1  0  0  0
 73 78  1  0  0  0
 73146  1  0  0  0
 73147  1  0  0  0
 73148  1  0  0  0
 74 78  1  0  0  0
 74 79  1  0  0  0
 74149  1  0  0  0
 74150  1  0  0  0
 75 77  1  0  0  0
 75151  1  0  0  0
 75152  1  0  0  0
 76 77  1  0  0  0
 76 80  1  0  0  0
 76153  1  0  0  0
 76154  1  0  0  0
 77155  1  0  0  0
 78 80  1  0  0  0
 79156  1  0  0  0
M  ISO  4   1 100  68 101  75 101  79 100
M  END
> <chiral flag>
0

> <version>
0

> <s_m_source_file>
/data/baiqing/PycharmProjects/Reinvent-master-3.2/result/LINK_invent/BTK/process_docking_weight1_custom_sum_contain_oxygen_bond_distance_aromatic_linkinvent_7_9_3/rearranged_h_0108.sdf

> <i_m_source_file_index>
65

> <r_mmod_Potential_Energy-OPLS-2005>
419.842315673828

> <r_mmod_Stretch_Energy-OPLS-2005>
280.994293212891

> <r_mmod_Bend_Energy-OPLS-2005>
266.769683837891

> <r_mmod_Torsional_Energy-OPLS-2005>
223.508392333984

> <r_mmod_Improper_Torsional_Energy-OPLS-2005>
4.79594373703003

> <r_mmod_Van_der_Waal_Energy-OPLS-2005>
111.255126953125

> <r_mmod_Electrostatic_Energy-OPLS-2005>
-458.941833496094

> <r_mmod_Solvation_Energy-OPLS-2005>
-206.656524658203

> <b_mmod_Minimization_Converged-OPLS-2005>
0

> <r_mmod_RMS_Derivative-OPLS-2005>
5.89851570129395

$$$$
65
                    3D
 Structure written by MMmdl.
164172  0  0  1  0            999 V2000
  -30.6193  -14.7712   20.4248 C   0  0  0  0  0  0
  -30.4296  -12.4623   19.4880 C   0  0  0  0  0  0
  -29.5064  -12.4848   18.2505 C   0  0  0  0  0  0
  -28.0377  -12.3046   18.6750 C   0  0  0  0  0  0
  -27.6388  -13.2331   19.8513 C   0  0  2  0  0  0
  -28.6846  -13.2048   20.9885 C   0  0  0  0  0  0
  -25.2494  -13.8208   20.5717 C   0  0  0  0  0  0
  -24.1790  -13.0469   20.9229 C   0  0  0  0  0  0
  -24.6379  -11.6937   20.8771 C   0  0  0  0  0  0
  -23.9063  -10.4304   21.0431 C   0  0  0  0  0  0
  -24.3616   -9.4211   21.9202 C   0  0  0  0  0  0
  -23.6289   -8.2244   22.0749 C   0  0  0  0  0  0
  -22.4271   -8.0280   21.3543 C   0  0  0  0  0  0
  -21.9919   -9.0260   20.4644 C   0  0  0  0  0  0
  -22.7245  -10.2140   20.3067 C   0  0  0  0  0  0
  -21.6857   -6.0732   22.5277 C   0  0  0  0  0  0
  -21.4013   -6.5641   23.8209 C   0  0  0  0  0  0
  -21.3648   -5.6795   24.9172 C   0  0  0  0  0  0
  -21.6038   -4.3054   24.7227 C   0  0  0  0  0  0
  -21.8827   -3.8148   23.4353 C   0  0  0  0  0  0
  -21.9191   -4.6960   22.3404 C   0  0  0  0  0  0
  -22.7805  -13.5224   21.1900 C   0  0  0  0  0  0
  -22.1664   -4.2149   21.0980 F   0  0  0  0  0  0
  -21.5623   -3.4537   25.7742 F   0  0  0  0  0  0
  -29.9844  -13.5470   20.3956 N   0  0  0  0  0  0
  -26.2924  -12.9424   20.3317 N   0  0  0  0  0  0
  -25.9319  -11.6566   20.5819 N   0  0  0  0  0  0
  -22.0468  -12.8184   22.0434 N   0  0  0  0  0  0
  -25.4247  -15.1932   20.4123 N   0  0  0  0  0  0
  -31.8092  -14.8444   20.1070 O   0  0  0  0  0  0
  -21.6637   -6.8880   21.4242 O   0  0  0  0  0  0
  -22.3481  -14.5539   20.6757 O   0  0  0  0  0  0
  -24.6295  -31.8519   23.2006 C   0  0  0  0  0  0
  -25.9120  -32.4731   23.8321 C   0  0  1  0  0  0
  -27.2311  -27.2653   20.1264 C   0  0  0  0  0  0
  -25.5921  -33.8539   24.2222 N   0  0  0  0  0  0
  -23.4290  -30.4736   21.5455 C   0  0  2  0  0  0
  -24.8801  -28.9208   20.1098 C   0  0  0  0  0  0
  -22.7489  -29.4572   22.4964 C   0  0  0  0  0  0
  -18.0283  -28.1384   22.8477 C   0  0  0  0  0  0
  -24.1499  -36.7301   23.2637 C   0  0  0  0  0  0
  -25.9730  -30.7699   21.3758 C   0  0  0  0  0  0
  -26.0512  -29.3911   20.7177 C   0  0  0  0  0  0
  -27.2345  -28.5789   20.7077 C   0  0  0  0  0  0
  -26.0383  -26.8605   19.4907 C   0  0  0  0  0  0
  -24.8770  -27.6638   19.4840 C   0  0  0  0  0  0
  -23.6445  -29.8062   20.1624 C   0  0  0  0  0  0
  -25.4129  -36.3056   24.0302 C   0  0  1  0  0  0
  -20.5873  -28.3700   23.1302 C   0  0  2  0  0  0
  -20.6782  -26.9418   22.5443 C   0  0  0  0  0  0
  -19.5772  -26.6387   21.5227 C   0  0  0  0  0  0
  -18.1940  -26.7937   22.1619 C   0  0  0  0  0  0
  -19.1537  -28.8865   23.2858 C   0  0  0  0  0  0
  -18.9468  -30.1464   23.8874 C   0  0  0  0  0  0
  -17.6461  -30.6589   24.0565 C   0  0  0  0  0  0
  -25.9082  -34.9431   23.5078 C   0  0  0  0  0  0
  -16.5351  -29.9094   23.6346 C   0  0  0  0  0  0
  -16.7270  -28.6514   23.0340 C   0  0  0  0  0  0
  -26.4476  -31.6580   25.0715 C   0  0  0  0  0  0
  -25.3711  -31.3732   26.1452 C   0  0  0  0  0  0
  -27.0323  -30.2993   24.6226 C   0  0  0  0  0  0
  -27.6041  -32.4339   25.7466 C   0  0  0  0  0  0
  -27.5593  -37.1768   24.8444 C   0  0  0  0  0  0
  -21.4213  -29.3027   22.3679 N   0  0  0  0  0  0
  -26.4303  -37.3753   23.9397 N   0  0  0  0  0  0
  -24.6961  -31.0486   22.0979 N   0  0  0  0  0  0
  -23.4155  -28.8126   23.3088 O   0  0  0  0  0  0
  -28.3264  -26.3660   20.1309 O   0  0  0  0  0  0
  -26.5692  -34.8897   22.4665 O   0  0  0  0  0  0
  -23.5465  -32.1360   23.7314 O   0  0  0  0  0  0
  -28.9158  -18.7553   21.9653 C   0  0  0  0  0  0
  -29.6097  -20.0216   20.3057 C   0  0  0  0  0  0
  -29.5874  -18.6773   20.7208 C   0  0  0  0  0  0
  -28.6651  -20.0628   22.3352 C   0  0  0  0  0  0
  -28.0200  -19.2441   24.6518 C   0  0  0  0  0  0
  -26.8309  -21.2160   23.8038 C   0  0  0  0  0  0
  -29.2937  -21.3459   24.4254 C   0  0  0  0  0  0
  -30.2070  -17.3466   20.0820 C   0  0  0  0  0  0
  -28.9999  -22.4654   21.3425 C   0  0  0  0  0  0
  -28.1113  -24.9822   20.6904 C   0  0  0  0  0  0
  -28.7958  -23.5826   20.1821 C   0  0  2  0  0  0
  -28.2037  -20.4888   23.7426 C   0  0  0  0  0  0
  -29.0397  -20.9166   21.2614 N   0  0  0  0  0  0
  -29.8617  -15.9299   20.5605 N   0  0  0  0  0  0
  -28.0008  -23.0243   19.1462 O   0  0  0  0  0  0
  -31.4704  -12.5735   19.1802 H   0  0  0  0  0  0
  -30.3715  -11.4981   19.9949 H   0  0  0  0  0  0
  -29.7885  -11.6937   17.5554 H   0  0  0  0  0  0
  -29.6211  -13.4257   17.7112 H   0  0  0  0  0  0
  -27.9176  -11.2632   18.9769 H   0  0  0  0  0  0
  -27.3696  -12.4500   17.8250 H   0  0  0  0  0  0
  -27.6232  -14.2437   19.4409 H   0  0  0  0  0  0
  -28.7235  -12.2229   21.4607 H   0  0  0  0  0  0
  -28.4176  -13.9147   21.7731 H   0  0  0  0  0  0
  -25.2757   -9.5681   22.4785 H   0  0  0  0  0  0
  -23.9996   -7.4631   22.7459 H   0  0  0  0  0  0
  -21.0861   -8.8794   19.8942 H   0  0  0  0  0  0
  -22.3720  -10.9694   19.6174 H   0  0  0  0  0  0
  -21.2012   -7.6150   23.9718 H   0  0  0  0  0  0
  -21.1454   -6.0517   25.9070 H   0  0  0  0  0  0
  -22.0613   -2.7615   23.2854 H   0  0  0  0  0  0
  -22.4088  -11.9806   22.4765 H   0  0  0  0  0  0
  -21.1101  -13.1206   22.2719 H   0  0  0  0  0  0
  -24.6700  -15.8603   20.5228 H   0  0  0  0  0  0
  -26.2830  -15.6240   20.0972 H   0  0  0  0  0  0
  -26.7147  -32.5393   23.1025 H   0  0  0  0  0  0
  -24.9921  -33.9650   25.0281 H   0  0  0  0  0  0
  -22.7260  -31.2966   21.3969 H   0  0  0  0  0  0
  -23.3749  -35.9648   23.3279 H   0  0  0  0  0  0
  -24.3570  -36.9006   22.2058 H   0  0  0  0  0  0
  -23.7294  -37.6500   23.6721 H   0  0  0  0  0  0
  -26.1073  -31.5347   20.6097 H   0  0  0  0  0  0
  -26.8488  -30.8208   22.0120 H   0  0  0  0  0  0
  -28.1397  -28.9345   21.1829 H   0  0  0  0  0  0
  -26.0007  -25.9017   18.9909 H   0  0  0  0  0  0
  -23.9844  -27.3026   18.9951 H   0  0  0  0  0  0
  -23.7562  -30.5825   19.4041 H   0  0  0  0  0  0
  -22.7645  -29.2345   19.8648 H   0  0  0  0  0  0
  -25.1283  -36.1905   25.0791 H   0  0  0  0  0  0
  -20.9917  -28.3301   24.1443 H   0  0  0  0  0  0
  -20.5776  -26.2267   23.3634 H   0  0  0  0  0  0
  -21.6650  -26.7534   22.1188 H   0  0  0  0  0  0
  -19.6987  -25.6308   21.1252 H   0  0  0  0  0  0
  -19.6749  -27.3221   20.6780 H   0  0  0  0  0  0
  -17.4225  -26.6700   21.3981 H   0  0  0  0  0  0
  -18.0299  -26.0078   22.9012 H   0  0  0  0  0  0
  -19.7955  -30.7241   24.2249 H   0  0  0  0  0  0
  -17.5052  -31.6274   24.5156 H   0  0  0  0  0  0
  -15.5363  -30.2963   23.7726 H   0  0  0  0  0  0
  -15.8662  -28.0827   22.7048 H   0  0  0  0  0  0
  -24.5953  -30.6990   25.7784 H   0  0  0  0  0  0
  -24.8789  -32.2872   26.4791 H   0  0  0  0  0  0
  -25.8013  -30.9002   27.0295 H   0  0  0  0  0  0
  -26.2899  -29.6720   24.1271 H   0  0  0  0  0  0
  -27.3998  -29.7249   25.4746 H   0  0  0  0  0  0
  -27.8773  -30.4196   23.9441 H   0  0  0  0  0  0
  -27.2699  -33.3704   26.1936 H   0  0  0  0  0  0
  -28.3886  -32.6831   25.0303 H   0  0  0  0  0  0
  -28.0667  -31.8548   26.5474 H   0  0  0  0  0  0
  -28.2534  -38.0117   24.7499 H   0  0  0  0  0  0
  -28.1124  -36.2632   24.6222 H   0  0  0  0  0  0
  -27.2269  -37.1381   25.8826 H   0  0  0  0  0  0
  -20.9435  -29.8695   21.6816 H   0  0  0  0  0  0
  -26.0177  -38.2812   24.1453 H   0  0  0  0  0  0
  -28.7318  -17.8944   22.5937 H   0  0  0  0  0  0
  -30.0550  -20.4395   19.4107 H   0  0  0  0  0  0
  -27.2421  -18.5793   24.2728 H   0  0  0  0  0  0
  -27.7291  -19.5195   25.6663 H   0  0  0  0  0  0
  -28.9398  -18.6650   24.7403 H   0  0  0  0  0  0
  -26.0389  -20.6367   23.3300 H   0  0  0  0  0  0
  -26.8019  -22.2131   23.3780 H   0  0  0  0  0  0
  -26.5266  -21.3618   24.8418 H   0  0  0  0  0  0
  -30.2737  -20.8684   24.3545 H   0  0  0  0  0  0
  -29.0881  -21.4979   25.4864 H   0  0  0  0  0  0
  -29.3861  -22.3366   23.9891 H   0  0  0  0  0  0
  -31.2902  -17.4658   20.1390 H   0  0  0  0  0  0
  -29.9861  -17.3804   19.0126 H   0  0  0  0  0  0
  -28.1825  -22.6966   22.0067 H   0  0  0  0  0  0
  -29.8913  -22.7642   21.8917 H   0  0  0  0  0  0
  -28.4713  -25.1077   21.7130 H   0  0  0  0  0  0
  -27.0468  -24.7912   20.8221 H   0  0  0  0  0  0
  -29.7852  -23.8008   19.7697 H   0  0  0  0  0  0
  -28.8921  -15.7843   20.7966 H   0  0  0  0  0  0
  -28.3542  -22.1588   18.9553 H   0  0  0  0  0  0
  1 25  1  0  0  0
  1 30  2  0  0  0
  1 84  1  0  0  0
  2  3  1  0  0  0
  2 25  1  0  0  0
  2 86  1  0  0  0
  2 87  1  0  0  0
  3  4  1  0  0  0
  3 88  1  0  0  0
  3 89  1  0  0  0
  4  5  1  0  0  0
  4 90  1  0  0  0
  4 91  1  0  0  0
  5  6  1  0  0  0
  5 26  1  0  0  0
  5 92  1  0  0  0
  6 25  1  0  0  0
  6 93  1  0  0  0
  6 94  1  0  0  0
  7  8  2  0  0  0
  7 26  1  0  0  0
  7 29  1  0  0  0
  8  9  1  0  0  0
  8 22  1  0  0  0
  9 10  1  0  0  0
  9 27  2  0  0  0
 10 11  2  0  0  0
 10 15  1  0  0  0
 11 12  1  0  0  0
 11 95  1  0  0  0
 12 13  2  0  0  0
 12 96  1  0  0  0
 13 14  1  0  0  0
 13 31  1  0  0  0
 14 15  2  0  0  0
 14 97  1  0  0  0
 15 98  1  0  0  0
 16 17  2  0  0  0
 16 21  1  0  0  0
 16 31  1  0  0  0
 17 18  1  0  0  0
 17 99  1  0  0  0
 18 19  2  0  0  0
 18100  1  0  0  0
 19 20  1  0  0  0
 19 24  1  0  0  0
 20 21  2  0  0  0
 20101  1  0  0  0
 21 23  1  0  0  0
 22 28  1  0  0  0
 22 32  2  0  0  0
 26 27  1  0  0  0
 28102  1  0  0  0
 28103  1  0  0  0
 29104  1  0  0  0
 29105  1  0  0  0
 33 34  1  0  0  0
 33 66  1  0  0  0
 33 70  2  0  0  0
 34 36  1  0  0  0
 34 59  1  0  0  0
 34106  1  0  0  0
 35 44  2  0  0  0
 35 45  1  0  0  0
 35 68  1  0  0  0
 36 56  1  0  0  0
 36107  1  0  0  0
 37 39  1  0  0  0
 37 47  1  0  0  0
 37 66  1  0  0  0
 37108  1  0  0  0
 38 43  2  0  0  0
 38 46  1  0  0  0
 38 47  1  0  0  0
 39 64  1  0  0  0
 39 67  2  0  0  0
 40 52  1  0  0  0
 40 53  2  0  0  0
 40 58  1  0  0  0
 41109  1  0  0  0
 41110  1  0  0  0
 41111  1  0  0  0
 41 48  1  0  0  0
 42 43  1  0  0  0
 42 66  1  0  0  0
 42112  1  0  0  0
 42113  1  0  0  0
 43 44  1  0  0  0
 44114  1  0  0  0
 45 46  2  0  0  0
 45115  1  0  0  0
 46116  1  0  0  0
 47117  1  0  0  0
 47118  1  0  0  0
 48 56  1  0  0  0
 48 65  1  0  0  0
 48119  1  0  0  0
 49 50  1  0  0  0
 49 53  1  0  0  0
 49 64  1  0  0  0
 49120  1  0  0  0
 50 51  1  0  0  0
 50121  1  0  0  0
 50122  1  0  0  0
 51 52  1  0  0  0
 51123  1  0  0  0
 51124  1  0  0  0
 52125  1  0  0  0
 52126  1  0  0  0
 53 54  1  0  0  0
 54 55  2  0  0  0
 54127  1  0  0  0
 55 57  1  0  0  0
 55128  1  0  0  0
 56 69  2  0  0  0
 57 58  2  0  0  0
 57129  1  0  0  0
 58130  1  0  0  0
 59 60  1  0  0  0
 59 61  1  0  0  0
 59 62  1  0  0  0
 60131  1  0  0  0
 60132  1  0  0  0
 60133  1  0  0  0
 61134  1  0  0  0
 61135  1  0  0  0
 61136  1  0  0  0
 62137  1  0  0  0
 62138  1  0  0  0
 62139  1  0  0  0
 63 65  1  0  0  0
 63140  1  0  0  0
 63141  1  0  0  0
 63142  1  0  0  0
 64143  1  0  0  0
 65144  1  0  0  0
 68 80  1  0  0  0
 71 73  1  0  0  0
 71 74  2  0  0  0
 71145  1  0  0  0
 72 73  2  0  0  0
 72 83  1  0  0  0
 72146  1  0  0  0
 73 78  1  0  0  0
 74 82  1  0  0  0
 74 83  1  0  0  0
 75147  1  0  0  0
 75148  1  0  0  0
 75149  1  0  0  0
 75 82  1  0  0  0
 76 82  1  0  0  0
 76150  1  0  0  0
 76151  1  0  0  0
 76152  1  0  0  0
 77 82  1  0  0  0
 77153  1  0  0  0
 77154  1  0  0  0
 77155  1  0  0  0
 78 84  1  0  0  0
 78156  1  0  0  0
 78157  1  0  0  0
 79 81  1  0  0  0
 79 83  1  0  0  0
 79158  1  0  0  0
 79159  1  0  0  0
 80 81  1  0  0  0
 80160  1  0  0  0
 80161  1  0  0  0
 81 85  1  0  0  0
 81162  1  0  0  0
 84163  1  0  0  0
 85164  1  0  0  0
M  ISO  4   1 100  68 101  80 101  84 100
M  END
> <chiral flag>
0

> <version>
0

> <s_m_source_file>
/data/baiqing/PycharmProjects/Reinvent-master-3.2/result/LINK_invent/BTK/process_docking_weight1_custom_sum_contain_oxygen_bond_distance_aromatic_linkinvent_7_9_3/rearranged_h_0108.sdf

> <i_m_source_file_index>
66

> <r_mmod_Potential_Energy-OPLS-2005>
187.199951171875

> <r_mmod_Stretch_Energy-OPLS-2005>
141.50764465332

> <r_mmod_Bend_Energy-OPLS-2005>
224.785919189453

> <r_mmod_Torsional_Energy-OPLS-2005>
246.155868530273

> <r_mmod_Improper_Torsional_Energy-OPLS-2005>
8.40628242492676

> <r_mmod_Van_der_Waal_Energy-OPLS-2005>
125.49951171875

> <r_mmod_Electrostatic_Energy-OPLS-2005>
-426.129516601562

> <r_mmod_Solvation_Energy-OPLS-2005>
-224.826156616211

> <b_mmod_Minimization_Converged-OPLS-2005>
0

> <r_mmod_RMS_Derivative-OPLS-2005>
5.19227409362793

$$$$
66
                    3D
 Structure written by MMmdl.
162170  0  0  1  0            999 V2000
  -30.5388  -14.9351   20.4194 C   0  0  0  0  0  0
  -30.4378  -12.5775   19.4942 C   0  0  0  0  0  0
  -29.5183  -12.5279   18.2513 C   0  0  0  0  0  0
  -28.0495  -12.3193   18.6673 C   0  0  0  0  0  0
  -27.6283  -13.2469   19.8374 C   0  0  2  0  0  0
  -28.6720  -13.2651   20.9743 C   0  0  0  0  0  0
  -25.2451  -13.8212   20.5700 C   0  0  0  0  0  0
  -24.1775  -13.0436   20.9238 C   0  0  0  0  0  0
  -24.6389  -11.6922   20.8758 C   0  0  0  0  0  0
  -23.9075  -10.4289   21.0407 C   0  0  0  0  0  0
  -24.3622   -9.4205   21.9183 C   0  0  0  0  0  0
  -23.6295   -8.2241   22.0754 C   0  0  0  0  0  0
  -22.4278   -8.0279   21.3544 C   0  0  0  0  0  0
  -21.9916   -9.0253   20.4646 C   0  0  0  0  0  0
  -22.7246  -10.2132   20.3055 C   0  0  0  0  0  0
  -21.6854   -6.0736   22.5277 C   0  0  0  0  0  0
  -21.4015   -6.5641   23.8212 C   0  0  0  0  0  0
  -21.3663   -5.6793   24.9172 C   0  0  0  0  0  0
  -21.6043   -4.3055   24.7222 C   0  0  0  0  0  0
  -21.8820   -3.8148   23.4344 C   0  0  0  0  0  0
  -21.9193   -4.6966   22.3401 C   0  0  0  0  0  0
  -22.7796  -13.5206   21.1889 C   0  0  0  0  0  0
  -22.1659   -4.2150   21.0978 F   0  0  0  0  0  0
  -21.5630   -3.4540   25.7737 F   0  0  0  0  0  0
  -29.9485  -13.6742   20.3760 N   0  0  0  0  0  0
  -26.2874  -12.9444   20.3235 N   0  0  0  0  0  0
  -25.9319  -11.6575   20.5736 N   0  0  0  0  0  0
  -22.0445  -12.8189   22.0444 N   0  0  0  0  0  0
  -25.4099  -15.1937   20.4092 N   0  0  0  0  0  0
  -31.7419  -15.0113   20.1512 O   0  0  0  0  0  0
  -21.6642   -6.8878   21.4239 O   0  0  0  0  0  0
  -22.3479  -14.5510   20.6733 O   0  0  0  0  0  0
  -24.6445  -31.8436   23.1880 C   0  0  0  0  0  0
  -25.9217  -32.4694   23.8276 C   0  0  1  0  0  0
  -27.2146  -27.1300   20.1484 C   0  0  0  0  0  0
  -25.5978  -33.8504   24.2196 N   0  0  0  0  0  0
  -23.4478  -30.4627   21.5343 C   0  0  2  0  0  0
  -24.8954  -28.8889   20.1111 C   0  0  0  0  0  0
  -22.7573  -29.4546   22.4865 C   0  0  0  0  0  0
  -18.0307  -28.1386   22.8474 C   0  0  0  0  0  0
  -24.1492  -36.7248   23.2640 C   0  0  0  0  0  0
  -26.0043  -30.7150   21.3874 C   0  0  0  0  0  0
  -26.0747  -29.3258   20.7280 C   0  0  0  0  0  0
  -27.2358  -28.4640   20.7272 C   0  0  0  0  0  0
  -26.0073  -26.7960   19.4956 C   0  0  0  0  0  0
  -24.8745  -27.6371   19.4802 C   0  0  0  0  0  0
  -23.6730  -29.7919   20.1542 C   0  0  0  0  0  0
  -25.4126  -36.3027   24.0312 C   0  0  1  0  0  0
  -20.5920  -28.3715   23.1231 C   0  0  2  0  0  0
  -20.6793  -26.9419   22.5397 C   0  0  0  0  0  0
  -19.5765  -26.6373   21.5207 C   0  0  0  0  0  0
  -18.1947  -26.7926   22.1616 C   0  0  0  0  0  0
  -19.1561  -28.8871   23.2843 C   0  0  0  0  0  0
  -18.9478  -30.1469   23.8863 C   0  0  0  0  0  0
  -17.6471  -30.6584   24.0555 C   0  0  0  0  0  0
  -25.9076  -34.9406   23.5054 C   0  0  0  0  0  0
  -16.5364  -29.9068   23.6342 C   0  0  0  0  0  0
  -16.7290  -28.6489   23.0362 C   0  0  0  0  0  0
  -26.4543  -31.6565   25.0719 C   0  0  0  0  0  0
  -25.3731  -31.3746   26.1410 C   0  0  0  0  0  0
  -27.0418  -30.2964   24.6311 C   0  0  0  0  0  0
  -27.6071  -32.4335   25.7507 C   0  0  0  0  0  0
  -27.5572  -37.1779   24.8466 C   0  0  0  0  0  0
  -21.4265  -29.3043   22.3611 N   0  0  0  0  0  0
  -26.4287  -37.3742   23.9402 N   0  0  0  0  0  0
  -24.7189  -31.0284   22.0917 N   0  0  0  0  0  0
  -23.4214  -28.8095   23.3023 O   0  0  0  0  0  0
  -28.2658  -26.1412   20.2132 O   0  0  0  0  0  0
  -26.5649  -34.8903   22.4624 O   0  0  0  0  0  0
  -23.5564  -32.1317   23.7088 O   0  0  0  0  0  0
  -30.3411  -18.2995   19.1129 C   0  0  0  0  0  0
  -30.0382  -17.6640   20.4998 C   0  0  1  0  0  0
  -29.5064  -20.2740   20.4194 C   0  0  2  0  0  0
  -28.9927  -18.8213   20.9857 C   0  0  0  0  0  0
  -27.5771  -18.5139   20.4518 C   0  0  0  0  0  0
  -28.9265  -18.8408   22.5222 C   0  0  0  0  0  0
  -30.1666  -23.4889   19.2838 C   0  0  0  0  0  0
  -28.5535  -21.6784   20.2792 C   0  0  0  0  0  0
  -27.9702  -24.6117   20.1030 C   0  0  0  0  0  0
  -29.0285  -23.3065   20.2959 C   0  0  2  0  0  0
  -29.7451  -16.1058   20.5544 N   0  0  0  0  0  0
  -30.1833  -19.8061   19.1730 N   0  3  0  0  0  0
  -31.4726  -12.7339   19.1854 H   0  0  0  0  0  0
  -30.4252  -11.6229   20.0235 H   0  0  0  0  0  0
  -29.8331  -11.7307   17.5764 H   0  0  0  0  0  0
  -29.6103  -13.4595   17.6906 H   0  0  0  0  0  0
  -27.9381  -11.2768   18.9668 H   0  0  0  0  0  0
  -27.3873  -12.4612   17.8119 H   0  0  0  0  0  0
  -27.5933  -14.2513   19.4146 H   0  0  0  0  0  0
  -28.7552  -12.2850   21.4467 H   0  0  0  0  0  0
  -28.3754  -13.9630   21.7593 H   0  0  0  0  0  0
  -25.2763   -9.5685   22.4764 H   0  0  0  0  0  0
  -24.0006   -7.4634   22.7473 H   0  0  0  0  0  0
  -21.0846   -8.8768   19.8949 H   0  0  0  0  0  0
  -22.3697  -10.9671   19.6167 H   0  0  0  0  0  0
  -21.2008   -7.6148   23.9717 H   0  0  0  0  0  0
  -21.1483   -6.0521   25.9077 H   0  0  0  0  0  0
  -22.0596   -2.7609   23.2841 H   0  0  0  0  0  0
  -22.4059  -11.9844   22.4821 H   0  0  0  0  0  0
  -21.1061  -13.1210   22.2652 H   0  0  0  0  0  0
  -24.6339  -15.8385   20.5136 H   0  0  0  0  0  0
  -26.2356  -15.6296   20.0224 H   0  0  0  0  0  0
  -26.7280  -32.5295   23.1003 H   0  0  0  0  0  0
  -25.0157  -33.9633   25.0365 H   0  0  0  0  0  0
  -22.7507  -31.2888   21.3796 H   0  0  0  0  0  0
  -23.3767  -35.9566   23.3290 H   0  0  0  0  0  0
  -24.3580  -36.8893   22.2057 H   0  0  0  0  0  0
  -23.7234  -37.6436   23.6688 H   0  0  0  0  0  0
  -26.1633  -31.4700   20.6162 H   0  0  0  0  0  0
  -26.8743  -30.7625   22.0310 H   0  0  0  0  0  0
  -28.1349  -28.7944   21.2278 H   0  0  0  0  0  0
  -25.8999  -25.8413   19.0047 H   0  0  0  0  0  0
  -23.9737  -27.2955   18.9886 H   0  0  0  0  0  0
  -23.8095  -30.5658   19.3979 H   0  0  0  0  0  0
  -22.7871  -29.2335   19.8449 H   0  0  0  0  0  0
  -25.1315  -36.1855   25.0806 H   0  0  0  0  0  0
  -21.0010  -28.3295   24.1353 H   0  0  0  0  0  0
  -20.5685  -26.2332   23.3616 H   0  0  0  0  0  0
  -21.6659  -26.7421   22.1195 H   0  0  0  0  0  0
  -19.6929  -25.6277   21.1256 H   0  0  0  0  0  0
  -19.6702  -27.3164   20.6725 H   0  0  0  0  0  0
  -17.4220  -26.6678   21.4017 H   0  0  0  0  0  0
  -18.0339  -26.0068   22.9011 H   0  0  0  0  0  0
  -19.7953  -30.7298   24.2214 H   0  0  0  0  0  0
  -17.5022  -31.6264   24.5155 H   0  0  0  0  0  0
  -15.5362  -30.2955   23.7686 H   0  0  0  0  0  0
  -15.8693  -28.0791   22.7099 H   0  0  0  0  0  0
  -24.5929  -30.7077   25.7726 H   0  0  0  0  0  0
  -24.8904  -32.2921   26.4785 H   0  0  0  0  0  0
  -25.8016  -30.8957   27.0222 H   0  0  0  0  0  0
  -26.3040  -29.6674   24.1320 H   0  0  0  0  0  0
  -27.4032  -29.7282   25.4893 H   0  0  0  0  0  0
  -27.8948  -30.4208   23.9637 H   0  0  0  0  0  0
  -27.2676  -33.3669   26.2012 H   0  0  0  0  0  0
  -28.3923  -32.6838   25.0362 H   0  0  0  0  0  0
  -28.0697  -31.8511   26.5485 H   0  0  0  0  0  0
  -28.2579  -38.0086   24.7517 H   0  0  0  0  0  0
  -28.1082  -36.2615   24.6293 H   0  0  0  0  0  0
  -27.2294  -37.1419   25.8871 H   0  0  0  0  0  0
  -20.9473  -29.8758   21.6791 H   0  0  0  0  0  0
  -26.0154  -38.2807   24.1414 H   0  0  0  0  0  0
  -29.6417  -17.9134   18.3706 H   0  0  0  0  0  0
  -31.3400  -18.0354   18.7649 H   0  0  0  0  0  0
  -30.9435  -17.7918   21.0960 H   0  0  0  0  0  0
  -30.3250  -20.5620   21.0803 H   0  0  0  0  0  0
  -27.5348  -18.4962   19.3631 H   0  0  0  0  0  0
  -26.8569  -19.2614   20.7867 H   0  0  0  0  0  0
  -27.2221  -17.5470   20.8066 H   0  0  0  0  0  0
  -29.9032  -19.0463   22.9618 H   0  0  0  0  0  0
  -28.5877  -17.8823   22.9167 H   0  0  0  0  0  0
  -28.2398  -19.6076   22.8828 H   0  0  0  0  0  0
  -31.0019  -22.8234   19.5000 H   0  0  0  0  0  0
  -30.5518  -24.5091   19.3084 H   0  0  0  0  0  0
  -29.8277  -23.2905   18.2666 H   0  0  0  0  0  0
  -27.8412  -21.6063   21.1013 H   0  0  0  0  0  0
  -27.9318  -21.5424   19.3941 H   0  0  0  0  0  0
  -27.1461  -24.4303   20.7937 H   0  0  0  0  0  0
  -27.5430  -24.4645   19.1118 H   0  0  0  0  0  0
  -29.4694  -23.4569   21.2822 H   0  0  0  0  0  0
  -28.7735  -15.8926   20.7188 H   0  0  0  0  0  0
  -29.6517  -20.0929   18.3679 H   0  0  0  0  0  0
  -31.0906  -20.2379   19.1066 H   0  0  0  0  0  0
  1 25  1  0  0  0
  1 30  2  0  0  0
  1 81  1  0  0  0
  2  3  1  0  0  0
  2 25  1  0  0  0
  2 83  1  0  0  0
  2 84  1  0  0  0
  3  4  1  0  0  0
  3 85  1  0  0  0
  3 86  1  0  0  0
  4  5  1  0  0  0
  4 87  1  0  0  0
  4 88  1  0  0  0
  5  6  1  0  0  0
  5 26  1  0  0  0
  5 89  1  0  0  0
  6 25  1  0  0  0
  6 90  1  0  0  0
  6 91  1  0  0  0
  7  8  2  0  0  0
  7 26  1  0  0  0
  7 29  1  0  0  0
  8  9  1  0  0  0
  8 22  1  0  0  0
  9 10  1  0  0  0
  9 27  2  0  0  0
 10 11  2  0  0  0
 10 15  1  0  0  0
 11 12  1  0  0  0
 11 92  1  0  0  0
 12 13  2  0  0  0
 12 93  1  0  0  0
 13 14  1  0  0  0
 13 31  1  0  0  0
 14 15  2  0  0  0
 14 94  1  0  0  0
 15 95  1  0  0  0
 16 17  2  0  0  0
 16 21  1  0  0  0
 16 31  1  0  0  0
 17 18  1  0  0  0
 17 96  1  0  0  0
 18 19  2  0  0  0
 18 97  1  0  0  0
 19 20  1  0  0  0
 19 24  1  0  0  0
 20 21  2  0  0  0
 20 98  1  0  0  0
 21 23  1  0  0  0
 22 28  1  0  0  0
 22 32  2  0  0  0
 26 27  1  0  0  0
 28 99  1  0  0  0
 28100  1  0  0  0
 29101  1  0  0  0
 29102  1  0  0  0
 33 34  1  0  0  0
 33 66  1  0  0  0
 33 70  2  0  0  0
 34 36  1  0  0  0
 34 59  1  0  0  0
 34103  1  0  0  0
 35 44  2  0  0  0
 35 45  1  0  0  0
 35 68  1  0  0  0
 36 56  1  0  0  0
 36104  1  0  0  0
 37 39  1  0  0  0
 37 47  1  0  0  0
 37 66  1  0  0  0
 37105  1  0  0  0
 38 43  2  0  0  0
 38 46  1  0  0  0
 38 47  1  0  0  0
 39 64  1  0  0  0
 39 67  2  0  0  0
 40 52  1  0  0  0
 40 53  2  0  0  0
 40 58  1  0  0  0
 41106  1  0  0  0
 41107  1  0  0  0
 41108  1  0  0  0
 41 48  1  0  0  0
 42 43  1  0  0  0
 42 66  1  0  0  0
 42109  1  0  0  0
 42110  1  0  0  0
 43 44  1  0  0  0
 44111  1  0  0  0
 45 46  2  0  0  0
 45112  1  0  0  0
 46113  1  0  0  0
 47114  1  0  0  0
 47115  1  0  0  0
 48 56  1  0  0  0
 48 65  1  0  0  0
 48116  1  0  0  0
 49 50  1  0  0  0
 49 53  1  0  0  0
 49 64  1  0  0  0
 49117  1  0  0  0
 50 51  1  0  0  0
 50118  1  0  0  0
 50119  1  0  0  0
 51 52  1  0  0  0
 51120  1  0  0  0
 51121  1  0  0  0
 52122  1  0  0  0
 52123  1  0  0  0
 53 54  1  0  0  0
 54 55  2  0  0  0
 54124  1  0  0  0
 55 57  1  0  0  0
 55125  1  0  0  0
 56 69  2  0  0  0
 57 58  2  0  0  0
 57126  1  0  0  0
 58127  1  0  0  0
 59 60  1  0  0  0
 59 61  1  0  0  0
 59 62  1  0  0  0
 60128  1  0  0  0
 60129  1  0  0  0
 60130  1  0  0  0
 61131  1  0  0  0
 61132  1  0  0  0
 61133  1  0  0  0
 62134  1  0  0  0
 62135  1  0  0  0
 62136  1  0  0  0
 63 65  1  0  0  0
 63137  1  0  0  0
 63138  1  0  0  0
 63139  1  0  0  0
 64140  1  0  0  0
 65141  1  0  0  0
 68 79  1  0  0  0
 71 72  1  0  0  0
 71 82  1  0  0  0
 71142  1  0  0  0
 71143  1  0  0  0
 72 74  1  0  0  0
 72 81  1  0  0  0
 72144  1  0  0  0
 73 74  1  0  0  0
 73 78  1  0  0  0
 73 82  1  0  0  0
 73145  1  0  0  0
 74 75  1  0  0  0
 74 76  1  0  0  0
 75146  1  0  0  0
 75147  1  0  0  0
 75148  1  0  0  0
 76149  1  0  0  0
 76150  1  0  0  0
 76151  1  0  0  0
 77152  1  0  0  0
 77153  1  0  0  0
 77154  1  0  0  0
 77 80  1  0  0  0
 78 80  1  0  0  0
 78155  1  0  0  0
 78156  1  0  0  0
 79 80  1  0  0  0
 79157  1  0  0  0
 79158  1  0  0  0
 80159  1  0  0  0
 81160  1  0  0  0
 82161  1  0  0  0
 82162  1  0  0  0
M  CHG  1  82   1
M  ISO  4   1 100  68 101  79 101  81 100
M  END
> <chiral flag>
0

> <version>
0

> <s_m_source_file>
/data/baiqing/PycharmProjects/Reinvent-master-3.2/result/LINK_invent/BTK/process_docking_weight1_custom_sum_contain_oxygen_bond_distance_aromatic_linkinvent_7_9_3/rearranged_h_0108.sdf

> <i_m_source_file_index>
67

> <r_mmod_Potential_Energy-OPLS-2005>
350.511016845703

> <r_mmod_Stretch_Energy-OPLS-2005>
260.670257568359

> <r_mmod_Bend_Energy-OPLS-2005>
289.593536376953

> <r_mmod_Torsional_Energy-OPLS-2005>
300.52783203125

> <r_mmod_Improper_Torsional_Energy-OPLS-2005>
4.59493923187256

> <r_mmod_Van_der_Waal_Energy-OPLS-2005>
103.039093017578

> <r_mmod_Electrostatic_Energy-OPLS-2005>
-331.226806640625

> <r_mmod_Solvation_Energy-OPLS-2005>
-467.077850341797

> <b_mmod_Minimization_Converged-OPLS-2005>
0

> <r_mmod_RMS_Derivative-OPLS-2005>
0.936511814594269

$$$$
67
                    3D
 Structure written by MMmdl.
163171  0  0  1  0            999 V2000
  -30.6496  -14.6433   20.4439 C   0  0  0  0  0  0
  -30.4283  -12.3731   19.4664 C   0  0  0  0  0  0
  -29.5192  -12.5050   18.2252 C   0  0  0  0  0  0
  -28.0385  -12.3429   18.6238 C   0  0  0  0  0  0
  -27.6546  -13.2260   19.8424 C   0  0  2  0  0  0
  -28.7004  -13.1084   20.9794 C   0  0  0  0  0  0
  -25.2589  -13.8195   20.5551 C   0  0  0  0  0  0
  -24.1867  -13.0451   20.9122 C   0  0  0  0  0  0
  -24.6456  -11.6924   20.8670 C   0  0  0  0  0  0
  -23.9133  -10.4293   21.0335 C   0  0  0  0  0  0
  -24.3694   -9.4228   21.9109 C   0  0  0  0  0  0
  -23.6387   -8.2263   22.0725 C   0  0  0  0  0  0
  -22.4356   -8.0297   21.3524 C   0  0  0  0  0  0
  -21.9984   -9.0258   20.4630 C   0  0  0  0  0  0
  -22.7305  -10.2135   20.2998 C   0  0  0  0  0  0
  -21.6862   -6.0774   22.5276 C   0  0  0  0  0  0
  -21.4004   -6.5671   23.8207 C   0  0  0  0  0  0
  -21.3669   -5.6790   24.9165 C   0  0  0  0  0  0
  -21.6091   -4.3069   24.7177 C   0  0  0  0  0  0
  -21.8826   -3.8164   23.4282 C   0  0  0  0  0  0
  -21.9177   -4.6988   22.3356 C   0  0  0  0  0  0
  -22.7865  -13.5234   21.1815 C   0  0  0  0  0  0
  -22.1641   -4.2207   21.0911 F   0  0  0  0  0  0
  -21.5652   -3.4519   25.7669 F   0  0  0  0  0  0
  -30.0208  -13.4266   20.4149 N   0  0  0  0  0  0
  -26.3012  -12.9398   20.3168 N   0  0  0  0  0  0
  -25.9402  -11.6555   20.5667 N   0  0  0  0  0  0
  -22.0499  -12.8246   22.0346 N   0  0  0  0  0  0
  -25.4223  -15.1904   20.3913 N   0  0  0  0  0  0
  -31.8306  -14.7522   20.1024 O   0  0  0  0  0  0
  -21.6682   -6.8923   21.4257 O   0  0  0  0  0  0
  -22.3529  -14.5535   20.6664 O   0  0  0  0  0  0
  -24.6218  -31.8646   23.1990 C   0  0  0  0  0  0
  -25.9115  -32.4776   23.8279 C   0  0  1  0  0  0
  -27.2503  -27.3910   20.0791 C   0  0  0  0  0  0
  -25.5976  -33.8572   24.2237 N   0  0  0  0  0  0
  -23.4106  -30.4883   21.5360 C   0  0  2  0  0  0
  -24.8580  -28.9386   20.1147 C   0  0  0  0  0  0
  -22.7432  -29.4717   22.4902 C   0  0  0  0  0  0
  -18.0291  -28.1467   22.8445 C   0  0  0  0  0  0
  -24.1507  -36.7312   23.2630 C   0  0  0  0  0  0
  -25.9436  -30.8104   21.3609 C   0  0  0  0  0  0
  -26.0189  -29.4372   20.7168 C   0  0  0  0  0  0
  -27.2076  -28.6640   20.7093 C   0  0  0  0  0  0
  -26.0691  -26.9251   19.4561 C   0  0  0  0  0  0
  -24.8780  -27.6796   19.4934 C   0  0  0  0  0  0
  -23.6224  -29.8099   20.1555 C   0  0  0  0  0  0
  -25.4115  -36.3078   24.0325 C   0  0  1  0  0  0
  -20.5891  -28.3776   23.1265 C   0  0  2  0  0  0
  -20.6826  -26.9512   22.5415 C   0  0  0  0  0  0
  -19.5821  -26.6442   21.5217 C   0  0  0  0  0  0
  -18.1968  -26.8013   22.1578 C   0  0  0  0  0  0
  -19.1543  -28.8925   23.2854 C   0  0  0  0  0  0
  -18.9498  -30.1519   23.8874 C   0  0  0  0  0  0
  -17.6515  -30.6647   24.0601 C   0  0  0  0  0  0
  -25.9062  -34.9443   23.5073 C   0  0  0  0  0  0
  -16.5387  -29.9187   23.6348 C   0  0  0  0  0  0
  -16.7279  -28.6633   23.0305 C   0  0  0  0  0  0
  -26.4522  -31.6606   25.0651 C   0  0  0  0  0  0
  -25.3751  -31.3816   26.1397 C   0  0  0  0  0  0
  -27.0346  -30.3000   24.6140 C   0  0  0  0  0  0
  -27.6023  -32.4365   25.7487 C   0  0  0  0  0  0
  -27.5582  -37.1807   24.8439 C   0  0  0  0  0  0
  -21.4160  -29.3125   22.3628 N   0  0  0  0  0  0
  -26.4282  -37.3774   23.9422 N   0  0  0  0  0  0
  -24.6761  -31.0722   22.0872 N   0  0  0  0  0  0
  -23.4184  -28.8267   23.2951 O   0  0  0  0  0  0
  -28.4251  -26.6448   20.1516 O   0  0  0  0  0  0
  -26.5592  -34.8938   22.4607 O   0  0  0  0  0  0
  -23.5421  -32.1440   23.7368 O   0  0  0  0  0  0
  -29.1995  -18.2149   20.9181 C   0  0  0  0  0  0
  -29.9762  -17.1517   20.3284 C   0  0  0  0  0  0
  -29.3810  -19.3982   20.2075 C   0  0  0  0  0  0
  -30.6665  -17.7051   19.2765 C   0  0  0  0  0  0
  -31.5774  -17.0863   18.2514 C   0  0  0  0  0  0
  -27.4529  -20.7137   21.3020 C   0  0  0  0  0  0
  -30.7970  -19.9700   18.1595 C   0  0  0  0  0  0
  -28.0334  -24.1111   19.5959 C   0  0  0  0  0  0
  -29.4413  -22.1176   20.5864 C   0  0  0  0  0  0
  -28.7140  -25.5003   19.3056 C   0  0  0  0  0  0
  -28.6329  -20.7761   20.3026 C   0  0  1  0  0  0
  -30.3125  -19.0685   19.2061 N   0  0  0  0  0  0
  -29.8721  -15.7398   20.7274 N   0  0  0  0  0  0
  -28.6319  -23.3853   20.7649 N   0  3  0  0  0  0
  -31.4785  -12.4512   19.1869 H   0  0  0  0  0  0
  -30.3175  -11.3893   19.9224 H   0  0  0  0  0  0
  -29.7984  -11.7716   17.4671 H   0  0  0  0  0  0
  -29.6635  -13.4823   17.7619 H   0  0  0  0  0  0
  -27.8681  -11.2899   18.8512 H   0  0  0  0  0  0
  -27.3921  -12.5564   17.7707 H   0  0  0  0  0  0
  -27.6625  -14.2523   19.4778 H   0  0  0  0  0  0
  -28.7010  -12.1005   21.3932 H   0  0  0  0  0  0
  -28.4581  -13.7696   21.8087 H   0  0  0  0  0  0
  -25.2839   -9.5742   22.4667 H   0  0  0  0  0  0
  -24.0092   -7.4688   22.7491 H   0  0  0  0  0  0
  -21.0878   -8.8826   19.8980 H   0  0  0  0  0  0
  -22.3765  -10.9676   19.6099 H   0  0  0  0  0  0
  -21.2005   -7.6178   23.9754 H   0  0  0  0  0  0
  -21.1492   -6.0480   25.9076 H   0  0  0  0  0  0
  -22.0597   -2.7637   23.2725 H   0  0  0  0  0  0
  -22.4146  -12.0006   22.4868 H   0  0  0  0  0  0
  -21.1079  -13.1302   22.2465 H   0  0  0  0  0  0
  -24.6541  -15.8393   20.5277 H   0  0  0  0  0  0
  -26.2716  -15.6367   20.0643 H   0  0  0  0  0  0
  -26.7171  -32.5488   23.1009 H   0  0  0  0  0  0
  -25.0157  -33.9678   25.0417 H   0  0  0  0  0  0
  -22.7061  -31.3071   21.3836 H   0  0  0  0  0  0
  -23.3771  -35.9647   23.3241 H   0  0  0  0  0  0
  -24.3603  -36.8983   22.2051 H   0  0  0  0  0  0
  -23.7264  -37.6501   23.6685 H   0  0  0  0  0  0
  -26.0626  -31.5663   20.5831 H   0  0  0  0  0  0
  -26.8296  -30.8672   21.9802 H   0  0  0  0  0  0
  -28.0953  -29.0427   21.2001 H   0  0  0  0  0  0
  -26.0275  -25.9785   18.9419 H   0  0  0  0  0  0
  -23.9784  -27.2864   19.0414 H   0  0  0  0  0  0
  -23.7444  -30.5757   19.3890 H   0  0  0  0  0  0
  -22.7471  -29.2315   19.8543 H   0  0  0  0  0  0
  -25.1299  -36.1882   25.0820 H   0  0  0  0  0  0
  -20.9960  -28.3428   24.1401 H   0  0  0  0  0  0
  -20.5816  -26.2403   23.3622 H   0  0  0  0  0  0
  -21.6696  -26.7638   22.1172 H   0  0  0  0  0  0
  -19.7018  -25.6356   21.1274 H   0  0  0  0  0  0
  -19.6787  -27.3230   20.6731 H   0  0  0  0  0  0
  -17.4263  -26.6732   21.3956 H   0  0  0  0  0  0
  -18.0376  -26.0179   22.8999 H   0  0  0  0  0  0
  -19.7980  -30.7324   24.2239 H   0  0  0  0  0  0
  -17.5096  -31.6306   24.5266 H   0  0  0  0  0  0
  -15.5410  -30.3104   23.7734 H   0  0  0  0  0  0
  -15.8663  -28.0998   22.6978 H   0  0  0  0  0  0
  -24.5843  -30.7271   25.7758 H   0  0  0  0  0  0
  -24.9077  -32.3052   26.4828 H   0  0  0  0  0  0
  -25.8077  -30.8962   27.0148 H   0  0  0  0  0  0
  -26.2919  -29.6740   24.1189 H   0  0  0  0  0  0
  -27.4045  -29.7300   25.4673 H   0  0  0  0  0  0
  -27.8803  -30.4246   23.9360 H   0  0  0  0  0  0
  -27.2542  -33.3630   26.2072 H   0  0  0  0  0  0
  -28.3881  -32.6991   25.0390 H   0  0  0  0  0  0
  -28.0648  -31.8492   26.5426 H   0  0  0  0  0  0
  -28.2555  -38.0145   24.7525 H   0  0  0  0  0  0
  -28.1117  -36.2674   24.6199 H   0  0  0  0  0  0
  -27.2303  -37.1373   25.8838 H   0  0  0  0  0  0
  -20.9368  -29.8755   21.6732 H   0  0  0  0  0  0
  -26.0152  -38.2854   24.1423 H   0  0  0  0  0  0
  -28.5097  -18.1087   21.7401 H   0  0  0  0  0  0
  -31.1270  -16.1923   17.8226 H   0  0  0  0  0  0
  -32.5295  -16.8038   18.7013 H   0  0  0  0  0  0
  -31.8050  -17.7361   17.4076 H   0  0  0  0  0  0
  -26.7221  -19.9654   21.0086 H   0  0  0  0  0  0
  -26.9019  -21.6549   21.3597 H   0  0  0  0  0  0
  -27.7873  -20.4795   22.3135 H   0  0  0  0  0  0
  -30.7337  -21.0109   18.4358 H   0  0  0  0  0  0
  -30.2167  -19.8117   17.2484 H   0  0  0  0  0  0
  -31.8543  -19.7933   17.9540 H   0  0  0  0  0  0
  -28.0742  -23.4835   18.7003 H   0  0  0  0  0  0
  -26.9682  -24.2423   19.7983 H   0  0  0  0  0  0
  -30.2111  -22.3480   19.8558 H   0  0  0  0  0  0
  -29.9773  -21.9712   21.5277 H   0  0  0  0  0  0
  -28.5966  -25.7889   18.2604 H   0  0  0  0  0  0
  -29.7895  -25.3389   19.4086 H   0  0  0  0  0  0
  -28.1776  -20.9193   19.3212 H   0  0  0  0  0  0
  -28.9961  -15.4971   21.1605 H   0  0  0  0  0  0
  -27.9031  -23.1942   21.4362 H   0  0  0  0  0  0
  -29.2321  -24.0581   21.2160 H   0  0  0  0  0  0
  1 25  1  0  0  0
  1 30  2  0  0  0
  1 83  1  0  0  0
  2  3  1  0  0  0
  2 25  1  0  0  0
  2 85  1  0  0  0
  2 86  1  0  0  0
  3  4  1  0  0  0
  3 87  1  0  0  0
  3 88  1  0  0  0
  4  5  1  0  0  0
  4 89  1  0  0  0
  4 90  1  0  0  0
  5  6  1  0  0  0
  5 26  1  0  0  0
  5 91  1  0  0  0
  6 25  1  0  0  0
  6 92  1  0  0  0
  6 93  1  0  0  0
  7  8  2  0  0  0
  7 26  1  0  0  0
  7 29  1  0  0  0
  8  9  1  0  0  0
  8 22  1  0  0  0
  9 10  1  0  0  0
  9 27  2  0  0  0
 10 11  2  0  0  0
 10 15  1  0  0  0
 11 12  1  0  0  0
 11 94  1  0  0  0
 12 13  2  0  0  0
 12 95  1  0  0  0
 13 14  1  0  0  0
 13 31  1  0  0  0
 14 15  2  0  0  0
 14 96  1  0  0  0
 15 97  1  0  0  0
 16 17  2  0  0  0
 16 21  1  0  0  0
 16 31  1  0  0  0
 17 18  1  0  0  0
 17 98  1  0  0  0
 18 19  2  0  0  0
 18 99  1  0  0  0
 19 20  1  0  0  0
 19 24  1  0  0  0
 20 21  2  0  0  0
 20100  1  0  0  0
 21 23  1  0  0  0
 22 28  1  0  0  0
 22 32  2  0  0  0
 26 27  1  0  0  0
 28101  1  0  0  0
 28102  1  0  0  0
 29103  1  0  0  0
 29104  1  0  0  0
 33 34  1  0  0  0
 33 66  1  0  0  0
 33 70  2  0  0  0
 34 36  1  0  0  0
 34 59  1  0  0  0
 34105  1  0  0  0
 35 44  2  0  0  0
 35 45  1  0  0  0
 35 68  1  0  0  0
 36 56  1  0  0  0
 36106  1  0  0  0
 37 39  1  0  0  0
 37 47  1  0  0  0
 37 66  1  0  0  0
 37107  1  0  0  0
 38 43  2  0  0  0
 38 46  1  0  0  0
 38 47  1  0  0  0
 39 64  1  0  0  0
 39 67  2  0  0  0
 40 52  1  0  0  0
 40 53  2  0  0  0
 40 58  1  0  0  0
 41108  1  0  0  0
 41109  1  0  0  0
 41110  1  0  0  0
 41 48  1  0  0  0
 42 43  1  0  0  0
 42 66  1  0  0  0
 42111  1  0  0  0
 42112  1  0  0  0
 43 44  1  0  0  0
 44113  1  0  0  0
 45 46  2  0  0  0
 45114  1  0  0  0
 46115  1  0  0  0
 47116  1  0  0  0
 47117  1  0  0  0
 48 56  1  0  0  0
 48 65  1  0  0  0
 48118  1  0  0  0
 49 50  1  0  0  0
 49 53  1  0  0  0
 49 64  1  0  0  0
 49119  1  0  0  0
 50 51  1  0  0  0
 50120  1  0  0  0
 50121  1  0  0  0
 51 52  1  0  0  0
 51122  1  0  0  0
 51123  1  0  0  0
 52124  1  0  0  0
 52125  1  0  0  0
 53 54  1  0  0  0
 54 55  2  0  0  0
 54126  1  0  0  0
 55 57  1  0  0  0
 55127  1  0  0  0
 56 69  2  0  0  0
 57 58  2  0  0  0
 57128  1  0  0  0
 58129  1  0  0  0
 59 60  1  0  0  0
 59 61  1  0  0  0
 59 62  1  0  0  0
 60130  1  0  0  0
 60131  1  0  0  0
 60132  1  0  0  0
 61133  1  0  0  0
 61134  1  0  0  0
 61135  1  0  0  0
 62136  1  0  0  0
 62137  1  0  0  0
 62138  1  0  0  0
 63 65  1  0  0  0
 63139  1  0  0  0
 63140  1  0  0  0
 63141  1  0  0  0
 64142  1  0  0  0
 65143  1  0  0  0
 68 80  1  0  0  0
 71 72  1  0  0  0
 71 73  2  0  0  0
 71144  1  0  0  0
 72 74  2  0  0  0
 72 83  1  0  0  0
 73 81  1  0  0  0
 73 82  1  0  0  0
 74 75  1  0  0  0
 74 82  1  0  0  0
 75145  1  0  0  0
 75146  1  0  0  0
 75147  1  0  0  0
 76148  1  0  0  0
 76149  1  0  0  0
 76150  1  0  0  0
 76 81  1  0  0  0
 77 82  1  0  0  0
 77151  1  0  0  0
 77152  1  0  0  0
 77153  1  0  0  0
 78 80  1  0  0  0
 78 84  1  0  0  0
 78154  1  0  0  0
 78155  1  0  0  0
 79 81  1  0  0  0
 79 84  1  0  0  0
 79156  1  0  0  0
 79157  1  0  0  0
 80158  1  0  0  0
 80159  1  0  0  0
 81160  1  0  0  0
 83161  1  0  0  0
 84162  1  0  0  0
 84163  1  0  0  0
M  CHG  1  84   1
M  ISO  4   1 100  68 101  80 101  83 100
M  END
> <chiral flag>
0

> <version>
0

> <s_m_source_file>
/data/baiqing/PycharmProjects/Reinvent-master-3.2/result/LINK_invent/BTK/process_docking_weight1_custom_sum_contain_oxygen_bond_distance_aromatic_linkinvent_7_9_3/rearranged_h_0108.sdf

> <i_m_source_file_index>
68

> <r_mmod_Potential_Energy-OPLS-2005>
-98.7215881347656

> <r_mmod_Stretch_Energy-OPLS-2005>
72.0742034912109

> <r_mmod_Bend_Energy-OPLS-2005>
167.929702758789

> <r_mmod_Torsional_Energy-OPLS-2005>
248.622177124023

> <r_mmod_Improper_Torsional_Energy-OPLS-2005>
5.22559309005737

> <r_mmod_Van_der_Waal_Energy-OPLS-2005>
128.71403503418

> <r_mmod_Electrostatic_Energy-OPLS-2005>
-301.610046386719

> <r_mmod_Solvation_Energy-OPLS-2005>
-459.459259033203

> <b_mmod_Minimization_Converged-OPLS-2005>
0

> <r_mmod_RMS_Derivative-OPLS-2005>
8.16447353363037

$$$$
68
                    3D
 Structure written by MMmdl.
166174  0  0  1  0            999 V2000
  -30.5170  -15.0225   20.4126 C   0  0  0  0  0  0
  -30.4406  -12.6406   19.5001 C   0  0  0  0  0  0
  -29.5219  -12.5361   18.2601 C   0  0  0  0  0  0
  -28.0582  -12.3090   18.6821 C   0  0  0  0  0  0
  -27.6248  -13.2519   19.8337 C   0  0  2  0  0  0
  -28.6677  -13.3150   20.9687 C   0  0  0  0  0  0
  -25.2451  -13.8218   20.5730 C   0  0  0  0  0  0
  -24.1770  -13.0438   20.9239 C   0  0  0  0  0  0
  -24.6388  -11.6924   20.8760 C   0  0  0  0  0  0
  -23.9078  -10.4292   21.0411 C   0  0  0  0  0  0
  -24.3627   -9.4207   21.9186 C   0  0  0  0  0  0
  -23.6301   -8.2244   22.0758 C   0  0  0  0  0  0
  -22.4281   -8.0287   21.3549 C   0  0  0  0  0  0
  -21.9922   -9.0258   20.4648 C   0  0  0  0  0  0
  -22.7252  -10.2137   20.3057 C   0  0  0  0  0  0
  -21.6855   -6.0734   22.5278 C   0  0  0  0  0  0
  -21.4011   -6.5643   23.8211 C   0  0  0  0  0  0
  -21.3659   -5.6796   24.9173 C   0  0  0  0  0  0
  -21.6048   -4.3057   24.7224 C   0  0  0  0  0  0
  -21.8819   -3.8148   23.4344 C   0  0  0  0  0  0
  -21.9194   -4.6962   22.3398 C   0  0  0  0  0  0
  -22.7792  -13.5207   21.1894 C   0  0  0  0  0  0
  -22.1663   -4.2148   21.0973 F   0  0  0  0  0  0
  -21.5630   -3.4541   25.7738 F   0  0  0  0  0  0
  -29.9300  -13.7522   20.3585 N   0  0  0  0  0  0
  -26.2869  -12.9453   20.3247 N   0  0  0  0  0  0
  -25.9321  -11.6582   20.5745 N   0  0  0  0  0  0
  -22.0453  -12.8179   22.0444 N   0  0  0  0  0  0
  -25.4114  -15.1950   20.4142 N   0  0  0  0  0  0
  -31.7302  -15.0709   20.1799 O   0  0  0  0  0  0
  -21.6648   -6.8882   21.4244 O   0  0  0  0  0  0
  -22.3471  -14.5507   20.6739 O   0  0  0  0  0  0
  -24.6496  -31.8385   23.1845 C   0  0  0  0  0  0
  -25.9245  -32.4669   23.8253 C   0  0  1  0  0  0
  -27.2048  -27.0661   20.1591 C   0  0  0  0  0  0
  -25.5971  -33.8478   24.2165 N   0  0  0  0  0  0
  -23.4574  -30.4592   21.5292 C   0  0  2  0  0  0
  -24.9082  -28.8847   20.1034 C   0  0  0  0  0  0
  -22.7617  -29.4515   22.4806 C   0  0  0  0  0  0
  -18.0323  -28.1406   22.8484 C   0  0  0  0  0  0
  -24.1488  -36.7246   23.2648 C   0  0  0  0  0  0
  -26.0201  -30.6888   21.3976 C   0  0  0  0  0  0
  -26.0867  -29.2952   20.7388 C   0  0  0  0  0  0
  -27.2324  -28.4012   20.7556 C   0  0  0  0  0  0
  -26.0090  -26.7963   19.4527 C   0  0  0  0  0  0
  -24.8870  -27.6508   19.4427 C   0  0  0  0  0  0
  -23.6886  -29.7935   20.1471 C   0  0  0  0  0  0
  -25.4120  -36.3013   24.0314 C   0  0  1  0  0  0
  -20.5938  -28.3735   23.1213 C   0  0  2  0  0  0
  -20.6798  -26.9427   22.5405 C   0  0  0  0  0  0
  -19.5765  -26.6379   21.5225 C   0  0  0  0  0  0
  -18.1947  -26.7944   22.1634 C   0  0  0  0  0  0
  -19.1579  -28.8889   23.2844 C   0  0  0  0  0  0
  -18.9494  -30.1483   23.8868 C   0  0  0  0  0  0
  -17.6483  -30.6594   24.0561 C   0  0  0  0  0  0
  -25.9078  -34.9393   23.5044 C   0  0  0  0  0  0
  -16.5376  -29.9088   23.6337 C   0  0  0  0  0  0
  -16.7305  -28.6508   23.0360 C   0  0  0  0  0  0
  -26.4539  -31.6563   25.0723 C   0  0  0  0  0  0
  -25.3701  -31.3775   26.1404 C   0  0  0  0  0  0
  -27.0416  -30.2941   24.6361 C   0  0  0  0  0  0
  -27.6054  -32.4348   25.7513 C   0  0  0  0  0  0
  -27.5565  -37.1783   24.8469 C   0  0  0  0  0  0
  -21.4292  -29.3054   22.3575 N   0  0  0  0  0  0
  -26.4272  -37.3739   23.9415 N   0  0  0  0  0  0
  -24.7295  -31.0186   22.0911 N   0  0  0  0  0  0
  -23.4234  -28.8056   23.2974 O   0  0  0  0  0  0
  -28.2026  -26.0019   20.2671 O   0  0  0  0  0  0
  -26.5671  -34.8903   22.4625 O   0  0  0  0  0  0
  -23.5596  -32.1289   23.7015 O   0  0  0  0  0  0
  -28.4335  -21.8397   19.7987 C   0  0  0  0  0  0
  -29.3664  -22.9080   21.4413 C   0  0  0  0  0  0
  -29.0599  -20.7676   20.5069 C   0  0  0  0  0  0
  -29.6448  -21.5391   21.5884 C   0  0  0  0  0  0
  -32.6565  -21.2531   24.0501 C   0  0  0  0  0  0
  -28.9551  -19.1259   23.8606 C   0  0  0  0  0  0
  -28.3461  -21.5397   24.2538 C   0  0  0  0  0  0
  -28.9753  -19.0863   20.2600 C   0  0  0  0  0  0
  -31.5515  -21.9120   23.2076 C   0  0  0  0  0  0
  -30.0675  -17.8004   20.5771 C   0  0  0  0  0  0
  -27.8241  -24.5446   19.8899 C   0  0  0  0  0  0
  -30.4158  -20.9542   22.7693 C   0  0  1  0  0  0
  -29.4993  -20.5585   23.9739 C   0  0  0  0  0  0
  -28.5595  -23.1859   20.3466 N   0  0  0  0  0  0
  -29.7374  -16.2263   20.5237 N   0  0  0  0  0  0
  -31.4693  -12.8131   19.1819 H   0  0  0  0  0  0
  -30.4546  -11.6999   20.0536 H   0  0  0  0  0  0
  -29.8538  -11.7278   17.6077 H   0  0  0  0  0  0
  -29.5943  -13.4529   17.6737 H   0  0  0  0  0  0
  -27.9666  -11.2714   19.0047 H   0  0  0  0  0  0
  -27.3925  -12.4217   17.8253 H   0  0  0  0  0  0
  -27.5778  -14.2454   19.3876 H   0  0  0  0  0  0
  -28.7787  -12.3469   21.4593 H   0  0  0  0  0  0
  -28.3561  -14.0223   21.7394 H   0  0  0  0  0  0
  -25.2769   -9.5682   22.4761 H   0  0  0  0  0  0
  -24.0010   -7.4632   22.7475 H   0  0  0  0  0  0
  -21.0856   -8.8770   19.8950 H   0  0  0  0  0  0
  -22.3706  -10.9674   19.6164 H   0  0  0  0  0  0
  -21.2001   -7.6152   23.9710 H   0  0  0  0  0  0
  -21.1485   -6.0528   25.9075 H   0  0  0  0  0  0
  -22.0598   -2.7611   23.2843 H   0  0  0  0  0  0
  -22.4090  -11.9836   22.4802 H   0  0  0  0  0  0
  -21.1071  -13.1187   22.2674 H   0  0  0  0  0  0
  -24.6398  -15.8444   20.5226 H   0  0  0  0  0  0
  -26.2460  -15.6338   20.0482 H   0  0  0  0  0  0
  -26.7309  -32.5238   23.0973 H   0  0  0  0  0  0
  -25.0098  -33.9587   25.0297 H   0  0  0  0  0  0
  -22.7639  -31.2882   21.3721 H   0  0  0  0  0  0
  -23.3751  -35.9577   23.3289 H   0  0  0  0  0  0
  -24.3569  -36.8895   22.2066 H   0  0  0  0  0  0
  -23.7237  -37.6435   23.6696 H   0  0  0  0  0  0
  -26.1855  -31.4395   20.6232 H   0  0  0  0  0  0
  -26.8879  -30.7386   22.0442 H   0  0  0  0  0  0
  -28.1176  -28.7041   21.2961 H   0  0  0  0  0  0
  -25.8858  -25.8700   18.9139 H   0  0  0  0  0  0
  -23.9948  -27.3375   18.9189 H   0  0  0  0  0  0
  -23.8330  -30.5704   19.3952 H   0  0  0  0  0  0
  -22.8025  -29.2409   19.8304 H   0  0  0  0  0  0
  -25.1305  -36.1828   25.0805 H   0  0  0  0  0  0
  -21.0039  -28.3323   24.1330 H   0  0  0  0  0  0
  -20.5698  -26.2344   23.3632 H   0  0  0  0  0  0
  -21.6655  -26.7424   22.1189 H   0  0  0  0  0  0
  -19.6917  -25.6286   21.1263 H   0  0  0  0  0  0
  -19.6693  -27.3187   20.6752 H   0  0  0  0  0  0
  -17.4218  -26.6706   21.4035 H   0  0  0  0  0  0
  -18.0320  -26.0100   22.9038 H   0  0  0  0  0  0
  -19.7970  -30.7317   24.2208 H   0  0  0  0  0  0
  -17.5041  -31.6271   24.5174 H   0  0  0  0  0  0
  -15.5376  -30.2980   23.7680 H   0  0  0  0  0  0
  -15.8707  -28.0823   22.7077 H   0  0  0  0  0  0
  -24.5898  -30.7100   25.7728 H   0  0  0  0  0  0
  -24.8875  -32.2968   26.4737 H   0  0  0  0  0  0
  -25.7973  -30.9017   27.0241 H   0  0  0  0  0  0
  -26.3053  -29.6651   24.1342 H   0  0  0  0  0  0
  -27.3975  -29.7258   25.4968 H   0  0  0  0  0  0
  -27.8983  -30.4158   23.9725 H   0  0  0  0  0  0
  -27.2628  -33.3684   26.1992 H   0  0  0  0  0  0
  -28.3915  -32.6852   25.0374 H   0  0  0  0  0  0
  -28.0662  -31.8533   26.5513 H   0  0  0  0  0  0
  -28.2576  -38.0084   24.7502 H   0  0  0  0  0  0
  -28.1062  -36.2613   24.6302 H   0  0  0  0  0  0
  -27.2286  -37.1433   25.8873 H   0  0  0  0  0  0
  -20.9509  -29.8787   21.6765 H   0  0  0  0  0  0
  -26.0129  -38.2800   24.1421 H   0  0  0  0  0  0
  -27.8118  -21.7490   18.9176 H   0  0  0  0  0  0
  -29.6367  -23.7318   22.0880 H   0  0  0  0  0  0
  -33.4529  -21.9664   24.2647 H   0  0  0  0  0  0
  -33.1045  -20.4091   23.5250 H   0  0  0  0  0  0
  -32.2864  -20.8928   25.0098 H   0  0  0  0  0  0
  -28.4074  -18.8430   24.7601 H   0  0  0  0  0  0
  -29.7622  -18.4029   23.7391 H   0  0  0  0  0  0
  -28.2714  -19.0224   23.0199 H   0  0  0  0  0  0
  -27.8134  -21.2677   25.1655 H   0  0  0  0  0  0
  -27.6162  -21.5462   23.4438 H   0  0  0  0  0  0
  -28.7138  -22.5573   24.3849 H   0  0  0  0  0  0
  -28.7299  -18.9911   19.2022 H   0  0  0  0  0  0
  -28.0476  -18.8037   20.7568 H   0  0  0  0  0  0
  -32.0329  -22.3168   22.3162 H   0  0  0  0  0  0
  -31.1388  -22.7688   23.7421 H   0  0  0  0  0  0
  -30.4482  -17.9538   21.5850 H   0  0  0  0  0  0
  -30.9348  -17.9531   19.9331 H   0  0  0  0  0  0
  -26.8003  -24.3956   20.2367 H   0  0  0  0  0  0
  -27.7953  -24.5141   18.7999 H   0  0  0  0  0  0
  -30.9080  -20.0566   22.3947 H   0  0  0  0  0  0
  -30.1133  -20.5425   24.8726 H   0  0  0  0  0  0
  -28.7538  -16.0276   20.6306 H   0  0  0  0  0  0
  1 25  1  0  0  0
  1 30  2  0  0  0
  1 85  1  0  0  0
  2  3  1  0  0  0
  2 25  1  0  0  0
  2 86  1  0  0  0
  2 87  1  0  0  0
  3  4  1  0  0  0
  3 88  1  0  0  0
  3 89  1  0  0  0
  4  5  1  0  0  0
  4 90  1  0  0  0
  4 91  1  0  0  0
  5  6  1  0  0  0
  5 26  1  0  0  0
  5 92  1  0  0  0
  6 25  1  0  0  0
  6 93  1  0  0  0
  6 94  1  0  0  0
  7  8  2  0  0  0
  7 26  1  0  0  0
  7 29  1  0  0  0
  8  9  1  0  0  0
  8 22  1  0  0  0
  9 10  1  0  0  0
  9 27  2  0  0  0
 10 11  2  0  0  0
 10 15  1  0  0  0
 11 12  1  0  0  0
 11 95  1  0  0  0
 12 13  2  0  0  0
 12 96  1  0  0  0
 13 14  1  0  0  0
 13 31  1  0  0  0
 14 15  2  0  0  0
 14 97  1  0  0  0
 15 98  1  0  0  0
 16 17  2  0  0  0
 16 21  1  0  0  0
 16 31  1  0  0  0
 17 18  1  0  0  0
 17 99  1  0  0  0
 18 19  2  0  0  0
 18100  1  0  0  0
 19 20  1  0  0  0
 19 24  1  0  0  0
 20 21  2  0  0  0
 20101  1  0  0  0
 21 23  1  0  0  0
 22 28  1  0  0  0
 22 32  2  0  0  0
 26 27  1  0  0  0
 28102  1  0  0  0
 28103  1  0  0  0
 29104  1  0  0  0
 29105  1  0  0  0
 33 34  1  0  0  0
 33 66  1  0  0  0
 33 70  2  0  0  0
 34 36  1  0  0  0
 34 59  1  0  0  0
 34106  1  0  0  0
 35 44  2  0  0  0
 35 45  1  0  0  0
 35 68  1  0  0  0
 36 56  1  0  0  0
 36107  1  0  0  0
 37 39  1  0  0  0
 37 47  1  0  0  0
 37 66  1  0  0  0
 37108  1  0  0  0
 38 43  2  0  0  0
 38 46  1  0  0  0
 38 47  1  0  0  0
 39 64  1  0  0  0
 39 67  2  0  0  0
 40 52  1  0  0  0
 40 53  2  0  0  0
 40 58  1  0  0  0
 41109  1  0  0  0
 41110  1  0  0  0
 41111  1  0  0  0
 41 48  1  0  0  0
 42 43  1  0  0  0
 42 66  1  0  0  0
 42112  1  0  0  0
 42113  1  0  0  0
 43 44  1  0  0  0
 44114  1  0  0  0
 45 46  2  0  0  0
 45115  1  0  0  0
 46116  1  0  0  0
 47117  1  0  0  0
 47118  1  0  0  0
 48 56  1  0  0  0
 48 65  1  0  0  0
 48119  1  0  0  0
 49 50  1  0  0  0
 49 53  1  0  0  0
 49 64  1  0  0  0
 49120  1  0  0  0
 50 51  1  0  0  0
 50121  1  0  0  0
 50122  1  0  0  0
 51 52  1  0  0  0
 51123  1  0  0  0
 51124  1  0  0  0
 52125  1  0  0  0
 52126  1  0  0  0
 53 54  1  0  0  0
 54 55  2  0  0  0
 54127  1  0  0  0
 55 57  1  0  0  0
 55128  1  0  0  0
 56 69  2  0  0  0
 57 58  2  0  0  0
 57129  1  0  0  0
 58130  1  0  0  0
 59 60  1  0  0  0
 59 61  1  0  0  0
 59 62  1  0  0  0
 60131  1  0  0  0
 60132  1  0  0  0
 60133  1  0  0  0
 61134  1  0  0  0
 61135  1  0  0  0
 61136  1  0  0  0
 62137  1  0  0  0
 62138  1  0  0  0
 62139  1  0  0  0
 63 65  1  0  0  0
 63140  1  0  0  0
 63141  1  0  0  0
 63142  1  0  0  0
 64143  1  0  0  0
 65144  1  0  0  0
 68 81  1  0  0  0
 71 73  2  0  0  0
 71 84  1  0  0  0
 71145  1  0  0  0
 72 74  2  0  0  0
 72 84  1  0  0  0
 72146  1  0  0  0
 73 74  1  0  0  0
 73 78  1  0  0  0
 74 82  1  0  0  0
 75 79  1  0  0  0
 75147  1  0  0  0
 75148  1  0  0  0
 75149  1  0  0  0
 76150  1  0  0  0
 76151  1  0  0  0
 76152  1  0  0  0
 76 83  1  0  0  0
 77 83  1  0  0  0
 77153  1  0  0  0
 77154  1  0  0  0
 77155  1  0  0  0
 78 80  1  0  0  0
 78156  1  0  0  0
 78157  1  0  0  0
 79158  1  0  0  0
 79159  1  0  0  0
 79 82  1  0  0  0
 80 85  1  0  0  0
 80160  1  0  0  0
 80161  1  0  0  0
 81 84  1  0  0  0
 81162  1  0  0  0
 81163  1  0  0  0
 82 83  1  0  0  0
 82164  1  0  0  0
 83165  1  0  0  0
 85166  1  0  0  0
M  ISO  4   1 100  68 101  81 101  85 100
M  END
> <chiral flag>
0

> <version>
0

> <s_m_source_file>
/data/baiqing/PycharmProjects/Reinvent-master-3.2/result/LINK_invent/BTK/process_docking_weight1_custom_sum_contain_oxygen_bond_distance_aromatic_linkinvent_7_9_3/rearranged_h_0108.sdf

> <i_m_source_file_index>
69

> <r_mmod_Potential_Energy-OPLS-2005>
652.138977050781

> <r_mmod_Stretch_Energy-OPLS-2005>
325.020446777344

> <r_mmod_Bend_Energy-OPLS-2005>
314.489044189453

> <r_mmod_Torsional_Energy-OPLS-2005>
219.186737060547

> <r_mmod_Improper_Torsional_Energy-OPLS-2005>
5.90889072418213

> <r_mmod_Van_der_Waal_Energy-OPLS-2005>
112.168899536133

> <r_mmod_Electrostatic_Energy-OPLS-2005>
-376.305084228516

> <r_mmod_Solvation_Energy-OPLS-2005>
-210.882781982422

> <b_mmod_Minimization_Converged-OPLS-2005>
0

> <r_mmod_RMS_Derivative-OPLS-2005>
1.40895795822144

$$$$
69
                    3D
 Structure written by MMmdl.
162170  0  0  1  0            999 V2000
  -30.6645  -14.4940   20.4674 C   0  0  0  0  0  0
  -30.4241  -12.2965   19.4109 C   0  0  0  0  0  0
  -29.4881  -12.4753   18.1967 C   0  0  0  0  0  0
  -28.0114  -12.3317   18.6203 C   0  0  0  0  0  0
  -27.6532  -13.1947   19.8602 C   0  0  2  0  0  0
  -28.7037  -13.0223   20.9820 C   0  0  0  0  0  0
  -25.2596  -13.8124   20.5706 C   0  0  0  0  0  0
  -24.1834  -13.0426   20.9176 C   0  0  0  0  0  0
  -24.6367  -11.6887   20.8737 C   0  0  0  0  0  0
  -23.9033  -10.4291   21.0398 C   0  0  0  0  0  0
  -24.3594   -9.4214   21.9171 C   0  0  0  0  0  0
  -23.6284   -8.2242   22.0728 C   0  0  0  0  0  0
  -22.4269   -8.0269   21.3525 C   0  0  0  0  0  0
  -21.9900   -9.0246   20.4632 C   0  0  0  0  0  0
  -22.7210  -10.2131   20.3045 C   0  0  0  0  0  0
  -21.6865   -6.0729   22.5282 C   0  0  0  0  0  0
  -21.4012   -6.5629   23.8217 C   0  0  0  0  0  0
  -21.3653   -5.6781   24.9176 C   0  0  0  0  0  0
  -21.6051   -4.3051   24.7235 C   0  0  0  0  0  0
  -21.8823   -3.8138   23.4356 C   0  0  0  0  0  0
  -21.9195   -4.6953   22.3411 C   0  0  0  0  0  0
  -22.7869  -13.5227   21.1854 C   0  0  0  0  0  0
  -22.1664   -4.2131   21.0991 F   0  0  0  0  0  0
  -21.5625   -3.4536   25.7749 F   0  0  0  0  0  0
  -30.0278  -13.2997   20.4051 N   0  0  0  0  0  0
  -26.2999  -12.9269   20.3355 N   0  0  0  0  0  0
  -25.9287  -11.6445   20.5782 N   0  0  0  0  0  0
  -22.0512  -12.8216   22.0409 N   0  0  0  0  0  0
  -25.4376  -15.1847   20.4140 N   0  0  0  0  0  0
  -31.8601  -14.6406   20.2074 O   0  0  0  0  0  0
  -21.6636   -6.8867   21.4241 O   0  0  0  0  0  0
  -22.3567  -14.5554   20.6724 O   0  0  0  0  0  0
  -24.6117  -31.8678   23.2094 C   0  0  0  0  0  0
  -25.9010  -32.4828   23.8394 C   0  0  1  0  0  0
  -27.2321  -27.4460   20.0871 C   0  0  0  0  0  0
  -25.5871  -33.8626   24.2328 N   0  0  0  0  0  0
  -23.4025  -30.4906   21.5487 C   0  0  2  0  0  0
  -24.8488  -28.9570   20.1157 C   0  0  0  0  0  0
  -22.7404  -29.4652   22.4973 C   0  0  0  0  0  0
  -18.0275  -28.1354   22.8492 C   0  0  0  0  0  0
  -24.1491  -36.7327   23.2643 C   0  0  0  0  0  0
  -25.9295  -30.8378   21.3620 C   0  0  0  0  0  0
  -26.0092  -29.4724   20.7089 C   0  0  0  0  0  0
  -27.2072  -28.7230   20.6915 C   0  0  0  0  0  0
  -26.0593  -26.9422   19.4895 C   0  0  0  0  0  0
  -24.8682  -27.6921   19.5027 C   0  0  0  0  0  0
  -23.6110  -29.8230   20.1633 C   0  0  0  0  0  0
  -25.4116  -36.3121   24.0341 C   0  0  1  0  0  0
  -20.5865  -28.3649   23.1308 C   0  0  2  0  0  0
  -20.6763  -26.9389   22.5383 C   0  0  0  0  0  0
  -19.5742  -26.6391   21.5183 C   0  0  0  0  0  0
  -18.1924  -26.7909   22.1596 C   0  0  0  0  0  0
  -19.1522  -28.8810   23.2915 C   0  0  0  0  0  0
  -18.9449  -30.1407   23.8925 C   0  0  0  0  0  0
  -17.6447  -30.6546   24.0575 C   0  0  0  0  0  0
  -25.9032  -34.9479   23.5137 C   0  0  0  0  0  0
  -16.5335  -29.9059   23.6322 C   0  0  0  0  0  0
  -16.7260  -28.6482   23.0330 C   0  0  0  0  0  0
  -26.4440  -31.6611   25.0724 C   0  0  0  0  0  0
  -25.3719  -31.3689   26.1485 C   0  0  0  0  0  0
  -27.0269  -30.3066   24.6077 C   0  0  0  0  0  0
  -27.6023  -32.4330   25.7473 C   0  0  0  0  0  0
  -27.5588  -37.1817   24.8461 C   0  0  0  0  0  0
  -21.4130  -29.3042   22.3725 N   0  0  0  0  0  0
  -26.4308  -37.3800   23.9395 N   0  0  0  0  0  0
  -24.6662  -31.0790   22.0989 N   0  0  0  0  0  0
  -23.4179  -28.8191   23.3005 O   0  0  0  0  0  0
  -28.3820  -26.6949   20.0589 O   0  0  0  0  0  0
  -26.5598  -34.8920   22.4701 O   0  0  0  0  0  0
  -23.5313  -32.1405   23.7503 O   0  0  0  0  0  0
  -28.9171  -17.4427   23.3110 C   0  0  0  0  0  0
  -28.4035  -18.6213   22.7365 C   0  0  0  0  0  0
  -29.4192  -16.4091   22.4987 C   0  0  0  0  0  0
  -28.8846  -17.7366   20.5223 C   0  0  0  0  0  0
  -28.3857  -18.7857   21.3318 C   0  0  0  0  0  0
  -29.4041  -16.5515   21.0951 C   0  0  0  0  0  0
  -25.7679  -22.2948   20.5380 C   0  0  0  0  0  0
  -27.7723  -20.0278   20.6708 C   0  0  0  0  0  0
  -28.9675  -24.2918   20.3270 C   0  0  0  0  0  0
  -27.8775  -21.3566   21.4785 C   0  0  0  0  0  0
  -27.9369  -23.2576   19.8019 C   0  0  0  0  0  0
  -28.3814  -25.5787   20.9582 C   0  0  0  0  0  0
  -29.8383  -15.5247   20.2190 N   0  0  0  0  0  0
  -27.1909  -22.5423   20.8801 N   0  3  1  0  0  0
  -31.4661  -12.4029   19.1036 H   0  0  0  0  0  0
  -30.3266  -11.2951   19.8291 H   0  0  0  0  0  0
  -29.7294  -11.7415   17.4268 H   0  0  0  0  0  0
  -29.6452  -13.4556   17.7436 H   0  0  0  0  0  0
  -27.8357  -11.2790   18.8403 H   0  0  0  0  0  0
  -27.3532  -12.5781   17.7868 H   0  0  0  0  0  0
  -27.6718  -14.2308   19.5258 H   0  0  0  0  0  0
  -28.6806  -12.0085   21.3831 H   0  0  0  0  0  0
  -28.4873  -13.6902   21.8184 H   0  0  0  0  0  0
  -25.2732   -9.5701   22.4755 H   0  0  0  0  0  0
  -23.9991   -7.4637   22.7441 H   0  0  0  0  0  0
  -21.0834   -8.8788   19.8933 H   0  0  0  0  0  0
  -22.3674  -10.9683   19.6166 H   0  0  0  0  0  0
  -21.2007   -7.6136   23.9727 H   0  0  0  0  0  0
  -21.1461   -6.0500   25.9082 H   0  0  0  0  0  0
  -22.0607   -2.7599   23.2877 H   0  0  0  0  0  0
  -22.4112  -11.9860   22.4788 H   0  0  0  0  0  0
  -21.1134  -13.1244   22.2615 H   0  0  0  0  0  0
  -24.6876  -15.8517   20.5540 H   0  0  0  0  0  0
  -26.3195  -15.6240   20.1799 H   0  0  0  0  0  0
  -26.7091  -32.5535   23.1168 H   0  0  0  0  0  0
  -25.0005  -33.9795   25.0461 H   0  0  0  0  0  0
  -22.6923  -31.3084   21.4083 H   0  0  0  0  0  0
  -23.3747  -35.9667   23.3319 H   0  0  0  0  0  0
  -24.3579  -36.8921   22.2052 H   0  0  0  0  0  0
  -23.7247  -37.6540   23.6647 H   0  0  0  0  0  0
  -26.0416  -31.6049   20.5945 H   0  0  0  0  0  0
  -26.8156  -30.8880   21.9834 H   0  0  0  0  0  0
  -28.1069  -29.1159   21.1444 H   0  0  0  0  0  0
  -26.0719  -25.9764   19.0053 H   0  0  0  0  0  0
  -23.9771  -27.2979   19.0344 H   0  0  0  0  0  0
  -23.7167  -30.5939   19.3984 H   0  0  0  0  0  0
  -22.7356  -29.2397   19.8724 H   0  0  0  0  0  0
  -25.1293  -36.2000   25.0837 H   0  0  0  0  0  0
  -20.9961  -28.3199   24.1420 H   0  0  0  0  0  0
  -20.5660  -26.2255   23.3571 H   0  0  0  0  0  0
  -21.6620  -26.7431   22.1143 H   0  0  0  0  0  0
  -19.6899  -25.6319   21.1183 H   0  0  0  0  0  0
  -19.6692  -27.3253   20.6755 H   0  0  0  0  0  0
  -17.4194  -26.6674   21.4005 H   0  0  0  0  0  0
  -18.0329  -26.0021   22.8957 H   0  0  0  0  0  0
  -19.7929  -30.7220   24.2294 H   0  0  0  0  0  0
  -17.4989  -31.6223   24.5181 H   0  0  0  0  0  0
  -15.5330  -30.2959   23.7613 H   0  0  0  0  0  0
  -15.8666  -28.0813   22.7007 H   0  0  0  0  0  0
  -24.5900  -30.7030   25.7822 H   0  0  0  0  0  0
  -24.8904  -32.2829   26.4968 H   0  0  0  0  0  0
  -25.8090  -30.8837   27.0225 H   0  0  0  0  0  0
  -26.2802  -29.6839   24.1145 H   0  0  0  0  0  0
  -27.4064  -29.7291   25.4515 H   0  0  0  0  0  0
  -27.8622  -30.4401   23.9204 H   0  0  0  0  0  0
  -27.2647  -33.3618   26.2089 H   0  0  0  0  0  0
  -28.3802  -32.6913   25.0277 H   0  0  0  0  0  0
  -28.0735  -31.8437   26.5349 H   0  0  0  0  0  0
  -28.2614  -38.0108   24.7506 H   0  0  0  0  0  0
  -28.1073  -36.2632   24.6299 H   0  0  0  0  0  0
  -27.2293  -37.1490   25.8862 H   0  0  0  0  0  0
  -20.9264  -29.8806   21.7000 H   0  0  0  0  0  0
  -26.0201  -38.2886   24.1382 H   0  0  0  0  0  0
  -28.9130  -17.3256   24.3849 H   0  0  0  0  0  0
  -28.0100  -19.3792   23.3986 H   0  0  0  0  0  0
  -29.7969  -15.5108   22.9655 H   0  0  0  0  0  0
  -28.8500  -17.8332   19.4456 H   0  0  0  0  0  0
  -25.2546  -23.2283   20.3075 H   0  0  0  0  0  0
  -25.2278  -21.8258   21.3626 H   0  0  0  0  0  0
  -25.6773  -21.6498   19.6656 H   0  0  0  0  0  0
  -28.2366  -20.1658   19.6937 H   0  0  0  0  0  0
  -26.7302  -19.7747   20.4794 H   0  0  0  0  0  0
  -29.6246  -24.5879   19.5085 H   0  0  0  0  0  0
  -29.6237  -23.7981   21.0445 H   0  0  0  0  0  0
  -27.4256  -21.2239   22.4614 H   0  0  0  0  0  0
  -28.9258  -21.5962   21.6543 H   0  0  0  0  0  0
  -28.4399  -22.5262   19.1696 H   0  0  0  0  0  0
  -27.2403  -23.7783   19.1430 H   0  0  0  0  0  0
  -29.0115  -25.8657   21.8003 H   0  0  0  0  0  0
  -27.3931  -25.3793   21.3770 H   0  0  0  0  0  0
  -29.8608  -15.8028   19.2503 H   0  0  0  0  0  0
  -27.1372  -23.2014   21.6416 H   0  0  0  0  0  0
  1 25  1  0  0  0
  1 30  2  0  0  0
  1 83  1  0  0  0
  2  3  1  0  0  0
  2 25  1  0  0  0
  2 85  1  0  0  0
  2 86  1  0  0  0
  3  4  1  0  0  0
  3 87  1  0  0  0
  3 88  1  0  0  0
  4  5  1  0  0  0
  4 89  1  0  0  0
  4 90  1  0  0  0
  5  6  1  0  0  0
  5 26  1  0  0  0
  5 91  1  0  0  0
  6 25  1  0  0  0
  6 92  1  0  0  0
  6 93  1  0  0  0
  7  8  2  0  0  0
  7 26  1  0  0  0
  7 29  1  0  0  0
  8  9  1  0  0  0
  8 22  1  0  0  0
  9 10  1  0  0  0
  9 27  2  0  0  0
 10 11  2  0  0  0
 10 15  1  0  0  0
 11 12  1  0  0  0
 11 94  1  0  0  0
 12 13  2  0  0  0
 12 95  1  0  0  0
 13 14  1  0  0  0
 13 31  1  0  0  0
 14 15  2  0  0  0
 14 96  1  0  0  0
 15 97  1  0  0  0
 16 17  2  0  0  0
 16 21  1  0  0  0
 16 31  1  0  0  0
 17 18  1  0  0  0
 17 98  1  0  0  0
 18 19  2  0  0  0
 18 99  1  0  0  0
 19 20  1  0  0  0
 19 24  1  0  0  0
 20 21  2  0  0  0
 20100  1  0  0  0
 21 23  1  0  0  0
 22 28  1  0  0  0
 22 32  2  0  0  0
 26 27  1  0  0  0
 28101  1  0  0  0
 28102  1  0  0  0
 29103  1  0  0  0
 29104  1  0  0  0
 33 34  1  0  0  0
 33 66  1  0  0  0
 33 70  2  0  0  0
 34 36  1  0  0  0
 34 59  1  0  0  0
 34105  1  0  0  0
 35 44  2  0  0  0
 35 45  1  0  0  0
 35 68  1  0  0  0
 36 56  1  0  0  0
 36106  1  0  0  0
 37 39  1  0  0  0
 37 47  1  0  0  0
 37 66  1  0  0  0
 37107  1  0  0  0
 38 43  2  0  0  0
 38 46  1  0  0  0
 38 47  1  0  0  0
 39 64  1  0  0  0
 39 67  2  0  0  0
 40 52  1  0  0  0
 40 53  2  0  0  0
 40 58  1  0  0  0
 41108  1  0  0  0
 41109  1  0  0  0
 41110  1  0  0  0
 41 48  1  0  0  0
 42 43  1  0  0  0
 42 66  1  0  0  0
 42111  1  0  0  0
 42112  1  0  0  0
 43 44  1  0  0  0
 44113  1  0  0  0
 45 46  2  0  0  0
 45114  1  0  0  0
 46115  1  0  0  0
 47116  1  0  0  0
 47117  1  0  0  0
 48 56  1  0  0  0
 48 65  1  0  0  0
 48118  1  0  0  0
 49 50  1  0  0  0
 49 53  1  0  0  0
 49 64  1  0  0  0
 49119  1  0  0  0
 50 51  1  0  0  0
 50120  1  0  0  0
 50121  1  0  0  0
 51 52  1  0  0  0
 51122  1  0  0  0
 51123  1  0  0  0
 52124  1  0  0  0
 52125  1  0  0  0
 53 54  1  0  0  0
 54 55  2  0  0  0
 54126  1  0  0  0
 55 57  1  0  0  0
 55127  1  0  0  0
 56 69  2  0  0  0
 57 58  2  0  0  0
 57128  1  0  0  0
 58129  1  0  0  0
 59 60  1  0  0  0
 59 61  1  0  0  0
 59 62  1  0  0  0
 60130  1  0  0  0
 60131  1  0  0  0
 60132  1  0  0  0
 61133  1  0  0  0
 61134  1  0  0  0
 61135  1  0  0  0
 62136  1  0  0  0
 62137  1  0  0  0
 62138  1  0  0  0
 63 65  1  0  0  0
 63139  1  0  0  0
 63140  1  0  0  0
 63141  1  0  0  0
 64142  1  0  0  0
 65143  1  0  0  0
 68 82  1  0  0  0
 71 72  2  0  0  0
 71 73  1  0  0  0
 71144  1  0  0  0
 72 75  1  0  0  0
 72145  1  0  0  0
 73 76  2  0  0  0
 73146  1  0  0  0
 74 75  2  0  0  0
 74 76  1  0  0  0
 74147  1  0  0  0
 75 78  1  0  0  0
 76 83  1  0  0  0
 77148  1  0  0  0
 77149  1  0  0  0
 77150  1  0  0  0
 77 84  1  0  0  0
 78 80  1  0  0  0
 78151  1  0  0  0
 78152  1  0  0  0
 79 81  1  0  0  0
 79 82  1  0  0  0
 79153  1  0  0  0
 79154  1  0  0  0
 80 84  1  0  0  0
 80155  1  0  0  0
 80156  1  0  0  0
 81 84  1  0  0  0
 81157  1  0  0  0
 81158  1  0  0  0
 82159  1  0  0  0
 82160  1  0  0  0
 83161  1  0  0  0
 84162  1  0  0  0
M  CHG  1  84   1
M  ISO  4   1 100  68 101  82 101  83 100
M  END
> <chiral flag>
0

> <version>
0

> <s_m_source_file>
/data/baiqing/PycharmProjects/Reinvent-master-3.2/result/LINK_invent/BTK/process_docking_weight1_custom_sum_contain_oxygen_bond_distance_aromatic_linkinvent_7_9_3/rearranged_h_0108.sdf

> <i_m_source_file_index>
70

> <r_mmod_Potential_Energy-OPLS-2005>
-52.7377166748047

> <r_mmod_Stretch_Energy-OPLS-2005>
35.6419525146484

> <r_mmod_Bend_Energy-OPLS-2005>
103.654541015625

> <r_mmod_Torsional_Energy-OPLS-2005>
322.234710693359

> <r_mmod_Improper_Torsional_Energy-OPLS-2005>
22.4904079437256

> <r_mmod_Van_der_Waal_Energy-OPLS-2005>
141.909591674805

> <r_mmod_Electrostatic_Energy-OPLS-2005>
-246.42643737793

> <r_mmod_Solvation_Energy-OPLS-2005>
-451.833312988281

> <b_mmod_Minimization_Converged-OPLS-2005>
0

> <r_mmod_RMS_Derivative-OPLS-2005>
2.74524998664856

$$$$
70
                    3D
 Structure written by MMmdl.
169177  0  0  1  0            999 V2000
  -30.6103  -14.7549   20.5223 C   0  0  0  0  0  0
  -30.4359  -12.4740   19.4780 C   0  0  0  0  0  0
  -29.5088  -12.5100   18.2443 C   0  0  0  0  0  0
  -28.0334  -12.3325   18.6550 C   0  0  0  0  0  0
  -27.6417  -13.2300   19.8583 C   0  0  2  0  0  0
  -28.6865  -13.1471   20.9939 C   0  0  0  0  0  0
  -25.2462  -13.8162   20.5712 C   0  0  0  0  0  0
  -24.1765  -13.0404   20.9245 C   0  0  0  0  0  0
  -24.6359  -11.6898   20.8781 C   0  0  0  0  0  0
  -23.9038  -10.4273   21.0418 C   0  0  0  0  0  0
  -24.3584   -9.4190   21.9194 C   0  0  0  0  0  0
  -23.6266   -8.2224   22.0762 C   0  0  0  0  0  0
  -22.4263   -8.0265   21.3543 C   0  0  0  0  0  0
  -21.9892   -9.0238   20.4646 C   0  0  0  0  0  0
  -22.7218  -10.2117   20.3058 C   0  0  0  0  0  0
  -21.6846   -6.0695   22.5240 C   0  0  0  0  0  0
  -21.4028   -6.5605   23.8172 C   0  0  0  0  0  0
  -21.3663   -5.6755   24.9144 C   0  0  0  0  0  0
  -21.6069   -4.3031   24.7204 C   0  0  0  0  0  0
  -21.8830   -3.8116   23.4330 C   0  0  0  0  0  0
  -21.9188   -4.6919   22.3378 C   0  0  0  0  0  0
  -22.7791  -13.5208   21.1883 C   0  0  0  0  0  0
  -22.1655   -4.2099   21.0960 F   0  0  0  0  0  0
  -21.5647   -3.4534   25.7741 F   0  0  0  0  0  0
  -29.9901  -13.5226   20.4294 N   0  0  0  0  0  0
  -26.2915  -12.9384   20.3316 N   0  0  0  0  0  0
  -25.9292  -11.6522   20.5753 N   0  0  0  0  0  0
  -22.0430  -12.8228   22.0465 N   0  0  0  0  0  0
  -25.4116  -15.1884   20.4119 N   0  0  0  0  0  0
  -31.7194  -14.9180   20.0020 O   0  0  0  0  0  0
  -21.6649   -6.8859   21.4221 O   0  0  0  0  0  0
  -22.3490  -14.5460   20.6634 O   0  0  0  0  0  0
  -24.6337  -31.8536   23.1971 C   0  0  0  0  0  0
  -25.9132  -32.4752   23.8344 C   0  0  1  0  0  0
  -27.2151  -27.2322   20.1385 C   0  0  0  0  0  0
  -25.5890  -33.8545   24.2283 N   0  0  0  0  0  0
  -23.4325  -30.4790   21.5368 C   0  0  2  0  0  0
  -24.8786  -28.9192   20.1161 C   0  0  0  0  0  0
  -22.7517  -29.4611   22.4847 C   0  0  0  0  0  0
  -18.0309  -28.1393   22.8477 C   0  0  0  0  0  0
  -24.1466  -36.7277   23.2659 C   0  0  0  0  0  0
  -25.9820  -30.7597   21.3790 C   0  0  0  0  0  0
  -26.0529  -29.3779   20.7258 C   0  0  0  0  0  0
  -27.2238  -28.5477   20.7260 C   0  0  0  0  0  0
  -26.0179  -26.8552   19.4884 C   0  0  0  0  0  0
  -24.8657  -27.6641   19.4920 C   0  0  0  0  0  0
  -23.6549  -29.8136   20.1537 C   0  0  0  0  0  0
  -25.4079  -36.3080   24.0377 C   0  0  1  0  0  0
  -20.5915  -28.3710   23.1227 C   0  0  2  0  0  0
  -20.6789  -26.9413   22.5395 C   0  0  0  0  0  0
  -19.5765  -26.6375   21.5218 C   0  0  0  0  0  0
  -18.1944  -26.7923   22.1624 C   0  0  0  0  0  0
  -19.1564  -28.8867   23.2847 C   0  0  0  0  0  0
  -18.9494  -30.1464   23.8869 C   0  0  0  0  0  0
  -17.6490  -30.6586   24.0569 C   0  0  0  0  0  0
  -25.9024  -34.9446   23.5141 C   0  0  0  0  0  0
  -16.5384  -29.9089   23.6337 C   0  0  0  0  0  0
  -16.7293  -28.6514   23.0342 C   0  0  0  0  0  0
  -26.4486  -31.6575   25.0728 C   0  0  0  0  0  0
  -25.3706  -31.3734   26.1447 C   0  0  0  0  0  0
  -27.0373  -30.2994   24.6251 C   0  0  0  0  0  0
  -27.6034  -32.4317   25.7480 C   0  0  0  0  0  0
  -27.5566  -37.1791   24.8475 C   0  0  0  0  0  0
  -21.4214  -29.3062   22.3601 N   0  0  0  0  0  0
  -26.4261  -37.3783   23.9449 N   0  0  0  0  0  0
  -24.7022  -31.0501   22.0936 N   0  0  0  0  0  0
  -23.4212  -28.8142   23.2941 O   0  0  0  0  0  0
  -28.3077  -26.3223   20.1661 O   0  0  0  0  0  0
  -26.5606  -34.8938   22.4712 O   0  0  0  0  0  0
  -23.5463  -32.1331   23.7237 O   0  0  0  0  0  0
  -29.2681  -20.9998   20.0156 C   0  0  0  0  0  0
  -29.4008  -22.2418   20.6682 C   0  0  0  0  0  0
  -29.9494  -21.8514   21.9511 C   0  0  0  0  0  0
  -30.1264  -20.4728   21.9880 C   0  0  0  0  0  0
  -30.7358  -19.6031   23.0594 C   0  0  0  0  0  0
  -29.5029  -23.9546   23.3739 C   0  0  0  0  0  0
  -31.8687  -23.2268   22.8602 C   0  0  0  0  0  0
  -30.1357  -15.8033   22.6312 C   0  0  0  0  0  0
  -30.1768  -18.4703   20.3182 C   0  0  0  0  0  0
  -29.3341  -17.1282   20.6683 C   0  0  0  0  0  0
  -28.0742  -24.8316   20.3736 C   0  0  0  0  0  0
  -30.4195  -22.7651   23.0842 C   0  0  0  0  0  0
  -29.2762  -23.7589   20.0835 C   0  0  2  0  0  0
  -29.7882  -19.9044   20.7648 N   0  0  0  0  0  0
  -29.9675  -15.8089   21.1749 N   0  0  0  0  0  0
  -29.5330  -23.7042   18.6338 N   0  3  0  0  0  0
  -31.4755  -12.6046   19.1733 H   0  0  0  0  0  0
  -30.3912  -11.4949   19.9566 H   0  0  0  0  0  0
  -29.7889  -11.7257   17.5432 H   0  0  0  0  0  0
  -29.6381  -13.4552   17.7140 H   0  0  0  0  0  0
  -27.8922  -11.2841   18.9171 H   0  0  0  0  0  0
  -27.3744  -12.5225   17.8094 H   0  0  0  0  0  0
  -27.6408  -14.2547   19.4881 H   0  0  0  0  0  0
  -28.7318  -12.1403   21.4118 H   0  0  0  0  0  0
  -28.3986  -13.8029   21.8144 H   0  0  0  0  0  0
  -25.2732   -9.5682   22.4771 H   0  0  0  0  0  0
  -23.9945   -7.4613   22.7490 H   0  0  0  0  0  0
  -21.0831   -8.8737   19.8944 H   0  0  0  0  0  0
  -22.3643  -10.9641   19.6185 H   0  0  0  0  0  0
  -21.2044   -7.6121   23.9677 H   0  0  0  0  0  0
  -21.1493   -6.0488   25.9036 H   0  0  0  0  0  0
  -22.0636   -2.7576   23.2835 H   0  0  0  0  0  0
  -22.4030  -11.9874   22.4839 H   0  0  0  0  0  0
  -21.1021  -13.1258   22.2613 H   0  0  0  0  0  0
  -24.6455  -15.8437   20.5251 H   0  0  0  0  0  0
  -26.2702  -15.6312   20.1102 H   0  0  0  0  0  0
  -26.7178  -32.5406   23.1068 H   0  0  0  0  0  0
  -25.0055  -33.9676   25.0440 H   0  0  0  0  0  0
  -22.7342  -31.3053   21.3866 H   0  0  0  0  0  0
  -23.3758  -35.9583   23.3304 H   0  0  0  0  0  0
  -24.3581  -36.8886   22.2079 H   0  0  0  0  0  0
  -23.7182  -37.6470   23.6660 H   0  0  0  0  0  0
  -26.1260  -31.5200   20.6101 H   0  0  0  0  0  0
  -26.8591  -30.8089   22.0125 H   0  0  0  0  0  0
  -28.1188  -28.8959   21.2227 H   0  0  0  0  0  0
  -25.9429  -25.9165   18.9609 H   0  0  0  0  0  0
  -23.9687  -27.3089   19.0039 H   0  0  0  0  0  0
  -23.7895  -30.5910   19.4016 H   0  0  0  0  0  0
  -22.7726  -29.2543   19.8367 H   0  0  0  0  0  0
  -25.1250  -36.1964   25.0879 H   0  0  0  0  0  0
  -21.0040  -28.3310   24.1337 H   0  0  0  0  0  0
  -20.5699  -26.2333   23.3625 H   0  0  0  0  0  0
  -21.6653  -26.7419   22.1198 H   0  0  0  0  0  0
  -19.6925  -25.6290   21.1249 H   0  0  0  0  0  0
  -19.6699  -27.3187   20.6754 H   0  0  0  0  0  0
  -17.4219  -26.6684   21.4022 H   0  0  0  0  0  0
  -18.0322  -26.0076   22.9023 H   0  0  0  0  0  0
  -19.7984  -30.7279   24.2218 H   0  0  0  0  0  0
  -17.5065  -31.6268   24.5170 H   0  0  0  0  0  0
  -15.5387  -30.2994   23.7672 H   0  0  0  0  0  0
  -15.8698  -28.0843   22.7040 H   0  0  0  0  0  0
  -24.5901  -30.7049   25.7793 H   0  0  0  0  0  0
  -24.8868  -32.2906   26.4822 H   0  0  0  0  0  0
  -25.8015  -30.8969   27.0264 H   0  0  0  0  0  0
  -26.3005  -29.6695   24.1257 H   0  0  0  0  0  0
  -27.4039  -29.7294   25.4804 H   0  0  0  0  0  0
  -27.8866  -30.4288   23.9539 H   0  0  0  0  0  0
  -27.2667  -33.3655   26.1991 H   0  0  0  0  0  0
  -28.3860  -32.6801   25.0300 H   0  0  0  0  0  0
  -28.0675  -31.8481   26.5445 H   0  0  0  0  0  0
  -28.2580  -38.0086   24.7537 H   0  0  0  0  0  0
  -28.1066  -36.2636   24.6264 H   0  0  0  0  0  0
  -27.2310  -37.1381   25.8879 H   0  0  0  0  0  0
  -20.9394  -29.8825   21.6844 H   0  0  0  0  0  0
  -26.0161  -38.2875   24.1433 H   0  0  0  0  0  0
  -28.9566  -20.7985   18.9984 H   0  0  0  0  0  0
  -31.0045  -20.1572   23.9548 H   0  0  0  0  0  0
  -31.6588  -19.1370   22.7160 H   0  0  0  0  0  0
  -30.0540  -18.8089   23.3617 H   0  0  0  0  0  0
  -28.4599  -23.6431   23.4415 H   0  0  0  0  0  0
  -29.6075  -24.7341   22.6229 H   0  0  0  0  0  0
  -29.7693  -24.4202   24.3220 H   0  0  0  0  0  0
  -32.5549  -22.3819   22.8018 H   0  0  0  0  0  0
  -32.2144  -23.8633   23.6756 H   0  0  0  0  0  0
  -31.9740  -23.7952   21.9371 H   0  0  0  0  0  0
  -29.3221  -16.3153   23.1417 H   0  0  0  0  0  0
  -31.0734  -16.2909   22.9005 H   0  0  0  0  0  0
  -30.1687  -14.7896   23.0394 H   0  0  0  0  0  0
  -30.2815  -18.5054   19.2319 H   0  0  0  0  0  0
  -31.1946  -18.3017   20.6652 H   0  0  0  0  0  0
  -28.7797  -16.8618   19.7686 H   0  0  0  0  0  0
  -28.5506  -17.4167   21.3678 H   0  0  0  0  0  0
  -27.7596  -24.7336   21.4110 H   0  0  0  0  0  0
  -27.2038  -24.4879   19.8190 H   0  0  0  0  0  0
  -30.4033  -22.1842   24.0039 H   0  0  0  0  0  0
  -30.1623  -24.2506   20.4820 H   0  0  0  0  0  0
  -28.7805  -23.2423   18.1544 H   0  0  0  0  0  0
  -30.3830  -23.1976   18.4576 H   0  0  0  0  0  0
  -29.6326  -24.6298   18.2579 H   0  0  0  0  0  0
  1 25  1  0  0  0
  1 30  2  0  0  0
  1 85  1  0  0  0
  2  3  1  0  0  0
  2 25  1  0  0  0
  2 87  1  0  0  0
  2 88  1  0  0  0
  3  4  1  0  0  0
  3 89  1  0  0  0
  3 90  1  0  0  0
  4  5  1  0  0  0
  4 91  1  0  0  0
  4 92  1  0  0  0
  5  6  1  0  0  0
  5 26  1  0  0  0
  5 93  1  0  0  0
  6 25  1  0  0  0
  6 94  1  0  0  0
  6 95  1  0  0  0
  7  8  2  0  0  0
  7 26  1  0  0  0
  7 29  1  0  0  0
  8  9  1  0  0  0
  8 22  1  0  0  0
  9 10  1  0  0  0
  9 27  2  0  0  0
 10 11  2  0  0  0
 10 15  1  0  0  0
 11 12  1  0  0  0
 11 96  1  0  0  0
 12 13  2  0  0  0
 12 97  1  0  0  0
 13 14  1  0  0  0
 13 31  1  0  0  0
 14 15  2  0  0  0
 14 98  1  0  0  0
 15 99  1  0  0  0
 16 17  2  0  0  0
 16 21  1  0  0  0
 16 31  1  0  0  0
 17 18  1  0  0  0
 17100  1  0  0  0
 18 19  2  0  0  0
 18101  1  0  0  0
 19 20  1  0  0  0
 19 24  1  0  0  0
 20 21  2  0  0  0
 20102  1  0  0  0
 21 23  1  0  0  0
 22 28  1  0  0  0
 22 32  2  0  0  0
 26 27  1  0  0  0
 28103  1  0  0  0
 28104  1  0  0  0
 29105  1  0  0  0
 29106  1  0  0  0
 33 34  1  0  0  0
 33 66  1  0  0  0
 33 70  2  0  0  0
 34 36  1  0  0  0
 34 59  1  0  0  0
 34107  1  0  0  0
 35 44  2  0  0  0
 35 45  1  0  0  0
 35 68  1  0  0  0
 36 56  1  0  0  0
 36108  1  0  0  0
 37 39  1  0  0  0
 37 47  1  0  0  0
 37 66  1  0  0  0
 37109  1  0  0  0
 38 43  2  0  0  0
 38 46  1  0  0  0
 38 47  1  0  0  0
 39 64  1  0  0  0
 39 67  2  0  0  0
 40 52  1  0  0  0
 40 53  2  0  0  0
 40 58  1  0  0  0
 41110  1  0  0  0
 41111  1  0  0  0
 41112  1  0  0  0
 41 48  1  0  0  0
 42 43  1  0  0  0
 42 66  1  0  0  0
 42113  1  0  0  0
 42114  1  0  0  0
 43 44  1  0  0  0
 44115  1  0  0  0
 45 46  2  0  0  0
 45116  1  0  0  0
 46117  1  0  0  0
 47118  1  0  0  0
 47119  1  0  0  0
 48 56  1  0  0  0
 48 65  1  0  0  0
 48120  1  0  0  0
 49 50  1  0  0  0
 49 53  1  0  0  0
 49 64  1  0  0  0
 49121  1  0  0  0
 50 51  1  0  0  0
 50122  1  0  0  0
 50123  1  0  0  0
 51 52  1  0  0  0
 51124  1  0  0  0
 51125  1  0  0  0
 52126  1  0  0  0
 52127  1  0  0  0
 53 54  1  0  0  0
 54 55  2  0  0  0
 54128  1  0  0  0
 55 57  1  0  0  0
 55129  1  0  0  0
 56 69  2  0  0  0
 57 58  2  0  0  0
 57130  1  0  0  0
 58131  1  0  0  0
 59 60  1  0  0  0
 59 61  1  0  0  0
 59 62  1  0  0  0
 60132  1  0  0  0
 60133  1  0  0  0
 60134  1  0  0  0
 61135  1  0  0  0
 61136  1  0  0  0
 61137  1  0  0  0
 62138  1  0  0  0
 62139  1  0  0  0
 62140  1  0  0  0
 63 65  1  0  0  0
 63141  1  0  0  0
 63142  1  0  0  0
 63143  1  0  0  0
 64144  1  0  0  0
 65145  1  0  0  0
 68 81  1  0  0  0
 71 72  2  0  0  0
 71 84  1  0  0  0
 71146  1  0  0  0
 72 73  1  0  0  0
 72 83  1  0  0  0
 73 74  2  0  0  0
 73 82  1  0  0  0
 74 75  1  0  0  0
 74 84  1  0  0  0
 75147  1  0  0  0
 75148  1  0  0  0
 75149  1  0  0  0
 76150  1  0  0  0
 76151  1  0  0  0
 76152  1  0  0  0
 76 82  1  0  0  0
 77 82  1  0  0  0
 77153  1  0  0  0
 77154  1  0  0  0
 77155  1  0  0  0
 78 85  1  0  0  0
 78156  1  0  0  0
 78157  1  0  0  0
 78158  1  0  0  0
 79 80  1  0  0  0
 79 84  1  0  0  0
 79159  1  0  0  0
 79160  1  0  0  0
 80 85  1  0  0  0
 80161  1  0  0  0
 80162  1  0  0  0
 81 83  1  0  0  0
 81163  1  0  0  0
 81164  1  0  0  0
 82165  1  0  0  0
 83 86  1  0  0  0
 83166  1  0  0  0
 86167  1  0  0  0
 86168  1  0  0  0
 86169  1  0  0  0
M  CHG  1  86   1
M  ISO  4   1 100  68 101  81 101  85 100
M  END
> <chiral flag>
0

> <version>
0

> <s_m_source_file>
/data/baiqing/PycharmProjects/Reinvent-master-3.2/result/LINK_invent/BTK/process_docking_weight1_custom_sum_contain_oxygen_bond_distance_aromatic_linkinvent_7_9_3/rearranged_h_0108.sdf

> <i_m_source_file_index>
71

> <r_mmod_Potential_Energy-OPLS-2005>
145.287811279297

> <r_mmod_Stretch_Energy-OPLS-2005>
156.737762451172

> <r_mmod_Bend_Energy-OPLS-2005>
216.941528320312

> <r_mmod_Torsional_Energy-OPLS-2005>
337.641845703125

> <r_mmod_Improper_Torsional_Energy-OPLS-2005>
6.76606845855713

> <r_mmod_Van_der_Waal_Energy-OPLS-2005>
114.471343994141

> <r_mmod_Electrostatic_Energy-OPLS-2005>
-339.574462890625

> <r_mmod_Solvation_Energy-OPLS-2005>
-442.285461425781

> <b_mmod_Minimization_Converged-OPLS-2005>
0

> <r_mmod_RMS_Derivative-OPLS-2005>
4.20969486236572

$$$$
71
                    3D
 Structure written by MMmdl.
156163  0  0  1  0            999 V2000
  -30.6400  -14.6815   20.4494 C   0  0  0  0  0  0
  -30.4342  -12.4113   19.4589 C   0  0  0  0  0  0
  -29.5147  -12.5025   18.2225 C   0  0  0  0  0  0
  -28.0355  -12.3417   18.6320 C   0  0  0  0  0  0
  -27.6471  -13.2304   19.8474 C   0  0  2  0  0  0
  -28.6957  -13.1403   20.9786 C   0  0  0  0  0  0
  -25.2535  -13.8192   20.5704 C   0  0  0  0  0  0
  -24.1812  -13.0430   20.9155 C   0  0  0  0  0  0
  -24.6406  -11.6912   20.8697 C   0  0  0  0  0  0
  -23.9079  -10.4293   21.0361 C   0  0  0  0  0  0
  -24.3624   -9.4213   21.9162 C   0  0  0  0  0  0
  -23.6293   -8.2251   22.0749 C   0  0  0  0  0  0
  -22.4263   -8.0275   21.3548 C   0  0  0  0  0  0
  -21.9905   -9.0247   20.4650 C   0  0  0  0  0  0
  -22.7240  -10.2122   20.3037 C   0  0  0  0  0  0
  -21.6853   -6.0740   22.5299 C   0  0  0  0  0  0
  -21.4016   -6.5644   23.8229 C   0  0  0  0  0  0
  -21.3659   -5.6792   24.9194 C   0  0  0  0  0  0
  -21.6047   -4.3056   24.7240 C   0  0  0  0  0  0
  -21.8812   -3.8147   23.4357 C   0  0  0  0  0  0
  -21.9198   -4.6965   22.3418 C   0  0  0  0  0  0
  -22.7833  -13.5204   21.1816 C   0  0  0  0  0  0
  -22.1661   -4.2151   21.0991 F   0  0  0  0  0  0
  -21.5627   -3.4541   25.7752 F   0  0  0  0  0  0
  -30.0054  -13.4671   20.3989 N   0  0  0  0  0  0
  -26.2975  -12.9425   20.3274 N   0  0  0  0  0  0
  -25.9344  -11.6552   20.5714 N   0  0  0  0  0  0
  -22.0454  -12.8237   22.0379 N   0  0  0  0  0  0
  -25.4161  -15.1939   20.4328 N   0  0  0  0  0  0
  -31.8273  -14.7834   20.1323 O   0  0  0  0  0  0
  -21.6633   -6.8863   21.4247 O   0  0  0  0  0  0
  -22.3544  -14.5517   20.6657 O   0  0  0  0  0  0
  -24.6295  -31.8569   23.1974 C   0  0  0  0  0  0
  -25.9129  -32.4767   23.8320 C   0  0  1  0  0  0
  -27.2495  -27.3063   20.1137 C   0  0  0  0  0  0
  -25.5926  -33.8563   24.2271 N   0  0  0  0  0  0
  -23.4242  -30.4772   21.5412 C   0  0  2  0  0  0
  -24.8721  -28.9178   20.1127 C   0  0  0  0  0  0
  -22.7495  -29.4628   22.4942 C   0  0  0  0  0  0
  -18.0292  -28.1394   22.8495 C   0  0  0  0  0  0
  -24.1481  -36.7274   23.2654 C   0  0  0  0  0  0
  -25.9631  -30.7831   21.3644 C   0  0  0  0  0  0
  -26.0401  -29.4065   20.7107 C   0  0  0  0  0  0
  -27.2239  -28.6116   20.7017 C   0  0  0  0  0  0
  -26.0510  -26.8580   19.5111 C   0  0  0  0  0  0
  -24.8816  -27.6488   19.5072 C   0  0  0  0  0  0
  -23.6384  -29.8006   20.1605 C   0  0  0  0  0  0
  -25.4111  -36.3082   24.0348 C   0  0  1  0  0  0
  -20.5899  -28.3713   23.1264 C   0  0  2  0  0  0
  -20.6782  -26.9431   22.5407 C   0  0  0  0  0  0
  -19.5745  -26.6388   21.5221 C   0  0  0  0  0  0
  -18.1924  -26.7937   22.1633 C   0  0  0  0  0  0
  -19.1547  -28.8868   23.2874 C   0  0  0  0  0  0
  -18.9468  -30.1462   23.8901 C   0  0  0  0  0  0
  -17.6468  -30.6586   24.0577 C   0  0  0  0  0  0
  -25.9055  -34.9453   23.5121 C   0  0  0  0  0  0
  -16.5362  -29.9093   23.6327 C   0  0  0  0  0  0
  -16.7284  -28.6507   23.0360 C   0  0  0  0  0  0
  -26.4504  -31.6584   25.0698 C   0  0  0  0  0  0
  -25.3735  -31.3702   26.1424 C   0  0  0  0  0  0
  -27.0364  -30.3026   24.6124 C   0  0  0  0  0  0
  -27.6092  -32.4298   25.7446 C   0  0  0  0  0  0
  -27.5568  -37.1793   24.8482 C   0  0  0  0  0  0
  -21.4216  -29.3059   22.3664 N   0  0  0  0  0  0
  -26.4290  -37.3768   23.9422 N   0  0  0  0  0  0
  -24.6923  -31.0561   22.0920 N   0  0  0  0  0  0
  -23.4200  -28.8183   23.3045 O   0  0  0  0  0  0
  -28.4083  -26.5092   20.1829 O   0  0  0  0  0  0
  -26.5622  -34.8940   22.4686 O   0  0  0  0  0  0
  -23.5449  -32.1389   23.7282 O   0  0  0  0  0  0
  -27.7565  -18.2169   20.5692 C   0  0  0  0  0  0
  -29.1588  -22.4684   19.7487 C   0  0  0  0  0  0
  -28.6924  -23.8386   20.4577 C   0  0  0  0  0  0
  -30.2617  -17.2816   20.5297 C   0  0  0  0  0  0
  -29.1743  -21.0586   20.5428 C   0  0  0  0  0  0
  -28.5662  -25.1669   19.5621 C   0  0  0  0  0  0
  -29.1841  -18.3675   19.9962 C   0  0  2  0  0  0
  -26.7778  -18.9774   20.0802 N   0  0  0  0  0  0
  -29.8705  -15.8066   20.6338 N   0  0  0  0  0  0
  -29.6209  -19.8247   19.7412 N   0  3  0  0  0  0
  -27.5104  -17.4001   21.4543 O   0  0  0  0  0  0
  -31.4786  -12.5161   19.1602 H   0  0  0  0  0  0
  -30.3538  -11.4309   19.9317 H   0  0  0  0  0  0
  -29.7907  -11.7377   17.4949 H   0  0  0  0  0  0
  -29.6609  -13.4652   17.7287 H   0  0  0  0  0  0
  -27.8799  -11.2910   18.8781 H   0  0  0  0  0  0
  -27.3860  -12.5581   17.7851 H   0  0  0  0  0  0
  -27.6421  -14.2555   19.4759 H   0  0  0  0  0  0
  -28.7154  -12.1381   21.4091 H   0  0  0  0  0  0
  -28.4403  -13.8215   21.7920 H   0  0  0  0  0  0
  -25.2758   -9.5715   22.4756 H   0  0  0  0  0  0
  -24.0012   -7.4650   22.7479 H   0  0  0  0  0  0
  -21.0835   -8.8770   19.8958 H   0  0  0  0  0  0
  -22.3677  -10.9670   19.6157 H   0  0  0  0  0  0
  -21.1998   -7.6148   23.9740 H   0  0  0  0  0  0
  -21.1486   -6.0519   25.9099 H   0  0  0  0  0  0
  -22.0582   -2.7605   23.2869 H   0  0  0  0  0  0
  -22.4003  -11.9909   22.4847 H   0  0  0  0  0  0
  -21.1078  -13.1310   22.2504 H   0  0  0  0  0  0
  -24.6527  -15.8283   20.6410 H   0  0  0  0  0  0
  -26.3095  -15.6679   20.3843 H   0  0  0  0  0  0
  -26.7207  -32.5423   23.1074 H   0  0  0  0  0  0
  -25.0094  -33.9704   25.0428 H   0  0  0  0  0  0
  -22.7197  -31.2991   21.3924 H   0  0  0  0  0  0
  -23.3750  -35.9594   23.3329 H   0  0  0  0  0  0
  -24.3575  -36.8868   22.2064 H   0  0  0  0  0  0
  -23.7216  -37.6485   23.6641 H   0  0  0  0  0  0
  -26.0936  -31.5403   20.5889 H   0  0  0  0  0  0
  -26.8469  -30.8367   21.9893 H   0  0  0  0  0  0
  -28.1210  -28.9917   21.1711 H   0  0  0  0  0  0
  -25.9833  -25.8771   19.0671 H   0  0  0  0  0  0
  -23.9818  -27.2619   19.0507 H   0  0  0  0  0  0
  -23.7583  -30.5752   19.4016 H   0  0  0  0  0  0
  -22.7563  -29.2317   19.8583 H   0  0  0  0  0  0
  -25.1277  -36.1956   25.0834 H   0  0  0  0  0  0
  -20.9991  -28.3295   24.1385 H   0  0  0  0  0  0
  -20.5684  -26.2335   23.3626 H   0  0  0  0  0  0
  -21.6648  -26.7454   22.1196 H   0  0  0  0  0  0
  -19.6923  -25.6302   21.1238 H   0  0  0  0  0  0
  -19.6670  -27.3218   20.6767 H   0  0  0  0  0  0
  -17.4205  -26.6713   21.4021 H   0  0  0  0  0  0
  -18.0312  -26.0068   22.9017 H   0  0  0  0  0  0
  -19.7950  -30.7276   24.2270 H   0  0  0  0  0  0
  -17.5030  -31.6270   24.5188 H   0  0  0  0  0  0
  -15.5365  -30.3008   23.7634 H   0  0  0  0  0  0
  -15.8690  -28.0827   22.7075 H   0  0  0  0  0  0
  -24.5936  -30.7022   25.7740 H   0  0  0  0  0  0
  -24.8891  -32.2857   26.4829 H   0  0  0  0  0  0
  -25.8063  -30.8901   27.0214 H   0  0  0  0  0  0
  -26.2938  -29.6746   24.1187 H   0  0  0  0  0  0
  -27.4165  -29.7285   25.4588 H   0  0  0  0  0  0
  -27.8741  -30.4345   23.9272 H   0  0  0  0  0  0
  -27.2754  -33.3632   26.1973 H   0  0  0  0  0  0
  -28.3901  -32.6798   25.0252 H   0  0  0  0  0  0
  -28.0748  -31.8449   26.5383 H   0  0  0  0  0  0
  -28.2623  -38.0059   24.7504 H   0  0  0  0  0  0
  -28.1029  -36.2595   24.6329 H   0  0  0  0  0  0
  -27.2291  -37.1465   25.8891 H   0  0  0  0  0  0
  -20.9419  -29.8758   21.6840 H   0  0  0  0  0  0
  -26.0187  -38.2852   24.1399 H   0  0  0  0  0  0
  -30.1621  -22.6388   19.3525 H   0  0  0  0  0  0
  -28.5310  -22.3332   18.8686 H   0  0  0  0  0  0
  -29.3991  -24.0475   21.2610 H   0  0  0  0  0  0
  -27.7350  -23.6757   20.9520 H   0  0  0  0  0  0
  -30.6098  -17.5976   21.5127 H   0  0  0  0  0  0
  -31.1372  -17.3361   19.8817 H   0  0  0  0  0  0
  -28.1825  -20.9153   20.9645 H   0  0  0  0  0  0
  -29.8415  -21.1410   21.4040 H   0  0  0  0  0  0
  -27.8426  -24.9952   18.7690 H   0  0  0  0  0  0
  -29.5134  -25.2524   19.0272 H   0  0  0  0  0  0
  -29.0378  -18.0227   18.9711 H   0  0  0  0  0  0
  -26.9228  -19.6301   19.3252 H   0  0  0  0  0  0
  -25.8464  -18.8859   20.4603 H   0  0  0  0  0  0
  -28.9018  -15.6402   20.8728 H   0  0  0  0  0  0
  -30.6232  -19.8345   19.6668 H   0  0  0  0  0  0
  -29.2892  -19.9915   18.8067 H   0  0  0  0  0  0
  1 25  1  0  0  0
  1 30  2  0  0  0
  1 79  1  0  0  0
  2  3  1  0  0  0
  2 25  1  0  0  0
  2 82  1  0  0  0
  2 83  1  0  0  0
  3  4  1  0  0  0
  3 84  1  0  0  0
  3 85  1  0  0  0
  4  5  1  0  0  0
  4 86  1  0  0  0
  4 87  1  0  0  0
  5  6  1  0  0  0
  5 26  1  0  0  0
  5 88  1  0  0  0
  6 25  1  0  0  0
  6 89  1  0  0  0
  6 90  1  0  0  0
  7  8  2  0  0  0
  7 26  1  0  0  0
  7 29  1  0  0  0
  8  9  1  0  0  0
  8 22  1  0  0  0
  9 10  1  0  0  0
  9 27  2  0  0  0
 10 11  2  0  0  0
 10 15  1  0  0  0
 11 12  1  0  0  0
 11 91  1  0  0  0
 12 13  2  0  0  0
 12 92  1  0  0  0
 13 14  1  0  0  0
 13 31  1  0  0  0
 14 15  2  0  0  0
 14 93  1  0  0  0
 15 94  1  0  0  0
 16 17  2  0  0  0
 16 21  1  0  0  0
 16 31  1  0  0  0
 17 18  1  0  0  0
 17 95  1  0  0  0
 18 19  2  0  0  0
 18 96  1  0  0  0
 19 20  1  0  0  0
 19 24  1  0  0  0
 20 21  2  0  0  0
 20 97  1  0  0  0
 21 23  1  0  0  0
 22 28  1  0  0  0
 22 32  2  0  0  0
 26 27  1  0  0  0
 28 98  1  0  0  0
 28 99  1  0  0  0
 29100  1  0  0  0
 29101  1  0  0  0
 33 34  1  0  0  0
 33 66  1  0  0  0
 33 70  2  0  0  0
 34 36  1  0  0  0
 34 59  1  0  0  0
 34102  1  0  0  0
 35 44  2  0  0  0
 35 45  1  0  0  0
 35 68  1  0  0  0
 36 56  1  0  0  0
 36103  1  0  0  0
 37 39  1  0  0  0
 37 47  1  0  0  0
 37 66  1  0  0  0
 37104  1  0  0  0
 38 43  2  0  0  0
 38 46  1  0  0  0
 38 47  1  0  0  0
 39 64  1  0  0  0
 39 67  2  0  0  0
 40 52  1  0  0  0
 40 53  2  0  0  0
 40 58  1  0  0  0
 41105  1  0  0  0
 41106  1  0  0  0
 41107  1  0  0  0
 41 48  1  0  0  0
 42 43  1  0  0  0
 42 66  1  0  0  0
 42108  1  0  0  0
 42109  1  0  0  0
 43 44  1  0  0  0
 44110  1  0  0  0
 45 46  2  0  0  0
 45111  1  0  0  0
 46112  1  0  0  0
 47113  1  0  0  0
 47114  1  0  0  0
 48 56  1  0  0  0
 48 65  1  0  0  0
 48115  1  0  0  0
 49 50  1  0  0  0
 49 53  1  0  0  0
 49 64  1  0  0  0
 49116  1  0  0  0
 50 51  1  0  0  0
 50117  1  0  0  0
 50118  1  0  0  0
 51 52  1  0  0  0
 51119  1  0  0  0
 51120  1  0  0  0
 52121  1  0  0  0
 52122  1  0  0  0
 53 54  1  0  0  0
 54 55  2  0  0  0
 54123  1  0  0  0
 55 57  1  0  0  0
 55124  1  0  0  0
 56 69  2  0  0  0
 57 58  2  0  0  0
 57125  1  0  0  0
 58126  1  0  0  0
 59 60  1  0  0  0
 59 61  1  0  0  0
 59 62  1  0  0  0
 60127  1  0  0  0
 60128  1  0  0  0
 60129  1  0  0  0
 61130  1  0  0  0
 61131  1  0  0  0
 61132  1  0  0  0
 62133  1  0  0  0
 62134  1  0  0  0
 62135  1  0  0  0
 63 65  1  0  0  0
 63136  1  0  0  0
 63137  1  0  0  0
 63138  1  0  0  0
 64139  1  0  0  0
 65140  1  0  0  0
 68 76  1  0  0  0
 71 77  1  0  0  0
 71 78  1  0  0  0
 71 81  2  0  0  0
 72 73  1  0  0  0
 72 75  1  0  0  0
 72141  1  0  0  0
 72142  1  0  0  0
 73 76  1  0  0  0
 73143  1  0  0  0
 73144  1  0  0  0
 74 79  1  0  0  0
 74145  1  0  0  0
 74146  1  0  0  0
 74 77  1  0  0  0
 75 80  1  0  0  0
 75147  1  0  0  0
 75148  1  0  0  0
 76149  1  0  0  0
 76150  1  0  0  0
 77 80  1  0  0  0
 77151  1  0  0  0
 78152  1  0  0  0
 78153  1  0  0  0
 79154  1  0  0  0
 80155  1  0  0  0
 80156  1  0  0  0
M  CHG  1  80   1
M  ISO  4   1 100  68 101  76 101  79 100
M  END
> <chiral flag>
0

> <version>
0

> <s_m_source_file>
/data/baiqing/PycharmProjects/Reinvent-master-3.2/result/LINK_invent/BTK/process_docking_weight1_custom_sum_contain_oxygen_bond_distance_aromatic_linkinvent_7_9_3/rearranged_h_0108.sdf

> <i_m_source_file_index>
72

> <r_mmod_Potential_Energy-OPLS-2005>
-241.208312988281

> <r_mmod_Stretch_Energy-OPLS-2005>
107.929954528809

> <r_mmod_Bend_Energy-OPLS-2005>
192.816833496094

> <r_mmod_Torsional_Energy-OPLS-2005>
200.406951904297

> <r_mmod_Improper_Torsional_Energy-OPLS-2005>
5.77844858169556

> <r_mmod_Van_der_Waal_Energy-OPLS-2005>
119.488182067871

> <r_mmod_Electrostatic_Energy-OPLS-2005>
-392.341888427734

> <r_mmod_Solvation_Energy-OPLS-2005>
-534.070129394531

> <b_mmod_Minimization_Converged-OPLS-2005>
0

> <r_mmod_RMS_Derivative-OPLS-2005>
3.31215786933899

$$$$
72
                    3D
 Structure written by MMmdl.
162170  0  0  1  0            999 V2000
  -30.5245  -14.8848   20.4101 C   0  0  0  0  0  0
  -30.4494  -12.5390   19.4800 C   0  0  0  0  0  0
  -29.5185  -12.5194   18.2447 C   0  0  0  0  0  0
  -28.0506  -12.3053   18.6648 C   0  0  0  0  0  0
  -27.6370  -13.2180   19.8469 C   0  0  2  0  0  0
  -28.6858  -13.2056   20.9800 C   0  0  0  0  0  0
  -25.2516  -13.8099   20.5776 C   0  0  0  0  0  0
  -24.1788  -13.0372   20.9231 C   0  0  0  0  0  0
  -24.6371  -11.6855   20.8746 C   0  0  0  0  0  0
  -23.9044  -10.4254   21.0408 C   0  0  0  0  0  0
  -24.3603   -9.4177   21.9187 C   0  0  0  0  0  0
  -23.6281   -8.2216   22.0753 C   0  0  0  0  0  0
  -22.4262   -8.0257   21.3543 C   0  0  0  0  0  0
  -21.9896   -9.0228   20.4641 C   0  0  0  0  0  0
  -22.7220  -10.2110   20.3053 C   0  0  0  0  0  0
  -21.6847   -6.0721   22.5277 C   0  0  0  0  0  0
  -21.4009   -6.5632   23.8208 C   0  0  0  0  0  0
  -21.3663   -5.6786   24.9173 C   0  0  0  0  0  0
  -21.6044   -4.3049   24.7226 C   0  0  0  0  0  0
  -21.8825   -3.8140   23.4350 C   0  0  0  0  0  0
  -21.9195   -4.6953   22.3402 C   0  0  0  0  0  0
  -22.7820  -13.5186   21.1879 C   0  0  0  0  0  0
  -22.1663   -4.2139   21.0981 F   0  0  0  0  0  0
  -21.5635   -3.4533   25.7741 F   0  0  0  0  0  0
  -29.9690  -13.6124   20.3877 N   0  0  0  0  0  0
  -26.2919  -12.9294   20.3290 N   0  0  0  0  0  0
  -25.9297  -11.6454   20.5745 N   0  0  0  0  0  0
  -22.0454  -12.8187   22.0432 N   0  0  0  0  0  0
  -25.4180  -15.1814   20.4319 N   0  0  0  0  0  0
  -31.7220  -15.0119   20.1310 O   0  0  0  0  0  0
  -21.6627   -6.8857   21.4237 O   0  0  0  0  0  0
  -22.3525  -14.5498   20.6718 O   0  0  0  0  0  0
  -24.6378  -31.8479   23.1899 C   0  0  0  0  0  0
  -25.9166  -32.4717   23.8283 C   0  0  1  0  0  0
  -27.2353  -27.1936   20.1319 C   0  0  0  0  0  0
  -25.5931  -33.8521   24.2207 N   0  0  0  0  0  0
  -23.4395  -30.4651   21.5350 C   0  0  2  0  0  0
  -24.8903  -28.8974   20.1075 C   0  0  0  0  0  0
  -22.7541  -29.4555   22.4888 C   0  0  0  0  0  0
  -18.0297  -28.1388   22.8476 C   0  0  0  0  0  0
  -24.1490  -36.7265   23.2642 C   0  0  0  0  0  0
  -25.9891  -30.7375   21.3809 C   0  0  0  0  0  0
  -26.0618  -29.3532   20.7223 C   0  0  0  0  0  0
  -27.2298  -28.5136   20.7230 C   0  0  0  0  0  0
  -26.0335  -26.8185   19.4900 C   0  0  0  0  0  0
  -24.8851  -27.6411   19.4805 C   0  0  0  0  0  0
  -23.6616  -29.7901   20.1545 C   0  0  0  0  0  0
  -25.4122  -36.3055   24.0326 C   0  0  1  0  0  0
  -20.5905  -28.3703   23.1252 C   0  0  2  0  0  0
  -20.6778  -26.9414   22.5406 C   0  0  0  0  0  0
  -19.5755  -26.6378   21.5208 C   0  0  0  0  0  0
  -18.1936  -26.7927   22.1619 C   0  0  0  0  0  0
  -19.1553  -28.8864   23.2852 C   0  0  0  0  0  0
  -18.9469  -30.1463   23.8874 C   0  0  0  0  0  0
  -17.6467  -30.6586   24.0557 C   0  0  0  0  0  0
  -25.9068  -34.9425   23.5081 C   0  0  0  0  0  0
  -16.5360  -29.9079   23.6332 C   0  0  0  0  0  0
  -16.7283  -28.6497   23.0352 C   0  0  0  0  0  0
  -26.4506  -31.6568   25.0705 C   0  0  0  0  0  0
  -25.3702  -31.3734   26.1405 C   0  0  0  0  0  0
  -27.0369  -30.2978   24.6243 C   0  0  0  0  0  0
  -27.6052  -32.4321   25.7481 C   0  0  0  0  0  0
  -27.5582  -37.1788   24.8468 C   0  0  0  0  0  0
  -21.4240  -29.3036   22.3635 N   0  0  0  0  0  0
  -26.4296  -37.3759   23.9409 N   0  0  0  0  0  0
  -24.7082  -31.0372   22.0910 N   0  0  0  0  0  0
  -23.4205  -28.8111   23.3029 O   0  0  0  0  0  0
  -28.3394  -26.2882   20.2364 O   0  0  0  0  0  0
  -26.5654  -34.8915   22.4662 O   0  0  0  0  0  0
  -23.5508  -32.1331   23.7146 O   0  0  0  0  0  0
  -28.5492  -19.5722   19.3657 C   0  0  0  0  0  0
  -30.4461  -18.4454   21.0294 C   0  0  0  0  0  0
  -29.3356  -20.5332   20.0644 C   0  0  0  0  0  0
  -28.6705  -18.1339   19.4770 C   0  0  0  0  0  0
  -30.3104  -19.8928   20.9075 C   0  0  0  0  0  0
  -29.6465  -17.4843   20.3217 C   0  0  0  0  0  0
  -31.2743  -20.7699   21.6836 C   0  0  0  0  0  0
  -28.2898  -17.2123   17.1583 C   0  0  0  0  0  0
  -26.2808  -17.7842   18.5987 C   0  0  0  0  0  0
  -29.2729  -22.1171   19.6462 C   0  0  0  0  0  0
  -28.6629  -23.4323   20.4473 C   0  0  0  0  0  0
  -28.4410  -24.8750   19.6463 C   0  0  0  0  0  0
  -27.7436  -17.2993   18.5901 C   0  0  0  0  0  0
  -29.6472  -15.9779   20.5560 N   0  0  0  0  0  0
  -31.4817  -12.7042   19.1685 H   0  0  0  0  0  0
  -30.4400  -11.5732   19.9880 H   0  0  0  0  0  0
  -29.8267  -11.7380   17.5490 H   0  0  0  0  0  0
  -29.6083  -13.4623   17.7037 H   0  0  0  0  0  0
  -27.9394  -11.2593   18.9536 H   0  0  0  0  0  0
  -27.3856  -12.4578   17.8138 H   0  0  0  0  0  0
  -27.6076  -14.2195   19.4325 H   0  0  0  0  0  0
  -28.7632  -12.2137   21.4282 H   0  0  0  0  0  0
  -28.3962  -13.8828   21.7850 H   0  0  0  0  0  0
  -25.2753   -9.5656   22.4758 H   0  0  0  0  0  0
  -23.9991   -7.4608   22.7473 H   0  0  0  0  0  0
  -21.0828   -8.8744   19.8944 H   0  0  0  0  0  0
  -22.3682  -10.9650   19.6162 H   0  0  0  0  0  0
  -21.1988   -7.6138   23.9703 H   0  0  0  0  0  0
  -21.1486   -6.0520   25.9076 H   0  0  0  0  0  0
  -22.0602   -2.7600   23.2851 H   0  0  0  0  0  0
  -22.4069  -11.9851   22.4828 H   0  0  0  0  0  0
  -21.1072  -13.1214   22.2624 H   0  0  0  0  0  0
  -24.6425  -15.8231   20.5514 H   0  0  0  0  0  0
  -26.2538  -15.6343   20.0939 H   0  0  0  0  0  0
  -26.7229  -32.5343   23.1015 H   0  0  0  0  0  0
  -25.0056  -33.9644   25.0336 H   0  0  0  0  0  0
  -22.7393  -31.2885   21.3814 H   0  0  0  0  0  0
  -23.3768  -35.9581   23.3294 H   0  0  0  0  0  0
  -24.3575  -36.8901   22.2059 H   0  0  0  0  0  0
  -23.7222  -37.6451   23.6677 H   0  0  0  0  0  0
  -26.1376  -31.4940   20.6092 H   0  0  0  0  0  0
  -26.8620  -30.7880   22.0198 H   0  0  0  0  0  0
  -28.1237  -28.8566   21.2245 H   0  0  0  0  0  0
  -25.9326  -25.8547   19.0183 H   0  0  0  0  0  0
  -23.9860  -27.2835   18.9973 H   0  0  0  0  0  0
  -23.7880  -30.5616   19.3944 H   0  0  0  0  0  0
  -22.7791  -29.2234   19.8515 H   0  0  0  0  0  0
  -25.1306  -36.1898   25.0819 H   0  0  0  0  0  0
  -20.9990  -28.3284   24.1374 H   0  0  0  0  0  0
  -20.5655  -26.2319   23.3619 H   0  0  0  0  0  0
  -21.6645  -26.7416   22.1215 H   0  0  0  0  0  0
  -19.6916  -25.6282   21.1248 H   0  0  0  0  0  0
  -19.6695  -27.3175   20.6728 H   0  0  0  0  0  0
  -17.4206  -26.6669   21.4024 H   0  0  0  0  0  0
  -18.0342  -26.0074   22.9020 H   0  0  0  0  0  0
  -19.7947  -30.7283   24.2237 H   0  0  0  0  0  0
  -17.5021  -31.6264   24.5161 H   0  0  0  0  0  0
  -15.5357  -30.2972   23.7666 H   0  0  0  0  0  0
  -15.8686  -28.0808   22.7079 H   0  0  0  0  0  0
  -24.5899  -30.7064   25.7714 H   0  0  0  0  0  0
  -24.8864  -32.2904   26.4781 H   0  0  0  0  0  0
  -25.7993  -30.8937   27.0211 H   0  0  0  0  0  0
  -26.2970  -29.6703   24.1259 H   0  0  0  0  0  0
  -27.4018  -29.7268   25.4789 H   0  0  0  0  0  0
  -27.8861  -30.4234   23.9522 H   0  0  0  0  0  0
  -27.2664  -33.3640   26.2020 H   0  0  0  0  0  0
  -28.3879  -32.6850   25.0315 H   0  0  0  0  0  0
  -28.0704  -31.8470   26.5423 H   0  0  0  0  0  0
  -28.2600  -38.0086   24.7528 H   0  0  0  0  0  0
  -28.1084  -36.2620   24.6290 H   0  0  0  0  0  0
  -27.2302  -37.1428   25.8872 H   0  0  0  0  0  0
  -20.9448  -29.8753   21.6820 H   0  0  0  0  0  0
  -26.0176  -38.2836   24.1403 H   0  0  0  0  0  0
  -27.8384  -19.9690   18.6572 H   0  0  0  0  0  0
  -31.1940  -18.0605   21.7090 H   0  0  0  0  0  0
  -31.8008  -20.2038   22.4521 H   0  0  0  0  0  0
  -30.7431  -21.5842   22.1769 H   0  0  0  0  0  0
  -32.0188  -21.2007   21.0135 H   0  0  0  0  0  0
  -29.2936  -16.7863   17.1485 H   0  0  0  0  0  0
  -28.3420  -18.1964   16.6910 H   0  0  0  0  0  0
  -27.6584  -16.5809   16.5322 H   0  0  0  0  0  0
  -25.9046  -17.8897   19.6168 H   0  0  0  0  0  0
  -25.6345  -17.0729   18.0830 H   0  0  0  0  0  0
  -26.1503  -18.7419   18.0967 H   0  0  0  0  0  0
  -28.7585  -22.1213   18.6847 H   0  0  0  0  0  0
  -30.2993  -22.3765   19.3840 H   0  0  0  0  0  0
  -29.3062  -23.6166   21.3079 H   0  0  0  0  0  0
  -27.6980  -23.1508   20.8686 H   0  0  0  0  0  0
  -27.6563  -24.7146   18.9113 H   0  0  0  0  0  0
  -29.3293  -24.9657   19.0204 H   0  0  0  0  0  0
  -27.7198  -16.2898   18.9784 H   0  0  0  0  0  0
  -28.7179  -15.6239   20.7162 H   0  0  0  0  0  0
  1 25  1  0  0  0
  1 30  2  0  0  0
  1 84  1  0  0  0
  2  3  1  0  0  0
  2 25  1  0  0  0
  2 85  1  0  0  0
  2 86  1  0  0  0
  3  4  1  0  0  0
  3 87  1  0  0  0
  3 88  1  0  0  0
  4  5  1  0  0  0
  4 89  1  0  0  0
  4 90  1  0  0  0
  5  6  1  0  0  0
  5 26  1  0  0  0
  5 91  1  0  0  0
  6 25  1  0  0  0
  6 92  1  0  0  0
  6 93  1  0  0  0
  7  8  2  0  0  0
  7 26  1  0  0  0
  7 29  1  0  0  0
  8  9  1  0  0  0
  8 22  1  0  0  0
  9 10  1  0  0  0
  9 27  2  0  0  0
 10 11  2  0  0  0
 10 15  1  0  0  0
 11 12  1  0  0  0
 11 94  1  0  0  0
 12 13  2  0  0  0
 12 95  1  0  0  0
 13 14  1  0  0  0
 13 31  1  0  0  0
 14 15  2  0  0  0
 14 96  1  0  0  0
 15 97  1  0  0  0
 16 17  2  0  0  0
 16 21  1  0  0  0
 16 31  1  0  0  0
 17 18  1  0  0  0
 17 98  1  0  0  0
 18 19  2  0  0  0
 18 99  1  0  0  0
 19 20  1  0  0  0
 19 24  1  0  0  0
 20 21  2  0  0  0
 20100  1  0  0  0
 21 23  1  0  0  0
 22 28  1  0  0  0
 22 32  2  0  0  0
 26 27  1  0  0  0
 28101  1  0  0  0
 28102  1  0  0  0
 29103  1  0  0  0
 29104  1  0  0  0
 33 34  1  0  0  0
 33 66  1  0  0  0
 33 70  2  0  0  0
 34 36  1  0  0  0
 34 59  1  0  0  0
 34105  1  0  0  0
 35 44  2  0  0  0
 35 45  1  0  0  0
 35 68  1  0  0  0
 36 56  1  0  0  0
 36106  1  0  0  0
 37 39  1  0  0  0
 37 47  1  0  0  0
 37 66  1  0  0  0
 37107  1  0  0  0
 38 43  2  0  0  0
 38 46  1  0  0  0
 38 47  1  0  0  0
 39 64  1  0  0  0
 39 67  2  0  0  0
 40 52  1  0  0  0
 40 53  2  0  0  0
 40 58  1  0  0  0
 41108  1  0  0  0
 41109  1  0  0  0
 41110  1  0  0  0
 41 48  1  0  0  0
 42 43  1  0  0  0
 42 66  1  0  0  0
 42111  1  0  0  0
 42112  1  0  0  0
 43 44  1  0  0  0
 44113  1  0  0  0
 45 46  2  0  0  0
 45114  1  0  0  0
 46115  1  0  0  0
 47116  1  0  0  0
 47117  1  0  0  0
 48 56  1  0  0  0
 48 65  1  0  0  0
 48118  1  0  0  0
 49 50  1  0  0  0
 49 53  1  0  0  0
 49 64  1  0  0  0
 49119  1  0  0  0
 50 51  1  0  0  0
 50120  1  0  0  0
 50121  1  0  0  0
 51 52  1  0  0  0
 51122  1  0  0  0
 51123  1  0  0  0
 52124  1  0  0  0
 52125  1  0  0  0
 53 54  1  0  0  0
 54 55  2  0  0  0
 54126  1  0  0  0
 55 57  1  0  0  0
 55127  1  0  0  0
 56 69  2  0  0  0
 57 58  2  0  0  0
 57128  1  0  0  0
 58129  1  0  0  0
 59 60  1  0  0  0
 59 61  1  0  0  0
 59 62  1  0  0  0
 60130  1  0  0  0
 60131  1  0  0  0
 60132  1  0  0  0
 61133  1  0  0  0
 61134  1  0  0  0
 61135  1  0  0  0
 62136  1  0  0  0
 62137  1  0  0  0
 62138  1  0  0  0
 63 65  1  0  0  0
 63139  1  0  0  0
 63140  1  0  0  0
 63141  1  0  0  0
 64142  1  0  0  0
 65143  1  0  0  0
 68 82  1  0  0  0
 71 73  2  0  0  0
 71 74  1  0  0  0
 71144  1  0  0  0
 72 75  2  0  0  0
 72 76  1  0  0  0
 72145  1  0  0  0
 73 75  1  0  0  0
 73 80  1  0  0  0
 74 76  2  0  0  0
 74 83  1  0  0  0
 75 77  1  0  0  0
 76 84  1  0  0  0
 77146  1  0  0  0
 77147  1  0  0  0
 77148  1  0  0  0
 78149  1  0  0  0
 78150  1  0  0  0
 78151  1  0  0  0
 78 83  1  0  0  0
 79 83  1  0  0  0
 79152  1  0  0  0
 79153  1  0  0  0
 79154  1  0  0  0
 80 81  1  0  0  0
 80155  1  0  0  0
 80156  1  0  0  0
 81 82  1  0  0  0
 81157  1  0  0  0
 81158  1  0  0  0
 82159  1  0  0  0
 82160  1  0  0  0
 83161  1  0  0  0
 84162  1  0  0  0
M  ISO  4   1 100  68 101  82 101  84 100
M  END
> <chiral flag>
0

> <version>
0

> <s_m_source_file>
/data/baiqing/PycharmProjects/Reinvent-master-3.2/result/LINK_invent/BTK/process_docking_weight1_custom_sum_contain_oxygen_bond_distance_aromatic_linkinvent_7_9_3/rearranged_h_0108.sdf

> <i_m_source_file_index>
73

> <r_mmod_Potential_Energy-OPLS-2005>
384.074188232422

> <r_mmod_Stretch_Energy-OPLS-2005>
191.15007019043

> <r_mmod_Bend_Energy-OPLS-2005>
255.131378173828

> <r_mmod_Torsional_Energy-OPLS-2005>
238.321884155273

> <r_mmod_Improper_Torsional_Energy-OPLS-2005>
7.80882406234741

> <r_mmod_Van_der_Waal_Energy-OPLS-2005>
128.175979614258

> <r_mmod_Electrostatic_Energy-OPLS-2005>
-382.8837890625

> <r_mmod_Solvation_Energy-OPLS-2005>
-200.079940795898

> <b_mmod_Minimization_Converged-OPLS-2005>
0

> <r_mmod_RMS_Derivative-OPLS-2005>
0.852745115756989

$$$$
73
                    3D
 Structure written by MMmdl.
165173  0  0  1  0            999 V2000
  -30.6142  -14.7197   20.4500 C   0  0  0  0  0  0
  -30.4286  -12.4295   19.4917 C   0  0  0  0  0  0
  -29.5144  -12.5012   18.2482 C   0  0  0  0  0  0
  -28.0363  -12.3390   18.6553 C   0  0  0  0  0  0
  -27.6459  -13.2325   19.8627 C   0  0  2  0  0  0
  -28.6868  -13.1513   21.0014 C   0  0  0  0  0  0
  -25.2499  -13.8197   20.5701 C   0  0  0  0  0  0
  -24.1792  -13.0435   20.9204 C   0  0  0  0  0  0
  -24.6381  -11.6922   20.8762 C   0  0  0  0  0  0
  -23.9072  -10.4293   21.0429 C   0  0  0  0  0  0
  -24.3628   -9.4200   21.9192 C   0  0  0  0  0  0
  -23.6305   -8.2237   22.0764 C   0  0  0  0  0  0
  -22.4284   -8.0279   21.3553 C   0  0  0  0  0  0
  -21.9921   -9.0256   20.4651 C   0  0  0  0  0  0
  -22.7256  -10.2131   20.3066 C   0  0  0  0  0  0
  -21.6849   -6.0732   22.5285 C   0  0  0  0  0  0
  -21.4013   -6.5640   23.8216 C   0  0  0  0  0  0
  -21.3666   -5.6797   24.9180 C   0  0  0  0  0  0
  -21.6046   -4.3059   24.7237 C   0  0  0  0  0  0
  -21.8814   -3.8144   23.4358 C   0  0  0  0  0  0
  -21.9196   -4.6960   22.3413 C   0  0  0  0  0  0
  -22.7804  -13.5213   21.1878 C   0  0  0  0  0  0
  -22.1660   -4.2139   21.0991 F   0  0  0  0  0  0
  -21.5646   -3.4547   25.7751 F   0  0  0  0  0  0
  -29.9932  -13.4922   20.4290 N   0  0  0  0  0  0
  -26.2943  -12.9413   20.3336 N   0  0  0  0  0  0
  -25.9316  -11.6552   20.5789 N   0  0  0  0  0  0
  -22.0473  -12.8182   22.0430 N   0  0  0  0  0  0
  -25.4166  -15.1917   20.4088 N   0  0  0  0  0  0
  -31.7955  -14.8094   20.1051 O   0  0  0  0  0  0
  -21.6647   -6.8877   21.4245 O   0  0  0  0  0  0
  -22.3474  -14.5520   20.6739 O   0  0  0  0  0  0
  -24.6295  -31.8582   23.2013 C   0  0  0  0  0  0
  -25.9119  -32.4775   23.8356 C   0  0  1  0  0  0
  -27.2098  -27.2641   20.1298 C   0  0  0  0  0  0
  -25.5925  -33.8579   24.2285 N   0  0  0  0  0  0
  -23.4261  -30.4817   21.5443 C   0  0  2  0  0  0
  -24.8714  -28.9325   20.1102 C   0  0  0  0  0  0
  -22.7499  -29.4613   22.4913 C   0  0  0  0  0  0
  -18.0297  -28.1387   22.8486 C   0  0  0  0  0  0
  -24.1498  -36.7281   23.2641 C   0  0  0  0  0  0
  -25.9729  -30.7692   21.3837 C   0  0  0  0  0  0
  -26.0436  -29.3935   20.7231 C   0  0  0  0  0  0
  -27.2154  -28.5707   20.7250 C   0  0  0  0  0  0
  -26.0166  -26.8783   19.4770 C   0  0  0  0  0  0
  -24.8626  -27.6822   19.4775 C   0  0  0  0  0  0
  -23.6442  -29.8213   20.1589 C   0  0  0  0  0  0
  -25.4126  -36.3088   24.0335 C   0  0  1  0  0  0
  -20.5901  -28.3697   23.1268 C   0  0  2  0  0  0
  -20.6791  -26.9415   22.5406 C   0  0  0  0  0  0
  -19.5760  -26.6387   21.5215 C   0  0  0  0  0  0
  -18.1940  -26.7934   22.1622 C   0  0  0  0  0  0
  -19.1551  -28.8860   23.2873 C   0  0  0  0  0  0
  -18.9469  -30.1462   23.8888 C   0  0  0  0  0  0
  -17.6469  -30.6589   24.0565 C   0  0  0  0  0  0
  -25.9064  -34.9453   23.5117 C   0  0  0  0  0  0
  -16.5362  -29.9088   23.6330 C   0  0  0  0  0  0
  -16.7285  -28.6506   23.0353 C   0  0  0  0  0  0
  -26.4496  -31.6587   25.0732 C   0  0  0  0  0  0
  -25.3722  -31.3710   26.1447 C   0  0  0  0  0  0
  -27.0350  -30.3014   24.6200 C   0  0  0  0  0  0
  -27.6058  -32.4323   25.7497 C   0  0  0  0  0  0
  -27.5592  -37.1797   24.8464 C   0  0  0  0  0  0
  -21.4205  -29.3049   22.3656 N   0  0  0  0  0  0
  -26.4304  -37.3780   23.9411 N   0  0  0  0  0  0
  -24.6951  -31.0545   22.0992 N   0  0  0  0  0  0
  -23.4206  -28.8147   23.3001 O   0  0  0  0  0  0
  -28.2922  -26.3558   20.2047 O   0  0  0  0  0  0
  -26.5629  -34.8919   22.4685 O   0  0  0  0  0  0
  -23.5442  -32.1403   23.7293 O   0  0  0  0  0  0
  -29.5880  -22.0746   18.1394 C   0  0  0  0  0  0
  -29.4633  -21.3051   19.3186 C   0  0  0  0  0  0
  -30.0264  -19.9338   19.3084 C   0  0  0  0  0  0
  -30.9323  -19.7142   18.2194 C   0  0  0  0  0  0
  -30.9854  -20.5962   17.1219 C   0  0  0  0  0  0
  -31.8733  -20.3007   15.9292 C   0  0  0  0  0  0
  -29.0700  -16.9145   18.5037 C   0  0  0  0  0  0
  -32.9453  -18.8656   19.0233 C   0  0  0  0  0  0
  -28.7446  -22.1405   20.4426 C   0  0  0  0  0  0
  -29.7737  -18.6859   20.3035 C   0  0  0  0  0  0
  -29.0460  -23.7509   20.5437 C   0  0  0  0  0  0
  -28.0198  -24.8862   20.0269 C   0  0  0  0  0  0
  -29.9609  -17.1387   19.7424 C   0  0  1  0  0  0
  -30.2844  -21.7300   17.0523 N   0  0  0  0  0  0
  -29.8311  -15.8620   20.5839 N   0  0  0  0  0  0
  -31.8189  -18.6746   18.1749 O   0  0  0  0  0  0
  -31.4760  -12.5333   19.1999 H   0  0  0  0  0  0
  -30.3519  -11.4506   19.9678 H   0  0  0  0  0  0
  -29.7912  -11.7284   17.5302 H   0  0  0  0  0  0
  -29.6532  -13.4561   17.7392 H   0  0  0  0  0  0
  -27.8783  -11.2908   18.9082 H   0  0  0  0  0  0
  -27.3866  -12.5476   17.8053 H   0  0  0  0  0  0
  -27.6467  -14.2576   19.4913 H   0  0  0  0  0  0
  -28.7080  -12.1483   21.4304 H   0  0  0  0  0  0
  -28.4278  -13.8260   21.8191 H   0  0  0  0  0  0
  -25.2781   -9.5675   22.4757 H   0  0  0  0  0  0
  -24.0015   -7.4625   22.7481 H   0  0  0  0  0  0
  -21.0862   -8.8766   19.8946 H   0  0  0  0  0  0
  -22.3720  -10.9667   19.6170 H   0  0  0  0  0  0
  -21.1984   -7.6143   23.9716 H   0  0  0  0  0  0
  -21.1508   -6.0532   25.9086 H   0  0  0  0  0  0
  -22.0589   -2.7604   23.2870 H   0  0  0  0  0  0
  -22.4109  -11.9841   22.4788 H   0  0  0  0  0  0
  -21.1093  -13.1191   22.2680 H   0  0  0  0  0  0
  -24.6417  -15.8398   20.5008 H   0  0  0  0  0  0
  -26.2552  -15.6294   20.0521 H   0  0  0  0  0  0
  -26.7176  -32.5424   23.1084 H   0  0  0  0  0  0
  -25.0071  -33.9729   25.0429 H   0  0  0  0  0  0
  -22.7221  -31.3038   21.4013 H   0  0  0  0  0  0
  -23.3785  -35.9585   23.3294 H   0  0  0  0  0  0
  -24.3586  -36.8910   22.2054 H   0  0  0  0  0  0
  -23.7224  -37.6468   23.6669 H   0  0  0  0  0  0
  -26.1173  -31.5308   20.6160 H   0  0  0  0  0  0
  -26.8486  -30.8143   22.0193 H   0  0  0  0  0  0
  -28.1074  -28.9113   21.2317 H   0  0  0  0  0  0
  -25.9372  -25.9271   18.9744 H   0  0  0  0  0  0
  -23.9654  -27.3259   18.9912 H   0  0  0  0  0  0
  -23.7721  -30.6009   19.4072 H   0  0  0  0  0  0
  -22.7611  -29.2587   19.8503 H   0  0  0  0  0  0
  -25.1309  -36.1949   25.0830 H   0  0  0  0  0  0
  -20.9998  -28.3283   24.1385 H   0  0  0  0  0  0
  -20.5707  -26.2306   23.3609 H   0  0  0  0  0  0
  -21.6658  -26.7449   22.1190 H   0  0  0  0  0  0
  -19.6930  -25.6301   21.1239 H   0  0  0  0  0  0
  -19.6705  -27.3201   20.6748 H   0  0  0  0  0  0
  -17.4215  -26.6687   21.4019 H   0  0  0  0  0  0
  -18.0334  -26.0075   22.9014 H   0  0  0  0  0  0
  -19.7943  -30.7286   24.2252 H   0  0  0  0  0  0
  -17.5022  -31.6262   24.5178 H   0  0  0  0  0  0
  -15.5365  -30.2990   23.7658 H   0  0  0  0  0  0
  -15.8683  -28.0829   22.7069 H   0  0  0  0  0  0
  -24.5895  -30.7075   25.7748 H   0  0  0  0  0  0
  -24.8914  -32.2868   26.4896 H   0  0  0  0  0  0
  -25.8033  -30.8851   27.0209 H   0  0  0  0  0  0
  -26.2927  -29.6753   24.1233 H   0  0  0  0  0  0
  -27.4059  -29.7276   25.4703 H   0  0  0  0  0  0
  -27.8797  -30.4309   23.9431 H   0  0  0  0  0  0
  -27.2682  -33.3625   26.2077 H   0  0  0  0  0  0
  -28.3859  -32.6880   25.0315 H   0  0  0  0  0  0
  -28.0742  -31.8449   26.5403 H   0  0  0  0  0  0
  -28.2598  -38.0104   24.7542 H   0  0  0  0  0  0
  -28.1107  -36.2641   24.6274 H   0  0  0  0  0  0
  -27.2304  -37.1417   25.8861 H   0  0  0  0  0  0
  -20.9390  -29.8771   21.6859 H   0  0  0  0  0  0
  -26.0196  -38.2856   24.1422 H   0  0  0  0  0  0
  -29.1305  -23.0474   18.0584 H   0  0  0  0  0  0
  -31.5874  -19.3512   15.4765 H   0  0  0  0  0  0
  -32.9134  -20.2296   16.2467 H   0  0  0  0  0  0
  -31.8059  -21.0756   15.1638 H   0  0  0  0  0  0
  -29.2366  -17.6683   17.7354 H   0  0  0  0  0  0
  -28.0126  -16.9440   18.7666 H   0  0  0  0  0  0
  -29.2666  -15.9472   18.0390 H   0  0  0  0  0  0
  -32.6722  -18.7913   20.0773 H   0  0  0  0  0  0
  -33.4136  -19.8367   18.8579 H   0  0  0  0  0  0
  -33.6880  -18.0953   18.8177 H   0  0  0  0  0  0
  -29.0335  -21.6817   21.3884 H   0  0  0  0  0  0
  -27.6691  -21.9813   20.3592 H   0  0  0  0  0  0
  -28.7532  -18.7885   20.6737 H   0  0  0  0  0  0
  -30.4163  -18.8281   21.1725 H   0  0  0  0  0  0
  -30.0406  -23.9606   20.1502 H   0  0  0  0  0  0
  -29.1485  -23.9532   21.6101 H   0  0  0  0  0  0
  -27.0715  -24.6642   20.5193 H   0  0  0  0  0  0
  -27.8526  -24.7234   18.9620 H   0  0  0  0  0  0
  -30.9904  -17.0511   19.4236 H   0  0  0  0  0  0
  -28.9131  -15.6944   20.9700 H   0  0  0  0  0  0
  1 25  1  0  0  0
  1 30  2  0  0  0
  1 85  1  0  0  0
  2  3  1  0  0  0
  2 25  1  0  0  0
  2 87  1  0  0  0
  2 88  1  0  0  0
  3  4  1  0  0  0
  3 89  1  0  0  0
  3 90  1  0  0  0
  4  5  1  0  0  0
  4 91  1  0  0  0
  4 92  1  0  0  0
  5  6  1  0  0  0
  5 26  1  0  0  0
  5 93  1  0  0  0
  6 25  1  0  0  0
  6 94  1  0  0  0
  6 95  1  0  0  0
  7  8  2  0  0  0
  7 26  1  0  0  0
  7 29  1  0  0  0
  8  9  1  0  0  0
  8 22  1  0  0  0
  9 10  1  0  0  0
  9 27  2  0  0  0
 10 11  2  0  0  0
 10 15  1  0  0  0
 11 12  1  0  0  0
 11 96  1  0  0  0
 12 13  2  0  0  0
 12 97  1  0  0  0
 13 14  1  0  0  0
 13 31  1  0  0  0
 14 15  2  0  0  0
 14 98  1  0  0  0
 15 99  1  0  0  0
 16 17  2  0  0  0
 16 21  1  0  0  0
 16 31  1  0  0  0
 17 18  1  0  0  0
 17100  1  0  0  0
 18 19  2  0  0  0
 18101  1  0  0  0
 19 20  1  0  0  0
 19 24  1  0  0  0
 20 21  2  0  0  0
 20102  1  0  0  0
 21 23  1  0  0  0
 22 28  1  0  0  0
 22 32  2  0  0  0
 26 27  1  0  0  0
 28103  1  0  0  0
 28104  1  0  0  0
 29105  1  0  0  0
 29106  1  0  0  0
 33 34  1  0  0  0
 33 66  1  0  0  0
 33 70  2  0  0  0
 34 36  1  0  0  0
 34 59  1  0  0  0
 34107  1  0  0  0
 35 44  2  0  0  0
 35 45  1  0  0  0
 35 68  1  0  0  0
 36 56  1  0  0  0
 36108  1  0  0  0
 37 39  1  0  0  0
 37 47  1  0  0  0
 37 66  1  0  0  0
 37109  1  0  0  0
 38 43  2  0  0  0
 38 46  1  0  0  0
 38 47  1  0  0  0
 39 64  1  0  0  0
 39 67  2  0  0  0
 40 52  1  0  0  0
 40 53  2  0  0  0
 40 58  1  0  0  0
 41110  1  0  0  0
 41111  1  0  0  0
 41112  1  0  0  0
 41 48  1  0  0  0
 42 43  1  0  0  0
 42 66  1  0  0  0
 42113  1  0  0  0
 42114  1  0  0  0
 43 44  1  0  0  0
 44115  1  0  0  0
 45 46  2  0  0  0
 45116  1  0  0  0
 46117  1  0  0  0
 47118  1  0  0  0
 47119  1  0  0  0
 48 56  1  0  0  0
 48 65  1  0  0  0
 48120  1  0  0  0
 49 50  1  0  0  0
 49 53  1  0  0  0
 49 64  1  0  0  0
 49121  1  0  0  0
 50 51  1  0  0  0
 50122  1  0  0  0
 50123  1  0  0  0
 51 52  1  0  0  0
 51124  1  0  0  0
 51125  1  0  0  0
 52126  1  0  0  0
 52127  1  0  0  0
 53 54  1  0  0  0
 54 55  2  0  0  0
 54128  1  0  0  0
 55 57  1  0  0  0
 55129  1  0  0  0
 56 69  2  0  0  0
 57 58  2  0  0  0
 57130  1  0  0  0
 58131  1  0  0  0
 59 60  1  0  0  0
 59 61  1  0  0  0
 59 62  1  0  0  0
 60132  1  0  0  0
 60133  1  0  0  0
 60134  1  0  0  0
 61135  1  0  0  0
 61136  1  0  0  0
 61137  1  0  0  0
 62138  1  0  0  0
 62139  1  0  0  0
 62140  1  0  0  0
 63 65  1  0  0  0
 63141  1  0  0  0
 63142  1  0  0  0
 63143  1  0  0  0
 64144  1  0  0  0
 65145  1  0  0  0
 68 82  1  0  0  0
 71 72  2  0  0  0
 71 84  1  0  0  0
 71146  1  0  0  0
 72 73  1  0  0  0
 72 79  1  0  0  0
 73 74  2  0  0  0
 73 80  1  0  0  0
 74 75  1  0  0  0
 74 86  1  0  0  0
 75 76  1  0  0  0
 75 84  2  0  0  0
 76147  1  0  0  0
 76148  1  0  0  0
 76149  1  0  0  0
 77150  1  0  0  0
 77151  1  0  0  0
 77152  1  0  0  0
 77 83  1  0  0  0
 78 86  1  0  0  0
 78153  1  0  0  0
 78154  1  0  0  0
 78155  1  0  0  0
 79 81  1  0  0  0
 79156  1  0  0  0
 79157  1  0  0  0
 80 83  1  0  0  0
 80158  1  0  0  0
 80159  1  0  0  0
 81 82  1  0  0  0
 81160  1  0  0  0
 81161  1  0  0  0
 82162  1  0  0  0
 82163  1  0  0  0
 83 85  1  0  0  0
 83164  1  0  0  0
 85165  1  0  0  0
M  ISO  4   1 100  68 101  82 101  85 100
M  END
> <chiral flag>
0

> <version>
0

> <s_m_source_file>
/data/baiqing/PycharmProjects/Reinvent-master-3.2/result/LINK_invent/BTK/process_docking_weight1_custom_sum_contain_oxygen_bond_distance_aromatic_linkinvent_7_9_3/rearranged_h_0108.sdf

> <i_m_source_file_index>
74

> <r_mmod_Potential_Energy-OPLS-2005>
201.521133422852

> <r_mmod_Stretch_Energy-OPLS-2005>
148.915954589844

> <r_mmod_Bend_Energy-OPLS-2005>
203.417907714844

> <r_mmod_Torsional_Energy-OPLS-2005>
278.931640625

> <r_mmod_Improper_Torsional_Energy-OPLS-2005>
8.63230514526367

> <r_mmod_Van_der_Waal_Energy-OPLS-2005>
156.449844360352

> <r_mmod_Electrostatic_Energy-OPLS-2005>
-448.565063476562

> <r_mmod_Solvation_Energy-OPLS-2005>
-227.189575195312

> <b_mmod_Minimization_Converged-OPLS-2005>
0

> <r_mmod_RMS_Derivative-OPLS-2005>
2.0738959312439

$$$$
74
                    3D
 Structure written by MMmdl.
177185  0  0  1  0            999 V2000
  -29.6248  -14.6209   19.6416 C   0  0  0  0  0  0
  -30.7880  -12.5625   19.5627 C   0  0  0  0  0  0
  -29.8219  -12.2026   18.4624 C   0  0  0  0  0  0
  -28.5483  -11.9851   19.2757 C   0  0  0  0  0  0
  -28.0654  -12.8689   20.8592 C   0  0  2  0  0  0
  -29.3256  -13.0299   21.5245 C   0  0  0  0  0  0
  -25.7082  -14.3019   21.5388 C   0  0  0  0  0  0
  -24.4147  -13.7613   21.2586 C   0  0  0  0  0  0
  -24.5274  -12.6312   20.0872 C   0  0  0  0  0  0
  -23.8969  -10.7061   19.7069 C   0  0  0  0  0  0
  -24.3664   -9.3345   20.3105 C   0  0  0  0  0  0
  -23.7333   -8.3780   21.2221 C   0  0  0  0  0  0
  -22.3668   -8.1737   21.0690 C   0  0  0  0  0  0
  -21.8186   -9.1075   20.1560 C   0  0  0  0  0  0
  -22.5274  -10.2263   19.5470 C   0  0  0  0  0  0
  -21.7514   -6.1811   22.4917 C   0  0  0  0  0  0
  -21.4543   -6.6374   23.7963 C   0  0  0  0  0  0
  -21.3955   -5.7359   24.8834 C   0  0  0  0  0  0
  -21.6225   -4.3586   24.6861 C   0  0  0  0  0  0
  -21.8977   -3.8886   23.3904 C   0  0  0  0  0  0
  -21.9503   -4.7871   22.3048 C   0  0  0  0  0  0
  -23.1590  -14.4877   21.9403 C   0  0  0  0  0  0
  -22.1688   -4.2865   21.0649 F   0  0  0  0  0  0
  -21.5632   -3.4940   25.7296 F   0  0  0  0  0  0
  -30.0702  -13.5563   20.3829 N   0  0  0  0  0  0
  -26.6345  -13.2672   21.4791 N   0  0  0  0  0  0
  -25.3501  -13.2691   21.0104 N   0  0  0  0  0  0
  -22.3677  -13.8431   22.8144 N   0  0  0  0  0  0
  -26.1191  -15.6191   21.7007 N   0  0  0  0  0  0
  -30.6336  -15.3381   19.4460 O   0  0  0  0  0  0
  -21.6375   -7.0165   21.3845 O   0  0  0  0  0  0
  -22.5680  -15.3884   21.3596 O   0  0  0  0  0  0
  -24.7350  -31.7274   23.1122 C   0  0  0  0  0  0
  -25.9719  -32.4057   23.7792 C   0  0  1  0  0  0
  -26.5799  -25.9367   20.0728 C   0  0  0  0  0  0
  -25.6088  -33.7946   24.1595 N   0  0  0  0  0  0
  -23.5403  -30.3572   21.4955 C   0  0  2  0  0  0
  -24.8586  -28.5963   20.0487 C   0  0  0  0  0  0
  -22.7802  -29.4024   22.4560 C   0  0  0  0  0  0
  -18.0331  -28.1428   22.8429 C   0  0  0  0  0  0
  -24.1505  -36.6972   23.2662 C   0  0  0  0  0  0
  -26.1225  -30.1550   21.4772 C   0  0  0  0  0  0
  -26.0435  -28.6721   20.7740 C   0  0  0  0  0  0
  -26.8946  -27.3634   20.7619 C   0  0  0  0  0  0
  -25.5273  -26.3041   19.2213 C   0  0  0  0  0  0
  -24.6943  -27.4638   19.2435 C   0  0  0  0  0  0
  -23.7720  -29.6894   20.1100 C   0  0  0  0  0  0
  -25.4187  -36.2678   24.0229 C   0  0  1  0  0  0
  -20.5962  -28.3785   23.1080 C   0  0  2  0  0  0
  -20.6770  -26.9421   22.5414 C   0  0  0  0  0  0
  -19.5772  -26.6350   21.5203 C   0  0  0  0  0  0
  -18.1947  -26.7945   22.1590 C   0  0  0  0  0  0
  -19.1605  -28.8940   23.2728 C   0  0  0  0  0  0
  -18.9520  -30.1510   23.8798 C   0  0  0  0  0  0
  -17.6518  -30.6609   24.0544 C   0  0  0  0  0  0
  -25.9220  -34.9078   23.4795 C   0  0  0  0  0  0
  -16.5398  -29.9095   23.6363 C   0  0  0  0  0  0
  -16.7311  -28.6519   23.0364 C   0  0  0  0  0  0
  -26.4721  -31.6404   25.0686 C   0  0  0  0  0  0
  -25.3627  -31.3889   26.1184 C   0  0  0  0  0  0
  -27.0743  -30.2692   24.7050 C   0  0  0  0  0  0
  -27.6069  -32.4402   25.7511 C   0  0  0  0  0  0
  -27.5551  -37.1659   24.8470 C   0  0  0  0  0  0
  -21.4434  -29.2947   22.3336 N   0  0  0  0  0  0
  -26.4258  -37.3515   23.9398 N   0  0  0  0  0  0
  -24.8433  -30.8044   22.0740 N   0  0  0  0  0  0
  -23.4094  -28.7649   23.3036 O   0  0  0  0  0  0
  -26.9639  -24.2621   20.0674 O   0  0  0  0  0  0
  -26.5942  -34.8782   22.4475 O   0  0  0  0  0  0
  -23.6313  -32.0754   23.5777 O   0  0  0  0  0  0
  -22.2663  -12.8762   20.2318 C   0  0  0  0  0  0
  -23.3052  -14.4607   19.0589 C   0  0  0  0  0  0
  -23.3435  -11.5746   21.8363 C   0  0  0  0  0  0
  -26.3587  -11.3328   20.0811 C   0  0  0  0  0  0
  -25.1709  -15.4421   19.0759 C   0  0  1  0  0  0
  -26.5943  -13.7355   19.0100 C   0  0  1  0  0  0
  -20.7320  -20.4934   20.5770 C   0  0  0  0  0  0
  -25.8139  -17.9076   17.4987 C   0  0  0  0  0  0
  -23.1376  -18.5651   20.6248 C   0  0  0  0  0  0
  -21.9643  -20.6310   19.6697 C   0  0  0  0  0  0
  -26.4598  -22.2844   19.4864 C   0  0  0  0  0  0
  -25.7693  -17.7349   19.0199 C   0  0  1  0  0  0
  -23.2808  -20.0555   20.2461 C   0  0  2  0  0  0
  -25.7695  -20.0200   19.6247 C   0  0  2  0  0  0
  -28.1990  -14.5921   18.9898 N   0  0  0  0  0  0
  -25.2263  -11.0487   21.7337 N   0  3  0  0  0  0
  -24.3582  -20.2852   19.2506 N   0  3  0  0  0  0
  -31.7140  -12.9781   19.1592 H   0  0  0  0  0  0
  -31.0757  -11.6853   20.1474 H   0  0  0  0  0  0
  -30.1441  -11.2907   17.9594 H   0  0  0  0  0  0
  -29.7356  -12.9568   17.6796 H   0  0  0  0  0  0
  -28.8035  -10.9638   19.5701 H   0  0  0  0  0  0
  -27.8661  -11.8648   18.4366 H   0  0  0  0  0  0
  -27.9787  -13.9273   21.0542 H   0  0  0  0  0  0
  -29.7238  -12.0730   21.8735 H   0  0  0  0  0  0
  -29.3512  -13.7302   22.3693 H   0  0  0  0  0  0
  -25.4227   -9.1139   20.3203 H   0  0  0  0  0  0
  -24.3225   -7.6214   21.7214 H   0  0  0  0  0  0
  -20.8056   -8.9252   19.8246 H   0  0  0  0  0  0
  -21.9293  -10.6868   18.7789 H   0  0  0  0  0  0
  -21.2441   -7.6838   23.9577 H   0  0  0  0  0  0
  -21.1659   -6.1034   25.8736 H   0  0  0  0  0  0
  -22.0550   -2.8335   23.2240 H   0  0  0  0  0  0
  -22.6978  -13.0593   23.3535 H   0  0  0  0  0  0
  -21.4938  -14.2745   23.0709 H   0  0  0  0  0  0
  -25.4605  -16.3859   21.6705 H   0  0  0  0  0  0
  -27.0838  -15.9120   21.7820 H   0  0  0  0  0  0
  -26.7788  -32.4290   23.0456 H   0  0  0  0  0  0
  -25.0070  -33.8894   24.9639 H   0  0  0  0  0  0
  -22.9017  -31.2254   21.3204 H   0  0  0  0  0  0
  -23.3831  -35.9234   23.3214 H   0  0  0  0  0  0
  -24.3544  -36.8784   22.2098 H   0  0  0  0  0  0
  -23.7200  -37.6071   23.6861 H   0  0  0  0  0  0
  -26.4611  -30.8427   20.6999 H   0  0  0  0  0  0
  -26.9399  -30.1418   22.1812 H   0  0  0  0  0  0
  -27.7555  -27.3732   21.4165 H   0  0  0  0  0  0
  -25.1792  -25.5226   18.5627 H   0  0  0  0  0  0
  -23.8227  -27.4363   18.6032 H   0  0  0  0  0  0
  -24.0462  -30.4613   19.3879 H   0  0  0  0  0  0
  -22.8271  -29.2779   19.7482 H   0  0  0  0  0  0
  -25.1427  -36.1368   25.0717 H   0  0  0  0  0  0
  -21.0020  -28.3442   24.1214 H   0  0  0  0  0  0
  -20.5584  -26.2421   23.3698 H   0  0  0  0  0  0
  -21.6637  -26.7320   22.1273 H   0  0  0  0  0  0
  -19.6923  -25.6236   21.1295 H   0  0  0  0  0  0
  -19.6726  -27.3104   20.6690 H   0  0  0  0  0  0
  -17.4216  -26.6684   21.3984 H   0  0  0  0  0  0
  -18.0332  -26.0115   22.9020 H   0  0  0  0  0  0
  -19.8009  -30.7329   24.2115 H   0  0  0  0  0  0
  -17.5082  -31.6272   24.5171 H   0  0  0  0  0  0
  -15.5395  -30.2971   23.7735 H   0  0  0  0  0  0
  -15.8704  -28.0802   22.7134 H   0  0  0  0  0  0
  -24.5925  -30.7105   25.7490 H   0  0  0  0  0  0
  -24.8700  -32.3148   26.4156 H   0  0  0  0  0  0
  -25.7670  -30.9382   27.0253 H   0  0  0  0  0  0
  -26.3462  -29.6019   24.2441 H   0  0  0  0  0  0
  -27.4266  -29.7508   25.5979 H   0  0  0  0  0  0
  -27.9431  -30.3689   24.0534 H   0  0  0  0  0  0
  -27.2587  -33.3889   26.1605 H   0  0  0  0  0  0
  -28.4129  -32.6631   25.0505 H   0  0  0  0  0  0
  -28.0456  -31.8853   26.5818 H   0  0  0  0  0  0
  -28.2512  -38.0013   24.7545 H   0  0  0  0  0  0
  -28.1121  -36.2533   24.6295 H   0  0  0  0  0  0
  -27.2262  -37.1258   25.8872 H   0  0  0  0  0  0
  -20.9775  -29.8624   21.6398 H   0  0  0  0  0  0
  -26.0041  -38.2538   24.1434 H   0  0  0  0  0  0
  -21.6509  -12.4066   19.4882 H   0  0  0  0  0  0
  -21.3528  -13.2696   20.6799 H   0  0  0  0  0  0
  -22.5682  -15.2457   18.8979 H   0  0  0  0  0  0
  -23.3295  -14.0104   18.0671 H   0  0  0  0  0  0
  -22.7100  -10.7102   22.0262 H   0  0  0  0  0  0
  -23.3497  -11.8452   22.8825 H   0  0  0  0  0  0
  -27.1429  -10.7592   20.5781 H   0  0  0  0  0  0
  -26.2148  -10.6665   19.2287 H   0  0  0  0  0  0
  -24.7375  -15.7962   19.9775 H   0  0  0  0  0  0
  -26.5279  -13.4828   17.9499 H   0  0  0  0  0  0
  -19.8994  -21.0692   20.1722 H   0  0  0  0  0  0
  -20.9255  -20.8630   21.5840 H   0  0  0  0  0  0
  -20.3970  -19.4578   20.6514 H   0  0  0  0  0  0
  -26.2431  -17.0373   17.0043 H   0  0  0  0  0  0
  -26.4134  -18.7734   17.2189 H   0  0  0  0  0  0
  -24.8125  -18.0554   17.0971 H   0  0  0  0  0  0
  -22.3780  -18.4178   21.3931 H   0  0  0  0  0  0
  -24.0610  -18.1638   21.0418 H   0  0  0  0  0  0
  -22.8582  -17.9522   19.7659 H   0  0  0  0  0  0
  -22.1097  -21.6930   19.4571 H   0  0  0  0  0  0
  -21.7431  -20.1617   18.7081 H   0  0  0  0  0  0
  -25.8199  -22.5826   18.6552 H   0  0  0  0  0  0
  -27.4251  -22.0868   19.0091 H   0  0  0  0  0  0
  -26.7929  -17.5590   19.3503 H   0  0  0  0  0  0
  -23.5337  -20.6225   21.1438 H   0  0  0  0  0  0
  -25.8249  -19.9090   20.7097 H   0  0  0  0  0  0
  -28.1489  -15.3612   18.3403 H   0  0  0  0  0  0
  -25.2873  -10.0848   22.0231 H   0  0  0  0  0  0
  -25.6801  -11.6088   22.4377 H   0  0  0  0  0  0
  -24.3179  -21.2622   19.0008 H   0  0  0  0  0  0
  -24.1508  -19.7728   18.4086 H   0  0  0  0  0  0
  1 25  1  0  0  0
  1 30  2  0  0  0
  1 85  1  0  0  0
  2  3  1  0  0  0
  2 25  1  0  0  0
  2 88  1  0  0  0
  2 89  1  0  0  0
  3  4  1  0  0  0
  3 90  1  0  0  0
  3 91  1  0  0  0
  4  5  1  0  0  0
  4 92  1  0  0  0
  4 93  1  0  0  0
  5  6  1  0  0  0
  5 26  1  0  0  0
  5 94  1  0  0  0
  6 25  1  0  0  0
  6 95  1  0  0  0
  6 96  1  0  0  0
  7  8  2  0  0  0
  7 26  1  0  0  0
  7 29  1  0  0  0
  8  9  1  0  0  0
  8 22  1  0  0  0
  9 10  1  0  0  0
  9 27  2  0  0  0
 10 11  2  0  0  0
 10 15  1  0  0  0
 11 12  1  0  0  0
 11 97  1  0  0  0
 12 13  2  0  0  0
 12 98  1  0  0  0
 13 14  1  0  0  0
 13 31  1  0  0  0
 14 15  2  0  0  0
 14 99  1  0  0  0
 15100  1  0  0  0
 16 17  2  0  0  0
 16 21  1  0  0  0
 16 31  1  0  0  0
 17 18  1  0  0  0
 17101  1  0  0  0
 18 19  2  0  0  0
 18102  1  0  0  0
 19 20  1  0  0  0
 19 24  1  0  0  0
 20 21  2  0  0  0
 20103  1  0  0  0
 21 23  1  0  0  0
 22 28  1  0  0  0
 22 32  2  0  0  0
 26 27  1  0  0  0
 28104  1  0  0  0
 28105  1  0  0  0
 29106  1  0  0  0
 29107  1  0  0  0
 33 34  1  0  0  0
 33 66  1  0  0  0
 33 70  2  0  0  0
 34 36  1  0  0  0
 34 59  1  0  0  0
 34108  1  0  0  0
 35 44  2  0  0  0
 35 45  1  0  0  0
 35 68  1  0  0  0
 36 56  1  0  0  0
 36109  1  0  0  0
 37 39  1  0  0  0
 37 47  1  0  0  0
 37 66  1  0  0  0
 37110  1  0  0  0
 38 43  2  0  0  0
 38 46  1  0  0  0
 38 47  1  0  0  0
 39 64  1  0  0  0
 39 67  2  0  0  0
 40 52  1  0  0  0
 40 53  2  0  0  0
 40 58  1  0  0  0
 41111  1  0  0  0
 41112  1  0  0  0
 41113  1  0  0  0
 41 48  1  0  0  0
 42 43  1  0  0  0
 42 66  1  0  0  0
 42114  1  0  0  0
 42115  1  0  0  0
 43 44  1  0  0  0
 44116  1  0  0  0
 45 46  2  0  0  0
 45117  1  0  0  0
 46118  1  0  0  0
 47119  1  0  0  0
 47120  1  0  0  0
 48 56  1  0  0  0
 48 65  1  0  0  0
 48121  1  0  0  0
 49 50  1  0  0  0
 49 53  1  0  0  0
 49 64  1  0  0  0
 49122  1  0  0  0
 50 51  1  0  0  0
 50123  1  0  0  0
 50124  1  0  0  0
 51 52  1  0  0  0
 51125  1  0  0  0
 51126  1  0  0  0
 52127  1  0  0  0
 52128  1  0  0  0
 53 54  1  0  0  0
 54 55  2  0  0  0
 54129  1  0  0  0
 55 57  1  0  0  0
 55130  1  0  0  0
 56 69  2  0  0  0
 57 58  2  0  0  0
 57131  1  0  0  0
 58132  1  0  0  0
 59 60  1  0  0  0
 59 61  1  0  0  0
 59 62  1  0  0  0
 60133  1  0  0  0
 60134  1  0  0  0
 60135  1  0  0  0
 61136  1  0  0  0
 61137  1  0  0  0
 61138  1  0  0  0
 62139  1  0  0  0
 62140  1  0  0  0
 62141  1  0  0  0
 63 65  1  0  0  0
 63142  1  0  0  0
 63143  1  0  0  0
 63144  1  0  0  0
 64145  1  0  0  0
 65146  1  0  0  0
 68 81  1  0  0  0
 71 72  1  0  0  0
 71 73  1  0  0  0
 71147  1  0  0  0
 71148  1  0  0  0
 72149  1  0  0  0
 72150  1  0  0  0
 72 75  1  0  0  0
 73 86  1  0  0  0
 73151  1  0  0  0
 73152  1  0  0  0
 74 76  1  0  0  0
 74 86  1  0  0  0
 74153  1  0  0  0
 74154  1  0  0  0
 75 76  1  0  0  0
 75 82  1  0  0  0
 75155  1  0  0  0
 76 85  1  0  0  0
 76156  1  0  0  0
 77 80  1  0  0  0
 77157  1  0  0  0
 77158  1  0  0  0
 77159  1  0  0  0
 78160  1  0  0  0
 78161  1  0  0  0
 78162  1  0  0  0
 78 82  1  0  0  0
 79163  1  0  0  0
 79164  1  0  0  0
 79165  1  0  0  0
 79 83  1  0  0  0
 80 83  1  0  0  0
 80166  1  0  0  0
 80167  1  0  0  0
 81168  1  0  0  0
 81169  1  0  0  0
 81 84  1  0  0  0
 82 84  1  0  0  0
 82170  1  0  0  0
 83 87  1  0  0  0
 83171  1  0  0  0
 84 87  1  0  0  0
 84172  1  0  0  0
 85173  1  0  0  0
 86174  1  0  0  0
 86175  1  0  0  0
 87176  1  0  0  0
 87177  1  0  0  0
M  CHG  2  86   1  87   1
M  ISO  4   1 100  68 101  81 101  85 100
M  END
> <chiral flag>
0

> <version>
0

> <s_m_source_file>
/data/baiqing/PycharmProjects/Reinvent-master-3.2/result/LINK_invent/BTK/process_docking_weight1_custom_sum_contain_oxygen_bond_distance_aromatic_linkinvent_7_9_3/rearranged_h_0108.sdf

> <i_m_source_file_index>
75

> <r_mmod_Potential_Energy-OPLS-2005>
19483.265625

> <r_mmod_Stretch_Energy-OPLS-2005>
9118.2265625

> <r_mmod_Bend_Energy-OPLS-2005>
2884.63061523438

> <r_mmod_Torsional_Energy-OPLS-2005>
792.859313964844

> <r_mmod_Improper_Torsional_Energy-OPLS-2005>
92.6391143798828

> <r_mmod_Van_der_Waal_Energy-OPLS-2005>
2936.77709960938

> <r_mmod_Electrostatic_Energy-OPLS-2005>
-74.4383239746094

> <r_mmod_Solvation_Energy-OPLS-2005>
-810.203735351562

> <b_mmod_Minimization_Converged-OPLS-2005>
0

> <r_mmod_RMS_Derivative-OPLS-2005>
7.72050285339355

$$$$
75
                    3D
 Structure written by MMmdl.
157165  0  0  1  0            999 V2000
  -30.5264  -14.9681   20.3992 C   0  0  0  0  0  0
  -30.4394  -12.5953   19.5028 C   0  0  0  0  0  0
  -29.5253  -12.5365   18.2566 C   0  0  0  0  0  0
  -28.0528  -12.3364   18.6629 C   0  0  0  0  0  0
  -27.6295  -13.2552   19.8394 C   0  0  2  0  0  0
  -28.6723  -13.2826   20.9780 C   0  0  0  0  0  0
  -25.2440  -13.8224   20.5689 C   0  0  0  0  0  0
  -24.1773  -13.0435   20.9208 C   0  0  0  0  0  0
  -24.6404  -11.6926   20.8736 C   0  0  0  0  0  0
  -23.9089  -10.4290   21.0385 C   0  0  0  0  0  0
  -24.3634   -9.4205   21.9164 C   0  0  0  0  0  0
  -23.6296   -8.2249   22.0755 C   0  0  0  0  0  0
  -22.4281   -8.0280   21.3543 C   0  0  0  0  0  0
  -21.9913   -9.0259   20.4650 C   0  0  0  0  0  0
  -22.7257  -10.2133   20.3041 C   0  0  0  0  0  0
  -21.6862   -6.0726   22.5265 C   0  0  0  0  0  0
  -21.4024   -6.5630   23.8196 C   0  0  0  0  0  0
  -21.3658   -5.6787   24.9160 C   0  0  0  0  0  0
  -21.6041   -4.3045   24.7215 C   0  0  0  0  0  0
  -21.8824   -3.8138   23.4339 C   0  0  0  0  0  0
  -21.9201   -4.6949   22.3392 C   0  0  0  0  0  0
  -22.7791  -13.5198   21.1852 C   0  0  0  0  0  0
  -22.1664   -4.2131   21.0970 F   0  0  0  0  0  0
  -21.5627   -3.4533   25.7733 F   0  0  0  0  0  0
  -29.9474  -13.6988   20.3792 N   0  0  0  0  0  0
  -26.2884  -12.9477   20.3238 N   0  0  0  0  0  0
  -25.9336  -11.6596   20.5715 N   0  0  0  0  0  0
  -22.0457  -12.8196   22.0420 N   0  0  0  0  0  0
  -25.4051  -15.1954   20.4116 N   0  0  0  0  0  0
  -31.7273  -15.0393   20.1126 O   0  0  0  0  0  0
  -21.6646   -6.8869   21.4230 O   0  0  0  0  0  0
  -22.3457  -14.5490   20.6687 O   0  0  0  0  0  0
  -24.6470  -31.8415   23.1831 C   0  0  0  0  0  0
  -25.9229  -32.4673   23.8241 C   0  0  1  0  0  0
  -27.2118  -27.1034   20.1339 C   0  0  0  0  0  0
  -25.5962  -33.8478   24.2163 N   0  0  0  0  0  0
  -23.4503  -30.4617   21.5314 C   0  0  2  0  0  0
  -24.8955  -28.8826   20.1078 C   0  0  0  0  0  0
  -22.7583  -29.4546   22.4846 C   0  0  0  0  0  0
  -18.0317  -28.1376   22.8473 C   0  0  0  0  0  0
  -24.1479  -36.7235   23.2639 C   0  0  0  0  0  0
  -26.0083  -30.7031   21.3834 C   0  0  0  0  0  0
  -26.0770  -29.3115   20.7244 C   0  0  0  0  0  0
  -27.2340  -28.4389   20.7195 C   0  0  0  0  0  0
  -25.9980  -26.7855   19.4826 C   0  0  0  0  0  0
  -24.8708  -27.6328   19.4743 C   0  0  0  0  0  0
  -23.6743  -29.7884   20.1519 C   0  0  0  0  0  0
  -25.4113  -36.3011   24.0311 C   0  0  1  0  0  0
  -20.5925  -28.3720   23.1208 C   0  0  2  0  0  0
  -20.6789  -26.9413   22.5395 C   0  0  0  0  0  0
  -19.5774  -26.6377   21.5188 C   0  0  0  0  0  0
  -18.1962  -26.7919   22.1614 C   0  0  0  0  0  0
  -19.1567  -28.8869   23.2837 C   0  0  0  0  0  0
  -18.9481  -30.1460   23.8866 C   0  0  0  0  0  0
  -17.6471  -30.6573   24.0552 C   0  0  0  0  0  0
  -25.9075  -34.9397   23.5049 C   0  0  0  0  0  0
  -16.5368  -29.9059   23.6320 C   0  0  0  0  0  0
  -16.7296  -28.6469   23.0363 C   0  0  0  0  0  0
  -26.4529  -31.6553   25.0706 C   0  0  0  0  0  0
  -25.3697  -31.3763   26.1394 C   0  0  0  0  0  0
  -27.0384  -30.2939   24.6305 C   0  0  0  0  0  0
  -27.6046  -32.4330   25.7502 C   0  0  0  0  0  0
  -27.5565  -37.1773   24.8468 C   0  0  0  0  0  0
  -21.4275  -29.3054   22.3587 N   0  0  0  0  0  0
  -26.4271  -37.3731   23.9409 N   0  0  0  0  0  0
  -24.7225  -31.0246   22.0871 N   0  0  0  0  0  0
  -23.4212  -28.8091   23.3002 O   0  0  0  0  0  0
  -28.2592  -26.1001   20.2122 O   0  0  0  0  0  0
  -26.5682  -34.8914   22.4642 O   0  0  0  0  0  0
  -23.5583  -32.1306   23.7037 O   0  0  0  0  0  0
  -27.1491  -19.4104   22.2890 C   0  0  0  0  0  0
  -27.4702  -20.5245   21.5822 C   0  0  0  0  0  0
  -28.0356  -18.4048   21.8669 C   0  0  0  0  0  0
  -28.9136  -18.8350   20.9045 C   0  0  0  0  0  0
  -28.8358  -23.3381   22.0349 C   0  0  0  0  0  0
  -28.2530  -24.5288   18.3197 C   0  0  0  0  0  0
  -29.9351  -17.7091   20.2925 C   0  0  0  0  0  0
  -28.9763  -21.6125   19.9448 C   0  0  0  0  0  0
  -28.9226  -23.2492   20.5036 C   0  0  1  0  0  0
  -28.0770  -24.5779   19.8477 C   0  0  1  0  0  0
  -28.5829  -20.3173   20.7680 N   0  0  0  0  0  0
  -29.7274  -16.1424   20.5296 N   0  0  0  0  0  0
  -27.9848  -17.1422   22.3542 F   0  0  0  0  0  0
  -31.4744  -12.7488   19.1941 H   0  0  0  0  0  0
  -30.4278  -11.6467   20.0415 H   0  0  0  0  0  0
  -29.8401  -11.7324   17.5905 H   0  0  0  0  0  0
  -29.6271  -13.4632   17.6881 H   0  0  0  0  0  0
  -27.9279  -11.2919   18.9461 H   0  0  0  0  0  0
  -27.4021  -12.4993   17.8022 H   0  0  0  0  0  0
  -27.5911  -14.2607   19.4196 H   0  0  0  0  0  0
  -28.7632  -12.3075   21.4599 H   0  0  0  0  0  0
  -28.3685  -13.9842   21.7566 H   0  0  0  0  0  0
  -25.2774   -9.5680   22.4741 H   0  0  0  0  0  0
  -23.9992   -7.4646   22.7496 H   0  0  0  0  0  0
  -21.0829   -8.8797   19.8969 H   0  0  0  0  0  0
  -22.3706  -10.9676   19.6156 H   0  0  0  0  0  0
  -21.2021   -7.6142   23.9692 H   0  0  0  0  0  0
  -21.1467   -6.0514   25.9059 H   0  0  0  0  0  0
  -22.0605   -2.7596   23.2846 H   0  0  0  0  0  0
  -22.4117  -11.9891   22.4832 H   0  0  0  0  0  0
  -21.1070  -13.1215   22.2629 H   0  0  0  0  0  0
  -24.6362  -15.8431   20.5419 H   0  0  0  0  0  0
  -26.2472  -15.6477   20.0833 H   0  0  0  0  0  0
  -26.7299  -32.5268   23.0968 H   0  0  0  0  0  0
  -25.0074  -33.9558   25.0291 H   0  0  0  0  0  0
  -22.7553  -31.2894   21.3763 H   0  0  0  0  0  0
  -23.3746  -35.9561   23.3297 H   0  0  0  0  0  0
  -24.3546  -36.8878   22.2051 H   0  0  0  0  0  0
  -23.7235  -37.6430   23.6684 H   0  0  0  0  0  0
  -26.1676  -31.4554   20.6088 H   0  0  0  0  0  0
  -26.8754  -30.7509   22.0304 H   0  0  0  0  0  0
  -28.1356  -28.7648   21.2183 H   0  0  0  0  0  0
  -25.8703  -25.8346   18.9903 H   0  0  0  0  0  0
  -23.9659  -27.2969   18.9861 H   0  0  0  0  0  0
  -23.8060  -30.5592   19.3917 H   0  0  0  0  0  0
  -22.7860  -29.2313   19.8487 H   0  0  0  0  0  0
  -25.1293  -36.1829   25.0799 H   0  0  0  0  0  0
  -21.0031  -28.3314   24.1321 H   0  0  0  0  0  0
  -20.5612  -26.2346   23.3620 H   0  0  0  0  0  0
  -21.6668  -26.7370   22.1244 H   0  0  0  0  0  0
  -19.6921  -25.6278   21.1234 H   0  0  0  0  0  0
  -19.6714  -27.3167   20.6696 H   0  0  0  0  0  0
  -17.4229  -26.6647   21.4027 H   0  0  0  0  0  0
  -18.0390  -26.0060   22.9014 H   0  0  0  0  0  0
  -19.7955  -30.7290   24.2223 H   0  0  0  0  0  0
  -17.5010  -31.6245   24.5164 H   0  0  0  0  0  0
  -15.5358  -30.2950   23.7624 H   0  0  0  0  0  0
  -15.8708  -28.0754   22.7114 H   0  0  0  0  0  0
  -24.5895  -30.7089   25.7713 H   0  0  0  0  0  0
  -24.8871  -32.2956   26.4727 H   0  0  0  0  0  0
  -25.7966  -30.9009   27.0235 H   0  0  0  0  0  0
  -26.3004  -29.6674   24.1286 H   0  0  0  0  0  0
  -27.3942  -29.7225   25.4886 H   0  0  0  0  0  0
  -27.8939  -30.4144   23.9654 H   0  0  0  0  0  0
  -27.2627  -33.3657   26.2004 H   0  0  0  0  0  0
  -28.3905  -32.6852   25.0369 H   0  0  0  0  0  0
  -28.0667  -31.8519   26.5494 H   0  0  0  0  0  0
  -28.2576  -38.0073   24.7501 H   0  0  0  0  0  0
  -28.1072  -36.2605   24.6312 H   0  0  0  0  0  0
  -27.2291  -37.1443   25.8874 H   0  0  0  0  0  0
  -20.9479  -29.8816   21.6809 H   0  0  0  0  0  0
  -26.0141  -38.2796   24.1423 H   0  0  0  0  0  0
  -26.3484  -19.3218   23.0098 H   0  0  0  0  0  0
  -26.9766  -21.4846   21.5989 H   0  0  0  0  0  0
  -29.3579  -22.5108   22.5162 H   0  0  0  0  0  0
  -27.8028  -23.3450   22.3796 H   0  0  0  0  0  0
  -29.2919  -24.2626   22.3921 H   0  0  0  0  0  0
  -27.9637  -23.5585   17.9173 H   0  0  0  0  0  0
  -29.2917  -24.7107   18.0427 H   0  0  0  0  0  0
  -27.6521  -25.2746   17.8023 H   0  0  0  0  0  0
  -30.9353  -17.9404   20.6583 H   0  0  0  0  0  0
  -29.9903  -17.8568   19.2134 H   0  0  0  0  0  0
  -29.9934  -21.4341   19.5936 H   0  0  0  0  0  0
  -28.3818  -21.5703   19.0312 H   0  0  0  0  0  0
  -29.9514  -23.5462   20.2989 H   0  0  0  0  0  0
  -27.0349  -24.3460   20.0657 H   0  0  0  0  0  0
  -28.7778  -15.9305   20.7985 H   0  0  0  0  0  0
  1 25  1  0  0  0
  1 30  2  0  0  0
  1 82  1  0  0  0
  2  3  1  0  0  0
  2 25  1  0  0  0
  2 84  1  0  0  0
  2 85  1  0  0  0
  3  4  1  0  0  0
  3 86  1  0  0  0
  3 87  1  0  0  0
  4  5  1  0  0  0
  4 88  1  0  0  0
  4 89  1  0  0  0
  5  6  1  0  0  0
  5 26  1  0  0  0
  5 90  1  0  0  0
  6 25  1  0  0  0
  6 91  1  0  0  0
  6 92  1  0  0  0
  7  8  2  0  0  0
  7 26  1  0  0  0
  7 29  1  0  0  0
  8  9  1  0  0  0
  8 22  1  0  0  0
  9 10  1  0  0  0
  9 27  2  0  0  0
 10 11  2  0  0  0
 10 15  1  0  0  0
 11 12  1  0  0  0
 11 93  1  0  0  0
 12 13  2  0  0  0
 12 94  1  0  0  0
 13 14  1  0  0  0
 13 31  1  0  0  0
 14 15  2  0  0  0
 14 95  1  0  0  0
 15 96  1  0  0  0
 16 17  2  0  0  0
 16 21  1  0  0  0
 16 31  1  0  0  0
 17 18  1  0  0  0
 17 97  1  0  0  0
 18 19  2  0  0  0
 18 98  1  0  0  0
 19 20  1  0  0  0
 19 24  1  0  0  0
 20 21  2  0  0  0
 20 99  1  0  0  0
 21 23  1  0  0  0
 22 28  1  0  0  0
 22 32  2  0  0  0
 26 27  1  0  0  0
 28100  1  0  0  0
 28101  1  0  0  0
 29102  1  0  0  0
 29103  1  0  0  0
 33 34  1  0  0  0
 33 66  1  0  0  0
 33 70  2  0  0  0
 34 36  1  0  0  0
 34 59  1  0  0  0
 34104  1  0  0  0
 35 44  2  0  0  0
 35 45  1  0  0  0
 35 68  1  0  0  0
 36 56  1  0  0  0
 36105  1  0  0  0
 37 39  1  0  0  0
 37 47  1  0  0  0
 37 66  1  0  0  0
 37106  1  0  0  0
 38 43  2  0  0  0
 38 46  1  0  0  0
 38 47  1  0  0  0
 39 64  1  0  0  0
 39 67  2  0  0  0
 40 52  1  0  0  0
 40 53  2  0  0  0
 40 58  1  0  0  0
 41107  1  0  0  0
 41108  1  0  0  0
 41109  1  0  0  0
 41 48  1  0  0  0
 42 43  1  0  0  0
 42 66  1  0  0  0
 42110  1  0  0  0
 42111  1  0  0  0
 43 44  1  0  0  0
 44112  1  0  0  0
 45 46  2  0  0  0
 45113  1  0  0  0
 46114  1  0  0  0
 47115  1  0  0  0
 47116  1  0  0  0
 48 56  1  0  0  0
 48 65  1  0  0  0
 48117  1  0  0  0
 49 50  1  0  0  0
 49 53  1  0  0  0
 49 64  1  0  0  0
 49118  1  0  0  0
 50 51  1  0  0  0
 50119  1  0  0  0
 50120  1  0  0  0
 51 52  1  0  0  0
 51121  1  0  0  0
 51122  1  0  0  0
 52123  1  0  0  0
 52124  1  0  0  0
 53 54  1  0  0  0
 54 55  2  0  0  0
 54125  1  0  0  0
 55 57  1  0  0  0
 55126  1  0  0  0
 56 69  2  0  0  0
 57 58  2  0  0  0
 57127  1  0  0  0
 58128  1  0  0  0
 59 60  1  0  0  0
 59 61  1  0  0  0
 59 62  1  0  0  0
 60129  1  0  0  0
 60130  1  0  0  0
 60131  1  0  0  0
 61132  1  0  0  0
 61133  1  0  0  0
 61134  1  0  0  0
 62135  1  0  0  0
 62136  1  0  0  0
 62137  1  0  0  0
 63 65  1  0  0  0
 63138  1  0  0  0
 63139  1  0  0  0
 63140  1  0  0  0
 64141  1  0  0  0
 65142  1  0  0  0
 68 80  1  0  0  0
 71 72  2  0  0  0
 71 73  1  0  0  0
 71143  1  0  0  0
 72 81  1  0  0  0
 72144  1  0  0  0
 73 74  2  0  0  0
 73 83  1  0  0  0
 74 77  1  0  0  0
 74 81  1  0  0  0
 75145  1  0  0  0
 75146  1  0  0  0
 75147  1  0  0  0
 75 79  1  0  0  0
 76148  1  0  0  0
 76149  1  0  0  0
 76150  1  0  0  0
 76 80  1  0  0  0
 77 82  1  0  0  0
 77151  1  0  0  0
 77152  1  0  0  0
 78 79  1  0  0  0
 78 81  1  0  0  0
 78153  1  0  0  0
 78154  1  0  0  0
 79 80  1  0  0  0
 79155  1  0  0  0
 80156  1  0  0  0
 82157  1  0  0  0
M  ISO  4   1 100  68 101  80 101  82 100
M  END
> <chiral flag>
0

> <version>
0

> <s_m_source_file>
/data/baiqing/PycharmProjects/Reinvent-master-3.2/result/LINK_invent/BTK/process_docking_weight1_custom_sum_contain_oxygen_bond_distance_aromatic_linkinvent_7_9_3/rearranged_h_0108.sdf

> <i_m_source_file_index>
76

> <r_mmod_Potential_Energy-OPLS-2005>
619.091003417969

> <r_mmod_Stretch_Energy-OPLS-2005>
326.227264404297

> <r_mmod_Bend_Energy-OPLS-2005>
337.572418212891

> <r_mmod_Torsional_Energy-OPLS-2005>
221.870834350586

> <r_mmod_Improper_Torsional_Energy-OPLS-2005>
5.2315845489502

> <r_mmod_Van_der_Waal_Energy-OPLS-2005>
113.642677307129

> <r_mmod_Electrostatic_Energy-OPLS-2005>
-398.310211181641

> <r_mmod_Solvation_Energy-OPLS-2005>
-200.469314575195

> <b_mmod_Minimization_Converged-OPLS-2005>
0

> <r_mmod_RMS_Derivative-OPLS-2005>
2.19680428504944

$$$$
76
                    3D
 Structure written by MMmdl.
167175  0  0  1  0            999 V2000
  -30.7357  -14.3555   20.6642 C   0  0  0  0  0  0
  -30.4188  -12.2657   19.4010 C   0  0  0  0  0  0
  -29.4927  -12.5263   18.1970 C   0  0  0  0  0  0
  -28.0093  -12.4007   18.6018 C   0  0  0  0  0  0
  -27.6690  -13.1991   19.8890 C   0  0  2  0  0  0
  -28.7028  -12.9040   20.9982 C   0  0  0  0  0  0
  -25.2588  -13.8153   20.5674 C   0  0  0  0  0  0
  -24.1818  -13.0442   20.9146 C   0  0  0  0  0  0
  -24.6364  -11.6903   20.8689 C   0  0  0  0  0  0
  -23.9038  -10.4292   21.0378 C   0  0  0  0  0  0
  -24.3600   -9.4212   21.9163 C   0  0  0  0  0  0
  -23.6285   -8.2245   22.0750 C   0  0  0  0  0  0
  -22.4263   -8.0275   21.3541 C   0  0  0  0  0  0
  -21.9878   -9.0249   20.4643 C   0  0  0  0  0  0
  -22.7202  -10.2133   20.3037 C   0  0  0  0  0  0
  -21.6860   -6.0722   22.5267 C   0  0  0  0  0  0
  -21.4029   -6.5627   23.8202 C   0  0  0  0  0  0
  -21.3660   -5.6779   24.9160 C   0  0  0  0  0  0
  -21.6052   -4.3044   24.7216 C   0  0  0  0  0  0
  -21.8818   -3.8132   23.4336 C   0  0  0  0  0  0
  -21.9192   -4.6946   22.3389 C   0  0  0  0  0  0
  -22.7843  -13.5258   21.1805 C   0  0  0  0  0  0
  -22.1655   -4.2127   21.0966 F   0  0  0  0  0  0
  -21.5625   -3.4533   25.7730 F   0  0  0  0  0  0
  -30.0503  -13.2007   20.4704 N   0  0  0  0  0  0
  -26.3038  -12.9314   20.3396 N   0  0  0  0  0  0
  -25.9291  -11.6479   20.5729 N   0  0  0  0  0  0
  -22.0485  -12.8274   22.0373 N   0  0  0  0  0  0
  -25.4315  -15.1871   20.4085 N   0  0  0  0  0  0
  -31.7720  -14.6551   20.0636 O   0  0  0  0  0  0
  -21.6639   -6.8866   21.4232 O   0  0  0  0  0  0
  -22.3533  -14.5562   20.6645 O   0  0  0  0  0  0
  -24.6090  -31.8721   23.2122 C   0  0  0  0  0  0
  -25.8998  -32.4851   23.8421 C   0  0  1  0  0  0
  -27.2468  -27.4774   20.0947 C   0  0  0  0  0  0
  -25.5864  -33.8650   24.2335 N   0  0  0  0  0  0
  -23.3973  -30.4919   21.5524 C   0  0  2  0  0  0
  -24.8487  -28.9551   20.1248 C   0  0  0  0  0  0
  -22.7389  -29.4670   22.5021 C   0  0  0  0  0  0
  -18.0265  -28.1369   22.8505 C   0  0  0  0  0  0
  -24.1477  -36.7322   23.2645 C   0  0  0  0  0  0
  -25.9230  -30.8455   21.3660 C   0  0  0  0  0  0
  -26.0034  -29.4797   20.7204 C   0  0  0  0  0  0
  -27.2074  -28.7471   20.7051 C   0  0  0  0  0  0
  -26.0812  -26.9483   19.5078 C   0  0  0  0  0  0
  -24.8795  -27.6853   19.5185 C   0  0  0  0  0  0
  -23.6070  -29.8171   20.1698 C   0  0  0  0  0  0
  -25.4103  -36.3128   24.0339 C   0  0  1  0  0  0
  -20.5860  -28.3651   23.1336 C   0  0  2  0  0  0
  -20.6751  -26.9385   22.5433 C   0  0  0  0  0  0
  -19.5728  -26.6378   21.5224 C   0  0  0  0  0  0
  -18.1907  -26.7921   22.1632 C   0  0  0  0  0  0
  -19.1521  -28.8830   23.2923 C   0  0  0  0  0  0
  -18.9444  -30.1434   23.8922 C   0  0  0  0  0  0
  -17.6448  -30.6580   24.0575 C   0  0  0  0  0  0
  -25.9027  -34.9491   23.5143 C   0  0  0  0  0  0
  -16.5340  -29.9081   23.6328 C   0  0  0  0  0  0
  -16.7258  -28.6505   23.0352 C   0  0  0  0  0  0
  -26.4448  -31.6636   25.0739 C   0  0  0  0  0  0
  -25.3727  -31.3747   26.1505 C   0  0  0  0  0  0
  -27.0296  -30.3081   24.6124 C   0  0  0  0  0  0
  -27.6023  -32.4384   25.7480 C   0  0  0  0  0  0
  -27.5581  -37.1815   24.8460 C   0  0  0  0  0  0
  -21.4123  -29.3019   22.3748 N   0  0  0  0  0  0
  -26.4293  -37.3801   23.9407 N   0  0  0  0  0  0
  -24.6604  -31.0844   22.1012 N   0  0  0  0  0  0
  -23.4175  -28.8219   23.3061 O   0  0  0  0  0  0
  -28.4328  -26.8064   19.9765 O   0  0  0  0  0  0
  -26.5602  -34.8934   22.4709 O   0  0  0  0  0  0
  -23.5289  -32.1463   23.7523 O   0  0  0  0  0  0
  -30.2431  -23.5116   19.4026 C   0  0  0  0  0  0
  -31.0752  -22.0766   21.1443 C   0  0  0  0  0  0
  -30.0542  -22.3689   18.6121 C   0  0  0  0  0  0
  -30.7400  -23.3800   20.7187 C   0  0  0  0  0  0
  -30.8750  -20.9893   20.2748 C   0  0  0  0  0  0
  -30.4374  -24.2913   23.0723 C   0  0  0  0  0  0
  -32.4784  -24.8469   21.7242 C   0  0  0  0  0  0
  -31.1355  -19.5620   20.7037 C   0  0  0  0  0  0
  -30.2840  -25.8912   21.1384 C   0  0  0  0  0  0
  -30.4272  -16.6339   21.6233 C   0  0  0  0  0  0
  -29.9295  -17.3818   20.3657 C   0  0  0  0  0  0
  -28.7445  -25.8836   21.0088 C   0  0  0  0  0  0
  -30.9599  -24.5887   21.6495 C   0  0  0  0  0  0
  -30.3432  -21.1239   19.0396 N   0  0  0  0  0  0
  -30.1504  -15.2054   21.5127 N   0  0  0  0  0  0
  -29.8666  -18.8460   20.5316 N   0  3  0  0  0  0
  -31.4645  -12.3603   19.1054 H   0  0  0  0  0  0
  -30.3016  -11.2391   19.7522 H   0  0  0  0  0  0
  -29.7214  -11.8273   17.3918 H   0  0  0  0  0  0
  -29.6833  -13.5237   17.7967 H   0  0  0  0  0  0
  -27.7936  -11.3430   18.7552 H   0  0  0  0  0  0
  -27.3673  -12.7246   17.7809 H   0  0  0  0  0  0
  -27.7375  -14.2584   19.6426 H   0  0  0  0  0  0
  -28.6505  -11.8520   21.2823 H   0  0  0  0  0  0
  -28.4549  -13.4478   21.9106 H   0  0  0  0  0  0
  -25.2756   -9.5700   22.4719 H   0  0  0  0  0  0
  -23.9991   -7.4651   22.7486 H   0  0  0  0  0  0
  -21.0792   -8.8777   19.8972 H   0  0  0  0  0  0
  -22.3653  -10.9670   19.6137 H   0  0  0  0  0  0
  -21.2036   -7.6139   23.9700 H   0  0  0  0  0  0
  -21.1484   -6.0507   25.9062 H   0  0  0  0  0  0
  -22.0596   -2.7593   23.2840 H   0  0  0  0  0  0
  -22.4109  -11.9965   22.4803 H   0  0  0  0  0  0
  -21.1103  -13.1315   22.2567 H   0  0  0  0  0  0
  -24.6647  -15.8443   20.5098 H   0  0  0  0  0  0
  -26.2853  -15.6233   20.0882 H   0  0  0  0  0  0
  -26.7073  -32.5580   23.1196 H   0  0  0  0  0  0
  -24.9979  -33.9834   25.0457 H   0  0  0  0  0  0
  -22.6835  -31.3064   21.4109 H   0  0  0  0  0  0
  -23.3740  -35.9656   23.3327 H   0  0  0  0  0  0
  -24.3559  -36.8920   22.2052 H   0  0  0  0  0  0
  -23.7234  -37.6530   23.6659 H   0  0  0  0  0  0
  -26.0403  -31.6120   20.5987 H   0  0  0  0  0  0
  -26.8074  -30.8957   21.9887 H   0  0  0  0  0  0
  -28.1089  -29.1612   21.1342 H   0  0  0  0  0  0
  -26.1144  -25.9831   19.0227 H   0  0  0  0  0  0
  -23.9947  -27.2777   19.0498 H   0  0  0  0  0  0
  -23.7093  -30.5888   19.4060 H   0  0  0  0  0  0
  -22.7336  -29.2309   19.8793 H   0  0  0  0  0  0
  -25.1283  -36.1994   25.0833 H   0  0  0  0  0  0
  -20.9966  -28.3212   24.1454 H   0  0  0  0  0  0
  -20.5652  -26.2250   23.3618 H   0  0  0  0  0  0
  -21.6623  -26.7424   22.1231 H   0  0  0  0  0  0
  -19.6886  -25.6299   21.1228 H   0  0  0  0  0  0
  -19.6663  -27.3210   20.6774 H   0  0  0  0  0  0
  -17.4182  -26.6696   21.4021 H   0  0  0  0  0  0
  -18.0284  -26.0048   22.9011 H   0  0  0  0  0  0
  -19.7921  -30.7251   24.2299 H   0  0  0  0  0  0
  -17.5001  -31.6261   24.5171 H   0  0  0  0  0  0
  -15.5341  -30.2993   23.7636 H   0  0  0  0  0  0
  -15.8659  -28.0829   22.7050 H   0  0  0  0  0  0
  -24.5834  -30.7180   25.7832 H   0  0  0  0  0  0
  -24.8997  -32.2913   26.5040 H   0  0  0  0  0  0
  -25.8068  -30.8826   27.0214 H   0  0  0  0  0  0
  -26.2849  -29.6829   24.1182 H   0  0  0  0  0  0
  -27.4076  -29.7336   25.4589 H   0  0  0  0  0  0
  -27.8675  -30.4412   23.9276 H   0  0  0  0  0  0
  -27.2624  -33.3656   26.2111 H   0  0  0  0  0  0
  -28.3773  -32.7018   25.0270 H   0  0  0  0  0  0
  -28.0770  -31.8508   26.5345 H   0  0  0  0  0  0
  -28.2615  -38.0100   24.7513 H   0  0  0  0  0  0
  -28.1064  -36.2638   24.6277 H   0  0  0  0  0  0
  -27.2306  -37.1452   25.8865 H   0  0  0  0  0  0
  -20.9274  -29.8740   21.6975 H   0  0  0  0  0  0
  -26.0187  -38.2885   24.1393 H   0  0  0  0  0  0
  -29.9834  -24.4675   18.9726 H   0  0  0  0  0  0
  -31.4876  -21.9019   22.1280 H   0  0  0  0  0  0
  -29.6475  -22.4527   17.6151 H   0  0  0  0  0  0
  -30.9920  -23.4903   23.5597 H   0  0  0  0  0  0
  -29.3863  -24.0010   23.0590 H   0  0  0  0  0  0
  -30.5265  -25.1636   23.7194 H   0  0  0  0  0  0
  -33.0163  -23.9842   22.1201 H   0  0  0  0  0  0
  -32.7155  -25.6964   22.3645 H   0  0  0  0  0  0
  -32.8910  -25.0545   20.7364 H   0  0  0  0  0  0
  -31.4850  -19.5065   21.7348 H   0  0  0  0  0  0
  -31.9102  -19.1396   20.0630 H   0  0  0  0  0  0
  -30.5533  -26.7253   21.7864 H   0  0  0  0  0  0
  -30.7238  -26.1483   20.1752 H   0  0  0  0  0  0
  -29.9222  -17.0047   22.5155 H   0  0  0  0  0  0
  -31.4972  -16.7948   21.7739 H   0  0  0  0  0  0
  -28.9259  -17.0414   20.1070 H   0  0  0  0  0  0
  -30.5596  -17.1424   19.5066 H   0  0  0  0  0  0
  -28.2784  -26.1475   21.9596 H   0  0  0  0  0  0
  -28.3571  -24.9061   20.7259 H   0  0  0  0  0  0
  -29.3330  -14.8572   21.9917 H   0  0  0  0  0  0
  -29.5123  -19.2599   19.6801 H   0  0  0  0  0  0
  -29.2366  -19.1112   21.2700 H   0  0  0  0  0  0
  1 25  1  0  0  0
  1 30  2  0  0  0
  1 85  1  0  0  0
  2  3  1  0  0  0
  2 25  1  0  0  0
  2 87  1  0  0  0
  2 88  1  0  0  0
  3  4  1  0  0  0
  3 89  1  0  0  0
  3 90  1  0  0  0
  4  5  1  0  0  0
  4 91  1  0  0  0
  4 92  1  0  0  0
  5  6  1  0  0  0
  5 26  1  0  0  0
  5 93  1  0  0  0
  6 25  1  0  0  0
  6 94  1  0  0  0
  6 95  1  0  0  0
  7  8  2  0  0  0
  7 26  1  0  0  0
  7 29  1  0  0  0
  8  9  1  0  0  0
  8 22  1  0  0  0
  9 10  1  0  0  0
  9 27  2  0  0  0
 10 11  2  0  0  0
 10 15  1  0  0  0
 11 12  1  0  0  0
 11 96  1  0  0  0
 12 13  2  0  0  0
 12 97  1  0  0  0
 13 14  1  0  0  0
 13 31  1  0  0  0
 14 15  2  0  0  0
 14 98  1  0  0  0
 15 99  1  0  0  0
 16 17  2  0  0  0
 16 21  1  0  0  0
 16 31  1  0  0  0
 17 18  1  0  0  0
 17100  1  0  0  0
 18 19  2  0  0  0
 18101  1  0  0  0
 19 20  1  0  0  0
 19 24  1  0  0  0
 20 21  2  0  0  0
 20102  1  0  0  0
 21 23  1  0  0  0
 22 28  1  0  0  0
 22 32  2  0  0  0
 26 27  1  0  0  0
 28103  1  0  0  0
 28104  1  0  0  0
 29105  1  0  0  0
 29106  1  0  0  0
 33 34  1  0  0  0
 33 66  1  0  0  0
 33 70  2  0  0  0
 34 36  1  0  0  0
 34 59  1  0  0  0
 34107  1  0  0  0
 35 44  2  0  0  0
 35 45  1  0  0  0
 35 68  1  0  0  0
 36 56  1  0  0  0
 36108  1  0  0  0
 37 39  1  0  0  0
 37 47  1  0  0  0
 37 66  1  0  0  0
 37109  1  0  0  0
 38 43  2  0  0  0
 38 46  1  0  0  0
 38 47  1  0  0  0
 39 64  1  0  0  0
 39 67  2  0  0  0
 40 52  1  0  0  0
 40 53  2  0  0  0
 40 58  1  0  0  0
 41110  1  0  0  0
 41111  1  0  0  0
 41112  1  0  0  0
 41 48  1  0  0  0
 42 43  1  0  0  0
 42 66  1  0  0  0
 42113  1  0  0  0
 42114  1  0  0  0
 43 44  1  0  0  0
 44115  1  0  0  0
 45 46  2  0  0  0
 45116  1  0  0  0
 46117  1  0  0  0
 47118  1  0  0  0
 47119  1  0  0  0
 48 56  1  0  0  0
 48 65  1  0  0  0
 48120  1  0  0  0
 49 50  1  0  0  0
 49 53  1  0  0  0
 49 64  1  0  0  0
 49121  1  0  0  0
 50 51  1  0  0  0
 50122  1  0  0  0
 50123  1  0  0  0
 51 52  1  0  0  0
 51124  1  0  0  0
 51125  1  0  0  0
 52126  1  0  0  0
 52127  1  0  0  0
 53 54  1  0  0  0
 54 55  2  0  0  0
 54128  1  0  0  0
 55 57  1  0  0  0
 55129  1  0  0  0
 56 69  2  0  0  0
 57 58  2  0  0  0
 57130  1  0  0  0
 58131  1  0  0  0
 59 60  1  0  0  0
 59 61  1  0  0  0
 59 62  1  0  0  0
 60132  1  0  0  0
 60133  1  0  0  0
 60134  1  0  0  0
 61135  1  0  0  0
 61136  1  0  0  0
 61137  1  0  0  0
 62138  1  0  0  0
 62139  1  0  0  0
 62140  1  0  0  0
 63 65  1  0  0  0
 63141  1  0  0  0
 63142  1  0  0  0
 63143  1  0  0  0
 64144  1  0  0  0
 65145  1  0  0  0
 68 82  1  0  0  0
 71 73  2  0  0  0
 71 74  1  0  0  0
 71146  1  0  0  0
 72 74  2  0  0  0
 72 75  1  0  0  0
 72147  1  0  0  0
 73 84  1  0  0  0
 73148  1  0  0  0
 74 83  1  0  0  0
 75 78  1  0  0  0
 75 84  2  0  0  0
 76149  1  0  0  0
 76150  1  0  0  0
 76151  1  0  0  0
 76 83  1  0  0  0
 77 83  1  0  0  0
 77152  1  0  0  0
 77153  1  0  0  0
 77154  1  0  0  0
 78 86  1  0  0  0
 78155  1  0  0  0
 78156  1  0  0  0
 79 82  1  0  0  0
 79 83  1  0  0  0
 79157  1  0  0  0
 79158  1  0  0  0
 80 81  1  0  0  0
 80 85  1  0  0  0
 80159  1  0  0  0
 80160  1  0  0  0
 81 86  1  0  0  0
 81161  1  0  0  0
 81162  1  0  0  0
 82163  1  0  0  0
 82164  1  0  0  0
 85165  1  0  0  0
 86166  1  0  0  0
 86167  1  0  0  0
M  CHG  1  86   1
M  ISO  4   1 100  68 101  82 101  85 100
M  END
> <chiral flag>
0

> <version>
0

> <s_m_source_file>
/data/baiqing/PycharmProjects/Reinvent-master-3.2/result/LINK_invent/BTK/process_docking_weight1_custom_sum_contain_oxygen_bond_distance_aromatic_linkinvent_7_9_3/rearranged_h_0108.sdf

> <i_m_source_file_index>
77

> <r_mmod_Potential_Energy-OPLS-2005>
-579.895568847656

> <r_mmod_Stretch_Energy-OPLS-2005>
32.7804298400879

> <r_mmod_Bend_Energy-OPLS-2005>
102.882110595703

> <r_mmod_Torsional_Energy-OPLS-2005>
235.218978881836

> <r_mmod_Improper_Torsional_Energy-OPLS-2005>
3.32312870025635

> <r_mmod_Van_der_Waal_Energy-OPLS-2005>
164.877426147461

> <r_mmod_Electrostatic_Energy-OPLS-2005>
-662.77099609375

> <r_mmod_Solvation_Energy-OPLS-2005>
-463.075286865234

> <b_mmod_Minimization_Converged-OPLS-2005>
0

> <r_mmod_RMS_Derivative-OPLS-2005>
2.41578650474548

$$$$
77
                    3D
 Structure written by MMmdl.
171179  0  0  1  0            999 V2000
  -30.6395  -14.8897   20.4276 C   0  0  0  0  0  0
  -30.4298  -12.5753   19.4634 C   0  0  0  0  0  0
  -29.5087  -12.5173   18.2278 C   0  0  0  0  0  0
  -28.0529  -12.2870   18.6702 C   0  0  0  0  0  0
  -27.6296  -13.2369   19.8238 C   0  0  2  0  0  0
  -28.6821  -13.2755   20.9523 C   0  0  0  0  0  0
  -25.2472  -13.8136   20.5648 C   0  0  0  0  0  0
  -24.1804  -13.0407   20.9211 C   0  0  0  0  0  0
  -24.6424  -11.6881   20.8762 C   0  0  0  0  0  0
  -23.9092  -10.4268   21.0383 C   0  0  0  0  0  0
  -24.3619   -9.4179   21.9173 C   0  0  0  0  0  0
  -23.6280   -8.2227   22.0747 C   0  0  0  0  0  0
  -22.4260   -8.0280   21.3553 C   0  0  0  0  0  0
  -21.9911   -9.0255   20.4664 C   0  0  0  0  0  0
  -22.7241  -10.2123   20.3052 C   0  0  0  0  0  0
  -21.6853   -6.0726   22.5262 C   0  0  0  0  0  0
  -21.4016   -6.5631   23.8204 C   0  0  0  0  0  0
  -21.3649   -5.6777   24.9166 C   0  0  0  0  0  0
  -21.6052   -4.3044   24.7218 C   0  0  0  0  0  0
  -21.8819   -3.8130   23.4337 C   0  0  0  0  0  0
  -21.9192   -4.6953   22.3395 C   0  0  0  0  0  0
  -22.7824  -13.5199   21.1809 C   0  0  0  0  0  0
  -22.1660   -4.2140   21.0974 F   0  0  0  0  0  0
  -21.5633   -3.4526   25.7727 F   0  0  0  0  0  0
  -29.9448  -13.6885   20.3298 N   0  0  0  0  0  0
  -26.2908  -12.9383   20.3194 N   0  0  0  0  0  0
  -25.9349  -11.6543   20.5760 N   0  0  0  0  0  0
  -22.0428  -12.8267   22.0370 N   0  0  0  0  0  0
  -25.4037  -15.1869   20.3933 N   0  0  0  0  0  0
  -31.8574  -14.8182   20.2280 O   0  0  0  0  0  0
  -21.6633   -6.8881   21.4237 O   0  0  0  0  0  0
  -22.3538  -14.5503   20.6607 O   0  0  0  0  0  0
  -24.6410  -31.8472   23.1877 C   0  0  0  0  0  0
  -25.9216  -32.4704   23.8244 C   0  0  1  0  0  0
  -27.2294  -27.2143   20.1380 C   0  0  0  0  0  0
  -25.5995  -33.8500   24.2207 N   0  0  0  0  0  0
  -23.4382  -30.4657   21.5317 C   0  0  2  0  0  0
  -24.8850  -28.8898   20.1187 C   0  0  0  0  0  0
  -22.7519  -29.4577   22.4865 C   0  0  0  0  0  0
  -18.0304  -28.1410   22.8476 C   0  0  0  0  0  0
  -24.1498  -36.7251   23.2628 C   0  0  0  0  0  0
  -25.9852  -30.7511   21.3619 C   0  0  0  0  0  0
  -26.0610  -29.3613   20.7176 C   0  0  0  0  0  0
  -27.2393  -28.5403   20.7019 C   0  0  0  0  0  0
  -26.0288  -26.8064   19.5252 C   0  0  0  0  0  0
  -24.8754  -27.6226   19.5105 C   0  0  0  0  0  0
  -23.6581  -29.7846   20.1548 C   0  0  0  0  0  0
  -25.4120  -36.3023   24.0315 C   0  0  1  0  0  0
  -20.5918  -28.3731   23.1255 C   0  0  2  0  0  0
  -20.6795  -26.9451   22.5395 C   0  0  0  0  0  0
  -19.5768  -26.6410   21.5202 C   0  0  0  0  0  0
  -18.1947  -26.7957   22.1615 C   0  0  0  0  0  0
  -19.1560  -28.8882   23.2871 C   0  0  0  0  0  0
  -18.9473  -30.1476   23.8908 C   0  0  0  0  0  0
  -17.6473  -30.6610   24.0562 C   0  0  0  0  0  0
  -25.9068  -34.9409   23.5056 C   0  0  0  0  0  0
  -16.5365  -29.9105   23.6332 C   0  0  0  0  0  0
  -16.7287  -28.6518   23.0352 C   0  0  0  0  0  0
  -26.4602  -31.6533   25.0639 C   0  0  0  0  0  0
  -25.3813  -31.3678   26.1339 C   0  0  0  0  0  0
  -27.0430  -30.2944   24.6092 C   0  0  0  0  0  0
  -27.6167  -32.4250   25.7430 C   0  0  0  0  0  0
  -27.5578  -37.1755   24.8468 C   0  0  0  0  0  0
  -21.4220  -29.3068   22.3624 N   0  0  0  0  0  0
  -26.4286  -37.3737   23.9419 N   0  0  0  0  0  0
  -24.7093  -31.0402   22.0850 N   0  0  0  0  0  0
  -23.4178  -28.8139   23.3024 O   0  0  0  0  0  0
  -28.3479  -26.3439   20.0772 O   0  0  0  0  0  0
  -26.5623  -34.8932   22.4609 O   0  0  0  0  0  0
  -23.5554  -32.1292   23.7153 O   0  0  0  0  0  0
  -30.9179  -17.4277   20.6766 C   0  0  0  0  0  0
  -28.6592  -16.7064   20.4322 C   0  0  0  0  0  0
  -30.4941  -18.7282   19.8444 C   0  0  0  0  0  0
  -28.3374  -18.2525   20.8451 C   0  0  1  0  0  0
  -26.8175  -18.5014   20.7156 C   0  0  0  0  0  0
  -32.4140  -20.6407   22.4781 C   0  0  0  0  0  0
  -31.6803  -22.9932   21.9906 C   0  0  0  0  0  0
  -28.0314  -23.5069   19.9207 C   0  0  0  0  0  0
  -28.9751  -22.1485   19.7268 C   0  0  0  0  0  0
  -29.9704  -21.0627   21.9355 C   0  0  0  0  0  0
  -28.3713  -24.9374   20.6607 C   0  0  0  0  0  0
  -31.4377  -21.5083   21.6729 C   0  0  0  0  0  0
  -29.0434  -20.8284   20.7148 C   0  0  2  0  0  0
  -30.0642  -16.1942   20.5425 N   0  0  0  0  0  0
  -29.1493  -19.3446   20.1527 N   0  3  1  0  0  0
  -31.4618  -12.7103   19.1339 H   0  0  0  0  0  0
  -30.4195  -11.6288   20.0052 H   0  0  0  0  0  0
  -29.8303  -11.7175   17.5604 H   0  0  0  0  0  0
  -29.5793  -13.4432   17.6539 H   0  0  0  0  0  0
  -27.9920  -11.2518   19.0119 H   0  0  0  0  0  0
  -27.3734  -12.3687   17.8225 H   0  0  0  0  0  0
  -27.5935  -14.2317   19.3789 H   0  0  0  0  0  0
  -28.7877  -12.2941   21.4176 H   0  0  0  0  0  0
  -28.3912  -13.9604   21.7481 H   0  0  0  0  0  0
  -25.2769   -9.5648   22.4741 H   0  0  0  0  0  0
  -23.9983   -7.4608   22.7458 H   0  0  0  0  0  0
  -21.0834   -8.8793   19.8971 H   0  0  0  0  0  0
  -22.3702  -10.9665   19.6163 H   0  0  0  0  0  0
  -21.2020   -7.6133   23.9718 H   0  0  0  0  0  0
  -21.1462   -6.0499   25.9072 H   0  0  0  0  0  0
  -22.0603   -2.7598   23.2831 H   0  0  0  0  0  0
  -22.4056  -12.0022   22.4937 H   0  0  0  0  0  0
  -21.1021  -13.1296   22.2429 H   0  0  0  0  0  0
  -24.6014  -15.8025   20.4627 H   0  0  0  0  0  0
  -26.2058  -15.6177   19.9579 H   0  0  0  0  0  0
  -26.7272  -32.5366   23.0976 H   0  0  0  0  0  0
  -25.0185  -33.9602   25.0386 H   0  0  0  0  0  0
  -22.7416  -31.2932   21.3734 H   0  0  0  0  0  0
  -23.3774  -35.9566   23.3263 H   0  0  0  0  0  0
  -24.3593  -36.8889   22.2046 H   0  0  0  0  0  0
  -23.7254  -37.6447   23.6664 H   0  0  0  0  0  0
  -26.1154  -31.5007   20.5801 H   0  0  0  0  0  0
  -26.8687  -30.8163   21.9858 H   0  0  0  0  0  0
  -28.1573  -28.9048   21.1436 H   0  0  0  0  0  0
  -25.9852  -25.8361   19.0503 H   0  0  0  0  0  0
  -23.9766  -27.2587   19.0317 H   0  0  0  0  0  0
  -23.7855  -30.5498   19.3887 H   0  0  0  0  0  0
  -22.7773  -29.2154   19.8516 H   0  0  0  0  0  0
  -25.1306  -36.1818   25.0803 H   0  0  0  0  0  0
  -21.0037  -28.3319   24.1362 H   0  0  0  0  0  0
  -20.5703  -26.2339   23.3591 H   0  0  0  0  0  0
  -21.6657  -26.7465   22.1187 H   0  0  0  0  0  0
  -19.6941  -25.6318   21.1226 H   0  0  0  0  0  0
  -19.6722  -27.3223   20.6731 H   0  0  0  0  0  0
  -17.4219  -26.6708   21.4018 H   0  0  0  0  0  0
  -18.0365  -26.0097   22.9009 H   0  0  0  0  0  0
  -19.7938  -30.7283   24.2301 H   0  0  0  0  0  0
  -17.5015  -31.6284   24.5168 H   0  0  0  0  0  0
  -15.5363  -30.3001   23.7655 H   0  0  0  0  0  0
  -15.8680  -28.0827   22.7078 H   0  0  0  0  0  0
  -24.6049  -30.6966   25.7669 H   0  0  0  0  0  0
  -24.8954  -32.2826   26.4703 H   0  0  0  0  0  0
  -25.8136  -30.8909   27.0134 H   0  0  0  0  0  0
  -26.2951  -29.6653   24.1240 H   0  0  0  0  0  0
  -27.4280  -29.7252   25.4564 H   0  0  0  0  0  0
  -27.8773  -30.4250   23.9199 H   0  0  0  0  0  0
  -27.2813  -33.3575   26.1981 H   0  0  0  0  0  0
  -28.4012  -32.6728   25.0270 H   0  0  0  0  0  0
  -28.0785  -31.8346   26.5351 H   0  0  0  0  0  0
  -28.2579  -38.0076   24.7529 H   0  0  0  0  0  0
  -28.1094  -36.2592   24.6263 H   0  0  0  0  0  0
  -27.2287  -37.1362   25.8876 H   0  0  0  0  0  0
  -20.9419  -29.8745   21.6786 H   0  0  0  0  0  0
  -26.0144  -38.2792   24.1469 H   0  0  0  0  0  0
  -30.9526  -17.6798   21.7363 H   0  0  0  0  0  0
  -31.9553  -17.2118   20.4181 H   0  0  0  0  0  0
  -28.0250  -16.0574   21.0300 H   0  0  0  0  0  0
  -28.3631  -16.5615   19.3917 H   0  0  0  0  0  0
  -30.4492  -18.4305   18.7974 H   0  0  0  0  0  0
  -31.2861  -19.4672   19.8651 H   0  0  0  0  0  0
  -28.5745  -18.3435   21.9054 H   0  0  0  0  0  0
  -26.2772  -17.8329   21.3876 H   0  0  0  0  0  0
  -26.5023  -19.5077   20.9882 H   0  0  0  0  0  0
  -26.4553  -18.3161   19.7055 H   0  0  0  0  0  0
  -33.4495  -20.9025   22.2564 H   0  0  0  0  0  0
  -32.2936  -19.5826   22.2469 H   0  0  0  0  0  0
  -32.2557  -20.7664   23.5513 H   0  0  0  0  0  0
  -32.7418  -23.2464   21.9806 H   0  0  0  0  0  0
  -31.3043  -23.2624   22.9779 H   0  0  0  0  0  0
  -31.2053  -23.6291   21.2460 H   0  0  0  0  0  0
  -27.7382  -23.7956   18.9112 H   0  0  0  0  0  0
  -27.0918  -23.1640   20.3578 H   0  0  0  0  0  0
  -29.9835  -22.4595   19.4550 H   0  0  0  0  0  0
  -28.5877  -21.7263   18.7987 H   0  0  0  0  0  0
  -29.4902  -21.7958   22.5855 H   0  0  0  0  0  0
  -29.9623  -20.1532   22.5325 H   0  0  0  0  0  0
  -29.3584  -24.8405   21.1089 H   0  0  0  0  0  0
  -27.7106  -24.9917   21.5283 H   0  0  0  0  0  0
  -31.6844  -21.3861   20.6188 H   0  0  0  0  0  0
  -28.0560  -20.8644   21.1578 H   0  0  0  0  0  0
  -28.7255  -19.4205   19.2390 H   0  0  0  0  0  0
  1 25  1  0  0  0
  1 30  2  0  0  0
  1 84  1  0  0  0
  2  3  1  0  0  0
  2 25  1  0  0  0
  2 86  1  0  0  0
  2 87  1  0  0  0
  3  4  1  0  0  0
  3 88  1  0  0  0
  3 89  1  0  0  0
  4  5  1  0  0  0
  4 90  1  0  0  0
  4 91  1  0  0  0
  5  6  1  0  0  0
  5 26  1  0  0  0
  5 92  1  0  0  0
  6 25  1  0  0  0
  6 93  1  0  0  0
  6 94  1  0  0  0
  7  8  2  0  0  0
  7 26  1  0  0  0
  7 29  1  0  0  0
  8  9  1  0  0  0
  8 22  1  0  0  0
  9 10  1  0  0  0
  9 27  2  0  0  0
 10 11  2  0  0  0
 10 15  1  0  0  0
 11 12  1  0  0  0
 11 95  1  0  0  0
 12 13  2  0  0  0
 12 96  1  0  0  0
 13 14  1  0  0  0
 13 31  1  0  0  0
 14 15  2  0  0  0
 14 97  1  0  0  0
 15 98  1  0  0  0
 16 17  2  0  0  0
 16 21  1  0  0  0
 16 31  1  0  0  0
 17 18  1  0  0  0
 17 99  1  0  0  0
 18 19  2  0  0  0
 18100  1  0  0  0
 19 20  1  0  0  0
 19 24  1  0  0  0
 20 21  2  0  0  0
 20101  1  0  0  0
 21 23  1  0  0  0
 22 28  1  0  0  0
 22 32  2  0  0  0
 26 27  1  0  0  0
 28102  1  0  0  0
 28103  1  0  0  0
 29104  1  0  0  0
 29105  1  0  0  0
 33 34  1  0  0  0
 33 66  1  0  0  0
 33 70  2  0  0  0
 34 36  1  0  0  0
 34 59  1  0  0  0
 34106  1  0  0  0
 35 44  2  0  0  0
 35 45  1  0  0  0
 35 68  1  0  0  0
 36 56  1  0  0  0
 36107  1  0  0  0
 37 39  1  0  0  0
 37 47  1  0  0  0
 37 66  1  0  0  0
 37108  1  0  0  0
 38 43  2  0  0  0
 38 46  1  0  0  0
 38 47  1  0  0  0
 39 64  1  0  0  0
 39 67  2  0  0  0
 40 52  1  0  0  0
 40 53  2  0  0  0
 40 58  1  0  0  0
 41109  1  0  0  0
 41110  1  0  0  0
 41111  1  0  0  0
 41 48  1  0  0  0
 42 43  1  0  0  0
 42 66  1  0  0  0
 42112  1  0  0  0
 42113  1  0  0  0
 43 44  1  0  0  0
 44114  1  0  0  0
 45 46  2  0  0  0
 45115  1  0  0  0
 46116  1  0  0  0
 47117  1  0  0  0
 47118  1  0  0  0
 48 56  1  0  0  0
 48 65  1  0  0  0
 48119  1  0  0  0
 49 50  1  0  0  0
 49 53  1  0  0  0
 49 64  1  0  0  0
 49120  1  0  0  0
 50 51  1  0  0  0
 50121  1  0  0  0
 50122  1  0  0  0
 51 52  1  0  0  0
 51123  1  0  0  0
 51124  1  0  0  0
 52125  1  0  0  0
 52126  1  0  0  0
 53 54  1  0  0  0
 54 55  2  0  0  0
 54127  1  0  0  0
 55 57  1  0  0  0
 55128  1  0  0  0
 56 69  2  0  0  0
 57 58  2  0  0  0
 57129  1  0  0  0
 58130  1  0  0  0
 59 60  1  0  0  0
 59 61  1  0  0  0
 59 62  1  0  0  0
 60131  1  0  0  0
 60132  1  0  0  0
 60133  1  0  0  0
 61134  1  0  0  0
 61135  1  0  0  0
 61136  1  0  0  0
 62137  1  0  0  0
 62138  1  0  0  0
 62139  1  0  0  0
 63 65  1  0  0  0
 63140  1  0  0  0
 63141  1  0  0  0
 63142  1  0  0  0
 64143  1  0  0  0
 65144  1  0  0  0
 68 81  1  0  0  0
 71 73  1  0  0  0
 71 84  1  0  0  0
 71145  1  0  0  0
 71146  1  0  0  0
 72 74  1  0  0  0
 72 84  1  0  0  0
 72147  1  0  0  0
 72148  1  0  0  0
 73149  1  0  0  0
 73150  1  0  0  0
 73 85  1  0  0  0
 74 75  1  0  0  0
 74 85  1  0  0  0
 74151  1  0  0  0
 75152  1  0  0  0
 75153  1  0  0  0
 75154  1  0  0  0
 76155  1  0  0  0
 76156  1  0  0  0
 76157  1  0  0  0
 76 82  1  0  0  0
 77 82  1  0  0  0
 77158  1  0  0  0
 77159  1  0  0  0
 77160  1  0  0  0
 78 79  1  0  0  0
 78 81  1  0  0  0
 78161  1  0  0  0
 78162  1  0  0  0
 79163  1  0  0  0
 79164  1  0  0  0
 79 83  1  0  0  0
 80 82  1  0  0  0
 80 83  1  0  0  0
 80165  1  0  0  0
 80166  1  0  0  0
 81167  1  0  0  0
 81168  1  0  0  0
 82169  1  0  0  0
 83 85  1  0  0  0
 83170  1  0  0  0
 85171  1  0  0  0
M  CHG  1  85   1
M  ISO  4   1 100  68 101  81 101  84 100
M  END
> <chiral flag>
0

> <version>
0

> <s_m_source_file>
/data/baiqing/PycharmProjects/Reinvent-master-3.2/result/LINK_invent/BTK/process_docking_weight1_custom_sum_contain_oxygen_bond_distance_aromatic_linkinvent_7_9_3/rearranged_h_0108.sdf

> <i_m_source_file_index>
78

> <r_mmod_Potential_Energy-OPLS-2005>
610.758972167969

> <r_mmod_Stretch_Energy-OPLS-2005>
195.485366821289

> <r_mmod_Bend_Energy-OPLS-2005>
314.865692138672

> <r_mmod_Torsional_Energy-OPLS-2005>
444.510131835938

> <r_mmod_Improper_Torsional_Energy-OPLS-2005>
4.82584857940674

> <r_mmod_Van_der_Waal_Energy-OPLS-2005>
123.245094299316

> <r_mmod_Electrostatic_Energy-OPLS-2005>
-181.720001220703

> <r_mmod_Solvation_Energy-OPLS-2005>
-428.538360595703

> <b_mmod_Minimization_Converged-OPLS-2005>
0

> <r_mmod_RMS_Derivative-OPLS-2005>
4.7872519493103

$$$$
78
                    3D
 Structure written by MMmdl.
167175  0  0  1  0            999 V2000
  -30.5257  -14.9732   20.3672 C   0  0  0  0  0  0
  -30.4477  -12.5949   19.5108 C   0  0  0  0  0  0
  -29.5389  -12.5180   18.2642 C   0  0  0  0  0  0
  -28.0794  -12.2837   18.6932 C   0  0  0  0  0  0
  -27.6299  -13.2410   19.8327 C   0  0  2  0  0  0
  -28.6713  -13.3105   20.9722 C   0  0  0  0  0  0
  -25.2418  -13.7996   20.5803 C   0  0  0  0  0  0
  -24.1752  -13.0252   20.9318 C   0  0  0  0  0  0
  -24.6403  -11.6782   20.8804 C   0  0  0  0  0  0
  -23.9091  -10.4181   21.0415 C   0  0  0  0  0  0
  -24.3647   -9.4133   21.9207 C   0  0  0  0  0  0
  -23.6291   -8.2185   22.0769 C   0  0  0  0  0  0
  -22.4296   -8.0251   21.3534 C   0  0  0  0  0  0
  -21.9915   -9.0232   20.4664 C   0  0  0  0  0  0
  -22.7260  -10.2088   20.3073 C   0  0  0  0  0  0
  -21.6829   -6.0724   22.5267 C   0  0  0  0  0  0
  -21.3987   -6.5622   23.8203 C   0  0  0  0  0  0
  -21.3655   -5.6781   24.9168 C   0  0  0  0  0  0
  -21.6057   -4.3035   24.7216 C   0  0  0  0  0  0
  -21.8832   -3.8130   23.4337 C   0  0  0  0  0  0
  -21.9195   -4.6953   22.3396 C   0  0  0  0  0  0
  -22.7800  -13.5099   21.1913 C   0  0  0  0  0  0
  -22.1662   -4.2139   21.0973 F   0  0  0  0  0  0
  -21.5654   -3.4521   25.7739 F   0  0  0  0  0  0
  -29.9403  -13.7068   20.3575 N   0  0  0  0  0  0
  -26.2901  -12.9312   20.3214 N   0  0  0  0  0  0
  -25.9340  -11.6441   20.5735 N   0  0  0  0  0  0
  -22.0380  -12.8139   22.0481 N   0  0  0  0  0  0
  -25.3780  -15.1655   20.4352 N   0  0  0  0  0  0
  -31.7384  -15.0249   20.1459 O   0  0  0  0  0  0
  -21.6622   -6.8894   21.4257 O   0  0  0  0  0  0
  -22.3533  -14.5416   20.6751 O   0  0  0  0  0  0
  -24.6410  -31.8489   23.1905 C   0  0  0  0  0  0
  -25.9193  -32.4721   23.8272 C   0  0  1  0  0  0
  -27.2209  -27.1596   20.1282 C   0  0  0  0  0  0
  -25.5966  -33.8527   24.2206 N   0  0  0  0  0  0
  -23.4420  -30.4674   21.5386 C   0  0  2  0  0  0
  -24.8880  -28.8947   20.1136 C   0  0  0  0  0  0
  -22.7555  -29.4578   22.4909 C   0  0  0  0  0  0
  -18.0306  -28.1397   22.8484 C   0  0  0  0  0  0
  -24.1497  -36.7249   23.2642 C   0  0  0  0  0  0
  -25.9963  -30.7280   21.3828 C   0  0  0  0  0  0
  -26.0689  -29.3389   20.7232 C   0  0  0  0  0  0
  -27.2380  -28.4914   20.7069 C   0  0  0  0  0  0
  -26.0130  -26.8123   19.4865 C   0  0  0  0  0  0
  -24.8716  -27.6419   19.4834 C   0  0  0  0  0  0
  -23.6643  -29.7964   20.1574 C   0  0  0  0  0  0
  -25.4126  -36.3039   24.0318 C   0  0  1  0  0  0
  -20.5915  -28.3725   23.1253 C   0  0  2  0  0  0
  -20.6789  -26.9433   22.5401 C   0  0  0  0  0  0
  -19.5751  -26.6392   21.5222 C   0  0  0  0  0  0
  -18.1939  -26.7938   22.1642 C   0  0  0  0  0  0
  -19.1547  -28.8869   23.2867 C   0  0  0  0  0  0
  -18.9481  -30.1474   23.8881 C   0  0  0  0  0  0
  -17.6469  -30.6600   24.0562 C   0  0  0  0  0  0
  -25.9061  -34.9417   23.5066 C   0  0  0  0  0  0
  -16.5367  -29.9088   23.6345 C   0  0  0  0  0  0
  -16.7283  -28.6507   23.0367 C   0  0  0  0  0  0
  -26.4519  -31.6563   25.0687 C   0  0  0  0  0  0
  -25.3741  -31.3766   26.1417 C   0  0  0  0  0  0
  -27.0373  -30.2963   24.6243 C   0  0  0  0  0  0
  -27.6069  -32.4319   25.7473 C   0  0  0  0  0  0
  -27.5583  -37.1769   24.8469 C   0  0  0  0  0  0
  -21.4242  -29.3058   22.3621 N   0  0  0  0  0  0
  -26.4290  -37.3752   23.9416 N   0  0  0  0  0  0
  -24.7136  -31.0350   22.0930 N   0  0  0  0  0  0
  -23.4196  -28.8138   23.3054 O   0  0  0  0  0  0
  -28.2986  -26.2054   20.1287 O   0  0  0  0  0  0
  -26.5649  -34.8912   22.4641 O   0  0  0  0  0  0
  -23.5545  -32.1359   23.7119 O   0  0  0  0  0  0
  -30.1770  -20.3874   18.6657 C   0  0  0  0  0  0
  -29.4632  -20.4361   19.9035 C   0  0  0  0  0  0
  -29.4857  -19.4506   17.9372 C   0  0  0  0  0  0
  -29.2152  -19.0216   20.0719 C   0  0  0  0  0  0
  -26.6622  -17.3816   18.9295 C   0  0  0  0  0  0
  -30.4768  -23.8450   19.9844 C   0  0  0  0  0  0
  -28.1216  -17.9373   14.9352 C   0  0  0  0  0  0
  -28.8692  -21.8403   20.5426 C   0  0  0  0  0  0
  -30.1644  -17.6836   20.2853 C   0  0  0  0  0  0
  -29.4057  -19.2198   16.4557 C   0  0  0  0  0  0
  -27.1376  -18.7821   18.6159 C   0  0  0  0  0  0
  -28.0710  -24.6923   20.3958 C   0  0  0  0  0  0
  -29.0154  -23.3950   19.9015 C   0  0  1  0  0  0
  -28.5690  -18.9540   18.8524 N   0  0  0  0  0  0
  -29.7422  -16.1657   20.4039 N   0  0  0  0  0  0
  -28.6704  -18.0183   16.2429 O   0  0  0  0  0  0
  -31.4839  -12.7489   19.2044 H   0  0  0  0  0  0
  -30.4385  -11.6538   20.0626 H   0  0  0  0  0  0
  -29.8760  -11.7205   17.5999 H   0  0  0  0  0  0
  -29.6283  -13.4459   17.7035 H   0  0  0  0  0  0
  -28.0114  -11.2530   19.0504 H   0  0  0  0  0  0
  -27.4143  -12.3606   17.8339 H   0  0  0  0  0  0
  -27.5802  -14.2347   19.3845 H   0  0  0  0  0  0
  -28.7676  -12.3659   21.5087 H   0  0  0  0  0  0
  -28.3716  -14.0665   21.7013 H   0  0  0  0  0  0
  -25.2820   -9.5580   22.4760 H   0  0  0  0  0  0
  -23.9984   -7.4588   22.7478 H   0  0  0  0  0  0
  -21.0841   -8.8808   19.8983 H   0  0  0  0  0  0
  -22.3778  -10.9662   19.6184 H   0  0  0  0  0  0
  -21.1933   -7.6115   23.9699 H   0  0  0  0  0  0
  -21.1475   -6.0497   25.9078 H   0  0  0  0  0  0
  -22.0613   -2.7582   23.2837 H   0  0  0  0  0  0
  -22.3978  -11.9859   22.4951 H   0  0  0  0  0  0
  -21.1026  -13.1256   22.2617 H   0  0  0  0  0  0
  -24.5538  -15.7561   20.4771 H   0  0  0  0  0  0
  -26.1270  -15.5870   19.8971 H   0  0  0  0  0  0
  -26.7253  -32.5335   23.1000 H   0  0  0  0  0  0
  -25.0110  -33.9646   25.0352 H   0  0  0  0  0  0
  -22.7449  -31.2928   21.3862 H   0  0  0  0  0  0
  -23.3778  -35.9560   23.3275 H   0  0  0  0  0  0
  -24.3590  -36.8907   22.2064 H   0  0  0  0  0  0
  -23.7214  -37.6423   23.6691 H   0  0  0  0  0  0
  -26.1475  -31.4886   20.6137 H   0  0  0  0  0  0
  -26.8693  -30.7776   22.0223 H   0  0  0  0  0  0
  -28.1427  -28.8388   21.1846 H   0  0  0  0  0  0
  -25.9333  -25.8695   18.9708 H   0  0  0  0  0  0
  -23.9715  -27.2991   18.9937 H   0  0  0  0  0  0
  -23.7940  -30.5718   19.4020 H   0  0  0  0  0  0
  -22.7787  -29.2356   19.8526 H   0  0  0  0  0  0
  -25.1305  -36.1870   25.0810 H   0  0  0  0  0  0
  -21.0010  -28.3307   24.1377 H   0  0  0  0  0  0
  -20.5713  -26.2337   23.3612 H   0  0  0  0  0  0
  -21.6656  -26.7461   22.1178 H   0  0  0  0  0  0
  -19.6915  -25.6301   21.1256 H   0  0  0  0  0  0
  -19.6683  -27.3203   20.6749 H   0  0  0  0  0  0
  -17.4210  -26.6690   21.4055 H   0  0  0  0  0  0
  -18.0341  -26.0084   22.9039 H   0  0  0  0  0  0
  -19.7950  -30.7302   24.2249 H   0  0  0  0  0  0
  -17.5024  -31.6284   24.5163 H   0  0  0  0  0  0
  -15.5362  -30.2986   23.7677 H   0  0  0  0  0  0
  -15.8693  -28.0820   22.7097 H   0  0  0  0  0  0
  -24.5781  -30.7306   25.7699 H   0  0  0  0  0  0
  -24.9121  -32.2985   26.4967 H   0  0  0  0  0  0
  -25.8006  -30.8762   27.0125 H   0  0  0  0  0  0
  -26.2967  -29.6691   24.1272 H   0  0  0  0  0  0
  -27.4029  -29.7248   25.4786 H   0  0  0  0  0  0
  -27.8864  -30.4204   23.9518 H   0  0  0  0  0  0
  -27.2672  -33.3653   26.1992 H   0  0  0  0  0  0
  -28.3911  -32.6841   25.0314 H   0  0  0  0  0  0
  -28.0707  -31.8483   26.5443 H   0  0  0  0  0  0
  -28.2572  -38.0094   24.7546 H   0  0  0  0  0  0
  -28.1099  -36.2618   24.6254 H   0  0  0  0  0  0
  -27.2300  -37.1367   25.8872 H   0  0  0  0  0  0
  -20.9440  -29.8750   21.6788 H   0  0  0  0  0  0
  -26.0155  -38.2819   24.1438 H   0  0  0  0  0  0
  -30.7580  -21.1689   18.1947 H   0  0  0  0  0  0
  -27.0885  -16.6587   18.2374 H   0  0  0  0  0  0
  -25.5767  -17.3357   18.8523 H   0  0  0  0  0  0
  -26.9555  -17.1236   19.9482 H   0  0  0  0  0  0
  -31.1631  -23.0680   19.6486 H   0  0  0  0  0  0
  -30.7426  -24.1295   21.0029 H   0  0  0  0  0  0
  -30.6473  -24.7118   19.3497 H   0  0  0  0  0  0
  -27.4827  -17.0567   14.8501 H   0  0  0  0  0  0
  -28.9037  -17.8687   14.1771 H   0  0  0  0  0  0
  -27.4979  -18.8072   14.7149 H   0  0  0  0  0  0
  -29.2254  -21.8739   21.5735 H   0  0  0  0  0  0
  -27.7986  -21.6483   20.6298 H   0  0  0  0  0  0
  -30.7775  -17.8686   21.1620 H   0  0  0  0  0  0
  -30.8924  -17.6857   19.4729 H   0  0  0  0  0  0
  -30.3999  -19.1239   16.0227 H   0  0  0  0  0  0
  -28.9218  -20.0783   15.9950 H   0  0  0  0  0  0
  -26.6035  -19.5012   19.2370 H   0  0  0  0  0  0
  -26.8814  -19.0535   17.5903 H   0  0  0  0  0  0
  -28.0359  -24.6288   21.4831 H   0  0  0  0  0  0
  -27.0615  -24.4351   20.0890 H   0  0  0  0  0  0
  -28.7943  -23.2742   18.8409 H   0  0  0  0  0  0
  -28.7540  -16.0133   20.5270 H   0  0  0  0  0  0
  1 25  1  0  0  0
  1 30  2  0  0  0
  1 85  1  0  0  0
  2  3  1  0  0  0
  2 25  1  0  0  0
  2 87  1  0  0  0
  2 88  1  0  0  0
  3  4  1  0  0  0
  3 89  1  0  0  0
  3 90  1  0  0  0
  4  5  1  0  0  0
  4 91  1  0  0  0
  4 92  1  0  0  0
  5  6  1  0  0  0
  5 26  1  0  0  0
  5 93  1  0  0  0
  6 25  1  0  0  0
  6 94  1  0  0  0
  6 95  1  0  0  0
  7  8  2  0  0  0
  7 26  1  0  0  0
  7 29  1  0  0  0
  8  9  1  0  0  0
  8 22  1  0  0  0
  9 10  1  0  0  0
  9 27  2  0  0  0
 10 11  2  0  0  0
 10 15  1  0  0  0
 11 12  1  0  0  0
 11 96  1  0  0  0
 12 13  2  0  0  0
 12 97  1  0  0  0
 13 14  1  0  0  0
 13 31  1  0  0  0
 14 15  2  0  0  0
 14 98  1  0  0  0
 15 99  1  0  0  0
 16 17  2  0  0  0
 16 21  1  0  0  0
 16 31  1  0  0  0
 17 18  1  0  0  0
 17100  1  0  0  0
 18 19  2  0  0  0
 18101  1  0  0  0
 19 20  1  0  0  0
 19 24  1  0  0  0
 20 21  2  0  0  0
 20102  1  0  0  0
 21 23  1  0  0  0
 22 28  1  0  0  0
 22 32  2  0  0  0
 26 27  1  0  0  0
 28103  1  0  0  0
 28104  1  0  0  0
 29105  1  0  0  0
 29106  1  0  0  0
 33 34  1  0  0  0
 33 66  1  0  0  0
 33 70  2  0  0  0
 34 36  1  0  0  0
 34 59  1  0  0  0
 34107  1  0  0  0
 35 44  2  0  0  0
 35 45  1  0  0  0
 35 68  1  0  0  0
 36 56  1  0  0  0
 36108  1  0  0  0
 37 39  1  0  0  0
 37 47  1  0  0  0
 37 66  1  0  0  0
 37109  1  0  0  0
 38 43  2  0  0  0
 38 46  1  0  0  0
 38 47  1  0  0  0
 39 64  1  0  0  0
 39 67  2  0  0  0
 40 52  1  0  0  0
 40 53  2  0  0  0
 40 58  1  0  0  0
 41110  1  0  0  0
 41111  1  0  0  0
 41112  1  0  0  0
 41 48  1  0  0  0
 42 43  1  0  0  0
 42 66  1  0  0  0
 42113  1  0  0  0
 42114  1  0  0  0
 43 44  1  0  0  0
 44115  1  0  0  0
 45 46  2  0  0  0
 45116  1  0  0  0
 46117  1  0  0  0
 47118  1  0  0  0
 47119  1  0  0  0
 48 56  1  0  0  0
 48 65  1  0  0  0
 48120  1  0  0  0
 49 50  1  0  0  0
 49 53  1  0  0  0
 49 64  1  0  0  0
 49121  1  0  0  0
 50 51  1  0  0  0
 50122  1  0  0  0
 50123  1  0  0  0
 51 52  1  0  0  0
 51124  1  0  0  0
 51125  1  0  0  0
 52126  1  0  0  0
 52127  1  0  0  0
 53 54  1  0  0  0
 54 55  2  0  0  0
 54128  1  0  0  0
 55 57  1  0  0  0
 55129  1  0  0  0
 56 69  2  0  0  0
 57 58  2  0  0  0
 57130  1  0  0  0
 58131  1  0  0  0
 59 60  1  0  0  0
 59 61  1  0  0  0
 59 62  1  0  0  0
 60132  1  0  0  0
 60133  1  0  0  0
 60134  1  0  0  0
 61135  1  0  0  0
 61136  1  0  0  0
 61137  1  0  0  0
 62138  1  0  0  0
 62139  1  0  0  0
 62140  1  0  0  0
 63 65  1  0  0  0
 63141  1  0  0  0
 63142  1  0  0  0
 63143  1  0  0  0
 64144  1  0  0  0
 65145  1  0  0  0
 68 82  1  0  0  0
 71 72  1  0  0  0
 71 73  2  0  0  0
 71146  1  0  0  0
 72 74  2  0  0  0
 72 78  1  0  0  0
 73 80  1  0  0  0
 73 84  1  0  0  0
 74 79  1  0  0  0
 74 84  1  0  0  0
 75 81  1  0  0  0
 75147  1  0  0  0
 75148  1  0  0  0
 75149  1  0  0  0
 76150  1  0  0  0
 76151  1  0  0  0
 76152  1  0  0  0
 76 83  1  0  0  0
 77 86  1  0  0  0
 77153  1  0  0  0
 77154  1  0  0  0
 77155  1  0  0  0
 78 83  1  0  0  0
 78156  1  0  0  0
 78157  1  0  0  0
 79 85  1  0  0  0
 79158  1  0  0  0
 79159  1  0  0  0
 80 86  1  0  0  0
 80160  1  0  0  0
 80161  1  0  0  0
 81 84  1  0  0  0
 81162  1  0  0  0
 81163  1  0  0  0
 82 83  1  0  0  0
 82164  1  0  0  0
 82165  1  0  0  0
 83166  1  0  0  0
 85167  1  0  0  0
M  ISO  4   1 100  68 101  82 101  85 100
M  END
> <chiral flag>
0

> <version>
0

> <s_m_source_file>
/data/baiqing/PycharmProjects/Reinvent-master-3.2/result/LINK_invent/BTK/process_docking_weight1_custom_sum_contain_oxygen_bond_distance_aromatic_linkinvent_7_9_3/rearranged_h_0108.sdf

> <i_m_source_file_index>
79

> <r_mmod_Potential_Energy-OPLS-2005>
769.383666992188

> <r_mmod_Stretch_Energy-OPLS-2005>
258.652404785156

> <r_mmod_Bend_Energy-OPLS-2005>
286.706970214844

> <r_mmod_Torsional_Energy-OPLS-2005>
518.225708007812

> <r_mmod_Improper_Torsional_Energy-OPLS-2005>
32.3057022094727

> <r_mmod_Van_der_Waal_Energy-OPLS-2005>
110.712699890137

> <r_mmod_Electrostatic_Energy-OPLS-2005>
-423.456512451172

> <r_mmod_Solvation_Energy-OPLS-2005>
-206.556701660156

> <b_mmod_Minimization_Converged-OPLS-2005>
0

> <r_mmod_RMS_Derivative-OPLS-2005>
7.21358871459961

$$$$
79
                    3D
 Structure written by MMmdl.
158165  0  0  1  0            999 V2000
  -30.6071  -14.6541   20.5131 C   0  0  0  0  0  0
  -30.4454  -12.4126   19.4349 C   0  0  0  0  0  0
  -29.5134  -12.5214   18.2084 C   0  0  0  0  0  0
  -28.0371  -12.3501   18.6268 C   0  0  0  0  0  0
  -27.6555  -13.2140   19.8614 C   0  0  2  0  0  0
  -28.7009  -13.0565   20.9854 C   0  0  0  0  0  0
  -25.2586  -13.8109   20.5682 C   0  0  0  0  0  0
  -24.1844  -13.0348   20.9149 C   0  0  0  0  0  0
  -24.6438  -11.6842   20.8684 C   0  0  0  0  0  0
  -23.9087  -10.4246   21.0354 C   0  0  0  0  0  0
  -24.3622   -9.4181   21.9167 C   0  0  0  0  0  0
  -23.6275   -8.2224   22.0772 C   0  0  0  0  0  0
  -22.4267   -8.0265   21.3548 C   0  0  0  0  0  0
  -21.9892   -9.0231   20.4655 C   0  0  0  0  0  0
  -22.7229  -10.2105   20.3028 C   0  0  0  0  0  0
  -21.6812   -6.0733   22.5295 C   0  0  0  0  0  0
  -21.3997   -6.5644   23.8225 C   0  0  0  0  0  0
  -21.3648   -5.6810   24.9186 C   0  0  0  0  0  0
  -21.6013   -4.3069   24.7236 C   0  0  0  0  0  0
  -21.8813   -3.8149   23.4362 C   0  0  0  0  0  0
  -21.9167   -4.6963   22.3408 C   0  0  0  0  0  0
  -22.7893  -13.5188   21.1809 C   0  0  0  0  0  0
  -22.1640   -4.2157   21.0989 F   0  0  0  0  0  0
  -21.5630   -3.4552   25.7749 F   0  0  0  0  0  0
  -30.0055  -13.4244   20.4158 N   0  0  0  0  0  0
  -26.3011  -12.9309   20.3276 N   0  0  0  0  0  0
  -25.9356  -11.6457   20.5665 N   0  0  0  0  0  0
  -22.0531  -12.8190   22.0378 N   0  0  0  0  0  0
  -25.4156  -15.1827   20.4153 N   0  0  0  0  0  0
  -31.7879  -14.8180   20.1978 O   0  0  0  0  0  0
  -21.6599   -6.8883   21.4273 O   0  0  0  0  0  0
  -22.3601  -14.5505   20.6679 O   0  0  0  0  0  0
  -24.6335  -31.8593   23.2020 C   0  0  0  0  0  0
  -25.9159  -32.4813   23.8389 C   0  0  1  0  0  0
  -27.2241  -27.2936   20.1126 C   0  0  0  0  0  0
  -25.6003  -33.8623   24.2377 N   0  0  0  0  0  0
  -23.4323  -30.4802   21.5462 C   0  0  2  0  0  0
  -24.8723  -28.9285   20.1207 C   0  0  0  0  0  0
  -22.7517  -29.4615   22.4934 C   0  0  0  0  0  0
  -18.0282  -28.1378   22.8498 C   0  0  0  0  0  0
  -24.1471  -36.7238   23.2646 C   0  0  0  0  0  0
  -25.9757  -30.7772   21.3758 C   0  0  0  0  0  0
  -26.0478  -29.4042   20.7170 C   0  0  0  0  0  0
  -27.2287  -28.6000   20.7013 C   0  0  0  0  0  0
  -26.0322  -26.8915   19.4703 C   0  0  0  0  0  0
  -24.8650  -27.6747   19.4930 C   0  0  0  0  0  0
  -23.6490  -29.8186   20.1625 C   0  0  0  0  0  0
  -25.4106  -36.3116   24.0370 C   0  0  1  0  0  0
  -20.5892  -28.3683   23.1263 C   0  0  2  0  0  0
  -20.6769  -26.9410   22.5385 C   0  0  0  0  0  0
  -19.5729  -26.6379   21.5203 C   0  0  0  0  0  0
  -18.1915  -26.7933   22.1623 C   0  0  0  0  0  0
  -19.1549  -28.8851   23.2880 C   0  0  0  0  0  0
  -18.9465  -30.1448   23.8895 C   0  0  0  0  0  0
  -17.6470  -30.6584   24.0558 C   0  0  0  0  0  0
  -25.9039  -34.9480   23.5155 C   0  0  0  0  0  0
  -16.5358  -29.9073   23.6340 C   0  0  0  0  0  0
  -16.7276  -28.6485   23.0384 C   0  0  0  0  0  0
  -26.4493  -31.6632   25.0790 C   0  0  0  0  0  0
  -25.3729  -31.3757   26.1510 C   0  0  0  0  0  0
  -27.0336  -30.3076   24.6256 C   0  0  0  0  0  0
  -27.6047  -32.4354   25.7568 C   0  0  0  0  0  0
  -27.5579  -37.1770   24.8497 C   0  0  0  0  0  0
  -21.4216  -29.3055   22.3670 N   0  0  0  0  0  0
  -26.4297  -37.3802   23.9446 N   0  0  0  0  0  0
  -24.7006  -31.0555   22.1002 N   0  0  0  0  0  0
  -23.4204  -28.8138   23.3032 O   0  0  0  0  0  0
  -28.3193  -26.4102   20.1372 O   0  0  0  0  0  0
  -26.5518  -34.8942   22.4668 O   0  0  0  0  0  0
  -23.5473  -32.1399   23.7306 O   0  0  0  0  0  0
  -27.1850  -21.9945   19.6042 C   0  0  0  0  0  0
  -28.1338  -19.7101   21.9728 C   0  0  0  0  0  0
  -28.9763  -23.7638   20.0674 C   0  0  0  0  0  0
  -30.0552  -17.1456   21.2235 C   0  0  0  0  0  0
  -29.4765  -18.3670   20.3461 C   0  0  0  0  0  0
  -29.4462  -21.0082   20.2033 C   0  0  0  0  0  0
  -28.0376  -24.9910   20.5092 C   0  0  0  0  0  0
  -28.4647  -22.2737   20.4200 C   0  0  2  0  0  0
  -29.7838  -15.7157   20.8001 N   0  0  0  0  0  0
  -29.2998  -19.7265   21.0456 N   0  3  1  0  0  0
  -31.4858  -12.5523   19.1376 H   0  0  0  0  0  0
  -30.3923  -11.4109   19.8650 H   0  0  0  0  0  0
  -29.7851  -11.7659   17.4684 H   0  0  0  0  0  0
  -29.6485  -13.4882   17.7202 H   0  0  0  0  0  0
  -27.8856  -11.2934   18.8521 H   0  0  0  0  0  0
  -27.3800  -12.5815   17.7891 H   0  0  0  0  0  0
  -27.6772  -14.2536   19.5367 H   0  0  0  0  0  0
  -28.7220  -12.0262   21.3459 H   0  0  0  0  0  0
  -28.4463  -13.6706   21.8491 H   0  0  0  0  0  0
  -25.2774   -9.5647   22.4707 H   0  0  0  0  0  0
  -23.9930   -7.4640   22.7540 H   0  0  0  0  0  0
  -21.0790   -8.8747   19.9003 H   0  0  0  0  0  0
  -22.3672  -10.9625   19.6114 H   0  0  0  0  0  0
  -21.2031   -7.6172   23.9714 H   0  0  0  0  0  0
  -21.1457   -6.0570   25.9076 H   0  0  0  0  0  0
  -22.0609   -2.7617   23.2872 H   0  0  0  0  0  0
  -22.4157  -11.9828   22.4698 H   0  0  0  0  0  0
  -21.1174  -13.1244   22.2620 H   0  0  0  0  0  0
  -26.2379  -15.6527   20.0635 H   0  0  0  0  0  0
  -24.6183  -15.7999   20.5195 H   0  0  0  0  0  0
  -26.7261  -32.5405   23.1146 H   0  0  0  0  0  0
  -25.0384  -33.9808   25.0688 H   0  0  0  0  0  0
  -22.7329  -31.3040   21.3997 H   0  0  0  0  0  0
  -23.3807  -35.9498   23.3325 H   0  0  0  0  0  0
  -24.3537  -36.8806   22.2053 H   0  0  0  0  0  0
  -23.7137  -37.6432   23.6589 H   0  0  0  0  0  0
  -26.1087  -31.5380   20.6052 H   0  0  0  0  0  0
  -26.8582  -30.8233   22.0034 H   0  0  0  0  0  0
  -28.1314  -28.9649   21.1702 H   0  0  0  0  0  0
  -25.9813  -25.9485   18.9448 H   0  0  0  0  0  0
  -23.9670  -27.3001   19.0194 H   0  0  0  0  0  0
  -23.7871  -30.5976   19.4131 H   0  0  0  0  0  0
  -22.7693  -29.2567   19.8434 H   0  0  0  0  0  0
  -25.1272  -36.2000   25.0868 H   0  0  0  0  0  0
  -20.9997  -28.3232   24.1381 H   0  0  0  0  0  0
  -20.5681  -26.2291   23.3590 H   0  0  0  0  0  0
  -21.6627  -26.7413   22.1177 H   0  0  0  0  0  0
  -19.6887  -25.6282   21.1235 H   0  0  0  0  0  0
  -19.6681  -27.3186   20.6740 H   0  0  0  0  0  0
  -17.4204  -26.6724   21.4019 H   0  0  0  0  0  0
  -18.0281  -26.0062   22.8995 H   0  0  0  0  0  0
  -19.7939  -30.7260   24.2292 H   0  0  0  0  0  0
  -17.5014  -31.6278   24.5124 H   0  0  0  0  0  0
  -15.5352  -30.2971   23.7662 H   0  0  0  0  0  0
  -15.8672  -28.0773   22.7132 H   0  0  0  0  0  0
  -24.5924  -30.7095   25.7850 H   0  0  0  0  0  0
  -24.8882  -32.2892   26.4955 H   0  0  0  0  0  0
  -25.8041  -30.8947   27.0301 H   0  0  0  0  0  0
  -26.2931  -29.6866   24.1223 H   0  0  0  0  0  0
  -27.3996  -29.7301   25.4753 H   0  0  0  0  0  0
  -27.8797  -30.4414   23.9525 H   0  0  0  0  0  0
  -27.2695  -33.3680   26.2111 H   0  0  0  0  0  0
  -28.3856  -32.6882   25.0394 H   0  0  0  0  0  0
  -28.0710  -31.8520   26.5522 H   0  0  0  0  0  0
  -28.2629  -38.0040   24.7557 H   0  0  0  0  0  0
  -28.1034  -36.2570   24.6302 H   0  0  0  0  0  0
  -27.2263  -37.1407   25.8892 H   0  0  0  0  0  0
  -20.9403  -29.8816   21.6896 H   0  0  0  0  0  0
  -26.0201  -38.2905   24.1424 H   0  0  0  0  0  0
  -26.3171  -22.5151   20.0025 H   0  0  0  0  0  0
  -26.9314  -20.9348   19.5850 H   0  0  0  0  0  0
  -27.3070  -22.3088   18.5659 H   0  0  0  0  0  0
  -28.1804  -18.8393   22.6256 H   0  0  0  0  0  0
  -27.1824  -19.6686   21.4409 H   0  0  0  0  0  0
  -28.1048  -20.5668   22.6442 H   0  0  0  0  0  0
  -29.9589  -23.9054   20.5177 H   0  0  0  0  0  0
  -29.1498  -23.8285   18.9932 H   0  0  0  0  0  0
  -29.6273  -17.2072   22.2224 H   0  0  0  0  0  0
  -31.1263  -17.2817   21.3771 H   0  0  0  0  0  0
  -28.5260  -18.0760   19.9013 H   0  0  0  0  0  0
  -30.1446  -18.5009   19.4940 H   0  0  0  0  0  0
  -29.3880  -20.7249   19.1496 H   0  0  0  0  0  0
  -30.4712  -21.3406   20.3627 H   0  0  0  0  0  0
  -27.9975  -24.9879   21.5981 H   0  0  0  0  0  0
  -27.0309  -24.7093   20.2171 H   0  0  0  0  0  0
  -28.2014  -22.3253   21.4733 H   0  0  0  0  0  0
  -28.8202  -15.4386   20.9045 H   0  0  0  0  0  0
  -30.0977  -19.7937   21.6578 H   0  0  0  0  0  0
  1 25  1  0  0  0
  1 30  2  0  0  0
  1 79  1  0  0  0
  2  3  1  0  0  0
  2 25  1  0  0  0
  2 81  1  0  0  0
  2 82  1  0  0  0
  3  4  1  0  0  0
  3 83  1  0  0  0
  3 84  1  0  0  0
  4  5  1  0  0  0
  4 85  1  0  0  0
  4 86  1  0  0  0
  5  6  1  0  0  0
  5 26  1  0  0  0
  5 87  1  0  0  0
  6 25  1  0  0  0
  6 88  1  0  0  0
  6 89  1  0  0  0
  7  8  2  0  0  0
  7 26  1  0  0  0
  7 29  1  0  0  0
  8  9  1  0  0  0
  8 22  1  0  0  0
  9 10  1  0  0  0
  9 27  2  0  0  0
 10 11  2  0  0  0
 10 15  1  0  0  0
 11 12  1  0  0  0
 11 90  1  0  0  0
 12 13  2  0  0  0
 12 91  1  0  0  0
 13 14  1  0  0  0
 13 31  1  0  0  0
 14 15  2  0  0  0
 14 92  1  0  0  0
 15 93  1  0  0  0
 16 17  2  0  0  0
 16 21  1  0  0  0
 16 31  1  0  0  0
 17 18  1  0  0  0
 17 94  1  0  0  0
 18 19  2  0  0  0
 18 95  1  0  0  0
 19 20  1  0  0  0
 19 24  1  0  0  0
 20 21  2  0  0  0
 20 96  1  0  0  0
 21 23  1  0  0  0
 22 28  1  0  0  0
 22 32  2  0  0  0
 26 27  1  0  0  0
 28 97  1  0  0  0
 28 98  1  0  0  0
 29 99  1  0  0  0
 29100  1  0  0  0
 33 34  1  0  0  0
 33 66  1  0  0  0
 33 70  2  0  0  0
 34 36  1  0  0  0
 34 59  1  0  0  0
 34101  1  0  0  0
 35 44  2  0  0  0
 35 45  1  0  0  0
 35 68  1  0  0  0
 36 56  1  0  0  0
 36102  1  0  0  0
 37 39  1  0  0  0
 37 47  1  0  0  0
 37 66  1  0  0  0
 37103  1  0  0  0
 38 43  2  0  0  0
 38 46  1  0  0  0
 38 47  1  0  0  0
 39 64  1  0  0  0
 39 67  2  0  0  0
 40 52  1  0  0  0
 40 53  2  0  0  0
 40 58  1  0  0  0
 41104  1  0  0  0
 41105  1  0  0  0
 41106  1  0  0  0
 41 48  1  0  0  0
 42 43  1  0  0  0
 42 66  1  0  0  0
 42107  1  0  0  0
 42108  1  0  0  0
 43 44  1  0  0  0
 44109  1  0  0  0
 45 46  2  0  0  0
 45110  1  0  0  0
 46111  1  0  0  0
 47112  1  0  0  0
 47113  1  0  0  0
 48 56  1  0  0  0
 48 65  1  0  0  0
 48114  1  0  0  0
 49 50  1  0  0  0
 49 53  1  0  0  0
 49 64  1  0  0  0
 49115  1  0  0  0
 50 51  1  0  0  0
 50116  1  0  0  0
 50117  1  0  0  0
 51 52  1  0  0  0
 51118  1  0  0  0
 51119  1  0  0  0
 52120  1  0  0  0
 52121  1  0  0  0
 53 54  1  0  0  0
 54 55  2  0  0  0
 54122  1  0  0  0
 55 57  1  0  0  0
 55123  1  0  0  0
 56 69  2  0  0  0
 57 58  2  0  0  0
 57124  1  0  0  0
 58125  1  0  0  0
 59 60  1  0  0  0
 59 61  1  0  0  0
 59 62  1  0  0  0
 60126  1  0  0  0
 60127  1  0  0  0
 60128  1  0  0  0
 61129  1  0  0  0
 61130  1  0  0  0
 61131  1  0  0  0
 62132  1  0  0  0
 62133  1  0  0  0
 62134  1  0  0  0
 63 65  1  0  0  0
 63135  1  0  0  0
 63136  1  0  0  0
 63137  1  0  0  0
 64138  1  0  0  0
 65139  1  0  0  0
 68 77  1  0  0  0
 71140  1  0  0  0
 71141  1  0  0  0
 71142  1  0  0  0
 71 78  1  0  0  0
 72143  1  0  0  0
 72144  1  0  0  0
 72145  1  0  0  0
 72 80  1  0  0  0
 73 77  1  0  0  0
 73 78  1  0  0  0
 73146  1  0  0  0
 73147  1  0  0  0
 74 75  1  0  0  0
 74 79  1  0  0  0
 74148  1  0  0  0
 74149  1  0  0  0
 75 80  1  0  0  0
 75150  1  0  0  0
 75151  1  0  0  0
 76 78  1  0  0  0
 76 80  1  0  0  0
 76152  1  0  0  0
 76153  1  0  0  0
 77154  1  0  0  0
 77155  1  0  0  0
 78156  1  0  0  0
 79157  1  0  0  0
 80158  1  0  0  0
M  CHG  1  80   1
M  ISO  4   1 100  68 101  77 101  79 100
M  END
> <chiral flag>
0

> <version>
0

> <s_m_source_file>
/data/baiqing/PycharmProjects/Reinvent-master-3.2/result/LINK_invent/BTK/process_docking_weight1_custom_sum_contain_oxygen_bond_distance_aromatic_linkinvent_7_9_3/rearranged_h_0108.sdf

> <i_m_source_file_index>
80

> <r_mmod_Potential_Energy-OPLS-2005>
4.7695460319519

> <r_mmod_Stretch_Energy-OPLS-2005>
104.594078063965

> <r_mmod_Bend_Energy-OPLS-2005>
163.767471313477

> <r_mmod_Torsional_Energy-OPLS-2005>
255.987609863281

> <r_mmod_Improper_Torsional_Energy-OPLS-2005>
4.29548692703247

> <r_mmod_Van_der_Waal_Energy-OPLS-2005>
130.192779541016

> <r_mmod_Electrostatic_Energy-OPLS-2005>
-248.310958862305

> <r_mmod_Solvation_Energy-OPLS-2005>
-464.451812744141

> <b_mmod_Minimization_Converged-OPLS-2005>
0

> <r_mmod_RMS_Derivative-OPLS-2005>
5.16909837722778

$$$$
80
                    3D
 Structure written by MMmdl.
163171  0  0  1  0            999 V2000
  -30.5226  -15.0155   20.3984 C   0  0  0  0  0  0
  -30.4398  -12.6357   19.4969 C   0  0  0  0  0  0
  -29.5233  -12.5317   18.2563 C   0  0  0  0  0  0
  -28.0578  -12.3125   18.6785 C   0  0  0  0  0  0
  -27.6241  -13.2529   19.8339 C   0  0  2  0  0  0
  -28.6675  -13.3199   20.9683 C   0  0  0  0  0  0
  -25.2450  -13.8158   20.5754 C   0  0  0  0  0  0
  -24.1762  -13.0392   20.9217 C   0  0  0  0  0  0
  -24.6399  -11.6890   20.8744 C   0  0  0  0  0  0
  -23.9088  -10.4272   21.0406 C   0  0  0  0  0  0
  -24.3636   -9.4195   21.9192 C   0  0  0  0  0  0
  -23.6304   -8.2236   22.0773 C   0  0  0  0  0  0
  -22.4282   -8.0281   21.3559 C   0  0  0  0  0  0
  -21.9920   -9.0250   20.4653 C   0  0  0  0  0  0
  -22.7255  -10.2123   20.3060 C   0  0  0  0  0  0
  -21.6855   -6.0739   22.5284 C   0  0  0  0  0  0
  -21.4018   -6.5639   23.8214 C   0  0  0  0  0  0
  -21.3649   -5.6794   24.9178 C   0  0  0  0  0  0
  -21.6045   -4.3056   24.7227 C   0  0  0  0  0  0
  -21.8823   -3.8152   23.4345 C   0  0  0  0  0  0
  -21.9195   -4.6968   22.3402 C   0  0  0  0  0  0
  -22.7788  -13.5173   21.1870 C   0  0  0  0  0  0
  -22.1667   -4.2152   21.0978 F   0  0  0  0  0  0
  -21.5628   -3.4535   25.7738 F   0  0  0  0  0  0
  -29.9295  -13.7494   20.3532 N   0  0  0  0  0  0
  -26.2878  -12.9423   20.3267 N   0  0  0  0  0  0
  -25.9336  -11.6542   20.5732 N   0  0  0  0  0  0
  -22.0429  -12.8167   22.0415 N   0  0  0  0  0  0
  -25.4137  -15.1870   20.4285 N   0  0  0  0  0  0
  -31.7367  -15.0550   20.1699 O   0  0  0  0  0  0
  -21.6647   -6.8883   21.4247 O   0  0  0  0  0  0
  -22.3482  -14.5485   20.6724 O   0  0  0  0  0  0
  -24.6480  -31.8391   23.1835 C   0  0  0  0  0  0
  -25.9238  -32.4662   23.8239 C   0  0  1  0  0  0
  -27.2197  -27.0960   20.1477 C   0  0  0  0  0  0
  -25.5968  -33.8472   24.2148 N   0  0  0  0  0  0
  -23.4526  -30.4551   21.5317 C   0  0  2  0  0  0
  -24.9026  -28.8733   20.1092 C   0  0  0  0  0  0
  -22.7581  -29.4516   22.4864 C   0  0  0  0  0  0
  -18.0303  -28.1387   22.8478 C   0  0  0  0  0  0
  -24.1498  -36.7238   23.2640 C   0  0  0  0  0  0
  -26.0121  -30.6977   21.3894 C   0  0  0  0  0  0
  -26.0816  -29.3062   20.7278 C   0  0  0  0  0  0
  -27.2404  -28.4346   20.7273 C   0  0  0  0  0  0
  -26.0140  -26.7733   19.4887 C   0  0  0  0  0  0
  -24.8838  -27.6221   19.4731 C   0  0  0  0  0  0
  -23.6783  -29.7767   20.1540 C   0  0  0  0  0  0
  -25.4137  -36.3010   24.0300 C   0  0  1  0  0  0
  -20.5914  -28.3711   23.1235 C   0  0  2  0  0  0
  -20.6779  -26.9412   22.5400 C   0  0  0  0  0  0
  -19.5754  -26.6374   21.5205 C   0  0  0  0  0  0
  -18.1936  -26.7930   22.1613 C   0  0  0  0  0  0
  -19.1559  -28.8870   23.2842 C   0  0  0  0  0  0
  -18.9470  -30.1470   23.8861 C   0  0  0  0  0  0
  -17.6464  -30.6587   24.0547 C   0  0  0  0  0  0
  -25.9086  -34.9384   23.5034 C   0  0  0  0  0  0
  -16.5357  -29.9063   23.6348 C   0  0  0  0  0  0
  -16.7285  -28.6481   23.0373 C   0  0  0  0  0  0
  -26.4543  -31.6554   25.0707 C   0  0  0  0  0  0
  -25.3712  -31.3763   26.1387 C   0  0  0  0  0  0
  -27.0415  -30.2935   24.6346 C   0  0  0  0  0  0
  -27.6047  -32.4348   25.7514 C   0  0  0  0  0  0
  -27.5580  -37.1776   24.8461 C   0  0  0  0  0  0
  -21.4272  -29.3027   22.3608 N   0  0  0  0  0  0
  -26.4296  -37.3728   23.9396 N   0  0  0  0  0  0
  -24.7243  -31.0203   22.0890 N   0  0  0  0  0  0
  -23.4200  -28.8077   23.3044 O   0  0  0  0  0  0
  -28.2663  -26.0915   20.2232 O   0  0  0  0  0  0
  -26.5680  -34.8891   22.4615 O   0  0  0  0  0  0
  -23.5585  -32.1293   23.7024 O   0  0  0  0  0  0
  -29.7637  -20.5570   20.6045 C   0  0  0  0  0  0
  -29.3635  -19.2247   20.2920 C   0  0  0  0  0  0
  -28.0937  -19.5159   19.6627 C   0  0  0  0  0  0
  -27.8716  -20.9039   19.5716 C   0  0  0  0  0  0
  -26.7515  -21.6530   18.9145 C   0  0  0  0  0  0
  -25.7468  -18.5542   19.7808 C   0  0  0  0  0  0
  -28.3599  -18.0131   17.0125 C   0  0  0  0  0  0
  -30.1881  -17.7658   20.5461 C   0  0  0  0  0  0
  -29.0630  -23.2375   20.3941 C   0  0  0  0  0  0
  -28.0301  -24.5460   19.9949 C   0  0  0  0  0  0
  -27.1480  -18.4356   19.1532 C   0  0  1  0  0  0
  -28.8818  -21.6406   20.2001 N   0  0  0  0  0  0
  -29.7562  -16.2283   20.4945 N   0  0  0  0  0  0
  -27.0967  -18.3977   17.6764 N   0  3  0  0  0  0
  -31.4709  -12.8013   19.1815 H   0  0  0  0  0  0
  -30.4466  -11.6953   20.0498 H   0  0  0  0  0  0
  -29.8507  -11.7172   17.6074 H   0  0  0  0  0  0
  -29.6036  -13.4457   17.6659 H   0  0  0  0  0  0
  -27.9613  -11.2732   18.9934 H   0  0  0  0  0  0
  -27.3948  -12.4325   17.8207 H   0  0  0  0  0  0
  -27.5712  -14.2466   19.3890 H   0  0  0  0  0  0
  -28.7717  -12.3562   21.4678 H   0  0  0  0  0  0
  -28.3567  -14.0331   21.7339 H   0  0  0  0  0  0
  -25.2782   -9.5660   22.4771 H   0  0  0  0  0  0
  -24.0000   -7.4622   22.7498 H   0  0  0  0  0  0
  -21.0860   -8.8762   19.8946 H   0  0  0  0  0  0
  -22.3726  -10.9662   19.6164 H   0  0  0  0  0  0
  -21.2008   -7.6151   23.9703 H   0  0  0  0  0  0
  -21.1473   -6.0539   25.9077 H   0  0  0  0  0  0
  -22.0610   -2.7614   23.2848 H   0  0  0  0  0  0
  -22.4050  -11.9829   22.4807 H   0  0  0  0  0  0
  -21.1040  -13.1199   22.2600 H   0  0  0  0  0  0
  -24.6562  -15.8407   20.5912 H   0  0  0  0  0  0
  -26.2847  -15.6247   20.1745 H   0  0  0  0  0  0
  -26.7303  -32.5247   23.0956 H   0  0  0  0  0  0
  -25.0095  -33.9587   25.0284 H   0  0  0  0  0  0
  -22.7570  -31.2818   21.3733 H   0  0  0  0  0  0
  -23.3767  -35.9562   23.3281 H   0  0  0  0  0  0
  -24.3578  -36.8904   22.2059 H   0  0  0  0  0  0
  -23.7245  -37.6418   23.6706 H   0  0  0  0  0  0
  -26.1780  -31.4520   20.6190 H   0  0  0  0  0  0
  -26.8776  -30.7436   22.0385 H   0  0  0  0  0  0
  -28.1394  -28.7618   21.2299 H   0  0  0  0  0  0
  -25.9114  -25.8169   18.9983 H   0  0  0  0  0  0
  -23.9839  -27.2865   18.9768 H   0  0  0  0  0  0
  -23.8055  -30.5461   19.3921 H   0  0  0  0  0  0
  -22.7938  -29.2130   19.8532 H   0  0  0  0  0  0
  -25.1332  -36.1825   25.0794 H   0  0  0  0  0  0
  -20.9998  -28.3288   24.1359 H   0  0  0  0  0  0
  -20.5672  -26.2315   23.3613 H   0  0  0  0  0  0
  -21.6645  -26.7413   22.1200 H   0  0  0  0  0  0
  -19.6914  -25.6280   21.1247 H   0  0  0  0  0  0
  -19.6695  -27.3174   20.6730 H   0  0  0  0  0  0
  -17.4209  -26.6686   21.4011 H   0  0  0  0  0  0
  -18.0324  -26.0072   22.9008 H   0  0  0  0  0  0
  -19.7941  -30.7302   24.2204 H   0  0  0  0  0  0
  -17.5010  -31.6270   24.5137 H   0  0  0  0  0  0
  -15.5352  -30.2939   23.7705 H   0  0  0  0  0  0
  -15.8687  -28.0780   22.7118 H   0  0  0  0  0  0
  -24.5893  -30.7119   25.7693 H   0  0  0  0  0  0
  -24.8906  -32.2956   26.4748 H   0  0  0  0  0  0
  -25.7977  -30.8968   27.0206 H   0  0  0  0  0  0
  -26.3048  -29.6644   24.1338 H   0  0  0  0  0  0
  -27.3967  -29.7259   25.4955 H   0  0  0  0  0  0
  -27.8984  -30.4128   23.9712 H   0  0  0  0  0  0
  -27.2610  -33.3667   26.2015 H   0  0  0  0  0  0
  -28.3908  -32.6887   25.0392 H   0  0  0  0  0  0
  -28.0665  -31.8536   26.5503 H   0  0  0  0  0  0
  -28.2573  -38.0096   24.7523 H   0  0  0  0  0  0
  -28.1104  -36.2621   24.6282 H   0  0  0  0  0  0
  -27.2293  -37.1411   25.8863 H   0  0  0  0  0  0
  -20.9493  -29.8713   21.6761 H   0  0  0  0  0  0
  -26.0152  -38.2792   24.1399 H   0  0  0  0  0  0
  -30.6779  -20.8481   21.1066 H   0  0  0  0  0  0
  -26.1845  -21.0293   18.2267 H   0  0  0  0  0  0
  -27.1312  -22.4757   18.3115 H   0  0  0  0  0  0
  -26.0606  -22.0550   19.6553 H   0  0  0  0  0  0
  -25.8072  -18.4912   20.8676 H   0  0  0  0  0  0
  -25.0902  -17.7528   19.4465 H   0  0  0  0  0  0
  -25.2462  -19.4896   19.5424 H   0  0  0  0  0  0
  -28.2101  -17.9565   15.9337 H   0  0  0  0  0  0
  -28.7061  -17.0359   17.3517 H   0  0  0  0  0  0
  -29.1496  -18.7406   17.2018 H   0  0  0  0  0  0
  -30.6193  -17.8773   21.5418 H   0  0  0  0  0  0
  -31.0487  -17.8324   19.8801 H   0  0  0  0  0  0
  -29.2737  -23.3620   21.4556 H   0  0  0  0  0  0
  -30.0113  -23.4672   19.9085 H   0  0  0  0  0  0
  -27.0696  -24.3199   20.4577 H   0  0  0  0  0  0
  -27.8558  -24.4737   18.9221 H   0  0  0  0  0  0
  -27.5412  -17.4730   19.4744 H   0  0  0  0  0  0
  -28.7765  -16.0626   20.6533 H   0  0  0  0  0  0
  -26.3927  -17.7322   17.4010 H   0  0  0  0  0  0
  -26.8147  -19.2989   17.3298 H   0  0  0  0  0  0
  1 25  1  0  0  0
  1 30  2  0  0  0
  1 83  1  0  0  0
  2  3  1  0  0  0
  2 25  1  0  0  0
  2 85  1  0  0  0
  2 86  1  0  0  0
  3  4  1  0  0  0
  3 87  1  0  0  0
  3 88  1  0  0  0
  4  5  1  0  0  0
  4 89  1  0  0  0
  4 90  1  0  0  0
  5  6  1  0  0  0
  5 26  1  0  0  0
  5 91  1  0  0  0
  6 25  1  0  0  0
  6 92  1  0  0  0
  6 93  1  0  0  0
  7  8  2  0  0  0
  7 26  1  0  0  0
  7 29  1  0  0  0
  8  9  1  0  0  0
  8 22  1  0  0  0
  9 10  1  0  0  0
  9 27  2  0  0  0
 10 11  2  0  0  0
 10 15  1  0  0  0
 11 12  1  0  0  0
 11 94  1  0  0  0
 12 13  2  0  0  0
 12 95  1  0  0  0
 13 14  1  0  0  0
 13 31  1  0  0  0
 14 15  2  0  0  0
 14 96  1  0  0  0
 15 97  1  0  0  0
 16 17  2  0  0  0
 16 21  1  0  0  0
 16 31  1  0  0  0
 17 18  1  0  0  0
 17 98  1  0  0  0
 18 19  2  0  0  0
 18 99  1  0  0  0
 19 20  1  0  0  0
 19 24  1  0  0  0
 20 21  2  0  0  0
 20100  1  0  0  0
 21 23  1  0  0  0
 22 28  1  0  0  0
 22 32  2  0  0  0
 26 27  1  0  0  0
 28101  1  0  0  0
 28102  1  0  0  0
 29103  1  0  0  0
 29104  1  0  0  0
 33 34  1  0  0  0
 33 66  1  0  0  0
 33 70  2  0  0  0
 34 36  1  0  0  0
 34 59  1  0  0  0
 34105  1  0  0  0
 35 44  2  0  0  0
 35 45  1  0  0  0
 35 68  1  0  0  0
 36 56  1  0  0  0
 36106  1  0  0  0
 37 39  1  0  0  0
 37 47  1  0  0  0
 37 66  1  0  0  0
 37107  1  0  0  0
 38 43  2  0  0  0
 38 46  1  0  0  0
 38 47  1  0  0  0
 39 64  1  0  0  0
 39 67  2  0  0  0
 40 52  1  0  0  0
 40 53  2  0  0  0
 40 58  1  0  0  0
 41108  1  0  0  0
 41109  1  0  0  0
 41110  1  0  0  0
 41 48  1  0  0  0
 42 43  1  0  0  0
 42 66  1  0  0  0
 42111  1  0  0  0
 42112  1  0  0  0
 43 44  1  0  0  0
 44113  1  0  0  0
 45 46  2  0  0  0
 45114  1  0  0  0
 46115  1  0  0  0
 47116  1  0  0  0
 47117  1  0  0  0
 48 56  1  0  0  0
 48 65  1  0  0  0
 48118  1  0  0  0
 49 50  1  0  0  0
 49 53  1  0  0  0
 49 64  1  0  0  0
 49119  1  0  0  0
 50 51  1  0  0  0
 50120  1  0  0  0
 50121  1  0  0  0
 51 52  1  0  0  0
 51122  1  0  0  0
 51123  1  0  0  0
 52124  1  0  0  0
 52125  1  0  0  0
 53 54  1  0  0  0
 54 55  2  0  0  0
 54126  1  0  0  0
 55 57  1  0  0  0
 55127  1  0  0  0
 56 69  2  0  0  0
 57 58  2  0  0  0
 57128  1  0  0  0
 58129  1  0  0  0
 59 60  1  0  0  0
 59 61  1  0  0  0
 59 62  1  0  0  0
 60130  1  0  0  0
 60131  1  0  0  0
 60132  1  0  0  0
 61133  1  0  0  0
 61134  1  0  0  0
 61135  1  0  0  0
 62136  1  0  0  0
 62137  1  0  0  0
 62138  1  0  0  0
 63 65  1  0  0  0
 63139  1  0  0  0
 63140  1  0  0  0
 63141  1  0  0  0
 64142  1  0  0  0
 65143  1  0  0  0
 68 80  1  0  0  0
 71 72  2  0  0  0
 71 82  1  0  0  0
 71144  1  0  0  0
 72 73  1  0  0  0
 72 78  1  0  0  0
 73 74  2  0  0  0
 73 81  1  0  0  0
 74 75  1  0  0  0
 74 82  1  0  0  0
 75145  1  0  0  0
 75146  1  0  0  0
 75147  1  0  0  0
 76148  1  0  0  0
 76149  1  0  0  0
 76150  1  0  0  0
 76 81  1  0  0  0
 77 84  1  0  0  0
 77151  1  0  0  0
 77152  1  0  0  0
 77153  1  0  0  0
 78 83  1  0  0  0
 78154  1  0  0  0
 78155  1  0  0  0
 79 80  1  0  0  0
 79 82  1  0  0  0
 79156  1  0  0  0
 79157  1  0  0  0
 80158  1  0  0  0
 80159  1  0  0  0
 81 84  1  0  0  0
 81160  1  0  0  0
 83161  1  0  0  0
 84162  1  0  0  0
 84163  1  0  0  0
M  CHG  1  84   1
M  ISO  4   1 100  68 101  80 101  83 100
M  END
> <chiral flag>
0

> <version>
0

> <s_m_source_file>
/data/baiqing/PycharmProjects/Reinvent-master-3.2/result/LINK_invent/BTK/process_docking_weight1_custom_sum_contain_oxygen_bond_distance_aromatic_linkinvent_7_9_3/rearranged_h_0108.sdf

> <i_m_source_file_index>
81

> <r_mmod_Potential_Energy-OPLS-2005>
353.817565917969

> <r_mmod_Stretch_Energy-OPLS-2005>
309.1396484375

> <r_mmod_Bend_Energy-OPLS-2005>
303.388610839844

> <r_mmod_Torsional_Energy-OPLS-2005>
208.224365234375

> <r_mmod_Improper_Torsional_Energy-OPLS-2005>
4.17718362808228

> <r_mmod_Van_der_Waal_Energy-OPLS-2005>
99.7721939086914

> <r_mmod_Electrostatic_Energy-OPLS-2005>
-335.037811279297

> <r_mmod_Solvation_Energy-OPLS-2005>
-473.341339111328

> <b_mmod_Minimization_Converged-OPLS-2005>
0

> <r_mmod_RMS_Derivative-OPLS-2005>
1.84048819541931

$$$$
81
                    3D
 Structure written by MMmdl.
163171  0  0  1  0            999 V2000
  -30.2678  -15.6961   20.3306 C   0  0  0  0  0  0
  -30.4246  -13.1325   19.5284 C   0  0  0  0  0  0
  -29.5533  -12.6768   18.3233 C   0  0  0  0  0  0
  -28.1285  -12.3060   18.7616 C   0  0  0  0  0  0
  -27.5900  -13.3155   19.7976 C   0  0  2  0  0  0
  -28.6038  -13.6815   20.9051 C   0  0  0  0  0  0
  -25.2304  -13.8300   20.5791 C   0  0  0  0  0  0
  -24.1723  -13.0455   20.9305 C   0  0  0  0  0  0
  -24.6452  -11.6976   20.8785 C   0  0  0  0  0  0
  -23.9168  -10.4323   21.0420 C   0  0  0  0  0  0
  -24.3663   -9.4220   21.9212 C   0  0  0  0  0  0
  -23.6317   -8.2273   22.0785 C   0  0  0  0  0  0
  -22.4296   -8.0326   21.3582 C   0  0  0  0  0  0
  -21.9969   -9.0319   20.4668 C   0  0  0  0  0  0
  -22.7325  -10.2186   20.3081 C   0  0  0  0  0  0
  -21.6851   -6.0771   22.5266 C   0  0  0  0  0  0
  -21.4017   -6.5670   23.8196 C   0  0  0  0  0  0
  -21.3656   -5.6828   24.9154 C   0  0  0  0  0  0
  -21.6033   -4.3083   24.7212 C   0  0  0  0  0  0
  -21.8800   -3.8185   23.4331 C   0  0  0  0  0  0
  -21.9211   -4.6999   22.3387 C   0  0  0  0  0  0
  -22.7724  -13.5151   21.1953 C   0  0  0  0  0  0
  -22.1671   -4.2179   21.0969 F   0  0  0  0  0  0
  -21.5632   -3.4576   25.7735 F   0  0  0  0  0  0
  -29.7609  -14.3211   20.2333 N   0  0  0  0  0  0
  -26.2761  -12.9656   20.3170 N   0  0  0  0  0  0
  -25.9379  -11.6717   20.5646 N   0  0  0  0  0  0
  -22.0368  -12.8128   22.0478 N   0  0  0  0  0  0
  -25.3848  -15.2059   20.4262 N   0  0  0  0  0  0
  -31.5119  -15.6302   20.2867 O   0  0  0  0  0  0
  -21.6648   -6.8928   21.4243 O   0  0  0  0  0  0
  -22.3390  -14.5447   20.6790 O   0  0  0  0  0  0
  -24.6889  -31.7930   23.1459 C   0  0  0  0  0  0
  -25.9451  -32.4415   23.8045 C   0  0  1  0  0  0
  -27.2101  -26.6577   20.2202 C   0  0  0  0  0  0
  -25.6040  -33.8248   24.1930 N   0  0  0  0  0  0
  -23.5142  -30.3950   21.4996 C   0  0  2  0  0  0
  -24.9694  -28.7310   20.1155 C   0  0  0  0  0  0
  -22.7782  -29.4293   22.4651 C   0  0  0  0  0  0
  -18.0336  -28.1428   22.8441 C   0  0  0  0  0  0
  -24.1487  -36.7137   23.2650 C   0  0  0  0  0  0
  -26.0980  -30.5131   21.4130 C   0  0  0  0  0  0
  -26.1620  -29.0759   20.7648 C   0  0  0  0  0  0
  -27.2729  -28.0696   20.7721 C   0  0  0  0  0  0
  -25.9829  -26.5279   19.5185 C   0  0  0  0  0  0
  -24.9237  -27.4858   19.4667 C   0  0  0  0  0  0
  -23.7672  -29.6932   20.1358 C   0  0  0  0  0  0
  -25.4134  -36.2852   24.0253 C   0  0  1  0  0  0
  -20.5983  -28.3778   23.1108 C   0  0  2  0  0  0
  -20.6795  -26.9421   22.5405 C   0  0  0  0  0  0
  -19.5784  -26.6381   21.5190 C   0  0  0  0  0  0
  -18.1951  -26.7951   22.1593 C   0  0  0  0  0  0
  -19.1603  -28.8916   23.2749 C   0  0  0  0  0  0
  -18.9528  -30.1506   23.8785 C   0  0  0  0  0  0
  -17.6512  -30.6593   24.0531 C   0  0  0  0  0  0
  -25.9152  -34.9250   23.4942 C   0  0  0  0  0  0
  -16.5394  -29.9095   23.6346 C   0  0  0  0  0  0
  -16.7311  -28.6527   23.0349 C   0  0  0  0  0  0
  -26.4621  -31.6466   25.0672 C   0  0  0  0  0  0
  -25.3680  -31.3804   26.1299 C   0  0  0  0  0  0
  -27.0547  -30.2773   24.6633 C   0  0  0  0  0  0
  -27.6031  -32.4375   25.7493 C   0  0  0  0  0  0
  -27.5537  -37.1719   24.8455 C   0  0  0  0  0  0
  -21.4425  -29.3017   22.3401 N   0  0  0  0  0  0
  -26.4247  -37.3616   23.9409 N   0  0  0  0  0  0
  -24.7911  -30.9332   22.0723 N   0  0  0  0  0  0
  -23.4217  -28.7895   23.2998 O   0  0  0  0  0  0
  -28.1718  -25.4268   20.2413 O   0  0  0  0  0  0
  -26.5769  -34.8831   22.4549 O   0  0  0  0  0  0
  -23.5907  -32.1059   23.6358 O   0  0  0  0  0  0
  -30.3969  -20.5323   19.0667 C   0  0  0  0  0  0
  -29.3113  -20.5846   19.9779 C   0  0  0  0  0  0
  -30.6209  -21.7070   18.4400 C   0  0  0  0  0  0
  -28.8949  -22.1420   19.9054 C   0  0  0  0  0  0
  -31.7521  -22.0349   17.5105 C   0  0  0  0  0  0
  -27.0215  -21.9241   16.8355 C   0  0  0  0  0  0
  -27.4953  -22.9068   14.5460 C   0  0  0  0  0  0
  -29.2998  -18.8108   20.6861 C   0  0  0  0  0  0
  -27.9345  -23.6746   20.4272 C   0  0  0  0  0  0
  -29.0532  -23.4553   16.4323 C   0  0  0  0  0  0
  -29.3224  -23.7723   17.9151 C   0  0  0  0  0  0
  -27.5891  -23.1283   16.0659 C   0  0  0  0  0  0
  -29.5766  -22.5623   18.7340 N   0  0  0  0  0  0
  -29.4745  -17.0562   20.2744 N   0  0  0  0  0  0
  -31.4043  -13.4187   19.1444 H   0  0  0  0  0  0
  -30.6208  -12.3108   20.2227 H   0  0  0  0  0  0
  -30.0245  -11.8471   17.7954 H   0  0  0  0  0  0
  -29.5018  -13.5022   17.6133 H   0  0  0  0  0  0
  -28.1524  -11.3055   19.1967 H   0  0  0  0  0  0
  -27.4669  -12.2570   17.8964 H   0  0  0  0  0  0
  -27.4390  -14.2236   19.2147 H   0  0  0  0  0  0
  -28.8772  -12.8130   21.5055 H   0  0  0  0  0  0
  -28.1527  -14.4025   21.5879 H   0  0  0  0  0  0
  -25.2772   -9.5707   22.4837 H   0  0  0  0  0  0
  -24.0013   -7.4656   22.7498 H   0  0  0  0  0  0
  -21.0918   -8.8873   19.8945 H   0  0  0  0  0  0
  -22.3791  -10.9760   19.6223 H   0  0  0  0  0  0
  -21.2004   -7.6180   23.9709 H   0  0  0  0  0  0
  -21.1481   -6.0555   25.9054 H   0  0  0  0  0  0
  -22.0588   -2.7646   23.2806 H   0  0  0  0  0  0
  -22.3971  -11.9764   22.4842 H   0  0  0  0  0  0
  -21.0974  -13.1170   22.2662 H   0  0  0  0  0  0
  -24.6158  -15.8524   20.5648 H   0  0  0  0  0  0
  -26.2280  -15.6602   20.1051 H   0  0  0  0  0  0
  -26.7520  -32.4860   23.0748 H   0  0  0  0  0  0
  -25.0062  -33.9290   25.0001 H   0  0  0  0  0  0
  -22.8403  -31.2315   21.3110 H   0  0  0  0  0  0
  -23.3752  -35.9455   23.3250 H   0  0  0  0  0  0
  -24.3542  -36.8869   22.2080 H   0  0  0  0  0  0
  -23.7279  -37.6304   23.6793 H   0  0  0  0  0  0
  -26.3011  -31.2353   20.6192 H   0  0  0  0  0  0
  -26.9470  -30.5861   22.0785 H   0  0  0  0  0  0
  -28.1783  -28.3447   21.2912 H   0  0  0  0  0  0
  -25.8021  -25.5882   19.0142 H   0  0  0  0  0  0
  -24.0302  -27.2184   18.9189 H   0  0  0  0  0  0
  -23.9426  -30.4570   19.3769 H   0  0  0  0  0  0
  -22.8720  -29.1617   19.8071 H   0  0  0  0  0  0
  -25.1342  -36.1568   25.0716 H   0  0  0  0  0  0
  -21.0038  -28.3426   24.1256 H   0  0  0  0  0  0
  -20.5623  -26.2389   23.3671 H   0  0  0  0  0  0
  -21.6653  -26.7333   22.1225 H   0  0  0  0  0  0
  -19.6925  -25.6281   21.1278 H   0  0  0  0  0  0
  -19.6752  -27.3114   20.6652 H   0  0  0  0  0  0
  -17.4228  -26.6653   21.4012 H   0  0  0  0  0  0
  -18.0356  -26.0117   22.9023 H   0  0  0  0  0  0
  -19.8001  -30.7331   24.2128 H   0  0  0  0  0  0
  -17.5076  -31.6268   24.5170 H   0  0  0  0  0  0
  -15.5404  -30.2962   23.7743 H   0  0  0  0  0  0
  -15.8709  -28.0822   22.7101 H   0  0  0  0  0  0
  -24.5888  -30.7103   25.7657 H   0  0  0  0  0  0
  -24.8853  -32.3033   26.4526 H   0  0  0  0  0  0
  -25.7879  -30.9154   27.0229 H   0  0  0  0  0  0
  -26.3271  -29.6383   24.1626 H   0  0  0  0  0  0
  -27.3914  -29.7221   25.5413 H   0  0  0  0  0  0
  -27.9269  -30.3839   24.0169 H   0  0  0  0  0  0
  -27.2511  -33.3749   26.1809 H   0  0  0  0  0  0
  -28.3960  -32.6835   25.0416 H   0  0  0  0  0  0
  -28.0559  -31.8717   26.5650 H   0  0  0  0  0  0
  -28.2496  -38.0060   24.7476 H   0  0  0  0  0  0
  -28.1106  -36.2596   24.6308 H   0  0  0  0  0  0
  -27.2270  -37.1337   25.8858 H   0  0  0  0  0  0
  -20.9718  -29.8734   21.6511 H   0  0  0  0  0  0
  -26.0062  -38.2625   24.1494 H   0  0  0  0  0  0
  -31.0115  -19.6586   18.9018 H   0  0  0  0  0  0
  -32.6842  -21.6327   17.9114 H   0  0  0  0  0  0
  -31.8970  -23.1056   17.3851 H   0  0  0  0  0  0
  -31.6028  -21.5882   16.5284 H   0  0  0  0  0  0
  -26.0373  -21.6459   16.4604 H   0  0  0  0  0  0
  -26.8948  -22.1542   17.8934 H   0  0  0  0  0  0
  -27.6737  -21.0529   16.7599 H   0  0  0  0  0  0
  -26.4765  -22.6798   14.2264 H   0  0  0  0  0  0
  -28.1361  -22.0809   14.2353 H   0  0  0  0  0  0
  -27.8215  -23.7976   14.0035 H   0  0  0  0  0  0
  -28.3710  -18.8135   21.2594 H   0  0  0  0  0  0
  -30.0645  -18.9078   21.4561 H   0  0  0  0  0  0
  -26.9453  -23.5414   19.9861 H   0  0  0  0  0  0
  -27.7391  -23.5593   21.4930 H   0  0  0  0  0  0
  -29.6928  -22.6528   16.0779 H   0  0  0  0  0  0
  -29.3496  -24.3329   15.8592 H   0  0  0  0  0  0
  -28.4398  -24.3237   18.2114 H   0  0  0  0  0  0
  -30.1630  -24.4577   18.0219 H   0  0  0  0  0  0
  -26.9644  -23.9873   16.3148 H   0  0  0  0  0  0
  -28.5383  -16.7572   20.0374 H   0  0  0  0  0  0
  1 25  1  0  0  0
  1 30  2  0  0  0
  1 84  1  0  0  0
  2  3  1  0  0  0
  2 25  1  0  0  0
  2 85  1  0  0  0
  2 86  1  0  0  0
  3  4  1  0  0  0
  3 87  1  0  0  0
  3 88  1  0  0  0
  4  5  1  0  0  0
  4 89  1  0  0  0
  4 90  1  0  0  0
  5  6  1  0  0  0
  5 26  1  0  0  0
  5 91  1  0  0  0
  6 25  1  0  0  0
  6 92  1  0  0  0
  6 93  1  0  0  0
  7  8  2  0  0  0
  7 26  1  0  0  0
  7 29  1  0  0  0
  8  9  1  0  0  0
  8 22  1  0  0  0
  9 10  1  0  0  0
  9 27  2  0  0  0
 10 11  2  0  0  0
 10 15  1  0  0  0
 11 12  1  0  0  0
 11 94  1  0  0  0
 12 13  2  0  0  0
 12 95  1  0  0  0
 13 14  1  0  0  0
 13 31  1  0  0  0
 14 15  2  0  0  0
 14 96  1  0  0  0
 15 97  1  0  0  0
 16 17  2  0  0  0
 16 21  1  0  0  0
 16 31  1  0  0  0
 17 18  1  0  0  0
 17 98  1  0  0  0
 18 19  2  0  0  0
 18 99  1  0  0  0
 19 20  1  0  0  0
 19 24  1  0  0  0
 20 21  2  0  0  0
 20100  1  0  0  0
 21 23  1  0  0  0
 22 28  1  0  0  0
 22 32  2  0  0  0
 26 27  1  0  0  0
 28101  1  0  0  0
 28102  1  0  0  0
 29103  1  0  0  0
 29104  1  0  0  0
 33 34  1  0  0  0
 33 66  1  0  0  0
 33 70  2  0  0  0
 34 36  1  0  0  0
 34 59  1  0  0  0
 34105  1  0  0  0
 35 44  2  0  0  0
 35 45  1  0  0  0
 35 68  1  0  0  0
 36 56  1  0  0  0
 36106  1  0  0  0
 37 39  1  0  0  0
 37 47  1  0  0  0
 37 66  1  0  0  0
 37107  1  0  0  0
 38 43  2  0  0  0
 38 46  1  0  0  0
 38 47  1  0  0  0
 39 64  1  0  0  0
 39 67  2  0  0  0
 40 52  1  0  0  0
 40 53  2  0  0  0
 40 58  1  0  0  0
 41108  1  0  0  0
 41109  1  0  0  0
 41110  1  0  0  0
 41 48  1  0  0  0
 42 43  1  0  0  0
 42 66  1  0  0  0
 42111  1  0  0  0
 42112  1  0  0  0
 43 44  1  0  0  0
 44113  1  0  0  0
 45 46  2  0  0  0
 45114  1  0  0  0
 46115  1  0  0  0
 47116  1  0  0  0
 47117  1  0  0  0
 48 56  1  0  0  0
 48 65  1  0  0  0
 48118  1  0  0  0
 49 50  1  0  0  0
 49 53  1  0  0  0
 49 64  1  0  0  0
 49119  1  0  0  0
 50 51  1  0  0  0
 50120  1  0  0  0
 50121  1  0  0  0
 51 52  1  0  0  0
 51122  1  0  0  0
 51123  1  0  0  0
 52124  1  0  0  0
 52125  1  0  0  0
 53 54  1  0  0  0
 54 55  2  0  0  0
 54126  1  0  0  0
 55 57  1  0  0  0
 55127  1  0  0  0
 56 69  2  0  0  0
 57 58  2  0  0  0
 57128  1  0  0  0
 58129  1  0  0  0
 59 60  1  0  0  0
 59 61  1  0  0  0
 59 62  1  0  0  0
 60130  1  0  0  0
 60131  1  0  0  0
 60132  1  0  0  0
 61133  1  0  0  0
 61134  1  0  0  0
 61135  1  0  0  0
 62136  1  0  0  0
 62137  1  0  0  0
 62138  1  0  0  0
 63 65  1  0  0  0
 63139  1  0  0  0
 63140  1  0  0  0
 63141  1  0  0  0
 64142  1  0  0  0
 65143  1  0  0  0
 68 79  1  0  0  0
 71 72  1  0  0  0
 71 73  2  0  0  0
 71144  1  0  0  0
 72 74  2  0  0  0
 72 78  1  0  0  0
 73 75  1  0  0  0
 73 83  1  0  0  0
 74 79  1  0  0  0
 74 83  1  0  0  0
 75145  1  0  0  0
 75146  1  0  0  0
 75147  1  0  0  0
 76148  1  0  0  0
 76149  1  0  0  0
 76150  1  0  0  0
 76 82  1  0  0  0
 77 82  1  0  0  0
 77151  1  0  0  0
 77152  1  0  0  0
 77153  1  0  0  0
 78 84  1  0  0  0
 78154  1  0  0  0
 78155  1  0  0  0
 79156  1  0  0  0
 79157  1  0  0  0
 80 81  1  0  0  0
 80 82  1  0  0  0
 80158  1  0  0  0
 80159  1  0  0  0
 81 83  1  0  0  0
 81160  1  0  0  0
 81161  1  0  0  0
 82162  1  0  0  0
 84163  1  0  0  0
M  ISO  4   1 100  68 101  79 101  84 100
M  END
> <chiral flag>
0

> <version>
0

> <s_m_source_file>
/data/baiqing/PycharmProjects/Reinvent-master-3.2/result/LINK_invent/BTK/process_docking_weight1_custom_sum_contain_oxygen_bond_distance_aromatic_linkinvent_7_9_3/rearranged_h_0108.sdf

> <i_m_source_file_index>
82

> <r_mmod_Potential_Energy-OPLS-2005>
2801.23901367188

> <r_mmod_Stretch_Energy-OPLS-2005>
1233.82177734375

> <r_mmod_Bend_Energy-OPLS-2005>
755.660522460938

> <r_mmod_Torsional_Energy-OPLS-2005>
278.702423095703

> <r_mmod_Improper_Torsional_Energy-OPLS-2005>
6.9675178527832

> <r_mmod_Van_der_Waal_Energy-OPLS-2005>
119.553672790527

> <r_mmod_Electrostatic_Energy-OPLS-2005>
-378.983306884766

> <r_mmod_Solvation_Energy-OPLS-2005>
-217.232376098633

> <b_mmod_Minimization_Converged-OPLS-2005>
0

> <r_mmod_RMS_Derivative-OPLS-2005>
5.09654188156128

$$$$
82
                    3D
 Structure written by MMmdl.
172180  0  0  1  0            999 V2000
  -30.6592  -14.5635   20.4865 C   0  0  0  0  0  0
  -30.4172  -12.3367   19.4531 C   0  0  0  0  0  0
  -29.4988  -12.4826   18.2215 C   0  0  0  0  0  0
  -28.0207  -12.3372   18.6325 C   0  0  0  0  0  0
  -27.6504  -13.2123   19.8610 C   0  0  2  0  0  0
  -28.6903  -13.0693   20.9949 C   0  0  0  0  0  0
  -25.2561  -13.8174   20.5697 C   0  0  0  0  0  0
  -24.1817  -13.0447   20.9195 C   0  0  0  0  0  0
  -24.6366  -11.6916   20.8726 C   0  0  0  0  0  0
  -23.9040  -10.4299   21.0398 C   0  0  0  0  0  0
  -24.3600   -9.4219   21.9179 C   0  0  0  0  0  0
  -23.6287   -8.2252   22.0747 C   0  0  0  0  0  0
  -22.4270   -8.0279   21.3537 C   0  0  0  0  0  0
  -21.9899   -9.0242   20.4634 C   0  0  0  0  0  0
  -22.7221  -10.2134   20.3045 C   0  0  0  0  0  0
  -21.6852   -6.0733   22.5282 C   0  0  0  0  0  0
  -21.4009   -6.5639   23.8215 C   0  0  0  0  0  0
  -21.3660   -5.6789   24.9176 C   0  0  0  0  0  0
  -21.6046   -4.3051   24.7223 C   0  0  0  0  0  0
  -21.8814   -3.8147   23.4342 C   0  0  0  0  0  0
  -21.9194   -4.6963   22.3404 C   0  0  0  0  0  0
  -22.7844  -13.5247   21.1868 C   0  0  0  0  0  0
  -22.1661   -4.2155   21.0976 F   0  0  0  0  0  0
  -21.5632   -3.4533   25.7732 F   0  0  0  0  0  0
  -30.0107  -13.3654   20.4274 N   0  0  0  0  0  0
  -26.2965  -12.9346   20.3318 N   0  0  0  0  0  0
  -25.9296  -11.6505   20.5752 N   0  0  0  0  0  0
  -22.0482  -12.8218   22.0409 N   0  0  0  0  0  0
  -25.4295  -15.1889   20.4126 N   0  0  0  0  0  0
  -31.8316  -14.6853   20.1234 O   0  0  0  0  0  0
  -21.6636   -6.8874   21.4238 O   0  0  0  0  0  0
  -22.3532  -14.5561   20.6728 O   0  0  0  0  0  0
  -24.6150  -31.8656   23.2085 C   0  0  0  0  0  0
  -25.9034  -32.4837   23.8371 C   0  0  1  0  0  0
  -27.2216  -27.3898   20.0996 C   0  0  0  0  0  0
  -25.5886  -33.8629   24.2309 N   0  0  0  0  0  0
  -23.4040  -30.4908   21.5475 C   0  0  2  0  0  0
  -24.8493  -28.9463   20.1163 C   0  0  0  0  0  0
  -22.7407  -29.4654   22.4967 C   0  0  0  0  0  0
  -18.0261  -28.1354   22.8480 C   0  0  0  0  0  0
  -24.1491  -36.7297   23.2656 C   0  0  0  0  0  0
  -25.9389  -30.8184   21.3635 C   0  0  0  0  0  0
  -26.0130  -29.4477   20.7115 C   0  0  0  0  0  0
  -27.2050  -28.6791   20.6923 C   0  0  0  0  0  0
  -26.0377  -26.9071   19.5051 C   0  0  0  0  0  0
  -24.8578  -27.6779   19.5103 C   0  0  0  0  0  0
  -23.6146  -29.8220   20.1630 C   0  0  0  0  0  0
  -25.4110  -36.3121   24.0353 C   0  0  1  0  0  0
  -20.5858  -28.3649   23.1313 C   0  0  2  0  0  0
  -20.6769  -26.9383   22.5410 C   0  0  0  0  0  0
  -19.5756  -26.6362   21.5218 C   0  0  0  0  0  0
  -18.1928  -26.7901   22.1605 C   0  0  0  0  0  0
  -19.1519  -28.8813   23.2901 C   0  0  0  0  0  0
  -18.9456  -30.1420   23.8903 C   0  0  0  0  0  0
  -17.6475  -30.6578   24.0559 C   0  0  0  0  0  0
  -25.9035  -34.9490   23.5126 C   0  0  0  0  0  0
  -16.5362  -29.9085   23.6327 C   0  0  0  0  0  0
  -16.7250  -28.6501   23.0341 C   0  0  0  0  0  0
  -26.4450  -31.6625   25.0703 C   0  0  0  0  0  0
  -25.3713  -31.3704   26.1458 C   0  0  0  0  0  0
  -27.0279  -30.3085   24.6044 C   0  0  0  0  0  0
  -27.6027  -32.4338   25.7450 C   0  0  0  0  0  0
  -27.5578  -37.1811   24.8470 C   0  0  0  0  0  0
  -21.4129  -29.3038   22.3726 N   0  0  0  0  0  0
  -26.4294  -37.3806   23.9427 N   0  0  0  0  0  0
  -24.6726  -31.0743   22.0976 N   0  0  0  0  0  0
  -23.4191  -28.8181   23.2998 O   0  0  0  0  0  0
  -28.3812  -26.6373   20.0649 O   0  0  0  0  0  0
  -26.5598  -34.8945   22.4696 O   0  0  0  0  0  0
  -23.5342  -32.1395   23.7485 O   0  0  0  0  0  0
  -29.1786  -19.3732   20.0033 C   0  0  0  0  0  0
  -28.3256  -19.7681   22.0089 C   0  0  0  0  0  0
  -29.4667  -18.2561   20.7701 C   0  0  0  0  0  0
  -28.9269  -18.5317   22.0707 C   0  0  0  0  0  0
  -26.6274  -16.8391   23.5070 C   0  0  0  0  0  0
  -30.2414  -18.1709   24.1608 C   0  0  0  0  0  0
  -30.2443  -22.8263   20.5942 C   0  0  0  0  0  0
  -29.0340  -24.6594   18.1034 C   0  0  0  0  0  0
  -30.3022  -17.0359   20.3158 C   0  0  0  0  0  0
  -27.7735  -17.6128   24.1711 C   0  0  0  0  0  0
  -27.9495  -21.6495   20.3332 C   0  0  0  0  0  0
  -28.3337  -25.2485   20.4939 C   0  0  0  0  0  0
  -29.0590  -17.6748   23.3209 C   0  0  1  0  0  0
  -28.9540  -22.7130   19.7619 C   0  0  1  0  0  0
  -28.3436  -24.1331   19.3787 C   0  0  2  0  0  0
  -28.4931  -20.3261   20.7544 N   0  0  0  0  0  0
  -29.8922  -15.6626   20.7105 N   0  0  0  0  0  0
  -31.4650  -12.4253   19.1619 H   0  0  0  0  0  0
  -30.3124  -11.3428   19.8929 H   0  0  0  0  0  0
  -29.7518  -11.7288   17.4748 H   0  0  0  0  0  0
  -29.6598  -13.4522   17.7469 H   0  0  0  0  0  0
  -27.8489  -11.2847   18.8640 H   0  0  0  0  0  0
  -27.3684  -12.5701   17.7914 H   0  0  0  0  0  0
  -27.6708  -14.2464   19.5169 H   0  0  0  0  0  0
  -28.6808  -12.0582   21.4045 H   0  0  0  0  0  0
  -28.4521  -13.7318   21.8288 H   0  0  0  0  0  0
  -25.2743   -9.5708   22.4757 H   0  0  0  0  0  0
  -24.0003   -7.4642   22.7462 H   0  0  0  0  0  0
  -21.0843   -8.8753   19.8926 H   0  0  0  0  0  0
  -22.3675  -10.9667   19.6153 H   0  0  0  0  0  0
  -21.1985   -7.6145   23.9725 H   0  0  0  0  0  0
  -21.1489   -6.0512   25.9084 H   0  0  0  0  0  0
  -22.0586   -2.7607   23.2838 H   0  0  0  0  0  0
  -22.4102  -11.9866   22.4775 H   0  0  0  0  0  0
  -21.1096  -13.1221   22.2608 H   0  0  0  0  0  0
  -24.6707  -15.8464   20.5500 H   0  0  0  0  0  0
  -26.2883  -15.6341   20.1166 H   0  0  0  0  0  0
  -26.7076  -32.5526   23.1102 H   0  0  0  0  0  0
  -25.0079  -33.9779   25.0488 H   0  0  0  0  0  0
  -22.6932  -31.3097   21.4044 H   0  0  0  0  0  0
  -23.3793  -35.9599   23.3322 H   0  0  0  0  0  0
  -24.3588  -36.8888   22.2069 H   0  0  0  0  0  0
  -23.7195  -37.6482   23.6653 H   0  0  0  0  0  0
  -26.0502  -31.5809   20.5916 H   0  0  0  0  0  0
  -26.8281  -30.8749   21.9799 H   0  0  0  0  0  0
  -28.1050  -29.0654   21.1471 H   0  0  0  0  0  0
  -26.0268  -25.9380   19.0288 H   0  0  0  0  0  0
  -23.9623  -27.2910   19.0452 H   0  0  0  0  0  0
  -23.7242  -30.5962   19.4036 H   0  0  0  0  0  0
  -22.7369  -29.2460   19.8637 H   0  0  0  0  0  0
  -25.1289  -36.2001   25.0845 H   0  0  0  0  0  0
  -20.9928  -28.3205   24.1445 H   0  0  0  0  0  0
  -20.5707  -26.2228   23.3580 H   0  0  0  0  0  0
  -21.6631  -26.7433   22.1198 H   0  0  0  0  0  0
  -19.6950  -25.6293   21.1210 H   0  0  0  0  0  0
  -19.6737  -27.3209   20.6799 H   0  0  0  0  0  0
  -17.4205  -26.6640   21.4008 H   0  0  0  0  0  0
  -18.0320  -26.0029   22.8980 H   0  0  0  0  0  0
  -19.7951  -30.7207   24.2275 H   0  0  0  0  0  0
  -17.5052  -31.6266   24.5135 H   0  0  0  0  0  0
  -15.5371  -30.3012   23.7673 H   0  0  0  0  0  0
  -15.8621  -28.0856   22.7052 H   0  0  0  0  0  0
  -24.5919  -30.7002   25.7812 H   0  0  0  0  0  0
  -24.8873  -32.2836   26.4928 H   0  0  0  0  0  0
  -25.8091  -30.8880   27.0215 H   0  0  0  0  0  0
  -26.2802  -29.6856   24.1116 H   0  0  0  0  0  0
  -27.4105  -29.7303   25.4474 H   0  0  0  0  0  0
  -27.8609  -30.4447   23.9142 H   0  0  0  0  0  0
  -27.2670  -33.3666   26.1991 H   0  0  0  0  0  0
  -28.3839  -32.6855   25.0263 H   0  0  0  0  0  0
  -28.0672  -31.8469   26.5378 H   0  0  0  0  0  0
  -28.2603  -38.0113   24.7533 H   0  0  0  0  0  0
  -28.1052  -36.2632   24.6266 H   0  0  0  0  0  0
  -27.2267  -37.1408   25.8867 H   0  0  0  0  0  0
  -20.9266  -29.8759   21.6968 H   0  0  0  0  0  0
  -26.0188  -38.2885   24.1463 H   0  0  0  0  0  0
  -29.4242  -19.5887   18.9704 H   0  0  0  0  0  0
  -27.8044  -20.3242   22.7776 H   0  0  0  0  0  0
  -25.7507  -16.8210   24.1553 H   0  0  0  0  0  0
  -26.9127  -15.8040   23.3124 H   0  0  0  0  0  0
  -26.3298  -17.2906   22.5607 H   0  0  0  0  0  0
  -31.1658  -18.1455   23.5851 H   0  0  0  0  0  0
  -30.3869  -17.5472   25.0426 H   0  0  0  0  0  0
  -30.0874  -19.1974   24.4944 H   0  0  0  0  0  0
  -30.8207  -21.9031   20.5599 H   0  0  0  0  0  0
  -30.0219  -23.0349   21.6408 H   0  0  0  0  0  0
  -30.8935  -23.6181   20.2174 H   0  0  0  0  0  0
  -28.5767  -25.5831   17.7504 H   0  0  0  0  0  0
  -28.9561  -23.9442   17.2837 H   0  0  0  0  0  0
  -30.0930  -24.8552   18.2727 H   0  0  0  0  0  0
  -31.3231  -17.2097   20.6594 H   0  0  0  0  0  0
  -30.3505  -17.0579   19.2257 H   0  0  0  0  0  0
  -27.9970  -17.1222   25.1206 H   0  0  0  0  0  0
  -27.4427  -18.6174   24.4343 H   0  0  0  0  0  0
  -27.1680  -21.4606   19.5946 H   0  0  0  0  0  0
  -27.4378  -22.0882   21.1914 H   0  0  0  0  0  0
  -29.2241  -25.1527   21.1108 H   0  0  0  0  0  0
  -27.5026  -25.0852   21.1816 H   0  0  0  0  0  0
  -29.2916  -16.6553   23.0187 H   0  0  0  0  0  0
  -29.2748  -22.2663   18.8182 H   0  0  0  0  0  0
  -27.3032  -23.9687   19.0964 H   0  0  0  0  0  0
  -28.9309  -15.5225   20.9797 H   0  0  0  0  0  0
  1 25  1  0  0  0
  1 30  2  0  0  0
  1 87  1  0  0  0
  2  3  1  0  0  0
  2 25  1  0  0  0
  2 88  1  0  0  0
  2 89  1  0  0  0
  3  4  1  0  0  0
  3 90  1  0  0  0
  3 91  1  0  0  0
  4  5  1  0  0  0
  4 92  1  0  0  0
  4 93  1  0  0  0
  5  6  1  0  0  0
  5 26  1  0  0  0
  5 94  1  0  0  0
  6 25  1  0  0  0
  6 95  1  0  0  0
  6 96  1  0  0  0
  7  8  2  0  0  0
  7 26  1  0  0  0
  7 29  1  0  0  0
  8  9  1  0  0  0
  8 22  1  0  0  0
  9 10  1  0  0  0
  9 27  2  0  0  0
 10 11  2  0  0  0
 10 15  1  0  0  0
 11 12  1  0  0  0
 11 97  1  0  0  0
 12 13  2  0  0  0
 12 98  1  0  0  0
 13 14  1  0  0  0
 13 31  1  0  0  0
 14 15  2  0  0  0
 14 99  1  0  0  0
 15100  1  0  0  0
 16 17  2  0  0  0
 16 21  1  0  0  0
 16 31  1  0  0  0
 17 18  1  0  0  0
 17101  1  0  0  0
 18 19  2  0  0  0
 18102  1  0  0  0
 19 20  1  0  0  0
 19 24  1  0  0  0
 20 21  2  0  0  0
 20103  1  0  0  0
 21 23  1  0  0  0
 22 28  1  0  0  0
 22 32  2  0  0  0
 26 27  1  0  0  0
 28104  1  0  0  0
 28105  1  0  0  0
 29106  1  0  0  0
 29107  1  0  0  0
 33 34  1  0  0  0
 33 66  1  0  0  0
 33 70  2  0  0  0
 34 36  1  0  0  0
 34 59  1  0  0  0
 34108  1  0  0  0
 35 44  2  0  0  0
 35 45  1  0  0  0
 35 68  1  0  0  0
 36 56  1  0  0  0
 36109  1  0  0  0
 37 39  1  0  0  0
 37 47  1  0  0  0
 37 66  1  0  0  0
 37110  1  0  0  0
 38 43  2  0  0  0
 38 46  1  0  0  0
 38 47  1  0  0  0
 39 64  1  0  0  0
 39 67  2  0  0  0
 40 52  1  0  0  0
 40 53  2  0  0  0
 40 58  1  0  0  0
 41111  1  0  0  0
 41112  1  0  0  0
 41113  1  0  0  0
 41 48  1  0  0  0
 42 43  1  0  0  0
 42 66  1  0  0  0
 42114  1  0  0  0
 42115  1  0  0  0
 43 44  1  0  0  0
 44116  1  0  0  0
 45 46  2  0  0  0
 45117  1  0  0  0
 46118  1  0  0  0
 47119  1  0  0  0
 47120  1  0  0  0
 48 56  1  0  0  0
 48 65  1  0  0  0
 48121  1  0  0  0
 49 50  1  0  0  0
 49 53  1  0  0  0
 49 64  1  0  0  0
 49122  1  0  0  0
 50 51  1  0  0  0
 50123  1  0  0  0
 50124  1  0  0  0
 51 52  1  0  0  0
 51125  1  0  0  0
 51126  1  0  0  0
 52127  1  0  0  0
 52128  1  0  0  0
 53 54  1  0  0  0
 54 55  2  0  0  0
 54129  1  0  0  0
 55 57  1  0  0  0
 55130  1  0  0  0
 56 69  2  0  0  0
 57 58  2  0  0  0
 57131  1  0  0  0
 58132  1  0  0  0
 59 60  1  0  0  0
 59 61  1  0  0  0
 59 62  1  0  0  0
 60133  1  0  0  0
 60134  1  0  0  0
 60135  1  0  0  0
 61136  1  0  0  0
 61137  1  0  0  0
 61138  1  0  0  0
 62139  1  0  0  0
 62140  1  0  0  0
 62141  1  0  0  0
 63 65  1  0  0  0
 63142  1  0  0  0
 63143  1  0  0  0
 63144  1  0  0  0
 64145  1  0  0  0
 65146  1  0  0  0
 68 82  1  0  0  0
 71 73  2  0  0  0
 71 86  1  0  0  0
 71147  1  0  0  0
 72 74  2  0  0  0
 72 86  1  0  0  0
 72148  1  0  0  0
 73 74  1  0  0  0
 73 79  1  0  0  0
 74 83  1  0  0  0
 75 80  1  0  0  0
 75149  1  0  0  0
 75150  1  0  0  0
 75151  1  0  0  0
 76152  1  0  0  0
 76153  1  0  0  0
 76154  1  0  0  0
 76 83  1  0  0  0
 77155  1  0  0  0
 77156  1  0  0  0
 77157  1  0  0  0
 77 84  1  0  0  0
 78158  1  0  0  0
 78159  1  0  0  0
 78160  1  0  0  0
 78 85  1  0  0  0
 79 87  1  0  0  0
 79161  1  0  0  0
 79162  1  0  0  0
 80 83  1  0  0  0
 80163  1  0  0  0
 80164  1  0  0  0
 81 84  1  0  0  0
 81 86  1  0  0  0
 81165  1  0  0  0
 81166  1  0  0  0
 82 85  1  0  0  0
 82167  1  0  0  0
 82168  1  0  0  0
 83169  1  0  0  0
 84 85  1  0  0  0
 84170  1  0  0  0
 85171  1  0  0  0
 87172  1  0  0  0
M  ISO  4   1 100  68 101  82 101  87 100
M  END
> <chiral flag>
0

> <version>
0

> <s_m_source_file>
/data/baiqing/PycharmProjects/Reinvent-master-3.2/result/LINK_invent/BTK/process_docking_weight1_custom_sum_contain_oxygen_bond_distance_aromatic_linkinvent_7_9_3/rearranged_h_0108.sdf

> <i_m_source_file_index>
83

> <r_mmod_Potential_Energy-OPLS-2005>
-34.4112319946289

> <r_mmod_Stretch_Energy-OPLS-2005>
54.3908805847168

> <r_mmod_Bend_Energy-OPLS-2005>
129.152114868164

> <r_mmod_Torsional_Energy-OPLS-2005>
254.952865600586

> <r_mmod_Improper_Torsional_Energy-OPLS-2005>
7.01219463348389

> <r_mmod_Van_der_Waal_Energy-OPLS-2005>
110.95923614502

> <r_mmod_Electrostatic_Energy-OPLS-2005>
-426.742401123047

> <r_mmod_Solvation_Energy-OPLS-2005>
-190.144973754883

> <b_mmod_Minimization_Converged-OPLS-2005>
0

> <r_mmod_RMS_Derivative-OPLS-2005>
3.24695491790771

$$$$
83
                    3D
 Structure written by MMmdl.
161168  0  0  1  0            999 V2000
  -30.5563  -14.9010   20.3909 C   0  0  0  0  0  0
  -30.4322  -12.5412   19.4925 C   0  0  0  0  0  0
  -29.5182  -12.5014   18.2476 C   0  0  0  0  0  0
  -28.0400  -12.3296   18.6516 C   0  0  0  0  0  0
  -27.6286  -13.2501   19.8304 C   0  0  2  0  0  0
  -28.6729  -13.2624   20.9690 C   0  0  0  0  0  0
  -25.2459  -13.8256   20.5650 C   0  0  0  0  0  0
  -24.1800  -13.0448   20.9256 C   0  0  0  0  0  0
  -24.6438  -11.6944   20.8821 C   0  0  0  0  0  0
  -23.9144  -10.4311   21.0501 C   0  0  0  0  0  0
  -24.3694   -9.4195   21.9251 C   0  0  0  0  0  0
  -23.6334   -8.2245   22.0805 C   0  0  0  0  0  0
  -22.4321   -8.0322   21.3571 C   0  0  0  0  0  0
  -21.9976   -9.0333   20.4696 C   0  0  0  0  0  0
  -22.7344  -10.2184   20.3115 C   0  0  0  0  0  0
  -21.6844   -6.0786   22.5330 C   0  0  0  0  0  0
  -21.4008   -6.5686   23.8268 C   0  0  0  0  0  0
  -21.3658   -5.6826   24.9215 C   0  0  0  0  0  0
  -21.6017   -4.3082   24.7260 C   0  0  0  0  0  0
  -21.8809   -3.8186   23.4375 C   0  0  0  0  0  0
  -21.9176   -4.7009   22.3433 C   0  0  0  0  0  0
  -22.7822  -13.5234   21.1880 C   0  0  0  0  0  0
  -22.1636   -4.2196   21.1002 F   0  0  0  0  0  0
  -21.5611   -3.4555   25.7760 F   0  0  0  0  0  0
  -29.9550  -13.6462   20.3678 N   0  0  0  0  0  0
  -26.2887  -12.9477   20.3196 N   0  0  0  0  0  0
  -25.9359  -11.6609   20.5748 N   0  0  0  0  0  0
  -22.0418  -12.8261   22.0424 N   0  0  0  0  0  0
  -25.4030  -15.1979   20.3970 N   0  0  0  0  0  0
  -31.7618  -14.9656   20.1274 O   0  0  0  0  0  0
  -21.6623   -6.8945   21.4293 O   0  0  0  0  0  0
  -22.3521  -14.5526   20.6718 O   0  0  0  0  0  0
  -24.6528  -31.8443   23.1952 C   0  0  0  0  0  0
  -25.9317  -32.4701   23.8316 C   0  0  1  0  0  0
  -27.1754  -27.1048   20.1089 C   0  0  0  0  0  0
  -25.6077  -33.8502   24.2281 N   0  0  0  0  0  0
  -23.4486  -30.4780   21.5475 C   0  0  2  0  0  0
  -24.8800  -28.9213   20.1071 C   0  0  0  0  0  0
  -22.7596  -29.4580   22.4899 C   0  0  0  0  0  0
  -18.0327  -28.1390   22.8457 C   0  0  0  0  0  0
  -24.1497  -36.7207   23.2633 C   0  0  0  0  0  0
  -26.0108  -30.7137   21.3864 C   0  0  0  0  0  0
  -26.0688  -29.3272   20.7219 C   0  0  0  0  0  0
  -27.2149  -28.4355   20.7094 C   0  0  0  0  0  0
  -25.9332  -26.8196   19.4973 C   0  0  0  0  0  0
  -24.8264  -27.6816   19.4801 C   0  0  0  0  0  0
  -23.6656  -29.8299   20.1586 C   0  0  0  0  0  0
  -25.4122  -36.3001   24.0327 C   0  0  1  0  0  0
  -20.5943  -28.3719   23.1225 C   0  0  2  0  0  0
  -20.6777  -26.9417   22.5381 C   0  0  0  0  0  0
  -19.5762  -26.6365   21.5184 C   0  0  0  0  0  0
  -18.1952  -26.7923   22.1610 C   0  0  0  0  0  0
  -19.1569  -28.8868   23.2823 C   0  0  0  0  0  0
  -18.9486  -30.1445   23.8854 C   0  0  0  0  0  0
  -17.6483  -30.6564   24.0552 C   0  0  0  0  0  0
  -25.9085  -34.9396   23.5102 C   0  0  0  0  0  0
  -16.5383  -29.9049   23.6345 C   0  0  0  0  0  0
  -16.7300  -28.6480   23.0351 C   0  0  0  0  0  0
  -26.4633  -31.6550   25.0729 C   0  0  0  0  0  0
  -25.3837  -31.3740   26.1445 C   0  0  0  0  0  0
  -27.0444  -30.2946   24.6217 C   0  0  0  0  0  0
  -27.6170  -32.4281   25.7541 C   0  0  0  0  0  0
  -27.5571  -37.1777   24.8495 C   0  0  0  0  0  0
  -21.4289  -29.3078   22.3628 N   0  0  0  0  0  0
  -26.4265  -37.3738   23.9449 N   0  0  0  0  0  0
  -24.7261  -31.0310   22.1001 N   0  0  0  0  0  0
  -23.4255  -28.8071   23.2977 O   0  0  0  0  0  0
  -28.2319  -26.1036   20.1792 O   0  0  0  0  0  0
  -26.5586  -34.8921   22.4638 O   0  0  0  0  0  0
  -23.5659  -32.1323   23.7177 O   0  0  0  0  0  0
  -28.0401  -18.6189   21.5561 C   0  0  0  0  0  0
  -27.2112  -24.1959   18.6393 C   0  0  0  0  0  0
  -29.5547  -24.8123   18.7180 C   0  0  0  0  0  0
  -30.5721  -20.5877   19.3950 C   0  0  0  0  0  0
  -28.6986  -23.2396   20.5304 C   0  0  0  0  0  0
  -30.1320  -17.6110   20.3778 C   0  0  0  0  0  0
  -28.4268  -21.6074   20.1227 C   0  0  0  0  0  0
  -29.0095  -18.8752   20.3881 C   0  0  2  0  0  0
  -28.3217  -24.6210   19.6218 C   0  0  0  0  0  0
  -29.7739  -16.0769   20.4882 N   0  0  0  0  0  0
  -29.4536  -20.4122   20.3547 N   0  3  1  0  0  0
  -31.4703  -12.6820   19.1865 H   0  0  0  0  0  0
  -30.4000  -11.5856   20.0205 H   0  0  0  0  0  0
  -29.8180  -11.6861   17.5909 H   0  0  0  0  0  0
  -29.6418  -13.4172   17.6666 H   0  0  0  0  0  0
  -27.8910  -11.2862   18.9303 H   0  0  0  0  0  0
  -27.3960  -12.4916   17.7852 H   0  0  0  0  0  0
  -27.5951  -14.2569   19.4170 H   0  0  0  0  0  0
  -28.7406  -12.2922   21.4627 H   0  0  0  0  0  0
  -28.3835  -13.9812   21.7383 H   0  0  0  0  0  0
  -25.2833   -9.5613   22.4839 H   0  0  0  0  0  0
  -24.0020   -7.4614   22.7515 H   0  0  0  0  0  0
  -21.0893   -8.8932   19.9001 H   0  0  0  0  0  0
  -22.3869  -10.9779   19.6251 H   0  0  0  0  0  0
  -21.2003   -7.6188   23.9801 H   0  0  0  0  0  0
  -21.1471   -6.0529   25.9123 H   0  0  0  0  0  0
  -22.0566   -2.7646   23.2860 H   0  0  0  0  0  0
  -22.3967  -11.9928   22.4855 H   0  0  0  0  0  0
  -21.1088  -13.1412   22.2613 H   0  0  0  0  0  0
  -24.6143  -15.8293   20.4861 H   0  0  0  0  0  0
  -26.1973  -15.6328   19.9488 H   0  0  0  0  0  0
  -26.7373  -32.5275   23.1020 H   0  0  0  0  0  0
  -25.0434  -33.9632   25.0575 H   0  0  0  0  0  0
  -22.7522  -31.3078   21.4138 H   0  0  0  0  0  0
  -23.3780  -35.9502   23.3252 H   0  0  0  0  0  0
  -24.3630  -36.8844   22.2043 H   0  0  0  0  0  0
  -23.7186  -37.6385   23.6685 H   0  0  0  0  0  0
  -26.1681  -31.4611   20.6066 H   0  0  0  0  0  0
  -26.8802  -30.7595   22.0275 H   0  0  0  0  0  0
  -28.1192  -28.7534   21.2092 H   0  0  0  0  0  0
  -25.6766  -25.8921   19.0487 H   0  0  0  0  0  0
  -23.9118  -27.3499   19.0085 H   0  0  0  0  0  0
  -23.8118  -30.6140   19.4175 H   0  0  0  0  0  0
  -22.7715  -29.2862   19.8431 H   0  0  0  0  0  0
  -25.1292  -36.1818   25.0801 H   0  0  0  0  0  0
  -21.0024  -28.3244   24.1366 H   0  0  0  0  0  0
  -20.5649  -26.2313   23.3596 H   0  0  0  0  0  0
  -21.6642  -26.7406   22.1192 H   0  0  0  0  0  0
  -19.6900  -25.6248   21.1227 H   0  0  0  0  0  0
  -19.6657  -27.3132   20.6685 H   0  0  0  0  0  0
  -17.4206  -26.6642   21.4024 H   0  0  0  0  0  0
  -18.0374  -26.0055   22.9013 H   0  0  0  0  0  0
  -19.7946  -30.7265   24.2195 H   0  0  0  0  0  0
  -17.5048  -31.6258   24.5110 H   0  0  0  0  0  0
  -15.5378  -30.2954   23.7677 H   0  0  0  0  0  0
  -15.8701  -28.0785   22.7119 H   0  0  0  0  0  0
  -24.6101  -30.6941   25.7886 H   0  0  0  0  0  0
  -24.8908  -32.2881   26.4755 H   0  0  0  0  0  0
  -25.8167  -30.9097   27.0309 H   0  0  0  0  0  0
  -26.3014  -29.6712   24.1203 H   0  0  0  0  0  0
  -27.4117  -29.7198   25.4744 H   0  0  0  0  0  0
  -27.8945  -30.4252   23.9495 H   0  0  0  0  0  0
  -27.2850  -33.3709   26.1930 H   0  0  0  0  0  0
  -28.4126  -32.6582   25.0443 H   0  0  0  0  0  0
  -28.0654  -31.8445   26.5598 H   0  0  0  0  0  0
  -28.2560  -38.0103   24.7569 H   0  0  0  0  0  0
  -28.1069  -36.2623   24.6266 H   0  0  0  0  0  0
  -27.2312  -37.1379   25.8906 H   0  0  0  0  0  0
  -20.9490  -29.8814   21.6824 H   0  0  0  0  0  0
  -26.0099  -38.2791   24.1472 H   0  0  0  0  0  0
  -27.6262  -17.6111   21.5098 H   0  0  0  0  0  0
  -27.1903  -19.2974   21.5336 H   0  0  0  0  0  0
  -28.5340  -18.7065   22.5239 H   0  0  0  0  0  0
  -27.4881  -23.3108   18.0739 H   0  0  0  0  0  0
  -27.0403  -24.9509   17.8662 H   0  0  0  0  0  0
  -26.2811  -23.9417   19.1506 H   0  0  0  0  0  0
  -29.8234  -23.8866   18.1986 H   0  0  0  0  0  0
  -30.4220  -25.1204   19.3012 H   0  0  0  0  0  0
  -29.3828  -25.5758   17.9563 H   0  0  0  0  0  0
  -30.2205  -20.3979   18.3805 H   0  0  0  0  0  0
  -31.4055  -19.9120   19.5930 H   0  0  0  0  0  0
  -30.9686  -21.6025   19.4241 H   0  0  0  0  0  0
  -29.7510  -23.3170   20.7996 H   0  0  0  0  0  0
  -28.1861  -23.3772   21.4834 H   0  0  0  0  0  0
  -30.8469  -17.8077   21.1779 H   0  0  0  0  0  0
  -30.7034  -17.6994   19.4547 H   0  0  0  0  0  0
  -28.1487  -21.5495   19.0731 H   0  0  0  0  0  0
  -27.5001  -21.3300   20.6279 H   0  0  0  0  0  0
  -28.4341  -18.7434   19.4722 H   0  0  0  0  0  0
  -28.7895  -15.8934   20.5943 H   0  0  0  0  0  0
  -29.8518  -20.5724   21.2693 H   0  0  0  0  0  0
  1 25  1  0  0  0
  1 30  2  0  0  0
  1 80  1  0  0  0
  2  3  1  0  0  0
  2 25  1  0  0  0
  2 82  1  0  0  0
  2 83  1  0  0  0
  3  4  1  0  0  0
  3 84  1  0  0  0
  3 85  1  0  0  0
  4  5  1  0  0  0
  4 86  1  0  0  0
  4 87  1  0  0  0
  5  6  1  0  0  0
  5 26  1  0  0  0
  5 88  1  0  0  0
  6 25  1  0  0  0
  6 89  1  0  0  0
  6 90  1  0  0  0
  7  8  2  0  0  0
  7 26  1  0  0  0
  7 29  1  0  0  0
  8  9  1  0  0  0
  8 22  1  0  0  0
  9 10  1  0  0  0
  9 27  2  0  0  0
 10 11  2  0  0  0
 10 15  1  0  0  0
 11 12  1  0  0  0
 11 91  1  0  0  0
 12 13  2  0  0  0
 12 92  1  0  0  0
 13 14  1  0  0  0
 13 31  1  0  0  0
 14 15  2  0  0  0
 14 93  1  0  0  0
 15 94  1  0  0  0
 16 17  2  0  0  0
 16 21  1  0  0  0
 16 31  1  0  0  0
 17 18  1  0  0  0
 17 95  1  0  0  0
 18 19  2  0  0  0
 18 96  1  0  0  0
 19 20  1  0  0  0
 19 24  1  0  0  0
 20 21  2  0  0  0
 20 97  1  0  0  0
 21 23  1  0  0  0
 22 28  1  0  0  0
 22 32  2  0  0  0
 26 27  1  0  0  0
 28 98  1  0  0  0
 28 99  1  0  0  0
 29100  1  0  0  0
 29101  1  0  0  0
 33 34  1  0  0  0
 33 66  1  0  0  0
 33 70  2  0  0  0
 34 36  1  0  0  0
 34 59  1  0  0  0
 34102  1  0  0  0
 35 44  2  0  0  0
 35 45  1  0  0  0
 35 68  1  0  0  0
 36 56  1  0  0  0
 36103  1  0  0  0
 37 39  1  0  0  0
 37 47  1  0  0  0
 37 66  1  0  0  0
 37104  1  0  0  0
 38 43  2  0  0  0
 38 46  1  0  0  0
 38 47  1  0  0  0
 39 64  1  0  0  0
 39 67  2  0  0  0
 40 52  1  0  0  0
 40 53  2  0  0  0
 40 58  1  0  0  0
 41105  1  0  0  0
 41106  1  0  0  0
 41107  1  0  0  0
 41 48  1  0  0  0
 42 43  1  0  0  0
 42 66  1  0  0  0
 42108  1  0  0  0
 42109  1  0  0  0
 43 44  1  0  0  0
 44110  1  0  0  0
 45 46  2  0  0  0
 45111  1  0  0  0
 46112  1  0  0  0
 47113  1  0  0  0
 47114  1  0  0  0
 48 56  1  0  0  0
 48 65  1  0  0  0
 48115  1  0  0  0
 49 50  1  0  0  0
 49 53  1  0  0  0
 49 64  1  0  0  0
 49116  1  0  0  0
 50 51  1  0  0  0
 50117  1  0  0  0
 50118  1  0  0  0
 51 52  1  0  0  0
 51119  1  0  0  0
 51120  1  0  0  0
 52121  1  0  0  0
 52122  1  0  0  0
 53 54  1  0  0  0
 54 55  2  0  0  0
 54123  1  0  0  0
 55 57  1  0  0  0
 55124  1  0  0  0
 56 69  2  0  0  0
 57 58  2  0  0  0
 57125  1  0  0  0
 58126  1  0  0  0
 59 60  1  0  0  0
 59 61  1  0  0  0
 59 62  1  0  0  0
 60127  1  0  0  0
 60128  1  0  0  0
 60129  1  0  0  0
 61130  1  0  0  0
 61131  1  0  0  0
 61132  1  0  0  0
 62133  1  0  0  0
 62134  1  0  0  0
 62135  1  0  0  0
 63 65  1  0  0  0
 63136  1  0  0  0
 63137  1  0  0  0
 63138  1  0  0  0
 64139  1  0  0  0
 65140  1  0  0  0
 68 79  1  0  0  0
 71141  1  0  0  0
 71142  1  0  0  0
 71143  1  0  0  0
 71 78  1  0  0  0
 72144  1  0  0  0
 72145  1  0  0  0
 72146  1  0  0  0
 72 79  1  0  0  0
 73 79  1  0  0  0
 73147  1  0  0  0
 73148  1  0  0  0
 73149  1  0  0  0
 74150  1  0  0  0
 74151  1  0  0  0
 74152  1  0  0  0
 74 81  1  0  0  0
 75 77  1  0  0  0
 75 79  1  0  0  0
 75153  1  0  0  0
 75154  1  0  0  0
 76 78  1  0  0  0
 76 80  1  0  0  0
 76155  1  0  0  0
 76156  1  0  0  0
 77 81  1  0  0  0
 77157  1  0  0  0
 77158  1  0  0  0
 78 81  1  0  0  0
 78159  1  0  0  0
 80160  1  0  0  0
 81161  1  0  0  0
M  CHG  1  81   1
M  ISO  4   1 100  68 101  79 101  80 100
M  END
> <chiral flag>
0

> <version>
0

> <s_m_source_file>
/data/baiqing/PycharmProjects/Reinvent-master-3.2/result/LINK_invent/BTK/process_docking_weight1_custom_sum_contain_oxygen_bond_distance_aromatic_linkinvent_7_9_3/rearranged_h_0108.sdf

> <i_m_source_file_index>
84

> <r_mmod_Potential_Energy-OPLS-2005>
417.739776611328

> <r_mmod_Stretch_Energy-OPLS-2005>
291.728179931641

> <r_mmod_Bend_Energy-OPLS-2005>
310.925323486328

> <r_mmod_Torsional_Energy-OPLS-2005>
238.220336914062

> <r_mmod_Improper_Torsional_Energy-OPLS-2005>
5.59578895568848

> <r_mmod_Van_der_Waal_Energy-OPLS-2005>
131.459518432617

> <r_mmod_Electrostatic_Energy-OPLS-2005>
-290.475372314453

> <r_mmod_Solvation_Energy-OPLS-2005>
-457.592895507812

> <b_mmod_Minimization_Converged-OPLS-2005>
0

> <r_mmod_RMS_Derivative-OPLS-2005>
6.04633617401123

$$$$
84
                    3D
 Structure written by MMmdl.
157165  0  0  1  0            999 V2000
  -30.5341  -15.0088   20.4052 C   0  0  0  0  0  0
  -30.4358  -12.6308   19.4998 C   0  0  0  0  0  0
  -29.5197  -12.5371   18.2579 C   0  0  0  0  0  0
  -28.0557  -12.3147   18.6804 C   0  0  0  0  0  0
  -27.6222  -13.2580   19.8330 C   0  0  2  0  0  0
  -28.6655  -13.3228   20.9675 C   0  0  0  0  0  0
  -25.2402  -13.8195   20.5727 C   0  0  0  0  0  0
  -24.1742  -13.0402   20.9229 C   0  0  0  0  0  0
  -24.6391  -11.6906   20.8751 C   0  0  0  0  0  0
  -23.9085  -10.4276   21.0404 C   0  0  0  0  0  0
  -24.3634   -9.4196   21.9186 C   0  0  0  0  0  0
  -23.6299   -8.2235   22.0757 C   0  0  0  0  0  0
  -22.4280   -8.0276   21.3548 C   0  0  0  0  0  0
  -21.9918   -9.0248   20.4647 C   0  0  0  0  0  0
  -22.7253  -10.2123   20.3056 C   0  0  0  0  0  0
  -21.6856   -6.0733   22.5280 C   0  0  0  0  0  0
  -21.4012   -6.5637   23.8211 C   0  0  0  0  0  0
  -21.3659   -5.6790   24.9174 C   0  0  0  0  0  0
  -21.6048   -4.3052   24.7226 C   0  0  0  0  0  0
  -21.8819   -3.8145   23.4345 C   0  0  0  0  0  0
  -21.9190   -4.6962   22.3401 C   0  0  0  0  0  0
  -22.7761  -13.5171   21.1883 C   0  0  0  0  0  0
  -22.1660   -4.2147   21.0978 F   0  0  0  0  0  0
  -21.5631   -3.4535   25.7739 F   0  0  0  0  0  0
  -29.9310  -13.7473   20.3549 N   0  0  0  0  0  0
  -26.2854  -12.9469   20.3252 N   0  0  0  0  0  0
  -25.9331  -11.6584   20.5740 N   0  0  0  0  0  0
  -22.0425  -12.8161   22.0452 N   0  0  0  0  0  0
  -25.3973  -15.1918   20.4197 N   0  0  0  0  0  0
  -31.7485  -15.0399   20.1780 O   0  0  0  0  0  0
  -21.6640   -6.8878   21.4244 O   0  0  0  0  0  0
  -22.3433  -14.5472   20.6729 O   0  0  0  0  0  0
  -24.6476  -31.8387   23.1833 C   0  0  0  0  0  0
  -25.9231  -32.4662   23.8240 C   0  0  1  0  0  0
  -27.2186  -27.0899   20.1583 C   0  0  0  0  0  0
  -25.5958  -33.8470   24.2154 N   0  0  0  0  0  0
  -23.4535  -30.4556   21.5296 C   0  0  2  0  0  0
  -24.9043  -28.8726   20.1097 C   0  0  0  0  0  0
  -22.7586  -29.4517   22.4843 C   0  0  0  0  0  0
  -18.0305  -28.1394   22.8474 C   0  0  0  0  0  0
  -24.1496  -36.7242   23.2643 C   0  0  0  0  0  0
  -26.0126  -30.6978   21.3887 C   0  0  0  0  0  0
  -26.0833  -29.3046   20.7301 C   0  0  0  0  0  0
  -27.2405  -28.4308   20.7333 C   0  0  0  0  0  0
  -26.0121  -26.7678   19.4996 C   0  0  0  0  0  0
  -24.8846  -27.6198   19.4773 C   0  0  0  0  0  0
  -23.6821  -29.7796   20.1513 C   0  0  0  0  0  0
  -25.4130  -36.3011   24.0309 C   0  0  1  0  0  0
  -20.5920  -28.3725   23.1223 C   0  0  2  0  0  0
  -20.6787  -26.9423   22.5402 C   0  0  0  0  0  0
  -19.5761  -26.6377   21.5210 C   0  0  0  0  0  0
  -18.1943  -26.7932   22.1621 C   0  0  0  0  0  0
  -19.1562  -28.8878   23.2839 C   0  0  0  0  0  0
  -18.9478  -30.1474   23.8863 C   0  0  0  0  0  0
  -17.6474  -30.6590   24.0554 C   0  0  0  0  0  0
  -25.9082  -34.9388   23.5045 C   0  0  0  0  0  0
  -16.5365  -29.9077   23.6340 C   0  0  0  0  0  0
  -16.7289  -28.6499   23.0360 C   0  0  0  0  0  0
  -26.4536  -31.6549   25.0704 C   0  0  0  0  0  0
  -25.3711  -31.3755   26.1395 C   0  0  0  0  0  0
  -27.0407  -30.2933   24.6330 C   0  0  0  0  0  0
  -27.6050  -32.4333   25.7498 C   0  0  0  0  0  0
  -27.5577  -37.1776   24.8464 C   0  0  0  0  0  0
  -21.4273  -29.3041   22.3590 N   0  0  0  0  0  0
  -26.4288  -37.3731   23.9407 N   0  0  0  0  0  0
  -24.7247  -31.0198   22.0886 N   0  0  0  0  0  0
  -23.4209  -28.8076   23.3018 O   0  0  0  0  0  0
  -28.2634  -26.0825   20.2336 O   0  0  0  0  0  0
  -26.5675  -34.8896   22.4631 O   0  0  0  0  0  0
  -23.5586  -32.1286   23.7025 O   0  0  0  0  0  0
  -29.7959  -20.5525   20.5985 C   0  0  0  0  0  0
  -29.3790  -19.2151   20.3302 C   0  0  0  0  0  0
  -28.0660  -19.4934   19.7907 C   0  0  0  0  0  0
  -27.8256  -20.8787   19.7178 C   0  0  0  0  0  0
  -26.6451  -21.6060   19.1495 C   0  0  0  0  0  0
  -27.2860  -18.0926   17.8315 C   0  0  0  0  0  0
  -30.2239  -17.7612   20.5291 C   0  0  0  0  0  0
  -29.0759  -23.2287   20.3994 C   0  0  0  0  0  0
  -28.0087  -24.5298   20.0710 C   0  0  0  0  0  0
  -27.1028  -18.4153   19.3183 C   0  0  0  0  0  0
  -28.8814  -21.6284   20.2499 N   0  0  0  0  0  0
  -29.7827  -16.2275   20.5040 N   0  0  0  0  0  0
  -25.8401  -18.7825   19.5342 F   0  0  0  0  0  0
  -27.2999  -17.2987   20.0137 F   0  0  0  0  0  0
  -31.4676  -12.7923   19.1848 H   0  0  0  0  0  0
  -30.4382  -11.6903   20.0527 H   0  0  0  0  0  0
  -29.8483  -11.7298   17.6018 H   0  0  0  0  0  0
  -29.5977  -13.4570   17.6766 H   0  0  0  0  0  0
  -27.9623  -11.2762   19.0007 H   0  0  0  0  0  0
  -27.3906  -12.4303   17.8240 H   0  0  0  0  0  0
  -27.5704  -14.2531   19.3896 H   0  0  0  0  0  0
  -28.7678  -12.3586   21.4674 H   0  0  0  0  0  0
  -28.3571  -14.0388   21.7308 H   0  0  0  0  0  0
  -25.2776   -9.5667   22.4763 H   0  0  0  0  0  0
  -24.0001   -7.4624   22.7477 H   0  0  0  0  0  0
  -21.0850   -8.8768   19.8948 H   0  0  0  0  0  0
  -22.3714  -10.9663   19.6165 H   0  0  0  0  0  0
  -21.2006   -7.6146   23.9711 H   0  0  0  0  0  0
  -21.1483   -6.0524   25.9076 H   0  0  0  0  0  0
  -22.0600   -2.7608   23.2847 H   0  0  0  0  0  0
  -22.4058  -11.9834   22.4848 H   0  0  0  0  0  0
  -21.1039  -13.1176   22.2654 H   0  0  0  0  0  0
  -24.6258  -15.8347   20.5543 H   0  0  0  0  0  0
  -26.2487  -15.6592   20.1362 H   0  0  0  0  0  0
  -26.7296  -32.5250   23.0963 H   0  0  0  0  0  0
  -25.0073  -33.9578   25.0279 H   0  0  0  0  0  0
  -22.7589  -31.2831   21.3707 H   0  0  0  0  0  0
  -23.3763  -35.9567   23.3280 H   0  0  0  0  0  0
  -24.3580  -36.8906   22.2063 H   0  0  0  0  0  0
  -23.7245  -37.6426   23.6704 H   0  0  0  0  0  0
  -26.1756  -31.4503   20.6160 H   0  0  0  0  0  0
  -26.8802  -30.7475   22.0355 H   0  0  0  0  0  0
  -28.1381  -28.7573   21.2394 H   0  0  0  0  0  0
  -25.9073  -25.8077   19.0168 H   0  0  0  0  0  0
  -23.9848  -27.2837   18.9806 H   0  0  0  0  0  0
  -23.8198  -30.5511   19.3931 H   0  0  0  0  0  0
  -22.7964  -29.2220   19.8418 H   0  0  0  0  0  0
  -25.1321  -36.1827   25.0801 H   0  0  0  0  0  0
  -21.0011  -28.3316   24.1345 H   0  0  0  0  0  0
  -20.5674  -26.2338   23.3625 H   0  0  0  0  0  0
  -21.6653  -26.7418   22.1204 H   0  0  0  0  0  0
  -19.6922  -25.6280   21.1257 H   0  0  0  0  0  0
  -19.6698  -27.3173   20.6728 H   0  0  0  0  0  0
  -17.4212  -26.6674   21.4025 H   0  0  0  0  0  0
  -18.0343  -26.0079   22.9023 H   0  0  0  0  0  0
  -19.7954  -30.7301   24.2217 H   0  0  0  0  0  0
  -17.5024  -31.6269   24.5158 H   0  0  0  0  0  0
  -15.5363  -30.2966   23.7685 H   0  0  0  0  0  0
  -15.8690  -28.0804   22.7094 H   0  0  0  0  0  0
  -24.5890  -30.7105   25.7711 H   0  0  0  0  0  0
  -24.8906  -32.2944   26.4762 H   0  0  0  0  0  0
  -25.7987  -30.8960   27.0210 H   0  0  0  0  0  0
  -26.3034  -29.6639   24.1332 H   0  0  0  0  0  0
  -27.3983  -29.7254   25.4930 H   0  0  0  0  0  0
  -27.8960  -30.4140   23.9681 H   0  0  0  0  0  0
  -27.2625  -33.3657   26.2002 H   0  0  0  0  0  0
  -28.3901  -32.6861   25.0357 H   0  0  0  0  0  0
  -28.0677  -31.8512   26.5478 H   0  0  0  0  0  0
  -28.2575  -38.0090   24.7517 H   0  0  0  0  0  0
  -28.1094  -36.2616   24.6283 H   0  0  0  0  0  0
  -27.2295  -37.1413   25.8867 H   0  0  0  0  0  0
  -20.9494  -29.8743   21.6752 H   0  0  0  0  0  0
  -26.0145  -38.2796   24.1412 H   0  0  0  0  0  0
  -30.7455  -20.8538   21.0215 H   0  0  0  0  0  0
  -25.9734  -20.9455   18.6045 H   0  0  0  0  0  0
  -26.9636  -22.3625   18.4342 H   0  0  0  0  0  0
  -26.0686  -22.0952   19.9349 H   0  0  0  0  0  0
  -27.1207  -18.9738   17.2117 H   0  0  0  0  0  0
  -26.5862  -17.3220   17.5080 H   0  0  0  0  0  0
  -28.2940  -17.7293   17.6309 H   0  0  0  0  0  0
  -30.7267  -17.8735   21.4898 H   0  0  0  0  0  0
  -31.0324  -17.8227   19.7999 H   0  0  0  0  0  0
  -29.3844  -23.3717   21.4349 H   0  0  0  0  0  0
  -29.9760  -23.4487   19.8261 H   0  0  0  0  0  0
  -27.1054  -24.3251   20.6463 H   0  0  0  0  0  0
  -27.7169  -24.4141   19.0284 H   0  0  0  0  0  0
  -28.7870  -16.0923   20.6005 H   0  0  0  0  0  0
  1 25  1  0  0  0
  1 30  2  0  0  0
  1 82  1  0  0  0
  2  3  1  0  0  0
  2 25  1  0  0  0
  2 85  1  0  0  0
  2 86  1  0  0  0
  3  4  1  0  0  0
  3 87  1  0  0  0
  3 88  1  0  0  0
  4  5  1  0  0  0
  4 89  1  0  0  0
  4 90  1  0  0  0
  5  6  1  0  0  0
  5 26  1  0  0  0
  5 91  1  0  0  0
  6 25  1  0  0  0
  6 92  1  0  0  0
  6 93  1  0  0  0
  7  8  2  0  0  0
  7 26  1  0  0  0
  7 29  1  0  0  0
  8  9  1  0  0  0
  8 22  1  0  0  0
  9 10  1  0  0  0
  9 27  2  0  0  0
 10 11  2  0  0  0
 10 15  1  0  0  0
 11 12  1  0  0  0
 11 94  1  0  0  0
 12 13  2  0  0  0
 12 95  1  0  0  0
 13 14  1  0  0  0
 13 31  1  0  0  0
 14 15  2  0  0  0
 14 96  1  0  0  0
 15 97  1  0  0  0
 16 17  2  0  0  0
 16 21  1  0  0  0
 16 31  1  0  0  0
 17 18  1  0  0  0
 17 98  1  0  0  0
 18 19  2  0  0  0
 18 99  1  0  0  0
 19 20  1  0  0  0
 19 24  1  0  0  0
 20 21  2  0  0  0
 20100  1  0  0  0
 21 23  1  0  0  0
 22 28  1  0  0  0
 22 32  2  0  0  0
 26 27  1  0  0  0
 28101  1  0  0  0
 28102  1  0  0  0
 29103  1  0  0  0
 29104  1  0  0  0
 33 34  1  0  0  0
 33 66  1  0  0  0
 33 70  2  0  0  0
 34 36  1  0  0  0
 34 59  1  0  0  0
 34105  1  0  0  0
 35 44  2  0  0  0
 35 45  1  0  0  0
 35 68  1  0  0  0
 36 56  1  0  0  0
 36106  1  0  0  0
 37 39  1  0  0  0
 37 47  1  0  0  0
 37 66  1  0  0  0
 37107  1  0  0  0
 38 43  2  0  0  0
 38 46  1  0  0  0
 38 47  1  0  0  0
 39 64  1  0  0  0
 39 67  2  0  0  0
 40 52  1  0  0  0
 40 53  2  0  0  0
 40 58  1  0  0  0
 41108  1  0  0  0
 41109  1  0  0  0
 41110  1  0  0  0
 41 48  1  0  0  0
 42 43  1  0  0  0
 42 66  1  0  0  0
 42111  1  0  0  0
 42112  1  0  0  0
 43 44  1  0  0  0
 44113  1  0  0  0
 45 46  2  0  0  0
 45114  1  0  0  0
 46115  1  0  0  0
 47116  1  0  0  0
 47117  1  0  0  0
 48 56  1  0  0  0
 48 65  1  0  0  0
 48118  1  0  0  0
 49 50  1  0  0  0
 49 53  1  0  0  0
 49 64  1  0  0  0
 49119  1  0  0  0
 50 51  1  0  0  0
 50120  1  0  0  0
 50121  1  0  0  0
 51 52  1  0  0  0
 51122  1  0  0  0
 51123  1  0  0  0
 52124  1  0  0  0
 52125  1  0  0  0
 53 54  1  0  0  0
 54 55  2  0  0  0
 54126  1  0  0  0
 55 57  1  0  0  0
 55127  1  0  0  0
 56 69  2  0  0  0
 57 58  2  0  0  0
 57128  1  0  0  0
 58129  1  0  0  0
 59 60  1  0  0  0
 59 61  1  0  0  0
 59 62  1  0  0  0
 60130  1  0  0  0
 60131  1  0  0  0
 60132  1  0  0  0
 61133  1  0  0  0
 61134  1  0  0  0
 61135  1  0  0  0
 62136  1  0  0  0
 62137  1  0  0  0
 62138  1  0  0  0
 63 65  1  0  0  0
 63139  1  0  0  0
 63140  1  0  0  0
 63141  1  0  0  0
 64142  1  0  0  0
 65143  1  0  0  0
 68 79  1  0  0  0
 71 72  2  0  0  0
 71 81  1  0  0  0
 71144  1  0  0  0
 72 73  1  0  0  0
 72 77  1  0  0  0
 73 74  2  0  0  0
 73 80  1  0  0  0
 74 75  1  0  0  0
 74 81  1  0  0  0
 75145  1  0  0  0
 75146  1  0  0  0
 75147  1  0  0  0
 76148  1  0  0  0
 76149  1  0  0  0
 76150  1  0  0  0
 76 80  1  0  0  0
 77 82  1  0  0  0
 77151  1  0  0  0
 77152  1  0  0  0
 78 79  1  0  0  0
 78 81  1  0  0  0
 78153  1  0  0  0
 78154  1  0  0  0
 79155  1  0  0  0
 79156  1  0  0  0
 80 83  1  0  0  0
 80 84  1  0  0  0
 82157  1  0  0  0
M  ISO  4   1 100  68 101  79 101  82 100
M  END
> <chiral flag>
0

> <version>
0

> <s_m_source_file>
/data/baiqing/PycharmProjects/Reinvent-master-3.2/result/LINK_invent/BTK/process_docking_weight1_custom_sum_contain_oxygen_bond_distance_aromatic_linkinvent_7_9_3/rearranged_h_0108.sdf

> <i_m_source_file_index>
85

> <r_mmod_Potential_Energy-OPLS-2005>
536.645568847656

> <r_mmod_Stretch_Energy-OPLS-2005>
307.522827148438

> <r_mmod_Bend_Energy-OPLS-2005>
299.397888183594

> <r_mmod_Torsional_Energy-OPLS-2005>
213.170150756836

> <r_mmod_Improper_Torsional_Energy-OPLS-2005>
4.20382261276245

> <r_mmod_Van_der_Waal_Energy-OPLS-2005>
108.199729919434

> <r_mmod_Electrostatic_Energy-OPLS-2005>
-424.493713378906

> <r_mmod_Solvation_Energy-OPLS-2005>
-208.761184692383

> <b_mmod_Minimization_Converged-OPLS-2005>
0

> <r_mmod_RMS_Derivative-OPLS-2005>
0.708613574504852

$$$$
85
                    3D
 Structure written by MMmdl.
176184  0  0  1  0            999 V2000
  -30.6993  -14.4356   20.6237 C   0  0  0  0  0  0
  -30.4280  -12.3055   19.4075 C   0  0  0  0  0  0
  -29.4907  -12.5268   18.2026 C   0  0  0  0  0  0
  -28.0113  -12.3875   18.6167 C   0  0  0  0  0  0
  -27.6626  -13.2097   19.8844 C   0  0  2  0  0  0
  -28.7047  -12.9402   20.9942 C   0  0  0  0  0  0
  -25.2557  -13.8172   20.5769 C   0  0  0  0  0  0
  -24.1816  -13.0441   20.9223 C   0  0  0  0  0  0
  -24.6385  -11.6910   20.8774 C   0  0  0  0  0  0
  -23.9046  -10.4300   21.0422 C   0  0  0  0  0  0
  -24.3604   -9.4204   21.9184 C   0  0  0  0  0  0
  -23.6300   -8.2231   22.0753 C   0  0  0  0  0  0
  -22.4279   -8.0273   21.3556 C   0  0  0  0  0  0
  -21.9921   -9.0249   20.4654 C   0  0  0  0  0  0
  -22.7235  -10.2129   20.3062 C   0  0  0  0  0  0
  -21.6846   -6.0749   22.5292 C   0  0  0  0  0  0
  -21.4005   -6.5652   23.8227 C   0  0  0  0  0  0
  -21.3667   -5.6801   24.9188 C   0  0  0  0  0  0
  -21.6057   -4.3064   24.7233 C   0  0  0  0  0  0
  -21.8815   -3.8154   23.4358 C   0  0  0  0  0  0
  -21.9187   -4.6975   22.3414 C   0  0  0  0  0  0
  -22.7830  -13.5206   21.1859 C   0  0  0  0  0  0
  -22.1630   -4.2176   21.0981 F   0  0  0  0  0  0
  -21.5668   -3.4535   25.7733 F   0  0  0  0  0  0
  -30.0372  -13.2603   20.4518 N   0  0  0  0  0  0
  -26.3022  -12.9359   20.3438 N   0  0  0  0  0  0
  -25.9314  -11.6511   20.5800 N   0  0  0  0  0  0
  -22.0470  -12.8231   22.0435 N   0  0  0  0  0  0
  -25.4220  -15.1906   20.4240 N   0  0  0  0  0  0
  -31.7932  -14.6822   20.1089 O   0  0  0  0  0  0
  -21.6627   -6.8878   21.4249 O   0  0  0  0  0  0
  -22.3484  -14.5474   20.6639 O   0  0  0  0  0  0
  -24.6124  -31.8680   23.2109 C   0  0  0  0  0  0
  -25.9027  -32.4827   23.8395 C   0  0  1  0  0  0
  -27.2455  -27.4546   20.1106 C   0  0  0  0  0  0
  -25.5897  -33.8623   24.2327 N   0  0  0  0  0  0
  -23.4010  -30.4899   21.5504 C   0  0  2  0  0  0
  -24.8518  -28.9555   20.1168 C   0  0  0  0  0  0
  -22.7396  -29.4659   22.5001 C   0  0  0  0  0  0
  -18.0266  -28.1381   22.8488 C   0  0  0  0  0  0
  -24.1486  -36.7315   23.2636 C   0  0  0  0  0  0
  -25.9253  -30.8438   21.3580 C   0  0  0  0  0  0
  -26.0091  -29.4785   20.7073 C   0  0  0  0  0  0
  -27.2110  -28.7385   20.6947 C   0  0  0  0  0  0
  -26.0737  -26.9370   19.5164 C   0  0  0  0  0  0
  -24.8791  -27.6844   19.5149 C   0  0  0  0  0  0
  -23.6097  -29.8181   20.1663 C   0  0  0  0  0  0
  -25.4111  -36.3109   24.0330 C   0  0  1  0  0  0
  -20.5851  -28.3666   23.1326 C   0  0  2  0  0  0
  -20.6757  -26.9408   22.5421 C   0  0  0  0  0  0
  -19.5743  -26.6393   21.5207 C   0  0  0  0  0  0
  -18.1915  -26.7927   22.1615 C   0  0  0  0  0  0
  -19.1512  -28.8837   23.2900 C   0  0  0  0  0  0
  -18.9446  -30.1443   23.8914 C   0  0  0  0  0  0
  -17.6448  -30.6587   24.0564 C   0  0  0  0  0  0
  -25.9037  -34.9476   23.5128 C   0  0  0  0  0  0
  -16.5339  -29.9095   23.6325 C   0  0  0  0  0  0
  -16.7252  -28.6511   23.0347 C   0  0  0  0  0  0
  -26.4470  -31.6601   25.0714 C   0  0  0  0  0  0
  -25.3742  -31.3691   26.1466 C   0  0  0  0  0  0
  -27.0297  -30.3052   24.6064 C   0  0  0  0  0  0
  -27.6056  -32.4314   25.7469 C   0  0  0  0  0  0
  -27.5579  -37.1807   24.8461 C   0  0  0  0  0  0
  -21.4124  -29.3031   22.3737 N   0  0  0  0  0  0
  -26.4294  -37.3796   23.9401 N   0  0  0  0  0  0
  -24.6645  -31.0807   22.0995 N   0  0  0  0  0  0
  -23.4160  -28.8200   23.3044 O   0  0  0  0  0  0
  -28.4141  -26.7286   20.1324 O   0  0  0  0  0  0
  -26.5601  -34.8920   22.4687 O   0  0  0  0  0  0
  -23.5332  -32.1421   23.7529 O   0  0  0  0  0  0
  -28.9612  -22.6046   21.7630 C   0  0  0  0  0  0
  -29.1604  -23.7186   23.8676 C   0  0  0  0  0  0
  -29.1989  -23.8054   22.4647 C   0  0  0  0  0  0
  -28.6373  -21.4063   22.4424 C   0  0  0  0  0  0
  -28.5233  -21.4562   23.8677 C   0  0  0  0  0  0
  -30.8063  -25.0002   20.9379 C   0  0  0  0  0  0
  -29.6119  -26.3376   22.6801 C   0  0  0  0  0  0
  -27.1734  -19.2280   24.2476 C   0  0  0  0  0  0
  -27.2522  -20.9289   26.0081 C   0  0  0  0  0  0
  -29.3255  -19.6336   25.4549 C   0  0  0  0  0  0
  -28.4473  -20.1614   21.5663 C   0  0  0  0  0  0
  -29.6477  -19.1882   21.6156 C   0  0  0  0  0  0
  -29.3276  -17.7429   21.1750 C   0  0  0  0  0  0
  -30.4165  -16.7384   21.6101 C   0  0  0  0  0  0
  -28.3091  -25.4270   20.7302 C   0  0  0  0  0  0
  -29.4793  -25.1310   21.7147 C   0  0  0  0  0  0
  -28.0860  -20.3197   24.8476 C   0  0  0  0  0  0
  -28.8539  -22.5908   24.5288 N   0  0  0  0  0  0
  -30.0231  -15.3555   21.3307 N   0  0  0  0  0  0
  -31.4728  -12.4214   19.1114 H   0  0  0  0  0  0
  -30.3352  -11.2857   19.7861 H   0  0  0  0  0  0
  -29.7286  -11.8209   17.4065 H   0  0  0  0  0  0
  -29.6544  -13.5231   17.7883 H   0  0  0  0  0  0
  -27.8094  -11.3318   18.8004 H   0  0  0  0  0  0
  -27.3626  -12.6865   17.7923 H   0  0  0  0  0  0
  -27.7148  -14.2654   19.6124 H   0  0  0  0  0  0
  -28.6815  -11.8883   21.2837 H   0  0  0  0  0  0
  -28.4650  -13.4882   21.9069 H   0  0  0  0  0  0
  -25.2749   -9.5709   22.4737 H   0  0  0  0  0  0
  -24.0042   -7.4640   22.7469 H   0  0  0  0  0  0
  -21.0862   -8.8795   19.8948 H   0  0  0  0  0  0
  -22.3722  -10.9676   19.6168 H   0  0  0  0  0  0
  -21.1962   -7.6158   23.9739 H   0  0  0  0  0  0
  -21.1493   -6.0522   25.9087 H   0  0  0  0  0  0
  -22.0579   -2.7619   23.2848 H   0  0  0  0  0  0
  -22.4035  -11.9871   22.4846 H   0  0  0  0  0  0
  -21.1087  -13.1264   22.2590 H   0  0  0  0  0  0
  -24.6595  -15.8459   20.5593 H   0  0  0  0  0  0
  -26.2896  -15.6426   20.1680 H   0  0  0  0  0  0
  -26.7106  -32.5549   23.1169 H   0  0  0  0  0  0
  -25.0040  -33.9800   25.0470 H   0  0  0  0  0  0
  -22.6877  -31.3049   21.4111 H   0  0  0  0  0  0
  -23.3746  -35.9652   23.3316 H   0  0  0  0  0  0
  -24.3572  -36.8920   22.2047 H   0  0  0  0  0  0
  -23.7253  -37.6527   23.6650 H   0  0  0  0  0  0
  -26.0300  -31.6095   20.5876 H   0  0  0  0  0  0
  -26.8150  -30.9028   21.9733 H   0  0  0  0  0  0
  -28.1068  -29.1392   21.1472 H   0  0  0  0  0  0
  -26.0844  -25.9581   19.0562 H   0  0  0  0  0  0
  -23.9894  -27.2768   19.0554 H   0  0  0  0  0  0
  -23.7099  -30.5903   19.4025 H   0  0  0  0  0  0
  -22.7351  -29.2329   19.8773 H   0  0  0  0  0  0
  -25.1289  -36.1973   25.0826 H   0  0  0  0  0  0
  -20.9943  -28.3237   24.1445 H   0  0  0  0  0  0
  -20.5669  -26.2264   23.3602 H   0  0  0  0  0  0
  -21.6625  -26.7456   22.1206 H   0  0  0  0  0  0
  -19.6909  -25.6310   21.1225 H   0  0  0  0  0  0
  -19.6693  -27.3208   20.6745 H   0  0  0  0  0  0
  -17.4185  -26.6671   21.4015 H   0  0  0  0  0  0
  -18.0324  -26.0061   22.9007 H   0  0  0  0  0  0
  -19.7926  -30.7247   24.2294 H   0  0  0  0  0  0
  -17.5014  -31.6273   24.5162 H   0  0  0  0  0  0
  -15.5348  -30.3007   23.7654 H   0  0  0  0  0  0
  -15.8644  -28.0846   22.7059 H   0  0  0  0  0  0
  -24.5913  -30.7050   25.7790 H   0  0  0  0  0  0
  -24.8931  -32.2838   26.4939 H   0  0  0  0  0  0
  -25.8092  -30.8832   27.0207 H   0  0  0  0  0  0
  -26.2833  -29.6815   24.1139 H   0  0  0  0  0  0
  -27.4109  -29.7284   25.4498 H   0  0  0  0  0  0
  -27.8640  -30.4377   23.9172 H   0  0  0  0  0  0
  -27.2699  -33.3613   26.2066 H   0  0  0  0  0  0
  -28.3853  -32.6877   25.0285 H   0  0  0  0  0  0
  -28.0737  -31.8421   26.5363 H   0  0  0  0  0  0
  -28.2604  -38.0097   24.7507 H   0  0  0  0  0  0
  -28.1068  -36.2629   24.6294 H   0  0  0  0  0  0
  -27.2287  -37.1468   25.8862 H   0  0  0  0  0  0
  -20.9293  -29.8737   21.6943 H   0  0  0  0  0  0
  -26.0183  -38.2871   24.1417 H   0  0  0  0  0  0
  -29.0155  -22.6043   20.6845 H   0  0  0  0  0  0
  -29.3525  -24.5687   24.5041 H   0  0  0  0  0  0
  -31.6453  -24.8084   21.6083 H   0  0  0  0  0  0
  -31.0348  -25.9149   20.3904 H   0  0  0  0  0  0
  -30.7816  -24.1899   20.2090 H   0  0  0  0  0  0
  -30.4216  -26.2078   23.4008 H   0  0  0  0  0  0
  -28.6864  -26.5149   23.2312 H   0  0  0  0  0  0
  -29.8346  -27.2592   22.1411 H   0  0  0  0  0  0
  -26.3244  -19.6621   23.7192 H   0  0  0  0  0  0
  -26.7601  -18.5820   25.0228 H   0  0  0  0  0  0
  -27.7067  -18.5519   23.5860 H   0  0  0  0  0  0
  -26.4135  -21.5099   25.6204 H   0  0  0  0  0  0
  -27.8488  -21.5959   26.6324 H   0  0  0  0  0  0
  -26.8519  -20.1682   26.6789 H   0  0  0  0  0  0
  -29.8939  -19.0732   24.7166 H   0  0  0  0  0  0
  -29.0466  -18.9281   26.2376 H   0  0  0  0  0  0
  -30.0041  -20.3616   25.8972 H   0  0  0  0  0  0
  -28.3074  -20.4702   20.5281 H   0  0  0  0  0  0
  -27.5011  -19.6813   21.7879 H   0  0  0  0  0  0
  -30.0437  -19.1470   22.6248 H   0  0  0  0  0  0
  -30.4630  -19.5895   21.0127 H   0  0  0  0  0  0
  -29.2219  -17.7135   20.0900 H   0  0  0  0  0  0
  -28.3649  -17.4338   21.5871 H   0  0  0  0  0  0
  -31.3726  -16.9865   21.1442 H   0  0  0  0  0  0
  -30.5688  -16.8183   22.6877 H   0  0  0  0  0  0
  -27.3715  -25.3304   21.2850 H   0  0  0  0  0  0
  -28.2689  -24.6823   19.9346 H   0  0  0  0  0  0
  -29.1308  -15.0509   21.6894 H   0  0  0  0  0  0
  1 25  1  0  0  0
  1 30  2  0  0  0
  1 89  1  0  0  0
  2  3  1  0  0  0
  2 25  1  0  0  0
  2 90  1  0  0  0
  2 91  1  0  0  0
  3  4  1  0  0  0
  3 92  1  0  0  0
  3 93  1  0  0  0
  4  5  1  0  0  0
  4 94  1  0  0  0
  4 95  1  0  0  0
  5  6  1  0  0  0
  5 26  1  0  0  0
  5 96  1  0  0  0
  6 25  1  0  0  0
  6 97  1  0  0  0
  6 98  1  0  0  0
  7  8  2  0  0  0
  7 26  1  0  0  0
  7 29  1  0  0  0
  8  9  1  0  0  0
  8 22  1  0  0  0
  9 10  1  0  0  0
  9 27  2  0  0  0
 10 11  2  0  0  0
 10 15  1  0  0  0
 11 12  1  0  0  0
 11 99  1  0  0  0
 12 13  2  0  0  0
 12100  1  0  0  0
 13 14  1  0  0  0
 13 31  1  0  0  0
 14 15  2  0  0  0
 14101  1  0  0  0
 15102  1  0  0  0
 16 17  2  0  0  0
 16 21  1  0  0  0
 16 31  1  0  0  0
 17 18  1  0  0  0
 17103  1  0  0  0
 18 19  2  0  0  0
 18104  1  0  0  0
 19 20  1  0  0  0
 19 24  1  0  0  0
 20 21  2  0  0  0
 20105  1  0  0  0
 21 23  1  0  0  0
 22 28  1  0  0  0
 22 32  2  0  0  0
 26 27  1  0  0  0
 28106  1  0  0  0
 28107  1  0  0  0
 29108  1  0  0  0
 29109  1  0  0  0
 33 34  1  0  0  0
 33 66  1  0  0  0
 33 70  2  0  0  0
 34 36  1  0  0  0
 34 59  1  0  0  0
 34110  1  0  0  0
 35 44  2  0  0  0
 35 45  1  0  0  0
 35 68  1  0  0  0
 36 56  1  0  0  0
 36111  1  0  0  0
 37 39  1  0  0  0
 37 47  1  0  0  0
 37 66  1  0  0  0
 37112  1  0  0  0
 38 43  2  0  0  0
 38 46  1  0  0  0
 38 47  1  0  0  0
 39 64  1  0  0  0
 39 67  2  0  0  0
 40 52  1  0  0  0
 40 53  2  0  0  0
 40 58  1  0  0  0
 41113  1  0  0  0
 41114  1  0  0  0
 41115  1  0  0  0
 41 48  1  0  0  0
 42 43  1  0  0  0
 42 66  1  0  0  0
 42116  1  0  0  0
 42117  1  0  0  0
 43 44  1  0  0  0
 44118  1  0  0  0
 45 46  2  0  0  0
 45119  1  0  0  0
 46120  1  0  0  0
 47121  1  0  0  0
 47122  1  0  0  0
 48 56  1  0  0  0
 48 65  1  0  0  0
 48123  1  0  0  0
 49 50  1  0  0  0
 49 53  1  0  0  0
 49 64  1  0  0  0
 49124  1  0  0  0
 50 51  1  0  0  0
 50125  1  0  0  0
 50126  1  0  0  0
 51 52  1  0  0  0
 51127  1  0  0  0
 51128  1  0  0  0
 52129  1  0  0  0
 52130  1  0  0  0
 53 54  1  0  0  0
 54 55  2  0  0  0
 54131  1  0  0  0
 55 57  1  0  0  0
 55132  1  0  0  0
 56 69  2  0  0  0
 57 58  2  0  0  0
 57133  1  0  0  0
 58134  1  0  0  0
 59 60  1  0  0  0
 59 61  1  0  0  0
 59 62  1  0  0  0
 60135  1  0  0  0
 60136  1  0  0  0
 60137  1  0  0  0
 61138  1  0  0  0
 61139  1  0  0  0
 61140  1  0  0  0
 62141  1  0  0  0
 62142  1  0  0  0
 62143  1  0  0  0
 63 65  1  0  0  0
 63144  1  0  0  0
 63145  1  0  0  0
 63146  1  0  0  0
 64147  1  0  0  0
 65148  1  0  0  0
 68 85  1  0  0  0
 71 73  2  0  0  0
 71 74  1  0  0  0
 71149  1  0  0  0
 72 73  1  0  0  0
 72 88  2  0  0  0
 72150  1  0  0  0
 73 86  1  0  0  0
 74 75  2  0  0  0
 74 81  1  0  0  0
 75 87  1  0  0  0
 75 88  1  0  0  0
 76151  1  0  0  0
 76152  1  0  0  0
 76153  1  0  0  0
 76 86  1  0  0  0
 77 86  1  0  0  0
 77154  1  0  0  0
 77155  1  0  0  0
 77156  1  0  0  0
 78157  1  0  0  0
 78158  1  0  0  0
 78159  1  0  0  0
 78 87  1  0  0  0
 79 87  1  0  0  0
 79160  1  0  0  0
 79161  1  0  0  0
 79162  1  0  0  0
 80 87  1  0  0  0
 80163  1  0  0  0
 80164  1  0  0  0
 80165  1  0  0  0
 81 82  1  0  0  0
 81166  1  0  0  0
 81167  1  0  0  0
 82 83  1  0  0  0
 82168  1  0  0  0
 82169  1  0  0  0
 83 84  1  0  0  0
 83170  1  0  0  0
 83171  1  0  0  0
 84 89  1  0  0  0
 84172  1  0  0  0
 84173  1  0  0  0
 85 86  1  0  0  0
 85174  1  0  0  0
 85175  1  0  0  0
 89176  1  0  0  0
M  ISO  4   1 100  68 101  85 101  89 100
M  END
> <chiral flag>
0

> <version>
0

> <s_m_source_file>
/data/baiqing/PycharmProjects/Reinvent-master-3.2/result/LINK_invent/BTK/process_docking_weight1_custom_sum_contain_oxygen_bond_distance_aromatic_linkinvent_7_9_3/rearranged_h_0108.sdf

> <i_m_source_file_index>
86

> <r_mmod_Potential_Energy-OPLS-2005>
-209.976837158203

> <r_mmod_Stretch_Energy-OPLS-2005>
43.5341300964355

> <r_mmod_Bend_Energy-OPLS-2005>
122.305892944336

> <r_mmod_Torsional_Energy-OPLS-2005>
216.853988647461

> <r_mmod_Improper_Torsional_Energy-OPLS-2005>
2.3051118850708

> <r_mmod_Van_der_Waal_Energy-OPLS-2005>
173.481262207031

> <r_mmod_Electrostatic_Energy-OPLS-2005>
-570.453857421875

> <r_mmod_Solvation_Energy-OPLS-2005>
-207.676177978516

> <b_mmod_Minimization_Converged-OPLS-2005>
0

> <r_mmod_RMS_Derivative-OPLS-2005>
3.80119657516479

$$$$
86
                    3D
 Structure written by MMmdl.
149156  0  0  1  0            999 V2000
  -30.1584  -16.0050   20.3107 C   0  0  0  0  0  0
  -30.3932  -13.3693   19.5243 C   0  0  0  0  0  0
  -29.5644  -12.7572   18.3470 C   0  0  0  0  0  0
  -28.1677  -12.3212   18.8091 C   0  0  0  0  0  0
  -27.5835  -13.3475   19.8004 C   0  0  2  0  0  0
  -28.5772  -13.8376   20.8892 C   0  0  0  0  0  0
  -25.2279  -13.8332   20.5839 C   0  0  0  0  0  0
  -24.1711  -13.0429   20.9306 C   0  0  0  0  0  0
  -24.6465  -11.6958   20.8750 C   0  0  0  0  0  0
  -23.9165  -10.4287   21.0374 C   0  0  0  0  0  0
  -24.3686   -9.4198   21.9163 C   0  0  0  0  0  0
  -23.6333   -8.2247   22.0748 C   0  0  0  0  0  0
  -22.4309   -8.0291   21.3539 C   0  0  0  0  0  0
  -21.9963   -9.0270   20.4637 C   0  0  0  0  0  0
  -22.7321  -10.2134   20.3032 C   0  0  0  0  0  0
  -21.6865   -6.0741   22.5272 C   0  0  0  0  0  0
  -21.4026   -6.5641   23.8205 C   0  0  0  0  0  0
  -21.3664   -5.6790   24.9167 C   0  0  0  0  0  0
  -21.6042   -4.3053   24.7214 C   0  0  0  0  0  0
  -21.8820   -3.8146   23.4334 C   0  0  0  0  0  0
  -21.9197   -4.6965   22.3394 C   0  0  0  0  0  0
  -22.7710  -13.5135   21.1917 C   0  0  0  0  0  0
  -22.1661   -4.2150   21.0971 F   0  0  0  0  0  0
  -21.5631   -3.4532   25.7726 F   0  0  0  0  0  0
  -29.6776  -14.5801   20.1968 N   0  0  0  0  0  0
  -26.2770  -12.9740   20.3251 N   0  0  0  0  0  0
  -25.9426  -11.6765   20.5653 N   0  0  0  0  0  0
  -22.0385  -12.8105   22.0469 N   0  0  0  0  0  0
  -25.3811  -15.2081   20.4290 N   0  0  0  0  0  0
  -31.4056  -15.8754   20.2751 O   0  0  0  0  0  0
  -21.6656   -6.8896   21.4238 O   0  0  0  0  0  0
  -22.3372  -14.5423   20.6747 O   0  0  0  0  0  0
  -24.7095  -31.7702   23.1311 C   0  0  0  0  0  0
  -25.9553  -32.4324   23.7941 C   0  0  1  0  0  0
  -27.2316  -26.4344   20.2517 C   0  0  0  0  0  0
  -25.6035  -33.8164   24.1811 N   0  0  0  0  0  0
  -23.5468  -30.3608   21.4920 C   0  0  2  0  0  0
  -25.0029  -28.6409   20.1372 C   0  0  0  0  0  0
  -22.7882  -29.4166   22.4658 C   0  0  0  0  0  0
  -18.0366  -28.1439   22.8449 C   0  0  0  0  0  0
  -24.1496  -36.7085   23.2656 C   0  0  0  0  0  0
  -26.1375  -30.4152   21.4346 C   0  0  0  0  0  0
  -26.1985  -28.9476   20.7963 C   0  0  0  0  0  0
  -27.2880  -27.8839   20.8069 C   0  0  0  0  0  0
  -25.9955  -26.4041   19.5357 C   0  0  0  0  0  0
  -24.9557  -27.3972   19.4804 C   0  0  0  0  0  0
  -23.8159  -29.6318   20.1409 C   0  0  0  0  0  0
  -25.4158  -36.2809   24.0262 C   0  0  1  0  0  0
  -20.6008  -28.3814   23.1106 C   0  0  2  0  0  0
  -20.6817  -26.9451   22.5410 C   0  0  0  0  0  0
  -19.5792  -26.6370   21.5228 C   0  0  0  0  0  0
  -18.1975  -26.7966   22.1620 C   0  0  0  0  0  0
  -19.1628  -28.8957   23.2749 C   0  0  0  0  0  0
  -18.9524  -30.1534   23.8805 C   0  0  0  0  0  0
  -17.6515  -30.6615   24.0549 C   0  0  0  0  0  0
  -25.9152  -34.9212   23.4889 C   0  0  0  0  0  0
  -16.5404  -29.9089   23.6357 C   0  0  0  0  0  0
  -16.7336  -28.6514   23.0376 C   0  0  0  0  0  0
  -26.4640  -31.6471   25.0672 C   0  0  0  0  0  0
  -25.3637  -31.3878   26.1238 C   0  0  0  0  0  0
  -27.0606  -30.2779   24.6767 C   0  0  0  0  0  0
  -27.6050  -32.4387   25.7506 C   0  0  0  0  0  0
  -27.5553  -37.1705   24.8467 C   0  0  0  0  0  0
  -21.4506  -29.3014   22.3403 N   0  0  0  0  0  0
  -26.4258  -37.3601   23.9406 N   0  0  0  0  0  0
  -24.8247  -30.8886   22.0711 N   0  0  0  0  0  0
  -23.4201  -28.7805   23.3122 O   0  0  0  0  0  0
  -28.1963  -25.1221   20.2063 O   0  0  0  0  0  0
  -26.5809  -34.8839   22.4516 O   0  0  0  0  0  0
  -23.6061  -32.0889   23.6115 O   0  0  0  0  0  0
  -27.0221  -19.6539   18.6379 C   0  0  0  0  0  0
  -29.5350  -21.4924   18.7386 C   0  0  0  0  0  0
  -29.3665  -19.3607   20.5811 C   0  0  0  0  0  0
  -28.2879  -23.2527   20.5514 C   0  0  0  0  0  0
  -27.2129  -20.9000   19.5216 C   0  0  2  0  0  0
  -28.6538  -21.2507   19.9759 C   0  0  1  0  0  0
  -29.4011  -17.4680   20.2875 N   0  0  0  0  0  0
  -26.4705  -20.7320   20.6161 F   0  0  0  0  0  0
  -31.3543  -13.6916   19.1220 H   0  0  0  0  0  0
  -30.6464  -12.5978   20.2537 H   0  0  0  0  0  0
  -30.0965  -11.9161   17.8993 H   0  0  0  0  0  0
  -29.4650  -13.5072   17.5607 H   0  0  0  0  0  0
  -28.2612  -11.3537   19.3038 H   0  0  0  0  0  0
  -27.5032  -12.1736   17.9558 H   0  0  0  0  0  0
  -27.3923  -14.2182   19.1711 H   0  0  0  0  0  0
  -28.9289  -13.0204   21.5217 H   0  0  0  0  0  0
  -28.0762  -14.5398   21.5569 H   0  0  0  0  0  0
  -25.2828   -9.5662   22.4744 H   0  0  0  0  0  0
  -24.0023   -7.4641   22.7485 H   0  0  0  0  0  0
  -21.0883   -8.8803   19.8955 H   0  0  0  0  0  0
  -22.3779  -10.9672   19.6140 H   0  0  0  0  0  0
  -21.2022   -7.6148   23.9709 H   0  0  0  0  0  0
  -21.1492   -6.0520   25.9073 H   0  0  0  0  0  0
  -22.0597   -2.7605   23.2830 H   0  0  0  0  0  0
  -22.4055  -11.9800   22.4871 H   0  0  0  0  0  0
  -21.0982  -13.1077   22.2651 H   0  0  0  0  0  0
  -24.6076  -15.8544   20.5419 H   0  0  0  0  0  0
  -26.2213  -15.6498   20.0819 H   0  0  0  0  0  0
  -26.7661  -32.4732   23.0666 H   0  0  0  0  0  0
  -25.0109  -33.9155   24.9921 H   0  0  0  0  0  0
  -22.8884  -31.2050   21.2776 H   0  0  0  0  0  0
  -23.3783  -35.9388   23.3253 H   0  0  0  0  0  0
  -24.3557  -36.8823   22.2083 H   0  0  0  0  0  0
  -23.7230  -37.6230   23.6789 H   0  0  0  0  0  0
  -26.3654  -31.1176   20.6320 H   0  0  0  0  0  0
  -26.9813  -30.4961   22.1066 H   0  0  0  0  0  0
  -28.1920  -28.1469   21.3383 H   0  0  0  0  0  0
  -25.7886  -25.4857   19.0056 H   0  0  0  0  0  0
  -24.0633  -27.1496   18.9216 H   0  0  0  0  0  0
  -24.0237  -30.3775   19.3728 H   0  0  0  0  0  0
  -22.9143  -29.1165   19.8048 H   0  0  0  0  0  0
  -25.1378  -36.1535   25.0749 H   0  0  0  0  0  0
  -21.0075  -28.3459   24.1240 H   0  0  0  0  0  0
  -20.5682  -26.2442   23.3691 H   0  0  0  0  0  0
  -21.6672  -26.7376   22.1224 H   0  0  0  0  0  0
  -19.6940  -25.6256   21.1321 H   0  0  0  0  0  0
  -19.6739  -27.3129   20.6716 H   0  0  0  0  0  0
  -17.4249  -26.6729   21.4017 H   0  0  0  0  0  0
  -18.0343  -26.0130   22.9030 H   0  0  0  0  0  0
  -19.8002  -30.7374   24.2140 H   0  0  0  0  0  0
  -17.5062  -31.6286   24.5163 H   0  0  0  0  0  0
  -15.5399  -30.2957   23.7737 H   0  0  0  0  0  0
  -15.8743  -28.0796   22.7145 H   0  0  0  0  0  0
  -24.5864  -30.7177   25.7532 H   0  0  0  0  0  0
  -24.8774  -32.3128   26.4350 H   0  0  0  0  0  0
  -25.7748  -30.9245   27.0215 H   0  0  0  0  0  0
  -26.3363  -29.6322   24.1789 H   0  0  0  0  0  0
  -27.3950  -29.7323   25.5600 H   0  0  0  0  0  0
  -27.9380  -30.3835   24.0387 H   0  0  0  0  0  0
  -27.2568  -33.3795   26.1780 H   0  0  0  0  0  0
  -28.4020  -32.6778   25.0453 H   0  0  0  0  0  0
  -28.0540  -31.8717   26.5668 H   0  0  0  0  0  0
  -28.2529  -38.0035   24.7507 H   0  0  0  0  0  0
  -28.1085  -36.2555   24.6303 H   0  0  0  0  0  0
  -27.2268  -37.1352   25.8868 H   0  0  0  0  0  0
  -20.9883  -29.8619   21.6381 H   0  0  0  0  0  0
  -26.0061  -38.2636   24.1421 H   0  0  0  0  0  0
  -27.6131  -19.6998   17.7236 H   0  0  0  0  0  0
  -25.9780  -19.5655   18.3385 H   0  0  0  0  0  0
  -27.2707  -18.7315   19.1582 H   0  0  0  0  0  0
  -30.5184  -21.8614   19.0308 H   0  0  0  0  0  0
  -29.0891  -22.2314   18.0717 H   0  0  0  0  0  0
  -29.6879  -20.5795   18.1636 H   0  0  0  0  0  0
  -28.9320  -19.3360   21.5809 H   0  0  0  0  0  0
  -30.4195  -19.5597   20.7797 H   0  0  0  0  0  0
  -29.0498  -23.3246   21.3281 H   0  0  0  0  0  0
  -27.3688  -23.1474   21.1277 H   0  0  0  0  0  0
  -26.7818  -21.7544   18.9974 H   0  0  0  0  0  0
  -28.4371  -17.2124   20.1248 H   0  0  0  0  0  0
  1 25  1  0  0  0
  1 30  2  0  0  0
  1 77  1  0  0  0
  2  3  1  0  0  0
  2 25  1  0  0  0
  2 79  1  0  0  0
  2 80  1  0  0  0
  3  4  1  0  0  0
  3 81  1  0  0  0
  3 82  1  0  0  0
  4  5  1  0  0  0
  4 83  1  0  0  0
  4 84  1  0  0  0
  5  6  1  0  0  0
  5 26  1  0  0  0
  5 85  1  0  0  0
  6 25  1  0  0  0
  6 86  1  0  0  0
  6 87  1  0  0  0
  7  8  2  0  0  0
  7 26  1  0  0  0
  7 29  1  0  0  0
  8  9  1  0  0  0
  8 22  1  0  0  0
  9 10  1  0  0  0
  9 27  2  0  0  0
 10 11  2  0  0  0
 10 15  1  0  0  0
 11 12  1  0  0  0
 11 88  1  0  0  0
 12 13  2  0  0  0
 12 89  1  0  0  0
 13 14  1  0  0  0
 13 31  1  0  0  0
 14 15  2  0  0  0
 14 90  1  0  0  0
 15 91  1  0  0  0
 16 17  2  0  0  0
 16 21  1  0  0  0
 16 31  1  0  0  0
 17 18  1  0  0  0
 17 92  1  0  0  0
 18 19  2  0  0  0
 18 93  1  0  0  0
 19 20  1  0  0  0
 19 24  1  0  0  0
 20 21  2  0  0  0
 20 94  1  0  0  0
 21 23  1  0  0  0
 22 28  1  0  0  0
 22 32  2  0  0  0
 26 27  1  0  0  0
 28 95  1  0  0  0
 28 96  1  0  0  0
 29 97  1  0  0  0
 29 98  1  0  0  0
 33 34  1  0  0  0
 33 66  1  0  0  0
 33 70  2  0  0  0
 34 36  1  0  0  0
 34 59  1  0  0  0
 34 99  1  0  0  0
 35 44  2  0  0  0
 35 45  1  0  0  0
 35 68  1  0  0  0
 36 56  1  0  0  0
 36100  1  0  0  0
 37 39  1  0  0  0
 37 47  1  0  0  0
 37 66  1  0  0  0
 37101  1  0  0  0
 38 43  2  0  0  0
 38 46  1  0  0  0
 38 47  1  0  0  0
 39 64  1  0  0  0
 39 67  2  0  0  0
 40 52  1  0  0  0
 40 53  2  0  0  0
 40 58  1  0  0  0
 41102  1  0  0  0
 41103  1  0  0  0
 41104  1  0  0  0
 41 48  1  0  0  0
 42 43  1  0  0  0
 42 66  1  0  0  0
 42105  1  0  0  0
 42106  1  0  0  0
 43 44  1  0  0  0
 44107  1  0  0  0
 45 46  2  0  0  0
 45108  1  0  0  0
 46109  1  0  0  0
 47110  1  0  0  0
 47111  1  0  0  0
 48 56  1  0  0  0
 48 65  1  0  0  0
 48112  1  0  0  0
 49 50  1  0  0  0
 49 53  1  0  0  0
 49 64  1  0  0  0
 49113  1  0  0  0
 50 51  1  0  0  0
 50114  1  0  0  0
 50115  1  0  0  0
 51 52  1  0  0  0
 51116  1  0  0  0
 51117  1  0  0  0
 52118  1  0  0  0
 52119  1  0  0  0
 53 54  1  0  0  0
 54 55  2  0  0  0
 54120  1  0  0  0
 55 57  1  0  0  0
 55121  1  0  0  0
 56 69  2  0  0  0
 57 58  2  0  0  0
 57122  1  0  0  0
 58123  1  0  0  0
 59 60  1  0  0  0
 59 61  1  0  0  0
 59 62  1  0  0  0
 60124  1  0  0  0
 60125  1  0  0  0
 60126  1  0  0  0
 61127  1  0  0  0
 61128  1  0  0  0
 61129  1  0  0  0
 62130  1  0  0  0
 62131  1  0  0  0
 62132  1  0  0  0
 63 65  1  0  0  0
 63133  1  0  0  0
 63134  1  0  0  0
 63135  1  0  0  0
 64136  1  0  0  0
 65137  1  0  0  0
 68 74  1  0  0  0
 71138  1  0  0  0
 71139  1  0  0  0
 71140  1  0  0  0
 71 75  1  0  0  0
 72141  1  0  0  0
 72142  1  0  0  0
 72143  1  0  0  0
 72 76  1  0  0  0
 73 76  1  0  0  0
 73 77  1  0  0  0
 73144  1  0  0  0
 73145  1  0  0  0
 74 76  1  0  0  0
 74146  1  0  0  0
 74147  1  0  0  0
 75 76  1  0  0  0
 75 78  1  0  0  0
 75148  1  0  0  0
 77149  1  0  0  0
M  ISO  4   1 100  68 101  74 101  77 100
M  END
> <chiral flag>
0

> <version>
0

> <s_m_source_file>
/data/baiqing/PycharmProjects/Reinvent-master-3.2/result/LINK_invent/BTK/process_docking_weight1_custom_sum_contain_oxygen_bond_distance_aromatic_linkinvent_7_9_3/rearranged_h_0108.sdf

> <i_m_source_file_index>
87

> <r_mmod_Potential_Energy-OPLS-2005>
4213.2451171875

> <r_mmod_Stretch_Energy-OPLS-2005>
1945.79870605469

> <r_mmod_Bend_Energy-OPLS-2005>
917.225158691406

> <r_mmod_Torsional_Energy-OPLS-2005>
268.505706787109

> <r_mmod_Improper_Torsional_Energy-OPLS-2005>
4.91038131713867

> <r_mmod_Van_der_Waal_Energy-OPLS-2005>
113.435279846191

> <r_mmod_Electrostatic_Energy-OPLS-2005>
-360.82861328125

> <r_mmod_Solvation_Energy-OPLS-2005>
-214.558288574219

> <b_mmod_Minimization_Converged-OPLS-2005>
0

> <r_mmod_RMS_Derivative-OPLS-2005>
1.64405536651611

$$$$
87
                    3D
 Structure written by MMmdl.
163171  0  0  1  0            999 V2000
  -30.4935  -15.0315   20.4131 C   0  0  0  0  0  0
  -30.4503  -12.6462   19.4874 C   0  0  0  0  0  0
  -29.5278  -12.5293   18.2503 C   0  0  0  0  0  0
  -28.0663  -12.2884   18.6792 C   0  0  0  0  0  0
  -27.6218  -13.2424   19.8181 C   0  0  2  0  0  0
  -28.6652  -13.3099   20.9502 C   0  0  0  0  0  0
  -25.2445  -13.8176   20.5701 C   0  0  0  0  0  0
  -24.1774  -13.0419   20.9224 C   0  0  0  0  0  0
  -24.6377  -11.6897   20.8731 C   0  0  0  0  0  0
  -23.9062  -10.4276   21.0406 C   0  0  0  0  0  0
  -24.3611   -9.4196   21.9191 C   0  0  0  0  0  0
  -23.6284   -8.2236   22.0760 C   0  0  0  0  0  0
  -22.4261   -8.0268   21.3553 C   0  0  0  0  0  0
  -21.9902   -9.0243   20.4653 C   0  0  0  0  0  0
  -22.7236  -10.2122   20.3060 C   0  0  0  0  0  0
  -21.6849   -6.0730   22.5282 C   0  0  0  0  0  0
  -21.4006   -6.5631   23.8215 C   0  0  0  0  0  0
  -21.3656   -5.6788   24.9178 C   0  0  0  0  0  0
  -21.6043   -4.3049   24.7239 C   0  0  0  0  0  0
  -21.8811   -3.8147   23.4355 C   0  0  0  0  0  0
  -21.9182   -4.6961   22.3408 C   0  0  0  0  0  0
  -22.7795  -13.5200   21.1880 C   0  0  0  0  0  0
  -22.1657   -4.2148   21.0991 F   0  0  0  0  0  0
  -21.5635   -3.4528   25.7753 F   0  0  0  0  0  0
  -29.9231  -13.7559   20.3343 N   0  0  0  0  0  0
  -26.2842  -12.9406   20.3128 N   0  0  0  0  0  0
  -25.9299  -11.6543   20.5666 N   0  0  0  0  0  0
  -22.0436  -12.8218   22.0427 N   0  0  0  0  0  0
  -25.4101  -15.1927   20.4160 N   0  0  0  0  0  0
  -31.7182  -15.0993   20.2647 O   0  0  0  0  0  0
  -21.6629   -6.8871   21.4243 O   0  0  0  0  0  0
  -22.3486  -14.5512   20.6716 O   0  0  0  0  0  0
  -24.6496  -31.8372   23.1834 C   0  0  0  0  0  0
  -25.9246  -32.4658   23.8243 C   0  0  1  0  0  0
  -27.2197  -27.0754   20.1632 C   0  0  0  0  0  0
  -25.5964  -33.8464   24.2152 N   0  0  0  0  0  0
  -23.4567  -30.4550   21.5295 C   0  0  2  0  0  0
  -24.9106  -28.8690   20.1145 C   0  0  0  0  0  0
  -22.7588  -29.4526   22.4834 C   0  0  0  0  0  0
  -18.0299  -28.1428   22.8473 C   0  0  0  0  0  0
  -24.1498  -36.7238   23.2636 C   0  0  0  0  0  0
  -26.0186  -30.6922   21.3939 C   0  0  0  0  0  0
  -26.0912  -29.2984   20.7342 C   0  0  0  0  0  0
  -27.2488  -28.4204   20.7342 C   0  0  0  0  0  0
  -26.0109  -26.7599   19.5073 C   0  0  0  0  0  0
  -24.8862  -27.6158   19.4840 C   0  0  0  0  0  0
  -23.6906  -29.7796   20.1519 C   0  0  0  0  0  0
  -25.4132  -36.2998   24.0298 C   0  0  1  0  0  0
  -20.5919  -28.3749   23.1211 C   0  0  2  0  0  0
  -20.6798  -26.9444   22.5401 C   0  0  0  0  0  0
  -19.5774  -26.6401   21.5208 C   0  0  0  0  0  0
  -18.1950  -26.7970   22.1615 C   0  0  0  0  0  0
  -19.1564  -28.8908   23.2836 C   0  0  0  0  0  0
  -18.9481  -30.1499   23.8861 C   0  0  0  0  0  0
  -17.6483  -30.6618   24.0564 C   0  0  0  0  0  0
  -25.9080  -34.9376   23.5033 C   0  0  0  0  0  0
  -16.5368  -29.9115   23.6348 C   0  0  0  0  0  0
  -16.7280  -28.6538   23.0351 C   0  0  0  0  0  0
  -26.4551  -31.6561   25.0714 C   0  0  0  0  0  0
  -25.3713  -31.3806   26.1394 C   0  0  0  0  0  0
  -27.0424  -30.2937   24.6379 C   0  0  0  0  0  0
  -27.6049  -32.4366   25.7512 C   0  0  0  0  0  0
  -27.5578  -37.1768   24.8453 C   0  0  0  0  0  0
  -21.4277  -29.3047   22.3571 N   0  0  0  0  0  0
  -26.4287  -37.3728   23.9404 N   0  0  0  0  0  0
  -24.7283  -31.0177   22.0901 N   0  0  0  0  0  0
  -23.4190  -28.8060   23.3007 O   0  0  0  0  0  0
  -28.2650  -26.0609   20.1779 O   0  0  0  0  0  0
  -26.5681  -34.8892   22.4616 O   0  0  0  0  0  0
  -23.5595  -32.1285   23.6998 O   0  0  0  0  0  0
  -28.9137  -19.5974   18.9256 C   0  0  0  0  0  0
  -27.8280  -21.9769   19.2925 C   0  0  0  0  0  0
  -29.6361  -22.0486   20.9717 C   0  0  0  0  0  0
  -29.6000  -19.3236   20.3028 C   0  0  1  0  0  0
  -28.7480  -23.0433   20.0031 C   0  0  2  0  0  0
  -27.5605  -20.7253   16.1862 C   0  0  0  0  0  0
  -30.0841  -21.0106   16.5219 C   0  0  0  0  0  0
  -29.7125  -17.7225   20.9895 C   0  0  0  0  0  0
  -28.0029  -24.5276   20.4970 C   0  0  0  0  0  0
  -28.6752  -21.2843   17.0907 C   0  0  0  0  0  0
  -28.5314  -20.8773   18.5161 N   0  0  0  0  0  0
  -29.6667  -16.2081   20.4381 N   0  0  0  0  0  0
  -29.2979  -20.5316   21.2410 N   0  3  0  0  0  0
  -28.8602  -18.6415   18.1470 O   0  0  0  0  0  0
  -31.4761  -12.8347   19.1653 H   0  0  0  0  0  0
  -30.4737  -11.7076   20.0457 H   0  0  0  0  0  0
  -29.8687  -11.7266   17.5930 H   0  0  0  0  0  0
  -29.5868  -13.4475   17.6629 H   0  0  0  0  0  0
  -27.9891  -11.2551   19.0214 H   0  0  0  0  0  0
  -27.3989  -12.3771   17.8209 H   0  0  0  0  0  0
  -27.5687  -14.2302   19.3628 H   0  0  0  0  0  0
  -28.7785  -12.3398   21.4364 H   0  0  0  0  0  0
  -28.3459  -14.0098   21.7251 H   0  0  0  0  0  0
  -25.2773   -9.5662   22.4746 H   0  0  0  0  0  0
  -23.9994   -7.4617   22.7466 H   0  0  0  0  0  0
  -21.0836   -8.8765   19.8966 H   0  0  0  0  0  0
  -22.3696  -10.9658   19.6159 H   0  0  0  0  0  0
  -21.1995   -7.6140   23.9722 H   0  0  0  0  0  0
  -21.1489   -6.0517   25.9078 H   0  0  0  0  0  0
  -22.0592   -2.7605   23.2862 H   0  0  0  0  0  0
  -22.4062  -11.9895   22.4861 H   0  0  0  0  0  0
  -21.1043  -13.1238   22.2609 H   0  0  0  0  0  0
  -24.6328  -15.8348   20.5317 H   0  0  0  0  0  0
  -26.2327  -15.6343   20.0293 H   0  0  0  0  0  0
  -26.7308  -32.5275   23.0962 H   0  0  0  0  0  0
  -25.0065  -33.9580   25.0270 H   0  0  0  0  0  0
  -22.7614  -31.2816   21.3668 H   0  0  0  0  0  0
  -23.3761  -35.9569   23.3285 H   0  0  0  0  0  0
  -24.3566  -36.8894   22.2050 H   0  0  0  0  0  0
  -23.7253  -37.6424   23.6701 H   0  0  0  0  0  0
  -26.1843  -31.4444   20.6220 H   0  0  0  0  0  0
  -26.8833  -30.7423   22.0441 H   0  0  0  0  0  0
  -28.1520  -28.7473   21.2310 H   0  0  0  0  0  0
  -25.9154  -25.8056   19.0096 H   0  0  0  0  0  0
  -23.9887  -27.2831   18.9828 H   0  0  0  0  0  0
  -23.8334  -30.5517   19.3953 H   0  0  0  0  0  0
  -22.8066  -29.2235   19.8366 H   0  0  0  0  0  0
  -25.1322  -36.1811   25.0792 H   0  0  0  0  0  0
  -21.0001  -28.3368   24.1337 H   0  0  0  0  0  0
  -20.5695  -26.2352   23.3623 H   0  0  0  0  0  0
  -21.6665  -26.7464   22.1189 H   0  0  0  0  0  0
  -19.6931  -25.6298   21.1265 H   0  0  0  0  0  0
  -19.6734  -27.3185   20.6720 H   0  0  0  0  0  0
  -17.4216  -26.6686   21.4026 H   0  0  0  0  0  0
  -18.0366  -26.0132   22.9031 H   0  0  0  0  0  0
  -19.7955  -30.7330   24.2216 H   0  0  0  0  0  0
  -17.5031  -31.6286   24.5185 H   0  0  0  0  0  0
  -15.5369  -30.2997   23.7714 H   0  0  0  0  0  0
  -15.8676  -28.0848   22.7082 H   0  0  0  0  0  0
  -24.5858  -30.7197   25.7722 H   0  0  0  0  0  0
  -24.8946  -32.3012   26.4769 H   0  0  0  0  0  0
  -25.7954  -30.8995   27.0210 H   0  0  0  0  0  0
  -26.3070  -29.6646   24.1350 H   0  0  0  0  0  0
  -27.3935  -29.7273   25.5015 H   0  0  0  0  0  0
  -27.9024  -30.4128   23.9785 H   0  0  0  0  0  0
  -27.2593  -33.3657   26.2069 H   0  0  0  0  0  0
  -28.3875  -32.6965   25.0370 H   0  0  0  0  0  0
  -28.0718  -31.8526   26.5456 H   0  0  0  0  0  0
  -28.2567  -38.0093   24.7509 H   0  0  0  0  0  0
  -28.1101  -36.2609   24.6272 H   0  0  0  0  0  0
  -27.2284  -37.1400   25.8854 H   0  0  0  0  0  0
  -20.9502  -29.8729   21.6713 H   0  0  0  0  0  0
  -26.0137  -38.2787   24.1439 H   0  0  0  0  0  0
  -27.1348  -22.4995   18.6287 H   0  0  0  0  0  0
  -27.1603  -21.5157   20.0222 H   0  0  0  0  0  0
  -29.6747  -22.5238   21.9526 H   0  0  0  0  0  0
  -30.6712  -22.0791   20.6267 H   0  0  0  0  0  0
  -30.6386  -19.5082   20.0274 H   0  0  0  0  0  0
  -29.4414  -23.3694   19.2277 H   0  0  0  0  0  0
  -27.6291  -21.1487   15.1830 H   0  0  0  0  0  0
  -26.5745  -20.9800   16.5757 H   0  0  0  0  0  0
  -27.6094  -19.6408   16.0818 H   0  0  0  0  0  0
  -30.2376  -21.5698   15.5999 H   0  0  0  0  0  0
  -30.2525  -19.9589   16.2877 H   0  0  0  0  0  0
  -30.8662  -21.3308   17.2104 H   0  0  0  0  0  0
  -28.9048  -17.7048   21.7229 H   0  0  0  0  0  0
  -30.6116  -17.7365   21.6041 H   0  0  0  0  0  0
  -28.0345  -24.5017   21.5860 H   0  0  0  0  0  0
  -26.9471  -24.3634   20.2895 H   0  0  0  0  0  0
  -28.5878  -22.3717   17.0371 H   0  0  0  0  0  0
  -28.7079  -15.9244   20.3059 H   0  0  0  0  0  0
  -28.3255  -20.4718   21.4931 H   0  0  0  0  0  0
  -29.8003  -20.3188   22.0868 H   0  0  0  0  0  0
  1 25  1  0  0  0
  1 30  2  0  0  0
  1 82  1  0  0  0
  2  3  1  0  0  0
  2 25  1  0  0  0
  2 85  1  0  0  0
  2 86  1  0  0  0
  3  4  1  0  0  0
  3 87  1  0  0  0
  3 88  1  0  0  0
  4  5  1  0  0  0
  4 89  1  0  0  0
  4 90  1  0  0  0
  5  6  1  0  0  0
  5 26  1  0  0  0
  5 91  1  0  0  0
  6 25  1  0  0  0
  6 92  1  0  0  0
  6 93  1  0  0  0
  7  8  2  0  0  0
  7 26  1  0  0  0
  7 29  1  0  0  0
  8  9  1  0  0  0
  8 22  1  0  0  0
  9 10  1  0  0  0
  9 27  2  0  0  0
 10 11  2  0  0  0
 10 15  1  0  0  0
 11 12  1  0  0  0
 11 94  1  0  0  0
 12 13  2  0  0  0
 12 95  1  0  0  0
 13 14  1  0  0  0
 13 31  1  0  0  0
 14 15  2  0  0  0
 14 96  1  0  0  0
 15 97  1  0  0  0
 16 17  2  0  0  0
 16 21  1  0  0  0
 16 31  1  0  0  0
 17 18  1  0  0  0
 17 98  1  0  0  0
 18 19  2  0  0  0
 18 99  1  0  0  0
 19 20  1  0  0  0
 19 24  1  0  0  0
 20 21  2  0  0  0
 20100  1  0  0  0
 21 23  1  0  0  0
 22 28  1  0  0  0
 22 32  2  0  0  0
 26 27  1  0  0  0
 28101  1  0  0  0
 28102  1  0  0  0
 29103  1  0  0  0
 29104  1  0  0  0
 33 34  1  0  0  0
 33 66  1  0  0  0
 33 70  2  0  0  0
 34 36  1  0  0  0
 34 59  1  0  0  0
 34105  1  0  0  0
 35 44  2  0  0  0
 35 45  1  0  0  0
 35 68  1  0  0  0
 36 56  1  0  0  0
 36106  1  0  0  0
 37 39  1  0  0  0
 37 47  1  0  0  0
 37 66  1  0  0  0
 37107  1  0  0  0
 38 43  2  0  0  0
 38 46  1  0  0  0
 38 47  1  0  0  0
 39 64  1  0  0  0
 39 67  2  0  0  0
 40 52  1  0  0  0
 40 53  2  0  0  0
 40 58  1  0  0  0
 41108  1  0  0  0
 41109  1  0  0  0
 41110  1  0  0  0
 41 48  1  0  0  0
 42 43  1  0  0  0
 42 66  1  0  0  0
 42111  1  0  0  0
 42112  1  0  0  0
 43 44  1  0  0  0
 44113  1  0  0  0
 45 46  2  0  0  0
 45114  1  0  0  0
 46115  1  0  0  0
 47116  1  0  0  0
 47117  1  0  0  0
 48 56  1  0  0  0
 48 65  1  0  0  0
 48118  1  0  0  0
 49 50  1  0  0  0
 49 53  1  0  0  0
 49 64  1  0  0  0
 49119  1  0  0  0
 50 51  1  0  0  0
 50120  1  0  0  0
 50121  1  0  0  0
 51 52  1  0  0  0
 51122  1  0  0  0
 51123  1  0  0  0
 52124  1  0  0  0
 52125  1  0  0  0
 53 54  1  0  0  0
 54 55  2  0  0  0
 54126  1  0  0  0
 55 57  1  0  0  0
 55127  1  0  0  0
 56 69  2  0  0  0
 57 58  2  0  0  0
 57128  1  0  0  0
 58129  1  0  0  0
 59 60  1  0  0  0
 59 61  1  0  0  0
 59 62  1  0  0  0
 60130  1  0  0  0
 60131  1  0  0  0
 60132  1  0  0  0
 61133  1  0  0  0
 61134  1  0  0  0
 61135  1  0  0  0
 62136  1  0  0  0
 62137  1  0  0  0
 62138  1  0  0  0
 63 65  1  0  0  0
 63139  1  0  0  0
 63140  1  0  0  0
 63141  1  0  0  0
 64142  1  0  0  0
 65143  1  0  0  0
 68 79  1  0  0  0
 71 74  1  0  0  0
 71 81  1  0  0  0
 71 84  2  0  0  0
 72 75  1  0  0  0
 72 81  1  0  0  0
 72144  1  0  0  0
 72145  1  0  0  0
 73 75  1  0  0  0
 73 83  1  0  0  0
 73146  1  0  0  0
 73147  1  0  0  0
 74 78  1  0  0  0
 74 83  1  0  0  0
 74148  1  0  0  0
 75 79  1  0  0  0
 75149  1  0  0  0
 76150  1  0  0  0
 76151  1  0  0  0
 76152  1  0  0  0
 76 80  1  0  0  0
 77 80  1  0  0  0
 77153  1  0  0  0
 77154  1  0  0  0
 77155  1  0  0  0
 78 82  1  0  0  0
 78156  1  0  0  0
 78157  1  0  0  0
 79158  1  0  0  0
 79159  1  0  0  0
 80 81  1  0  0  0
 80160  1  0  0  0
 82161  1  0  0  0
 83162  1  0  0  0
 83163  1  0  0  0
M  CHG  1  83   1
M  ISO  4   1 100  68 101  79 101  82 100
M  END
> <chiral flag>
0

> <version>
0

> <s_m_source_file>
/data/baiqing/PycharmProjects/Reinvent-master-3.2/result/LINK_invent/BTK/process_docking_weight1_custom_sum_contain_oxygen_bond_distance_aromatic_linkinvent_7_9_3/rearranged_h_0108.sdf

> <i_m_source_file_index>
88

> <r_mmod_Potential_Energy-OPLS-2005>
656.439697265625

> <r_mmod_Stretch_Energy-OPLS-2005>
340.879089355469

> <r_mmod_Bend_Energy-OPLS-2005>
397.879058837891

> <r_mmod_Torsional_Energy-OPLS-2005>
333.665863037109

> <r_mmod_Improper_Torsional_Energy-OPLS-2005>
7.72144174575806

> <r_mmod_Van_der_Waal_Energy-OPLS-2005>
123.305221557617

> <r_mmod_Electrostatic_Energy-OPLS-2005>
-277.756530761719

> <r_mmod_Solvation_Energy-OPLS-2005>
-526.236877441406

> <b_mmod_Minimization_Converged-OPLS-2005>
0

> <r_mmod_RMS_Derivative-OPLS-2005>
3.11707448959351

$$$$
88
                    3D
 Structure written by MMmdl.
159167  0  0  1  0            999 V2000
  -30.6637  -14.6430   20.4988 C   0  0  0  0  0  0
  -30.4250  -12.3906   19.4730 C   0  0  0  0  0  0
  -29.5081  -12.5026   18.2360 C   0  0  0  0  0  0
  -28.0309  -12.3484   18.6445 C   0  0  0  0  0  0
  -27.6499  -13.2285   19.8651 C   0  0  2  0  0  0
  -28.6929  -13.1184   21.0011 C   0  0  0  0  0  0
  -25.2501  -13.8172   20.5695 C   0  0  0  0  0  0
  -24.1789  -13.0422   20.9206 C   0  0  0  0  0  0
  -24.6386  -11.6906   20.8748 C   0  0  0  0  0  0
  -23.9054  -10.4283   21.0408 C   0  0  0  0  0  0
  -24.3607   -9.4203   21.9194 C   0  0  0  0  0  0
  -23.6287   -8.2237   22.0763 C   0  0  0  0  0  0
  -22.4271   -8.0273   21.3545 C   0  0  0  0  0  0
  -21.9896   -9.0246   20.4649 C   0  0  0  0  0  0
  -22.7222  -10.2127   20.3058 C   0  0  0  0  0  0
  -21.6854   -6.0723   22.5281 C   0  0  0  0  0  0
  -21.4018   -6.5629   23.8213 C   0  0  0  0  0  0
  -21.3661   -5.6784   24.9175 C   0  0  0  0  0  0
  -21.6050   -4.3047   24.7231 C   0  0  0  0  0  0
  -21.8819   -3.8137   23.4351 C   0  0  0  0  0  0
  -21.9190   -4.6949   22.3404 C   0  0  0  0  0  0
  -22.7810  -13.5221   21.1853 C   0  0  0  0  0  0
  -22.1661   -4.2137   21.0982 F   0  0  0  0  0  0
  -21.5629   -3.4527   25.7741 F   0  0  0  0  0  0
  -30.0119  -13.4366   20.4345 N   0  0  0  0  0  0
  -26.2968  -12.9399   20.3343 N   0  0  0  0  0  0
  -25.9327  -11.6535   20.5778 N   0  0  0  0  0  0
  -22.0437  -12.8253   22.0425 N   0  0  0  0  0  0
  -25.4118  -15.1888   20.4080 N   0  0  0  0  0  0
  -31.8167  -14.7532   20.0765 O   0  0  0  0  0  0
  -21.6637   -6.8870   21.4244 O   0  0  0  0  0  0
  -22.3493  -14.5513   20.6668 O   0  0  0  0  0  0
  -24.6263  -31.8606   23.2035 C   0  0  0  0  0  0
  -25.9108  -32.4787   23.8362 C   0  0  1  0  0  0
  -27.2213  -27.3085   20.1156 C   0  0  0  0  0  0
  -25.5928  -33.8590   24.2288 N   0  0  0  0  0  0
  -23.4201  -30.4849   21.5456 C   0  0  2  0  0  0
  -24.8671  -28.9445   20.1077 C   0  0  0  0  0  0
  -22.7476  -29.4627   22.4931 C   0  0  0  0  0  0
  -18.0285  -28.1404   22.8477 C   0  0  0  0  0  0
  -24.1490  -36.7291   23.2636 C   0  0  0  0  0  0
  -25.9628  -30.7865   21.3790 C   0  0  0  0  0  0
  -26.0344  -29.4132   20.7214 C   0  0  0  0  0  0
  -27.2098  -28.6041   20.7234 C   0  0  0  0  0  0
  -26.0361  -26.9132   19.4496 C   0  0  0  0  0  0
  -24.8703  -27.7002   19.4635 C   0  0  0  0  0  0
  -23.6362  -29.8245   20.1592 C   0  0  0  0  0  0
  -25.4117  -36.3093   24.0323 C   0  0  1  0  0  0
  -20.5884  -28.3701   23.1281 C   0  0  2  0  0  0
  -20.6784  -26.9423   22.5410 C   0  0  0  0  0  0
  -19.5761  -26.6396   21.5216 C   0  0  0  0  0  0
  -18.1938  -26.7946   22.1620 C   0  0  0  0  0  0
  -19.1537  -28.8870   23.2877 C   0  0  0  0  0  0
  -18.9458  -30.1475   23.8894 C   0  0  0  0  0  0
  -17.6458  -30.6599   24.0567 C   0  0  0  0  0  0
  -25.9051  -34.9458   23.5100 C   0  0  0  0  0  0
  -16.5349  -29.9096   23.6332 C   0  0  0  0  0  0
  -16.7274  -28.6520   23.0339 C   0  0  0  0  0  0
  -26.4503  -31.6591   25.0722 C   0  0  0  0  0  0
  -25.3739  -31.3695   26.1443 C   0  0  0  0  0  0
  -27.0347  -30.3024   24.6155 C   0  0  0  0  0  0
  -27.6079  -32.4313   25.7481 C   0  0  0  0  0  0
  -27.5579  -37.1802   24.8466 C   0  0  0  0  0  0
  -21.4190  -29.3053   22.3678 N   0  0  0  0  0  0
  -26.4300  -37.3784   23.9399 N   0  0  0  0  0  0
  -24.6882  -31.0606   22.0999 N   0  0  0  0  0  0
  -23.4201  -28.8167   23.3009 O   0  0  0  0  0  0
  -28.3394  -26.4558   20.2021 O   0  0  0  0  0  0
  -26.5615  -34.8922   22.4665 O   0  0  0  0  0  0
  -23.5420  -32.1417   23.7351 O   0  0  0  0  0  0
  -27.9058  -20.5243   21.2944 C   0  0  0  0  0  0
  -29.1949  -21.1576   20.8992 C   0  0  1  0  0  0
  -28.8641  -19.6541   20.4907 C   0  0  1  0  0  0
  -27.7135  -17.5138   21.2454 C   0  0  0  0  0  0
  -31.5641  -17.7004   20.9878 C   0  0  0  0  0  0
  -29.0606  -22.4351   19.9833 C   0  0  0  0  0  0
  -28.9817  -23.8891   20.6455 C   0  0  0  0  0  0
  -28.2458  -25.0254   19.8039 C   0  0  0  0  0  0
  -29.0779  -18.2338   21.1758 C   0  0  1  0  0  0
  -30.1615  -17.2284   20.5611 C   0  0  2  0  0  0
  -29.9325  -15.7504   20.8518 N   0  0  0  0  0  0
  -31.4701  -12.4866   19.1760 H   0  0  0  0  0  0
  -30.3367  -11.4033   19.9287 H   0  0  0  0  0  0
  -29.7712  -11.7416   17.4997 H   0  0  0  0  0  0
  -29.6593  -13.4676   17.7489 H   0  0  0  0  0  0
  -27.8655  -11.2967   18.8811 H   0  0  0  0  0  0
  -27.3807  -12.5757   17.7980 H   0  0  0  0  0  0
  -27.6606  -14.2600   19.5119 H   0  0  0  0  0  0
  -28.6992  -12.1134   21.4239 H   0  0  0  0  0  0
  -28.4367  -13.7883   21.8230 H   0  0  0  0  0  0
  -25.2740   -9.5690   22.4778 H   0  0  0  0  0  0
  -23.9995   -7.4628   22.7484 H   0  0  0  0  0  0
  -21.0827   -8.8752   19.8957 H   0  0  0  0  0  0
  -22.3670  -10.9663   19.6171 H   0  0  0  0  0  0
  -21.2014   -7.6135   23.9714 H   0  0  0  0  0  0
  -21.1491   -6.0511   25.9079 H   0  0  0  0  0  0
  -22.0598   -2.7596   23.2853 H   0  0  0  0  0  0
  -22.4025  -11.9935   22.4874 H   0  0  0  0  0  0
  -21.1040  -13.1300   22.2565 H   0  0  0  0  0  0
  -24.6409  -15.8368   20.5236 H   0  0  0  0  0  0
  -26.2586  -15.6342   20.0813 H   0  0  0  0  0  0
  -26.7168  -32.5464   23.1106 H   0  0  0  0  0  0
  -25.0092  -33.9750   25.0441 H   0  0  0  0  0  0
  -22.7143  -31.3065   21.4033 H   0  0  0  0  0  0
  -23.3762  -35.9617   23.3312 H   0  0  0  0  0  0
  -24.3583  -36.8903   22.2050 H   0  0  0  0  0  0
  -23.7239  -37.6489   23.6656 H   0  0  0  0  0  0
  -26.0954  -31.5482   20.6095 H   0  0  0  0  0  0
  -26.8445  -30.8367   22.0063 H   0  0  0  0  0  0
  -28.1006  -28.9557   21.2249 H   0  0  0  0  0  0
  -25.9658  -25.9880   18.9004 H   0  0  0  0  0  0
  -23.9804  -27.3440   18.9627 H   0  0  0  0  0  0
  -23.7585  -30.6039   19.4064 H   0  0  0  0  0  0
  -22.7572  -29.2545   19.8522 H   0  0  0  0  0  0
  -25.1307  -36.1944   25.0818 H   0  0  0  0  0  0
  -20.9976  -28.3280   24.1402 H   0  0  0  0  0  0
  -20.5689  -26.2312   23.3613 H   0  0  0  0  0  0
  -21.6654  -26.7461   22.1200 H   0  0  0  0  0  0
  -19.6916  -25.6305   21.1251 H   0  0  0  0  0  0
  -19.6700  -27.3209   20.6748 H   0  0  0  0  0  0
  -17.4207  -26.6688   21.4025 H   0  0  0  0  0  0
  -18.0329  -26.0104   22.9028 H   0  0  0  0  0  0
  -19.7933  -30.7293   24.2262 H   0  0  0  0  0  0
  -17.5009  -31.6276   24.5177 H   0  0  0  0  0  0
  -15.5351  -30.2995   23.7664 H   0  0  0  0  0  0
  -15.8674  -28.0849   22.7038 H   0  0  0  0  0  0
  -24.5933  -30.7035   25.7746 H   0  0  0  0  0  0
  -24.8906  -32.2842   26.4882 H   0  0  0  0  0  0
  -25.8069  -30.8851   27.0205 H   0  0  0  0  0  0
  -26.2906  -29.6767   24.1213 H   0  0  0  0  0  0
  -27.4102  -29.7285   25.4636 H   0  0  0  0  0  0
  -27.8759  -30.4331   23.9345 H   0  0  0  0  0  0
  -27.2721  -33.3621   26.2063 H   0  0  0  0  0  0
  -28.3886  -32.6852   25.0298 H   0  0  0  0  0  0
  -28.0756  -31.8425   26.5384 H   0  0  0  0  0  0
  -28.2606  -38.0092   24.7523 H   0  0  0  0  0  0
  -28.1069  -36.2624   24.6298 H   0  0  0  0  0  0
  -27.2291  -37.1463   25.8869 H   0  0  0  0  0  0
  -20.9368  -29.8777   21.6890 H   0  0  0  0  0  0
  -26.0178  -38.2854   24.1421 H   0  0  0  0  0  0
  -26.9924  -20.8279   20.7881 H   0  0  0  0  0  0
  -27.7841  -20.3188   22.3573 H   0  0  0  0  0  0
  -29.9612  -21.2542   21.6665 H   0  0  0  0  0  0
  -28.6348  -19.5455   19.4324 H   0  0  0  0  0  0
  -27.3945  -17.2026   20.2513 H   0  0  0  0  0  0
  -26.9250  -18.1446   21.6542 H   0  0  0  0  0  0
  -27.7434  -16.6323   21.8851 H   0  0  0  0  0  0
  -31.6841  -18.7709   20.8138 H   0  0  0  0  0  0
  -32.3568  -17.2039   20.4289 H   0  0  0  0  0  0
  -31.7375  -17.5237   22.0496 H   0  0  0  0  0  0
  -29.8983  -22.4246   19.2851 H   0  0  0  0  0  0
  -28.1766  -22.2990   19.3590 H   0  0  0  0  0  0
  -29.9967  -24.2159   20.8710 H   0  0  0  0  0  0
  -28.4810  -23.8099   21.6111 H   0  0  0  0  0  0
  -27.2155  -24.6808   19.7976 H   0  0  0  0  0  0
  -28.5862  -24.9675   18.7693 H   0  0  0  0  0  0
  -29.3679  -18.4316   22.2101 H   0  0  0  0  0  0
  -30.0977  -17.3209   19.4754 H   0  0  0  0  0  0
  -29.0112  -15.5342   21.2002 H   0  0  0  0  0  0
  1 25  1  0  0  0
  1 30  2  0  0  0
  1 81  1  0  0  0
  2  3  1  0  0  0
  2 25  1  0  0  0
  2 82  1  0  0  0
  2 83  1  0  0  0
  3  4  1  0  0  0
  3 84  1  0  0  0
  3 85  1  0  0  0
  4  5  1  0  0  0
  4 86  1  0  0  0
  4 87  1  0  0  0
  5  6  1  0  0  0
  5 26  1  0  0  0
  5 88  1  0  0  0
  6 25  1  0  0  0
  6 89  1  0  0  0
  6 90  1  0  0  0
  7  8  2  0  0  0
  7 26  1  0  0  0
  7 29  1  0  0  0
  8  9  1  0  0  0
  8 22  1  0  0  0
  9 10  1  0  0  0
  9 27  2  0  0  0
 10 11  2  0  0  0
 10 15  1  0  0  0
 11 12  1  0  0  0
 11 91  1  0  0  0
 12 13  2  0  0  0
 12 92  1  0  0  0
 13 14  1  0  0  0
 13 31  1  0  0  0
 14 15  2  0  0  0
 14 93  1  0  0  0
 15 94  1  0  0  0
 16 17  2  0  0  0
 16 21  1  0  0  0
 16 31  1  0  0  0
 17 18  1  0  0  0
 17 95  1  0  0  0
 18 19  2  0  0  0
 18 96  1  0  0  0
 19 20  1  0  0  0
 19 24  1  0  0  0
 20 21  2  0  0  0
 20 97  1  0  0  0
 21 23  1  0  0  0
 22 28  1  0  0  0
 22 32  2  0  0  0
 26 27  1  0  0  0
 28 98  1  0  0  0
 28 99  1  0  0  0
 29100  1  0  0  0
 29101  1  0  0  0
 33 34  1  0  0  0
 33 66  1  0  0  0
 33 70  2  0  0  0
 34 36  1  0  0  0
 34 59  1  0  0  0
 34102  1  0  0  0
 35 44  2  0  0  0
 35 45  1  0  0  0
 35 68  1  0  0  0
 36 56  1  0  0  0
 36103  1  0  0  0
 37 39  1  0  0  0
 37 47  1  0  0  0
 37 66  1  0  0  0
 37104  1  0  0  0
 38 43  2  0  0  0
 38 46  1  0  0  0
 38 47  1  0  0  0
 39 64  1  0  0  0
 39 67  2  0  0  0
 40 52  1  0  0  0
 40 53  2  0  0  0
 40 58  1  0  0  0
 41105  1  0  0  0
 41106  1  0  0  0
 41107  1  0  0  0
 41 48  1  0  0  0
 42 43  1  0  0  0
 42 66  1  0  0  0
 42108  1  0  0  0
 42109  1  0  0  0
 43 44  1  0  0  0
 44110  1  0  0  0
 45 46  2  0  0  0
 45111  1  0  0  0
 46112  1  0  0  0
 47113  1  0  0  0
 47114  1  0  0  0
 48 56  1  0  0  0
 48 65  1  0  0  0
 48115  1  0  0  0
 49 50  1  0  0  0
 49 53  1  0  0  0
 49 64  1  0  0  0
 49116  1  0  0  0
 50 51  1  0  0  0
 50117  1  0  0  0
 50118  1  0  0  0
 51 52  1  0  0  0
 51119  1  0  0  0
 51120  1  0  0  0
 52121  1  0  0  0
 52122  1  0  0  0
 53 54  1  0  0  0
 54 55  2  0  0  0
 54123  1  0  0  0
 55 57  1  0  0  0
 55124  1  0  0  0
 56 69  2  0  0  0
 57 58  2  0  0  0
 57125  1  0  0  0
 58126  1  0  0  0
 59 60  1  0  0  0
 59 61  1  0  0  0
 59 62  1  0  0  0
 60127  1  0  0  0
 60128  1  0  0  0
 60129  1  0  0  0
 61130  1  0  0  0
 61131  1  0  0  0
 61132  1  0  0  0
 62133  1  0  0  0
 62134  1  0  0  0
 62135  1  0  0  0
 63 65  1  0  0  0
 63136  1  0  0  0
 63137  1  0  0  0
 63138  1  0  0  0
 64139  1  0  0  0
 65140  1  0  0  0
 68 78  1  0  0  0
 71 72  1  0  0  0
 71141  1  0  0  0
 71142  1  0  0  0
 71 73  1  0  0  0
 72 73  1  0  0  0
 72 76  1  0  0  0
 72143  1  0  0  0
 73 79  1  0  0  0
 73144  1  0  0  0
 74145  1  0  0  0
 74146  1  0  0  0
 74147  1  0  0  0
 74 79  1  0  0  0
 75148  1  0  0  0
 75149  1  0  0  0
 75150  1  0  0  0
 75 80  1  0  0  0
 76 77  1  0  0  0
 76151  1  0  0  0
 76152  1  0  0  0
 77 78  1  0  0  0
 77153  1  0  0  0
 77154  1  0  0  0
 78155  1  0  0  0
 78156  1  0  0  0
 79 80  1  0  0  0
 79157  1  0  0  0
 80 81  1  0  0  0
 80158  1  0  0  0
 81159  1  0  0  0
M  ISO  4   1 100  68 101  78 101  81 100
M  END
> <chiral flag>
0

> <version>
0

> <s_m_source_file>
/data/baiqing/PycharmProjects/Reinvent-master-3.2/result/LINK_invent/BTK/process_docking_weight1_custom_sum_contain_oxygen_bond_distance_aromatic_linkinvent_7_9_3/rearranged_h_0108.sdf

> <i_m_source_file_index>
89

> <r_mmod_Potential_Energy-OPLS-2005>
151.965881347656

> <r_mmod_Stretch_Energy-OPLS-2005>
95.5762481689453

> <r_mmod_Bend_Energy-OPLS-2005>
167.397323608398

> <r_mmod_Torsional_Energy-OPLS-2005>
268.400665283203

> <r_mmod_Improper_Torsional_Energy-OPLS-2005>
4.84237051010132

> <r_mmod_Van_der_Waal_Energy-OPLS-2005>
129.810821533203

> <r_mmod_Electrostatic_Energy-OPLS-2005>
-374.191131591797

> <r_mmod_Solvation_Energy-OPLS-2005>
-192.545059204102

> <b_mmod_Minimization_Converged-OPLS-2005>
0

> <r_mmod_RMS_Derivative-OPLS-2005>
1.61493849754333

$$$$
89
                    3D
 Structure written by MMmdl.
160168  0  0  1  0            999 V2000
  -30.5960  -14.7363   20.4638 C   0  0  0  0  0  0
  -30.4413  -12.4536   19.4675 C   0  0  0  0  0  0
  -29.5162  -12.5038   18.2345 C   0  0  0  0  0  0
  -28.0418  -12.3281   18.6488 C   0  0  0  0  0  0
  -27.6455  -13.2263   19.8508 C   0  0  2  0  0  0
  -28.6860  -13.1477   20.9864 C   0  0  0  0  0  0
  -25.2535  -13.8190   20.5672 C   0  0  0  0  0  0
  -24.1800  -13.0452   20.9212 C   0  0  0  0  0  0
  -24.6380  -11.6914   20.8748 C   0  0  0  0  0  0
  -23.9063  -10.4283   21.0405 C   0  0  0  0  0  0
  -24.3604   -9.4192   21.9191 C   0  0  0  0  0  0
  -23.6274   -8.2236   22.0762 C   0  0  0  0  0  0
  -22.4256   -8.0291   21.3556 C   0  0  0  0  0  0
  -21.9897   -9.0262   20.4657 C   0  0  0  0  0  0
  -22.7235  -10.2133   20.3051 C   0  0  0  0  0  0
  -21.6852   -6.0745   22.5286 C   0  0  0  0  0  0
  -21.4033   -6.5643   23.8225 C   0  0  0  0  0  0
  -21.3628   -5.6781   24.9171 C   0  0  0  0  0  0
  -21.6007   -4.3044   24.7210 C   0  0  0  0  0  0
  -21.8831   -3.8146   23.4332 C   0  0  0  0  0  0
  -21.9203   -4.6973   22.3387 C   0  0  0  0  0  0
  -22.7835  -13.5271   21.1844 C   0  0  0  0  0  0
  -22.1676   -4.2176   21.0965 F   0  0  0  0  0  0
  -21.5577   -3.4508   25.7706 F   0  0  0  0  0  0
  -29.9871  -13.5055   20.4071 N   0  0  0  0  0  0
  -26.2956  -12.9382   20.3268 N   0  0  0  0  0  0
  -25.9310  -11.6534   20.5737 N   0  0  0  0  0  0
  -22.0441  -12.8271   22.0388 N   0  0  0  0  0  0
  -25.4254  -15.1891   20.4016 N   0  0  0  0  0  0
  -31.7815  -14.8544   20.1381 O   0  0  0  0  0  0
  -21.6629   -6.8877   21.4248 O   0  0  0  0  0  0
  -22.3536  -14.5581   20.6688 O   0  0  0  0  0  0
  -24.6318  -31.8547   23.1965 C   0  0  0  0  0  0
  -25.9151  -32.4744   23.8317 C   0  0  1  0  0  0
  -27.2296  -27.2660   20.1224 C   0  0  0  0  0  0
  -25.5954  -33.8540   24.2253 N   0  0  0  0  0  0
  -23.4249  -30.4766   21.5393 C   0  0  2  0  0  0
  -24.8711  -28.9101   20.1098 C   0  0  0  0  0  0
  -22.7480  -29.4614   22.4897 C   0  0  0  0  0  0
  -18.0305  -28.1401   22.8505 C   0  0  0  0  0  0
  -24.1484  -36.7254   23.2642 C   0  0  0  0  0  0
  -25.9672  -30.7665   21.3739 C   0  0  0  0  0  0
  -26.0377  -29.3876   20.7170 C   0  0  0  0  0  0
  -27.2131  -28.5748   20.7127 C   0  0  0  0  0  0
  -26.0385  -26.8382   19.4994 C   0  0  0  0  0  0
  -24.8751  -27.6434   19.4952 C   0  0  0  0  0  0
  -23.6439  -29.8030   20.1561 C   0  0  0  0  0  0
  -25.4113  -36.3071   24.0339 C   0  0  1  0  0  0
  -20.5897  -28.3728   23.1267 C   0  0  2  0  0  0
  -20.6773  -26.9450   22.5418 C   0  0  0  0  0  0
  -19.5771  -26.6416   21.5211 C   0  0  0  0  0  0
  -18.1950  -26.7953   22.1619 C   0  0  0  0  0  0
  -19.1554  -28.8875   23.2886 C   0  0  0  0  0  0
  -18.9471  -30.1456   23.8921 C   0  0  0  0  0  0
  -17.6478  -30.6602   24.0567 C   0  0  0  0  0  0
  -25.9062  -34.9444   23.5108 C   0  0  0  0  0  0
  -16.5368  -29.9101   23.6325 C   0  0  0  0  0  0
  -16.7287  -28.6508   23.0370 C   0  0  0  0  0  0
  -26.4527  -31.6554   25.0698 C   0  0  0  0  0  0
  -25.3774  -31.3675   26.1434 C   0  0  0  0  0  0
  -27.0350  -30.2986   24.6142 C   0  0  0  0  0  0
  -27.6100  -32.4274   25.7466 C   0  0  0  0  0  0
  -27.5576  -37.1790   24.8472 C   0  0  0  0  0  0
  -21.4192  -29.3057   22.3622 N   0  0  0  0  0  0
  -26.4270  -37.3770   23.9437 N   0  0  0  0  0  0
  -24.6935  -31.0507   22.0935 N   0  0  0  0  0  0
  -23.4174  -28.8194   23.3042 O   0  0  0  0  0  0
  -28.3704  -26.4430   20.2037 O   0  0  0  0  0  0
  -26.5619  -34.8910   22.4665 O   0  0  0  0  0  0
  -23.5484  -32.1370   23.7280 O   0  0  0  0  0  0
  -30.1722  -22.0577   20.7035 C   0  0  0  0  0  0
  -28.7953  -22.3110   20.4328 C   0  0  0  0  0  0
  -30.4467  -20.7057   20.7118 C   0  0  0  0  0  0
  -28.3011  -21.0201   20.1971 C   0  0  0  0  0  0
  -31.7558  -20.0622   21.0503 C   0  0  0  0  0  0
  -26.9045  -20.6347   19.8166 C   0  0  0  0  0  0
  -27.9838  -24.0947   22.0519 C   0  0  0  0  0  0
  -29.0448  -18.4650   20.3136 C   0  0  0  0  0  0
  -30.1824  -17.3406   20.6174 C   0  0  0  0  0  0
  -28.5026  -25.0287   19.7127 C   0  0  0  0  0  0
  -28.0450  -23.7301   20.5631 C   0  0  1  0  0  0
  -29.2828  -19.9948   20.4032 N   0  0  0  0  0  0
  -29.8058  -15.8553   20.6781 N   0  0  0  0  0  0
  -31.4784  -12.5929   19.1569 H   0  0  0  0  0  0
  -30.4016  -11.4749   19.9444 H   0  0  0  0  0  0
  -29.7996  -11.7245   17.5257 H   0  0  0  0  0  0
  -29.6434  -13.4547   17.7123 H   0  0  0  0  0  0
  -27.8957  -11.2801   18.9102 H   0  0  0  0  0  0
  -27.3893  -12.5267   17.7980 H   0  0  0  0  0  0
  -27.6477  -14.2488   19.4758 H   0  0  0  0  0  0
  -28.7173  -12.1453   21.4154 H   0  0  0  0  0  0
  -28.4168  -13.8229   21.8006 H   0  0  0  0  0  0
  -25.2729   -9.5638   22.4790 H   0  0  0  0  0  0
  -23.9956   -7.4608   22.7467 H   0  0  0  0  0  0
  -21.0844   -8.8776   19.8957 H   0  0  0  0  0  0
  -22.3700  -10.9668   19.6148 H   0  0  0  0  0  0
  -21.2081   -7.6160   23.9736 H   0  0  0  0  0  0
  -21.1411   -6.0507   25.9075 H   0  0  0  0  0  0
  -22.0647   -2.7629   23.2818 H   0  0  0  0  0  0
  -22.4035  -11.9933   22.4780 H   0  0  0  0  0  0
  -21.1053  -13.1325   22.2563 H   0  0  0  0  0  0
  -24.6542  -15.8429   20.4802 H   0  0  0  0  0  0
  -26.2616  -15.6130   20.0197 H   0  0  0  0  0  0
  -26.7194  -32.5376   23.1036 H   0  0  0  0  0  0
  -25.0114  -33.9661   25.0414 H   0  0  0  0  0  0
  -22.7214  -31.2991   21.3924 H   0  0  0  0  0  0
  -23.3761  -35.9581   23.3312 H   0  0  0  0  0  0
  -24.3560  -36.8869   22.2051 H   0  0  0  0  0  0
  -23.7214  -37.6452   23.6645 H   0  0  0  0  0  0
  -26.1074  -31.5229   20.6014 H   0  0  0  0  0  0
  -26.8427  -30.8142   22.0088 H   0  0  0  0  0  0
  -28.1077  -28.9345   21.2008 H   0  0  0  0  0  0
  -25.9896  -25.8616   19.0392 H   0  0  0  0  0  0
  -23.9764  -27.2641   19.0288 H   0  0  0  0  0  0
  -23.7821  -30.5807   19.4046 H   0  0  0  0  0  0
  -22.7556  -29.2519   19.8400 H   0  0  0  0  0  0
  -25.1293  -36.1920   25.0833 H   0  0  0  0  0  0
  -20.9999  -28.3325   24.1382 H   0  0  0  0  0  0
  -20.5666  -26.2345   23.3621 H   0  0  0  0  0  0
  -21.6640  -26.7473   22.1232 H   0  0  0  0  0  0
  -19.6941  -25.6331   21.1237 H   0  0  0  0  0  0
  -19.6701  -27.3191   20.6713 H   0  0  0  0  0  0
  -17.4224  -26.6708   21.4015 H   0  0  0  0  0  0
  -18.0364  -26.0055   22.8973 H   0  0  0  0  0  0
  -19.7945  -30.7261   24.2305 H   0  0  0  0  0  0
  -17.5045  -31.6293   24.5170 H   0  0  0  0  0  0
  -15.5371  -30.3039   23.7641 H   0  0  0  0  0  0
  -15.8674  -28.0834   22.7111 H   0  0  0  0  0  0
  -24.6017  -30.6910   25.7810 H   0  0  0  0  0  0
  -24.8858  -32.2803   26.4822 H   0  0  0  0  0  0
  -25.8158  -30.8948   27.0239 H   0  0  0  0  0  0
  -26.2900  -29.6726   24.1205 H   0  0  0  0  0  0
  -27.4083  -29.7261   25.4639 H   0  0  0  0  0  0
  -27.8766  -30.4256   23.9327 H   0  0  0  0  0  0
  -27.2746  -33.3612   26.1999 H   0  0  0  0  0  0
  -28.3944  -32.6750   25.0296 H   0  0  0  0  0  0
  -28.0706  -31.8387   26.5420 H   0  0  0  0  0  0
  -28.2607  -38.0067   24.7528 H   0  0  0  0  0  0
  -28.1066  -36.2615   24.6307 H   0  0  0  0  0  0
  -27.2295  -37.1443   25.8869 H   0  0  0  0  0  0
  -20.9391  -29.8710   21.6757 H   0  0  0  0  0  0
  -26.0166  -38.2863   24.1449 H   0  0  0  0  0  0
  -30.9028  -22.8175   20.9457 H   0  0  0  0  0  0
  -32.5470  -20.8102   21.0992 H   0  0  0  0  0  0
  -32.0661  -19.3297   20.3076 H   0  0  0  0  0  0
  -31.7146  -19.5820   22.0272 H   0  0  0  0  0  0
  -26.3589  -21.4838   19.4090 H   0  0  0  0  0  0
  -26.3460  -20.2640   20.6762 H   0  0  0  0  0  0
  -26.9000  -19.8607   19.0495 H   0  0  0  0  0  0
  -27.4995  -23.2997   22.6226 H   0  0  0  0  0  0
  -27.4138  -25.0106   22.2092 H   0  0  0  0  0  0
  -28.9808  -24.2469   22.4655 H   0  0  0  0  0  0
  -28.1994  -18.2488   20.9658 H   0  0  0  0  0  0
  -28.6684  -18.2690   19.3070 H   0  0  0  0  0  0
  -30.6459  -17.5735   21.5746 H   0  0  0  0  0  0
  -30.9632  -17.4408   19.8661 H   0  0  0  0  0  0
  -28.1205  -24.9558   18.6925 H   0  0  0  0  0  0
  -29.5821  -24.9263   19.5995 H   0  0  0  0  0  0
  -27.0086  -23.5509   20.2743 H   0  0  0  0  0  0
  -28.8499  -15.6510   20.9268 H   0  0  0  0  0  0
  1 25  1  0  0  0
  1 30  2  0  0  0
  1 83  1  0  0  0
  2  3  1  0  0  0
  2 25  1  0  0  0
  2 84  1  0  0  0
  2 85  1  0  0  0
  3  4  1  0  0  0
  3 86  1  0  0  0
  3 87  1  0  0  0
  4  5  1  0  0  0
  4 88  1  0  0  0
  4 89  1  0  0  0
  5  6  1  0  0  0
  5 26  1  0  0  0
  5 90  1  0  0  0
  6 25  1  0  0  0
  6 91  1  0  0  0
  6 92  1  0  0  0
  7  8  2  0  0  0
  7 26  1  0  0  0
  7 29  1  0  0  0
  8  9  1  0  0  0
  8 22  1  0  0  0
  9 10  1  0  0  0
  9 27  2  0  0  0
 10 11  2  0  0  0
 10 15  1  0  0  0
 11 12  1  0  0  0
 11 93  1  0  0  0
 12 13  2  0  0  0
 12 94  1  0  0  0
 13 14  1  0  0  0
 13 31  1  0  0  0
 14 15  2  0  0  0
 14 95  1  0  0  0
 15 96  1  0  0  0
 16 17  2  0  0  0
 16 21  1  0  0  0
 16 31  1  0  0  0
 17 18  1  0  0  0
 17 97  1  0  0  0
 18 19  2  0  0  0
 18 98  1  0  0  0
 19 20  1  0  0  0
 19 24  1  0  0  0
 20 21  2  0  0  0
 20 99  1  0  0  0
 21 23  1  0  0  0
 22 28  1  0  0  0
 22 32  2  0  0  0
 26 27  1  0  0  0
 28100  1  0  0  0
 28101  1  0  0  0
 29102  1  0  0  0
 29103  1  0  0  0
 33 34  1  0  0  0
 33 66  1  0  0  0
 33 70  2  0  0  0
 34 36  1  0  0  0
 34 59  1  0  0  0
 34104  1  0  0  0
 35 44  2  0  0  0
 35 45  1  0  0  0
 35 68  1  0  0  0
 36 56  1  0  0  0
 36105  1  0  0  0
 37 39  1  0  0  0
 37 47  1  0  0  0
 37 66  1  0  0  0
 37106  1  0  0  0
 38 43  2  0  0  0
 38 46  1  0  0  0
 38 47  1  0  0  0
 39 64  1  0  0  0
 39 67  2  0  0  0
 40 52  1  0  0  0
 40 53  2  0  0  0
 40 58  1  0  0  0
 41107  1  0  0  0
 41108  1  0  0  0
 41109  1  0  0  0
 41 48  1  0  0  0
 42 43  1  0  0  0
 42 66  1  0  0  0
 42110  1  0  0  0
 42111  1  0  0  0
 43 44  1  0  0  0
 44112  1  0  0  0
 45 46  2  0  0  0
 45113  1  0  0  0
 46114  1  0  0  0
 47115  1  0  0  0
 47116  1  0  0  0
 48 56  1  0  0  0
 48 65  1  0  0  0
 48117  1  0  0  0
 49 50  1  0  0  0
 49 53  1  0  0  0
 49 64  1  0  0  0
 49118  1  0  0  0
 50 51  1  0  0  0
 50119  1  0  0  0
 50120  1  0  0  0
 51 52  1  0  0  0
 51121  1  0  0  0
 51122  1  0  0  0
 52123  1  0  0  0
 52124  1  0  0  0
 53 54  1  0  0  0
 54 55  2  0  0  0
 54125  1  0  0  0
 55 57  1  0  0  0
 55126  1  0  0  0
 56 69  2  0  0  0
 57 58  2  0  0  0
 57127  1  0  0  0
 58128  1  0  0  0
 59 60  1  0  0  0
 59 61  1  0  0  0
 59 62  1  0  0  0
 60129  1  0  0  0
 60130  1  0  0  0
 60131  1  0  0  0
 61132  1  0  0  0
 61133  1  0  0  0
 61134  1  0  0  0
 62135  1  0  0  0
 62136  1  0  0  0
 62137  1  0  0  0
 63 65  1  0  0  0
 63138  1  0  0  0
 63139  1  0  0  0
 63140  1  0  0  0
 64141  1  0  0  0
 65142  1  0  0  0
 68 80  1  0  0  0
 71 72  1  0  0  0
 71 73  2  0  0  0
 71143  1  0  0  0
 72 74  2  0  0  0
 72 81  1  0  0  0
 73 75  1  0  0  0
 73 82  1  0  0  0
 74 76  1  0  0  0
 74 82  1  0  0  0
 75144  1  0  0  0
 75145  1  0  0  0
 75146  1  0  0  0
 76147  1  0  0  0
 76148  1  0  0  0
 76149  1  0  0  0
 77150  1  0  0  0
 77151  1  0  0  0
 77152  1  0  0  0
 77 81  1  0  0  0
 78 79  1  0  0  0
 78 82  1  0  0  0
 78153  1  0  0  0
 78154  1  0  0  0
 79 83  1  0  0  0
 79155  1  0  0  0
 79156  1  0  0  0
 80 81  1  0  0  0
 80157  1  0  0  0
 80158  1  0  0  0
 81159  1  0  0  0
 83160  1  0  0  0
M  ISO  4   1 100  68 101  80 101  83 100
M  END
> <chiral flag>
0

> <version>
0

> <s_m_source_file>
/data/baiqing/PycharmProjects/Reinvent-master-3.2/result/LINK_invent/BTK/process_docking_weight1_custom_sum_contain_oxygen_bond_distance_aromatic_linkinvent_7_9_3/rearranged_h_0108.sdf

> <i_m_source_file_index>
90

> <r_mmod_Potential_Energy-OPLS-2005>
116.755889892578

> <r_mmod_Stretch_Energy-OPLS-2005>
126.55541229248

> <r_mmod_Bend_Energy-OPLS-2005>
195.299285888672

> <r_mmod_Torsional_Energy-OPLS-2005>
218.980209350586

> <r_mmod_Improper_Torsional_Energy-OPLS-2005>
5.86263704299927

> <r_mmod_Van_der_Waal_Energy-OPLS-2005>
108.918975830078

> <r_mmod_Electrostatic_Energy-OPLS-2005>
-402.130096435547

> <r_mmod_Solvation_Energy-OPLS-2005>
-215.667327880859

> <b_mmod_Minimization_Converged-OPLS-2005>
0

> <r_mmod_RMS_Derivative-OPLS-2005>
3.8195219039917

$$$$
91
                    3D
 Structure written by MMmdl.
154162  0  0  1  0            999 V2000
  -30.4449  -15.3584   20.3543 C   0  0  0  0  0  0
  -30.4397  -12.8721   19.5436 C   0  0  0  0  0  0
  -29.5469  -12.6194   18.3019 C   0  0  0  0  0  0
  -28.1047  -12.3087   18.7275 C   0  0  0  0  0  0
  -27.6188  -13.2891   19.8226 C   0  0  2  0  0  0
  -28.6490  -13.5127   20.9590 C   0  0  0  0  0  0
  -25.2432  -13.8285   20.5743 C   0  0  0  0  0  0
  -24.1803  -13.0479   20.9262 C   0  0  0  0  0  0
  -24.6470  -11.6968   20.8780 C   0  0  0  0  0  0
  -23.9200  -10.4318   21.0406 C   0  0  0  0  0  0
  -24.3717   -9.4214   21.9182 C   0  0  0  0  0  0
  -23.6352   -8.2275   22.0784 C   0  0  0  0  0  0
  -22.4332   -8.0324   21.3552 C   0  0  0  0  0  0
  -21.9976   -9.0330   20.4676 C   0  0  0  0  0  0
  -22.7364  -10.2174   20.3063 C   0  0  0  0  0  0
  -21.6856   -6.0792   22.5283 C   0  0  0  0  0  0
  -21.4024   -6.5680   23.8232 C   0  0  0  0  0  0
  -21.3638   -5.6798   24.9169 C   0  0  0  0  0  0
  -21.6036   -4.3070   24.7197 C   0  0  0  0  0  0
  -21.8810   -3.8195   23.4307 C   0  0  0  0  0  0
  -21.9215   -4.7031   22.3385 C   0  0  0  0  0  0
  -22.7803  -13.5216   21.1834 C   0  0  0  0  0  0
  -22.1684   -4.2244   21.0943 F   0  0  0  0  0  0
  -21.5617   -3.4529   25.7687 F   0  0  0  0  0  0
  -29.8774  -14.0365   20.3362 N   0  0  0  0  0  0
  -26.2882  -12.9588   20.3205 N   0  0  0  0  0  0
  -25.9409  -11.6692   20.5777 N   0  0  0  0  0  0
  -22.0456  -12.8258   22.0391 N   0  0  0  0  0  0
  -25.3986  -15.2038   20.4124 N   0  0  0  0  0  0
  -31.6530  -15.3332   20.0748 O   0  0  0  0  0  0
  -21.6643   -6.8955   21.4263 O   0  0  0  0  0  0
  -22.3479  -14.5523   20.6670 O   0  0  0  0  0  0
  -24.6613  -31.8212   23.1710 C   0  0  0  0  0  0
  -25.9282  -32.4588   23.8191 C   0  0  1  0  0  0
  -27.2262  -26.8842   20.1897 C   0  0  0  0  0  0
  -25.5953  -33.8411   24.2088 N   0  0  0  0  0  0
  -23.4838  -30.4318   21.5187 C   0  0  2  0  0  0
  -24.9428  -28.8129   20.1176 C   0  0  0  0  0  0
  -22.7694  -29.4420   22.4769 C   0  0  0  0  0  0
  -18.0337  -28.1446   22.8491 C   0  0  0  0  0  0
  -24.1500  -36.7187   23.2653 C   0  0  0  0  0  0
  -26.0539  -30.6130   21.4175 C   0  0  0  0  0  0
  -26.1243  -29.1996   20.7587 C   0  0  0  0  0  0
  -27.2544  -28.2539   20.7723 C   0  0  0  0  0  0
  -26.0204  -26.6801   19.4724 C   0  0  0  0  0  0
  -24.9188  -27.5786   19.4507 C   0  0  0  0  0  0
  -23.7285  -29.7461   20.1480 C   0  0  0  0  0  0
  -25.4152  -36.2985   24.0309 C   0  0  1  0  0  0
  -20.5960  -28.3778   23.1203 C   0  0  2  0  0  0
  -20.6813  -26.9455   22.5422 C   0  0  0  0  0  0
  -19.5775  -26.6384   21.5237 C   0  0  0  0  0  0
  -18.1967  -26.7973   22.1650 C   0  0  0  0  0  0
  -19.1596  -28.8911   23.2830 C   0  0  0  0  0  0
  -18.9499  -30.1509   23.8866 C   0  0  0  0  0  0
  -17.6482  -30.6623   24.0548 C   0  0  0  0  0  0
  -25.9105  -34.9367   23.5017 C   0  0  0  0  0  0
  -16.5373  -29.9120   23.6361 C   0  0  0  0  0  0
  -16.7301  -28.6533   23.0388 C   0  0  0  0  0  0
  -26.4506  -31.6572   25.0752 C   0  0  0  0  0  0
  -25.3630  -31.3810   26.1401 C   0  0  0  0  0  0
  -27.0396  -30.2953   24.6519 C   0  0  0  0  0  0
  -27.6048  -32.4360   25.7501 C   0  0  0  0  0  0
  -27.5579  -37.1782   24.8452 C   0  0  0  0  0  0
  -21.4358  -29.3035   22.3522 N   0  0  0  0  0  0
  -26.4304  -37.3718   23.9376 N   0  0  0  0  0  0
  -24.7541  -30.9848   22.0871 N   0  0  0  0  0  0
  -23.4202  -28.8030   23.3079 O   0  0  0  0  0  0
  -28.2221  -25.7508   20.2914 O   0  0  0  0  0  0
  -26.5738  -34.8862   22.4627 O   0  0  0  0  0  0
  -23.5681  -32.1177   23.6748 O   0  0  0  0  0  0
  -28.7088  -21.1400   20.0967 C   0  0  0  0  0  0
  -29.6031  -19.9421   20.4636 C   0  0  0  0  0  0
  -28.9446  -22.6375   20.4021 C   0  0  0  0  0  0
  -30.9276  -21.7329   21.3179 C   0  0  0  0  0  0
  -32.5031  -22.7739   23.1573 C   0  0  0  0  0  0
  -26.7829  -23.8829   21.1859 C   0  0  0  0  0  0
  -29.7778  -18.2554   19.9196 C   0  0  0  0  0  0
  -32.3500  -22.0362   21.8102 C   0  0  0  0  0  0
  -27.9410  -24.0971   20.1932 C   0  0  2  0  0  0
  -30.6972  -20.4140   21.1090 N   0  0  0  0  0  0
  -30.1407  -22.7966   21.0300 N   0  0  0  0  0  0
  -29.7092  -16.6598   20.4843 N   0  0  0  0  0  0
  -31.4632  -13.0629   19.2206 H   0  0  0  0  0  0
  -30.4998  -11.9772   20.1647 H   0  0  0  0  0  0
  -29.9537  -11.8110   17.6949 H   0  0  0  0  0  0
  -29.5526  -13.5131   17.6735 H   0  0  0  0  0  0
  -28.0794  -11.2861   19.1108 H   0  0  0  0  0  0
  -27.4405  -12.3343   17.8631 H   0  0  0  0  0  0
  -27.5192  -14.2420   19.2994 H   0  0  0  0  0  0
  -28.8364  -12.5947   21.5194 H   0  0  0  0  0  0
  -28.2696  -14.2420   21.6755 H   0  0  0  0  0  0
  -25.2875   -9.5650   22.4759 H   0  0  0  0  0  0
  -24.0039   -7.4650   22.7485 H   0  0  0  0  0  0
  -21.0919   -8.8888   19.8958 H   0  0  0  0  0  0
  -22.3867  -10.9732   19.6168 H   0  0  0  0  0  0
  -21.2000   -7.6183   23.9765 H   0  0  0  0  0  0
  -21.1469   -6.0516   25.9077 H   0  0  0  0  0  0
  -22.0608   -2.7684   23.2761 H   0  0  0  0  0  0
  -22.4112  -11.9947   22.4790 H   0  0  0  0  0  0
  -21.1080  -13.1275   22.2586 H   0  0  0  0  0  0
  -24.6011  -15.8278   20.4721 H   0  0  0  0  0  0
  -26.2199  -15.6478   20.0208 H   0  0  0  0  0  0
  -26.7357  -32.5120   23.0901 H   0  0  0  0  0  0
  -25.0035  -33.9500   25.0198 H   0  0  0  0  0  0
  -22.7956  -31.2613   21.3469 H   0  0  0  0  0  0
  -23.3780  -35.9493   23.3328 H   0  0  0  0  0  0
  -24.3570  -36.8804   22.2061 H   0  0  0  0  0  0
  -23.7214  -37.6372   23.6679 H   0  0  0  0  0  0
  -26.2451  -31.3529   20.6403 H   0  0  0  0  0  0
  -26.9067  -30.6684   22.0814 H   0  0  0  0  0  0
  -28.1398  -28.5391   21.3207 H   0  0  0  0  0  0
  -25.8929  -25.7471   18.9453 H   0  0  0  0  0  0
  -24.0285  -27.2887   18.9087 H   0  0  0  0  0  0
  -23.8847  -30.5090   19.3850 H   0  0  0  0  0  0
  -22.8385  -29.2009   19.8320 H   0  0  0  0  0  0
  -25.1341  -36.1820   25.0810 H   0  0  0  0  0  0
  -21.0026  -28.3420   24.1336 H   0  0  0  0  0  0
  -20.5712  -26.2411   23.3683 H   0  0  0  0  0  0
  -21.6697  -26.7466   22.1222 H   0  0  0  0  0  0
  -19.6944  -25.6268   21.1348 H   0  0  0  0  0  0
  -19.6731  -27.3141   20.6724 H   0  0  0  0  0  0
  -17.4244  -26.6698   21.4057 H   0  0  0  0  0  0
  -18.0376  -26.0118   22.9053 H   0  0  0  0  0  0
  -19.7953  -30.7355   24.2229 H   0  0  0  0  0  0
  -17.5023  -31.6307   24.5160 H   0  0  0  0  0  0
  -15.5375  -30.2998   23.7673 H   0  0  0  0  0  0
  -15.8715  -28.0803   22.7149 H   0  0  0  0  0  0
  -24.5846  -30.7111   25.7680 H   0  0  0  0  0  0
  -24.8753  -32.3004   26.4701 H   0  0  0  0  0  0
  -25.7868  -30.9065   27.0273 H   0  0  0  0  0  0
  -26.3069  -29.6642   24.1475 H   0  0  0  0  0  0
  -27.3833  -29.7302   25.5188 H   0  0  0  0  0  0
  -27.9050  -30.4095   23.9979 H   0  0  0  0  0  0
  -27.2688  -33.3700   26.1992 H   0  0  0  0  0  0
  -28.3886  -32.6864   25.0345 H   0  0  0  0  0  0
  -28.0687  -31.8565   26.5477 H   0  0  0  0  0  0
  -28.2589  -38.0089   24.7535 H   0  0  0  0  0  0
  -28.1097  -36.2638   24.6267 H   0  0  0  0  0  0
  -27.2310  -37.1394   25.8857 H   0  0  0  0  0  0
  -20.9635  -29.8657   21.6577 H   0  0  0  0  0  0
  -26.0162  -38.2780   24.1387 H   0  0  0  0  0  0
  -27.8128  -20.9094   19.5376 H   0  0  0  0  0  0
  -33.5430  -22.7100   23.4912 H   0  0  0  0  0  0
  -31.8841  -22.3479   23.9491 H   0  0  0  0  0  0
  -32.2842  -23.8376   23.0719 H   0  0  0  0  0  0
  -26.3129  -22.9117   21.0336 H   0  0  0  0  0  0
  -27.1489  -23.9113   22.2097 H   0  0  0  0  0  0
  -25.9959  -24.6274   21.1123 H   0  0  0  0  0  0
  -30.7740  -18.2679   19.4710 H   0  0  0  0  0  0
  -29.1125  -18.2287   19.0571 H   0  0  0  0  0  0
  -32.8873  -22.5907   21.0371 H   0  0  0  0  0  0
  -32.8784  -21.0865   21.9008 H   0  0  0  0  0  0
  -27.5346  -23.9871   19.1868 H   0  0  0  0  0  0
  -28.7695  -16.4835   20.8025 H   0  0  0  0  0  0
  1 25  1  0  0  0
  1 30  2  0  0  0
  1 82  1  0  0  0
  2  3  1  0  0  0
  2 25  1  0  0  0
  2 83  1  0  0  0
  2 84  1  0  0  0
  3  4  1  0  0  0
  3 85  1  0  0  0
  3 86  1  0  0  0
  4  5  1  0  0  0
  4 87  1  0  0  0
  4 88  1  0  0  0
  5  6  1  0  0  0
  5 26  1  0  0  0
  5 89  1  0  0  0
  6 25  1  0  0  0
  6 90  1  0  0  0
  6 91  1  0  0  0
  7  8  2  0  0  0
  7 26  1  0  0  0
  7 29  1  0  0  0
  8  9  1  0  0  0
  8 22  1  0  0  0
  9 10  1  0  0  0
  9 27  2  0  0  0
 10 11  2  0  0  0
 10 15  1  0  0  0
 11 12  1  0  0  0
 11 92  1  0  0  0
 12 13  2  0  0  0
 12 93  1  0  0  0
 13 14  1  0  0  0
 13 31  1  0  0  0
 14 15  2  0  0  0
 14 94  1  0  0  0
 15 95  1  0  0  0
 16 17  2  0  0  0
 16 21  1  0  0  0
 16 31  1  0  0  0
 17 18  1  0  0  0
 17 96  1  0  0  0
 18 19  2  0  0  0
 18 97  1  0  0  0
 19 20  1  0  0  0
 19 24  1  0  0  0
 20 21  2  0  0  0
 20 98  1  0  0  0
 21 23  1  0  0  0
 22 28  1  0  0  0
 22 32  2  0  0  0
 26 27  1  0  0  0
 28 99  1  0  0  0
 28100  1  0  0  0
 29101  1  0  0  0
 29102  1  0  0  0
 33 34  1  0  0  0
 33 66  1  0  0  0
 33 70  2  0  0  0
 34 36  1  0  0  0
 34 59  1  0  0  0
 34103  1  0  0  0
 35 44  2  0  0  0
 35 45  1  0  0  0
 35 68  1  0  0  0
 36 56  1  0  0  0
 36104  1  0  0  0
 37 39  1  0  0  0
 37 47  1  0  0  0
 37 66  1  0  0  0
 37105  1  0  0  0
 38 43  2  0  0  0
 38 46  1  0  0  0
 38 47  1  0  0  0
 39 64  1  0  0  0
 39 67  2  0  0  0
 40 52  1  0  0  0
 40 53  2  0  0  0
 40 58  1  0  0  0
 41106  1  0  0  0
 41107  1  0  0  0
 41108  1  0  0  0
 41 48  1  0  0  0
 42 43  1  0  0  0
 42 66  1  0  0  0
 42109  1  0  0  0
 42110  1  0  0  0
 43 44  1  0  0  0
 44111  1  0  0  0
 45 46  2  0  0  0
 45112  1  0  0  0
 46113  1  0  0  0
 47114  1  0  0  0
 47115  1  0  0  0
 48 56  1  0  0  0
 48 65  1  0  0  0
 48116  1  0  0  0
 49 50  1  0  0  0
 49 53  1  0  0  0
 49 64  1  0  0  0
 49117  1  0  0  0
 50 51  1  0  0  0
 50118  1  0  0  0
 50119  1  0  0  0
 51 52  1  0  0  0
 51120  1  0  0  0
 51121  1  0  0  0
 52122  1  0  0  0
 52123  1  0  0  0
 53 54  1  0  0  0
 54 55  2  0  0  0
 54124  1  0  0  0
 55 57  1  0  0  0
 55125  1  0  0  0
 56 69  2  0  0  0
 57 58  2  0  0  0
 57126  1  0  0  0
 58127  1  0  0  0
 59 60  1  0  0  0
 59 61  1  0  0  0
 59 62  1  0  0  0
 60128  1  0  0  0
 60129  1  0  0  0
 60130  1  0  0  0
 61131  1  0  0  0
 61132  1  0  0  0
 61133  1  0  0  0
 62134  1  0  0  0
 62135  1  0  0  0
 62136  1  0  0  0
 63 65  1  0  0  0
 63137  1  0  0  0
 63138  1  0  0  0
 63139  1  0  0  0
 64140  1  0  0  0
 65141  1  0  0  0
 68 79  1  0  0  0
 71 72  2  0  0  0
 71 73  1  0  0  0
 71142  1  0  0  0
 72 77  1  0  0  0
 72 80  1  0  0  0
 73 79  1  0  0  0
 73 81  2  0  0  0
 74 78  1  0  0  0
 74 80  2  0  0  0
 74 81  1  0  0  0
 75 78  1  0  0  0
 75143  1  0  0  0
 75144  1  0  0  0
 75145  1  0  0  0
 76146  1  0  0  0
 76147  1  0  0  0
 76148  1  0  0  0
 76 79  1  0  0  0
 77 82  1  0  0  0
 77149  1  0  0  0
 77150  1  0  0  0
 78151  1  0  0  0
 78152  1  0  0  0
 79153  1  0  0  0
 82154  1  0  0  0
M  ISO  4   1 100  68 101  79 101  82 100
M  END
> <chiral flag>
0

> <version>
0

> <s_m_source_file>
/data/baiqing/PycharmProjects/Reinvent-master-3.2/result/LINK_invent/BTK/process_docking_weight1_custom_sum_contain_oxygen_bond_distance_aromatic_linkinvent_7_9_3/rearranged_h_0108.sdf

> <i_m_source_file_index>
91

> <r_mmod_Potential_Energy-OPLS-2005>
888.478637695312

> <r_mmod_Stretch_Energy-OPLS-2005>
655.879638671875

> <r_mmod_Bend_Energy-OPLS-2005>
484.3525390625

> <r_mmod_Torsional_Energy-OPLS-2005>
216.047256469727

> <r_mmod_Improper_Torsional_Energy-OPLS-2005>
8.20743560791016

> <r_mmod_Van_der_Waal_Energy-OPLS-2005>
134.616882324219

> <r_mmod_Electrostatic_Energy-OPLS-2005>
-895.139953613281

> <r_mmod_Solvation_Energy-OPLS-2005>
-257.096221923828

> <b_mmod_Minimization_Converged-OPLS-2005>
0

> <r_mmod_RMS_Derivative-OPLS-2005>
7.14956426620483

$$$$
92
                    3D
 Structure written by MMmdl.
172179  0  0  1  0            999 V2000
  -30.7224  -14.4688   20.5878 C   0  0  0  0  0  0
  -30.4272  -12.3160   19.4227 C   0  0  0  0  0  0
  -29.5069  -12.5284   18.2050 C   0  0  0  0  0  0
  -28.0276  -12.3703   18.6054 C   0  0  0  0  0  0
  -27.6597  -13.2120   19.8579 C   0  0  2  0  0  0
  -28.6955  -13.0136   20.9897 C   0  0  0  0  0  0
  -25.2566  -13.8138   20.5585 C   0  0  0  0  0  0
  -24.1833  -13.0411   20.9089 C   0  0  0  0  0  0
  -24.6388  -11.6886   20.8615 C   0  0  0  0  0  0
  -23.9065  -10.4287   21.0335 C   0  0  0  0  0  0
  -24.3624   -9.4225   21.9146 C   0  0  0  0  0  0
  -23.6285   -8.2274   22.0749 C   0  0  0  0  0  0
  -22.4262   -8.0288   21.3547 C   0  0  0  0  0  0
  -21.9860   -9.0254   20.4639 C   0  0  0  0  0  0
  -22.7213  -10.2124   20.3015 C   0  0  0  0  0  0
  -21.6865   -6.0711   22.5287 C   0  0  0  0  0  0
  -21.4035   -6.5616   23.8225 C   0  0  0  0  0  0
  -21.3655   -5.6764   24.9175 C   0  0  0  0  0  0
  -21.6045   -4.3034   24.7228 C   0  0  0  0  0  0
  -21.8820   -3.8129   23.4350 C   0  0  0  0  0  0
  -21.9201   -4.6951   22.3417 C   0  0  0  0  0  0
  -22.7887  -13.5263   21.1808 C   0  0  0  0  0  0
  -22.1684   -4.2135   21.0989 F   0  0  0  0  0  0
  -21.5606   -3.4519   25.7738 F   0  0  0  0  0  0
  -30.0357  -13.3017   20.4449 N   0  0  0  0  0  0
  -26.3006  -12.9316   20.3190 N   0  0  0  0  0  0
  -25.9319  -11.6484   20.5585 N   0  0  0  0  0  0
  -22.0462  -12.8302   22.0328 N   0  0  0  0  0  0
  -25.4200  -15.1841   20.4086 N   0  0  0  0  0  0
  -31.8432  -14.6472   20.1028 O   0  0  0  0  0  0
  -21.6661   -6.8879   21.4244 O   0  0  0  0  0  0
  -22.3614  -14.5630   20.6708 O   0  0  0  0  0  0
  -24.6165  -31.8684   23.2115 C   0  0  0  0  0  0
  -25.9055  -32.4828   23.8416 C   0  0  1  0  0  0
  -27.2439  -27.4306   20.1162 C   0  0  0  0  0  0
  -25.5906  -33.8627   24.2341 N   0  0  0  0  0  0
  -23.4060  -30.4920   21.5523 C   0  0  2  0  0  0
  -24.8593  -28.9616   20.1206 C   0  0  0  0  0  0
  -22.7444  -29.4652   22.4995 C   0  0  0  0  0  0
  -18.0276  -28.1379   22.8487 C   0  0  0  0  0  0
  -24.1490  -36.7319   23.2630 C   0  0  0  0  0  0
  -25.9355  -30.8358   21.3672 C   0  0  0  0  0  0
  -26.0197  -29.4667   20.7231 C   0  0  0  0  0  0
  -27.2173  -28.7113   20.7256 C   0  0  0  0  0  0
  -26.0682  -26.9504   19.5037 C   0  0  0  0  0  0
  -24.8765  -27.6992   19.5067 C   0  0  0  0  0  0
  -23.6207  -29.8283   20.1666 C   0  0  0  0  0  0
  -25.4105  -36.3108   24.0333 C   0  0  1  0  0  0
  -20.5872  -28.3667   23.1311 C   0  0  2  0  0  0
  -20.6770  -26.9401   22.5408 C   0  0  0  0  0  0
  -19.5740  -26.6388   21.5209 C   0  0  0  0  0  0
  -18.1917  -26.7918   22.1624 C   0  0  0  0  0  0
  -19.1521  -28.8834   23.2890 C   0  0  0  0  0  0
  -18.9459  -30.1447   23.8903 C   0  0  0  0  0  0
  -17.6453  -30.6578   24.0566 C   0  0  0  0  0  0
  -25.9031  -34.9471   23.5129 C   0  0  0  0  0  0
  -16.5352  -29.9084   23.6331 C   0  0  0  0  0  0
  -16.7260  -28.6502   23.0344 C   0  0  0  0  0  0
  -26.4481  -31.6592   25.0728 C   0  0  0  0  0  0
  -25.3767  -31.3721   26.1503 C   0  0  0  0  0  0
  -27.0267  -30.3019   24.6067 C   0  0  0  0  0  0
  -27.6069  -32.4297   25.7478 C   0  0  0  0  0  0
  -27.5578  -37.1807   24.8460 C   0  0  0  0  0  0
  -21.4159  -29.3030   22.3726 N   0  0  0  0  0  0
  -26.4284  -37.3798   23.9410 N   0  0  0  0  0  0
  -24.6710  -31.0796   22.1030 N   0  0  0  0  0  0
  -23.4203  -28.8189   23.3036 O   0  0  0  0  0  0
  -28.3173  -26.5668   20.0382 O   0  0  0  0  0  0
  -26.5588  -34.8920   22.4684 O   0  0  0  0  0  0
  -23.5354  -32.1439   23.7515 O   0  0  0  0  0  0
  -30.5451  -27.2618   19.8548 C   0  0  0  0  0  0
  -28.8444  -25.0562   22.6350 C   0  0  0  0  0  0
  -31.2727  -25.3112   22.0808 C   0  0  0  0  0  0
  -28.2290  -17.8931   21.4886 C   0  0  0  0  0  0
  -29.3385  -17.6073   19.2333 C   0  0  0  0  0  0
  -30.1573  -21.7348   20.1058 C   0  0  0  0  0  0
  -29.7605  -24.1019   20.4716 C   0  0  0  0  0  0
  -30.5450  -16.8624   21.3262 C   0  0  0  0  0  0
  -29.3637  -20.4664   20.5147 C   0  0  0  0  0  0
  -29.4998  -26.6865   20.8269 C   0  0  2  0  0  0
  -29.8464  -25.2886   21.4819 C   0  0  0  0  0  0
  -29.5827  -17.9387   20.7270 C   0  0  0  0  0  0
  -30.0588  -15.4744   21.1827 N   0  0  0  0  0  0
  -30.0641  -22.8031   21.1005 N   0  0  0  0  0  0
  -30.2190  -19.2931   20.8441 N   0  3  0  0  0  0
  -31.4747  -12.4082   19.1257 H   0  0  0  0  0  0
  -30.3219  -11.3056   19.8169 H   0  0  0  0  0  0
  -29.7610  -11.8279   17.4091 H   0  0  0  0  0  0
  -29.6757  -13.5227   17.7914 H   0  0  0  0  0  0
  -27.8387  -11.3128   18.7932 H   0  0  0  0  0  0
  -27.3992  -12.6497   17.7580 H   0  0  0  0  0  0
  -27.6972  -14.2566   19.5483 H   0  0  0  0  0  0
  -28.6600  -11.9903   21.3646 H   0  0  0  0  0  0
  -28.4398  -13.6464   21.8415 H   0  0  0  0  0  0
  -25.2734   -9.5761   22.4750 H   0  0  0  0  0  0
  -23.9972   -7.4683   22.7514 H   0  0  0  0  0  0
  -21.0755   -8.8806   19.8986 H   0  0  0  0  0  0
  -22.3633  -10.9673   19.6171 H   0  0  0  0  0  0
  -21.2057   -7.6120   23.9719 H   0  0  0  0  0  0
  -21.1468   -6.0496   25.9082 H   0  0  0  0  0  0
  -22.0597   -2.7584   23.2865 H   0  0  0  0  0  0
  -22.4023  -11.9991   22.4820 H   0  0  0  0  0  0
  -21.1115  -13.1459   22.2494 H   0  0  0  0  0  0
  -24.6374  -15.8186   20.5244 H   0  0  0  0  0  0
  -26.2504  -15.6403   20.0553 H   0  0  0  0  0  0
  -26.7134  -32.5563   23.1194 H   0  0  0  0  0  0
  -25.0054  -33.9791   25.0482 H   0  0  0  0  0  0
  -22.6927  -31.3067   21.4131 H   0  0  0  0  0  0
  -23.3750  -35.9655   23.3281 H   0  0  0  0  0  0
  -24.3590  -36.8952   22.2048 H   0  0  0  0  0  0
  -23.7254  -37.6518   23.6663 H   0  0  0  0  0  0
  -26.0393  -31.5973   20.5932 H   0  0  0  0  0  0
  -26.8259  -30.8994   21.9807 H   0  0  0  0  0  0
  -28.1035  -29.1184   21.1909 H   0  0  0  0  0  0
  -26.0743  -25.9786   19.0309 H   0  0  0  0  0  0
  -23.9881  -27.2997   19.0385 H   0  0  0  0  0  0
  -23.7362  -30.6042   19.4091 H   0  0  0  0  0  0
  -22.7452  -29.2513   19.8659 H   0  0  0  0  0  0
  -25.1281  -36.1956   25.0827 H   0  0  0  0  0  0
  -20.9932  -28.3215   24.1442 H   0  0  0  0  0  0
  -20.5666  -26.2271   23.3591 H   0  0  0  0  0  0
  -21.6644  -26.7433   22.1205 H   0  0  0  0  0  0
  -19.6897  -25.6299   21.1230 H   0  0  0  0  0  0
  -19.6660  -27.3209   20.6745 H   0  0  0  0  0  0
  -17.4177  -26.6645   21.4040 H   0  0  0  0  0  0
  -18.0320  -26.0070   22.9028 H   0  0  0  0  0  0
  -19.7930  -30.7265   24.2266 H   0  0  0  0  0  0
  -17.5011  -31.6256   24.5171 H   0  0  0  0  0  0
  -15.5350  -30.2988   23.7648 H   0  0  0  0  0  0
  -15.8659  -28.0830   22.7055 H   0  0  0  0  0  0
  -24.5857  -30.7159   25.7851 H   0  0  0  0  0  0
  -24.9075  -32.2911   26.5033 H   0  0  0  0  0  0
  -25.8135  -30.8803   27.0204 H   0  0  0  0  0  0
  -26.2769  -29.6804   24.1156 H   0  0  0  0  0  0
  -27.4072  -29.7224   25.4485 H   0  0  0  0  0  0
  -27.8606  -30.4311   23.9162 H   0  0  0  0  0  0
  -27.2703  -33.3621   26.2024 H   0  0  0  0  0  0
  -28.3896  -32.6814   25.0308 H   0  0  0  0  0  0
  -28.0703  -31.8433   26.5421 H   0  0  0  0  0  0
  -28.2593  -38.0104   24.7511 H   0  0  0  0  0  0
  -28.1074  -36.2640   24.6271 H   0  0  0  0  0  0
  -27.2298  -37.1444   25.8862 H   0  0  0  0  0  0
  -20.9331  -29.8781   21.6967 H   0  0  0  0  0  0
  -26.0166  -38.2866   24.1434 H   0  0  0  0  0  0
  -31.5533  -27.2657   20.2669 H   0  0  0  0  0  0
  -30.2982  -28.2975   19.6135 H   0  0  0  0  0  0
  -30.5640  -26.7068   18.9150 H   0  0  0  0  0  0
  -28.9628  -24.0738   23.0959 H   0  0  0  0  0  0
  -27.8125  -25.1299   22.2903 H   0  0  0  0  0  0
  -28.9812  -25.7922   23.4283 H   0  0  0  0  0  0
  -31.4396  -24.4739   22.7613 H   0  0  0  0  0  0
  -31.4583  -26.2235   22.6476 H   0  0  0  0  0  0
  -32.0363  -25.2413   21.3046 H   0  0  0  0  0  0
  -27.7738  -16.9020   21.4649 H   0  0  0  0  0  0
  -27.4939  -18.5628   21.0455 H   0  0  0  0  0  0
  -28.3324  -18.1797   22.5364 H   0  0  0  0  0  0
  -28.9041  -16.6164   19.1066 H   0  0  0  0  0  0
  -30.2676  -17.6246   18.6600 H   0  0  0  0  0  0
  -28.6458  -18.2977   18.7534 H   0  0  0  0  0  0
  -29.7491  -22.0815   19.1540 H   0  0  0  0  0  0
  -31.2076  -21.5097   19.9074 H   0  0  0  0  0  0
  -30.4501  -24.2783   19.6445 H   0  0  0  0  0  0
  -28.7596  -24.0462   20.0403 H   0  0  0  0  0  0
  -30.6947  -17.0391   22.3930 H   0  0  0  0  0  0
  -31.5327  -16.9694   20.8721 H   0  0  0  0  0  0
  -28.7141  -20.2230   19.6769 H   0  0  0  0  0  0
  -28.6932  -20.6697   21.3514 H   0  0  0  0  0  0
  -29.3674  -27.3985   21.6419 H   0  0  0  0  0  0
  -29.1251  -15.2770   21.5136 H   0  0  0  0  0  0
  -30.9383  -22.8837   21.6140 H   0  0  0  0  0  0
  -30.5672  -19.4262   21.7823 H   0  0  0  0  0  0
  -31.0211  -19.3143   20.2346 H   0  0  0  0  0  0
  1 25  1  0  0  0
  1 30  2  0  0  0
  1 83  1  0  0  0
  2  3  1  0  0  0
  2 25  1  0  0  0
  2 86  1  0  0  0
  2 87  1  0  0  0
  3  4  1  0  0  0
  3 88  1  0  0  0
  3 89  1  0  0  0
  4  5  1  0  0  0
  4 90  1  0  0  0
  4 91  1  0  0  0
  5  6  1  0  0  0
  5 26  1  0  0  0
  5 92  1  0  0  0
  6 25  1  0  0  0
  6 93  1  0  0  0
  6 94  1  0  0  0
  7  8  2  0  0  0
  7 26  1  0  0  0
  7 29  1  0  0  0
  8  9  1  0  0  0
  8 22  1  0  0  0
  9 10  1  0  0  0
  9 27  2  0  0  0
 10 11  2  0  0  0
 10 15  1  0  0  0
 11 12  1  0  0  0
 11 95  1  0  0  0
 12 13  2  0  0  0
 12 96  1  0  0  0
 13 14  1  0  0  0
 13 31  1  0  0  0
 14 15  2  0  0  0
 14 97  1  0  0  0
 15 98  1  0  0  0
 16 17  2  0  0  0
 16 21  1  0  0  0
 16 31  1  0  0  0
 17 18  1  0  0  0
 17 99  1  0  0  0
 18 19  2  0  0  0
 18100  1  0  0  0
 19 20  1  0  0  0
 19 24  1  0  0  0
 20 21  2  0  0  0
 20101  1  0  0  0
 21 23  1  0  0  0
 22 28  1  0  0  0
 22 32  2  0  0  0
 26 27  1  0  0  0
 28102  1  0  0  0
 28103  1  0  0  0
 29104  1  0  0  0
 29105  1  0  0  0
 33 34  1  0  0  0
 33 66  1  0  0  0
 33 70  2  0  0  0
 34 36  1  0  0  0
 34 59  1  0  0  0
 34106  1  0  0  0
 35 44  2  0  0  0
 35 45  1  0  0  0
 35 68  1  0  0  0
 36 56  1  0  0  0
 36107  1  0  0  0
 37 39  1  0  0  0
 37 47  1  0  0  0
 37 66  1  0  0  0
 37108  1  0  0  0
 38 43  2  0  0  0
 38 46  1  0  0  0
 38 47  1  0  0  0
 39 64  1  0  0  0
 39 67  2  0  0  0
 40 52  1  0  0  0
 40 53  2  0  0  0
 40 58  1  0  0  0
 41109  1  0  0  0
 41110  1  0  0  0
 41111  1  0  0  0
 41 48  1  0  0  0
 42 43  1  0  0  0
 42 66  1  0  0  0
 42112  1  0  0  0
 42113  1  0  0  0
 43 44  1  0  0  0
 44114  1  0  0  0
 45 46  2  0  0  0
 45115  1  0  0  0
 46116  1  0  0  0
 47117  1  0  0  0
 47118  1  0  0  0
 48 56  1  0  0  0
 48 65  1  0  0  0
 48119  1  0  0  0
 49 50  1  0  0  0
 49 53  1  0  0  0
 49 64  1  0  0  0
 49120  1  0  0  0
 50 51  1  0  0  0
 50121  1  0  0  0
 50122  1  0  0  0
 51 52  1  0  0  0
 51123  1  0  0  0
 51124  1  0  0  0
 52125  1  0  0  0
 52126  1  0  0  0
 53 54  1  0  0  0
 54 55  2  0  0  0
 54127  1  0  0  0
 55 57  1  0  0  0
 55128  1  0  0  0
 56 69  2  0  0  0
 57 58  2  0  0  0
 57129  1  0  0  0
 58130  1  0  0  0
 59 60  1  0  0  0
 59 61  1  0  0  0
 59 62  1  0  0  0
 60131  1  0  0  0
 60132  1  0  0  0
 60133  1  0  0  0
 61134  1  0  0  0
 61135  1  0  0  0
 61136  1  0  0  0
 62137  1  0  0  0
 62138  1  0  0  0
 62139  1  0  0  0
 63 65  1  0  0  0
 63140  1  0  0  0
 63141  1  0  0  0
 63142  1  0  0  0
 64143  1  0  0  0
 65144  1  0  0  0
 68 80  1  0  0  0
 71145  1  0  0  0
 71146  1  0  0  0
 71147  1  0  0  0
 71 80  1  0  0  0
 72148  1  0  0  0
 72149  1  0  0  0
 72150  1  0  0  0
 72 81  1  0  0  0
 73 81  1  0  0  0
 73151  1  0  0  0
 73152  1  0  0  0
 73153  1  0  0  0
 74154  1  0  0  0
 74155  1  0  0  0
 74156  1  0  0  0
 74 82  1  0  0  0
 75 82  1  0  0  0
 75157  1  0  0  0
 75158  1  0  0  0
 75159  1  0  0  0
 76 79  1  0  0  0
 76 84  1  0  0  0
 76160  1  0  0  0
 76161  1  0  0  0
 77 81  1  0  0  0
 77 84  1  0  0  0
 77162  1  0  0  0
 77163  1  0  0  0
 78 82  1  0  0  0
 78 83  1  0  0  0
 78164  1  0  0  0
 78165  1  0  0  0
 79 85  1  0  0  0
 79166  1  0  0  0
 79167  1  0  0  0
 80 81  1  0  0  0
 80168  1  0  0  0
 82 85  1  0  0  0
 83169  1  0  0  0
 84170  1  0  0  0
 85171  1  0  0  0
 85172  1  0  0  0
M  CHG  1  85   1
M  ISO  4   1 100  68 101  80 101  83 100
M  END
> <chiral flag>
0

> <version>
0

> <s_m_source_file>
/data/baiqing/PycharmProjects/Reinvent-master-3.2/result/LINK_invent/BTK/process_docking_weight1_custom_sum_contain_oxygen_bond_distance_aromatic_linkinvent_7_9_3/rearranged_h_0108.sdf

> <i_m_source_file_index>
92

> <r_mmod_Potential_Energy-OPLS-2005>
-244.684783935547

> <r_mmod_Stretch_Energy-OPLS-2005>
43.5805244445801

> <r_mmod_Bend_Energy-OPLS-2005>
127.881164550781

> <r_mmod_Torsional_Energy-OPLS-2005>
248.542984008789

> <r_mmod_Improper_Torsional_Energy-OPLS-2005>
2.90994572639465

> <r_mmod_Van_der_Waal_Energy-OPLS-2005>
140.854522705078

> <r_mmod_Electrostatic_Energy-OPLS-2005>
-375.710113525391

> <r_mmod_Solvation_Energy-OPLS-2005>
-447.867370605469

> <b_mmod_Minimization_Converged-OPLS-2005>
0

> <r_mmod_RMS_Derivative-OPLS-2005>
5.21474266052246

$$$$
93
                    3D
 Structure written by MMmdl.
172180  0  0  1  0            999 V2000
  -30.5869  -14.7581   20.4673 C   0  0  0  0  0  0
  -30.4354  -12.4704   19.4658 C   0  0  0  0  0  0
  -29.5051  -12.5172   18.2321 C   0  0  0  0  0  0
  -28.0329  -12.3298   18.6485 C   0  0  0  0  0  0
  -27.6390  -13.2295   19.8487 C   0  0  2  0  0  0
  -28.6835  -13.1619   20.9827 C   0  0  0  0  0  0
  -25.2513  -13.8194   20.5715 C   0  0  0  0  0  0
  -24.1801  -13.0443   20.9235 C   0  0  0  0  0  0
  -24.6390  -11.6925   20.8758 C   0  0  0  0  0  0
  -23.9068  -10.4297   21.0407 C   0  0  0  0  0  0
  -24.3620   -9.4218   21.9180 C   0  0  0  0  0  0
  -23.6299   -8.2248   22.0747 C   0  0  0  0  0  0
  -22.4285   -8.0285   21.3539 C   0  0  0  0  0  0
  -21.9924   -9.0254   20.4632 C   0  0  0  0  0  0
  -22.7249  -10.2129   20.3046 C   0  0  0  0  0  0
  -21.6855   -6.0743   22.5279 C   0  0  0  0  0  0
  -21.4015   -6.5650   23.8219 C   0  0  0  0  0  0
  -21.3659   -5.6794   24.9179 C   0  0  0  0  0  0
  -21.6049   -4.3057   24.7220 C   0  0  0  0  0  0
  -21.8815   -3.8160   23.4346 C   0  0  0  0  0  0
  -21.9197   -4.6977   22.3407 C   0  0  0  0  0  0
  -22.7819  -13.5215   21.1882 C   0  0  0  0  0  0
  -22.1662   -4.2170   21.0980 F   0  0  0  0  0  0
  -21.5629   -3.4540   25.7733 F   0  0  0  0  0  0
  -29.9806  -13.5245   20.4012 N   0  0  0  0  0  0
  -26.2929  -12.9398   20.3283 N   0  0  0  0  0  0
  -25.9318  -11.6545   20.5759 N   0  0  0  0  0  0
  -22.0472  -12.8187   22.0426 N   0  0  0  0  0  0
  -25.4199  -15.1917   20.4117 N   0  0  0  0  0  0
  -31.7769  -14.8751   20.1594 O   0  0  0  0  0  0
  -21.6647   -6.8891   21.4241 O   0  0  0  0  0  0
  -22.3509  -14.5524   20.6729 O   0  0  0  0  0  0
  -24.6314  -31.8547   23.1995 C   0  0  0  0  0  0
  -25.9159  -32.4715   23.8361 C   0  0  1  0  0  0
  -27.2214  -27.2731   20.1319 C   0  0  0  0  0  0
  -25.5998  -33.8522   24.2309 N   0  0  0  0  0  0
  -23.4252  -30.4797   21.5387 C   0  0  2  0  0  0
  -24.8731  -28.9238   20.1036 C   0  0  0  0  0  0
  -22.7510  -29.4590   22.4880 C   0  0  0  0  0  0
  -18.0303  -28.1382   22.8444 C   0  0  0  0  0  0
  -24.1474  -36.7234   23.2653 C   0  0  0  0  0  0
  -25.9701  -30.7705   21.3771 C   0  0  0  0  0  0
  -26.0402  -29.3949   20.7181 C   0  0  0  0  0  0
  -27.2101  -28.5786   20.7239 C   0  0  0  0  0  0
  -26.0405  -26.8673   19.4739 C   0  0  0  0  0  0
  -24.8776  -27.6666   19.4748 C   0  0  0  0  0  0
  -23.6472  -29.8169   20.1516 C   0  0  0  0  0  0
  -25.4098  -36.3037   24.0351 C   0  0  1  0  0  0
  -20.5905  -28.3688   23.1260 C   0  0  2  0  0  0
  -20.6787  -26.9417   22.5402 C   0  0  0  0  0  0
  -19.5755  -26.6378   21.5201 C   0  0  0  0  0  0
  -18.1916  -26.7919   22.1599 C   0  0  0  0  0  0
  -19.1555  -28.8841   23.2826 C   0  0  0  0  0  0
  -18.9497  -30.1427   23.8865 C   0  0  0  0  0  0
  -17.6508  -30.6574   24.0544 C   0  0  0  0  0  0
  -25.9063  -34.9410   23.5118 C   0  0  0  0  0  0
  -16.5386  -29.9081   23.6318 C   0  0  0  0  0  0
  -16.7285  -28.6499   23.0333 C   0  0  0  0  0  0
  -26.4538  -31.6522   25.0727 C   0  0  0  0  0  0
  -25.3787  -31.3653   26.1471 C   0  0  0  0  0  0
  -27.0430  -30.2961   24.6168 C   0  0  0  0  0  0
  -27.6071  -32.4298   25.7509 C   0  0  0  0  0  0
  -27.5552  -37.1747   24.8485 C   0  0  0  0  0  0
  -21.4214  -29.3031   22.3636 N   0  0  0  0  0  0
  -26.4258  -37.3739   23.9442 N   0  0  0  0  0  0
  -24.6942  -31.0535   22.0961 N   0  0  0  0  0  0
  -23.4215  -28.8161   23.2989 O   0  0  0  0  0  0
  -28.3492  -26.4334   20.2231 O   0  0  0  0  0  0
  -26.5591  -34.8892   22.4664 O   0  0  0  0  0  0
  -23.5473  -32.1419   23.7268 O   0  0  0  0  0  0
  -29.9026  -22.0520   21.6526 C   0  0  0  0  0  0
  -28.4067  -21.0892   20.3757 C   0  0  0  0  0  0
  -28.7526  -22.3556   20.8668 C   0  0  0  0  0  0
  -30.1318  -20.6918   21.7298 C   0  0  0  0  0  0
  -30.3917  -19.1929   23.7438 C   0  0  0  0  0  0
  -32.1315  -20.9286   23.2883 C   0  0  0  0  0  0
  -26.0713  -23.8839   23.4595 C   0  0  0  0  0  0
  -24.5075  -22.5094   22.0410 C   0  0  0  0  0  0
  -26.4959  -23.6366   20.9468 C   0  0  0  0  0  0
  -28.9826  -18.5083   20.7055 C   0  0  0  0  0  0
  -30.1572  -17.3704   20.6551 C   0  0  0  0  0  0
  -28.4115  -24.9836   19.8299 C   0  0  0  0  0  0
  -28.0301  -23.7968   20.8604 C   0  0  1  0  0  0
  -31.1104  -19.9816   22.6325 C   0  0  0  0  0  0
  -25.9632  -22.9592   22.2317 C   0  0  0  0  0  0
  -29.2246  -20.0294   20.8879 N   0  0  0  0  0  0
  -29.7904  -15.8777   20.6777 N   0  0  0  0  0  0
  -31.4711  -12.6181   19.1565 H   0  0  0  0  0  0
  -30.4011  -11.4916   19.9469 H   0  0  0  0  0  0
  -29.7891  -11.7517   17.5084 H   0  0  0  0  0  0
  -29.6188  -13.4764   17.7237 H   0  0  0  0  0  0
  -27.8931  -11.2807   18.9100 H   0  0  0  0  0  0
  -27.3726  -12.5214   17.8018 H   0  0  0  0  0  0
  -27.6304  -14.2499   19.4656 H   0  0  0  0  0  0
  -28.7284  -12.1622   21.4174 H   0  0  0  0  0  0
  -28.4186  -13.8367   21.7983 H   0  0  0  0  0  0
  -25.2753   -9.5711   22.4765 H   0  0  0  0  0  0
  -24.0023   -7.4643   22.7449 H   0  0  0  0  0  0
  -21.0872   -8.8764   19.8913 H   0  0  0  0  0  0
  -22.3709  -10.9674   19.6160 H   0  0  0  0  0  0
  -21.2001   -7.6157   23.9734 H   0  0  0  0  0  0
  -21.1479   -6.0520   25.9084 H   0  0  0  0  0  0
  -22.0594   -2.7623   23.2834 H   0  0  0  0  0  0
  -22.4102  -11.9858   22.4813 H   0  0  0  0  0  0
  -21.1072  -13.1175   22.2602 H   0  0  0  0  0  0
  -24.6453  -15.8406   20.5183 H   0  0  0  0  0  0
  -26.2518  -15.6280   20.0379 H   0  0  0  0  0  0
  -26.7211  -32.5359   23.1087 H   0  0  0  0  0  0
  -25.0286  -33.9680   25.0559 H   0  0  0  0  0  0
  -22.7208  -31.2997   21.3898 H   0  0  0  0  0  0
  -23.3742  -35.9561   23.3315 H   0  0  0  0  0  0
  -24.3572  -36.8844   22.2065 H   0  0  0  0  0  0
  -23.7226  -37.6433   23.6679 H   0  0  0  0  0  0
  -26.1155  -31.5332   20.6115 H   0  0  0  0  0  0
  -26.8452  -30.8120   22.0125 H   0  0  0  0  0  0
  -28.1001  -28.9338   21.2254 H   0  0  0  0  0  0
  -25.9885  -25.9116   18.9773 H   0  0  0  0  0  0
  -23.9848  -27.3015   18.9835 H   0  0  0  0  0  0
  -23.7888  -30.6009   19.4062 H   0  0  0  0  0  0
  -22.7645  -29.2611   19.8305 H   0  0  0  0  0  0
  -25.1251  -36.1867   25.0835 H   0  0  0  0  0  0
  -20.9955  -28.3264   24.1396 H   0  0  0  0  0  0
  -20.5689  -26.2299   23.3599 H   0  0  0  0  0  0
  -21.6654  -26.7442   22.1180 H   0  0  0  0  0  0
  -19.6938  -25.6292   21.1211 H   0  0  0  0  0  0
  -19.6694  -27.3195   20.6731 H   0  0  0  0  0  0
  -17.4213  -26.6669   21.3981 H   0  0  0  0  0  0
  -18.0290  -26.0078   22.9014 H   0  0  0  0  0  0
  -19.7999  -30.7210   24.2237 H   0  0  0  0  0  0
  -17.5098  -31.6265   24.5157 H   0  0  0  0  0  0
  -15.5385  -30.2998   23.7655 H   0  0  0  0  0  0
  -15.8681  -28.0816   22.7071 H   0  0  0  0  0  0
  -24.6000  -30.6932   25.7838 H   0  0  0  0  0  0
  -24.8939  -32.2802   26.4882 H   0  0  0  0  0  0
  -25.8166  -30.8889   27.0263 H   0  0  0  0  0  0
  -26.3011  -29.6600   24.1322 H   0  0  0  0  0  0
  -27.4319  -29.7282   25.4632 H   0  0  0  0  0  0
  -27.8790  -30.4263   23.9299 H   0  0  0  0  0  0
  -27.2672  -33.3640   26.2007 H   0  0  0  0  0  0
  -28.3941  -32.6789   25.0370 H   0  0  0  0  0  0
  -28.0688  -31.8482   26.5499 H   0  0  0  0  0  0
  -28.2542  -38.0061   24.7542 H   0  0  0  0  0  0
  -28.1062  -36.2589   24.6294 H   0  0  0  0  0  0
  -27.2287  -37.1384   25.8892 H   0  0  0  0  0  0
  -20.9434  -29.8818   21.6873 H   0  0  0  0  0  0
  -26.0114  -38.2791   24.1496 H   0  0  0  0  0  0
  -30.4480  -22.7852   22.2301 H   0  0  0  0  0  0
  -27.5572  -20.8195   19.7617 H   0  0  0  0  0  0
  -29.7007  -18.4509   23.3503 H   0  0  0  0  0  0
  -29.8140  -19.8586   24.3861 H   0  0  0  0  0  0
  -31.1027  -18.6620   24.3757 H   0  0  0  0  0  0
  -32.7002  -21.4821   22.5410 H   0  0  0  0  0  0
  -32.8511  -20.3719   23.8888 H   0  0  0  0  0  0
  -31.6499  -21.6500   23.9498 H   0  0  0  0  0  0
  -25.6516  -23.4204   24.3526 H   0  0  0  0  0  0
  -25.5386  -24.8234   23.3012 H   0  0  0  0  0  0
  -27.1064  -24.1270   23.6935 H   0  0  0  0  0  0
  -24.4147  -21.8182   21.2017 H   0  0  0  0  0  0
  -23.8471  -23.3571   21.8512 H   0  0  0  0  0  0
  -24.1431  -21.9903   22.9285 H   0  0  0  0  0  0
  -26.1577  -23.0926   20.0630 H   0  0  0  0  0  0
  -26.0264  -24.6159   20.8813 H   0  0  0  0  0  0
  -28.2962  -18.2214   21.5025 H   0  0  0  0  0  0
  -28.3893  -18.3964   19.7970 H   0  0  0  0  0  0
  -30.8215  -17.4835   21.5053 H   0  0  0  0  0  0
  -30.7723  -17.5520   19.7718 H   0  0  0  0  0  0
  -27.9188  -24.8230   18.8716 H   0  0  0  0  0  0
  -29.4713  -24.8467   19.6072 H   0  0  0  0  0  0
  -28.3405  -24.2130   21.8184 H   0  0  0  0  0  0
  -31.7069  -19.3043   22.0268 H   0  0  0  0  0  0
  -26.5468  -22.0591   22.4325 H   0  0  0  0  0  0
  -28.8214  -15.6745   20.8643 H   0  0  0  0  0  0
  1 25  1  0  0  0
  1 30  2  0  0  0
  1 87  1  0  0  0
  2  3  1  0  0  0
  2 25  1  0  0  0
  2 88  1  0  0  0
  2 89  1  0  0  0
  3  4  1  0  0  0
  3 90  1  0  0  0
  3 91  1  0  0  0
  4  5  1  0  0  0
  4 92  1  0  0  0
  4 93  1  0  0  0
  5  6  1  0  0  0
  5 26  1  0  0  0
  5 94  1  0  0  0
  6 25  1  0  0  0
  6 95  1  0  0  0
  6 96  1  0  0  0
  7  8  2  0  0  0
  7 26  1  0  0  0
  7 29  1  0  0  0
  8  9  1  0  0  0
  8 22  1  0  0  0
  9 10  1  0  0  0
  9 27  2  0  0  0
 10 11  2  0  0  0
 10 15  1  0  0  0
 11 12  1  0  0  0
 11 97  1  0  0  0
 12 13  2  0  0  0
 12 98  1  0  0  0
 13 14  1  0  0  0
 13 31  1  0  0  0
 14 15  2  0  0  0
 14 99  1  0  0  0
 15100  1  0  0  0
 16 17  2  0  0  0
 16 21  1  0  0  0
 16 31  1  0  0  0
 17 18  1  0  0  0
 17101  1  0  0  0
 18 19  2  0  0  0
 18102  1  0  0  0
 19 20  1  0  0  0
 19 24  1  0  0  0
 20 21  2  0  0  0
 20103  1  0  0  0
 21 23  1  0  0  0
 22 28  1  0  0  0
 22 32  2  0  0  0
 26 27  1  0  0  0
 28104  1  0  0  0
 28105  1  0  0  0
 29106  1  0  0  0
 29107  1  0  0  0
 33 34  1  0  0  0
 33 66  1  0  0  0
 33 70  2  0  0  0
 34 36  1  0  0  0
 34 59  1  0  0  0
 34108  1  0  0  0
 35 44  2  0  0  0
 35 45  1  0  0  0
 35 68  1  0  0  0
 36 56  1  0  0  0
 36109  1  0  0  0
 37 39  1  0  0  0
 37 47  1  0  0  0
 37 66  1  0  0  0
 37110  1  0  0  0
 38 43  2  0  0  0
 38 46  1  0  0  0
 38 47  1  0  0  0
 39 64  1  0  0  0
 39 67  2  0  0  0
 40 52  1  0  0  0
 40 53  2  0  0  0
 40 58  1  0  0  0
 41111  1  0  0  0
 41112  1  0  0  0
 41113  1  0  0  0
 41 48  1  0  0  0
 42 43  1  0  0  0
 42 66  1  0  0  0
 42114  1  0  0  0
 42115  1  0  0  0
 43 44  1  0  0  0
 44116  1  0  0  0
 45 46  2  0  0  0
 45117  1  0  0  0
 46118  1  0  0  0
 47119  1  0  0  0
 47120  1  0  0  0
 48 56  1  0  0  0
 48 65  1  0  0  0
 48121  1  0  0  0
 49 50  1  0  0  0
 49 53  1  0  0  0
 49 64  1  0  0  0
 49122  1  0  0  0
 50 51  1  0  0  0
 50123  1  0  0  0
 50124  1  0  0  0
 51 52  1  0  0  0
 51125  1  0  0  0
 51126  1  0  0  0
 52127  1  0  0  0
 52128  1  0  0  0
 53 54  1  0  0  0
 54 55  2  0  0  0
 54129  1  0  0  0
 55 57  1  0  0  0
 55130  1  0  0  0
 56 69  2  0  0  0
 57 58  2  0  0  0
 57131  1  0  0  0
 58132  1  0  0  0
 59 60  1  0  0  0
 59 61  1  0  0  0
 59 62  1  0  0  0
 60133  1  0  0  0
 60134  1  0  0  0
 60135  1  0  0  0
 61136  1  0  0  0
 61137  1  0  0  0
 61138  1  0  0  0
 62139  1  0  0  0
 62140  1  0  0  0
 62141  1  0  0  0
 63 65  1  0  0  0
 63142  1  0  0  0
 63143  1  0  0  0
 63144  1  0  0  0
 64145  1  0  0  0
 65146  1  0  0  0
 68 82  1  0  0  0
 71 73  1  0  0  0
 71 74  2  0  0  0
 71147  1  0  0  0
 72 73  2  0  0  0
 72 86  1  0  0  0
 72148  1  0  0  0
 73 83  1  0  0  0
 74 84  1  0  0  0
 74 86  1  0  0  0
 75149  1  0  0  0
 75150  1  0  0  0
 75151  1  0  0  0
 75 84  1  0  0  0
 76 84  1  0  0  0
 76152  1  0  0  0
 76153  1  0  0  0
 76154  1  0  0  0
 77155  1  0  0  0
 77156  1  0  0  0
 77157  1  0  0  0
 77 85  1  0  0  0
 78 85  1  0  0  0
 78158  1  0  0  0
 78159  1  0  0  0
 78160  1  0  0  0
 79 85  1  0  0  0
 79161  1  0  0  0
 79162  1  0  0  0
 79 83  1  0  0  0
 80 81  1  0  0  0
 80 86  1  0  0  0
 80163  1  0  0  0
 80164  1  0  0  0
 81 87  1  0  0  0
 81165  1  0  0  0
 81166  1  0  0  0
 82 83  1  0  0  0
 82167  1  0  0  0
 82168  1  0  0  0
 83169  1  0  0  0
 84170  1  0  0  0
 85171  1  0  0  0
 87172  1  0  0  0
M  ISO  4   1 100  68 101  82 101  87 100
M  END
> <chiral flag>
0

> <version>
0

> <s_m_source_file>
/data/baiqing/PycharmProjects/Reinvent-master-3.2/result/LINK_invent/BTK/process_docking_weight1_custom_sum_contain_oxygen_bond_distance_aromatic_linkinvent_7_9_3/rearranged_h_0108.sdf

> <i_m_source_file_index>
93

> <r_mmod_Potential_Energy-OPLS-2005>
176.571319580078

> <r_mmod_Stretch_Energy-OPLS-2005>
131.671569824219

> <r_mmod_Bend_Energy-OPLS-2005>
206.729888916016

> <r_mmod_Torsional_Energy-OPLS-2005>
229.011917114258

> <r_mmod_Improper_Torsional_Energy-OPLS-2005>
7.72109842300415

> <r_mmod_Van_der_Waal_Energy-OPLS-2005>
108.646240234375

> <r_mmod_Electrostatic_Energy-OPLS-2005>
-387.172515869141

> <r_mmod_Solvation_Energy-OPLS-2005>
-204.801712036133

> <b_mmod_Minimization_Converged-OPLS-2005>
0

> <r_mmod_RMS_Derivative-OPLS-2005>
3.44442391395569

$$$$
94
                    3D
 Structure written by MMmdl.
172180  0  0  1  0            999 V2000
  -30.6952  -14.5610   20.4605 C   0  0  0  0  0  0
  -30.4197  -12.3394   19.4493 C   0  0  0  0  0  0
  -29.4896  -12.4701   18.2264 C   0  0  0  0  0  0
  -28.0158  -12.3137   18.6484 C   0  0  0  0  0  0
  -27.6409  -13.1942   19.8685 C   0  0  2  0  0  0
  -28.7013  -13.0718   20.9861 C   0  0  0  0  0  0
  -25.2432  -13.8041   20.5593 C   0  0  0  0  0  0
  -24.1747  -13.0350   20.9215 C   0  0  0  0  0  0
  -24.6355  -11.6835   20.8859 C   0  0  0  0  0  0
  -23.9028  -10.4259   21.0463 C   0  0  0  0  0  0
  -24.3587   -9.4169   21.9215 C   0  0  0  0  0  0
  -23.6254   -8.2220   22.0748 C   0  0  0  0  0  0
  -22.4234   -8.0283   21.3533 C   0  0  0  0  0  0
  -21.9885   -9.0279   20.4639 C   0  0  0  0  0  0
  -22.7235  -10.2148   20.3063 C   0  0  0  0  0  0
  -21.6842   -6.0725   22.5255 C   0  0  0  0  0  0
  -21.4036   -6.5630   23.8201 C   0  0  0  0  0  0
  -21.3655   -5.6774   24.9153 C   0  0  0  0  0  0
  -21.6045   -4.3036   24.7211 C   0  0  0  0  0  0
  -21.8829   -3.8133   23.4331 C   0  0  0  0  0  0
  -21.9201   -4.6955   22.3388 C   0  0  0  0  0  0
  -22.7763  -13.5172   21.1874 C   0  0  0  0  0  0
  -22.1661   -4.2132   21.0968 F   0  0  0  0  0  0
  -21.5621   -3.4523   25.7728 F   0  0  0  0  0  0
  -30.0139  -13.3799   20.4109 N   0  0  0  0  0  0
  -26.2923  -12.9232   20.3448 N   0  0  0  0  0  0
  -25.9306  -11.6422   20.5974 N   0  0  0  0  0  0
  -22.0408  -12.8218   22.0460 N   0  0  0  0  0  0
  -25.3931  -15.1728   20.3631 N   0  0  0  0  0  0
  -31.9049  -14.5729   20.2187 O   0  0  0  0  0  0
  -21.6614   -6.8874   21.4215 O   0  0  0  0  0  0
  -22.3483  -14.5507   20.6692 O   0  0  0  0  0  0
  -24.6150  -31.8697   23.2079 C   0  0  0  0  0  0
  -25.9070  -32.4819   23.8358 C   0  0  1  0  0  0
  -27.2405  -27.4357   20.0934 C   0  0  0  0  0  0
  -25.5953  -33.8615   24.2328 N   0  0  0  0  0  0
  -23.4005  -30.4909   21.5487 C   0  0  2  0  0  0
  -24.8422  -28.9470   20.1194 C   0  0  0  0  0  0
  -22.7400  -29.4702   22.5013 C   0  0  0  0  0  0
  -18.0280  -28.1367   22.8471 C   0  0  0  0  0  0
  -24.1488  -36.7322   23.2632 C   0  0  0  0  0  0
  -25.9244  -30.8311   21.3594 C   0  0  0  0  0  0
  -25.9990  -29.4595   20.7174 C   0  0  0  0  0  0
  -27.1946  -28.7080   20.7070 C   0  0  0  0  0  0
  -26.0585  -26.9313   19.4993 C   0  0  0  0  0  0
  -24.8653  -27.6786   19.5137 C   0  0  0  0  0  0
  -23.6061  -29.8151   20.1641 C   0  0  0  0  0  0
  -25.4106  -36.3118   24.0338 C   0  0  1  0  0  0
  -20.5850  -28.3683   23.1320 C   0  0  2  0  0  0
  -20.6782  -26.9417   22.5452 C   0  0  0  0  0  0
  -19.5813  -26.6397   21.5190 C   0  0  0  0  0  0
  -18.1973  -26.7918   22.1577 C   0  0  0  0  0  0
  -19.1509  -28.8848   23.2882 C   0  0  0  0  0  0
  -18.9435  -30.1451   23.8902 C   0  0  0  0  0  0
  -17.6441  -30.6599   24.0540 C   0  0  0  0  0  0
  -25.9042  -34.9487   23.5135 C   0  0  0  0  0  0
  -16.5341  -29.9086   23.6314 C   0  0  0  0  0  0
  -16.7270  -28.6493   23.0362 C   0  0  0  0  0  0
  -26.4504  -31.6572   25.0669 C   0  0  0  0  0  0
  -25.3802  -31.3635   26.1435 C   0  0  0  0  0  0
  -27.0315  -30.3028   24.5986 C   0  0  0  0  0  0
  -27.6102  -32.4253   25.7431 C   0  0  0  0  0  0
  -27.5588  -37.1807   24.8472 C   0  0  0  0  0  0
  -21.4142  -29.3037   22.3728 N   0  0  0  0  0  0
  -26.4301  -37.3787   23.9407 N   0  0  0  0  0  0
  -24.6648  -31.0801   22.0979 N   0  0  0  0  0  0
  -23.4177  -28.8313   23.3104 O   0  0  0  0  0  0
  -28.4458  -26.7580   20.0988 O   0  0  0  0  0  0
  -26.5592  -34.8944   22.4687 O   0  0  0  0  0  0
  -23.5359  -32.1448   23.7514 O   0  0  0  0  0  0
  -29.1322  -21.7354   22.9168 C   0  0  0  0  0  0
  -28.2701  -19.6835   21.6973 C   0  0  0  0  0  0
  -29.5355  -20.8169   24.0936 C   0  0  0  0  0  0
  -27.9392  -21.1364   22.1407 C   0  0  2  0  0  0
  -28.6677  -18.8035   22.9261 C   0  0  1  0  0  0
  -28.9733  -16.3333   19.3955 C   0  0  0  0  0  0
  -27.5461  -16.5985   22.3294 C   0  0  0  0  0  0
  -27.9831  -24.3883   20.6438 C   0  0  0  0  0  0
  -30.1119  -16.9112   21.7432 C   0  0  0  0  0  0
  -28.2275  -22.9075   20.2616 C   0  0  0  0  0  0
  -28.5415  -25.4088   19.6270 C   0  0  0  0  0  0
  -30.0164  -15.9880   20.4799 C   0  0  1  0  0  0
  -28.8858  -17.2714   22.6521 C   0  0  1  0  0  0
  -29.8039  -19.4215   23.6601 N   0  3  0  0  0  0
  -27.3696  -21.9835   21.0487 N   0  3  0  0  0  0
  -31.4630  -12.4191   19.1368 H   0  0  0  0  0  0
  -30.3268  -11.3556   19.9092 H   0  0  0  0  0  0
  -29.7435  -11.7160   17.4816 H   0  0  0  0  0  0
  -29.6385  -13.4384   17.7477 H   0  0  0  0  0  0
  -27.8664  -11.2643   18.9048 H   0  0  0  0  0  0
  -27.3533  -12.5241   17.8082 H   0  0  0  0  0  0
  -27.6287  -14.2087   19.5045 H   0  0  0  0  0  0
  -28.7011  -12.0514   21.3747 H   0  0  0  0  0  0
  -28.4998  -13.6985   21.8499 H   0  0  0  0  0  0
  -25.2750   -9.5636   22.4755 H   0  0  0  0  0  0
  -23.9975   -7.4587   22.7433 H   0  0  0  0  0  0
  -21.0834   -8.8843   19.8906 H   0  0  0  0  0  0
  -22.3756  -10.9704   19.6148 H   0  0  0  0  0  0
  -21.2070   -7.6145   23.9716 H   0  0  0  0  0  0
  -21.1439   -6.0487   25.9048 H   0  0  0  0  0  0
  -22.0615   -2.7587   23.2833 H   0  0  0  0  0  0
  -22.4020  -11.9941   22.4981 H   0  0  0  0  0  0
  -21.1017  -13.1236   22.2688 H   0  0  0  0  0  0
  -24.5906  -15.7907   20.3927 H   0  0  0  0  0  0
  -26.2250  -15.6180   20.0020 H   0  0  0  0  0  0
  -26.7163  -32.5528   23.1141 H   0  0  0  0  0  0
  -25.0133  -33.9733   25.0508 H   0  0  0  0  0  0
  -22.6898  -31.3073   21.4066 H   0  0  0  0  0  0
  -23.3738  -35.9669   23.3310 H   0  0  0  0  0  0
  -24.3595  -36.8927   22.2044 H   0  0  0  0  0  0
  -23.7239  -37.6543   23.6622 H   0  0  0  0  0  0
  -26.0258  -31.5853   20.5778 H   0  0  0  0  0  0
  -26.8207  -30.8962   21.9657 H   0  0  0  0  0  0
  -28.0907  -29.0975   21.1712 H   0  0  0  0  0  0
  -26.0386  -25.9650   19.0188 H   0  0  0  0  0  0
  -23.9747  -27.2753   19.0506 H   0  0  0  0  0  0
  -23.7192  -30.5865   19.4002 H   0  0  0  0  0  0
  -22.7266  -29.2376   19.8699 H   0  0  0  0  0  0
  -25.1260  -36.2010   25.0823 H   0  0  0  0  0  0
  -20.9887  -28.3278   24.1460 H   0  0  0  0  0  0
  -20.5657  -26.2270   23.3637 H   0  0  0  0  0  0
  -21.6673  -26.7493   22.1286 H   0  0  0  0  0  0
  -19.7048  -25.6326   21.1199 H   0  0  0  0  0  0
  -19.6765  -27.3210   20.6728 H   0  0  0  0  0  0
  -17.4234  -26.6657   21.3992 H   0  0  0  0  0  0
  -18.0414  -26.0017   22.8938 H   0  0  0  0  0  0
  -19.7905  -30.7245   24.2290 H   0  0  0  0  0  0
  -17.4981  -31.6305   24.5081 H   0  0  0  0  0  0
  -15.5341  -30.2992   23.7568 H   0  0  0  0  0  0
  -15.8678  -28.0797   22.7107 H   0  0  0  0  0  0
  -24.5995  -30.6960   25.7780 H   0  0  0  0  0  0
  -24.8967  -32.2758   26.4924 H   0  0  0  0  0  0
  -25.8197  -30.8791   27.0168 H   0  0  0  0  0  0
  -26.2806  -29.6769   24.1147 H   0  0  0  0  0  0
  -27.4247  -29.7264   25.4377 H   0  0  0  0  0  0
  -27.8581  -30.4356   23.8997 H   0  0  0  0  0  0
  -27.2752  -33.3534   26.2064 H   0  0  0  0  0  0
  -28.3882  -32.6835   25.0237 H   0  0  0  0  0  0
  -28.0803  -31.8331   26.5294 H   0  0  0  0  0  0
  -28.2608  -38.0095   24.7505 H   0  0  0  0  0  0
  -28.1075  -36.2635   24.6307 H   0  0  0  0  0  0
  -27.2315  -37.1479   25.8875 H   0  0  0  0  0  0
  -20.9315  -29.8775   21.6969 H   0  0  0  0  0  0
  -26.0223  -38.2885   24.1388 H   0  0  0  0  0  0
  -29.9992  -21.8668   22.2698 H   0  0  0  0  0  0
  -28.8776  -22.7241   23.3038 H   0  0  0  0  0  0
  -29.0685  -19.6850   20.9563 H   0  0  0  0  0  0
  -27.3987  -19.2565   21.2008 H   0  0  0  0  0  0
  -28.7474  -20.8122   24.8495 H   0  0  0  0  0  0
  -30.4245  -21.2094   24.5909 H   0  0  0  0  0  0
  -27.1150  -21.0652   22.8521 H   0  0  0  0  0  0
  -27.8213  -18.8544   23.6143 H   0  0  0  0  0  0
  -29.1244  -17.3463   19.0158 H   0  0  0  0  0  0
  -27.9496  -16.2923   19.7496 H   0  0  0  0  0  0
  -29.0610  -15.6738   18.5330 H   0  0  0  0  0  0
  -26.9027  -16.5770   23.2100 H   0  0  0  0  0  0
  -27.6635  -15.5729   22.0121 H   0  0  0  0  0  0
  -26.9936  -17.1164   21.5506 H   0  0  0  0  0  0
  -28.4396  -24.5828   21.6127 H   0  0  0  0  0  0
  -26.9151  -24.5637   20.7678 H   0  0  0  0  0  0
  -30.5339  -17.8584   21.4043 H   0  0  0  0  0  0
  -30.8920  -16.5010   22.3888 H   0  0  0  0  0  0
  -29.2846  -22.6483   20.3224 H   0  0  0  0  0  0
  -27.9565  -22.7649   19.2142 H   0  0  0  0  0  0
  -29.6038  -25.2064   19.4819 H   0  0  0  0  0  0
  -28.0943  -25.2974   18.6384 H   0  0  0  0  0  0
  -30.8326  -16.4730   19.9376 H   0  0  0  0  0  0
  -29.1388  -16.8358   23.6190 H   0  0  0  0  0  0
  -29.9987  -18.8832   24.4916 H   0  0  0  0  0  0
  -30.6408  -19.3991   23.0995 H   0  0  0  0  0  0
  -26.9132  -21.3689   20.3940 H   0  0  0  0  0  0
  -26.6359  -22.5486   21.4458 H   0  0  0  0  0  0
  1 25  1  0  0  0
  1 30  2  0  0  0
  1 82  1  0  0  0
  2  3  1  0  0  0
  2 25  1  0  0  0
  2 86  1  0  0  0
  2 87  1  0  0  0
  3  4  1  0  0  0
  3 88  1  0  0  0
  3 89  1  0  0  0
  4  5  1  0  0  0
  4 90  1  0  0  0
  4 91  1  0  0  0
  5  6  1  0  0  0
  5 26  1  0  0  0
  5 92  1  0  0  0
  6 25  1  0  0  0
  6 93  1  0  0  0
  6 94  1  0  0  0
  7  8  2  0  0  0
  7 26  1  0  0  0
  7 29  1  0  0  0
  8  9  1  0  0  0
  8 22  1  0  0  0
  9 10  1  0  0  0
  9 27  2  0  0  0
 10 11  2  0  0  0
 10 15  1  0  0  0
 11 12  1  0  0  0
 11 95  1  0  0  0
 12 13  2  0  0  0
 12 96  1  0  0  0
 13 14  1  0  0  0
 13 31  1  0  0  0
 14 15  2  0  0  0
 14 97  1  0  0  0
 15 98  1  0  0  0
 16 17  2  0  0  0
 16 21  1  0  0  0
 16 31  1  0  0  0
 17 18  1  0  0  0
 17 99  1  0  0  0
 18 19  2  0  0  0
 18100  1  0  0  0
 19 20  1  0  0  0
 19 24  1  0  0  0
 20 21  2  0  0  0
 20101  1  0  0  0
 21 23  1  0  0  0
 22 28  1  0  0  0
 22 32  2  0  0  0
 26 27  1  0  0  0
 28102  1  0  0  0
 28103  1  0  0  0
 29104  1  0  0  0
 29105  1  0  0  0
 33 34  1  0  0  0
 33 66  1  0  0  0
 33 70  2  0  0  0
 34 36  1  0  0  0
 34 59  1  0  0  0
 34106  1  0  0  0
 35 44  2  0  0  0
 35 45  1  0  0  0
 35 68  1  0  0  0
 36 56  1  0  0  0
 36107  1  0  0  0
 37 39  1  0  0  0
 37 47  1  0  0  0
 37 66  1  0  0  0
 37108  1  0  0  0
 38 43  2  0  0  0
 38 46  1  0  0  0
 38 47  1  0  0  0
 39 64  1  0  0  0
 39 67  2  0  0  0
 40 52  1  0  0  0
 40 53  2  0  0  0
 40 58  1  0  0  0
 41109  1  0  0  0
 41110  1  0  0  0
 41111  1  0  0  0
 41 48  1  0  0  0
 42 43  1  0  0  0
 42 66  1  0  0  0
 42112  1  0  0  0
 42113  1  0  0  0
 43 44  1  0  0  0
 44114  1  0  0  0
 45 46  2  0  0  0
 45115  1  0  0  0
 46116  1  0  0  0
 47117  1  0  0  0
 47118  1  0  0  0
 48 56  1  0  0  0
 48 65  1  0  0  0
 48119  1  0  0  0
 49 50  1  0  0  0
 49 53  1  0  0  0
 49 64  1  0  0  0
 49120  1  0  0  0
 50 51  1  0  0  0
 50121  1  0  0  0
 50122  1  0  0  0
 51 52  1  0  0  0
 51123  1  0  0  0
 51124  1  0  0  0
 52125  1  0  0  0
 52126  1  0  0  0
 53 54  1  0  0  0
 54 55  2  0  0  0
 54127  1  0  0  0
 55 57  1  0  0  0
 55128  1  0  0  0
 56 69  2  0  0  0
 57 58  2  0  0  0
 57129  1  0  0  0
 58130  1  0  0  0
 59 60  1  0  0  0
 59 61  1  0  0  0
 59 62  1  0  0  0
 60131  1  0  0  0
 60132  1  0  0  0
 60133  1  0  0  0
 61134  1  0  0  0
 61135  1  0  0  0
 61136  1  0  0  0
 62137  1  0  0  0
 62138  1  0  0  0
 62139  1  0  0  0
 63 65  1  0  0  0
 63140  1  0  0  0
 63141  1  0  0  0
 63142  1  0  0  0
 64143  1  0  0  0
 65144  1  0  0  0
 68 81  1  0  0  0
 71 73  1  0  0  0
 71 74  1  0  0  0
 71145  1  0  0  0
 71146  1  0  0  0
 72 74  1  0  0  0
 72147  1  0  0  0
 72148  1  0  0  0
 72 75  1  0  0  0
 73 84  1  0  0  0
 73149  1  0  0  0
 73150  1  0  0  0
 74 85  1  0  0  0
 74151  1  0  0  0
 75 83  1  0  0  0
 75 84  1  0  0  0
 75152  1  0  0  0
 76153  1  0  0  0
 76154  1  0  0  0
 76155  1  0  0  0
 76 82  1  0  0  0
 77156  1  0  0  0
 77157  1  0  0  0
 77158  1  0  0  0
 77 83  1  0  0  0
 78 80  1  0  0  0
 78 81  1  0  0  0
 78159  1  0  0  0
 78160  1  0  0  0
 79 82  1  0  0  0
 79 83  1  0  0  0
 79161  1  0  0  0
 79162  1  0  0  0
 80 85  1  0  0  0
 80163  1  0  0  0
 80164  1  0  0  0
 81165  1  0  0  0
 81166  1  0  0  0
 82167  1  0  0  0
 83168  1  0  0  0
 84169  1  0  0  0
 84170  1  0  0  0
 85171  1  0  0  0
 85172  1  0  0  0
M  CHG  2  84   1  85   1
M  ISO  4   1 100  68 101  81 101  82 100
M  END
> <chiral flag>
0

> <version>
0

> <s_m_source_file>
/data/baiqing/PycharmProjects/Reinvent-master-3.2/result/LINK_invent/BTK/process_docking_weight1_custom_sum_contain_oxygen_bond_distance_aromatic_linkinvent_7_9_3/rearranged_h_0108.sdf

> <i_m_source_file_index>
94

> <r_mmod_Potential_Energy-OPLS-2005>
-151.281478881836

> <r_mmod_Stretch_Energy-OPLS-2005>
46.0878486633301

> <r_mmod_Bend_Energy-OPLS-2005>
202.05029296875

> <r_mmod_Torsional_Energy-OPLS-2005>
274.27734375

> <r_mmod_Improper_Torsional_Energy-OPLS-2005>
7.47849798202515

> <r_mmod_Van_der_Waal_Energy-OPLS-2005>
138.337493896484

> <r_mmod_Electrostatic_Energy-OPLS-2005>
153.445251464844

> <r_mmod_Solvation_Energy-OPLS-2005>
-1002.82733154297

> <b_mmod_Minimization_Converged-OPLS-2005>
0

> <r_mmod_RMS_Derivative-OPLS-2005>
4.07622766494751

$$$$
