0
                    3D
 Structure written by MMmdl.
162170  0  0  1  0            999 V2000
  -30.6006  -14.6261   20.4894 C   0  0  0  0  0  0
  -30.4393  -12.3836   19.4323 C   0  0  0  0  0  0
  -29.5121  -12.5133   18.2027 C   0  0  0  0  0  0
  -28.0314  -12.3541   18.6197 C   0  0  0  0  0  0
  -27.6507  -13.2102   19.8570 C   0  0  2  0  0  0
  -28.6981  -13.0581   20.9812 C   0  0  0  0  0  0
  -25.2571  -13.8123   20.5691 C   0  0  0  0  0  0
  -24.1850  -13.0403   20.9190 C   0  0  0  0  0  0
  -24.6430  -11.6869   20.8758 C   0  0  0  0  0  0
  -23.9055  -10.4292   21.0411 C   0  0  0  0  0  0
  -24.3624   -9.4228   21.9143 C   0  0  0  0  0  0
  -23.6326   -8.2255   22.0703 C   0  0  0  0  0  0
  -22.4316   -8.0261   21.3483 C   0  0  0  0  0  0
  -21.9952   -9.0262   20.4605 C   0  0  0  0  0  0
  -22.7284  -10.2134   20.3029 C   0  0  0  0  0  0
  -21.6876   -6.0741   22.5255 C   0  0  0  0  0  0
  -21.4082   -6.5634   23.8195 C   0  0  0  0  0  0
  -21.3624   -5.6775   24.9143 C   0  0  0  0  0  0
  -21.6022   -4.3045   24.7222 C   0  0  0  0  0  0
  -21.8818   -3.8138   23.4339 C   0  0  0  0  0  0
  -21.9212   -4.6963   22.3385 C   0  0  0  0  0  0
  -22.7889  -13.5244   21.1867 C   0  0  0  0  0  0
  -22.1663   -4.2145   21.0986 F   0  0  0  0  0  0
  -21.5603   -3.4495   25.7712 F   0  0  0  0  0  0
  -30.0042  -13.4015   20.4014 N   0  0  0  0  0  0
  -26.2982  -12.9299   20.3292 N   0  0  0  0  0  0
  -25.9339  -11.6458   20.5747 N   0  0  0  0  0  0
  -22.0595  -12.8201   22.0453 N   0  0  0  0  0  0
  -25.4299  -15.1845   20.4144 N   0  0  0  0  0  0
  -31.7980  -14.7907   20.2366 O   0  0  0  0  0  0
  -21.6648   -6.8879   21.4211 O   0  0  0  0  0  0
  -22.3570  -14.5562   20.6774 O   0  0  0  0  0  0
  -24.6312  -31.8569   23.1915 C   0  0  0  0  0  0
  -25.9154  -32.4743   23.8267 C   0  0  1  0  0  0
  -27.2590  -27.3162   20.0929 C   0  0  0  0  0  0
  -25.5935  -33.8539   24.2213 N   0  0  0  0  0  0
  -23.4299  -30.4710   21.5404 C   0  0  2  0  0  0
  -24.8807  -28.9084   20.1241 C   0  0  0  0  0  0
  -22.7479  -29.4606   22.4936 C   0  0  0  0  0  0
  -18.0271  -28.1396   22.8472 C   0  0  0  0  0  0
  -24.1518  -36.7292   23.2634 C   0  0  0  0  0  0
  -25.9687  -30.7851   21.3643 C   0  0  0  0  0  0
  -26.0523  -29.4074   20.7070 C   0  0  0  0  0  0
  -27.2447  -28.6254   20.6769 C   0  0  0  0  0  0
  -26.0572  -26.8543   19.5226 C   0  0  0  0  0  0
  -24.8809  -27.6345   19.5322 C   0  0  0  0  0  0
  -23.6476  -29.7881   20.1654 C   0  0  0  0  0  0
  -25.4127  -36.3040   24.0323 C   0  0  1  0  0  0
  -20.5876  -28.3690   23.1276 C   0  0  2  0  0  0
  -20.6775  -26.9412   22.5423 C   0  0  0  0  0  0
  -19.5752  -26.6381   21.5219 C   0  0  0  0  0  0
  -18.1923  -26.7935   22.1617 C   0  0  0  0  0  0
  -19.1535  -28.8854   23.2871 C   0  0  0  0  0  0
  -18.9453  -30.1462   23.8892 C   0  0  0  0  0  0
  -17.6469  -30.6593   24.0559 C   0  0  0  0  0  0
  -25.9047  -34.9419   23.5043 C   0  0  0  0  0  0
  -16.5351  -29.9092   23.6340 C   0  0  0  0  0  0
  -16.7267  -28.6513   23.0326 C   0  0  0  0  0  0
  -26.4510  -31.6540   25.0645 C   0  0  0  0  0  0
  -25.3729  -31.3718   26.1355 C   0  0  0  0  0  0
  -27.0374  -30.2932   24.6185 C   0  0  0  0  0  0
  -27.6041  -32.4294   25.7437 C   0  0  0  0  0  0
  -27.5580  -37.1797   24.8440 C   0  0  0  0  0  0
  -21.4200  -29.3044   22.3672 N   0  0  0  0  0  0
  -26.4283  -37.3744   23.9400 N   0  0  0  0  0  0
  -24.6967  -31.0530   22.0876 N   0  0  0  0  0  0
  -23.4152  -28.8155   23.3064 O   0  0  0  0  0  0
  -28.4151  -26.5217   20.0125 O   0  0  0  0  0  0
  -26.5626  -34.8894   22.4619 O   0  0  0  0  0  0
  -23.5494  -32.1374   23.7246 O   0  0  0  0  0  0
  -26.8393  -21.9085   19.4962 C   0  0  0  0  0  0
  -28.1416  -22.4727   19.4469 C   0  0  0  0  0  0
  -26.9973  -20.5544   19.6201 C   0  0  0  0  0  0
  -25.9523  -19.4771   19.6148 C   0  0  0  0  0  0
  -29.6118  -24.1635   18.1619 C   0  0  0  0  0  0
  -29.6285  -24.8908   21.2436 C   0  0  0  0  0  0
  -30.1033  -18.3658   20.4443 C   0  0  0  0  0  0
  -28.9395  -18.8849   19.5276 C   0  0  0  0  0  0
  -29.9473  -17.0226   21.2861 C   0  0  0  0  0  0
  -28.4376  -23.9959   19.1496 C   0  0  2  0  0  0
  -28.4054  -25.0698   20.3337 C   0  0  2  0  0  0
  -29.0558  -21.4707   19.6076 N   0  0  0  0  0  0
  -28.3550  -20.2719   19.6718 N   0  0  0  0  0  0
  -29.7414  -15.6763   20.6628 N   0  0  0  0  0  0
  -31.4892  -12.4931   19.1503 H   0  0  0  0  0  0
  -30.3475  -11.3900   19.8755 H   0  0  0  0  0  0
  -29.7723  -11.7663   17.4557 H   0  0  0  0  0  0
  -29.6467  -13.4907   17.7347 H   0  0  0  0  0  0
  -27.8643  -11.3001   18.8337 H   0  0  0  0  0  0
  -27.3709  -12.5955   17.7826 H   0  0  0  0  0  0
  -27.6601  -14.2475   19.5252 H   0  0  0  0  0  0
  -28.7162  -12.0393   21.3654 H   0  0  0  0  0  0
  -28.4443  -13.6876   21.8385 H   0  0  0  0  0  0
  -25.2765   -9.5705   22.4724 H   0  0  0  0  0  0
  -24.0008   -7.4674   22.7469 H   0  0  0  0  0  0
  -21.0818   -8.8875   19.8946 H   0  0  0  0  0  0
  -22.3778  -10.9701   19.6172 H   0  0  0  0  0  0
  -21.2157   -7.6150   23.9705 H   0  0  0  0  0  0
  -21.1405   -6.0502   25.9041 H   0  0  0  0  0  0
  -22.0654   -2.7609   23.2834 H   0  0  0  0  0  0
  -22.4268  -11.9803   22.4713 H   0  0  0  0  0  0
  -21.1223  -13.1232   22.2638 H   0  0  0  0  0  0
  -24.6677  -15.8424   20.5248 H   0  0  0  0  0  0
  -26.2732  -15.6036   20.0486 H   0  0  0  0  0  0
  -26.7228  -32.5408   23.1031 H   0  0  0  0  0  0
  -25.0039  -33.9672   25.0327 H   0  0  0  0  0  0
  -22.7312  -31.2977   21.3854 H   0  0  0  0  0  0
  -23.3750  -35.9651   23.3293 H   0  0  0  0  0  0
  -24.3581  -36.8924   22.2037 H   0  0  0  0  0  0
  -23.7338  -37.6515   23.6671 H   0  0  0  0  0  0
  -26.1073  -31.5655   20.6145 H   0  0  0  0  0  0
  -26.8391  -30.8223   22.0078 H   0  0  0  0  0  0
  -28.1510  -29.0234   21.1109 H   0  0  0  0  0  0
  -26.0348  -25.8851   19.0493 H   0  0  0  0  0  0
  -23.9780  -27.2274   19.1035 H   0  0  0  0  0  0
  -23.7763  -30.5608   19.4068 H   0  0  0  0  0  0
  -22.7686  -29.2225   19.8472 H   0  0  0  0  0  0
  -25.1336  -36.1851   25.0824 H   0  0  0  0  0  0
  -20.9971  -28.3278   24.1393 H   0  0  0  0  0  0
  -20.5653  -26.2315   23.3625 H   0  0  0  0  0  0
  -21.6642  -26.7439   22.1233 H   0  0  0  0  0  0
  -19.6924  -25.6284   21.1244 H   0  0  0  0  0  0
  -19.6696  -27.3199   20.6746 H   0  0  0  0  0  0
  -17.4205  -26.6675   21.4008 H   0  0  0  0  0  0
  -18.0318  -26.0081   22.9013 H   0  0  0  0  0  0
  -19.7927  -30.7270   24.2263 H   0  0  0  0  0  0
  -17.5007  -31.6258   24.5173 H   0  0  0  0  0  0
  -15.5344  -30.2984   23.7662 H   0  0  0  0  0  0
  -15.8657  -28.0835   22.7032 H   0  0  0  0  0  0
  -24.5927  -30.7042   25.7683 H   0  0  0  0  0  0
  -24.8891  -32.2892   26.4703 H   0  0  0  0  0  0
  -25.8013  -30.8942   27.0179 H   0  0  0  0  0  0
  -26.2961  -29.6637   24.1239 H   0  0  0  0  0  0
  -27.4045  -29.7228   25.4740 H   0  0  0  0  0  0
  -27.8846  -30.4150   23.9431 H   0  0  0  0  0  0
  -27.2617  -33.3627   26.1938 H   0  0  0  0  0  0
  -28.3874  -32.6821   25.0266 H   0  0  0  0  0  0
  -28.0680  -31.8470   26.5416 H   0  0  0  0  0  0
  -28.2567  -38.0122   24.7484 H   0  0  0  0  0  0
  -28.1114  -36.2643   24.6273 H   0  0  0  0  0  0
  -27.2276  -37.1440   25.8834 H   0  0  0  0  0  0
  -20.9395  -29.8752   21.6852 H   0  0  0  0  0  0
  -26.0159  -38.2816   24.1387 H   0  0  0  0  0  0
  -25.8995  -22.4318   19.3893 H   0  0  0  0  0  0
  -24.9458  -19.8865   19.5647 H   0  0  0  0  0  0
  -26.0181  -18.8809   20.5253 H   0  0  0  0  0  0
  -26.0713  -18.8109   18.7606 H   0  0  0  0  0  0
  -30.4127  -23.4437   18.3370 H   0  0  0  0  0  0
  -30.0549  -25.1577   18.2395 H   0  0  0  0  0  0
  -29.2876  -24.0242   17.1287 H   0  0  0  0  0  0
  -29.7185  -23.8646   21.6069 H   0  0  0  0  0  0
  -29.5589  -25.5472   22.1177 H   0  0  0  0  0  0
  -30.5539  -25.1353   20.7124 H   0  0  0  0  0  0
  -30.3209  -19.1617   21.1551 H   0  0  0  0  0  0
  -31.0000  -18.2694   19.8287 H   0  0  0  0  0  0
  -28.1344  -18.1563   19.5982 H   0  0  0  0  0  0
  -29.2694  -18.7874   18.4944 H   0  0  0  0  0  0
  -30.7961  -16.9283   21.9707 H   0  0  0  0  0  0
  -29.0817  -17.1658   21.9414 H   0  0  0  0  0  0
  -27.5843  -24.3050   18.5485 H   0  0  0  0  0  0
  -27.5151  -24.8701   20.9291 H   0  0  0  0  0  0
  -28.7734  -15.3918   20.6310 H   0  0  0  0  0  0
  1 25  1  0  0  0
  1 30  2  0  0  0
  1 84  1  0  0  0
  2  3  1  0  0  0
  2 25  1  0  0  0
  2 85  1  0  0  0
  2 86  1  0  0  0
  3  4  1  0  0  0
  3 87  1  0  0  0
  3 88  1  0  0  0
  4  5  1  0  0  0
  4 89  1  0  0  0
  4 90  1  0  0  0
  5  6  1  0  0  0
  5 26  1  0  0  0
  5 91  1  0  0  0
  6 25  1  0  0  0
  6 92  1  0  0  0
  6 93  1  0  0  0
  7  8  2  0  0  0
  7 26  1  0  0  0
  7 29  1  0  0  0
  8  9  1  0  0  0
  8 22  1  0  0  0
  9 10  1  0  0  0
  9 27  2  0  0  0
 10 11  2  0  0  0
 10 15  1  0  0  0
 11 12  1  0  0  0
 11 94  1  0  0  0
 12 13  2  0  0  0
 12 95  1  0  0  0
 13 14  1  0  0  0
 13 31  1  0  0  0
 14 15  2  0  0  0
 14 96  1  0  0  0
 15 97  1  0  0  0
 16 17  2  0  0  0
 16 21  1  0  0  0
 16 31  1  0  0  0
 17 18  1  0  0  0
 17 98  1  0  0  0
 18 19  2  0  0  0
 18 99  1  0  0  0
 19 20  1  0  0  0
 19 24  1  0  0  0
 20 21  2  0  0  0
 20100  1  0  0  0
 21 23  1  0  0  0
 22 28  1  0  0  0
 22 32  2  0  0  0
 26 27  1  0  0  0
 28101  1  0  0  0
 28102  1  0  0  0
 29103  1  0  0  0
 29104  1  0  0  0
 33 34  1  0  0  0
 33 66  1  0  0  0
 33 70  2  0  0  0
 34 36  1  0  0  0
 34 59  1  0  0  0
 34105  1  0  0  0
 35 44  2  0  0  0
 35 45  1  0  0  0
 35 68  1  0  0  0
 36 56  1  0  0  0
 36106  1  0  0  0
 37 39  1  0  0  0
 37 47  1  0  0  0
 37 66  1  0  0  0
 37107  1  0  0  0
 38 43  2  0  0  0
 38 46  1  0  0  0
 38 47  1  0  0  0
 39 64  1  0  0  0
 39 67  2  0  0  0
 40 52  1  0  0  0
 40 53  2  0  0  0
 40 58  1  0  0  0
 41108  1  0  0  0
 41109  1  0  0  0
 41110  1  0  0  0
 41 48  1  0  0  0
 42 43  1  0  0  0
 42 66  1  0  0  0
 42111  1  0  0  0
 42112  1  0  0  0
 43 44  1  0  0  0
 44113  1  0  0  0
 45 46  2  0  0  0
 45114  1  0  0  0
 46115  1  0  0  0
 47116  1  0  0  0
 47117  1  0  0  0
 48 56  1  0  0  0
 48 65  1  0  0  0
 48118  1  0  0  0
 49 50  1  0  0  0
 49 53  1  0  0  0
 49 64  1  0  0  0
 49119  1  0  0  0
 50 51  1  0  0  0
 50120  1  0  0  0
 50121  1  0  0  0
 51 52  1  0  0  0
 51122  1  0  0  0
 51123  1  0  0  0
 52124  1  0  0  0
 52125  1  0  0  0
 53 54  1  0  0  0
 54 55  2  0  0  0
 54126  1  0  0  0
 55 57  1  0  0  0
 55127  1  0  0  0
 56 69  2  0  0  0
 57 58  2  0  0  0
 57128  1  0  0  0
 58129  1  0  0  0
 59 60  1  0  0  0
 59 61  1  0  0  0
 59 62  1  0  0  0
 60130  1  0  0  0
 60131  1  0  0  0
 60132  1  0  0  0
 61133  1  0  0  0
 61134  1  0  0  0
 61135  1  0  0  0
 62136  1  0  0  0
 62137  1  0  0  0
 62138  1  0  0  0
 63 65  1  0  0  0
 63139  1  0  0  0
 63140  1  0  0  0
 63141  1  0  0  0
 64142  1  0  0  0
 65143  1  0  0  0
 68 81  1  0  0  0
 71 72  1  0  0  0
 71 73  2  0  0  0
 71144  1  0  0  0
 72 80  1  0  0  0
 72 82  2  0  0  0
 73 74  1  0  0  0
 73 83  1  0  0  0
 74145  1  0  0  0
 74146  1  0  0  0
 74147  1  0  0  0
 75148  1  0  0  0
 75149  1  0  0  0
 75150  1  0  0  0
 75 80  1  0  0  0
 76151  1  0  0  0
 76152  1  0  0  0
 76153  1  0  0  0
 76 81  1  0  0  0
 77 78  1  0  0  0
 77 79  1  0  0  0
 77154  1  0  0  0
 77155  1  0  0  0
 78 83  1  0  0  0
 78156  1  0  0  0
 78157  1  0  0  0
 79 84  1  0  0  0
 79158  1  0  0  0
 79159  1  0  0  0
 80 81  1  0  0  0
 80160  1  0  0  0
 81161  1  0  0  0
 82 83  1  0  0  0
 84162  1  0  0  0
M  ISO  4   1 100  68 101  81 101  84 100
M  END
> <chiral flag>
0

> <version>
0

> <s_m_source_file>
/data/baiqing/PycharmProjects/Reinvent-master-3.2/result/LINK_invent/BTK/process_docking_weight1_custom_sum_contain_oxygen_bond_distance_aromatic_linkinvent_7_9_3/rearranged_h_0078.sdf

> <i_m_source_file_index>
1

> <r_mmod_Potential_Energy-OPLS-2005>
83.708740234375

> <r_mmod_Stretch_Energy-OPLS-2005>
83.9244079589844

> <r_mmod_Bend_Energy-OPLS-2005>
184.441375732422

> <r_mmod_Torsional_Energy-OPLS-2005>
263.841949462891

> <r_mmod_Improper_Torsional_Energy-OPLS-2005>
7.66838788986206

> <r_mmod_Van_der_Waal_Energy-OPLS-2005>
109.927177429199

> <r_mmod_Electrostatic_Energy-OPLS-2005>
-393.171447753906

> <r_mmod_Solvation_Energy-OPLS-2005>
-220.672927856445

> <b_mmod_Minimization_Converged-OPLS-2005>
0

> <r_mmod_RMS_Derivative-OPLS-2005>
8.54263877868652

$$$$
1
                    3D
 Structure written by MMmdl.
167175  0  0  1  0            999 V2000
  -30.6699  -14.6138   20.4487 C   0  0  0  0  0  0
  -30.4359  -12.3592   19.4436 C   0  0  0  0  0  0
  -29.5003  -12.4708   18.2167 C   0  0  0  0  0  0
  -28.0212  -12.3356   18.6302 C   0  0  0  0  0  0
  -27.6527  -13.2187   19.8520 C   0  0  2  0  0  0
  -28.7105  -13.1013   20.9795 C   0  0  0  0  0  0
  -25.2563  -13.8198   20.5710 C   0  0  0  0  0  0
  -24.1856  -13.0480   20.9204 C   0  0  0  0  0  0
  -24.6433  -11.6924   20.8817 C   0  0  0  0  0  0
  -23.9099  -10.4316   21.0473 C   0  0  0  0  0  0
  -24.3649   -9.4208   21.9233 C   0  0  0  0  0  0
  -23.6317   -8.2245   22.0791 C   0  0  0  0  0  0
  -22.4283   -8.0300   21.3578 C   0  0  0  0  0  0
  -21.9932   -9.0283   20.4665 C   0  0  0  0  0  0
  -22.7286  -10.2147   20.3091 C   0  0  0  0  0  0
  -21.6827   -6.0759   22.5280 C   0  0  0  0  0  0
  -21.4010   -6.5662   23.8220 C   0  0  0  0  0  0
  -21.3663   -5.6814   24.9197 C   0  0  0  0  0  0
  -21.6009   -4.3068   24.7230 C   0  0  0  0  0  0
  -21.8814   -3.8170   23.4355 C   0  0  0  0  0  0
  -21.9188   -4.6989   22.3416 C   0  0  0  0  0  0
  -22.7836  -13.5221   21.1832 C   0  0  0  0  0  0
  -22.1650   -4.2170   21.0988 F   0  0  0  0  0  0
  -21.5625   -3.4546   25.7752 F   0  0  0  0  0  0
  -30.0266  -13.4068   20.4005 N   0  0  0  0  0  0
  -26.3034  -12.9410   20.3339 N   0  0  0  0  0  0
  -25.9360  -11.6556   20.5819 N   0  0  0  0  0  0
  -22.0460  -12.8264   22.0390 N   0  0  0  0  0  0
  -25.4272  -15.1964   20.4131 N   0  0  0  0  0  0
  -31.8459  -14.7354   20.1012 O   0  0  0  0  0  0
  -21.6613   -6.8925   21.4268 O   0  0  0  0  0  0
  -22.3543  -14.5536   20.6631 O   0  0  0  0  0  0
  -24.6257  -31.8692   23.2089 C   0  0  0  0  0  0
  -25.9082  -32.4811   23.8440 C   0  0  1  0  0  0
  -27.2177  -27.3488   20.1123 C   0  0  0  0  0  0
  -25.5952  -33.8619   24.2355 N   0  0  0  0  0  0
  -23.4189  -30.4870   21.5607 C   0  0  2  0  0  0
  -24.8609  -28.9509   20.1337 C   0  0  0  0  0  0
  -22.7548  -29.4576   22.5046 C   0  0  0  0  0  0
  -18.0345  -28.1438   22.8514 C   0  0  0  0  0  0
  -24.1503  -36.7279   23.2637 C   0  0  0  0  0  0
  -25.9639  -30.8008   21.3851 C   0  0  0  0  0  0
  -26.0325  -29.4343   20.7258 C   0  0  0  0  0  0
  -27.2171  -28.6470   20.7009 C   0  0  0  0  0  0
  -26.0155  -26.9137   19.5223 C   0  0  0  0  0  0
  -24.8494  -27.6933   19.5226 C   0  0  0  0  0  0
  -23.6350  -29.8295   20.1768 C   0  0  0  0  0  0
  -25.4127  -36.3067   24.0331 C   0  0  1  0  0  0
  -20.5995  -28.3512   23.1354 C   0  0  2  0  0  0
  -20.6750  -26.9234   22.5529 C   0  0  0  0  0  0
  -19.5783  -26.6482   21.5233 C   0  0  0  0  0  0
  -18.1939  -26.7974   22.1650 C   0  0  0  0  0  0
  -19.1679  -28.8844   23.2887 C   0  0  0  0  0  0
  -18.9669  -30.1447   23.8924 C   0  0  0  0  0  0
  -17.6702  -30.6632   24.0647 C   0  0  0  0  0  0
  -25.9080  -34.9459   23.5121 C   0  0  0  0  0  0
  -16.5518  -29.9216   23.6484 C   0  0  0  0  0  0
  -16.7333  -28.6630   23.0410 C   0  0  0  0  0  0
  -26.4480  -31.6613   25.0775 C   0  0  0  0  0  0
  -25.3720  -31.3752   26.1495 C   0  0  0  0  0  0
  -27.0327  -30.3048   24.6246 C   0  0  0  0  0  0
  -27.6063  -32.4308   25.7559 C   0  0  0  0  0  0
  -27.5579  -37.1792   24.8445 C   0  0  0  0  0  0
  -21.4332  -29.2771   22.3676 N   0  0  0  0  0  0
  -26.4302  -37.3736   23.9391 N   0  0  0  0  0  0
  -24.6884  -31.0681   22.1058 N   0  0  0  0  0  0
  -23.4313  -28.8289   23.3197 O   0  0  0  0  0  0
  -28.3963  -26.6174   19.9683 O   0  0  0  0  0  0
  -26.5568  -34.8921   22.4643 O   0  0  0  0  0  0
  -23.5414  -32.1459   23.7419 O   0  0  0  0  0  0
  -28.4534  -21.5285   19.0272 C   0  0  0  0  0  0
  -28.7963  -20.1653   19.2312 C   0  0  0  0  0  0
  -28.4634  -22.4959   20.0855 C   0  0  0  0  0  0
  -29.1098  -19.7091   20.5180 C   0  0  0  0  0  0
  -28.9798  -21.9625   21.3102 C   0  0  0  0  0  0
  -28.1831  -23.2530   23.4271 C   0  0  0  0  0  0
  -26.3729  -23.5790   17.6848 C   0  0  0  0  0  0
  -26.4308  -23.9372   20.6356 C   0  0  0  0  0  0
  -29.0909  -18.1755   20.8847 C   0  0  0  0  0  0
  -29.3524  -22.8270   22.5168 C   0  0  0  0  0  0
  -27.6260  -24.2055   18.3465 C   0  0  0  0  0  0
  -30.1402  -17.1501   20.2952 C   0  0  0  0  0  0
  -28.6104  -25.2325   20.4288 C   0  0  0  0  0  0
  -27.8059  -23.9534   19.8843 C   0  0  2  0  0  0
  -29.2362  -20.6260   21.5146 N   0  0  0  0  0  0
  -29.8795  -15.7067   20.6507 N   0  0  0  0  0  0
  -31.4777  -12.4589   19.1266 H   0  0  0  0  0  0
  -30.3541  -11.3685   19.8964 H   0  0  0  0  0  0
  -29.7426  -11.7041   17.4750 H   0  0  0  0  0  0
  -29.6560  -13.4337   17.7284 H   0  0  0  0  0  0
  -27.8362  -11.2916   18.8685 H   0  0  0  0  0  0
  -27.3697  -12.5693   17.7840 H   0  0  0  0  0  0
  -27.6632  -14.2455   19.4899 H   0  0  0  0  0  0
  -28.7216  -12.0902   21.3909 H   0  0  0  0  0  0
  -28.4837  -13.7736   21.8096 H   0  0  0  0  0  0
  -25.2802   -9.5603   22.4818 H   0  0  0  0  0  0
  -23.9971   -7.4608   22.7495 H   0  0  0  0  0  0
  -21.0857   -8.8816   19.8986 H   0  0  0  0  0  0
  -22.3784  -10.9696   19.6178 H   0  0  0  0  0  0
  -21.2013   -7.6163   23.9735 H   0  0  0  0  0  0
  -21.1475   -6.0549   25.9090 H   0  0  0  0  0  0
  -22.0596   -2.7624   23.2843 H   0  0  0  0  0  0
  -22.4024  -11.9914   22.4848 H   0  0  0  0  0  0
  -21.1085  -13.1323   22.2570 H   0  0  0  0  0  0
  -24.6600  -15.8503   20.5364 H   0  0  0  0  0  0
  -26.2702  -15.6336   20.0673 H   0  0  0  0  0  0
  -26.7155  -32.5529   23.1226 H   0  0  0  0  0  0
  -25.0109  -33.9788   25.0524 H   0  0  0  0  0  0
  -22.7083  -31.3026   21.4173 H   0  0  0  0  0  0
  -23.3739  -35.9630   23.3306 H   0  0  0  0  0  0
  -24.3563  -36.8887   22.2026 H   0  0  0  0  0  0
  -23.7273  -37.6523   23.6654 H   0  0  0  0  0  0
  -26.0816  -31.5613   20.6093 H   0  0  0  0  0  0
  -26.8413  -30.8565   22.0218 H   0  0  0  0  0  0
  -28.1253  -29.0241   21.1467 H   0  0  0  0  0  0
  -25.9386  -25.9804   19.0118 H   0  0  0  0  0  0
  -23.9501  -27.3261   19.0411 H   0  0  0  0  0  0
  -23.7606  -30.6032   19.4173 H   0  0  0  0  0  0
  -22.7606  -29.2585   19.8707 H   0  0  0  0  0  0
  -25.1312  -36.1949   25.0820 H   0  0  0  0  0  0
  -21.0102  -28.3225   24.1489 H   0  0  0  0  0  0
  -20.5448  -26.2077   23.3729 H   0  0  0  0  0  0
  -21.6625  -26.7272   22.1319 H   0  0  0  0  0  0
  -19.6834  -25.6514   21.1029 H   0  0  0  0  0  0
  -19.6901  -27.3373   20.6870 H   0  0  0  0  0  0
  -17.4258  -26.6801   21.4034 H   0  0  0  0  0  0
  -18.0363  -26.0130   22.9048 H   0  0  0  0  0  0
  -19.8129  -30.7286   24.2321 H   0  0  0  0  0  0
  -17.5382  -31.6308   24.5312 H   0  0  0  0  0  0
  -15.5549  -30.3165   23.8012 H   0  0  0  0  0  0
  -15.8710  -28.0924   22.7194 H   0  0  0  0  0  0
  -24.5901  -30.7082   25.7816 H   0  0  0  0  0  0
  -24.8899  -32.2933   26.4910 H   0  0  0  0  0  0
  -25.8049  -30.8947   27.0280 H   0  0  0  0  0  0
  -26.2918  -29.6783   24.1241 H   0  0  0  0  0  0
  -27.3974  -29.7312   25.4777 H   0  0  0  0  0  0
  -27.8823  -30.4308   23.9498 H   0  0  0  0  0  0
  -27.2697  -33.3599   26.2192 H   0  0  0  0  0  0
  -28.3893  -32.6861   25.0385 H   0  0  0  0  0  0
  -28.0721  -31.8362   26.5449 H   0  0  0  0  0  0
  -28.2580  -38.0091   24.7474 H   0  0  0  0  0  0
  -28.1096  -36.2620   24.6340 H   0  0  0  0  0  0
  -27.2266  -37.1491   25.8832 H   0  0  0  0  0  0
  -20.9496  -29.8239   21.6740 H   0  0  0  0  0  0
  -26.0196  -38.2838   24.1358 H   0  0  0  0  0  0
  -28.1444  -21.7667   18.0234 H   0  0  0  0  0  0
  -28.7357  -19.4599   18.4091 H   0  0  0  0  0  0
  -27.4200  -22.4809   23.4875 H   0  0  0  0  0  0
  -27.6874  -24.1635   23.0970 H   0  0  0  0  0  0
  -28.5339  -23.4595   24.4368 H   0  0  0  0  0  0
  -26.6419  -23.0396   16.7812 H   0  0  0  0  0  0
  -25.6643  -24.3571   17.4012 H   0  0  0  0  0  0
  -25.8343  -22.8674   18.3113 H   0  0  0  0  0  0
  -26.2285  -22.9678   21.0913 H   0  0  0  0  0  0
  -25.5659  -24.1650   20.0200 H   0  0  0  0  0  0
  -26.3840  -24.6628   21.4453 H   0  0  0  0  0  0
  -28.1123  -17.8057   20.5780 H   0  0  0  0  0  0
  -29.0938  -18.0672   21.9701 H   0  0  0  0  0  0
  -30.0513  -22.2501   23.1176 H   0  0  0  0  0  0
  -29.9460  -23.6802   22.1931 H   0  0  0  0  0  0
  -27.6241  -25.2693   18.1016 H   0  0  0  0  0  0
  -28.5227  -23.8974   17.8076 H   0  0  0  0  0  0
  -30.1116  -17.2164   19.2065 H   0  0  0  0  0  0
  -31.1571  -17.4404   20.5650 H   0  0  0  0  0  0
  -29.6514  -25.0358   20.1634 H   0  0  0  0  0  0
  -28.5714  -25.3179   21.5149 H   0  0  0  0  0  0
  -28.9278  -15.4765   20.8910 H   0  0  0  0  0  0
  1 25  1  0  0  0
  1 30  2  0  0  0
  1 86  1  0  0  0
  2  3  1  0  0  0
  2 25  1  0  0  0
  2 87  1  0  0  0
  2 88  1  0  0  0
  3  4  1  0  0  0
  3 89  1  0  0  0
  3 90  1  0  0  0
  4  5  1  0  0  0
  4 91  1  0  0  0
  4 92  1  0  0  0
  5  6  1  0  0  0
  5 26  1  0  0  0
  5 93  1  0  0  0
  6 25  1  0  0  0
  6 94  1  0  0  0
  6 95  1  0  0  0
  7  8  2  0  0  0
  7 26  1  0  0  0
  7 29  1  0  0  0
  8  9  1  0  0  0
  8 22  1  0  0  0
  9 10  1  0  0  0
  9 27  2  0  0  0
 10 11  2  0  0  0
 10 15  1  0  0  0
 11 12  1  0  0  0
 11 96  1  0  0  0
 12 13  2  0  0  0
 12 97  1  0  0  0
 13 14  1  0  0  0
 13 31  1  0  0  0
 14 15  2  0  0  0
 14 98  1  0  0  0
 15 99  1  0  0  0
 16 17  2  0  0  0
 16 21  1  0  0  0
 16 31  1  0  0  0
 17 18  1  0  0  0
 17100  1  0  0  0
 18 19  2  0  0  0
 18101  1  0  0  0
 19 20  1  0  0  0
 19 24  1  0  0  0
 20 21  2  0  0  0
 20102  1  0  0  0
 21 23  1  0  0  0
 22 28  1  0  0  0
 22 32  2  0  0  0
 26 27  1  0  0  0
 28103  1  0  0  0
 28104  1  0  0  0
 29105  1  0  0  0
 29106  1  0  0  0
 33 34  1  0  0  0
 33 66  1  0  0  0
 33 70  2  0  0  0
 34 36  1  0  0  0
 34 59  1  0  0  0
 34107  1  0  0  0
 35 44  2  0  0  0
 35 45  1  0  0  0
 35 68  1  0  0  0
 36 56  1  0  0  0
 36108  1  0  0  0
 37 39  1  0  0  0
 37 47  1  0  0  0
 37 66  1  0  0  0
 37109  1  0  0  0
 38 43  2  0  0  0
 38 46  1  0  0  0
 38 47  1  0  0  0
 39 64  1  0  0  0
 39 67  2  0  0  0
 40 52  1  0  0  0
 40 53  2  0  0  0
 40 58  1  0  0  0
 41110  1  0  0  0
 41111  1  0  0  0
 41112  1  0  0  0
 41 48  1  0  0  0
 42 43  1  0  0  0
 42 66  1  0  0  0
 42113  1  0  0  0
 42114  1  0  0  0
 43 44  1  0  0  0
 44115  1  0  0  0
 45 46  2  0  0  0
 45116  1  0  0  0
 46117  1  0  0  0
 47118  1  0  0  0
 47119  1  0  0  0
 48 56  1  0  0  0
 48 65  1  0  0  0
 48120  1  0  0  0
 49 50  1  0  0  0
 49 53  1  0  0  0
 49 64  1  0  0  0
 49121  1  0  0  0
 50 51  1  0  0  0
 50122  1  0  0  0
 50123  1  0  0  0
 51 52  1  0  0  0
 51124  1  0  0  0
 51125  1  0  0  0
 52126  1  0  0  0
 52127  1  0  0  0
 53 54  1  0  0  0
 54 55  2  0  0  0
 54128  1  0  0  0
 55 57  1  0  0  0
 55129  1  0  0  0
 56 69  2  0  0  0
 57 58  2  0  0  0
 57130  1  0  0  0
 58131  1  0  0  0
 59 60  1  0  0  0
 59 61  1  0  0  0
 59 62  1  0  0  0
 60132  1  0  0  0
 60133  1  0  0  0
 60134  1  0  0  0
 61135  1  0  0  0
 61136  1  0  0  0
 61137  1  0  0  0
 62138  1  0  0  0
 62139  1  0  0  0
 62140  1  0  0  0
 63 65  1  0  0  0
 63141  1  0  0  0
 63142  1  0  0  0
 63143  1  0  0  0
 64144  1  0  0  0
 65145  1  0  0  0
 68 83  1  0  0  0
 71 72  2  0  0  0
 71 73  1  0  0  0
 71146  1  0  0  0
 72 74  1  0  0  0
 72147  1  0  0  0
 73 75  2  0  0  0
 73 84  1  0  0  0
 74 79  1  0  0  0
 74 85  2  0  0  0
 75 80  1  0  0  0
 75 85  1  0  0  0
 76 80  1  0  0  0
 76148  1  0  0  0
 76149  1  0  0  0
 76150  1  0  0  0
 77 81  1  0  0  0
 77151  1  0  0  0
 77152  1  0  0  0
 77153  1  0  0  0
 78154  1  0  0  0
 78155  1  0  0  0
 78156  1  0  0  0
 78 84  1  0  0  0
 79 82  1  0  0  0
 79157  1  0  0  0
 79158  1  0  0  0
 80159  1  0  0  0
 80160  1  0  0  0
 81 84  1  0  0  0
 81161  1  0  0  0
 81162  1  0  0  0
 82 86  1  0  0  0
 82163  1  0  0  0
 82164  1  0  0  0
 83 84  1  0  0  0
 83165  1  0  0  0
 83166  1  0  0  0
 86167  1  0  0  0
M  ISO  4   1 100  68 101  83 101  86 100
M  END
> <chiral flag>
0

> <version>
0

> <s_m_source_file>
/data/baiqing/PycharmProjects/Reinvent-master-3.2/result/LINK_invent/BTK/process_docking_weight1_custom_sum_contain_oxygen_bond_distance_aromatic_linkinvent_7_9_3/rearranged_h_0078.sdf

> <i_m_source_file_index>
2

> <r_mmod_Potential_Energy-OPLS-2005>
32.9615173339844

> <r_mmod_Stretch_Energy-OPLS-2005>
90.2781982421875

> <r_mmod_Bend_Energy-OPLS-2005>
183.878601074219

> <r_mmod_Torsional_Energy-OPLS-2005>
281.792175292969

> <r_mmod_Improper_Torsional_Energy-OPLS-2005>
8.59144973754883

> <r_mmod_Van_der_Waal_Energy-OPLS-2005>
169.036712646484

> <r_mmod_Electrostatic_Energy-OPLS-2005>
-522.081420898438

> <r_mmod_Solvation_Energy-OPLS-2005>
-216.405609130859

> <b_mmod_Minimization_Converged-OPLS-2005>
0

> <r_mmod_RMS_Derivative-OPLS-2005>
10.168604850769

$$$$
2
                    3D
 Structure written by MMmdl.
169177  0  0  1  0            999 V2000
  -30.6782  -14.5576   20.3592 C   0  0  0  0  0  0
  -30.4271  -12.3005   19.4525 C   0  0  0  0  0  0
  -29.4788  -12.3389   18.2276 C   0  0  0  0  0  0
  -28.0054  -12.2421   18.6524 C   0  0  0  0  0  0
  -27.6386  -13.1814   19.8264 C   0  0  2  0  0  0
  -28.6948  -13.1244   20.9569 C   0  0  0  0  0  0
  -25.2588  -13.8119   20.5682 C   0  0  0  0  0  0
  -24.1823  -13.0437   20.9228 C   0  0  0  0  0  0
  -24.6338  -11.6894   20.8804 C   0  0  0  0  0  0
  -23.9011  -10.4291   21.0453 C   0  0  0  0  0  0
  -24.3586   -9.4200   21.9207 C   0  0  0  0  0  0
  -23.6280   -8.2224   22.0752 C   0  0  0  0  0  0
  -22.4266   -8.0269   21.3544 C   0  0  0  0  0  0
  -21.9896   -9.0240   20.4646 C   0  0  0  0  0  0
  -22.7203  -10.2131   20.3078 C   0  0  0  0  0  0
  -21.6845   -6.0730   22.5280 C   0  0  0  0  0  0
  -21.4006   -6.5632   23.8215 C   0  0  0  0  0  0
  -21.3656   -5.6784   24.9175 C   0  0  0  0  0  0
  -21.6045   -4.3048   24.7224 C   0  0  0  0  0  0
  -21.8825   -3.8142   23.4344 C   0  0  0  0  0  0
  -21.9192   -4.6957   22.3402 C   0  0  0  0  0  0
  -22.7857  -13.5262   21.1871 C   0  0  0  0  0  0
  -22.1665   -4.2147   21.0977 F   0  0  0  0  0  0
  -21.5629   -3.4531   25.7734 F   0  0  0  0  0  0
  -30.0315  -13.3590   20.3936 N   0  0  0  0  0  0
  -26.2932  -12.9209   20.3253 N   0  0  0  0  0  0
  -25.9247  -11.6422   20.5845 N   0  0  0  0  0  0
  -22.0483  -12.8256   22.0419 N   0  0  0  0  0  0
  -25.4394  -15.1824   20.4062 N   0  0  0  0  0  0
  -31.9038  -14.6411   20.2825 O   0  0  0  0  0  0
  -21.6633   -6.8867   21.4241 O   0  0  0  0  0  0
  -22.3560  -14.5570   20.6708 O   0  0  0  0  0  0
  -24.6121  -31.8687   23.2120 C   0  0  0  0  0  0
  -25.9017  -32.4830   23.8416 C   0  0  1  0  0  0
  -27.2454  -27.4530   20.1152 C   0  0  0  0  0  0
  -25.5879  -33.8628   24.2343 N   0  0  0  0  0  0
  -23.4015  -30.4908   21.5498 C   0  0  2  0  0  0
  -24.8536  -28.9554   20.1188 C   0  0  0  0  0  0
  -22.7402  -29.4668   22.4993 C   0  0  0  0  0  0
  -18.0270  -28.1386   22.8492 C   0  0  0  0  0  0
  -24.1485  -36.7322   23.2639 C   0  0  0  0  0  0
  -25.9261  -30.8407   21.3634 C   0  0  0  0  0  0
  -26.0073  -29.4731   20.7212 C   0  0  0  0  0  0
  -27.2063  -28.7281   20.7229 C   0  0  0  0  0  0
  -26.0836  -26.9496   19.4970 C   0  0  0  0  0  0
  -24.8849  -27.6900   19.5042 C   0  0  0  0  0  0
  -23.6121  -29.8185   20.1657 C   0  0  0  0  0  0
  -25.4099  -36.3115   24.0342 C   0  0  1  0  0  0
  -20.5858  -28.3674   23.1318 C   0  0  2  0  0  0
  -20.6764  -26.9413   22.5415 C   0  0  0  0  0  0
  -19.5744  -26.6392   21.5210 C   0  0  0  0  0  0
  -18.1923  -26.7937   22.1622 C   0  0  0  0  0  0
  -19.1518  -28.8847   23.2905 C   0  0  0  0  0  0
  -18.9449  -30.1453   23.8921 C   0  0  0  0  0  0
  -17.6450  -30.6592   24.0575 C   0  0  0  0  0  0
  -25.9023  -34.9478   23.5137 C   0  0  0  0  0  0
  -16.5342  -29.9095   23.6326 C   0  0  0  0  0  0
  -16.7261  -28.6515   23.0340 C   0  0  0  0  0  0
  -26.4463  -31.6597   25.0727 C   0  0  0  0  0  0
  -25.3748  -31.3676   26.1489 C   0  0  0  0  0  0
  -27.0288  -30.3047   24.6064 C   0  0  0  0  0  0
  -27.6050  -32.4306   25.7478 C   0  0  0  0  0  0
  -27.5575  -37.1810   24.8468 C   0  0  0  0  0  0
  -21.4132  -29.3039   22.3724 N   0  0  0  0  0  0
  -26.4291  -37.3788   23.9405 N   0  0  0  0  0  0
  -24.6641  -31.0811   22.1009 N   0  0  0  0  0  0
  -23.4175  -28.8209   23.3033 O   0  0  0  0  0  0
  -28.3923  -26.6960   20.0644 O   0  0  0  0  0  0
  -26.5588  -34.8926   22.4702 O   0  0  0  0  0  0
  -23.5322  -32.1425   23.7534 O   0  0  0  0  0  0
  -29.4002  -18.3012   19.5785 C   0  0  0  0  0  0
  -29.9558  -17.4915   21.8536 C   0  0  0  0  0  0
  -29.7754  -19.7252   19.9853 C   0  0  0  0  0  0
  -30.2160  -18.9765   22.2661 C   0  0  0  0  0  0
  -30.2264  -17.2315   20.3505 C   0  0  1  0  0  0
  -30.1031  -15.7908   18.2703 C   0  0  0  0  0  0
  -27.3126  -22.2771   22.2791 C   0  0  0  0  0  0
  -28.4692  -24.9510   21.7998 C   0  0  0  0  0  0
  -28.9707  -23.7715   20.9303 C   0  0  0  0  0  0
  -29.6715  -21.3908   21.8025 C   0  0  0  0  0  0
  -28.9715  -26.3334   21.3214 C   0  0  0  0  0  0
  -29.8907  -15.7937   19.8151 C   0  0  1  0  0  0
  -28.5140  -22.3253   21.3154 C   0  0  1  0  0  0
  -29.4747  -19.9585   21.4175 N   0  3  1  0  0  0
  -31.4640  -12.4051   19.1269 H   0  0  0  0  0  0
  -30.3660  -11.3318   19.9507 H   0  0  0  0  0  0
  -29.7138  -11.5026   17.5684 H   0  0  0  0  0  0
  -29.6122  -13.2184   17.6111 H   0  0  0  0  0  0
  -27.8298  -11.2057   18.9429 H   0  0  0  0  0  0
  -27.3508  -12.4278   17.8002 H   0  0  0  0  0  0
  -27.6098  -14.1706   19.3833 H   0  0  0  0  0  0
  -28.6742  -12.1530   21.4519 H   0  0  0  0  0  0
  -28.4702  -13.8658   21.7258 H   0  0  0  0  0  0
  -25.2732   -9.5670   22.4780 H   0  0  0  0  0  0
  -23.9997   -7.4603   22.7451 H   0  0  0  0  0  0
  -21.0839   -8.8751   19.8938 H   0  0  0  0  0  0
  -22.3666  -10.9675   19.6189 H   0  0  0  0  0  0
  -21.1998   -7.6140   23.9721 H   0  0  0  0  0  0
  -21.1472   -6.0509   25.9078 H   0  0  0  0  0  0
  -22.0609   -2.7604   23.2844 H   0  0  0  0  0  0
  -22.4083  -11.9902   22.4792 H   0  0  0  0  0  0
  -21.1105  -13.1291   22.2632 H   0  0  0  0  0  0
  -24.6823  -15.8475   20.5204 H   0  0  0  0  0  0
  -26.2991  -15.6117   20.0895 H   0  0  0  0  0  0
  -26.7096  -32.5562   23.1197 H   0  0  0  0  0  0
  -25.0030  -33.9804   25.0490 H   0  0  0  0  0  0
  -22.6903  -31.3069   21.4080 H   0  0  0  0  0  0
  -23.3733  -35.9673   23.3331 H   0  0  0  0  0  0
  -24.3593  -36.8911   22.2053 H   0  0  0  0  0  0
  -23.7257  -37.6541   23.6638 H   0  0  0  0  0  0
  -26.0310  -31.6008   20.5883 H   0  0  0  0  0  0
  -26.8172  -30.9043   21.9760 H   0  0  0  0  0  0
  -28.0981  -29.1346   21.1795 H   0  0  0  0  0  0
  -26.1087  -25.9802   19.0187 H   0  0  0  0  0  0
  -24.0003  -27.2858   19.0319 H   0  0  0  0  0  0
  -23.7187  -30.5911   19.4034 H   0  0  0  0  0  0
  -22.7387  -29.2332   19.8710 H   0  0  0  0  0  0
  -25.1273  -36.1991   25.0835 H   0  0  0  0  0  0
  -20.9956  -28.3244   24.1435 H   0  0  0  0  0  0
  -20.5665  -26.2288   23.3602 H   0  0  0  0  0  0
  -21.6637  -26.7457   22.1207 H   0  0  0  0  0  0
  -19.6908  -25.6303   21.1236 H   0  0  0  0  0  0
  -19.6684  -27.3210   20.6749 H   0  0  0  0  0  0
  -17.4186  -26.6685   21.4027 H   0  0  0  0  0  0
  -18.0336  -26.0072   22.9016 H   0  0  0  0  0  0
  -19.7920  -30.7258   24.2311 H   0  0  0  0  0  0
  -17.5002  -31.6275   24.5168 H   0  0  0  0  0  0
  -15.5344  -30.3003   23.7638 H   0  0  0  0  0  0
  -15.8661  -28.0844   22.7038 H   0  0  0  0  0  0
  -24.5921  -30.7024   25.7822 H   0  0  0  0  0  0
  -24.8939  -32.2821   26.4967 H   0  0  0  0  0  0
  -25.8122  -30.8819   27.0225 H   0  0  0  0  0  0
  -26.2811  -29.6817   24.1134 H   0  0  0  0  0  0
  -27.4101  -29.7268   25.4494 H   0  0  0  0  0  0
  -27.8633  -30.4387   23.9174 H   0  0  0  0  0  0
  -27.2676  -33.3589   26.2098 H   0  0  0  0  0  0
  -28.3825  -32.6893   25.0277 H   0  0  0  0  0  0
  -28.0755  -31.8402   26.5351 H   0  0  0  0  0  0
  -28.2599  -38.0097   24.7484 H   0  0  0  0  0  0
  -28.1063  -36.2627   24.6323 H   0  0  0  0  0  0
  -27.2305  -37.1495   25.8876 H   0  0  0  0  0  0
  -20.9299  -29.8749   21.6932 H   0  0  0  0  0  0
  -26.0192  -38.2875   24.1383 H   0  0  0  0  0  0
  -29.5363  -18.2545   18.5007 H   0  0  0  0  0  0
  -28.3330  -18.1388   19.7381 H   0  0  0  0  0  0
  -28.9242  -17.2273   22.0933 H   0  0  0  0  0  0
  -30.5809  -16.8360   22.4608 H   0  0  0  0  0  0
  -29.2346  -20.4194   19.3444 H   0  0  0  0  0  0
  -30.8356  -19.9016   19.7916 H   0  0  0  0  0  0
  -31.2844  -19.1891   22.2050 H   0  0  0  0  0  0
  -29.9336  -19.1160   23.3103 H   0  0  0  0  0  0
  -31.2871  -17.4141   20.1676 H   0  0  0  0  0  0
  -29.1549  -15.8267   17.7333 H   0  0  0  0  0  0
  -30.6660  -14.9366   17.9033 H   0  0  0  0  0  0
  -30.7191  -16.6202   17.9274 H   0  0  0  0  0  0
  -26.4591  -22.8237   21.8772 H   0  0  0  0  0  0
  -27.5573  -22.7025   23.2530 H   0  0  0  0  0  0
  -26.9780  -21.2536   22.4483 H   0  0  0  0  0  0
  -28.8013  -24.7982   22.8274 H   0  0  0  0  0  0
  -27.3797  -24.9711   21.8298 H   0  0  0  0  0  0
  -30.0589  -23.8186   20.8742 H   0  0  0  0  0  0
  -28.6401  -23.9650   19.9084 H   0  0  0  0  0  0
  -29.7636  -21.4779   22.8858 H   0  0  0  0  0  0
  -30.6335  -21.7168   21.4041 H   0  0  0  0  0  0
  -30.0552  -26.3085   21.2033 H   0  0  0  0  0  0
  -28.7738  -27.0799   22.0922 H   0  0  0  0  0  0
  -28.8394  -15.6615   20.0414 H   0  0  0  0  0  0
  -28.1314  -21.9206   20.3799 H   0  0  0  0  0  0
  -28.4946  -19.7650   21.5568 H   0  0  0  0  0  0
  1 25  1  0  0  0
  1 30  2  0  0  0
  1 82  1  0  0  0
  2  3  1  0  0  0
  2 25  1  0  0  0
  2 85  1  0  0  0
  2 86  1  0  0  0
  3  4  1  0  0  0
  3 87  1  0  0  0
  3 88  1  0  0  0
  4  5  1  0  0  0
  4 89  1  0  0  0
  4 90  1  0  0  0
  5  6  1  0  0  0
  5 26  1  0  0  0
  5 91  1  0  0  0
  6 25  1  0  0  0
  6 92  1  0  0  0
  6 93  1  0  0  0
  7  8  2  0  0  0
  7 26  1  0  0  0
  7 29  1  0  0  0
  8  9  1  0  0  0
  8 22  1  0  0  0
  9 10  1  0  0  0
  9 27  2  0  0  0
 10 11  2  0  0  0
 10 15  1  0  0  0
 11 12  1  0  0  0
 11 94  1  0  0  0
 12 13  2  0  0  0
 12 95  1  0  0  0
 13 14  1  0  0  0
 13 31  1  0  0  0
 14 15  2  0  0  0
 14 96  1  0  0  0
 15 97  1  0  0  0
 16 17  2  0  0  0
 16 21  1  0  0  0
 16 31  1  0  0  0
 17 18  1  0  0  0
 17 98  1  0  0  0
 18 19  2  0  0  0
 18 99  1  0  0  0
 19 20  1  0  0  0
 19 24  1  0  0  0
 20 21  2  0  0  0
 20100  1  0  0  0
 21 23  1  0  0  0
 22 28  1  0  0  0
 22 32  2  0  0  0
 26 27  1  0  0  0
 28101  1  0  0  0
 28102  1  0  0  0
 29103  1  0  0  0
 29104  1  0  0  0
 33 34  1  0  0  0
 33 66  1  0  0  0
 33 70  2  0  0  0
 34 36  1  0  0  0
 34 59  1  0  0  0
 34105  1  0  0  0
 35 44  2  0  0  0
 35 45  1  0  0  0
 35 68  1  0  0  0
 36 56  1  0  0  0
 36106  1  0  0  0
 37 39  1  0  0  0
 37 47  1  0  0  0
 37 66  1  0  0  0
 37107  1  0  0  0
 38 43  2  0  0  0
 38 46  1  0  0  0
 38 47  1  0  0  0
 39 64  1  0  0  0
 39 67  2  0  0  0
 40 52  1  0  0  0
 40 53  2  0  0  0
 40 58  1  0  0  0
 41108  1  0  0  0
 41109  1  0  0  0
 41110  1  0  0  0
 41 48  1  0  0  0
 42 43  1  0  0  0
 42 66  1  0  0  0
 42111  1  0  0  0
 42112  1  0  0  0
 43 44  1  0  0  0
 44113  1  0  0  0
 45 46  2  0  0  0
 45114  1  0  0  0
 46115  1  0  0  0
 47116  1  0  0  0
 47117  1  0  0  0
 48 56  1  0  0  0
 48 65  1  0  0  0
 48118  1  0  0  0
 49 50  1  0  0  0
 49 53  1  0  0  0
 49 64  1  0  0  0
 49119  1  0  0  0
 50 51  1  0  0  0
 50120  1  0  0  0
 50121  1  0  0  0
 51 52  1  0  0  0
 51122  1  0  0  0
 51123  1  0  0  0
 52124  1  0  0  0
 52125  1  0  0  0
 53 54  1  0  0  0
 54 55  2  0  0  0
 54126  1  0  0  0
 55 57  1  0  0  0
 55127  1  0  0  0
 56 69  2  0  0  0
 57 58  2  0  0  0
 57128  1  0  0  0
 58129  1  0  0  0
 59 60  1  0  0  0
 59 61  1  0  0  0
 59 62  1  0  0  0
 60130  1  0  0  0
 60131  1  0  0  0
 60132  1  0  0  0
 61133  1  0  0  0
 61134  1  0  0  0
 61135  1  0  0  0
 62136  1  0  0  0
 62137  1  0  0  0
 62138  1  0  0  0
 63 65  1  0  0  0
 63139  1  0  0  0
 63140  1  0  0  0
 63141  1  0  0  0
 64142  1  0  0  0
 65143  1  0  0  0
 68 81  1  0  0  0
 71 73  1  0  0  0
 71144  1  0  0  0
 71145  1  0  0  0
 71 75  1  0  0  0
 72 74  1  0  0  0
 72 75  1  0  0  0
 72146  1  0  0  0
 72147  1  0  0  0
 73 84  1  0  0  0
 73148  1  0  0  0
 73149  1  0  0  0
 74 84  1  0  0  0
 74150  1  0  0  0
 74151  1  0  0  0
 75 82  1  0  0  0
 75152  1  0  0  0
 76153  1  0  0  0
 76154  1  0  0  0
 76155  1  0  0  0
 76 82  1  0  0  0
 77156  1  0  0  0
 77157  1  0  0  0
 77158  1  0  0  0
 77 83  1  0  0  0
 78 79  1  0  0  0
 78 81  1  0  0  0
 78159  1  0  0  0
 78160  1  0  0  0
 79 83  1  0  0  0
 79161  1  0  0  0
 79162  1  0  0  0
 80 83  1  0  0  0
 80163  1  0  0  0
 80164  1  0  0  0
 80 84  1  0  0  0
 81165  1  0  0  0
 81166  1  0  0  0
 82167  1  0  0  0
 83168  1  0  0  0
 84169  1  0  0  0
M  CHG  1  84   1
M  ISO  4   1 100  68 101  81 101  82 100
M  END
> <chiral flag>
0

> <version>
0

> <s_m_source_file>
/data/baiqing/PycharmProjects/Reinvent-master-3.2/result/LINK_invent/BTK/process_docking_weight1_custom_sum_contain_oxygen_bond_distance_aromatic_linkinvent_7_9_3/rearranged_h_0078.sdf

> <i_m_source_file_index>
3

> <r_mmod_Potential_Energy-OPLS-2005>
80.049186706543

> <r_mmod_Stretch_Energy-OPLS-2005>
42.9238700866699

> <r_mmod_Bend_Energy-OPLS-2005>
118.76252746582

> <r_mmod_Torsional_Energy-OPLS-2005>
291.797912597656

> <r_mmod_Improper_Torsional_Energy-OPLS-2005>
16.7610855102539

> <r_mmod_Van_der_Waal_Energy-OPLS-2005>
147.600433349609

> <r_mmod_Electrostatic_Energy-OPLS-2005>
-164.585250854492

> <r_mmod_Solvation_Energy-OPLS-2005>
-413.842956542969

> <b_mmod_Minimization_Converged-OPLS-2005>
0

> <r_mmod_RMS_Derivative-OPLS-2005>
1.01811504364014

$$$$
3
                    3D
 Structure written by MMmdl.
171179  0  0  1  0            999 V2000
  -30.7214  -14.4523   20.4482 C   0  0  0  0  0  0
  -30.3998  -12.2682   19.4278 C   0  0  0  0  0  0
  -29.4917  -12.4828   18.2016 C   0  0  0  0  0  0
  -28.0106  -12.3591   18.6088 C   0  0  0  0  0  0
  -27.6516  -13.2132   19.8556 C   0  0  2  0  0  0
  -28.6976  -13.0536   20.9853 C   0  0  0  0  0  0
  -25.2552  -13.8170   20.5635 C   0  0  0  0  0  0
  -24.1831  -13.0436   20.9174 C   0  0  0  0  0  0
  -24.6390  -11.6906   20.8724 C   0  0  0  0  0  0
  -23.9052  -10.4304   21.0395 C   0  0  0  0  0  0
  -24.3619   -9.4234   21.9180 C   0  0  0  0  0  0
  -23.6306   -8.2260   22.0751 C   0  0  0  0  0  0
  -22.4291   -8.0283   21.3537 C   0  0  0  0  0  0
  -21.9910   -9.0247   20.4642 C   0  0  0  0  0  0
  -22.7221  -10.2138   20.3052 C   0  0  0  0  0  0
  -21.6862   -6.0752   22.5289 C   0  0  0  0  0  0
  -21.4018   -6.5644   23.8219 C   0  0  0  0  0  0
  -21.3663   -5.6790   24.9175 C   0  0  0  0  0  0
  -21.6045   -4.3049   24.7226 C   0  0  0  0  0  0
  -21.8826   -3.8153   23.4345 C   0  0  0  0  0  0
  -21.9197   -4.6978   22.3408 C   0  0  0  0  0  0
  -22.7865  -13.5220   21.1852 C   0  0  0  0  0  0
  -22.1657   -4.2164   21.0986 F   0  0  0  0  0  0
  -21.5637   -3.4533   25.7740 F   0  0  0  0  0  0
  -30.0284  -13.2906   20.4134 N   0  0  0  0  0  0
  -26.2977  -12.9352   20.3278 N   0  0  0  0  0  0
  -25.9310  -11.6509   20.5724 N   0  0  0  0  0  0
  -22.0492  -12.8225   22.0419 N   0  0  0  0  0  0
  -25.4217  -15.1895   20.4037 N   0  0  0  0  0  0
  -31.9287  -14.5195   20.2088 O   0  0  0  0  0  0
  -21.6648   -6.8889   21.4246 O   0  0  0  0  0  0
  -22.3553  -14.5533   20.6700 O   0  0  0  0  0  0
  -24.6103  -31.8707   23.2130 C   0  0  0  0  0  0
  -25.9012  -32.4839   23.8413 C   0  0  1  0  0  0
  -27.2419  -27.4797   20.0746 C   0  0  0  0  0  0
  -25.5883  -33.8639   24.2345 N   0  0  0  0  0  0
  -23.3972  -30.4928   21.5526 C   0  0  2  0  0  0
  -24.8453  -28.9611   20.1161 C   0  0  0  0  0  0
  -22.7389  -29.4660   22.5012 C   0  0  0  0  0  0
  -18.0264  -28.1374   22.8493 C   0  0  0  0  0  0
  -24.1480  -36.7325   23.2637 C   0  0  0  0  0  0
  -25.9216  -30.8442   21.3627 C   0  0  0  0  0  0
  -26.0003  -29.4800   20.7150 C   0  0  0  0  0  0
  -27.1994  -28.7381   20.7063 C   0  0  0  0  0  0
  -26.0701  -26.9551   19.4887 C   0  0  0  0  0  0
  -24.8710  -27.6934   19.5076 C   0  0  0  0  0  0
  -23.6050  -29.8242   20.1665 C   0  0  0  0  0  0
  -25.4104  -36.3128   24.0342 C   0  0  1  0  0  0
  -20.5849  -28.3654   23.1331 C   0  0  2  0  0  0
  -20.6755  -26.9395   22.5424 C   0  0  0  0  0  0
  -19.5739  -26.6386   21.5214 C   0  0  0  0  0  0
  -18.1915  -26.7921   22.1620 C   0  0  0  0  0  0
  -19.1511  -28.8832   23.2910 C   0  0  0  0  0  0
  -18.9443  -30.1437   23.8923 C   0  0  0  0  0  0
  -17.6448  -30.6584   24.0566 C   0  0  0  0  0  0
  -25.9029  -34.9491   23.5143 C   0  0  0  0  0  0
  -16.5337  -29.9089   23.6321 C   0  0  0  0  0  0
  -16.7256  -28.6504   23.0346 C   0  0  0  0  0  0
  -26.4457  -31.6610   25.0730 C   0  0  0  0  0  0
  -25.3743  -31.3706   26.1496 C   0  0  0  0  0  0
  -27.0276  -30.3060   24.6073 C   0  0  0  0  0  0
  -27.6035  -32.4329   25.7491 C   0  0  0  0  0  0
  -27.5580  -37.1816   24.8463 C   0  0  0  0  0  0
  -21.4116  -29.3026   22.3751 N   0  0  0  0  0  0
  -26.4293  -37.3808   23.9407 N   0  0  0  0  0  0
  -24.6610  -31.0823   22.1021 N   0  0  0  0  0  0
  -23.4179  -28.8207   23.3044 O   0  0  0  0  0  0
  -28.4136  -26.7678   20.0737 O   0  0  0  0  0  0
  -26.5586  -34.8931   22.4700 O   0  0  0  0  0  0
  -23.5306  -32.1437   23.7550 O   0  0  0  0  0  0
  -29.2205  -22.0287   17.6760 C   0  0  0  0  0  0
  -31.1343  -21.0377   18.0408 C   0  0  0  0  0  0
  -30.6192  -22.2835   17.8111 C   0  0  0  0  0  0
  -32.3522  -23.5140   16.4884 C   0  0  0  0  0  0
  -29.8750  -18.0887   16.6094 C   0  0  0  0  0  0
  -29.5773  -18.7460   20.5029 C   0  0  0  0  0  0
  -28.1363  -17.4556   18.9215 C   0  0  0  0  0  0
  -29.7976  -25.1858   18.9244 C   0  0  0  0  0  0
  -30.5210  -24.8386   17.6141 C   0  0  0  0  0  0
  -30.4967  -16.6546   19.4716 C   0  0  0  0  0  0
  -28.9438  -26.4513   18.7938 C   0  0  0  0  0  0
  -31.4039  -23.5769   17.6979 C   0  0  1  0  0  0
  -30.2313  -18.6638   17.9982 C   0  0  2  0  0  0
  -29.5900  -17.8908   19.2177 C   0  0  0  0  0  0
  -28.9173  -20.7384   17.7692 N   0  0  0  0  0  0
  -30.1040  -20.1231   17.9834 N   0  0  0  0  0  0
  -29.9755  -15.5630   20.3137 N   0  0  0  0  0  0
  -31.4481  -12.3260   19.1322 H   0  0  0  0  0  0
  -30.2570  -11.2694   19.8435 H   0  0  0  0  0  0
  -29.7295  -11.7570   17.4240 H   0  0  0  0  0  0
  -29.6795  -13.4682   17.7667 H   0  0  0  0  0  0
  -27.8122  -11.3062   18.8074 H   0  0  0  0  0  0
  -27.3665  -12.6328   17.7723 H   0  0  0  0  0  0
  -27.6697  -14.2503   19.5243 H   0  0  0  0  0  0
  -28.6554  -12.0508   21.4125 H   0  0  0  0  0  0
  -28.4929  -13.7468   21.8029 H   0  0  0  0  0  0
  -25.2765   -9.5731   22.4735 H   0  0  0  0  0  0
  -24.0037   -7.4667   22.7468 H   0  0  0  0  0  0
  -21.0836   -8.8746   19.8955 H   0  0  0  0  0  0
  -22.3659  -10.9670   19.6156 H   0  0  0  0  0  0
  -21.1988   -7.6155   23.9723 H   0  0  0  0  0  0
  -21.1479   -6.0519   25.9079 H   0  0  0  0  0  0
  -22.0597   -2.7617   23.2836 H   0  0  0  0  0  0
  -22.4066  -11.9882   22.4830 H   0  0  0  0  0  0
  -21.1110  -13.1263   22.2582 H   0  0  0  0  0  0
  -24.6470  -15.8362   20.5118 H   0  0  0  0  0  0
  -26.2607  -15.6353   20.0564 H   0  0  0  0  0  0
  -26.7089  -32.5562   23.1186 H   0  0  0  0  0  0
  -25.0048  -33.9812   25.0501 H   0  0  0  0  0  0
  -22.6851  -31.3090   21.4147 H   0  0  0  0  0  0
  -23.3740  -35.9658   23.3313 H   0  0  0  0  0  0
  -24.3580  -36.8925   22.2048 H   0  0  0  0  0  0
  -23.7233  -37.6538   23.6640 H   0  0  0  0  0  0
  -26.0279  -31.6089   20.5918 H   0  0  0  0  0  0
  -26.8127  -30.9018   21.9755 H   0  0  0  0  0  0
  -28.0939  -29.1344   21.1665 H   0  0  0  0  0  0
  -26.0819  -25.9792   19.0239 H   0  0  0  0  0  0
  -23.9802  -27.2840   19.0516 H   0  0  0  0  0  0
  -23.7110  -30.5992   19.4064 H   0  0  0  0  0  0
  -22.7299  -29.2417   19.8722 H   0  0  0  0  0  0
  -25.1276  -36.1997   25.0835 H   0  0  0  0  0  0
  -20.9940  -28.3205   24.1451 H   0  0  0  0  0  0
  -20.5652  -26.2253   23.3603 H   0  0  0  0  0  0
  -21.6627  -26.7439   22.1213 H   0  0  0  0  0  0
  -19.6898  -25.6300   21.1229 H   0  0  0  0  0  0
  -19.6683  -27.3206   20.6753 H   0  0  0  0  0  0
  -17.4185  -26.6672   21.4019 H   0  0  0  0  0  0
  -18.0314  -26.0060   22.9011 H   0  0  0  0  0  0
  -19.7924  -30.7240   24.2302 H   0  0  0  0  0  0
  -17.5010  -31.6267   24.5159 H   0  0  0  0  0  0
  -15.5342  -30.3002   23.7642 H   0  0  0  0  0  0
  -15.8651  -28.0840   22.7048 H   0  0  0  0  0  0
  -24.5908  -30.7055   25.7846 H   0  0  0  0  0  0
  -24.8942  -32.2857   26.4973 H   0  0  0  0  0  0
  -25.8117  -30.8864   27.0234 H   0  0  0  0  0  0
  -26.2800  -29.6846   24.1127 H   0  0  0  0  0  0
  -27.4061  -29.7274   25.4507 H   0  0  0  0  0  0
  -27.8631  -30.4397   23.9198 H   0  0  0  0  0  0
  -27.2650  -33.3618   26.2098 H   0  0  0  0  0  0
  -28.3830  -32.6912   25.0310 H   0  0  0  0  0  0
  -28.0718  -31.8437   26.5386 H   0  0  0  0  0  0
  -28.2603  -38.0111   24.7516 H   0  0  0  0  0  0
  -28.1072  -36.2642   24.6277 H   0  0  0  0  0  0
  -27.2302  -37.1456   25.8869 H   0  0  0  0  0  0
  -20.9274  -29.8753   21.6979 H   0  0  0  0  0  0
  -26.0185  -38.2885   24.1418 H   0  0  0  0  0  0
  -28.4233  -22.7344   17.4874 H   0  0  0  0  0  0
  -32.1577  -20.7224   18.1856 H   0  0  0  0  0  0
  -33.0461  -22.6762   16.5653 H   0  0  0  0  0  0
  -32.9550  -24.4203   16.4140 H   0  0  0  0  0  0
  -31.8015  -23.4059   15.5531 H   0  0  0  0  0  0
  -30.0673  -17.0190   16.5436 H   0  0  0  0  0  0
  -30.4685  -18.5669   15.8302 H   0  0  0  0  0  0
  -28.8267  -18.2527   16.3585 H   0  0  0  0  0  0
  -29.2115  -18.1751   21.3575 H   0  0  0  0  0  0
  -28.9314  -19.6199   20.4038 H   0  0  0  0  0  0
  -30.5769  -19.1042   20.7512 H   0  0  0  0  0  0
  -27.6574  -17.0405   19.8074 H   0  0  0  0  0  0
  -28.0833  -16.6972   18.1388 H   0  0  0  0  0  0
  -27.5310  -18.3016   18.5960 H   0  0  0  0  0  0
  -30.5349  -25.3282   19.7153 H   0  0  0  0  0  0
  -29.1655  -24.3573   19.2423 H   0  0  0  0  0  0
  -31.1577  -25.6883   17.3610 H   0  0  0  0  0  0
  -29.8084  -24.7511   16.7926 H   0  0  0  0  0  0
  -31.4505  -16.9952   19.8775 H   0  0  0  0  0  0
  -30.7394  -16.1970   18.5105 H   0  0  0  0  0  0
  -28.1757  -26.3009   18.0349 H   0  0  0  0  0  0
  -29.5592  -27.2888   18.4610 H   0  0  0  0  0  0
  -32.0375  -23.6856   18.5796 H   0  0  0  0  0  0
  -31.3082  -18.5081   18.0895 H   0  0  0  0  0  0
  -28.9783  -15.4892   20.4424 H   0  0  0  0  0  0
  1 25  1  0  0  0
  1 30  2  0  0  0
  1 87  1  0  0  0
  2  3  1  0  0  0
  2 25  1  0  0  0
  2 88  1  0  0  0
  2 89  1  0  0  0
  3  4  1  0  0  0
  3 90  1  0  0  0
  3 91  1  0  0  0
  4  5  1  0  0  0
  4 92  1  0  0  0
  4 93  1  0  0  0
  5  6  1  0  0  0
  5 26  1  0  0  0
  5 94  1  0  0  0
  6 25  1  0  0  0
  6 95  1  0  0  0
  6 96  1  0  0  0
  7  8  2  0  0  0
  7 26  1  0  0  0
  7 29  1  0  0  0
  8  9  1  0  0  0
  8 22  1  0  0  0
  9 10  1  0  0  0
  9 27  2  0  0  0
 10 11  2  0  0  0
 10 15  1  0  0  0
 11 12  1  0  0  0
 11 97  1  0  0  0
 12 13  2  0  0  0
 12 98  1  0  0  0
 13 14  1  0  0  0
 13 31  1  0  0  0
 14 15  2  0  0  0
 14 99  1  0  0  0
 15100  1  0  0  0
 16 17  2  0  0  0
 16 21  1  0  0  0
 16 31  1  0  0  0
 17 18  1  0  0  0
 17101  1  0  0  0
 18 19  2  0  0  0
 18102  1  0  0  0
 19 20  1  0  0  0
 19 24  1  0  0  0
 20 21  2  0  0  0
 20103  1  0  0  0
 21 23  1  0  0  0
 22 28  1  0  0  0
 22 32  2  0  0  0
 26 27  1  0  0  0
 28104  1  0  0  0
 28105  1  0  0  0
 29106  1  0  0  0
 29107  1  0  0  0
 33 34  1  0  0  0
 33 66  1  0  0  0
 33 70  2  0  0  0
 34 36  1  0  0  0
 34 59  1  0  0  0
 34108  1  0  0  0
 35 44  2  0  0  0
 35 45  1  0  0  0
 35 68  1  0  0  0
 36 56  1  0  0  0
 36109  1  0  0  0
 37 39  1  0  0  0
 37 47  1  0  0  0
 37 66  1  0  0  0
 37110  1  0  0  0
 38 43  2  0  0  0
 38 46  1  0  0  0
 38 47  1  0  0  0
 39 64  1  0  0  0
 39 67  2  0  0  0
 40 52  1  0  0  0
 40 53  2  0  0  0
 40 58  1  0  0  0
 41111  1  0  0  0
 41112  1  0  0  0
 41113  1  0  0  0
 41 48  1  0  0  0
 42 43  1  0  0  0
 42 66  1  0  0  0
 42114  1  0  0  0
 42115  1  0  0  0
 43 44  1  0  0  0
 44116  1  0  0  0
 45 46  2  0  0  0
 45117  1  0  0  0
 46118  1  0  0  0
 47119  1  0  0  0
 47120  1  0  0  0
 48 56  1  0  0  0
 48 65  1  0  0  0
 48121  1  0  0  0
 49 50  1  0  0  0
 49 53  1  0  0  0
 49 64  1  0  0  0
 49122  1  0  0  0
 50 51  1  0  0  0
 50123  1  0  0  0
 50124  1  0  0  0
 51 52  1  0  0  0
 51125  1  0  0  0
 51126  1  0  0  0
 52127  1  0  0  0
 52128  1  0  0  0
 53 54  1  0  0  0
 54 55  2  0  0  0
 54129  1  0  0  0
 55 57  1  0  0  0
 55130  1  0  0  0
 56 69  2  0  0  0
 57 58  2  0  0  0
 57131  1  0  0  0
 58132  1  0  0  0
 59 60  1  0  0  0
 59 61  1  0  0  0
 59 62  1  0  0  0
 60133  1  0  0  0
 60134  1  0  0  0
 60135  1  0  0  0
 61136  1  0  0  0
 61137  1  0  0  0
 61138  1  0  0  0
 62139  1  0  0  0
 62140  1  0  0  0
 62141  1  0  0  0
 63 65  1  0  0  0
 63142  1  0  0  0
 63143  1  0  0  0
 63144  1  0  0  0
 64145  1  0  0  0
 65146  1  0  0  0
 68 81  1  0  0  0
 71 73  1  0  0  0
 71 85  2  0  0  0
 71147  1  0  0  0
 72 73  2  0  0  0
 72 86  1  0  0  0
 72148  1  0  0  0
 73 82  1  0  0  0
 74149  1  0  0  0
 74150  1  0  0  0
 74151  1  0  0  0
 74 82  1  0  0  0
 75152  1  0  0  0
 75153  1  0  0  0
 75154  1  0  0  0
 75 83  1  0  0  0
 76155  1  0  0  0
 76156  1  0  0  0
 76157  1  0  0  0
 76 84  1  0  0  0
 77 84  1  0  0  0
 77158  1  0  0  0
 77159  1  0  0  0
 77160  1  0  0  0
 78 79  1  0  0  0
 78 81  1  0  0  0
 78161  1  0  0  0
 78162  1  0  0  0
 79 82  1  0  0  0
 79163  1  0  0  0
 79164  1  0  0  0
 80 84  1  0  0  0
 80 87  1  0  0  0
 80165  1  0  0  0
 80166  1  0  0  0
 81167  1  0  0  0
 81168  1  0  0  0
 82169  1  0  0  0
 83 84  1  0  0  0
 83 86  1  0  0  0
 83170  1  0  0  0
 85 86  1  0  0  0
 87171  1  0  0  0
M  ISO  4   1 100  68 101  81 101  87 100
M  END
> <chiral flag>
0

> <version>
0

> <s_m_source_file>
/data/baiqing/PycharmProjects/Reinvent-master-3.2/result/LINK_invent/BTK/process_docking_weight1_custom_sum_contain_oxygen_bond_distance_aromatic_linkinvent_7_9_3/rearranged_h_0078.sdf

> <i_m_source_file_index>
4

> <r_mmod_Potential_Energy-OPLS-2005>
-25.4504089355469

> <r_mmod_Stretch_Energy-OPLS-2005>
34.5810203552246

> <r_mmod_Bend_Energy-OPLS-2005>
112.25373840332

> <r_mmod_Torsional_Energy-OPLS-2005>
283.783416748047

> <r_mmod_Improper_Torsional_Energy-OPLS-2005>
14.8525838851929

> <r_mmod_Van_der_Waal_Energy-OPLS-2005>
132.374435424805

> <r_mmod_Electrostatic_Energy-OPLS-2005>
-418.392181396484

> <r_mmod_Solvation_Energy-OPLS-2005>
-206.426788330078

> <b_mmod_Minimization_Converged-OPLS-2005>
0

> <r_mmod_RMS_Derivative-OPLS-2005>
2.18870329856873

$$$$
4
                    3D
 Structure written by MMmdl.
155163  0  0  1  0            999 V2000
  -30.4666  -15.1476   20.4050 C   0  0  0  0  0  0
  -30.4467  -12.7192   19.5280 C   0  0  0  0  0  0
  -29.5385  -12.5652   18.2815 C   0  0  0  0  0  0
  -28.0775  -12.3103   18.6950 C   0  0  0  0  0  0
  -27.6211  -13.2653   19.8255 C   0  0  2  0  0  0
  -28.6541  -13.3724   20.9653 C   0  0  0  0  0  0
  -25.2434  -13.8235   20.5719 C   0  0  0  0  0  0
  -24.1770  -13.0439   20.9235 C   0  0  0  0  0  0
  -24.6409  -11.6930   20.8743 C   0  0  0  0  0  0
  -23.9098  -10.4292   21.0400 C   0  0  0  0  0  0
  -24.3642   -9.4206   21.9179 C   0  0  0  0  0  0
  -23.6304   -8.2246   22.0754 C   0  0  0  0  0  0
  -22.4285   -8.0289   21.3545 C   0  0  0  0  0  0
  -21.9928   -9.0264   20.4646 C   0  0  0  0  0  0
  -22.7267  -10.2134   20.3051 C   0  0  0  0  0  0
  -21.6856   -6.0739   22.5279 C   0  0  0  0  0  0
  -21.4016   -6.5642   23.8212 C   0  0  0  0  0  0
  -21.3658   -5.6794   24.9174 C   0  0  0  0  0  0
  -21.6042   -4.3057   24.7223 C   0  0  0  0  0  0
  -21.8819   -3.8149   23.4345 C   0  0  0  0  0  0
  -21.9192   -4.6967   22.3402 C   0  0  0  0  0  0
  -22.7786  -13.5200   21.1891 C   0  0  0  0  0  0
  -22.1659   -4.2151   21.0979 F   0  0  0  0  0  0
  -21.5627   -3.4542   25.7733 F   0  0  0  0  0  0
  -29.9163  -13.8435   20.3744 N   0  0  0  0  0  0
  -26.2853  -12.9493   20.3179 N   0  0  0  0  0  0
  -25.9342  -11.6609   20.5695 N   0  0  0  0  0  0
  -22.0445  -12.8182   22.0447 N   0  0  0  0  0  0
  -25.4096  -15.1969   20.4182 N   0  0  0  0  0  0
  -31.6669  -15.1715   20.1015 O   0  0  0  0  0  0
  -21.6647   -6.8886   21.4243 O   0  0  0  0  0  0
  -22.3467  -14.5503   20.6736 O   0  0  0  0  0  0
  -24.6564  -31.8320   23.1777 C   0  0  0  0  0  0
  -25.9276  -32.4637   23.8210 C   0  0  1  0  0  0
  -27.2158  -27.0031   20.1680 C   0  0  0  0  0  0
  -25.5979  -33.8445   24.2117 N   0  0  0  0  0  0
  -23.4674  -30.4486   21.5253 C   0  0  2  0  0  0
  -24.9199  -28.8548   20.1092 C   0  0  0  0  0  0
  -22.7637  -29.4492   22.4799 C   0  0  0  0  0  0
  -18.0319  -28.1414   22.8471 C   0  0  0  0  0  0
  -24.1489  -36.7223   23.2645 C   0  0  0  0  0  0
  -26.0332  -30.6631   21.3978 C   0  0  0  0  0  0
  -26.1026  -29.2613   20.7400 C   0  0  0  0  0  0
  -27.2474  -28.3546   20.7504 C   0  0  0  0  0  0
  -26.0065  -26.7403   19.4829 C   0  0  0  0  0  0
  -24.8931  -27.6117   19.4622 C   0  0  0  0  0  0
  -23.7025  -29.7729   20.1479 C   0  0  0  0  0  0
  -25.4127  -36.2992   24.0305 C   0  0  1  0  0  0
  -20.5944  -28.3752   23.1200 C   0  0  2  0  0  0
  -20.6801  -26.9442   22.5400 C   0  0  0  0  0  0
  -19.5771  -26.6380   21.5217 C   0  0  0  0  0  0
  -18.1951  -26.7951   22.1620 C   0  0  0  0  0  0
  -19.1582  -28.8899   23.2828 C   0  0  0  0  0  0
  -18.9495  -30.1489   23.8863 C   0  0  0  0  0  0
  -17.6490  -30.6606   24.0557 C   0  0  0  0  0  0
  -25.9089  -34.9378   23.5023 C   0  0  0  0  0  0
  -16.5379  -29.9097   23.6344 C   0  0  0  0  0  0
  -16.7301  -28.6516   23.0364 C   0  0  0  0  0  0
  -26.4546  -31.6561   25.0713 C   0  0  0  0  0  0
  -25.3686  -31.3808   26.1381 C   0  0  0  0  0  0
  -27.0425  -30.2934   24.6403 C   0  0  0  0  0  0
  -27.6055  -32.4350   25.7505 C   0  0  0  0  0  0
  -27.5570  -37.1766   24.8465 C   0  0  0  0  0  0
  -21.4314  -29.3059   22.3555 N   0  0  0  0  0  0
  -26.4272  -37.3726   23.9417 N   0  0  0  0  0  0
  -24.7398  -31.0059   22.0875 N   0  0  0  0  0  0
  -23.4222  -28.8051   23.3003 O   0  0  0  0  0  0
  -28.2092  -25.9126   20.2594 O   0  0  0  0  0  0
  -26.5691  -34.8901   22.4612 O   0  0  0  0  0  0
  -23.5649  -32.1245   23.6919 O   0  0  0  0  0  0
  -29.9268  -22.4048   20.3259 C   0  0  0  0  0  0
  -30.3406  -20.9883   20.3602 C   0  0  0  0  0  0
  -28.5503  -22.8201   20.2307 C   0  0  0  0  0  0
  -29.4399  -19.8488   20.2938 C   0  0  0  0  0  0
  -29.7966  -18.0296   18.4523 C   0  0  0  0  0  0
  -27.8274  -24.3681   19.9876 C   0  0  0  0  0  0
  -29.6075  -16.8716   22.2559 C   0  0  0  0  0  0
  -29.9469  -18.2298   19.9691 C   0  0  2  0  0  0
  -29.6830  -16.6616   20.7232 C   0  0  1  0  0  0
  -27.7406  -21.6713   20.1810 N   0  0  0  0  0  0
  -28.1341  -20.3230   20.1933 N   0  0  0  0  0  0
  -30.9033  -17.1884   22.8940 N   0  3  0  0  0  0
  -31.4736  -12.8999   19.2087 H   0  0  0  0  0  0
  -30.4794  -11.7897   20.0989 H   0  0  0  0  0  0
  -29.8972  -11.7518   17.6500 H   0  0  0  0  0  0
  -29.5947  -13.4714   17.6766 H   0  0  0  0  0  0
  -28.0084  -11.2776   19.0385 H   0  0  0  0  0  0
  -27.4150  -12.3907   17.8324 H   0  0  0  0  0  0
  -27.5589  -14.2497   19.3599 H   0  0  0  0  0  0
  -28.7829  -12.4149   21.4733 H   0  0  0  0  0  0
  -28.3038  -14.0752   21.7207 H   0  0  0  0  0  0
  -25.2786   -9.5677   22.4755 H   0  0  0  0  0  0
  -24.0005   -7.4641   22.7480 H   0  0  0  0  0  0
  -21.0854   -8.8790   19.8956 H   0  0  0  0  0  0
  -22.3729  -10.9674   19.6161 H   0  0  0  0  0  0
  -21.2012   -7.6151   23.9717 H   0  0  0  0  0  0
  -21.1477   -6.0524   25.9075 H   0  0  0  0  0  0
  -22.0598   -2.7611   23.2846 H   0  0  0  0  0  0
  -22.4064  -11.9841   22.4822 H   0  0  0  0  0  0
  -21.1059  -13.1195   22.2658 H   0  0  0  0  0  0
  -24.6383  -15.8460   20.5306 H   0  0  0  0  0  0
  -26.2489  -15.6392   20.0671 H   0  0  0  0  0  0
  -26.7346  -32.5200   23.0931 H   0  0  0  0  0  0
  -25.0106  -33.9537   25.0253 H   0  0  0  0  0  0
  -22.7765  -31.2782   21.3614 H   0  0  0  0  0  0
  -23.3766  -35.9538   23.3280 H   0  0  0  0  0  0
  -24.3567  -36.8888   22.2066 H   0  0  0  0  0  0
  -23.7226  -37.6397   23.6707 H   0  0  0  0  0  0
  -26.2067  -31.4095   20.6215 H   0  0  0  0  0  0
  -26.8961  -30.7156   22.0497 H   0  0  0  0  0  0
  -28.1399  -28.6613   21.2776 H   0  0  0  0  0  0
  -25.8728  -25.7966   18.9773 H   0  0  0  0  0  0
  -23.9950  -27.2950   18.9497 H   0  0  0  0  0  0
  -23.8506  -30.5450   19.3915 H   0  0  0  0  0  0
  -22.8139  -29.2232   19.8321 H   0  0  0  0  0  0
  -25.1320  -36.1793   25.0795 H   0  0  0  0  0  0
  -21.0029  -28.3358   24.1322 H   0  0  0  0  0  0
  -20.5686  -26.2379   23.3638 H   0  0  0  0  0  0
  -21.6667  -26.7432   22.1202 H   0  0  0  0  0  0
  -19.6937  -25.6277   21.1277 H   0  0  0  0  0  0
  -19.6712  -27.3166   20.6730 H   0  0  0  0  0  0
  -17.4222  -26.6695   21.4022 H   0  0  0  0  0  0
  -18.0345  -26.0104   22.9025 H   0  0  0  0  0  0
  -19.7974  -30.7311   24.2223 H   0  0  0  0  0  0
  -17.5047  -31.6284   24.5169 H   0  0  0  0  0  0
  -15.5380  -30.2992   23.7694 H   0  0  0  0  0  0
  -15.8698  -28.0822   22.7110 H   0  0  0  0  0  0
  -24.5883  -30.7138   25.7700 H   0  0  0  0  0  0
  -24.8861  -32.3011   26.4681 H   0  0  0  0  0  0
  -25.7920  -30.9062   27.0243 H   0  0  0  0  0  0
  -26.3081  -29.6631   24.1378 H   0  0  0  0  0  0
  -27.3950  -29.7274   25.5036 H   0  0  0  0  0  0
  -27.9024  -30.4133   23.9809 H   0  0  0  0  0  0
  -27.2648  -33.3705   26.1953 H   0  0  0  0  0  0
  -28.3933  -32.6817   25.0376 H   0  0  0  0  0  0
  -28.0645  -31.8559   26.5529 H   0  0  0  0  0  0
  -28.2564  -38.0086   24.7525 H   0  0  0  0  0  0
  -28.1083  -36.2612   24.6261 H   0  0  0  0  0  0
  -27.2292  -37.1377   25.8868 H   0  0  0  0  0  0
  -20.9548  -29.8766   21.6710 H   0  0  0  0  0  0
  -26.0124  -38.2779   24.1445 H   0  0  0  0  0  0
  -30.6889  -23.1706   20.3275 H   0  0  0  0  0  0
  -31.4013  -20.7847   20.3690 H   0  0  0  0  0  0
  -30.2680  -18.8437   17.9003 H   0  0  0  0  0  0
  -28.7455  -18.0010   18.1645 H   0  0  0  0  0  0
  -30.2619  -17.1021   18.1195 H   0  0  0  0  0  0
  -26.8662  -24.2536   20.4897 H   0  0  0  0  0  0
  -27.5875  -24.3455   18.9246 H   0  0  0  0  0  0
  -29.2082  -15.9777   22.7356 H   0  0  0  0  0  0
  -28.8974  -17.6677   22.4837 H   0  0  0  0  0  0
  -31.0216  -18.3436   20.1133 H   0  0  0  0  0  0
  -28.6558  -16.4332   20.4395 H   0  0  0  0  0  0
  -31.5805  -16.4600   22.7500 H   0  0  0  0  0  0
  -30.7716  -17.2839   23.8865 H   0  0  0  0  0  0
  -31.2849  -18.0539   22.5577 H   0  0  0  0  0  0
  1 25  1  0  0  0
  1 30  2  0  0  0
  1 79  1  0  0  0
  2  3  1  0  0  0
  2 25  1  0  0  0
  2 83  1  0  0  0
  2 84  1  0  0  0
  3  4  1  0  0  0
  3 85  1  0  0  0
  3 86  1  0  0  0
  4  5  1  0  0  0
  4 87  1  0  0  0
  4 88  1  0  0  0
  5  6  1  0  0  0
  5 26  1  0  0  0
  5 89  1  0  0  0
  6 25  1  0  0  0
  6 90  1  0  0  0
  6 91  1  0  0  0
  7  8  2  0  0  0
  7 26  1  0  0  0
  7 29  1  0  0  0
  8  9  1  0  0  0
  8 22  1  0  0  0
  9 10  1  0  0  0
  9 27  2  0  0  0
 10 11  2  0  0  0
 10 15  1  0  0  0
 11 12  1  0  0  0
 11 92  1  0  0  0
 12 13  2  0  0  0
 12 93  1  0  0  0
 13 14  1  0  0  0
 13 31  1  0  0  0
 14 15  2  0  0  0
 14 94  1  0  0  0
 15 95  1  0  0  0
 16 17  2  0  0  0
 16 21  1  0  0  0
 16 31  1  0  0  0
 17 18  1  0  0  0
 17 96  1  0  0  0
 18 19  2  0  0  0
 18 97  1  0  0  0
 19 20  1  0  0  0
 19 24  1  0  0  0
 20 21  2  0  0  0
 20 98  1  0  0  0
 21 23  1  0  0  0
 22 28  1  0  0  0
 22 32  2  0  0  0
 26 27  1  0  0  0
 28 99  1  0  0  0
 28100  1  0  0  0
 29101  1  0  0  0
 29102  1  0  0  0
 33 34  1  0  0  0
 33 66  1  0  0  0
 33 70  2  0  0  0
 34 36  1  0  0  0
 34 59  1  0  0  0
 34103  1  0  0  0
 35 44  2  0  0  0
 35 45  1  0  0  0
 35 68  1  0  0  0
 36 56  1  0  0  0
 36104  1  0  0  0
 37 39  1  0  0  0
 37 47  1  0  0  0
 37 66  1  0  0  0
 37105  1  0  0  0
 38 43  2  0  0  0
 38 46  1  0  0  0
 38 47  1  0  0  0
 39 64  1  0  0  0
 39 67  2  0  0  0
 40 52  1  0  0  0
 40 53  2  0  0  0
 40 58  1  0  0  0
 41106  1  0  0  0
 41107  1  0  0  0
 41108  1  0  0  0
 41 48  1  0  0  0
 42 43  1  0  0  0
 42 66  1  0  0  0
 42109  1  0  0  0
 42110  1  0  0  0
 43 44  1  0  0  0
 44111  1  0  0  0
 45 46  2  0  0  0
 45112  1  0  0  0
 46113  1  0  0  0
 47114  1  0  0  0
 47115  1  0  0  0
 48 56  1  0  0  0
 48 65  1  0  0  0
 48116  1  0  0  0
 49 50  1  0  0  0
 49 53  1  0  0  0
 49 64  1  0  0  0
 49117  1  0  0  0
 50 51  1  0  0  0
 50118  1  0  0  0
 50119  1  0  0  0
 51 52  1  0  0  0
 51120  1  0  0  0
 51121  1  0  0  0
 52122  1  0  0  0
 52123  1  0  0  0
 53 54  1  0  0  0
 54 55  2  0  0  0
 54124  1  0  0  0
 55 57  1  0  0  0
 55125  1  0  0  0
 56 69  2  0  0  0
 57 58  2  0  0  0
 57126  1  0  0  0
 58127  1  0  0  0
 59 60  1  0  0  0
 59 61  1  0  0  0
 59 62  1  0  0  0
 60128  1  0  0  0
 60129  1  0  0  0
 60130  1  0  0  0
 61131  1  0  0  0
 61132  1  0  0  0
 61133  1  0  0  0
 62134  1  0  0  0
 62135  1  0  0  0
 62136  1  0  0  0
 63 65  1  0  0  0
 63137  1  0  0  0
 63138  1  0  0  0
 63139  1  0  0  0
 64140  1  0  0  0
 65141  1  0  0  0
 68 76  1  0  0  0
 71 72  2  0  0  0
 71 73  1  0  0  0
 71142  1  0  0  0
 72 74  1  0  0  0
 72143  1  0  0  0
 73 76  1  0  0  0
 73 80  2  0  0  0
 74 78  1  0  0  0
 74 81  2  0  0  0
 75144  1  0  0  0
 75145  1  0  0  0
 75146  1  0  0  0
 75 78  1  0  0  0
 76147  1  0  0  0
 76148  1  0  0  0
 77 82  1  0  0  0
 77149  1  0  0  0
 77150  1  0  0  0
 77 79  1  0  0  0
 78 79  1  0  0  0
 78151  1  0  0  0
 79152  1  0  0  0
 80 81  1  0  0  0
 82153  1  0  0  0
 82154  1  0  0  0
 82155  1  0  0  0
M  CHG  1  82   1
M  ISO  4   1 100  68 101  76 101  79 100
M  END
> <chiral flag>
0

> <version>
0

> <s_m_source_file>
/data/baiqing/PycharmProjects/Reinvent-master-3.2/result/LINK_invent/BTK/process_docking_weight1_custom_sum_contain_oxygen_bond_distance_aromatic_linkinvent_7_9_3/rearranged_h_0078.sdf

> <i_m_source_file_index>
5

> <r_mmod_Potential_Energy-OPLS-2005>
752.288696289062

> <r_mmod_Stretch_Energy-OPLS-2005>
443.980865478516

> <r_mmod_Bend_Energy-OPLS-2005>
414.723297119141

> <r_mmod_Torsional_Energy-OPLS-2005>
173.829696655273

> <r_mmod_Improper_Torsional_Energy-OPLS-2005>
4.89668464660645

> <r_mmod_Van_der_Waal_Energy-OPLS-2005>
123.045944213867

> <r_mmod_Electrostatic_Energy-OPLS-2005>
-237.041275024414

> <r_mmod_Solvation_Energy-OPLS-2005>
-518.851623535156

> <b_mmod_Minimization_Converged-OPLS-2005>
0

> <r_mmod_RMS_Derivative-OPLS-2005>
0.831610441207886

$$$$
5
                    3D
 Structure written by MMmdl.
176184  0  0  1  0            999 V2000
  -30.6683  -14.7122   20.6417 C   0  0  0  0  0  0
  -30.3948  -12.4919   19.5441 C   0  0  0  0  0  0
  -29.5100  -12.5222   18.2793 C   0  0  0  0  0  0
  -28.0380  -12.3322   18.6550 C   0  0  0  0  0  0
  -27.6122  -13.2500   19.8394 C   0  0  2  0  0  0
  -28.6085  -13.2379   20.9944 C   0  0  0  0  0  0
  -25.2437  -13.7970   20.5996 C   0  0  0  0  0  0
  -24.1590  -13.0214   20.9591 C   0  0  0  0  0  0
  -24.6352  -11.6668   20.8954 C   0  0  0  0  0  0
  -23.9162  -10.3927   21.0607 C   0  0  0  0  0  0
  -24.3797   -9.3728   21.9102 C   0  0  0  0  0  0
  -23.6504   -8.1708   22.0434 C   0  0  0  0  0  0
  -22.4377   -7.9895   21.3203 C   0  0  0  0  0  0
  -22.0210   -8.9897   20.4339 C   0  0  0  0  0  0
  -22.7591  -10.1881   20.2956 C   0  0  0  0  0  0
  -21.6834   -6.0726   22.5366 C   0  0  0  0  0  0
  -21.3974   -6.5485   23.8426 C   0  0  0  0  0  0
  -21.3962   -5.6565   24.9363 C   0  0  0  0  0  0
  -21.6268   -4.2842   24.7292 C   0  0  0  0  0  0
  -21.8749   -3.8033   23.4339 C   0  0  0  0  0  0
  -21.9136   -4.6889   22.3494 C   0  0  0  0  0  0
  -22.7613  -13.5130   21.1966 C   0  0  0  0  0  0
  -22.1568   -4.2082   21.1106 F   0  0  0  0  0  0
  -21.5912   -3.4249   25.7926 F   0  0  0  0  0  0
  -29.9201  -13.5816   20.4399 N   0  0  0  0  0  0
  -26.2773  -12.9221   20.3394 N   0  0  0  0  0  0
  -25.9215  -11.6299   20.5459 N   0  0  0  0  0  0
  -21.8867  -12.7897   21.8619 N   0  0  0  0  0  0
  -25.4312  -15.1553   20.4574 N   0  0  0  0  0  0
  -31.8865  -14.5936   20.3898 O   0  0  0  0  0  0
  -21.6513   -6.8710   21.4205 O   0  0  0  0  0  0
  -22.4042  -14.6270   20.8064 O   0  0  0  0  0  0
  -24.6239  -31.8629   23.2060 C   0  0  0  0  0  0
  -25.9128  -32.4773   23.8363 C   0  0  1  0  0  0
  -27.1011  -27.2265   20.2575 C   0  0  0  0  0  0
  -25.6003  -33.8582   24.2306 N   0  0  0  0  0  0
  -23.4142  -30.5041   21.5348 C   0  0  2  0  0  0
  -24.8658  -28.9785   20.0829 C   0  0  0  0  0  0
  -22.7443  -29.4755   22.4781 C   0  0  0  0  0  0
  -18.0305  -28.1389   22.8478 C   0  0  0  0  0  0
  -24.1539  -36.7278   23.2637 C   0  0  0  0  0  0
  -25.9574  -30.7908   21.3956 C   0  0  0  0  0  0
  -26.0285  -29.4134   20.7353 C   0  0  0  0  0  0
  -27.1652  -28.5468   20.8163 C   0  0  0  0  0  0
  -25.9985  -26.9357   19.4393 C   0  0  0  0  0  0
  -24.8617  -27.7555   19.4072 C   0  0  0  0  0  0
  -23.6348  -29.8604   20.1409 C   0  0  0  0  0  0
  -25.4165  -36.3081   24.0321 C   0  0  1  0  0  0
  -20.5869  -28.3728   23.1203 C   0  0  2  0  0  0
  -20.6808  -26.9435   22.5362 C   0  0  0  0  0  0
  -19.5804  -26.6392   21.5174 C   0  0  0  0  0  0
  -18.1962  -26.7944   22.1631 C   0  0  0  0  0  0
  -19.1538  -28.8866   23.2846 C   0  0  0  0  0  0
  -18.9515  -30.1430   23.8894 C   0  0  0  0  0  0
  -17.6545  -30.6575   24.0551 C   0  0  0  0  0  0
  -25.9094  -34.9457   23.5114 C   0  0  0  0  0  0
  -16.5408  -29.9043   23.6322 C   0  0  0  0  0  0
  -16.7310  -28.6447   23.0346 C   0  0  0  0  0  0
  -26.4527  -31.6525   25.0687 C   0  0  0  0  0  0
  -25.3758  -31.3676   26.1403 C   0  0  0  0  0  0
  -27.0361  -30.2910   24.6186 C   0  0  0  0  0  0
  -27.6129  -32.4206   25.7457 C   0  0  0  0  0  0
  -27.5598  -37.1809   24.8478 C   0  0  0  0  0  0
  -21.4152  -29.3115   22.3549 N   0  0  0  0  0  0
  -26.4344  -37.3748   23.9379 N   0  0  0  0  0  0
  -24.6792  -31.0720   22.0996 N   0  0  0  0  0  0
  -23.4177  -28.8257   23.2836 O   0  0  0  0  0  0
  -27.9097  -26.1220   20.6113 O   0  0  0  0  0  0
  -26.5620  -34.8904   22.4655 O   0  0  0  0  0  0
  -23.5431  -32.1397   23.7438 O   0  0  0  0  0  0
  -24.6936  -20.6257   23.0537 C   0  0  0  0  0  0
  -26.0410  -20.9583   22.6147 C   0  0  0  0  0  0
  -24.3830  -19.4532   23.8085 C   0  0  0  0  0  0
  -26.9832  -19.8422   22.7410 C   0  0  0  0  0  0
  -25.5030  -18.6287   24.1169 C   0  0  0  0  0  0
  -25.4993  -17.5397   25.1665 C   0  0  0  0  0  0
  -21.7735  -19.6174   23.4219 C   0  0  0  0  0  0
  -22.5920  -19.0567   25.6869 C   0  0  0  0  0  0
  -28.3068  -23.5601   23.0351 C   0  0  0  0  0  0
  -31.1318  -17.0149   20.1597 C   0  0  0  0  0  0
  -26.1711  -22.4654   22.0128 C   0  0  0  0  0  0
  -28.4434  -19.6673   22.2362 C   0  0  0  0  0  0
  -29.0252  -18.4272   21.3802 C   0  0  0  0  0  0
  -29.0086  -16.7747   21.4886 C   0  0  0  0  0  0
  -27.0783  -24.9697   21.2408 C   0  0  0  0  0  0
  -22.9345  -18.9728   24.1902 C   0  0  0  0  0  0
  -27.4558  -23.4534   21.7559 C   0  0  1  0  0  0
  -26.7199  -18.8081   23.5645 N   0  0  0  0  0  0
  -30.1439  -16.0303   20.7074 N   0  0  0  0  0  0
  -31.4524  -12.6337   19.2723 H   0  0  0  0  0  0
  -30.3509  -11.5267   20.0784 H   0  0  0  0  0  0
  -29.8256  -11.7379   17.6067 H   0  0  0  0  0  0
  -29.6320  -13.4747   17.7563 H   0  0  0  0  0  0
  -27.8991  -11.2736   18.8868 H   0  0  0  0  0  0
  -27.4246  -12.5414   17.7787 H   0  0  0  0  0  0
  -27.5998  -14.2605   19.4174 H   0  0  0  0  0  0
  -28.6870  -12.2457   21.4241 H   0  0  0  0  0  0
  -28.2814  -13.8915   21.8064 H   0  0  0  0  0  0
  -25.3032   -9.4986   22.4678 H   0  0  0  0  0  0
  -24.0393   -7.3773   22.6709 H   0  0  0  0  0  0
  -21.1340   -8.8461   19.8341 H   0  0  0  0  0  0
  -22.4203  -10.9601   19.6174 H   0  0  0  0  0  0
  -21.1709   -7.5838   24.0066 H   0  0  0  0  0  0
  -21.2093   -6.0205   25.9418 H   0  0  0  0  0  0
  -22.0289   -2.7387   23.2998 H   0  0  0  0  0  0
  -21.9145  -11.7756   21.9442 H   0  0  0  0  0  0
  -21.0216  -13.2579   22.0569 H   0  0  0  0  0  0
  -24.7376  -15.8058   20.8167 H   0  0  0  0  0  0
  -26.3467  -15.5640   20.2833 H   0  0  0  0  0  0
  -26.7164  -32.5428   23.1098 H   0  0  0  0  0  0
  -25.0159  -33.9695   25.0466 H   0  0  0  0  0  0
  -22.7054  -31.3259   21.4019 H   0  0  0  0  0  0
  -23.3809  -35.9594   23.3304 H   0  0  0  0  0  0
  -24.3651  -36.8889   22.2046 H   0  0  0  0  0  0
  -23.7280  -37.6477   23.6654 H   0  0  0  0  0  0
  -26.1120  -31.5705   20.6479 H   0  0  0  0  0  0
  -26.8350  -30.8224   22.0353 H   0  0  0  0  0  0
  -28.0202  -28.8323   21.4149 H   0  0  0  0  0  0
  -25.9539  -25.9900   18.9125 H   0  0  0  0  0  0
  -23.9896  -27.4252   18.8629 H   0  0  0  0  0  0
  -23.7442  -30.6496   19.3941 H   0  0  0  0  0  0
  -22.7524  -29.2963   19.8268 H   0  0  0  0  0  0
  -25.1359  -36.1934   25.0799 H   0  0  0  0  0  0
  -21.0042  -28.3379   24.1323 H   0  0  0  0  0  0
  -20.5664  -26.2384   23.3573 H   0  0  0  0  0  0
  -21.6665  -26.7446   22.1197 H   0  0  0  0  0  0
  -19.6954  -25.6278   21.1201 H   0  0  0  0  0  0
  -19.6684  -27.3182   20.6657 H   0  0  0  0  0  0
  -17.4205  -26.6610   21.4030 H   0  0  0  0  0  0
  -18.0449  -26.0010   22.8994 H   0  0  0  0  0  0
  -19.7952  -30.7201   24.2295 H   0  0  0  0  0  0
  -17.5075  -31.6280   24.5155 H   0  0  0  0  0  0
  -15.5365  -30.3017   23.7623 H   0  0  0  0  0  0
  -15.8709  -28.0778   22.7136 H   0  0  0  0  0  0
  -24.5953  -30.7019   25.7711 H   0  0  0  0  0  0
  -24.8926  -32.2830   26.4778 H   0  0  0  0  0  0
  -25.8047  -30.8846   27.0183 H   0  0  0  0  0  0
  -26.2984  -29.6695   24.1083 H   0  0  0  0  0  0
  -27.3888  -29.7105   25.4727 H   0  0  0  0  0  0
  -27.8921  -30.4122   23.9555 H   0  0  0  0  0  0
  -27.2816  -33.3536   26.2001 H   0  0  0  0  0  0
  -28.3965  -32.6669   25.0298 H   0  0  0  0  0  0
  -28.0747  -31.8297   26.5360 H   0  0  0  0  0  0
  -28.2654  -38.0060   24.7491 H   0  0  0  0  0  0
  -28.1065  -36.2606   24.6405 H   0  0  0  0  0  0
  -27.2298  -37.1565   25.8869 H   0  0  0  0  0  0
  -20.9286  -29.8877   21.6815 H   0  0  0  0  0  0
  -26.0248  -38.2843   24.1293 H   0  0  0  0  0  0
  -23.9063  -21.3209   22.8298 H   0  0  0  0  0  0
  -25.3328  -17.9222   26.1657 H   0  0  0  0  0  0
  -26.4773  -17.0486   25.2244 H   0  0  0  0  0  0
  -24.7550  -16.7598   24.9941 H   0  0  0  0  0  0
  -21.8915  -19.5141   22.3378 H   0  0  0  0  0  0
  -21.6498  -20.6652   23.7057 H   0  0  0  0  0  0
  -20.8271  -19.1300   23.6984 H   0  0  0  0  0  0
  -23.3240  -18.5812   26.3251 H   0  0  0  0  0  0
  -21.6210  -18.6405   25.9696 H   0  0  0  0  0  0
  -22.5250  -20.0929   26.0011 H   0  0  0  0  0  0
  -28.7813  -22.6169   23.3095 H   0  0  0  0  0  0
  -27.7057  -23.8923   23.8866 H   0  0  0  0  0  0
  -29.1030  -24.3000   22.8984 H   0  0  0  0  0  0
  -30.7158  -17.8716   19.6319 H   0  0  0  0  0  0
  -31.8367  -16.6315   19.4297 H   0  0  0  0  0  0
  -31.7212  -17.4034   20.9809 H   0  0  0  0  0  0
  -25.6056  -23.0259   22.7441 H   0  0  0  0  0  0
  -25.5572  -22.5160   21.1150 H   0  0  0  0  0  0
  -29.0737  -19.7759   23.1246 H   0  0  0  0  0  0
  -28.6893  -20.5599   21.6471 H   0  0  0  0  0  0
  -30.0442  -18.6776   21.6604 H   0  0  0  0  0  0
  -28.8527  -18.7608   20.3504 H   0  0  0  0  0  0
  -28.0656  -16.4191   21.0561 H   0  0  0  0  0  0
  -29.0066  -16.4567   22.5613 H   0  0  0  0  0  0
  -26.5652  -25.4567   22.0723 H   0  0  0  0  0  0
  -26.2857  -24.7469   20.5293 H   0  0  0  0  0  0
  -22.8564  -17.9312   23.8729 H   0  0  0  0  0  0
  -28.0314  -22.9820   20.9597 H   0  0  0  0  0  0
  1 25  1  0  0  0
  1 30  2  0  0  0
  1 89  1  0  0  0
  2  3  1  0  0  0
  2 25  1  0  0  0
  2 90  1  0  0  0
  2 91  1  0  0  0
  3  4  1  0  0  0
  3 92  1  0  0  0
  3 93  1  0  0  0
  4  5  1  0  0  0
  4 94  1  0  0  0
  4 95  1  0  0  0
  5  6  1  0  0  0
  5 26  1  0  0  0
  5 96  1  0  0  0
  6 25  1  0  0  0
  6 97  1  0  0  0
  6 98  1  0  0  0
  7  8  2  0  0  0
  7 26  1  0  0  0
  7 29  1  0  0  0
  8  9  1  0  0  0
  8 22  1  0  0  0
  9 10  1  0  0  0
  9 27  2  0  0  0
 10 11  2  0  0  0
 10 15  1  0  0  0
 11 12  1  0  0  0
 11 99  1  0  0  0
 12 13  2  0  0  0
 12100  1  0  0  0
 13 14  1  0  0  0
 13 31  1  0  0  0
 14 15  2  0  0  0
 14101  1  0  0  0
 15102  1  0  0  0
 16 17  2  0  0  0
 16 21  1  0  0  0
 16 31  1  0  0  0
 17 18  1  0  0  0
 17103  1  0  0  0
 18 19  2  0  0  0
 18104  1  0  0  0
 19 20  1  0  0  0
 19 24  1  0  0  0
 20 21  2  0  0  0
 20105  1  0  0  0
 21 23  1  0  0  0
 22 28  1  0  0  0
 22 32  2  0  0  0
 26 27  1  0  0  0
 28106  1  0  0  0
 28107  1  0  0  0
 29108  1  0  0  0
 29109  1  0  0  0
 33 34  1  0  0  0
 33 66  1  0  0  0
 33 70  2  0  0  0
 34 36  1  0  0  0
 34 59  1  0  0  0
 34110  1  0  0  0
 35 44  2  0  0  0
 35 45  1  0  0  0
 35 68  1  0  0  0
 36 56  1  0  0  0
 36111  1  0  0  0
 37 39  1  0  0  0
 37 47  1  0  0  0
 37 66  1  0  0  0
 37112  1  0  0  0
 38 43  2  0  0  0
 38 46  1  0  0  0
 38 47  1  0  0  0
 39 64  1  0  0  0
 39 67  2  0  0  0
 40 52  1  0  0  0
 40 53  2  0  0  0
 40 58  1  0  0  0
 41113  1  0  0  0
 41114  1  0  0  0
 41115  1  0  0  0
 41 48  1  0  0  0
 42 43  1  0  0  0
 42 66  1  0  0  0
 42116  1  0  0  0
 42117  1  0  0  0
 43 44  1  0  0  0
 44118  1  0  0  0
 45 46  2  0  0  0
 45119  1  0  0  0
 46120  1  0  0  0
 47121  1  0  0  0
 47122  1  0  0  0
 48 56  1  0  0  0
 48 65  1  0  0  0
 48123  1  0  0  0
 49 50  1  0  0  0
 49 53  1  0  0  0
 49 64  1  0  0  0
 49124  1  0  0  0
 50 51  1  0  0  0
 50125  1  0  0  0
 50126  1  0  0  0
 51 52  1  0  0  0
 51127  1  0  0  0
 51128  1  0  0  0
 52129  1  0  0  0
 52130  1  0  0  0
 53 54  1  0  0  0
 54 55  2  0  0  0
 54131  1  0  0  0
 55 57  1  0  0  0
 55132  1  0  0  0
 56 69  2  0  0  0
 57 58  2  0  0  0
 57133  1  0  0  0
 58134  1  0  0  0
 59 60  1  0  0  0
 59 61  1  0  0  0
 59 62  1  0  0  0
 60135  1  0  0  0
 60136  1  0  0  0
 60137  1  0  0  0
 61138  1  0  0  0
 61139  1  0  0  0
 61140  1  0  0  0
 62141  1  0  0  0
 62142  1  0  0  0
 62143  1  0  0  0
 63 65  1  0  0  0
 63144  1  0  0  0
 63145  1  0  0  0
 63146  1  0  0  0
 64147  1  0  0  0
 65148  1  0  0  0
 68 85  1  0  0  0
 71 72  2  0  0  0
 71 73  1  0  0  0
 71149  1  0  0  0
 72 74  1  0  0  0
 72 81  1  0  0  0
 73 75  2  0  0  0
 73 86  1  0  0  0
 74 82  1  0  0  0
 74 88  2  0  0  0
 75 76  1  0  0  0
 75 88  1  0  0  0
 76150  1  0  0  0
 76151  1  0  0  0
 76152  1  0  0  0
 77153  1  0  0  0
 77154  1  0  0  0
 77155  1  0  0  0
 77 86  1  0  0  0
 78 86  1  0  0  0
 78156  1  0  0  0
 78157  1  0  0  0
 78158  1  0  0  0
 79159  1  0  0  0
 79160  1  0  0  0
 79161  1  0  0  0
 79 87  1  0  0  0
 80 89  1  0  0  0
 80162  1  0  0  0
 80163  1  0  0  0
 80164  1  0  0  0
 81 87  1  0  0  0
 81165  1  0  0  0
 81166  1  0  0  0
 82 83  1  0  0  0
 82167  1  0  0  0
 82168  1  0  0  0
 83 84  1  0  0  0
 83169  1  0  0  0
 83170  1  0  0  0
 84 89  1  0  0  0
 84171  1  0  0  0
 84172  1  0  0  0
 85 87  1  0  0  0
 85173  1  0  0  0
 85174  1  0  0  0
 86175  1  0  0  0
 87176  1  0  0  0
M  ISO  4   1 100  68 101  85 101  89 100
M  END
> <chiral flag>
0

> <version>
0

> <s_m_source_file>
/data/baiqing/PycharmProjects/Reinvent-master-3.2/result/LINK_invent/BTK/process_docking_weight1_custom_sum_contain_oxygen_bond_distance_aromatic_linkinvent_7_9_3/rearranged_h_0078.sdf

> <i_m_source_file_index>
6

> <r_mmod_Potential_Energy-OPLS-2005>
699.077697753906

> <r_mmod_Stretch_Energy-OPLS-2005>
213.264434814453

> <r_mmod_Bend_Energy-OPLS-2005>
415.465667724609

> <r_mmod_Torsional_Energy-OPLS-2005>
339.824981689453

> <r_mmod_Improper_Torsional_Energy-OPLS-2005>
17.9334964752197

> <r_mmod_Van_der_Waal_Energy-OPLS-2005>
178.745574951172

> <r_mmod_Electrostatic_Energy-OPLS-2005>
-461.485443115234

> <r_mmod_Solvation_Energy-OPLS-2005>
-203.948043823242

> <b_mmod_Minimization_Converged-OPLS-2005>
0

> <r_mmod_RMS_Derivative-OPLS-2005>
31.5658149719238

$$$$
6
                    3D
 Structure written by MMmdl.
165173  0  0  1  0            999 V2000
  -30.7208  -14.4364   20.6073 C   0  0  0  0  0  0
  -30.4227  -12.3032   19.4056 C   0  0  0  0  0  0
  -29.4868  -12.5163   18.1973 C   0  0  0  0  0  0
  -28.0089  -12.3777   18.6113 C   0  0  0  0  0  0
  -27.6637  -13.2046   19.8770 C   0  0  2  0  0  0
  -28.7058  -12.9625   20.9920 C   0  0  0  0  0  0
  -25.2603  -13.8174   20.5672 C   0  0  0  0  0  0
  -24.1849  -13.0461   20.9169 C   0  0  0  0  0  0
  -24.6396  -11.6918   20.8750 C   0  0  0  0  0  0
  -23.9067  -10.4303   21.0407 C   0  0  0  0  0  0
  -24.3625   -9.4214   21.9174 C   0  0  0  0  0  0
  -23.6304   -8.2250   22.0745 C   0  0  0  0  0  0
  -22.4280   -8.0296   21.3540 C   0  0  0  0  0  0
  -21.9916   -9.0270   20.4640 C   0  0  0  0  0  0
  -22.7245  -10.2149   20.3052 C   0  0  0  0  0  0
  -21.6856   -6.0745   22.5285 C   0  0  0  0  0  0
  -21.4011   -6.5643   23.8220 C   0  0  0  0  0  0
  -21.3665   -5.6792   24.9176 C   0  0  0  0  0  0
  -21.6044   -4.3057   24.7222 C   0  0  0  0  0  0
  -21.8823   -3.8154   23.4346 C   0  0  0  0  0  0
  -21.9195   -4.6970   22.3401 C   0  0  0  0  0  0
  -22.7868  -13.5246   21.1847 C   0  0  0  0  0  0
  -22.1661   -4.2160   21.0976 F   0  0  0  0  0  0
  -21.5637   -3.4535   25.7734 F   0  0  0  0  0  0
  -30.0397  -13.2716   20.4415 N   0  0  0  0  0  0
  -26.3041  -12.9331   20.3381 N   0  0  0  0  0  0
  -25.9320  -11.6491   20.5780 N   0  0  0  0  0  0
  -22.0531  -12.8236   22.0415 N   0  0  0  0  0  0
  -25.4357  -15.1891   20.4056 N   0  0  0  0  0  0
  -31.8313  -14.6469   20.1130 O   0  0  0  0  0  0
  -21.6642   -6.8894   21.4248 O   0  0  0  0  0  0
  -22.3530  -14.5550   20.6702 O   0  0  0  0  0  0
  -24.6150  -31.8687   23.2098 C   0  0  0  0  0  0
  -25.9039  -32.4825   23.8406 C   0  0  1  0  0  0
  -27.2277  -27.4335   20.0859 C   0  0  0  0  0  0
  -25.5897  -33.8625   24.2335 N   0  0  0  0  0  0
  -23.4036  -30.4932   21.5507 C   0  0  2  0  0  0
  -24.8475  -28.9660   20.1111 C   0  0  0  0  0  0
  -22.7425  -29.4655   22.4972 C   0  0  0  0  0  0
  -18.0270  -28.1379   22.8483 C   0  0  0  0  0  0
  -24.1485  -36.7321   23.2640 C   0  0  0  0  0  0
  -25.9351  -30.8338   21.3650 C   0  0  0  0  0  0
  -26.0103  -29.4698   20.7078 C   0  0  0  0  0  0
  -27.2043  -28.7110   20.6913 C   0  0  0  0  0  0
  -26.0458  -26.9554   19.4695 C   0  0  0  0  0  0
  -24.8599  -27.7078   19.4898 C   0  0  0  0  0  0
  -23.6111  -29.8316   20.1636 C   0  0  0  0  0  0
  -25.4106  -36.3112   24.0340 C   0  0  1  0  0  0
  -20.5869  -28.3667   23.1305 C   0  0  2  0  0  0
  -20.6756  -26.9402   22.5403 C   0  0  0  0  0  0
  -19.5732  -26.6387   21.5201 C   0  0  0  0  0  0
  -18.1916  -26.7920   22.1624 C   0  0  0  0  0  0
  -19.1526  -28.8840   23.2886 C   0  0  0  0  0  0
  -18.9457  -30.1447   23.8903 C   0  0  0  0  0  0
  -17.6459  -30.6579   24.0569 C   0  0  0  0  0  0
  -25.9028  -34.9475   23.5129 C   0  0  0  0  0  0
  -16.5349  -29.9086   23.6329 C   0  0  0  0  0  0
  -16.7266  -28.6510   23.0339 C   0  0  0  0  0  0
  -26.4467  -31.6607   25.0735 C   0  0  0  0  0  0
  -25.3732  -31.3709   26.1486 C   0  0  0  0  0  0
  -27.0305  -30.3048   24.6123 C   0  0  0  0  0  0
  -27.6047  -32.4333   25.7490 C   0  0  0  0  0  0
  -27.5581  -37.1806   24.8470 C   0  0  0  0  0  0
  -21.4153  -29.3037   22.3722 N   0  0  0  0  0  0
  -26.4297  -37.3787   23.9406 N   0  0  0  0  0  0
  -24.6697  -31.0776   22.1006 N   0  0  0  0  0  0
  -23.4194  -28.8194   23.3006 O   0  0  0  0  0  0
  -28.3901  -26.6843   20.1127 O   0  0  0  0  0  0
  -26.5594  -34.8930   22.4693 O   0  0  0  0  0  0
  -23.5337  -32.1467   23.7467 O   0  0  0  0  0  0
  -29.1105  -20.0895   21.0862 C   0  0  0  0  0  0
  -29.5069  -21.1591   21.8453 C   0  0  0  0  0  0
  -30.8469  -20.8283   22.2036 C   0  0  0  0  0  0
  -31.8130  -21.5950   23.0612 C   0  0  0  0  0  0
  -28.8706  -17.5139   19.7026 C   0  0  0  0  0  0
  -31.3236  -17.8110   19.3724 C   0  0  0  0  0  0
  -28.6595  -22.3372   22.2755 C   0  0  0  0  0  0
  -29.2787  -23.7521   22.0780 C   0  0  0  0  0  0
  -29.3746  -24.3669   20.6388 C   0  0  0  0  0  0
  -30.4898  -16.7663   21.5529 C   0  0  0  0  0  0
  -28.2260  -25.2500   20.0385 C   0  0  0  0  0  0
  -30.2004  -17.8223   20.4308 C   0  0  0  0  0  0
  -31.2206  -19.6541   21.7130 N   0  0  0  0  0  0
  -30.1474  -19.1700   21.0416 N   0  0  0  0  0  0
  -30.0552  -15.3888   21.2724 N   0  0  0  0  0  0
  -31.4670  -12.4085   19.1050 H   0  0  0  0  0  0
  -30.3279  -11.2867   19.7904 H   0  0  0  0  0  0
  -29.7213  -11.7983   17.4103 H   0  0  0  0  0  0
  -29.6549  -13.5056   17.7683 H   0  0  0  0  0  0
  -27.8102  -11.3207   18.7901 H   0  0  0  0  0  0
  -27.3580  -12.6720   17.7871 H   0  0  0  0  0  0
  -27.7146  -14.2556   19.5928 H   0  0  0  0  0  0
  -28.6783  -11.9186   21.3072 H   0  0  0  0  0  0
  -28.4606  -13.5383   21.8861 H   0  0  0  0  0  0
  -25.2785   -9.5689   22.4721 H   0  0  0  0  0  0
  -24.0034   -7.4635   22.7443 H   0  0  0  0  0  0
  -21.0859   -8.8783   19.8933 H   0  0  0  0  0  0
  -22.3716  -10.9682   19.6152 H   0  0  0  0  0  0
  -21.1992   -7.6146   23.9728 H   0  0  0  0  0  0
  -21.1484   -6.0510   25.9077 H   0  0  0  0  0  0
  -22.0597   -2.7619   23.2834 H   0  0  0  0  0  0
  -22.4154  -11.9892   22.4793 H   0  0  0  0  0  0
  -21.1145  -13.1235   22.2637 H   0  0  0  0  0  0
  -24.6776  -15.8527   20.5158 H   0  0  0  0  0  0
  -26.2931  -15.6206   20.0868 H   0  0  0  0  0  0
  -26.7120  -32.5536   23.1178 H   0  0  0  0  0  0
  -25.0044  -33.9807   25.0480 H   0  0  0  0  0  0
  -22.6909  -31.3083   21.4095 H   0  0  0  0  0  0
  -23.3737  -35.9660   23.3320 H   0  0  0  0  0  0
  -24.3578  -36.8923   22.2049 H   0  0  0  0  0  0
  -23.7252  -37.6539   23.6646 H   0  0  0  0  0  0
  -26.0484  -31.6019   20.5978 H   0  0  0  0  0  0
  -26.8228  -30.8834   21.9846 H   0  0  0  0  0  0
  -28.1034  -29.0913   21.1566 H   0  0  0  0  0  0
  -26.0184  -26.0007   18.9633 H   0  0  0  0  0  0
  -23.9689  -27.3169   19.0181 H   0  0  0  0  0  0
  -23.7204  -30.6092   19.4056 H   0  0  0  0  0  0
  -22.7347  -29.2515   19.8675 H   0  0  0  0  0  0
  -25.1265  -36.1980   25.0830 H   0  0  0  0  0  0
  -20.9958  -28.3235   24.1423 H   0  0  0  0  0  0
  -20.5648  -26.2281   23.3594 H   0  0  0  0  0  0
  -21.6628  -26.7425   22.1201 H   0  0  0  0  0  0
  -19.6893  -25.6299   21.1232 H   0  0  0  0  0  0
  -19.6671  -27.3201   20.6734 H   0  0  0  0  0  0
  -17.4174  -26.6671   21.4036 H   0  0  0  0  0  0
  -18.0317  -26.0061   22.9026 H   0  0  0  0  0  0
  -19.7938  -30.7250   24.2279 H   0  0  0  0  0  0
  -17.5018  -31.6256   24.5167 H   0  0  0  0  0  0
  -15.5351  -30.2986   23.7636 H   0  0  0  0  0  0
  -15.8671  -28.0829   22.7033 H   0  0  0  0  0  0
  -24.5901  -30.7060   25.7825 H   0  0  0  0  0  0
  -24.8930  -32.2862   26.4952 H   0  0  0  0  0  0
  -25.8082  -30.8871   27.0241 H   0  0  0  0  0  0
  -26.2862  -29.6796   24.1178 H   0  0  0  0  0  0
  -27.4078  -29.7281   25.4580 H   0  0  0  0  0  0
  -27.8690  -30.4361   23.9277 H   0  0  0  0  0  0
  -27.2671  -33.3623   26.2099 H   0  0  0  0  0  0
  -28.3834  -32.6922   25.0300 H   0  0  0  0  0  0
  -28.0754  -31.8453   26.5383 H   0  0  0  0  0  0
  -28.2589  -38.0105   24.7489 H   0  0  0  0  0  0
  -28.1074  -36.2627   24.6307 H   0  0  0  0  0  0
  -27.2298  -37.1483   25.8874 H   0  0  0  0  0  0
  -20.9303  -29.8801   21.6989 H   0  0  0  0  0  0
  -26.0189  -38.2865   24.1397 H   0  0  0  0  0  0
  -28.1562  -19.9000   20.6161 H   0  0  0  0  0  0
  -32.4858  -20.9303   23.6036 H   0  0  0  0  0  0
  -31.2958  -22.1979   23.8071 H   0  0  0  0  0  0
  -32.4267  -22.2623   22.4566 H   0  0  0  0  0  0
  -28.8863  -16.5391   19.2137 H   0  0  0  0  0  0
  -28.6731  -18.2500   18.9212 H   0  0  0  0  0  0
  -28.0254  -17.5189   20.3905 H   0  0  0  0  0  0
  -31.3665  -16.8660   18.8336 H   0  0  0  0  0  0
  -32.3017  -17.9730   19.8250 H   0  0  0  0  0  0
  -31.1755  -18.5993   18.6325 H   0  0  0  0  0  0
  -28.4371  -22.2294   23.3386 H   0  0  0  0  0  0
  -27.6762  -22.2965   21.8040 H   0  0  0  0  0  0
  -28.6589  -24.4063   22.7006 H   0  0  0  0  0  0
  -30.2611  -23.7874   22.5461 H   0  0  0  0  0  0
  -29.5481  -25.2775   21.2074 H   0  0  0  0  0  0
  -28.6544  -23.6077   20.3439 H   0  0  0  0  0  0
  -29.9606  -17.0589   22.4613 H   0  0  0  0  0  0
  -31.5473  -16.7732   21.8219 H   0  0  0  0  0  0
  -27.2942  -24.9895   20.5536 H   0  0  0  0  0  0
  -28.0857  -24.9998   18.9831 H   0  0  0  0  0  0
  -29.1466  -15.1278   21.6245 H   0  0  0  0  0  0
  1 25  1  0  0  0
  1 30  2  0  0  0
  1 85  1  0  0  0
  2  3  1  0  0  0
  2 25  1  0  0  0
  2 86  1  0  0  0
  2 87  1  0  0  0
  3  4  1  0  0  0
  3 88  1  0  0  0
  3 89  1  0  0  0
  4  5  1  0  0  0
  4 90  1  0  0  0
  4 91  1  0  0  0
  5  6  1  0  0  0
  5 26  1  0  0  0
  5 92  1  0  0  0
  6 25  1  0  0  0
  6 93  1  0  0  0
  6 94  1  0  0  0
  7  8  2  0  0  0
  7 26  1  0  0  0
  7 29  1  0  0  0
  8  9  1  0  0  0
  8 22  1  0  0  0
  9 10  1  0  0  0
  9 27  2  0  0  0
 10 11  2  0  0  0
 10 15  1  0  0  0
 11 12  1  0  0  0
 11 95  1  0  0  0
 12 13  2  0  0  0
 12 96  1  0  0  0
 13 14  1  0  0  0
 13 31  1  0  0  0
 14 15  2  0  0  0
 14 97  1  0  0  0
 15 98  1  0  0  0
 16 17  2  0  0  0
 16 21  1  0  0  0
 16 31  1  0  0  0
 17 18  1  0  0  0
 17 99  1  0  0  0
 18 19  2  0  0  0
 18100  1  0  0  0
 19 20  1  0  0  0
 19 24  1  0  0  0
 20 21  2  0  0  0
 20101  1  0  0  0
 21 23  1  0  0  0
 22 28  1  0  0  0
 22 32  2  0  0  0
 26 27  1  0  0  0
 28102  1  0  0  0
 28103  1  0  0  0
 29104  1  0  0  0
 29105  1  0  0  0
 33 34  1  0  0  0
 33 66  1  0  0  0
 33 70  2  0  0  0
 34 36  1  0  0  0
 34 59  1  0  0  0
 34106  1  0  0  0
 35 44  2  0  0  0
 35 45  1  0  0  0
 35 68  1  0  0  0
 36 56  1  0  0  0
 36107  1  0  0  0
 37 39  1  0  0  0
 37 47  1  0  0  0
 37 66  1  0  0  0
 37108  1  0  0  0
 38 43  2  0  0  0
 38 46  1  0  0  0
 38 47  1  0  0  0
 39 64  1  0  0  0
 39 67  2  0  0  0
 40 52  1  0  0  0
 40 53  2  0  0  0
 40 58  1  0  0  0
 41109  1  0  0  0
 41110  1  0  0  0
 41111  1  0  0  0
 41 48  1  0  0  0
 42 43  1  0  0  0
 42 66  1  0  0  0
 42112  1  0  0  0
 42113  1  0  0  0
 43 44  1  0  0  0
 44114  1  0  0  0
 45 46  2  0  0  0
 45115  1  0  0  0
 46116  1  0  0  0
 47117  1  0  0  0
 47118  1  0  0  0
 48 56  1  0  0  0
 48 65  1  0  0  0
 48119  1  0  0  0
 49 50  1  0  0  0
 49 53  1  0  0  0
 49 64  1  0  0  0
 49120  1  0  0  0
 50 51  1  0  0  0
 50121  1  0  0  0
 50122  1  0  0  0
 51 52  1  0  0  0
 51123  1  0  0  0
 51124  1  0  0  0
 52125  1  0  0  0
 52126  1  0  0  0
 53 54  1  0  0  0
 54 55  2  0  0  0
 54127  1  0  0  0
 55 57  1  0  0  0
 55128  1  0  0  0
 56 69  2  0  0  0
 57 58  2  0  0  0
 57129  1  0  0  0
 58130  1  0  0  0
 59 60  1  0  0  0
 59 61  1  0  0  0
 59 62  1  0  0  0
 60131  1  0  0  0
 60132  1  0  0  0
 60133  1  0  0  0
 61134  1  0  0  0
 61135  1  0  0  0
 61136  1  0  0  0
 62137  1  0  0  0
 62138  1  0  0  0
 62139  1  0  0  0
 63 65  1  0  0  0
 63140  1  0  0  0
 63141  1  0  0  0
 63142  1  0  0  0
 64143  1  0  0  0
 65144  1  0  0  0
 68 81  1  0  0  0
 71 72  2  0  0  0
 71 84  1  0  0  0
 71145  1  0  0  0
 72 73  1  0  0  0
 72 77  1  0  0  0
 73 74  1  0  0  0
 73 83  2  0  0  0
 74146  1  0  0  0
 74147  1  0  0  0
 74148  1  0  0  0
 75149  1  0  0  0
 75150  1  0  0  0
 75151  1  0  0  0
 75 82  1  0  0  0
 76 82  1  0  0  0
 76152  1  0  0  0
 76153  1  0  0  0
 76154  1  0  0  0
 77 78  1  0  0  0
 77155  1  0  0  0
 77156  1  0  0  0
 78 79  1  0  0  0
 78157  1  0  0  0
 78158  1  0  0  0
 79 81  1  0  0  0
 79159  1  0  0  0
 79160  1  0  0  0
 80 82  1  0  0  0
 80 85  1  0  0  0
 80161  1  0  0  0
 80162  1  0  0  0
 81163  1  0  0  0
 81164  1  0  0  0
 82 84  1  0  0  0
 83 84  1  0  0  0
 85165  1  0  0  0
M  ISO  4   1 100  68 101  81 101  85 100
M  END
> <chiral flag>
0

> <version>
0

> <s_m_source_file>
/data/baiqing/PycharmProjects/Reinvent-master-3.2/result/LINK_invent/BTK/process_docking_weight1_custom_sum_contain_oxygen_bond_distance_aromatic_linkinvent_7_9_3/rearranged_h_0078.sdf

> <i_m_source_file_index>
7

> <r_mmod_Potential_Energy-OPLS-2005>
136.073654174805

> <r_mmod_Stretch_Energy-OPLS-2005>
41.4446907043457

> <r_mmod_Bend_Energy-OPLS-2005>
335.682647705078

> <r_mmod_Torsional_Energy-OPLS-2005>
254.986862182617

> <r_mmod_Improper_Torsional_Energy-OPLS-2005>
2.7375967502594

> <r_mmod_Van_der_Waal_Energy-OPLS-2005>
158.063735961914

> <r_mmod_Electrostatic_Energy-OPLS-2005>
-452.021759033203

> <r_mmod_Solvation_Energy-OPLS-2005>
-216.315292358398

> <b_mmod_Minimization_Converged-OPLS-2005>
0

> <r_mmod_RMS_Derivative-OPLS-2005>
2.23369932174683

$$$$
7
                    3D
 Structure written by MMmdl.
149157  0  0  1  0            999 V2000
  -30.5151  -14.9335   20.4453 C   0  0  0  0  0  0
  -30.4463  -12.5682   19.5124 C   0  0  0  0  0  0
  -29.5281  -12.5394   18.2663 C   0  0  0  0  0  0
  -28.0587  -12.3215   18.6761 C   0  0  0  0  0  0
  -27.6344  -13.2445   19.8456 C   0  0  2  0  0  0
  -28.6724  -13.2504   20.9875 C   0  0  0  0  0  0
  -25.2489  -13.8221   20.5729 C   0  0  0  0  0  0
  -24.1796  -13.0447   20.9235 C   0  0  0  0  0  0
  -24.6392  -11.6928   20.8754 C   0  0  0  0  0  0
  -23.9066  -10.4299   21.0415 C   0  0  0  0  0  0
  -24.3631   -9.4202   21.9180 C   0  0  0  0  0  0
  -23.6309   -8.2232   22.0743 C   0  0  0  0  0  0
  -22.4284   -8.0280   21.3537 C   0  0  0  0  0  0
  -21.9927   -9.0247   20.4622 C   0  0  0  0  0  0
  -22.7255  -10.2128   20.3043 C   0  0  0  0  0  0
  -21.6857   -6.0727   22.5281 C   0  0  0  0  0  0
  -21.4017   -6.5631   23.8217 C   0  0  0  0  0  0
  -21.3661   -5.6787   24.9187 C   0  0  0  0  0  0
  -21.6039   -4.3048   24.7237 C   0  0  0  0  0  0
  -21.8817   -3.8138   23.4359 C   0  0  0  0  0  0
  -21.9200   -4.6954   22.3411 C   0  0  0  0  0  0
  -22.7816  -13.5198   21.1917 C   0  0  0  0  0  0
  -22.1675   -4.2142   21.0991 F   0  0  0  0  0  0
  -21.5638   -3.4523   25.7743 F   0  0  0  0  0  0
  -29.9623  -13.6532   20.4135 N   0  0  0  0  0  0
  -26.2904  -12.9428   20.3261 N   0  0  0  0  0  0
  -25.9330  -11.6561   20.5743 N   0  0  0  0  0  0
  -22.0486  -12.8142   22.0459 N   0  0  0  0  0  0
  -25.4189  -15.1950   20.4174 N   0  0  0  0  0  0
  -31.7041  -15.0175   20.1167 O   0  0  0  0  0  0
  -21.6650   -6.8877   21.4244 O   0  0  0  0  0  0
  -22.3466  -14.5501   20.6787 O   0  0  0  0  0  0
  -24.6447  -31.8447   23.1899 C   0  0  0  0  0  0
  -25.9219  -32.4698   23.8278 C   0  0  1  0  0  0
  -27.2056  -27.1266   20.1611 C   0  0  0  0  0  0
  -25.5960  -33.8503   24.2200 N   0  0  0  0  0  0
  -23.4471  -30.4668   21.5360 C   0  0  2  0  0  0
  -24.8927  -28.8930   20.1125 C   0  0  0  0  0  0
  -22.7569  -29.4561   22.4861 C   0  0  0  0  0  0
  -18.0303  -28.1424   22.8462 C   0  0  0  0  0  0
  -24.1487  -36.7253   23.2642 C   0  0  0  0  0  0
  -26.0042  -30.7158   21.3886 C   0  0  0  0  0  0
  -26.0713  -29.3268   20.7309 C   0  0  0  0  0  0
  -27.2299  -28.4614   20.7351 C   0  0  0  0  0  0
  -25.9984  -26.7963   19.5032 C   0  0  0  0  0  0
  -24.8693  -27.6411   19.4821 C   0  0  0  0  0  0
  -23.6724  -29.7995   20.1539 C   0  0  0  0  0  0
  -25.4118  -36.3034   24.0317 C   0  0  1  0  0  0
  -20.5917  -28.3748   23.1222 C   0  0  2  0  0  0
  -20.6783  -26.9445   22.5401 C   0  0  0  0  0  0
  -19.5758  -26.6403   21.5212 C   0  0  0  0  0  0
  -18.1943  -26.7958   22.1622 C   0  0  0  0  0  0
  -19.1560  -28.8900   23.2835 C   0  0  0  0  0  0
  -18.9474  -30.1500   23.8856 C   0  0  0  0  0  0
  -17.6471  -30.6613   24.0567 C   0  0  0  0  0  0
  -25.9070  -34.9408   23.5067 C   0  0  0  0  0  0
  -16.5363  -29.9102   23.6351 C   0  0  0  0  0  0
  -16.7290  -28.6537   23.0340 C   0  0  0  0  0  0
  -26.4532  -31.6557   25.0722 C   0  0  0  0  0  0
  -25.3715  -31.3745   26.1413 C   0  0  0  0  0  0
  -27.0408  -30.2949   24.6322 C   0  0  0  0  0  0
  -27.6068  -32.4316   25.7512 C   0  0  0  0  0  0
  -27.5576  -37.1776   24.8461 C   0  0  0  0  0  0
  -21.4264  -29.3069   22.3594 N   0  0  0  0  0  0
  -26.4285  -37.3747   23.9407 N   0  0  0  0  0  0
  -24.7189  -31.0298   22.0938 N   0  0  0  0  0  0
  -23.4206  -28.8107   23.3015 O   0  0  0  0  0  0
  -28.2548  -26.1353   20.2267 O   0  0  0  0  0  0
  -26.5665  -34.8904   22.4652 O   0  0  0  0  0  0
  -23.5564  -32.1331   23.7114 O   0  0  0  0  0  0
  -31.2917  -18.2072   19.8866 C   0  0  0  0  0  0
  -30.8344  -20.5139   19.8396 C   0  0  0  0  0  0
  -30.0203  -17.8860   20.4165 C   0  0  0  0  0  0
  -29.5261  -20.3444   20.3456 C   0  0  0  0  0  0
  -29.6397  -16.3167   20.7682 C   0  0  0  0  0  0
  -28.5533  -21.6700   20.4988 C   0  0  0  0  0  0
  -29.0043  -23.2941   20.3361 C   0  0  0  0  0  0
  -27.9421  -24.6042   20.2621 C   0  0  0  0  0  0
  -31.6888  -19.4795   19.6125 N   0  0  0  0  0  0
  -29.1452  -18.9985   20.6333 N   0  0  0  0  0  0
  -31.4816  -12.7221   19.2099 H   0  0  0  0  0  0
  -30.4257  -11.6071   20.0287 H   0  0  0  0  0  0
  -29.8429  -11.7573   17.5740 H   0  0  0  0  0  0
  -29.6177  -13.4835   17.7257 H   0  0  0  0  0  0
  -27.9519  -11.2781   18.9754 H   0  0  0  0  0  0
  -27.3979  -12.4638   17.8203 H   0  0  0  0  0  0
  -27.6023  -14.2488   19.4255 H   0  0  0  0  0  0
  -28.7425  -12.2712   21.4623 H   0  0  0  0  0  0
  -28.3707  -13.9446   21.7736 H   0  0  0  0  0  0
  -25.2787   -9.5686   22.4751 H   0  0  0  0  0  0
  -24.0014   -7.4619   22.7458 H   0  0  0  0  0  0
  -21.0870   -8.8771   19.8911 H   0  0  0  0  0  0
  -22.3734  -10.9666   19.6136 H   0  0  0  0  0  0
  -21.2004   -7.6144   23.9709 H   0  0  0  0  0  0
  -21.1491   -6.0531   25.9081 H   0  0  0  0  0  0
  -22.0599   -2.7594   23.2875 H   0  0  0  0  0  0
  -22.4142  -11.9774   22.4755 H   0  0  0  0  0  0
  -21.1102  -13.1114   22.2710 H   0  0  0  0  0  0
  -24.6546  -15.8542   20.5231 H   0  0  0  0  0  0
  -26.2740  -15.6322   20.0978 H   0  0  0  0  0  0
  -26.7288  -32.5297   23.1003 H   0  0  0  0  0  0
  -25.0035  -33.9613   25.0297 H   0  0  0  0  0  0
  -22.7505  -31.2941   21.3843 H   0  0  0  0  0  0
  -23.3760  -35.9571   23.3282 H   0  0  0  0  0  0
  -24.3571  -36.8912   22.2060 H   0  0  0  0  0  0
  -23.7226  -37.6435   23.6695 H   0  0  0  0  0  0
  -26.1596  -31.4685   20.6133 H   0  0  0  0  0  0
  -26.8755  -30.7653   22.0309 H   0  0  0  0  0  0
  -28.1273  -28.7881   21.2412 H   0  0  0  0  0  0
  -25.8848  -25.8442   19.0109 H   0  0  0  0  0  0
  -23.9683  -27.3061   18.9872 H   0  0  0  0  0  0
  -23.8152  -30.5772   19.4027 H   0  0  0  0  0  0
  -22.7842  -29.2480   19.8389 H   0  0  0  0  0  0
  -25.1306  -36.1858   25.0809 H   0  0  0  0  0  0
  -21.0005  -28.3352   24.1345 H   0  0  0  0  0  0
  -20.5682  -26.2367   23.3634 H   0  0  0  0  0  0
  -21.6648  -26.7456   22.1200 H   0  0  0  0  0  0
  -19.6916  -25.6309   21.1255 H   0  0  0  0  0  0
  -19.6692  -27.3202   20.6736 H   0  0  0  0  0  0
  -17.4206  -26.6700   21.4032 H   0  0  0  0  0  0
  -18.0338  -26.0122   22.9045 H   0  0  0  0  0  0
  -19.7951  -30.7333   24.2195 H   0  0  0  0  0  0
  -17.5026  -31.6277   24.5203 H   0  0  0  0  0  0
  -15.5362  -30.2988   23.7707 H   0  0  0  0  0  0
  -15.8694  -28.0862   22.7041 H   0  0  0  0  0  0
  -24.5888  -30.7112   25.7715 H   0  0  0  0  0  0
  -24.8916  -32.2931   26.4797 H   0  0  0  0  0  0
  -25.7985  -30.8925   27.0216 H   0  0  0  0  0  0
  -26.3042  -29.6653   24.1325 H   0  0  0  0  0  0
  -27.3999  -29.7265   25.4909 H   0  0  0  0  0  0
  -27.8951  -30.4169   23.9665 H   0  0  0  0  0  0
  -27.2664  -33.3622   26.2052 H   0  0  0  0  0  0
  -28.3897  -32.6856   25.0361 H   0  0  0  0  0  0
  -28.0714  -31.8465   26.5452 H   0  0  0  0  0  0
  -28.2574  -38.0092   24.7533 H   0  0  0  0  0  0
  -28.1094  -36.2623   24.6261 H   0  0  0  0  0  0
  -27.2298  -37.1392   25.8866 H   0  0  0  0  0  0
  -20.9486  -29.8767   21.6751 H   0  0  0  0  0  0
  -26.0151  -38.2810   24.1432 H   0  0  0  0  0  0
  -32.0218  -17.4438   19.6711 H   0  0  0  0  0  0
  -31.2041  -21.4994   19.5935 H   0  0  0  0  0  0
  -28.6649  -16.1567   20.3132 H   0  0  0  0  0  0
  -29.4558  -16.2968   21.8411 H   0  0  0  0  0  0
  -28.0682  -21.5687   21.4700 H   0  0  0  0  0  0
  -27.7546  -21.5057   19.7770 H   0  0  0  0  0  0
  -29.6023  -23.3588   19.4282 H   0  0  0  0  0  0
  -29.7066  -23.5029   21.1435 H   0  0  0  0  0  0
  -27.2582  -24.4797   21.1038 H   0  0  0  0  0  0
  -27.3398  -24.3865   19.3814 H   0  0  0  0  0  0
  1 25  1  0  0  0
  1 30  2  0  0  0
  1 75  1  0  0  0
  2  3  1  0  0  0
  2 25  1  0  0  0
  2 81  1  0  0  0
  2 82  1  0  0  0
  3  4  1  0  0  0
  3 83  1  0  0  0
  3 84  1  0  0  0
  4  5  1  0  0  0
  4 85  1  0  0  0
  4 86  1  0  0  0
  5  6  1  0  0  0
  5 26  1  0  0  0
  5 87  1  0  0  0
  6 25  1  0  0  0
  6 88  1  0  0  0
  6 89  1  0  0  0
  7  8  2  0  0  0
  7 26  1  0  0  0
  7 29  1  0  0  0
  8  9  1  0  0  0
  8 22  1  0  0  0
  9 10  1  0  0  0
  9 27  2  0  0  0
 10 11  2  0  0  0
 10 15  1  0  0  0
 11 12  1  0  0  0
 11 90  1  0  0  0
 12 13  2  0  0  0
 12 91  1  0  0  0
 13 14  1  0  0  0
 13 31  1  0  0  0
 14 15  2  0  0  0
 14 92  1  0  0  0
 15 93  1  0  0  0
 16 17  2  0  0  0
 16 21  1  0  0  0
 16 31  1  0  0  0
 17 18  1  0  0  0
 17 94  1  0  0  0
 18 19  2  0  0  0
 18 95  1  0  0  0
 19 20  1  0  0  0
 19 24  1  0  0  0
 20 21  2  0  0  0
 20 96  1  0  0  0
 21 23  1  0  0  0
 22 28  1  0  0  0
 22 32  2  0  0  0
 26 27  1  0  0  0
 28 97  1  0  0  0
 28 98  1  0  0  0
 29 99  1  0  0  0
 29100  1  0  0  0
 33 34  1  0  0  0
 33 66  1  0  0  0
 33 70  2  0  0  0
 34 36  1  0  0  0
 34 59  1  0  0  0
 34101  1  0  0  0
 35 44  2  0  0  0
 35 45  1  0  0  0
 35 68  1  0  0  0
 36 56  1  0  0  0
 36102  1  0  0  0
 37 39  1  0  0  0
 37 47  1  0  0  0
 37 66  1  0  0  0
 37103  1  0  0  0
 38 43  2  0  0  0
 38 46  1  0  0  0
 38 47  1  0  0  0
 39 64  1  0  0  0
 39 67  2  0  0  0
 40 52  1  0  0  0
 40 53  2  0  0  0
 40 58  1  0  0  0
 41104  1  0  0  0
 41105  1  0  0  0
 41106  1  0  0  0
 41 48  1  0  0  0
 42 43  1  0  0  0
 42 66  1  0  0  0
 42107  1  0  0  0
 42108  1  0  0  0
 43 44  1  0  0  0
 44109  1  0  0  0
 45 46  2  0  0  0
 45110  1  0  0  0
 46111  1  0  0  0
 47112  1  0  0  0
 47113  1  0  0  0
 48 56  1  0  0  0
 48 65  1  0  0  0
 48114  1  0  0  0
 49 50  1  0  0  0
 49 53  1  0  0  0
 49 64  1  0  0  0
 49115  1  0  0  0
 50 51  1  0  0  0
 50116  1  0  0  0
 50117  1  0  0  0
 51 52  1  0  0  0
 51118  1  0  0  0
 51119  1  0  0  0
 52120  1  0  0  0
 52121  1  0  0  0
 53 54  1  0  0  0
 54 55  2  0  0  0
 54122  1  0  0  0
 55 57  1  0  0  0
 55123  1  0  0  0
 56 69  2  0  0  0
 57 58  2  0  0  0
 57124  1  0  0  0
 58125  1  0  0  0
 59 60  1  0  0  0
 59 61  1  0  0  0
 59 62  1  0  0  0
 60126  1  0  0  0
 60127  1  0  0  0
 60128  1  0  0  0
 61129  1  0  0  0
 61130  1  0  0  0
 61131  1  0  0  0
 62132  1  0  0  0
 62133  1  0  0  0
 62134  1  0  0  0
 63 65  1  0  0  0
 63135  1  0  0  0
 63136  1  0  0  0
 63137  1  0  0  0
 64138  1  0  0  0
 65139  1  0  0  0
 68 78  1  0  0  0
 71 73  2  0  0  0
 71 79  1  0  0  0
 71140  1  0  0  0
 72 74  1  0  0  0
 72 79  2  0  0  0
 72141  1  0  0  0
 73 75  1  0  0  0
 73 80  1  0  0  0
 74 76  1  0  0  0
 74 80  2  0  0  0
 75142  1  0  0  0
 75143  1  0  0  0
 76 77  1  0  0  0
 76144  1  0  0  0
 76145  1  0  0  0
 77 78  1  0  0  0
 77146  1  0  0  0
 77147  1  0  0  0
 78148  1  0  0  0
 78149  1  0  0  0
M  ISO  4   1 100  68 101  75 100  78 101
M  END
> <chiral flag>
0

> <version>
0

> <s_m_source_file>
/data/baiqing/PycharmProjects/Reinvent-master-3.2/result/LINK_invent/BTK/process_docking_weight1_custom_sum_contain_oxygen_bond_distance_aromatic_linkinvent_7_9_3/rearranged_h_0078.sdf

> <i_m_source_file_index>
8

> <r_mmod_Potential_Energy-OPLS-2005>
542.545837402344

> <r_mmod_Stretch_Energy-OPLS-2005>
270.692962646484

> <r_mmod_Bend_Energy-OPLS-2005>
249.983963012695

> <r_mmod_Torsional_Energy-OPLS-2005>
178.23274230957

> <r_mmod_Improper_Torsional_Energy-OPLS-2005>
2.71940994262695

> <r_mmod_Van_der_Waal_Energy-OPLS-2005>
132.042495727539

> <r_mmod_Electrostatic_Energy-OPLS-2005>
-262.798645019531

> <r_mmod_Solvation_Energy-OPLS-2005>
-217.376327514648

> <b_mmod_Minimization_Converged-OPLS-2005>
0

> <r_mmod_RMS_Derivative-OPLS-2005>
2.4098653793335

$$$$
8
                    3D
 Structure written by MMmdl.
157165  0  0  1  0            999 V2000
  -30.6179  -14.7182   20.4377 C   0  0  0  0  0  0
  -30.4241  -12.4344   19.4737 C   0  0  0  0  0  0
  -29.5077  -12.5083   18.2336 C   0  0  0  0  0  0
  -28.0333  -12.3357   18.6437 C   0  0  0  0  0  0
  -27.6408  -13.2325   19.8488 C   0  0  2  0  0  0
  -28.6828  -13.1649   20.9873 C   0  0  0  0  0  0
  -25.2506  -13.8201   20.5678 C   0  0  0  0  0  0
  -24.1799  -13.0438   20.9186 C   0  0  0  0  0  0
  -24.6396  -11.6921   20.8723 C   0  0  0  0  0  0
  -23.9075  -10.4291   21.0380 C   0  0  0  0  0  0
  -24.3628   -9.4204   21.9153 C   0  0  0  0  0  0
  -23.6303   -8.2241   22.0734 C   0  0  0  0  0  0
  -22.4283   -8.0278   21.3533 C   0  0  0  0  0  0
  -21.9918   -9.0247   20.4633 C   0  0  0  0  0  0
  -22.7249  -10.2126   20.3035 C   0  0  0  0  0  0
  -21.6860   -6.0732   22.5270 C   0  0  0  0  0  0
  -21.4021   -6.5632   23.8204 C   0  0  0  0  0  0
  -21.3665   -5.6784   24.9162 C   0  0  0  0  0  0
  -21.6044   -4.3047   24.7217 C   0  0  0  0  0  0
  -21.8822   -3.8142   23.4337 C   0  0  0  0  0  0
  -21.9198   -4.6958   22.3394 C   0  0  0  0  0  0
  -22.7820  -13.5208   21.1848 C   0  0  0  0  0  0
  -22.1661   -4.2139   21.0970 F   0  0  0  0  0  0
  -21.5635   -3.4536   25.7730 F   0  0  0  0  0  0
  -29.9880  -13.4973   20.4077 N   0  0  0  0  0  0
  -26.2929  -12.9411   20.3265 N   0  0  0  0  0  0
  -25.9325  -11.6551   20.5729 N   0  0  0  0  0  0
  -22.0490  -12.8199   22.0423 N   0  0  0  0  0  0
  -25.4191  -15.1929   20.4110 N   0  0  0  0  0  0
  -31.8104  -14.8004   20.1333 O   0  0  0  0  0  0
  -21.6647   -6.8876   21.4233 O   0  0  0  0  0  0
  -22.3489  -14.5504   20.6686 O   0  0  0  0  0  0
  -24.6282  -31.8576   23.1965 C   0  0  0  0  0  0
  -25.9118  -32.4769   23.8302 C   0  0  1  0  0  0
  -27.2224  -27.2892   20.1107 C   0  0  0  0  0  0
  -25.5922  -33.8567   24.2240 N   0  0  0  0  0  0
  -23.4220  -30.4801   21.5409 C   0  0  2  0  0  0
  -24.8660  -28.9297   20.1069 C   0  0  0  0  0  0
  -22.7486  -29.4615   22.4921 C   0  0  0  0  0  0
  -18.0284  -28.1395   22.8498 C   0  0  0  0  0  0
  -24.1483  -36.7292   23.2635 C   0  0  0  0  0  0
  -25.9634  -30.7802   21.3684 C   0  0  0  0  0  0
  -26.0351  -29.4029   20.7138 C   0  0  0  0  0  0
  -27.2118  -28.5930   20.7074 C   0  0  0  0  0  0
  -26.0240  -26.8698   19.4883 C   0  0  0  0  0  0
  -24.8653  -27.6711   19.4859 C   0  0  0  0  0  0
  -23.6361  -29.8148   20.1561 C   0  0  0  0  0  0
  -25.4111  -36.3080   24.0323 C   0  0  1  0  0  0
  -20.5889  -28.3701   23.1278 C   0  0  2  0  0  0
  -20.6780  -26.9422   22.5415 C   0  0  0  0  0  0
  -19.5749  -26.6396   21.5223 C   0  0  0  0  0  0
  -18.1930  -26.7938   22.1636 C   0  0  0  0  0  0
  -19.1539  -28.8865   23.2883 C   0  0  0  0  0  0
  -18.9465  -30.1467   23.8906 C   0  0  0  0  0  0
  -17.6464  -30.6596   24.0577 C   0  0  0  0  0  0
  -25.9058  -34.9454   23.5089 C   0  0  0  0  0  0
  -16.5357  -29.9108   23.6323 C   0  0  0  0  0  0
  -16.7275  -28.6523   23.0353 C   0  0  0  0  0  0
  -26.4488  -31.6579   25.0678 C   0  0  0  0  0  0
  -25.3705  -31.3743   26.1397 C   0  0  0  0  0  0
  -27.0316  -30.3001   24.6125 C   0  0  0  0  0  0
  -27.6048  -32.4308   25.7457 C   0  0  0  0  0  0
  -27.5573  -37.1800   24.8466 C   0  0  0  0  0  0
  -21.4196  -29.3045   22.3671 N   0  0  0  0  0  0
  -26.4285  -37.3783   23.9414 N   0  0  0  0  0  0
  -24.6905  -31.0571   22.0926 N   0  0  0  0  0  0
  -23.4211  -28.8161   23.3006 O   0  0  0  0  0  0
  -28.3577  -26.4568   20.1806 O   0  0  0  0  0  0
  -26.5636  -34.8932   22.4661 O   0  0  0  0  0  0
  -23.5439  -32.1381   23.7280 O   0  0  0  0  0  0
  -29.6571  -19.8514   19.9551 C   0  0  0  0  0  0
  -28.8165  -20.9463   20.3430 C   0  0  0  0  0  0
  -29.4099  -18.5256   20.4506 C   0  0  0  0  0  0
  -27.6513  -19.4211   21.6304 C   0  0  0  0  0  0
  -26.5178  -19.1908   22.6069 C   0  0  0  0  0  0
  -30.1733  -17.1714   18.4448 C   0  0  0  0  0  0
  -28.8341  -22.3801   19.6631 C   0  0  0  0  0  0
  -28.4957  -23.7464   20.4473 C   0  0  0  0  0  0
  -28.4500  -25.0969   19.5707 C   0  0  0  0  0  0
  -30.2121  -17.2388   19.9873 C   0  0  2  0  0  0
  -27.8043  -20.6748   21.1885 N   0  0  0  0  0  0
  -28.3757  -18.3475   21.2945 N   0  0  0  0  0  0
  -29.8492  -15.8620   20.5263 N   0  0  0  0  0  0
  -31.4683  -12.5425   19.1741 H   0  0  0  0  0  0
  -30.3497  -11.4566   19.9501 H   0  0  0  0  0  0
  -29.7871  -11.7424   17.5094 H   0  0  0  0  0  0
  -29.6418  -13.4677   17.7302 H   0  0  0  0  0  0
  -27.8855  -11.2859   18.8994 H   0  0  0  0  0  0
  -27.3797  -12.5346   17.7940 H   0  0  0  0  0  0
  -27.6345  -14.2543   19.4694 H   0  0  0  0  0  0
  -28.7080  -12.1705   21.4346 H   0  0  0  0  0  0
  -28.4230  -13.8604   21.7876 H   0  0  0  0  0  0
  -25.2780   -9.5678   22.4723 H   0  0  0  0  0  0
  -24.0011   -7.4632   22.7455 H   0  0  0  0  0  0
  -21.0849   -8.8769   19.8939 H   0  0  0  0  0  0
  -22.3702  -10.9661   19.6143 H   0  0  0  0  0  0
  -21.2011   -7.6140   23.9707 H   0  0  0  0  0  0
  -21.1487   -6.0510   25.9067 H   0  0  0  0  0  0
  -22.0601   -2.7602   23.2838 H   0  0  0  0  0  0
  -22.4154  -11.9891   22.4833 H   0  0  0  0  0  0
  -21.1090  -13.1174   22.2612 H   0  0  0  0  0  0
  -24.6505  -15.8454   20.5221 H   0  0  0  0  0  0
  -26.2749  -15.6405   20.1101 H   0  0  0  0  0  0
  -26.7181  -32.5439   23.1039 H   0  0  0  0  0  0
  -25.0055  -33.9701   25.0376 H   0  0  0  0  0  0
  -22.7149  -31.2996   21.3974 H   0  0  0  0  0  0
  -23.3747  -35.9624   23.3302 H   0  0  0  0  0  0
  -24.3560  -36.8915   22.2048 H   0  0  0  0  0  0
  -23.7240  -37.6495   23.6656 H   0  0  0  0  0  0
  -26.0898  -31.5398   20.5959 H   0  0  0  0  0  0
  -26.8460  -30.8339   21.9948 H   0  0  0  0  0  0
  -28.1094  -28.9543   21.1900 H   0  0  0  0  0  0
  -25.9346  -25.9050   19.0162 H   0  0  0  0  0  0
  -23.9695  -27.3005   19.0072 H   0  0  0  0  0  0
  -23.7571  -30.5913   19.3988 H   0  0  0  0  0  0
  -22.7542  -29.2470   19.8535 H   0  0  0  0  0  0
  -25.1293  -36.1921   25.0816 H   0  0  0  0  0  0
  -20.9971  -28.3283   24.1401 H   0  0  0  0  0  0
  -20.5691  -26.2311   23.3619 H   0  0  0  0  0  0
  -21.6647  -26.7462   22.1199 H   0  0  0  0  0  0
  -19.6916  -25.6308   21.1252 H   0  0  0  0  0  0
  -19.6685  -27.3211   20.6755 H   0  0  0  0  0  0
  -17.4199  -26.6680   21.4040 H   0  0  0  0  0  0
  -18.0331  -26.0087   22.9036 H   0  0  0  0  0  0
  -19.7945  -30.7277   24.2281 H   0  0  0  0  0  0
  -17.5026  -31.6275   24.5179 H   0  0  0  0  0  0
  -15.5359  -30.3022   23.7637 H   0  0  0  0  0  0
  -15.8674  -28.0848   22.7058 H   0  0  0  0  0  0
  -24.5886  -30.7089   25.7716 H   0  0  0  0  0  0
  -24.8883  -32.2918   26.4775 H   0  0  0  0  0  0
  -25.8001  -30.8946   27.0199 H   0  0  0  0  0  0
  -26.2873  -29.6770   24.1154 H   0  0  0  0  0  0
  -27.4022  -29.7238   25.4610 H   0  0  0  0  0  0
  -27.8743  -30.4285   23.9329 H   0  0  0  0  0  0
  -27.2665  -33.3619   26.2012 H   0  0  0  0  0  0
  -28.3868  -32.6850   25.0290 H   0  0  0  0  0  0
  -28.0702  -31.8444   26.5388 H   0  0  0  0  0  0
  -28.2602  -38.0085   24.7500 H   0  0  0  0  0  0
  -28.1053  -36.2616   24.6302 H   0  0  0  0  0  0
  -27.2283  -37.1461   25.8866 H   0  0  0  0  0  0
  -20.9371  -29.8772   21.6891 H   0  0  0  0  0  0
  -26.0165  -38.2861   24.1410 H   0  0  0  0  0  0
  -30.4481  -20.0169   19.2365 H   0  0  0  0  0  0
  -25.6506  -18.7798   22.0916 H   0  0  0  0  0  0
  -26.2178  -20.1224   23.0884 H   0  0  0  0  0  0
  -26.8177  -18.4928   23.3883 H   0  0  0  0  0  0
  -29.1505  -17.0678   18.0820 H   0  0  0  0  0  0
  -30.7520  -16.3347   18.0560 H   0  0  0  0  0  0
  -30.5881  -18.0734   17.9946 H   0  0  0  0  0  0
  -28.1492  -22.3144   18.8181 H   0  0  0  0  0  0
  -29.8204  -22.4995   19.2148 H   0  0  0  0  0  0
  -29.2269  -23.8704   21.2457 H   0  0  0  0  0  0
  -27.5313  -23.6284   20.9431 H   0  0  0  0  0  0
  -27.7399  -24.9669   18.7580 H   0  0  0  0  0  0
  -29.4040  -25.1276   19.0433 H   0  0  0  0  0  0
  -31.2447  -17.4254   20.2862 H   0  0  0  0  0  0
  -28.8878  -15.7691   20.8172 H   0  0  0  0  0  0
  1 25  1  0  0  0
  1 30  2  0  0  0
  1 83  1  0  0  0
  2  3  1  0  0  0
  2 25  1  0  0  0
  2 84  1  0  0  0
  2 85  1  0  0  0
  3  4  1  0  0  0
  3 86  1  0  0  0
  3 87  1  0  0  0
  4  5  1  0  0  0
  4 88  1  0  0  0
  4 89  1  0  0  0
  5  6  1  0  0  0
  5 26  1  0  0  0
  5 90  1  0  0  0
  6 25  1  0  0  0
  6 91  1  0  0  0
  6 92  1  0  0  0
  7  8  2  0  0  0
  7 26  1  0  0  0
  7 29  1  0  0  0
  8  9  1  0  0  0
  8 22  1  0  0  0
  9 10  1  0  0  0
  9 27  2  0  0  0
 10 11  2  0  0  0
 10 15  1  0  0  0
 11 12  1  0  0  0
 11 93  1  0  0  0
 12 13  2  0  0  0
 12 94  1  0  0  0
 13 14  1  0  0  0
 13 31  1  0  0  0
 14 15  2  0  0  0
 14 95  1  0  0  0
 15 96  1  0  0  0
 16 17  2  0  0  0
 16 21  1  0  0  0
 16 31  1  0  0  0
 17 18  1  0  0  0
 17 97  1  0  0  0
 18 19  2  0  0  0
 18 98  1  0  0  0
 19 20  1  0  0  0
 19 24  1  0  0  0
 20 21  2  0  0  0
 20 99  1  0  0  0
 21 23  1  0  0  0
 22 28  1  0  0  0
 22 32  2  0  0  0
 26 27  1  0  0  0
 28100  1  0  0  0
 28101  1  0  0  0
 29102  1  0  0  0
 29103  1  0  0  0
 33 34  1  0  0  0
 33 66  1  0  0  0
 33 70  2  0  0  0
 34 36  1  0  0  0
 34 59  1  0  0  0
 34104  1  0  0  0
 35 44  2  0  0  0
 35 45  1  0  0  0
 35 68  1  0  0  0
 36 56  1  0  0  0
 36105  1  0  0  0
 37 39  1  0  0  0
 37 47  1  0  0  0
 37 66  1  0  0  0
 37106  1  0  0  0
 38 43  2  0  0  0
 38 46  1  0  0  0
 38 47  1  0  0  0
 39 64  1  0  0  0
 39 67  2  0  0  0
 40 52  1  0  0  0
 40 53  2  0  0  0
 40 58  1  0  0  0
 41107  1  0  0  0
 41108  1  0  0  0
 41109  1  0  0  0
 41 48  1  0  0  0
 42 43  1  0  0  0
 42 66  1  0  0  0
 42110  1  0  0  0
 42111  1  0  0  0
 43 44  1  0  0  0
 44112  1  0  0  0
 45 46  2  0  0  0
 45113  1  0  0  0
 46114  1  0  0  0
 47115  1  0  0  0
 47116  1  0  0  0
 48 56  1  0  0  0
 48 65  1  0  0  0
 48117  1  0  0  0
 49 50  1  0  0  0
 49 53  1  0  0  0
 49 64  1  0  0  0
 49118  1  0  0  0
 50 51  1  0  0  0
 50119  1  0  0  0
 50120  1  0  0  0
 51 52  1  0  0  0
 51121  1  0  0  0
 51122  1  0  0  0
 52123  1  0  0  0
 52124  1  0  0  0
 53 54  1  0  0  0
 54 55  2  0  0  0
 54125  1  0  0  0
 55 57  1  0  0  0
 55126  1  0  0  0
 56 69  2  0  0  0
 57 58  2  0  0  0
 57127  1  0  0  0
 58128  1  0  0  0
 59 60  1  0  0  0
 59 61  1  0  0  0
 59 62  1  0  0  0
 60129  1  0  0  0
 60130  1  0  0  0
 60131  1  0  0  0
 61132  1  0  0  0
 61133  1  0  0  0
 61134  1  0  0  0
 62135  1  0  0  0
 62136  1  0  0  0
 62137  1  0  0  0
 63 65  1  0  0  0
 63138  1  0  0  0
 63139  1  0  0  0
 63140  1  0  0  0
 64141  1  0  0  0
 65142  1  0  0  0
 68 79  1  0  0  0
 71 72  2  0  0  0
 71 73  1  0  0  0
 71143  1  0  0  0
 72 77  1  0  0  0
 72 81  1  0  0  0
 73 80  1  0  0  0
 73 82  2  0  0  0
 74 75  1  0  0  0
 74 81  2  0  0  0
 74 82  1  0  0  0
 75144  1  0  0  0
 75145  1  0  0  0
 75146  1  0  0  0
 76147  1  0  0  0
 76148  1  0  0  0
 76149  1  0  0  0
 76 80  1  0  0  0
 77 78  1  0  0  0
 77150  1  0  0  0
 77151  1  0  0  0
 78 79  1  0  0  0
 78152  1  0  0  0
 78153  1  0  0  0
 79154  1  0  0  0
 79155  1  0  0  0
 80 83  1  0  0  0
 80156  1  0  0  0
 83157  1  0  0  0
M  ISO  4   1 100  68 101  79 101  83 100
M  END
> <chiral flag>
0

> <version>
0

> <s_m_source_file>
/data/baiqing/PycharmProjects/Reinvent-master-3.2/result/LINK_invent/BTK/process_docking_weight1_custom_sum_contain_oxygen_bond_distance_aromatic_linkinvent_7_9_3/rearranged_h_0078.sdf

> <i_m_source_file_index>
9

> <r_mmod_Potential_Energy-OPLS-2005>
-523.261108398438

> <r_mmod_Stretch_Energy-OPLS-2005>
97.752067565918

> <r_mmod_Bend_Energy-OPLS-2005>
162.620803833008

> <r_mmod_Torsional_Energy-OPLS-2005>
197.513229370117

> <r_mmod_Improper_Torsional_Energy-OPLS-2005>
8.49030494689941

> <r_mmod_Van_der_Waal_Energy-OPLS-2005>
144.924514770508

> <r_mmod_Electrostatic_Energy-OPLS-2005>
-980.713745117188

> <r_mmod_Solvation_Energy-OPLS-2005>
-224.635177612305

> <b_mmod_Minimization_Converged-OPLS-2005>
0

> <r_mmod_RMS_Derivative-OPLS-2005>
1.63895869255066

$$$$
9
                    3D
 Structure written by MMmdl.
157165  0  0  1  0            999 V2000
  -30.6528  -14.5651   20.5000 C   0  0  0  0  0  0
  -30.4257  -12.3443   19.4394 C   0  0  0  0  0  0
  -29.4998  -12.4877   18.2131 C   0  0  0  0  0  0
  -28.0204  -12.3476   18.6239 C   0  0  0  0  0  0
  -27.6523  -13.2123   19.8597 C   0  0  2  0  0  0
  -28.6946  -13.0500   20.9877 C   0  0  0  0  0  0
  -25.2566  -13.8161   20.5677 C   0  0  0  0  0  0
  -24.1831  -13.0428   20.9186 C   0  0  0  0  0  0
  -24.6388  -11.6902   20.8732 C   0  0  0  0  0  0
  -23.9066  -10.4285   21.0405 C   0  0  0  0  0  0
  -24.3619   -9.4199   21.9178 C   0  0  0  0  0  0
  -23.6289   -8.2244   22.0750 C   0  0  0  0  0  0
  -22.4272   -8.0282   21.3543 C   0  0  0  0  0  0
  -21.9912   -9.0259   20.4644 C   0  0  0  0  0  0
  -22.7245  -10.2133   20.3048 C   0  0  0  0  0  0
  -21.6862   -6.0732   22.5281 C   0  0  0  0  0  0
  -21.4022   -6.5637   23.8211 C   0  0  0  0  0  0
  -21.3650   -5.6784   24.9176 C   0  0  0  0  0  0
  -21.6045   -4.3048   24.7224 C   0  0  0  0  0  0
  -21.8820   -3.8140   23.4347 C   0  0  0  0  0  0
  -21.9197   -4.6963   22.3402 C   0  0  0  0  0  0
  -22.7858  -13.5230   21.1851 C   0  0  0  0  0  0
  -22.1667   -4.2144   21.0980 F   0  0  0  0  0  0
  -21.5619   -3.4529   25.7736 F   0  0  0  0  0  0
  -30.0132  -13.3629   20.4196 N   0  0  0  0  0  0
  -26.2979  -12.9337   20.3297 N   0  0  0  0  0  0
  -25.9308  -11.6489   20.5739 N   0  0  0  0  0  0
  -22.0505  -12.8223   22.0410 N   0  0  0  0  0  0
  -25.4280  -15.1883   20.4077 N   0  0  0  0  0  0
  -31.8225  -14.7102   20.1346 O   0  0  0  0  0  0
  -21.6643   -6.8880   21.4238 O   0  0  0  0  0  0
  -22.3539  -14.5534   20.6703 O   0  0  0  0  0  0
  -24.6165  -31.8643   23.2041 C   0  0  0  0  0  0
  -25.9044  -32.4805   23.8344 C   0  0  1  0  0  0
  -27.2301  -27.3780   20.0964 C   0  0  0  0  0  0
  -25.5899  -33.8613   24.2289 N   0  0  0  0  0  0
  -23.4071  -30.4853   21.5451 C   0  0  2  0  0  0
  -24.8525  -28.9421   20.1077 C   0  0  0  0  0  0
  -22.7431  -29.4624   22.4946 C   0  0  0  0  0  0
  -18.0283  -28.1347   22.8501 C   0  0  0  0  0  0
  -24.1500  -36.7281   23.2641 C   0  0  0  0  0  0
  -25.9412  -30.8076   21.3676 C   0  0  0  0  0  0
  -26.0129  -29.4393   20.7112 C   0  0  0  0  0  0
  -27.1999  -28.6622   20.7049 C   0  0  0  0  0  0
  -26.0470  -26.9060   19.4877 C   0  0  0  0  0  0
  -24.8665  -27.6774   19.4932 C   0  0  0  0  0  0
  -23.6164  -29.8157   20.1599 C   0  0  0  0  0  0
  -25.4128  -36.3106   24.0341 C   0  0  1  0  0  0
  -20.5876  -28.3642   23.1313 C   0  0  2  0  0  0
  -20.6776  -26.9370   22.5416 C   0  0  0  0  0  0
  -19.5756  -26.6365   21.5214 C   0  0  0  0  0  0
  -18.1933  -26.7906   22.1619 C   0  0  0  0  0  0
  -19.1536  -28.8812   23.2898 C   0  0  0  0  0  0
  -18.9461  -30.1421   23.8901 C   0  0  0  0  0  0
  -17.6461  -30.6569   24.0553 C   0  0  0  0  0  0
  -25.9052  -34.9475   23.5117 C   0  0  0  0  0  0
  -16.5356  -29.9064   23.6319 C   0  0  0  0  0  0
  -16.7273  -28.6474   23.0362 C   0  0  0  0  0  0
  -26.4461  -31.6601   25.0692 C   0  0  0  0  0  0
  -25.3729  -31.3721   26.1443 C   0  0  0  0  0  0
  -27.0277  -30.3047   24.6069 C   0  0  0  0  0  0
  -27.6025  -32.4332   25.7447 C   0  0  0  0  0  0
  -27.5589  -37.1802   24.8475 C   0  0  0  0  0  0
  -21.4149  -29.3008   22.3715 N   0  0  0  0  0  0
  -26.4311  -37.3794   23.9414 N   0  0  0  0  0  0
  -24.6732  -31.0696   22.0965 N   0  0  0  0  0  0
  -23.4197  -28.8170   23.2998 O   0  0  0  0  0  0
  -28.3974  -26.6255   20.1497 O   0  0  0  0  0  0
  -26.5615  -34.8926   22.4677 O   0  0  0  0  0  0
  -23.5347  -32.1409   23.7428 O   0  0  0  0  0  0
  -28.0512  -20.0805   23.0176 C   0  0  0  0  0  0
  -28.1404  -21.1145   22.0541 C   0  0  0  0  0  0
  -28.4614  -18.9281   22.4180 C   0  0  0  0  0  0
  -28.6117  -20.5891   20.8815 C   0  0  0  0  0  0
  -28.7784  -21.3358   19.5667 C   0  0  0  0  0  0
  -29.2201  -22.8529   19.5947 C   0  0  0  0  0  0
  -28.2440  -24.0144   20.0284 C   0  0  0  0  0  0
  -29.2951  -18.1256   20.1941 C   0  0  0  0  0  0
  -30.3002  -17.0732   20.8132 C   0  0  0  0  0  0
  -28.5842  -25.4083   19.3770 C   0  0  0  0  0  0
  -28.8397  -19.2020   21.1112 N   0  0  0  0  0  0
  -29.8798  -15.6396   20.8071 N   0  0  0  0  0  0
  -31.4695  -12.4530   19.1376 H   0  0  0  0  0  0
  -30.3422  -11.3470   19.8719 H   0  0  0  0  0  0
  -29.7503  -11.7350   17.4639 H   0  0  0  0  0  0
  -29.6622  -13.4570   17.7389 H   0  0  0  0  0  0
  -27.8398  -11.2946   18.8449 H   0  0  0  0  0  0
  -27.3707  -12.5959   17.7844 H   0  0  0  0  0  0
  -27.6778  -14.2503   19.5267 H   0  0  0  0  0  0
  -28.6853  -12.0307   21.3748 H   0  0  0  0  0  0
  -28.4552  -13.6945   21.8343 H   0  0  0  0  0  0
  -25.2768   -9.5680   22.4746 H   0  0  0  0  0  0
  -24.0001   -7.4634   22.7468 H   0  0  0  0  0  0
  -21.0844   -8.8776   19.8952 H   0  0  0  0  0  0
  -22.3707  -10.9666   19.6150 H   0  0  0  0  0  0
  -21.2023   -7.6144   23.9720 H   0  0  0  0  0  0
  -21.1467   -6.0513   25.9078 H   0  0  0  0  0  0
  -22.0608   -2.7602   23.2848 H   0  0  0  0  0  0
  -22.4125  -11.9880   22.4787 H   0  0  0  0  0  0
  -21.1114  -13.1238   22.2593 H   0  0  0  0  0  0
  -24.6594  -15.8412   20.5187 H   0  0  0  0  0  0
  -26.2715  -15.6276   20.0625 H   0  0  0  0  0  0
  -26.7098  -32.5468   23.1077 H   0  0  0  0  0  0
  -25.0103  -33.9781   25.0478 H   0  0  0  0  0  0
  -22.6965  -31.3028   21.4041 H   0  0  0  0  0  0
  -23.3780  -35.9592   23.3331 H   0  0  0  0  0  0
  -24.3612  -36.8873   22.2052 H   0  0  0  0  0  0
  -23.7227  -37.6483   23.6651 H   0  0  0  0  0  0
  -26.0701  -31.5732   20.6017 H   0  0  0  0  0  0
  -26.8251  -30.8514   21.9918 H   0  0  0  0  0  0
  -28.0946  -29.0416   21.1792 H   0  0  0  0  0  0
  -26.0122  -25.9305   19.0270 H   0  0  0  0  0  0
  -23.9712  -27.2885   19.0268 H   0  0  0  0  0  0
  -23.7235  -30.5926   19.4014 H   0  0  0  0  0  0
  -22.7385  -29.2376   19.8635 H   0  0  0  0  0  0
  -25.1308  -36.1964   25.0834 H   0  0  0  0  0  0
  -20.9964  -28.3205   24.1436 H   0  0  0  0  0  0
  -20.5686  -26.2237   23.3601 H   0  0  0  0  0  0
  -21.6644  -26.7403   22.1202 H   0  0  0  0  0  0
  -19.6933  -25.6281   21.1230 H   0  0  0  0  0  0
  -19.6724  -27.3197   20.6763 H   0  0  0  0  0  0
  -17.4213  -26.6666   21.4009 H   0  0  0  0  0  0
  -18.0306  -26.0028   22.8980 H   0  0  0  0  0  0
  -19.7942  -30.7228   24.2268 H   0  0  0  0  0  0
  -17.5029  -31.6258   24.5143 H   0  0  0  0  0  0
  -15.5357  -30.2980   23.7641 H   0  0  0  0  0  0
  -15.8667  -28.0800   22.7079 H   0  0  0  0  0  0
  -24.5910  -30.7056   25.7798 H   0  0  0  0  0  0
  -24.8895  -32.2876   26.4870 H   0  0  0  0  0  0
  -25.8082  -30.8923   27.0215 H   0  0  0  0  0  0
  -26.2805  -29.6833   24.1122 H   0  0  0  0  0  0
  -27.4062  -29.7255   25.4498 H   0  0  0  0  0  0
  -27.8649  -30.4383   23.9213 H   0  0  0  0  0  0
  -27.2643  -33.3637   26.2011 H   0  0  0  0  0  0
  -28.3828  -32.6891   25.0271 H   0  0  0  0  0  0
  -28.0695  -31.8467   26.5368 H   0  0  0  0  0  0
  -28.2611  -38.0092   24.7498 H   0  0  0  0  0  0
  -28.1068  -36.2620   24.6321 H   0  0  0  0  0  0
  -27.2293  -37.1442   25.8872 H   0  0  0  0  0  0
  -20.9302  -29.8720   21.6932 H   0  0  0  0  0  0
  -26.0200  -38.2873   24.1405 H   0  0  0  0  0  0
  -27.6983  -20.1709   24.0353 H   0  0  0  0  0  0
  -27.8511  -22.1457   22.2015 H   0  0  0  0  0  0
  -28.5128  -17.9207   22.8118 H   0  0  0  0  0  0
  -27.8515  -21.2501   18.9976 H   0  0  0  0  0  0
  -29.5217  -20.8083   18.9692 H   0  0  0  0  0  0
  -29.5203  -23.0790   18.5700 H   0  0  0  0  0  0
  -30.1415  -22.9405   20.1704 H   0  0  0  0  0  0
  -28.2778  -24.1123   21.1133 H   0  0  0  0  0  0
  -27.2132  -23.7512   19.7872 H   0  0  0  0  0  0
  -28.4096  -17.6192   19.8105 H   0  0  0  0  0  0
  -29.7644  -18.5887   19.3267 H   0  0  0  0  0  0
  -30.5563  -17.3384   21.8377 H   0  0  0  0  0  0
  -31.2415  -17.1719   20.2698 H   0  0  0  0  0  0
  -28.1268  -25.4909   18.3905 H   0  0  0  0  0  0
  -29.6558  -25.4080   19.1742 H   0  0  0  0  0  0
  -28.9238  -15.4406   21.0615 H   0  0  0  0  0  0
  1 25  1  0  0  0
  1 30  2  0  0  0
  1 82  1  0  0  0
  2  3  1  0  0  0
  2 25  1  0  0  0
  2 83  1  0  0  0
  2 84  1  0  0  0
  3  4  1  0  0  0
  3 85  1  0  0  0
  3 86  1  0  0  0
  4  5  1  0  0  0
  4 87  1  0  0  0
  4 88  1  0  0  0
  5  6  1  0  0  0
  5 26  1  0  0  0
  5 89  1  0  0  0
  6 25  1  0  0  0
  6 90  1  0  0  0
  6 91  1  0  0  0
  7  8  2  0  0  0
  7 26  1  0  0  0
  7 29  1  0  0  0
  8  9  1  0  0  0
  8 22  1  0  0  0
  9 10  1  0  0  0
  9 27  2  0  0  0
 10 11  2  0  0  0
 10 15  1  0  0  0
 11 12  1  0  0  0
 11 92  1  0  0  0
 12 13  2  0  0  0
 12 93  1  0  0  0
 13 14  1  0  0  0
 13 31  1  0  0  0
 14 15  2  0  0  0
 14 94  1  0  0  0
 15 95  1  0  0  0
 16 17  2  0  0  0
 16 21  1  0  0  0
 16 31  1  0  0  0
 17 18  1  0  0  0
 17 96  1  0  0  0
 18 19  2  0  0  0
 18 97  1  0  0  0
 19 20  1  0  0  0
 19 24  1  0  0  0
 20 21  2  0  0  0
 20 98  1  0  0  0
 21 23  1  0  0  0
 22 28  1  0  0  0
 22 32  2  0  0  0
 26 27  1  0  0  0
 28 99  1  0  0  0
 28100  1  0  0  0
 29101  1  0  0  0
 29102  1  0  0  0
 33 34  1  0  0  0
 33 66  1  0  0  0
 33 70  2  0  0  0
 34 36  1  0  0  0
 34 59  1  0  0  0
 34103  1  0  0  0
 35 44  2  0  0  0
 35 45  1  0  0  0
 35 68  1  0  0  0
 36 56  1  0  0  0
 36104  1  0  0  0
 37 39  1  0  0  0
 37 47  1  0  0  0
 37 66  1  0  0  0
 37105  1  0  0  0
 38 43  2  0  0  0
 38 46  1  0  0  0
 38 47  1  0  0  0
 39 64  1  0  0  0
 39 67  2  0  0  0
 40 52  1  0  0  0
 40 53  2  0  0  0
 40 58  1  0  0  0
 41106  1  0  0  0
 41107  1  0  0  0
 41108  1  0  0  0
 41 48  1  0  0  0
 42 43  1  0  0  0
 42 66  1  0  0  0
 42109  1  0  0  0
 42110  1  0  0  0
 43 44  1  0  0  0
 44111  1  0  0  0
 45 46  2  0  0  0
 45112  1  0  0  0
 46113  1  0  0  0
 47114  1  0  0  0
 47115  1  0  0  0
 48 56  1  0  0  0
 48 65  1  0  0  0
 48116  1  0  0  0
 49 50  1  0  0  0
 49 53  1  0  0  0
 49 64  1  0  0  0
 49117  1  0  0  0
 50 51  1  0  0  0
 50118  1  0  0  0
 50119  1  0  0  0
 51 52  1  0  0  0
 51120  1  0  0  0
 51121  1  0  0  0
 52122  1  0  0  0
 52123  1  0  0  0
 53 54  1  0  0  0
 54 55  2  0  0  0
 54124  1  0  0  0
 55 57  1  0  0  0
 55125  1  0  0  0
 56 69  2  0  0  0
 57 58  2  0  0  0
 57126  1  0  0  0
 58127  1  0  0  0
 59 60  1  0  0  0
 59 61  1  0  0  0
 59 62  1  0  0  0
 60128  1  0  0  0
 60129  1  0  0  0
 60130  1  0  0  0
 61131  1  0  0  0
 61132  1  0  0  0
 61133  1  0  0  0
 62134  1  0  0  0
 62135  1  0  0  0
 62136  1  0  0  0
 63 65  1  0  0  0
 63137  1  0  0  0
 63138  1  0  0  0
 63139  1  0  0  0
 64140  1  0  0  0
 65141  1  0  0  0
 68 80  1  0  0  0
 71 72  1  0  0  0
 71 73  2  0  0  0
 71142  1  0  0  0
 72 74  2  0  0  0
 72143  1  0  0  0
 73 81  1  0  0  0
 73144  1  0  0  0
 74 75  1  0  0  0
 74 81  1  0  0  0
 75 76  1  0  0  0
 75145  1  0  0  0
 75146  1  0  0  0
 76 77  1  0  0  0
 76147  1  0  0  0
 76148  1  0  0  0
 77 80  1  0  0  0
 77149  1  0  0  0
 77150  1  0  0  0
 78 79  1  0  0  0
 78 81  1  0  0  0
 78151  1  0  0  0
 78152  1  0  0  0
 79 82  1  0  0  0
 79153  1  0  0  0
 79154  1  0  0  0
 80155  1  0  0  0
 80156  1  0  0  0
 82157  1  0  0  0
M  ISO  4   1 100  68 101  80 101  82 100
M  END
> <chiral flag>
0

> <version>
0

> <s_m_source_file>
/data/baiqing/PycharmProjects/Reinvent-master-3.2/result/LINK_invent/BTK/process_docking_weight1_custom_sum_contain_oxygen_bond_distance_aromatic_linkinvent_7_9_3/rearranged_h_0078.sdf

> <i_m_source_file_index>
10

> <r_mmod_Potential_Energy-OPLS-2005>
-12.3199872970581

> <r_mmod_Stretch_Energy-OPLS-2005>
57.2665939331055

> <r_mmod_Bend_Energy-OPLS-2005>
137.596633911133

> <r_mmod_Torsional_Energy-OPLS-2005>
229.835311889648

> <r_mmod_Improper_Torsional_Energy-OPLS-2005>
4.82895851135254

> <r_mmod_Van_der_Waal_Energy-OPLS-2005>
123.02799987793

> <r_mmod_Electrostatic_Energy-OPLS-2005>
-378.495727539062

> <r_mmod_Solvation_Energy-OPLS-2005>
-214.393585205078

> <b_mmod_Minimization_Converged-OPLS-2005>
0

> <r_mmod_RMS_Derivative-OPLS-2005>
2.25539398193359

$$$$
10
                    3D
 Structure written by MMmdl.
152160  0  0  1  0            999 V2000
  -30.4523  -15.3094   20.2868 C   0  0  0  0  0  0
  -30.4390  -12.8330   19.5105 C   0  0  0  0  0  0
  -29.5331  -12.5514   18.2870 C   0  0  0  0  0  0
  -28.0774  -12.2930   18.7127 C   0  0  0  0  0  0
  -27.6041  -13.2579   19.8260 C   0  0  2  0  0  0
  -28.6513  -13.4985   20.9321 C   0  0  0  0  0  0
  -25.2420  -13.8154   20.5907 C   0  0  0  0  0  0
  -24.1722  -13.0352   20.9278 C   0  0  0  0  0  0
  -24.6371  -11.6854   20.8805 C   0  0  0  0  0  0
  -23.9067  -10.4237   21.0433 C   0  0  0  0  0  0
  -24.3618   -9.4140   21.9201 C   0  0  0  0  0  0
  -23.6268   -8.2195   22.0766 C   0  0  0  0  0  0
  -22.4260   -8.0255   21.3543 C   0  0  0  0  0  0
  -21.9909   -9.0230   20.4645 C   0  0  0  0  0  0
  -22.7251  -10.2097   20.3052 C   0  0  0  0  0  0
  -21.6823   -6.0719   22.5275 C   0  0  0  0  0  0
  -21.4005   -6.5626   23.8211 C   0  0  0  0  0  0
  -21.3660   -5.6780   24.9180 C   0  0  0  0  0  0
  -21.6037   -4.3042   24.7233 C   0  0  0  0  0  0
  -21.8804   -3.8135   23.4354 C   0  0  0  0  0  0
  -21.9172   -4.6949   22.3406 C   0  0  0  0  0  0
  -22.7754  -13.5145   21.1885 C   0  0  0  0  0  0
  -22.1615   -4.2127   21.0980 F   0  0  0  0  0  0
  -21.5653   -3.4527   25.7752 F   0  0  0  0  0  0
  -29.8725  -14.0027   20.2799 N   0  0  0  0  0  0
  -26.2818  -12.9384   20.3371 N   0  0  0  0  0  0
  -25.9311  -11.6503   20.5824 N   0  0  0  0  0  0
  -22.0373  -12.8150   22.0416 N   0  0  0  0  0  0
  -25.4134  -15.1897   20.4606 N   0  0  0  0  0  0
  -31.6859  -15.2343   20.1932 O   0  0  0  0  0  0
  -21.6605   -6.8859   21.4241 O   0  0  0  0  0  0
  -22.3470  -14.5446   20.6725 O   0  0  0  0  0  0
  -24.6595  -31.8233   23.1735 C   0  0  0  0  0  0
  -25.9288  -32.4588   23.8174 C   0  0  1  0  0  0
  -27.2200  -26.9505   20.1753 C   0  0  0  0  0  0
  -25.5969  -33.8407   24.2085 N   0  0  0  0  0  0
  -23.4717  -30.4366   21.5201 C   0  0  2  0  0  0
  -24.9273  -28.8301   20.1035 C   0  0  0  0  0  0
  -22.7626  -29.4450   22.4783 C   0  0  0  0  0  0
  -18.0325  -28.1430   22.8474 C   0  0  0  0  0  0
  -24.1490  -36.7219   23.2653 C   0  0  0  0  0  0
  -26.0388  -30.6346   21.4021 C   0  0  0  0  0  0
  -26.1056  -29.2291   20.7457 C   0  0  0  0  0  0
  -27.2413  -28.3067   20.7644 C   0  0  0  0  0  0
  -26.0170  -26.7002   19.4765 C   0  0  0  0  0  0
  -24.9089  -27.5872   19.4476 C   0  0  0  0  0  0
  -23.7086  -29.7525   20.1441 C   0  0  0  0  0  0
  -25.4129  -36.2977   24.0305 C   0  0  1  0  0  0
  -20.5942  -28.3751   23.1204 C   0  0  2  0  0  0
  -20.6772  -26.9417   22.5474 C   0  0  0  0  0  0
  -19.5792  -26.6423   21.5223 C   0  0  0  0  0  0
  -18.1961  -26.7994   22.1581 C   0  0  0  0  0  0
  -19.1588  -28.8905   23.2835 C   0  0  0  0  0  0
  -18.9515  -30.1515   23.8820 C   0  0  0  0  0  0
  -17.6519  -30.6644   24.0495 C   0  0  0  0  0  0
  -25.9091  -34.9354   23.5018 C   0  0  0  0  0  0
  -16.5396  -29.9147   23.6285 C   0  0  0  0  0  0
  -16.7321  -28.6557   23.0337 C   0  0  0  0  0  0
  -26.4546  -31.6530   25.0697 C   0  0  0  0  0  0
  -25.3685  -31.3773   26.1366 C   0  0  0  0  0  0
  -27.0443  -30.2895   24.6426 C   0  0  0  0  0  0
  -27.6027  -32.4342   25.7514 C   0  0  0  0  0  0
  -27.5569  -37.1763   24.8465 C   0  0  0  0  0  0
  -21.4300  -29.3038   22.3521 N   0  0  0  0  0  0
  -26.4279  -37.3711   23.9408 N   0  0  0  0  0  0
  -24.7444  -30.9910   22.0861 N   0  0  0  0  0  0
  -23.4170  -28.8035   23.3045 O   0  0  0  0  0  0
  -28.2350  -25.8718   20.3120 O   0  0  0  0  0  0
  -26.5697  -34.8898   22.4607 O   0  0  0  0  0  0
  -23.5679  -32.1216   23.6839 O   0  0  0  0  0  0
  -30.0954  -18.2643   20.6202 C   0  0  0  0  0  0
  -29.2720  -19.4499   20.0976 C   0  0  0  0  0  0
  -29.7747  -16.8990   20.2038 C   0  0  0  0  0  0
  -28.3867  -18.6766   19.3731 C   0  0  0  0  0  0
  -27.2408  -19.2028   18.5597 C   0  0  0  0  0  0
  -28.1537  -16.4293   18.2953 C   0  0  0  0  0  0
  -29.3771  -21.2152   19.9816 C   0  0  0  0  0  0
  -28.4809  -22.6704   20.5163 C   0  0  0  0  0  0
  -28.2697  -24.3101   19.8051 C   0  0  0  0  0  0
  -28.7461  -17.2861   19.3086 N   0  0  0  0  0  0
  -31.4505  -13.0345   19.1565 H   0  0  0  0  0  0
  -30.5275  -11.9535   20.1472 H   0  0  0  0  0  0
  -29.9139  -11.6939   17.7297 H   0  0  0  0  0  0
  -29.5700  -13.3981   17.6008 H   0  0  0  0  0  0
  -28.0185  -11.2651   19.0723 H   0  0  0  0  0  0
  -27.4133  -12.3565   17.8496 H   0  0  0  0  0  0
  -27.4747  -14.2007   19.3179 H   0  0  0  0  0  0
  -28.8444  -12.5899   21.5036 H   0  0  0  0  0  0
  -28.2970  -14.2421   21.6471 H   0  0  0  0  0  0
  -25.2754   -9.5603   22.4802 H   0  0  0  0  0  0
  -23.9945   -7.4578   22.7490 H   0  0  0  0  0  0
  -21.0836   -8.8751   19.8955 H   0  0  0  0  0  0
  -22.3698  -10.9654   19.6177 H   0  0  0  0  0  0
  -21.1975   -7.6129   23.9704 H   0  0  0  0  0  0
  -21.1517   -6.0522   25.9080 H   0  0  0  0  0  0
  -22.0597   -2.7603   23.2857 H   0  0  0  0  0  0
  -22.4008  -11.9813   22.4785 H   0  0  0  0  0  0
  -21.1001  -13.1212   22.2614 H   0  0  0  0  0  0
  -24.6780  -15.8494   20.6884 H   0  0  0  0  0  0
  -26.3023  -15.6406   20.2908 H   0  0  0  0  0  0
  -26.7360  -32.5123   23.0883 H   0  0  0  0  0  0
  -25.0042  -33.9476   25.0189 H   0  0  0  0  0  0
  -22.7838  -31.2684   21.3502 H   0  0  0  0  0  0
  -23.3765  -35.9538   23.3283 H   0  0  0  0  0  0
  -24.3582  -36.8892   22.2079 H   0  0  0  0  0  0
  -23.7233  -37.6395   23.6726 H   0  0  0  0  0  0
  -26.2156  -31.3761   20.6218 H   0  0  0  0  0  0
  -26.9018  -30.6922   22.0547 H   0  0  0  0  0  0
  -28.1256  -28.5992   21.3134 H   0  0  0  0  0  0
  -25.8859  -25.7504   18.9830 H   0  0  0  0  0  0
  -24.0157  -27.2785   18.9225 H   0  0  0  0  0  0
  -23.8517  -30.5210   19.3850 H   0  0  0  0  0  0
  -22.8192  -29.1986   19.8356 H   0  0  0  0  0  0
  -25.1332  -36.1778   25.0800 H   0  0  0  0  0  0
  -21.0038  -28.3368   24.1339 H   0  0  0  0  0  0
  -20.5562  -26.2408   23.3763 H   0  0  0  0  0  0
  -21.6656  -26.7321   22.1362 H   0  0  0  0  0  0
  -19.6942  -25.6335   21.1223 H   0  0  0  0  0  0
  -19.6799  -27.3287   20.6808 H   0  0  0  0  0  0
  -17.4252  -26.6773   21.3950 H   0  0  0  0  0  0
  -18.0313  -26.0115   22.8931 H   0  0  0  0  0  0
  -19.8006  -30.7368   24.2107 H   0  0  0  0  0  0
  -17.5083  -31.6360   24.5020 H   0  0  0  0  0  0
  -15.5406  -30.3071   23.7568 H   0  0  0  0  0  0
  -15.8721  -28.0899   22.7002 H   0  0  0  0  0  0
  -24.5884  -30.7091   25.7693 H   0  0  0  0  0  0
  -24.8851  -32.2974   26.4665 H   0  0  0  0  0  0
  -25.7946  -30.9035   27.0221 H   0  0  0  0  0  0
  -26.3102  -29.6562   24.1431 H   0  0  0  0  0  0
  -27.3973  -29.7278   25.5085 H   0  0  0  0  0  0
  -27.9053  -30.4076   23.9846 H   0  0  0  0  0  0
  -27.2571  -33.3685   26.1962 H   0  0  0  0  0  0
  -28.3921  -32.6827   25.0404 H   0  0  0  0  0  0
  -28.0599  -31.8541   26.5541 H   0  0  0  0  0  0
  -28.2566  -38.0077   24.7520 H   0  0  0  0  0  0
  -28.1083  -36.2604   24.6279 H   0  0  0  0  0  0
  -27.2293  -37.1402   25.8869 H   0  0  0  0  0  0
  -20.9537  -29.8667   21.6603 H   0  0  0  0  0  0
  -26.0132  -38.2779   24.1391 H   0  0  0  0  0  0
  -30.9743  -18.4225   21.2296 H   0  0  0  0  0  0
  -26.9237  -20.1849   18.9127 H   0  0  0  0  0  0
  -26.3704  -18.5512   18.6216 H   0  0  0  0  0  0
  -27.5212  -19.3070   17.5100 H   0  0  0  0  0  0
  -27.1198  -16.1977   18.5420 H   0  0  0  0  0  0
  -28.1550  -16.9524   17.3373 H   0  0  0  0  0  0
  -28.7364  -15.5256   18.1477 H   0  0  0  0  0  0
  -29.3618  -21.3397   18.8974 H   0  0  0  0  0  0
  -30.4161  -21.4280   20.2315 H   0  0  0  0  0  0
  -28.8037  -22.8391   21.5454 H   0  0  0  0  0  0
  -27.4549  -22.3213   20.6363 H   0  0  0  0  0  0
  -27.3928  -24.2037   19.1692 H   0  0  0  0  0  0
  -29.0782  -24.3566   19.0753 H   0  0  0  0  0  0
  1 25  1  0  0  0
  1 30  2  0  0  0
  1 73  1  0  0  0
  2  3  1  0  0  0
  2 25  1  0  0  0
  2 81  1  0  0  0
  2 82  1  0  0  0
  3  4  1  0  0  0
  3 83  1  0  0  0
  3 84  1  0  0  0
  4  5  1  0  0  0
  4 85  1  0  0  0
  4 86  1  0  0  0
  5  6  1  0  0  0
  5 26  1  0  0  0
  5 87  1  0  0  0
  6 25  1  0  0  0
  6 88  1  0  0  0
  6 89  1  0  0  0
  7  8  2  0  0  0
  7 26  1  0  0  0
  7 29  1  0  0  0
  8  9  1  0  0  0
  8 22  1  0  0  0
  9 10  1  0  0  0
  9 27  2  0  0  0
 10 11  2  0  0  0
 10 15  1  0  0  0
 11 12  1  0  0  0
 11 90  1  0  0  0
 12 13  2  0  0  0
 12 91  1  0  0  0
 13 14  1  0  0  0
 13 31  1  0  0  0
 14 15  2  0  0  0
 14 92  1  0  0  0
 15 93  1  0  0  0
 16 17  2  0  0  0
 16 21  1  0  0  0
 16 31  1  0  0  0
 17 18  1  0  0  0
 17 94  1  0  0  0
 18 19  2  0  0  0
 18 95  1  0  0  0
 19 20  1  0  0  0
 19 24  1  0  0  0
 20 21  2  0  0  0
 20 96  1  0  0  0
 21 23  1  0  0  0
 22 28  1  0  0  0
 22 32  2  0  0  0
 26 27  1  0  0  0
 28 97  1  0  0  0
 28 98  1  0  0  0
 29 99  1  0  0  0
 29100  1  0  0  0
 33 34  1  0  0  0
 33 66  1  0  0  0
 33 70  2  0  0  0
 34 36  1  0  0  0
 34 59  1  0  0  0
 34101  1  0  0  0
 35 44  2  0  0  0
 35 45  1  0  0  0
 35 68  1  0  0  0
 36 56  1  0  0  0
 36102  1  0  0  0
 37 39  1  0  0  0
 37 47  1  0  0  0
 37 66  1  0  0  0
 37103  1  0  0  0
 38 43  2  0  0  0
 38 46  1  0  0  0
 38 47  1  0  0  0
 39 64  1  0  0  0
 39 67  2  0  0  0
 40 52  1  0  0  0
 40 53  2  0  0  0
 40 58  1  0  0  0
 41104  1  0  0  0
 41105  1  0  0  0
 41106  1  0  0  0
 41 48  1  0  0  0
 42 43  1  0  0  0
 42 66  1  0  0  0
 42107  1  0  0  0
 42108  1  0  0  0
 43 44  1  0  0  0
 44109  1  0  0  0
 45 46  2  0  0  0
 45110  1  0  0  0
 46111  1  0  0  0
 47112  1  0  0  0
 47113  1  0  0  0
 48 56  1  0  0  0
 48 65  1  0  0  0
 48114  1  0  0  0
 49 50  1  0  0  0
 49 53  1  0  0  0
 49 64  1  0  0  0
 49115  1  0  0  0
 50 51  1  0  0  0
 50116  1  0  0  0
 50117  1  0  0  0
 51 52  1  0  0  0
 51118  1  0  0  0
 51119  1  0  0  0
 52120  1  0  0  0
 52121  1  0  0  0
 53 54  1  0  0  0
 54 55  2  0  0  0
 54122  1  0  0  0
 55 57  1  0  0  0
 55123  1  0  0  0
 56 69  2  0  0  0
 57 58  2  0  0  0
 57124  1  0  0  0
 58125  1  0  0  0
 59 60  1  0  0  0
 59 61  1  0  0  0
 59 62  1  0  0  0
 60126  1  0  0  0
 60127  1  0  0  0
 60128  1  0  0  0
 61129  1  0  0  0
 61130  1  0  0  0
 61131  1  0  0  0
 62132  1  0  0  0
 62133  1  0  0  0
 62134  1  0  0  0
 63 65  1  0  0  0
 63135  1  0  0  0
 63136  1  0  0  0
 63137  1  0  0  0
 64138  1  0  0  0
 65139  1  0  0  0
 68 79  1  0  0  0
 71 72  1  0  0  0
 71 73  2  0  0  0
 71140  1  0  0  0
 72 74  2  0  0  0
 72 77  1  0  0  0
 73 80  1  0  0  0
 74 75  1  0  0  0
 74 80  1  0  0  0
 75141  1  0  0  0
 75142  1  0  0  0
 75143  1  0  0  0
 76 80  1  0  0  0
 76144  1  0  0  0
 76145  1  0  0  0
 76146  1  0  0  0
 77 78  1  0  0  0
 77147  1  0  0  0
 77148  1  0  0  0
 78 79  1  0  0  0
 78149  1  0  0  0
 78150  1  0  0  0
 79151  1  0  0  0
 79152  1  0  0  0
M  ISO  4   1 100  68 101  73 100  79 101
M  END
> <chiral flag>
0

> <version>
0

> <s_m_source_file>
/data/baiqing/PycharmProjects/Reinvent-master-3.2/result/LINK_invent/BTK/process_docking_weight1_custom_sum_contain_oxygen_bond_distance_aromatic_linkinvent_7_9_3/rearranged_h_0078.sdf

> <i_m_source_file_index>
11

> <r_mmod_Potential_Energy-OPLS-2005>
1384.03369140625

> <r_mmod_Stretch_Energy-OPLS-2005>
574.828125

> <r_mmod_Bend_Energy-OPLS-2005>
465.720275878906

> <r_mmod_Torsional_Energy-OPLS-2005>
245.110229492188

> <r_mmod_Improper_Torsional_Energy-OPLS-2005>
8.80431652069092

> <r_mmod_Van_der_Waal_Energy-OPLS-2005>
111.236755371094

> <r_mmod_Electrostatic_Energy-OPLS-2005>
-294.084136962891

> <r_mmod_Solvation_Energy-OPLS-2005>
-198.013610839844

> <b_mmod_Minimization_Converged-OPLS-2005>
0

> <r_mmod_RMS_Derivative-OPLS-2005>
3.51159596443176

$$$$
11
                    3D
 Structure written by MMmdl.
159167  0  0  1  0            999 V2000
  -30.7256  -14.4575   20.5881 C   0  0  0  0  0  0
  -30.4216  -12.2999   19.4344 C   0  0  0  0  0  0
  -29.4984  -12.5061   18.2163 C   0  0  0  0  0  0
  -28.0188  -12.3698   18.6250 C   0  0  0  0  0  0
  -27.6633  -13.2103   19.8804 C   0  0  2  0  0  0
  -28.7039  -12.9960   21.0055 C   0  0  0  0  0  0
  -25.2512  -13.8114   20.5613 C   0  0  0  0  0  0
  -24.1805  -13.0395   20.9180 C   0  0  0  0  0  0
  -24.6387  -11.6882   20.8752 C   0  0  0  0  0  0
  -23.9065  -10.4271   21.0413 C   0  0  0  0  0  0
  -24.3615   -9.4188   21.9188 C   0  0  0  0  0  0
  -23.6284   -8.2231   22.0758 C   0  0  0  0  0  0
  -22.4262   -8.0279   21.3548 C   0  0  0  0  0  0
  -21.9905   -9.0254   20.4647 C   0  0  0  0  0  0
  -22.7243  -10.2123   20.3054 C   0  0  0  0  0  0
  -21.6856   -6.0734   22.5280 C   0  0  0  0  0  0
  -21.4015   -6.5638   23.8211 C   0  0  0  0  0  0
  -21.3657   -5.6790   24.9175 C   0  0  0  0  0  0
  -21.6045   -4.3052   24.7223 C   0  0  0  0  0  0
  -21.8818   -3.8148   23.4343 C   0  0  0  0  0  0
  -21.9190   -4.6964   22.3400 C   0  0  0  0  0  0
  -22.7825  -13.5203   21.1847 C   0  0  0  0  0  0
  -22.1666   -4.2153   21.0979 F   0  0  0  0  0  0
  -21.5626   -3.4533   25.7735 F   0  0  0  0  0  0
  -30.0440  -13.2854   20.4598 N   0  0  0  0  0  0
  -26.3021  -12.9333   20.3391 N   0  0  0  0  0  0
  -25.9329  -11.6486   20.5804 N   0  0  0  0  0  0
  -22.0471  -12.8214   22.0418 N   0  0  0  0  0  0
  -25.4074  -15.1809   20.3875 N   0  0  0  0  0  0
  -31.8244  -14.6613   20.0659 O   0  0  0  0  0  0
  -21.6632   -6.8875   21.4240 O   0  0  0  0  0  0
  -22.3514  -14.5516   20.6711 O   0  0  0  0  0  0
  -24.6155  -31.8678   23.2084 C   0  0  0  0  0  0
  -25.9058  -32.4820   23.8380 C   0  0  1  0  0  0
  -27.2397  -27.4284   20.1096 C   0  0  0  0  0  0
  -25.5915  -33.8616   24.2325 N   0  0  0  0  0  0
  -23.4043  -30.4889   21.5489 C   0  0  2  0  0  0
  -24.8541  -28.9527   20.1147 C   0  0  0  0  0  0
  -22.7424  -29.4649   22.4995 C   0  0  0  0  0  0
  -18.0293  -28.1368   22.8470 C   0  0  0  0  0  0
  -24.1490  -36.7310   23.2633 C   0  0  0  0  0  0
  -25.9330  -30.8322   21.3619 C   0  0  0  0  0  0
  -26.0133  -29.4663   20.7099 C   0  0  0  0  0  0
  -27.2106  -28.7138   20.6990 C   0  0  0  0  0  0
  -26.0658  -26.9329   19.5000 C   0  0  0  0  0  0
  -24.8758  -27.6859   19.5047 C   0  0  0  0  0  0
  -23.6141  -29.8178   20.1645 C   0  0  0  0  0  0
  -25.4114  -36.3103   24.0329 C   0  0  1  0  0  0
  -20.5875  -28.3672   23.1339 C   0  0  2  0  0  0
  -20.6796  -26.9410   22.5435 C   0  0  0  0  0  0
  -19.5802  -26.6405   21.5201 C   0  0  0  0  0  0
  -18.1969  -26.7916   22.1596 C   0  0  0  0  0  0
  -19.1531  -28.8831   23.2901 C   0  0  0  0  0  0
  -18.9434  -30.1437   23.8898 C   0  0  0  0  0  0
  -17.6434  -30.6563   24.0547 C   0  0  0  0  0  0
  -25.9036  -34.9471   23.5127 C   0  0  0  0  0  0
  -16.5339  -29.9060   23.6289 C   0  0  0  0  0  0
  -16.7282  -28.6479   23.0315 C   0  0  0  0  0  0
  -26.4496  -31.6598   25.0706 C   0  0  0  0  0  0
  -25.3761  -31.3720   26.1453 C   0  0  0  0  0  0
  -27.0326  -30.3036   24.6090 C   0  0  0  0  0  0
  -27.6072  -32.4318   25.7475 C   0  0  0  0  0  0
  -27.5589  -37.1814   24.8465 C   0  0  0  0  0  0
  -21.4139  -29.3069   22.3770 N   0  0  0  0  0  0
  -26.4302  -37.3789   23.9404 N   0  0  0  0  0  0
  -24.6689  -31.0775   22.0982 N   0  0  0  0  0  0
  -23.4197  -28.8172   23.3023 O   0  0  0  0  0  0
  -28.4007  -26.6811   20.1305 O   0  0  0  0  0  0
  -26.5583  -34.8934   22.4677 O   0  0  0  0  0  0
  -23.5343  -32.1435   23.7477 O   0  0  0  0  0  0
  -28.9714  -20.3481   21.9166 C   0  0  0  0  0  0
  -29.2051  -19.2612   21.0314 C   0  0  0  0  0  0
  -28.6680  -21.7062   20.1027 C   0  0  0  0  0  0
  -28.9215  -20.1911   23.4238 C   0  0  0  0  0  0
  -27.7852  -17.1972   21.0699 C   0  0  0  0  0  0
  -28.0312  -22.9683   19.5169 C   0  0  0  0  0  0
  -28.8407  -24.2888   19.6078 C   0  0  0  0  0  0
  -30.3336  -16.8943   21.0041 C   0  0  0  0  0  0
  -28.2747  -25.3259   20.6081 C   0  0  0  0  0  0
  -29.1472  -17.7847   21.4734 C   0  0  1  0  0  0
  -28.6922  -21.5851   21.4342 N   0  0  0  0  0  0
  -29.2467  -19.4994   19.6945 N   0  0  0  0  0  0
  -28.9914  -20.7340   19.2293 N   0  0  0  0  0  0
  -30.0612  -15.4556   21.1914 N   0  0  0  0  0  0
  -31.4683  -12.3845   19.1372 H   0  0  0  0  0  0
  -30.3105  -11.2912   19.8337 H   0  0  0  0  0  0
  -29.7371  -11.7809   17.4371 H   0  0  0  0  0  0
  -29.6727  -13.4917   17.7832 H   0  0  0  0  0  0
  -27.8267  -11.3141   18.8208 H   0  0  0  0  0  0
  -27.3706  -12.6469   17.7927 H   0  0  0  0  0  0
  -27.7072  -14.2580   19.5825 H   0  0  0  0  0  0
  -28.6708  -11.9653   21.3619 H   0  0  0  0  0  0
  -28.4606  -13.6103   21.8733 H   0  0  0  0  0  0
  -25.2752   -9.5674   22.4771 H   0  0  0  0  0  0
  -23.9993   -7.4620   22.7474 H   0  0  0  0  0  0
  -21.0842   -8.8783   19.8943 H   0  0  0  0  0  0
  -22.3713  -10.9673   19.6171 H   0  0  0  0  0  0
  -21.2015   -7.6144   23.9724 H   0  0  0  0  0  0
  -21.1482   -6.0513   25.9079 H   0  0  0  0  0  0
  -22.0598   -2.7611   23.2842 H   0  0  0  0  0  0
  -22.4076  -11.9870   22.4796 H   0  0  0  0  0  0
  -21.1104  -13.1268   22.2633 H   0  0  0  0  0  0
  -24.6349  -15.8286   20.4952 H   0  0  0  0  0  0
  -26.2582  -15.6253   20.0701 H   0  0  0  0  0  0
  -26.7136  -32.5538   23.1146 H   0  0  0  0  0  0
  -25.0116  -33.9775   25.0508 H   0  0  0  0  0  0
  -22.6919  -31.3044   21.4084 H   0  0  0  0  0  0
  -23.3740  -35.9654   23.3302 H   0  0  0  0  0  0
  -24.3585  -36.8912   22.2044 H   0  0  0  0  0  0
  -23.7252  -37.6526   23.6638 H   0  0  0  0  0  0
  -26.0451  -31.5980   20.5930 H   0  0  0  0  0  0
  -26.8193  -30.8856   21.9814 H   0  0  0  0  0  0
  -28.1053  -29.1044   21.1624 H   0  0  0  0  0  0
  -26.0683  -25.9621   19.0235 H   0  0  0  0  0  0
  -23.9865  -27.2839   19.0395 H   0  0  0  0  0  0
  -23.7234  -30.5908   19.4031 H   0  0  0  0  0  0
  -22.7379  -29.2371   19.8692 H   0  0  0  0  0  0
  -25.1288  -36.1974   25.0820 H   0  0  0  0  0  0
  -20.9946  -28.3227   24.1473 H   0  0  0  0  0  0
  -20.5675  -26.2281   23.3614 H   0  0  0  0  0  0
  -21.6680  -26.7456   22.1261 H   0  0  0  0  0  0
  -19.6986  -25.6343   21.1182 H   0  0  0  0  0  0
  -19.6784  -27.3255   20.6777 H   0  0  0  0  0  0
  -17.4260  -26.6662   21.3978 H   0  0  0  0  0  0
  -18.0375  -26.0041   22.8976 H   0  0  0  0  0  0
  -19.7894  -30.7259   24.2292 H   0  0  0  0  0  0
  -17.4981  -31.6242   24.5142 H   0  0  0  0  0  0
  -15.5339  -30.2954   23.7602 H   0  0  0  0  0  0
  -15.8690  -28.0788   22.7019 H   0  0  0  0  0  0
  -24.5917  -30.7089   25.7795 H   0  0  0  0  0  0
  -24.8972  -32.2878   26.4921 H   0  0  0  0  0  0
  -25.8101  -30.8875   27.0201 H   0  0  0  0  0  0
  -26.2867  -29.6784   24.1164 H   0  0  0  0  0  0
  -27.4109  -29.7295   25.4559 H   0  0  0  0  0  0
  -27.8697  -30.4340   23.9227 H   0  0  0  0  0  0
  -27.2689  -33.3594   26.2103 H   0  0  0  0  0  0
  -28.3859  -32.6918   25.0293 H   0  0  0  0  0  0
  -28.0766  -31.8409   26.5349 H   0  0  0  0  0  0
  -28.2618  -38.0105   24.7495 H   0  0  0  0  0  0
  -28.1071  -36.2629   24.6300 H   0  0  0  0  0  0
  -27.2297  -37.1478   25.8869 H   0  0  0  0  0  0
  -20.9269  -29.8862   21.7075 H   0  0  0  0  0  0
  -26.0187  -38.2869   24.1398 H   0  0  0  0  0  0
  -29.8049  -19.6601   23.7784 H   0  0  0  0  0  0
  -28.0357  -19.6286   23.7192 H   0  0  0  0  0  0
  -28.8978  -21.1574   23.9281 H   0  0  0  0  0  0
  -26.9691  -17.8413   21.3986 H   0  0  0  0  0  0
  -27.6157  -16.2203   21.5217 H   0  0  0  0  0  0
  -27.7048  -17.0966   19.9870 H   0  0  0  0  0  0
  -27.0377  -23.0834   19.9494 H   0  0  0  0  0  0
  -27.8395  -22.7711   18.4608 H   0  0  0  0  0  0
  -28.8217  -24.7453   18.6179 H   0  0  0  0  0  0
  -29.8934  -24.0829   19.8097 H   0  0  0  0  0  0
  -31.2502  -17.1729   21.5263 H   0  0  0  0  0  0
  -30.5170  -17.0659   19.9418 H   0  0  0  0  0  0
  -28.8255  -25.2453   21.5465 H   0  0  0  0  0  0
  -27.2453  -25.0834   20.8762 H   0  0  0  0  0  0
  -29.1729  -17.7602   22.5619 H   0  0  0  0  0  0
  -29.1847  -15.2086   21.6242 H   0  0  0  0  0  0
  1 25  1  0  0  0
  1 30  2  0  0  0
  1 84  1  0  0  0
  2  3  1  0  0  0
  2 25  1  0  0  0
  2 85  1  0  0  0
  2 86  1  0  0  0
  3  4  1  0  0  0
  3 87  1  0  0  0
  3 88  1  0  0  0
  4  5  1  0  0  0
  4 89  1  0  0  0
  4 90  1  0  0  0
  5  6  1  0  0  0
  5 26  1  0  0  0
  5 91  1  0  0  0
  6 25  1  0  0  0
  6 92  1  0  0  0
  6 93  1  0  0  0
  7  8  2  0  0  0
  7 26  1  0  0  0
  7 29  1  0  0  0
  8  9  1  0  0  0
  8 22  1  0  0  0
  9 10  1  0  0  0
  9 27  2  0  0  0
 10 11  2  0  0  0
 10 15  1  0  0  0
 11 12  1  0  0  0
 11 94  1  0  0  0
 12 13  2  0  0  0
 12 95  1  0  0  0
 13 14  1  0  0  0
 13 31  1  0  0  0
 14 15  2  0  0  0
 14 96  1  0  0  0
 15 97  1  0  0  0
 16 17  2  0  0  0
 16 21  1  0  0  0
 16 31  1  0  0  0
 17 18  1  0  0  0
 17 98  1  0  0  0
 18 19  2  0  0  0
 18 99  1  0  0  0
 19 20  1  0  0  0
 19 24  1  0  0  0
 20 21  2  0  0  0
 20100  1  0  0  0
 21 23  1  0  0  0
 22 28  1  0  0  0
 22 32  2  0  0  0
 26 27  1  0  0  0
 28101  1  0  0  0
 28102  1  0  0  0
 29103  1  0  0  0
 29104  1  0  0  0
 33 34  1  0  0  0
 33 66  1  0  0  0
 33 70  2  0  0  0
 34 36  1  0  0  0
 34 59  1  0  0  0
 34105  1  0  0  0
 35 44  2  0  0  0
 35 45  1  0  0  0
 35 68  1  0  0  0
 36 56  1  0  0  0
 36106  1  0  0  0
 37 39  1  0  0  0
 37 47  1  0  0  0
 37 66  1  0  0  0
 37107  1  0  0  0
 38 43  2  0  0  0
 38 46  1  0  0  0
 38 47  1  0  0  0
 39 64  1  0  0  0
 39 67  2  0  0  0
 40 52  1  0  0  0
 40 53  2  0  0  0
 40 58  1  0  0  0
 41108  1  0  0  0
 41109  1  0  0  0
 41110  1  0  0  0
 41 48  1  0  0  0
 42 43  1  0  0  0
 42 66  1  0  0  0
 42111  1  0  0  0
 42112  1  0  0  0
 43 44  1  0  0  0
 44113  1  0  0  0
 45 46  2  0  0  0
 45114  1  0  0  0
 46115  1  0  0  0
 47116  1  0  0  0
 47117  1  0  0  0
 48 56  1  0  0  0
 48 65  1  0  0  0
 48118  1  0  0  0
 49 50  1  0  0  0
 49 53  1  0  0  0
 49 64  1  0  0  0
 49119  1  0  0  0
 50 51  1  0  0  0
 50120  1  0  0  0
 50121  1  0  0  0
 51 52  1  0  0  0
 51122  1  0  0  0
 51123  1  0  0  0
 52124  1  0  0  0
 52125  1  0  0  0
 53 54  1  0  0  0
 54 55  2  0  0  0
 54126  1  0  0  0
 55 57  1  0  0  0
 55127  1  0  0  0
 56 69  2  0  0  0
 57 58  2  0  0  0
 57128  1  0  0  0
 58129  1  0  0  0
 59 60  1  0  0  0
 59 61  1  0  0  0
 59 62  1  0  0  0
 60130  1  0  0  0
 60131  1  0  0  0
 60132  1  0  0  0
 61133  1  0  0  0
 61134  1  0  0  0
 61135  1  0  0  0
 62136  1  0  0  0
 62137  1  0  0  0
 62138  1  0  0  0
 63 65  1  0  0  0
 63139  1  0  0  0
 63140  1  0  0  0
 63141  1  0  0  0
 64142  1  0  0  0
 65143  1  0  0  0
 68 79  1  0  0  0
 71 72  2  0  0  0
 71 74  1  0  0  0
 71 81  1  0  0  0
 72 80  1  0  0  0
 72 82  1  0  0  0
 73 76  1  0  0  0
 73 81  2  0  0  0
 73 83  1  0  0  0
 74144  1  0  0  0
 74145  1  0  0  0
 74146  1  0  0  0
 75147  1  0  0  0
 75148  1  0  0  0
 75149  1  0  0  0
 75 80  1  0  0  0
 76 77  1  0  0  0
 76150  1  0  0  0
 76151  1  0  0  0
 77 79  1  0  0  0
 77152  1  0  0  0
 77153  1  0  0  0
 78 80  1  0  0  0
 78 84  1  0  0  0
 78154  1  0  0  0
 78155  1  0  0  0
 79156  1  0  0  0
 79157  1  0  0  0
 80158  1  0  0  0
 82 83  2  0  0  0
 84159  1  0  0  0
M  ISO  4   1 100  68 101  79 101  84 100
M  END
> <chiral flag>
0

> <version>
0

> <s_m_source_file>
/data/baiqing/PycharmProjects/Reinvent-master-3.2/result/LINK_invent/BTK/process_docking_weight1_custom_sum_contain_oxygen_bond_distance_aromatic_linkinvent_7_9_3/rearranged_h_0078.sdf

> <i_m_source_file_index>
12

> <r_mmod_Potential_Energy-OPLS-2005>
-128.85774230957

> <r_mmod_Stretch_Energy-OPLS-2005>
41.6394577026367

> <r_mmod_Bend_Energy-OPLS-2005>
102.08048248291

> <r_mmod_Torsional_Energy-OPLS-2005>
227.966735839844

> <r_mmod_Improper_Torsional_Energy-OPLS-2005>
6.38632297515869

> <r_mmod_Van_der_Waal_Energy-OPLS-2005>
162.815719604492

> <r_mmod_Electrostatic_Energy-OPLS-2005>
-446.645782470703

> <r_mmod_Solvation_Energy-OPLS-2005>
-235.35302734375

> <b_mmod_Minimization_Converged-OPLS-2005>
0

> <r_mmod_RMS_Derivative-OPLS-2005>
1.83942329883575

$$$$
12
                    3D
 Structure written by MMmdl.
162170  0  0  1  0            999 V2000
  -30.6657  -14.5315   20.5587 C   0  0  0  0  0  0
  -30.4340  -12.3435   19.4199 C   0  0  0  0  0  0
  -29.4942  -12.4987   18.2049 C   0  0  0  0  0  0
  -28.0175  -12.3516   18.6235 C   0  0  0  0  0  0
  -27.6577  -13.2057   19.8676 C   0  0  2  0  0  0
  -28.7031  -13.0063   20.9872 C   0  0  0  0  0  0
  -25.2584  -13.8148   20.5674 C   0  0  0  0  0  0
  -24.1839  -13.0429   20.9198 C   0  0  0  0  0  0
  -24.6396  -11.6898   20.8756 C   0  0  0  0  0  0
  -23.9062  -10.4289   21.0416 C   0  0  0  0  0  0
  -24.3617   -9.4205   21.9190 C   0  0  0  0  0  0
  -23.6293   -8.2238   22.0757 C   0  0  0  0  0  0
  -22.4275   -8.0281   21.3544 C   0  0  0  0  0  0
  -21.9911   -9.0254   20.4648 C   0  0  0  0  0  0
  -22.7239  -10.2135   20.3058 C   0  0  0  0  0  0
  -21.6851   -6.0736   22.5281 C   0  0  0  0  0  0
  -21.4011   -6.5641   23.8214 C   0  0  0  0  0  0
  -21.3655   -5.6792   24.9177 C   0  0  0  0  0  0
  -21.6044   -4.3056   24.7229 C   0  0  0  0  0  0
  -21.8818   -3.8150   23.4350 C   0  0  0  0  0  0
  -21.9193   -4.6966   22.3406 C   0  0  0  0  0  0
  -22.7866  -13.5232   21.1863 C   0  0  0  0  0  0
  -22.1663   -4.2154   21.0982 F   0  0  0  0  0  0
  -21.5629   -3.4540   25.7741 F   0  0  0  0  0  0
  -30.0239  -13.3360   20.4262 N   0  0  0  0  0  0
  -26.3010  -12.9314   20.3338 N   0  0  0  0  0  0
  -25.9318  -11.6479   20.5765 N   0  0  0  0  0  0
  -22.0505  -12.8215   22.0407 N   0  0  0  0  0  0
  -25.4312  -15.1862   20.4064 N   0  0  0  0  0  0
  -31.8135  -14.7217   20.1492 O   0  0  0  0  0  0
  -21.6635   -6.8880   21.4242 O   0  0  0  0  0  0
  -22.3559  -14.5547   20.6725 O   0  0  0  0  0  0
  -24.6162  -31.8668   23.2057 C   0  0  0  0  0  0
  -25.9044  -32.4818   23.8367 C   0  0  1  0  0  0
  -27.2389  -27.4104   20.1052 C   0  0  0  0  0  0
  -25.5895  -33.8613   24.2296 N   0  0  0  0  0  0
  -23.4059  -30.4859   21.5469 C   0  0  2  0  0  0
  -24.8561  -28.9436   20.1178 C   0  0  0  0  0  0
  -22.7420  -29.4646   22.4990 C   0  0  0  0  0  0
  -18.0281  -28.1369   22.8493 C   0  0  0  0  0  0
  -24.1490  -36.7314   23.2636 C   0  0  0  0  0  0
  -25.9358  -30.8253   21.3610 C   0  0  0  0  0  0
  -26.0173  -29.4558   20.7105 C   0  0  0  0  0  0
  -27.2154  -28.6989   20.6948 C   0  0  0  0  0  0
  -26.0596  -26.9106   19.5174 C   0  0  0  0  0  0
  -24.8722  -27.6712   19.5195 C   0  0  0  0  0  0
  -23.6166  -29.8117   20.1649 C   0  0  0  0  0  0
  -25.4117  -36.3104   24.0326 C   0  0  1  0  0  0
  -20.5872  -28.3660   23.1314 C   0  0  2  0  0  0
  -20.6770  -26.9396   22.5418 C   0  0  0  0  0  0
  -19.5743  -26.6380   21.5210 C   0  0  0  0  0  0
  -18.1915  -26.7915   22.1616 C   0  0  0  0  0  0
  -19.1531  -28.8829   23.2892 C   0  0  0  0  0  0
  -18.9460  -30.1434   23.8909 C   0  0  0  0  0  0
  -17.6463  -30.6578   24.0562 C   0  0  0  0  0  0
  -25.9044  -34.9471   23.5104 C   0  0  0  0  0  0
  -16.5352  -29.9079   23.6323 C   0  0  0  0  0  0
  -16.7269  -28.6489   23.0354 C   0  0  0  0  0  0
  -26.4462  -31.6619   25.0713 C   0  0  0  0  0  0
  -25.3718  -31.3745   26.1466 C   0  0  0  0  0  0
  -27.0303  -30.3062   24.6107 C   0  0  0  0  0  0
  -27.6019  -32.4353   25.7478 C   0  0  0  0  0  0
  -27.5587  -37.1795   24.8451 C   0  0  0  0  0  0
  -21.4147  -29.3024   22.3724 N   0  0  0  0  0  0
  -26.4295  -37.3794   23.9409 N   0  0  0  0  0  0
  -24.6710  -31.0738   22.0963 N   0  0  0  0  0  0
  -23.4185  -28.8211   23.3058 O   0  0  0  0  0  0
  -28.3965  -26.6565   20.0651 O   0  0  0  0  0  0
  -26.5618  -34.8923   22.4676 O   0  0  0  0  0  0
  -23.5348  -32.1439   23.7430 O   0  0  0  0  0  0
  -29.6419  -20.4405   20.5494 C   0  0  0  0  0  0
  -28.0265  -18.8223   19.7898 C   0  0  0  0  0  0
  -29.3464  -19.0917   20.1921 C   0  0  0  0  0  0
  -28.6254  -21.4373   20.4939 C   0  0  0  0  0  0
  -27.3417  -21.0282   20.0829 C   0  0  0  0  0  0
  -31.8219  -18.4387   19.9859 C   0  0  0  0  0  0
  -25.0344  -21.5416   19.5983 C   0  0  0  0  0  0
  -28.8587  -22.8796   21.0103 C   0  0  0  0  0  0
  -28.5638  -24.0985   20.0655 C   0  0  0  0  0  0
  -30.2915  -16.9327   21.3631 C   0  0  0  0  0  0
  -28.4052  -25.4420   20.8501 C   0  0  0  0  0  0
  -30.3787  -17.9313   20.1590 C   0  0  1  0  0  0
  -27.0549  -19.7549   19.7326 N   0  0  0  0  0  0
  -29.9052  -15.5411   21.0384 N   0  0  0  0  0  0
  -26.3173  -21.9511   20.0640 O   0  0  0  0  0  0
  -31.4738  -12.4694   19.1120 H   0  0  0  0  0  0
  -30.3646  -11.3370   19.8356 H   0  0  0  0  0  0
  -29.7385  -11.7564   17.4438 H   0  0  0  0  0  0
  -29.6480  -13.4746   17.7408 H   0  0  0  0  0  0
  -27.8410  -11.2965   18.8388 H   0  0  0  0  0  0
  -27.3616  -12.6027   17.7900 H   0  0  0  0  0  0
  -27.6933  -14.2489   19.5532 H   0  0  0  0  0  0
  -28.6967  -11.9710   21.3306 H   0  0  0  0  0  0
  -28.4605  -13.6072   21.8647 H   0  0  0  0  0  0
  -25.2756   -9.5679   22.4770 H   0  0  0  0  0  0
  -24.0001   -7.4625   22.7470 H   0  0  0  0  0  0
  -21.0848   -8.8783   19.8946 H   0  0  0  0  0  0
  -22.3707  -10.9683   19.6178 H   0  0  0  0  0  0
  -21.2000   -7.6147   23.9722 H   0  0  0  0  0  0
  -21.1474   -6.0521   25.9079 H   0  0  0  0  0  0
  -22.0599   -2.7612   23.2851 H   0  0  0  0  0  0
  -22.4122  -11.9863   22.4769 H   0  0  0  0  0  0
  -21.1128  -13.1245   22.2630 H   0  0  0  0  0  0
  -24.6626  -15.8399   20.5070 H   0  0  0  0  0  0
  -26.2738  -15.6162   20.0485 H   0  0  0  0  0  0
  -26.7123  -32.5539   23.1137 H   0  0  0  0  0  0
  -25.0011  -33.9762   25.0416 H   0  0  0  0  0  0
  -22.6946  -31.3014   21.4022 H   0  0  0  0  0  0
  -23.3746  -35.9654   23.3296 H   0  0  0  0  0  0
  -24.3574  -36.8954   22.2052 H   0  0  0  0  0  0
  -23.7249  -37.6508   23.6678 H   0  0  0  0  0  0
  -26.0453  -31.5911   20.5910 H   0  0  0  0  0  0
  -26.8215  -30.8819   21.9829 H   0  0  0  0  0  0
  -28.1149  -29.0946   21.1446 H   0  0  0  0  0  0
  -26.0629  -25.9348   19.0527 H   0  0  0  0  0  0
  -23.9794  -27.2687   19.0607 H   0  0  0  0  0  0
  -23.7205  -30.5826   19.4004 H   0  0  0  0  0  0
  -22.7417  -29.2284   19.8740 H   0  0  0  0  0  0
  -25.1289  -36.1950   25.0818 H   0  0  0  0  0  0
  -20.9949  -28.3252   24.1437 H   0  0  0  0  0  0
  -20.5675  -26.2276   23.3619 H   0  0  0  0  0  0
  -21.6635  -26.7453   22.1199 H   0  0  0  0  0  0
  -19.6912  -25.6291   21.1239 H   0  0  0  0  0  0
  -19.6684  -27.3193   20.6741 H   0  0  0  0  0  0
  -17.4188  -26.6674   21.4011 H   0  0  0  0  0  0
  -18.0304  -26.0048   22.9003 H   0  0  0  0  0  0
  -19.7943  -30.7232   24.2295 H   0  0  0  0  0  0
  -17.5025  -31.6270   24.5152 H   0  0  0  0  0  0
  -15.5344  -30.2985   23.7652 H   0  0  0  0  0  0
  -15.8669  -28.0817   22.7069 H   0  0  0  0  0  0
  -24.5867  -30.7117   25.7806 H   0  0  0  0  0  0
  -24.8918  -32.2898   26.4929 H   0  0  0  0  0  0
  -25.8041  -30.8900   27.0225 H   0  0  0  0  0  0
  -26.2850  -29.6819   24.1163 H   0  0  0  0  0  0
  -27.4067  -29.7315   25.4579 H   0  0  0  0  0  0
  -27.8687  -30.4376   23.9264 H   0  0  0  0  0  0
  -27.2631  -33.3665   26.2047 H   0  0  0  0  0  0
  -28.3835  -32.6922   25.0307 H   0  0  0  0  0  0
  -28.0690  -31.8490   26.5406 H   0  0  0  0  0  0
  -28.2574  -38.0123   24.7544 H   0  0  0  0  0  0
  -28.1109  -36.2645   24.6225 H   0  0  0  0  0  0
  -27.2295  -37.1394   25.8850 H   0  0  0  0  0  0
  -20.9320  -29.8761   21.6955 H   0  0  0  0  0  0
  -26.0180  -38.2865   24.1427 H   0  0  0  0  0  0
  -30.6331  -20.7137   20.8802 H   0  0  0  0  0  0
  -27.7400  -17.8236   19.4933 H   0  0  0  0  0  0
  -31.9123  -19.0921   19.1174 H   0  0  0  0  0  0
  -32.5091  -17.6051   19.8359 H   0  0  0  0  0  0
  -32.1689  -18.9868   20.8634 H   0  0  0  0  0  0
  -24.3718  -22.4061   19.5656 H   0  0  0  0  0  0
  -24.5849  -20.8065   20.2670 H   0  0  0  0  0  0
  -25.0833  -21.1260   18.5908 H   0  0  0  0  0  0
  -29.8803  -22.9639   21.3829 H   0  0  0  0  0  0
  -28.2269  -22.9772   21.8936 H   0  0  0  0  0  0
  -27.6509  -23.9413   19.4929 H   0  0  0  0  0  0
  -29.3638  -24.1828   19.3298 H   0  0  0  0  0  0
  -29.5811  -17.3088   22.1009 H   0  0  0  0  0  0
  -31.2457  -16.8970   21.8919 H   0  0  0  0  0  0
  -29.2464  -25.5333   21.5390 H   0  0  0  0  0  0
  -27.5202  -25.3827   21.4866 H   0  0  0  0  0  0
  -30.1562  -17.3696   19.2497 H   0  0  0  0  0  0
  -28.9623  -15.2816   21.2881 H   0  0  0  0  0  0
  1 25  1  0  0  0
  1 30  2  0  0  0
  1 84  1  0  0  0
  2  3  1  0  0  0
  2 25  1  0  0  0
  2 86  1  0  0  0
  2 87  1  0  0  0
  3  4  1  0  0  0
  3 88  1  0  0  0
  3 89  1  0  0  0
  4  5  1  0  0  0
  4 90  1  0  0  0
  4 91  1  0  0  0
  5  6  1  0  0  0
  5 26  1  0  0  0
  5 92  1  0  0  0
  6 25  1  0  0  0
  6 93  1  0  0  0
  6 94  1  0  0  0
  7  8  2  0  0  0
  7 26  1  0  0  0
  7 29  1  0  0  0
  8  9  1  0  0  0
  8 22  1  0  0  0
  9 10  1  0  0  0
  9 27  2  0  0  0
 10 11  2  0  0  0
 10 15  1  0  0  0
 11 12  1  0  0  0
 11 95  1  0  0  0
 12 13  2  0  0  0
 12 96  1  0  0  0
 13 14  1  0  0  0
 13 31  1  0  0  0
 14 15  2  0  0  0
 14 97  1  0  0  0
 15 98  1  0  0  0
 16 17  2  0  0  0
 16 21  1  0  0  0
 16 31  1  0  0  0
 17 18  1  0  0  0
 17 99  1  0  0  0
 18 19  2  0  0  0
 18100  1  0  0  0
 19 20  1  0  0  0
 19 24  1  0  0  0
 20 21  2  0  0  0
 20101  1  0  0  0
 21 23  1  0  0  0
 22 28  1  0  0  0
 22 32  2  0  0  0
 26 27  1  0  0  0
 28102  1  0  0  0
 28103  1  0  0  0
 29104  1  0  0  0
 29105  1  0  0  0
 33 34  1  0  0  0
 33 66  1  0  0  0
 33 70  2  0  0  0
 34 36  1  0  0  0
 34 59  1  0  0  0
 34106  1  0  0  0
 35 44  2  0  0  0
 35 45  1  0  0  0
 35 68  1  0  0  0
 36 56  1  0  0  0
 36107  1  0  0  0
 37 39  1  0  0  0
 37 47  1  0  0  0
 37 66  1  0  0  0
 37108  1  0  0  0
 38 43  2  0  0  0
 38 46  1  0  0  0
 38 47  1  0  0  0
 39 64  1  0  0  0
 39 67  2  0  0  0
 40 52  1  0  0  0
 40 53  2  0  0  0
 40 58  1  0  0  0
 41109  1  0  0  0
 41110  1  0  0  0
 41111  1  0  0  0
 41 48  1  0  0  0
 42 43  1  0  0  0
 42 66  1  0  0  0
 42112  1  0  0  0
 42113  1  0  0  0
 43 44  1  0  0  0
 44114  1  0  0  0
 45 46  2  0  0  0
 45115  1  0  0  0
 46116  1  0  0  0
 47117  1  0  0  0
 47118  1  0  0  0
 48 56  1  0  0  0
 48 65  1  0  0  0
 48119  1  0  0  0
 49 50  1  0  0  0
 49 53  1  0  0  0
 49 64  1  0  0  0
 49120  1  0  0  0
 50 51  1  0  0  0
 50121  1  0  0  0
 50122  1  0  0  0
 51 52  1  0  0  0
 51123  1  0  0  0
 51124  1  0  0  0
 52125  1  0  0  0
 52126  1  0  0  0
 53 54  1  0  0  0
 54 55  2  0  0  0
 54127  1  0  0  0
 55 57  1  0  0  0
 55128  1  0  0  0
 56 69  2  0  0  0
 57 58  2  0  0  0
 57129  1  0  0  0
 58130  1  0  0  0
 59 60  1  0  0  0
 59 61  1  0  0  0
 59 62  1  0  0  0
 60131  1  0  0  0
 60132  1  0  0  0
 60133  1  0  0  0
 61134  1  0  0  0
 61135  1  0  0  0
 61136  1  0  0  0
 62137  1  0  0  0
 62138  1  0  0  0
 62139  1  0  0  0
 63 65  1  0  0  0
 63140  1  0  0  0
 63141  1  0  0  0
 63142  1  0  0  0
 64143  1  0  0  0
 65144  1  0  0  0
 68 81  1  0  0  0
 71 73  2  0  0  0
 71 74  1  0  0  0
 71145  1  0  0  0
 72 73  1  0  0  0
 72 83  2  0  0  0
 72146  1  0  0  0
 73 82  1  0  0  0
 74 75  2  0  0  0
 74 78  1  0  0  0
 75 83  1  0  0  0
 75 85  1  0  0  0
 76147  1  0  0  0
 76148  1  0  0  0
 76149  1  0  0  0
 76 82  1  0  0  0
 77 85  1  0  0  0
 77150  1  0  0  0
 77151  1  0  0  0
 77152  1  0  0  0
 78 79  1  0  0  0
 78153  1  0  0  0
 78154  1  0  0  0
 79 81  1  0  0  0
 79155  1  0  0  0
 79156  1  0  0  0
 80 82  1  0  0  0
 80 84  1  0  0  0
 80157  1  0  0  0
 80158  1  0  0  0
 81159  1  0  0  0
 81160  1  0  0  0
 82161  1  0  0  0
 84162  1  0  0  0
M  ISO  4   1 100  68 101  81 101  84 100
M  END
> <chiral flag>
0

> <version>
0

> <s_m_source_file>
/data/baiqing/PycharmProjects/Reinvent-master-3.2/result/LINK_invent/BTK/process_docking_weight1_custom_sum_contain_oxygen_bond_distance_aromatic_linkinvent_7_9_3/rearranged_h_0078.sdf

> <i_m_source_file_index>
13

> <r_mmod_Potential_Energy-OPLS-2005>
-241.788711547852

> <r_mmod_Stretch_Energy-OPLS-2005>
47.85009765625

> <r_mmod_Bend_Energy-OPLS-2005>
115.075393676758

> <r_mmod_Torsional_Energy-OPLS-2005>
234.280151367188

> <r_mmod_Improper_Torsional_Energy-OPLS-2005>
3.94019508361816

> <r_mmod_Van_der_Waal_Energy-OPLS-2005>
150.951217651367

> <r_mmod_Electrostatic_Energy-OPLS-2005>
-601.581726074219

> <r_mmod_Solvation_Energy-OPLS-2005>
-211.188278198242

> <b_mmod_Minimization_Converged-OPLS-2005>
0

> <r_mmod_RMS_Derivative-OPLS-2005>
1.98367547988892

$$$$
13
                    3D
 Structure written by MMmdl.
172180  0  0  1  0            999 V2000
  -30.7092  -14.5148   20.5741 C   0  0  0  0  0  0
  -30.4270  -12.3401   19.4351 C   0  0  0  0  0  0
  -29.5033  -12.5150   18.2116 C   0  0  0  0  0  0
  -28.0251  -12.3644   18.6234 C   0  0  0  0  0  0
  -27.6586  -13.2165   19.8699 C   0  0  2  0  0  0
  -28.7002  -13.0322   20.9968 C   0  0  0  0  0  0
  -25.2541  -13.8166   20.5676 C   0  0  0  0  0  0
  -24.1814  -13.0411   20.9163 C   0  0  0  0  0  0
  -24.6392  -11.6887   20.8695 C   0  0  0  0  0  0
  -23.9065  -10.4265   21.0366 C   0  0  0  0  0  0
  -24.3612   -9.4196   21.9160 C   0  0  0  0  0  0
  -23.6281   -8.2236   22.0742 C   0  0  0  0  0  0
  -22.4260   -8.0276   21.3545 C   0  0  0  0  0  0
  -21.9889   -9.0229   20.4635 C   0  0  0  0  0  0
  -22.7223  -10.2107   20.3040 C   0  0  0  0  0  0
  -21.6855   -6.0716   22.5269 C   0  0  0  0  0  0
  -21.4020   -6.5616   23.8210 C   0  0  0  0  0  0
  -21.3664   -5.6768   24.9168 C   0  0  0  0  0  0
  -21.6059   -4.3037   24.7228 C   0  0  0  0  0  0
  -21.8826   -3.8123   23.4348 C   0  0  0  0  0  0
  -21.9194   -4.6935   22.3401 C   0  0  0  0  0  0
  -22.7838  -13.5198   21.1840 C   0  0  0  0  0  0
  -22.1664   -4.2118   21.0977 F   0  0  0  0  0  0
  -21.5630   -3.4535   25.7746 F   0  0  0  0  0  0
  -30.0281  -13.3410   20.4404 N   0  0  0  0  0  0
  -26.3000  -12.9361   20.3324 N   0  0  0  0  0  0
  -25.9327  -11.6502   20.5732 N   0  0  0  0  0  0
  -22.0492  -12.8181   22.0404 N   0  0  0  0  0  0
  -25.4183  -15.1898   20.4111 N   0  0  0  0  0  0
  -31.8398  -14.6743   20.1078 O   0  0  0  0  0  0
  -21.6636   -6.8858   21.4237 O   0  0  0  0  0  0
  -22.3515  -14.5503   20.6695 O   0  0  0  0  0  0
  -24.6178  -31.8665   23.2074 C   0  0  0  0  0  0
  -25.9052  -32.4825   23.8388 C   0  0  1  0  0  0
  -27.2308  -27.4017   20.0961 C   0  0  0  0  0  0
  -25.5886  -33.8621   24.2313 N   0  0  0  0  0  0
  -23.4074  -30.4910   21.5484 C   0  0  2  0  0  0
  -24.8525  -28.9548   20.1106 C   0  0  0  0  0  0
  -22.7424  -29.4663   22.4967 C   0  0  0  0  0  0
  -18.0275  -28.1380   22.8500 C   0  0  0  0  0  0
  -24.1481  -36.7323   23.2641 C   0  0  0  0  0  0
  -25.9398  -30.8222   21.3648 C   0  0  0  0  0  0
  -26.0149  -29.4548   20.7100 C   0  0  0  0  0  0
  -27.2053  -28.6866   20.6967 C   0  0  0  0  0  0
  -26.0496  -26.9328   19.4753 C   0  0  0  0  0  0
  -24.8675  -27.6961   19.4873 C   0  0  0  0  0  0
  -23.6159  -29.8250   20.1626 C   0  0  0  0  0  0
  -25.4104  -36.3122   24.0339 C   0  0  1  0  0  0
  -20.5870  -28.3677   23.1304 C   0  0  2  0  0  0
  -20.6761  -26.9408   22.5413 C   0  0  0  0  0  0
  -19.5734  -26.6386   21.5214 C   0  0  0  0  0  0
  -18.1916  -26.7927   22.1632 C   0  0  0  0  0  0
  -19.1526  -28.8841   23.2907 C   0  0  0  0  0  0
  -18.9453  -30.1441   23.8930 C   0  0  0  0  0  0
  -17.6456  -30.6588   24.0569 C   0  0  0  0  0  0
  -25.9029  -34.9485   23.5128 C   0  0  0  0  0  0
  -16.5347  -29.9098   23.6312 C   0  0  0  0  0  0
  -16.7264  -28.6508   23.0348 C   0  0  0  0  0  0
  -26.4444  -31.6618   25.0738 C   0  0  0  0  0  0
  -25.3684  -31.3744   26.1476 C   0  0  0  0  0  0
  -27.0263  -30.3056   24.6131 C   0  0  0  0  0  0
  -27.6023  -32.4337   25.7491 C   0  0  0  0  0  0
  -27.5582  -37.1818   24.8462 C   0  0  0  0  0  0
  -21.4148  -29.3048   22.3707 N   0  0  0  0  0  0
  -26.4295  -37.3806   23.9405 N   0  0  0  0  0  0
  -24.6737  -31.0744   22.0985 N   0  0  0  0  0  0
  -23.4180  -28.8202   23.3018 O   0  0  0  0  0  0
  -28.3946  -26.6481   20.1390 O   0  0  0  0  0  0
  -26.5610  -34.8937   22.4699 O   0  0  0  0  0  0
  -23.5359  -32.1427   23.7448 O   0  0  0  0  0  0
  -29.4097  -22.4019   18.9094 C   0  0  0  0  0  0
  -29.8628  -21.8375   20.9900 C   0  0  0  0  0  0
  -29.5416  -22.9319   20.2217 C   0  0  0  0  0  0
  -29.7534  -21.0688   18.8781 C   0  0  0  0  0  0
  -30.8206  -25.0644   20.2832 C   0  0  0  0  0  0
  -29.2293  -24.5357   22.1556 C   0  0  0  0  0  0
  -29.9090  -21.0894   16.3658 C   0  0  0  0  0  0
  -28.6100  -19.3108   17.4712 C   0  0  0  0  0  0
  -31.1596  -19.3660   17.5743 C   0  0  0  0  0  0
  -29.8337  -18.0736   20.6475 C   0  0  0  0  0  0
  -30.5969  -19.4363   20.7721 C   0  0  0  0  0  0
  -30.5779  -16.9120   21.3791 C   0  0  0  0  0  0
  -28.3236  -25.2160   19.9065 C   0  0  0  0  0  0
  -29.4626  -24.4232   20.6349 C   0  0  0  0  0  0
  -29.8602  -20.1986   17.6299 C   0  0  0  0  0  0
  -30.0275  -20.6912   20.2066 N   0  0  0  0  0  0
  -30.0432  -15.5484   21.1388 N   0  0  0  0  0  0
  -31.4713  -12.4394   19.1347 H   0  0  0  0  0  0
  -30.3353  -11.3364   19.8517 H   0  0  0  0  0  0
  -29.7549  -11.7858   17.4401 H   0  0  0  0  0  0
  -29.6671  -13.4962   17.7628 H   0  0  0  0  0  0
  -27.8508  -11.3086   18.8359 H   0  0  0  0  0  0
  -27.3733  -12.6195   17.7867 H   0  0  0  0  0  0
  -27.6920  -14.2616   19.5609 H   0  0  0  0  0  0
  -28.6850  -12.0072   21.3684 H   0  0  0  0  0  0
  -28.4517  -13.6595   21.8544 H   0  0  0  0  0  0
  -25.2765   -9.5666   22.4711 H   0  0  0  0  0  0
  -23.9991   -7.4633   22.7461 H   0  0  0  0  0  0
  -21.0818   -8.8749   19.8940 H   0  0  0  0  0  0
  -22.3692  -10.9633   19.6133 H   0  0  0  0  0  0
  -21.2026   -7.6125   23.9708 H   0  0  0  0  0  0
  -21.1480   -6.0495   25.9067 H   0  0  0  0  0  0
  -22.0608   -2.7585   23.2859 H   0  0  0  0  0  0
  -22.4150  -11.9879   22.4821 H   0  0  0  0  0  0
  -21.1094  -13.1169   22.2608 H   0  0  0  0  0  0
  -24.6396  -15.8311   20.5232 H   0  0  0  0  0  0
  -26.2615  -15.6444   20.0824 H   0  0  0  0  0  0
  -26.7133  -32.5517   23.1159 H   0  0  0  0  0  0
  -25.0010  -33.9771   25.0443 H   0  0  0  0  0  0
  -22.6986  -31.3100   21.4091 H   0  0  0  0  0  0
  -23.3745  -35.9654   23.3307 H   0  0  0  0  0  0
  -24.3581  -36.8936   22.2056 H   0  0  0  0  0  0
  -23.7221  -37.6524   23.6650 H   0  0  0  0  0  0
  -26.0536  -31.5859   20.5944 H   0  0  0  0  0  0
  -26.8279  -30.8776   21.9828 H   0  0  0  0  0  0
  -28.1025  -29.0685   21.1638 H   0  0  0  0  0  0
  -26.0203  -25.9775   18.9723 H   0  0  0  0  0  0
  -23.9787  -27.3080   19.0095 H   0  0  0  0  0  0
  -23.7238  -30.6018   19.4043 H   0  0  0  0  0  0
  -22.7380  -29.2475   19.8667 H   0  0  0  0  0  0
  -25.1277  -36.2000   25.0834 H   0  0  0  0  0  0
  -20.9970  -28.3249   24.1421 H   0  0  0  0  0  0
  -20.5653  -26.2290   23.3607 H   0  0  0  0  0  0
  -21.6629  -26.7440   22.1206 H   0  0  0  0  0  0
  -19.6890  -25.6297   21.1241 H   0  0  0  0  0  0
  -19.6665  -27.3198   20.6744 H   0  0  0  0  0  0
  -17.4177  -26.6678   21.4043 H   0  0  0  0  0  0
  -18.0327  -26.0067   22.9029 H   0  0  0  0  0  0
  -19.7925  -30.7246   24.2325 H   0  0  0  0  0  0
  -17.5007  -31.6270   24.5168 H   0  0  0  0  0  0
  -15.5347  -30.3011   23.7603 H   0  0  0  0  0  0
  -15.8667  -28.0829   22.7051 H   0  0  0  0  0  0
  -24.5845  -30.7111   25.7802 H   0  0  0  0  0  0
  -24.8881  -32.2906   26.4924 H   0  0  0  0  0  0
  -25.8010  -30.8899   27.0239 H   0  0  0  0  0  0
  -26.2821  -29.6858   24.1120 H   0  0  0  0  0  0
  -27.3945  -29.7264   25.4607 H   0  0  0  0  0  0
  -27.8692  -30.4371   23.9345 H   0  0  0  0  0  0
  -27.2649  -33.3630   26.2094 H   0  0  0  0  0  0
  -28.3805  -32.6917   25.0296 H   0  0  0  0  0  0
  -28.0718  -31.8449   26.5379 H   0  0  0  0  0  0
  -28.2605  -38.0112   24.7517 H   0  0  0  0  0  0
  -28.1072  -36.2646   24.6274 H   0  0  0  0  0  0
  -27.2304  -37.1459   25.8867 H   0  0  0  0  0  0
  -20.9306  -29.8790   21.6950 H   0  0  0  0  0  0
  -26.0192  -38.2890   24.1398 H   0  0  0  0  0  0
  -29.1670  -22.9896   18.0353 H   0  0  0  0  0  0
  -30.0795  -21.7915   22.0487 H   0  0  0  0  0  0
  -31.6417  -24.5553   20.7893 H   0  0  0  0  0  0
  -30.8668  -26.1158   20.5703 H   0  0  0  0  0  0
  -31.0133  -25.0113   19.2109 H   0  0  0  0  0  0
  -30.0350  -24.0757   22.7277 H   0  0  0  0  0  0
  -28.2973  -24.0508   22.4481 H   0  0  0  0  0  0
  -29.1660  -25.5771   22.4729 H   0  0  0  0  0  0
  -28.9849  -21.6514   16.2260 H   0  0  0  0  0  0
  -30.0564  -20.5025   15.4585 H   0  0  0  0  0  0
  -30.7301  -21.8056   16.4188 H   0  0  0  0  0  0
  -27.7157  -19.9187   17.3327 H   0  0  0  0  0  0
  -28.4054  -18.6871   18.3344 H   0  0  0  0  0  0
  -28.6927  -18.6571   16.6025 H   0  0  0  0  0  0
  -32.0363  -20.0046   17.6869 H   0  0  0  0  0  0
  -31.2574  -18.8486   16.6195 H   0  0  0  0  0  0
  -31.2247  -18.5886   18.3262 H   0  0  0  0  0  0
  -29.7402  -17.7712   19.6120 H   0  0  0  0  0  0
  -28.8212  -18.1759   21.0385 H   0  0  0  0  0  0
  -31.6050  -19.3270   20.3731 H   0  0  0  0  0  0
  -30.7584  -19.6106   21.8370 H   0  0  0  0  0  0
  -30.5539  -17.0997   22.4530 H   0  0  0  0  0  0
  -31.6336  -16.9511   21.1063 H   0  0  0  0  0  0
  -27.3720  -24.8042   20.2477 H   0  0  0  0  0  0
  -28.3720  -25.0531   18.8290 H   0  0  0  0  0  0
  -29.1110  -15.3533   21.4722 H   0  0  0  0  0  0
  1 25  1  0  0  0
  1 30  2  0  0  0
  1 87  1  0  0  0
  2  3  1  0  0  0
  2 25  1  0  0  0
  2 88  1  0  0  0
  2 89  1  0  0  0
  3  4  1  0  0  0
  3 90  1  0  0  0
  3 91  1  0  0  0
  4  5  1  0  0  0
  4 92  1  0  0  0
  4 93  1  0  0  0
  5  6  1  0  0  0
  5 26  1  0  0  0
  5 94  1  0  0  0
  6 25  1  0  0  0
  6 95  1  0  0  0
  6 96  1  0  0  0
  7  8  2  0  0  0
  7 26  1  0  0  0
  7 29  1  0  0  0
  8  9  1  0  0  0
  8 22  1  0  0  0
  9 10  1  0  0  0
  9 27  2  0  0  0
 10 11  2  0  0  0
 10 15  1  0  0  0
 11 12  1  0  0  0
 11 97  1  0  0  0
 12 13  2  0  0  0
 12 98  1  0  0  0
 13 14  1  0  0  0
 13 31  1  0  0  0
 14 15  2  0  0  0
 14 99  1  0  0  0
 15100  1  0  0  0
 16 17  2  0  0  0
 16 21  1  0  0  0
 16 31  1  0  0  0
 17 18  1  0  0  0
 17101  1  0  0  0
 18 19  2  0  0  0
 18102  1  0  0  0
 19 20  1  0  0  0
 19 24  1  0  0  0
 20 21  2  0  0  0
 20103  1  0  0  0
 21 23  1  0  0  0
 22 28  1  0  0  0
 22 32  2  0  0  0
 26 27  1  0  0  0
 28104  1  0  0  0
 28105  1  0  0  0
 29106  1  0  0  0
 29107  1  0  0  0
 33 34  1  0  0  0
 33 66  1  0  0  0
 33 70  2  0  0  0
 34 36  1  0  0  0
 34 59  1  0  0  0
 34108  1  0  0  0
 35 44  2  0  0  0
 35 45  1  0  0  0
 35 68  1  0  0  0
 36 56  1  0  0  0
 36109  1  0  0  0
 37 39  1  0  0  0
 37 47  1  0  0  0
 37 66  1  0  0  0
 37110  1  0  0  0
 38 43  2  0  0  0
 38 46  1  0  0  0
 38 47  1  0  0  0
 39 64  1  0  0  0
 39 67  2  0  0  0
 40 52  1  0  0  0
 40 53  2  0  0  0
 40 58  1  0  0  0
 41111  1  0  0  0
 41112  1  0  0  0
 41113  1  0  0  0
 41 48  1  0  0  0
 42 43  1  0  0  0
 42 66  1  0  0  0
 42114  1  0  0  0
 42115  1  0  0  0
 43 44  1  0  0  0
 44116  1  0  0  0
 45 46  2  0  0  0
 45117  1  0  0  0
 46118  1  0  0  0
 47119  1  0  0  0
 47120  1  0  0  0
 48 56  1  0  0  0
 48 65  1  0  0  0
 48121  1  0  0  0
 49 50  1  0  0  0
 49 53  1  0  0  0
 49 64  1  0  0  0
 49122  1  0  0  0
 50 51  1  0  0  0
 50123  1  0  0  0
 50124  1  0  0  0
 51 52  1  0  0  0
 51125  1  0  0  0
 51126  1  0  0  0
 52127  1  0  0  0
 52128  1  0  0  0
 53 54  1  0  0  0
 54 55  2  0  0  0
 54129  1  0  0  0
 55 57  1  0  0  0
 55130  1  0  0  0
 56 69  2  0  0  0
 57 58  2  0  0  0
 57131  1  0  0  0
 58132  1  0  0  0
 59 60  1  0  0  0
 59 61  1  0  0  0
 59 62  1  0  0  0
 60133  1  0  0  0
 60134  1  0  0  0
 60135  1  0  0  0
 61136  1  0  0  0
 61137  1  0  0  0
 61138  1  0  0  0
 62139  1  0  0  0
 62140  1  0  0  0
 62141  1  0  0  0
 63 65  1  0  0  0
 63142  1  0  0  0
 63143  1  0  0  0
 63144  1  0  0  0
 64145  1  0  0  0
 65146  1  0  0  0
 68 83  1  0  0  0
 71 73  1  0  0  0
 71 74  2  0  0  0
 71147  1  0  0  0
 72 73  2  0  0  0
 72 86  1  0  0  0
 72148  1  0  0  0
 73 84  1  0  0  0
 74 85  1  0  0  0
 74 86  1  0  0  0
 75149  1  0  0  0
 75150  1  0  0  0
 75151  1  0  0  0
 75 84  1  0  0  0
 76 84  1  0  0  0
 76152  1  0  0  0
 76153  1  0  0  0
 76154  1  0  0  0
 77155  1  0  0  0
 77156  1  0  0  0
 77157  1  0  0  0
 77 85  1  0  0  0
 78 85  1  0  0  0
 78158  1  0  0  0
 78159  1  0  0  0
 78160  1  0  0  0
 79 85  1  0  0  0
 79161  1  0  0  0
 79162  1  0  0  0
 79163  1  0  0  0
 80 81  1  0  0  0
 80 82  1  0  0  0
 80164  1  0  0  0
 80165  1  0  0  0
 81 86  1  0  0  0
 81166  1  0  0  0
 81167  1  0  0  0
 82 87  1  0  0  0
 82168  1  0  0  0
 82169  1  0  0  0
 83 84  1  0  0  0
 83170  1  0  0  0
 83171  1  0  0  0
 87172  1  0  0  0
M  ISO  4   1 100  68 101  83 101  87 100
M  END
> <chiral flag>
0

> <version>
0

> <s_m_source_file>
/data/baiqing/PycharmProjects/Reinvent-master-3.2/result/LINK_invent/BTK/process_docking_weight1_custom_sum_contain_oxygen_bond_distance_aromatic_linkinvent_7_9_3/rearranged_h_0078.sdf

> <i_m_source_file_index>
14

> <r_mmod_Potential_Energy-OPLS-2005>
-52.6757583618164

> <r_mmod_Stretch_Energy-OPLS-2005>
51.8461875915527

> <r_mmod_Bend_Energy-OPLS-2005>
139.173614501953

> <r_mmod_Torsional_Energy-OPLS-2005>
220.897552490234

> <r_mmod_Improper_Torsional_Energy-OPLS-2005>
4.48349142074585

> <r_mmod_Van_der_Waal_Energy-OPLS-2005>
139.73616027832

> <r_mmod_Electrostatic_Energy-OPLS-2005>
-433.489166259766

> <r_mmod_Solvation_Energy-OPLS-2005>
-194.485733032227

> <b_mmod_Minimization_Converged-OPLS-2005>
0

> <r_mmod_RMS_Derivative-OPLS-2005>
1.98340368270874

$$$$
14
                    3D
 Structure written by MMmdl.
169177  0  0  1  0            999 V2000
  -30.7291  -14.4523   20.4557 C   0  0  0  0  0  0
  -30.4092  -12.2666   19.4194 C   0  0  0  0  0  0
  -29.4764  -12.4448   18.2042 C   0  0  0  0  0  0
  -27.9983  -12.3408   18.6276 C   0  0  0  0  0  0
  -27.6532  -13.1982   19.8754 C   0  0  2  0  0  0
  -28.7109  -13.0382   20.9913 C   0  0  0  0  0  0
  -25.2515  -13.8100   20.5712 C   0  0  0  0  0  0
  -24.1778  -13.0378   20.9229 C   0  0  0  0  0  0
  -24.6365  -11.6874   20.8814 C   0  0  0  0  0  0
  -23.9049  -10.4264   21.0466 C   0  0  0  0  0  0
  -24.3611   -9.4165   21.9226 C   0  0  0  0  0  0
  -23.6286   -8.2205   22.0776 C   0  0  0  0  0  0
  -22.4279   -8.0262   21.3551 C   0  0  0  0  0  0
  -21.9910   -9.0256   20.4666 C   0  0  0  0  0  0
  -22.7240  -10.2134   20.3093 C   0  0  0  0  0  0
  -21.6852   -6.0708   22.5274 C   0  0  0  0  0  0
  -21.4016   -6.5622   23.8201 C   0  0  0  0  0  0
  -21.3650   -5.6783   24.9169 C   0  0  0  0  0  0
  -21.6041   -4.3045   24.7226 C   0  0  0  0  0  0
  -21.8822   -3.8125   23.4346 C   0  0  0  0  0  0
  -21.9204   -4.6937   22.3396 C   0  0  0  0  0  0
  -22.7803  -13.5192   21.1876 C   0  0  0  0  0  0
  -22.1653   -4.2116   21.0974 F   0  0  0  0  0  0
  -21.5647   -3.4534   25.7730 F   0  0  0  0  0  0
  -30.0285  -13.2937   20.3951 N   0  0  0  0  0  0
  -26.2979  -12.9283   20.3476 N   0  0  0  0  0  0
  -25.9305  -11.6452   20.5908 N   0  0  0  0  0  0
  -22.0479  -12.8189   22.0452 N   0  0  0  0  0  0
  -25.4129  -15.1792   20.4009 N   0  0  0  0  0  0
  -31.9573  -14.4804   20.3779 O   0  0  0  0  0  0
  -21.6644   -6.8856   21.4242 O   0  0  0  0  0  0
  -22.3486  -14.5523   20.6739 O   0  0  0  0  0  0
  -24.6138  -31.8681   23.2173 C   0  0  0  0  0  0
  -25.9050  -32.4827   23.8420 C   0  0  1  0  0  0
  -27.2232  -27.4356   20.0803 C   0  0  0  0  0  0
  -25.5937  -33.8632   24.2342 N   0  0  0  0  0  0
  -23.4002  -30.4970   21.5563 C   0  0  2  0  0  0
  -24.8439  -28.9758   20.1130 C   0  0  0  0  0  0
  -22.7387  -29.4685   22.5010 C   0  0  0  0  0  0
  -18.0266  -28.1394   22.8484 C   0  0  0  0  0  0
  -24.1498  -36.7305   23.2631 C   0  0  0  0  0  0
  -25.9307  -30.8325   21.3740 C   0  0  0  0  0  0
  -26.0052  -29.4693   20.7184 C   0  0  0  0  0  0
  -27.1941  -28.7015   20.7103 C   0  0  0  0  0  0
  -26.0396  -26.9771   19.4458 C   0  0  0  0  0  0
  -24.8535  -27.7259   19.4807 C   0  0  0  0  0  0
  -23.6080  -29.8401   20.1666 C   0  0  0  0  0  0
  -25.4118  -36.3107   24.0328 C   0  0  1  0  0  0
  -20.5851  -28.3675   23.1331 C   0  0  2  0  0  0
  -20.6777  -26.9421   22.5422 C   0  0  0  0  0  0
  -19.5759  -26.6398   21.5225 C   0  0  0  0  0  0
  -18.1925  -26.7946   22.1622 C   0  0  0  0  0  0
  -19.1509  -28.8851   23.2903 C   0  0  0  0  0  0
  -18.9446  -30.1463   23.8907 C   0  0  0  0  0  0
  -17.6455  -30.6598   24.0574 C   0  0  0  0  0  0
  -25.9030  -34.9476   23.5103 C   0  0  0  0  0  0
  -16.5339  -29.9105   23.6350 C   0  0  0  0  0  0
  -16.7258  -28.6530   23.0342 C   0  0  0  0  0  0
  -26.4496  -31.6593   25.0732 C   0  0  0  0  0  0
  -25.3785  -31.3680   26.1486 C   0  0  0  0  0  0
  -27.0308  -30.3041   24.6087 C   0  0  0  0  0  0
  -27.6067  -32.4299   25.7491 C   0  0  0  0  0  0
  -27.5580  -37.1807   24.8459 C   0  0  0  0  0  0
  -21.4118  -29.3032   22.3731 N   0  0  0  0  0  0
  -26.4296  -37.3794   23.9392 N   0  0  0  0  0  0
  -24.6655  -31.0797   22.1068 N   0  0  0  0  0  0
  -23.4160  -28.8229   23.3055 O   0  0  0  0  0  0
  -28.3890  -26.6839   20.1079 O   0  0  0  0  0  0
  -26.5576  -34.8920   22.4658 O   0  0  0  0  0  0
  -23.5338  -32.1450   23.7563 O   0  0  0  0  0  0
  -28.7098  -20.1615   17.9585 C   0  0  0  0  0  0
  -28.2221  -19.5570   20.0421 C   0  0  0  0  0  0
  -28.3372  -20.6606   19.2381 C   0  0  0  0  0  0
  -28.6345  -18.7995   17.9685 C   0  0  0  0  0  0
  -28.7579  -17.8929   16.7827 C   0  0  0  0  0  0
  -27.0863  -22.6002   18.4426 C   0  0  0  0  0  0
  -27.2793  -22.1577   20.9299 C   0  0  0  0  0  0
  -30.6338  -16.0218   18.6301 C   0  0  0  0  0  0
  -29.3596  -24.3746   20.2305 C   0  0  0  0  0  0
  -29.3546  -22.9367   19.6237 C   0  0  0  0  0  0
  -28.1094  -17.0687   19.8167 C   0  0  0  0  0  0
  -29.2822  -16.4596   20.6344 C   0  0  0  0  0  0
  -28.2691  -25.3153   19.6997 C   0  0  0  0  0  0
  -28.0266  -22.1139   19.5763 C   0  0  0  0  0  0
  -28.3537  -18.4085   19.2793 N   0  0  0  0  0  0
  -30.0672  -15.4789   19.8711 N   0  0  0  0  0  0
  -31.4524  -12.3517   19.1079 H   0  0  0  0  0  0
  -30.2983  -11.2716   19.8505 H   0  0  0  0  0  0
  -29.6988  -11.6910   17.4450 H   0  0  0  0  0  0
  -29.6523  -13.4127   17.7343 H   0  0  0  0  0  0
  -27.7834  -11.2912   18.8296 H   0  0  0  0  0  0
  -27.3536  -12.6305   17.7971 H   0  0  0  0  0  0
  -27.6785  -14.2328   19.5497 H   0  0  0  0  0  0
  -28.6877  -12.0305   21.4098 H   0  0  0  0  0  0
  -28.5169  -13.7168   21.8232 H   0  0  0  0  0  0
  -25.2754   -9.5622   22.4811 H   0  0  0  0  0  0
  -23.9988   -7.4568   22.7464 H   0  0  0  0  0  0
  -21.0851   -8.8778   19.8959 H   0  0  0  0  0  0
  -22.3706  -10.9696   19.6203 H   0  0  0  0  0  0
  -21.2012   -7.6133   23.9691 H   0  0  0  0  0  0
  -21.1475   -6.0520   25.9064 H   0  0  0  0  0  0
  -22.0628   -2.7595   23.2858 H   0  0  0  0  0  0
  -22.4091  -11.9801   22.4744 H   0  0  0  0  0  0
  -21.1136  -13.1243   22.2814 H   0  0  0  0  0  0
  -24.6411  -15.8302   20.4953 H   0  0  0  0  0  0
  -26.2504  -15.6044   20.0363 H   0  0  0  0  0  0
  -26.7104  -32.5522   23.1156 H   0  0  0  0  0  0
  -25.0162  -33.9809   25.0545 H   0  0  0  0  0  0
  -22.6861  -31.3119   21.4233 H   0  0  0  0  0  0
  -23.3754  -35.9645   23.3318 H   0  0  0  0  0  0
  -24.3600  -36.8907   22.2039 H   0  0  0  0  0  0
  -23.7256  -37.6516   23.6651 H   0  0  0  0  0  0
  -26.0393  -31.6030   20.6100 H   0  0  0  0  0  0
  -26.8158  -30.8822   21.9939 H   0  0  0  0  0  0
  -28.0854  -29.0694   21.2008 H   0  0  0  0  0  0
  -25.9943  -26.0421   18.9049 H   0  0  0  0  0  0
  -23.9596  -27.3486   19.0049 H   0  0  0  0  0  0
  -23.7126  -30.6181   19.4092 H   0  0  0  0  0  0
  -22.7346  -29.2581   19.8717 H   0  0  0  0  0  0
  -25.1303  -36.1953   25.0827 H   0  0  0  0  0  0
  -20.9929  -28.3232   24.1460 H   0  0  0  0  0  0
  -20.5734  -26.2267   23.3586 H   0  0  0  0  0  0
  -21.6641  -26.7508   22.1174 H   0  0  0  0  0  0
  -19.6931  -25.6311   21.1249 H   0  0  0  0  0  0
  -19.6723  -27.3219   20.6765 H   0  0  0  0  0  0
  -17.4200  -26.6681   21.4028 H   0  0  0  0  0  0
  -18.0337  -26.0093   22.9018 H   0  0  0  0  0  0
  -19.7920  -30.7274   24.2285 H   0  0  0  0  0  0
  -17.5013  -31.6302   24.5139 H   0  0  0  0  0  0
  -15.5342  -30.3001   23.7717 H   0  0  0  0  0  0
  -15.8646  -28.0879   22.7044 H   0  0  0  0  0  0
  -24.6002  -30.6967   25.7847 H   0  0  0  0  0  0
  -24.8929  -32.2820   26.4920 H   0  0  0  0  0  0
  -25.8175  -30.8888   27.0245 H   0  0  0  0  0  0
  -26.2831  -29.6802   24.1175 H   0  0  0  0  0  0
  -27.4116  -29.7282   25.4528 H   0  0  0  0  0  0
  -27.8671  -30.4356   23.9207 H   0  0  0  0  0  0
  -27.2711  -33.3613   26.2065 H   0  0  0  0  0  0
  -28.3901  -32.6819   25.0332 H   0  0  0  0  0  0
  -28.0713  -31.8405   26.5408 H   0  0  0  0  0  0
  -28.2583  -38.0118   24.7522 H   0  0  0  0  0  0
  -28.1084  -36.2642   24.6270 H   0  0  0  0  0  0
  -27.2294  -37.1430   25.8864 H   0  0  0  0  0  0
  -20.9269  -29.8725   21.6923 H   0  0  0  0  0  0
  -26.0168  -38.2864   24.1430 H   0  0  0  0  0  0
  -28.8978  -20.7494   17.0701 H   0  0  0  0  0  0
  -27.9558  -19.4825   21.0882 H   0  0  0  0  0  0
  -28.3280  -18.3749   15.9044 H   0  0  0  0  0  0
  -28.2324  -16.9482   16.9080 H   0  0  0  0  0  0
  -29.8024  -17.6967   16.5405 H   0  0  0  0  0  0
  -26.2521  -21.9106   18.3033 H   0  0  0  0  0  0
  -27.6033  -22.6572   17.4838 H   0  0  0  0  0  0
  -26.6345  -23.5696   18.6191 H   0  0  0  0  0  0
  -26.3978  -21.5159   20.9140 H   0  0  0  0  0  0
  -26.9290  -23.1499   21.2018 H   0  0  0  0  0  0
  -27.9182  -21.8180   21.7448 H   0  0  0  0  0  0
  -29.9098  -15.8491   17.8402 H   0  0  0  0  0  0
  -31.5405  -15.5270   18.2789 H   0  0  0  0  0  0
  -30.8595  -17.0863   18.7131 H   0  0  0  0  0  0
  -30.3325  -24.8281   20.0383 H   0  0  0  0  0  0
  -29.2760  -24.3134   21.3160 H   0  0  0  0  0  0
  -30.0792  -22.3621   20.2018 H   0  0  0  0  0  0
  -29.7768  -22.9781   18.6194 H   0  0  0  0  0  0
  -27.2482  -17.1644   20.4818 H   0  0  0  0  0  0
  -27.7785  -16.4057   19.0184 H   0  0  0  0  0  0
  -28.8696  -15.9739   21.5197 H   0  0  0  0  0  0
  -29.9392  -17.2386   21.0224 H   0  0  0  0  0  0
  -27.3385  -24.9242   20.1002 H   0  0  0  0  0  0
  -28.2324  -25.2653   18.6090 H   0  0  0  0  0  0
  1 25  1  0  0  0
  1 30  2  0  0  0
  1 86  1  0  0  0
  2  3  1  0  0  0
  2 25  1  0  0  0
  2 87  1  0  0  0
  2 88  1  0  0  0
  3  4  1  0  0  0
  3 89  1  0  0  0
  3 90  1  0  0  0
  4  5  1  0  0  0
  4 91  1  0  0  0
  4 92  1  0  0  0
  5  6  1  0  0  0
  5 26  1  0  0  0
  5 93  1  0  0  0
  6 25  1  0  0  0
  6 94  1  0  0  0
  6 95  1  0  0  0
  7  8  2  0  0  0
  7 26  1  0  0  0
  7 29  1  0  0  0
  8  9  1  0  0  0
  8 22  1  0  0  0
  9 10  1  0  0  0
  9 27  2  0  0  0
 10 11  2  0  0  0
 10 15  1  0  0  0
 11 12  1  0  0  0
 11 96  1  0  0  0
 12 13  2  0  0  0
 12 97  1  0  0  0
 13 14  1  0  0  0
 13 31  1  0  0  0
 14 15  2  0  0  0
 14 98  1  0  0  0
 15 99  1  0  0  0
 16 17  2  0  0  0
 16 21  1  0  0  0
 16 31  1  0  0  0
 17 18  1  0  0  0
 17100  1  0  0  0
 18 19  2  0  0  0
 18101  1  0  0  0
 19 20  1  0  0  0
 19 24  1  0  0  0
 20 21  2  0  0  0
 20102  1  0  0  0
 21 23  1  0  0  0
 22 28  1  0  0  0
 22 32  2  0  0  0
 26 27  1  0  0  0
 28103  1  0  0  0
 28104  1  0  0  0
 29105  1  0  0  0
 29106  1  0  0  0
 33 34  1  0  0  0
 33 66  1  0  0  0
 33 70  2  0  0  0
 34 36  1  0  0  0
 34 59  1  0  0  0
 34107  1  0  0  0
 35 44  2  0  0  0
 35 45  1  0  0  0
 35 68  1  0  0  0
 36 56  1  0  0  0
 36108  1  0  0  0
 37 39  1  0  0  0
 37 47  1  0  0  0
 37 66  1  0  0  0
 37109  1  0  0  0
 38 43  2  0  0  0
 38 46  1  0  0  0
 38 47  1  0  0  0
 39 64  1  0  0  0
 39 67  2  0  0  0
 40 52  1  0  0  0
 40 53  2  0  0  0
 40 58  1  0  0  0
 41110  1  0  0  0
 41111  1  0  0  0
 41112  1  0  0  0
 41 48  1  0  0  0
 42 43  1  0  0  0
 42 66  1  0  0  0
 42113  1  0  0  0
 42114  1  0  0  0
 43 44  1  0  0  0
 44115  1  0  0  0
 45 46  2  0  0  0
 45116  1  0  0  0
 46117  1  0  0  0
 47118  1  0  0  0
 47119  1  0  0  0
 48 56  1  0  0  0
 48 65  1  0  0  0
 48120  1  0  0  0
 49 50  1  0  0  0
 49 53  1  0  0  0
 49 64  1  0  0  0
 49121  1  0  0  0
 50 51  1  0  0  0
 50122  1  0  0  0
 50123  1  0  0  0
 51 52  1  0  0  0
 51124  1  0  0  0
 51125  1  0  0  0
 52126  1  0  0  0
 52127  1  0  0  0
 53 54  1  0  0  0
 54 55  2  0  0  0
 54128  1  0  0  0
 55 57  1  0  0  0
 55129  1  0  0  0
 56 69  2  0  0  0
 57 58  2  0  0  0
 57130  1  0  0  0
 58131  1  0  0  0
 59 60  1  0  0  0
 59 61  1  0  0  0
 59 62  1  0  0  0
 60132  1  0  0  0
 60133  1  0  0  0
 60134  1  0  0  0
 61135  1  0  0  0
 61136  1  0  0  0
 61137  1  0  0  0
 62138  1  0  0  0
 62139  1  0  0  0
 62140  1  0  0  0
 63 65  1  0  0  0
 63141  1  0  0  0
 63142  1  0  0  0
 63143  1  0  0  0
 64144  1  0  0  0
 65145  1  0  0  0
 68 83  1  0  0  0
 71 73  1  0  0  0
 71 74  2  0  0  0
 71146  1  0  0  0
 72 73  2  0  0  0
 72 85  1  0  0  0
 72147  1  0  0  0
 73 84  1  0  0  0
 74 75  1  0  0  0
 74 85  1  0  0  0
 75148  1  0  0  0
 75149  1  0  0  0
 75150  1  0  0  0
 76151  1  0  0  0
 76152  1  0  0  0
 76153  1  0  0  0
 76 84  1  0  0  0
 77 84  1  0  0  0
 77154  1  0  0  0
 77155  1  0  0  0
 77156  1  0  0  0
 78 86  1  0  0  0
 78157  1  0  0  0
 78158  1  0  0  0
 78159  1  0  0  0
 79 80  1  0  0  0
 79 83  1  0  0  0
 79160  1  0  0  0
 79161  1  0  0  0
 80 84  1  0  0  0
 80162  1  0  0  0
 80163  1  0  0  0
 81 82  1  0  0  0
 81 85  1  0  0  0
 81164  1  0  0  0
 81165  1  0  0  0
 82 86  1  0  0  0
 82166  1  0  0  0
 82167  1  0  0  0
 83168  1  0  0  0
 83169  1  0  0  0
M  ISO  4   1 100  68 101  83 101  86 100
M  END
> <chiral flag>
0

> <version>
0

> <s_m_source_file>
/data/baiqing/PycharmProjects/Reinvent-master-3.2/result/LINK_invent/BTK/process_docking_weight1_custom_sum_contain_oxygen_bond_distance_aromatic_linkinvent_7_9_3/rearranged_h_0078.sdf

> <i_m_source_file_index>
15

> <r_mmod_Potential_Energy-OPLS-2005>
158.835174560547

> <r_mmod_Stretch_Energy-OPLS-2005>
37.3834266662598

> <r_mmod_Bend_Energy-OPLS-2005>
122.158317565918

> <r_mmod_Torsional_Energy-OPLS-2005>
331.264678955078

> <r_mmod_Improper_Torsional_Energy-OPLS-2005>
30.8280029296875

> <r_mmod_Van_der_Waal_Energy-OPLS-2005>
151.970291137695

> <r_mmod_Electrostatic_Energy-OPLS-2005>
-357.281433105469

> <r_mmod_Solvation_Energy-OPLS-2005>
-192.530014038086

> <b_mmod_Minimization_Converged-OPLS-2005>
0

> <r_mmod_RMS_Derivative-OPLS-2005>
3.89815402030945

$$$$
15
                    3D
 Structure written by MMmdl.
162170  0  0  1  0            999 V2000
  -30.5388  -15.0277   20.4083 C   0  0  0  0  0  0
  -30.4363  -12.6496   19.5038 C   0  0  0  0  0  0
  -29.5251  -12.5294   18.2616 C   0  0  0  0  0  0
  -28.0602  -12.3052   18.6850 C   0  0  0  0  0  0
  -27.6192  -13.2602   19.8260 C   0  0  2  0  0  0
  -28.6603  -13.3502   20.9624 C   0  0  0  0  0  0
  -25.2426  -13.8241   20.5760 C   0  0  0  0  0  0
  -24.1748  -13.0450   20.9272 C   0  0  0  0  0  0
  -24.6398  -11.6931   20.8785 C   0  0  0  0  0  0
  -23.9082  -10.4292   21.0414 C   0  0  0  0  0  0
  -24.3640   -9.4192   21.9187 C   0  0  0  0  0  0
  -23.6302   -8.2229   22.0756 C   0  0  0  0  0  0
  -22.4275   -8.0293   21.3559 C   0  0  0  0  0  0
  -21.9916   -9.0261   20.4650 C   0  0  0  0  0  0
  -22.7263  -10.2124   20.3061 C   0  0  0  0  0  0
  -21.6834   -6.0735   22.5283 C   0  0  0  0  0  0
  -21.4015   -6.5639   23.8211 C   0  0  0  0  0  0
  -21.3657   -5.6798   24.9175 C   0  0  0  0  0  0
  -21.6033   -4.3058   24.7222 C   0  0  0  0  0  0
  -21.8807   -3.8148   23.4337 C   0  0  0  0  0  0
  -21.9180   -4.6971   22.3397 C   0  0  0  0  0  0
  -22.7768  -13.5188   21.1892 C   0  0  0  0  0  0
  -22.1648   -4.2164   21.0976 F   0  0  0  0  0  0
  -21.5628   -3.4536   25.7732 F   0  0  0  0  0  0
  -29.9198  -13.7756   20.3432 N   0  0  0  0  0  0
  -26.2843  -12.9491   20.3244 N   0  0  0  0  0  0
  -25.9320  -11.6602   20.5740 N   0  0  0  0  0  0
  -22.0405  -12.8196   22.0446 N   0  0  0  0  0  0
  -25.4034  -15.1969   20.4199 N   0  0  0  0  0  0
  -31.7588  -15.0152   20.2131 O   0  0  0  0  0  0
  -21.6639   -6.8884   21.4251 O   0  0  0  0  0  0
  -22.3439  -14.5486   20.6707 O   0  0  0  0  0  0
  -24.6453  -31.8433   23.1864 C   0  0  0  0  0  0
  -25.9215  -32.4701   23.8260 C   0  0  1  0  0  0
  -27.2079  -27.1046   20.1945 C   0  0  0  0  0  0
  -25.5957  -33.8498   24.2184 N   0  0  0  0  0  0
  -23.4497  -30.4618   21.5324 C   0  0  2  0  0  0
  -24.8999  -28.8822   20.1139 C   0  0  0  0  0  0
  -22.7577  -29.4530   22.4845 C   0  0  0  0  0  0
  -18.0296  -28.1398   22.8467 C   0  0  0  0  0  0
  -24.1488  -36.7264   23.2633 C   0  0  0  0  0  0
  -26.0064  -30.7125   21.3855 C   0  0  0  0  0  0
  -26.0772  -29.3190   20.7341 C   0  0  0  0  0  0
  -27.2329  -28.4488   20.7504 C   0  0  0  0  0  0
  -26.0067  -26.7713   19.5303 C   0  0  0  0  0  0
  -24.8804  -27.6244   19.4911 C   0  0  0  0  0  0
  -23.6792  -29.7908   20.1511 C   0  0  0  0  0  0
  -25.4116  -36.3035   24.0312 C   0  0  1  0  0  0
  -20.5912  -28.3720   23.1230 C   0  0  2  0  0  0
  -20.6792  -26.9427   22.5402 C   0  0  0  0  0  0
  -19.5773  -26.6378   21.5205 C   0  0  0  0  0  0
  -18.1942  -26.7932   22.1615 C   0  0  0  0  0  0
  -19.1557  -28.8879   23.2842 C   0  0  0  0  0  0
  -18.9472  -30.1474   23.8879 C   0  0  0  0  0  0
  -17.6469  -30.6596   24.0556 C   0  0  0  0  0  0
  -25.9067  -34.9416   23.5055 C   0  0  0  0  0  0
  -16.5360  -29.9088   23.6340 C   0  0  0  0  0  0
  -16.7275  -28.6508   23.0354 C   0  0  0  0  0  0
  -26.4521  -31.6573   25.0715 C   0  0  0  0  0  0
  -25.3684  -31.3798   26.1402 C   0  0  0  0  0  0
  -27.0383  -30.2962   24.6318 C   0  0  0  0  0  0
  -27.6054  -32.4338   25.7508 C   0  0  0  0  0  0
  -27.5585  -37.1773   24.8449 C   0  0  0  0  0  0
  -21.4267  -29.3045   22.3602 N   0  0  0  0  0  0
  -26.4276  -37.3761   23.9421 N   0  0  0  0  0  0
  -24.7206  -31.0271   22.0904 N   0  0  0  0  0  0
  -23.4215  -28.8081   23.2996 O   0  0  0  0  0  0
  -28.2563  -26.1113   20.2904 O   0  0  0  0  0  0
  -26.5654  -34.8923   22.4634 O   0  0  0  0  0  0
  -23.5574  -32.1290   23.7094 O   0  0  0  0  0  0
  -29.9077  -20.6251   20.8173 C   0  0  0  0  0  0
  -29.4617  -19.2627   20.4328 C   0  0  0  0  0  0
  -29.0240  -21.6733   20.4305 C   0  0  0  0  0  0
  -25.6329  -21.3765   20.0600 C   0  0  0  0  0  0
  -31.2464  -17.9534   19.1960 C   0  0  0  0  0  0
  -30.1863  -23.7283   19.4163 C   0  0  0  0  0  0
  -29.7999  -23.6456   21.8752 C   0  0  0  0  0  0
  -26.8521  -21.3450   19.1315 C   0  0  0  0  0  0
  -27.9884  -24.5617   20.3127 C   0  0  0  0  0  0
  -30.3053  -17.8077   20.4067 C   0  0  2  0  0  0
  -29.1662  -23.3440   20.4994 C   0  0  0  0  0  0
  -28.2959  -19.5014   19.8176 N   0  0  0  0  0  0
  -28.0486  -20.8815   19.8098 N   0  0  0  0  0  0
  -29.8193  -16.2784   20.4771 N   0  0  0  0  0  0
  -31.4694  -12.8073   19.1878 H   0  0  0  0  0  0
  -30.4489  -11.7202   20.0735 H   0  0  0  0  0  0
  -29.8609  -11.7120   17.6230 H   0  0  0  0  0  0
  -29.6034  -13.4393   17.6632 H   0  0  0  0  0  0
  -27.9737  -11.2728   19.0240 H   0  0  0  0  0  0
  -27.3942  -12.3996   17.8257 H   0  0  0  0  0  0
  -27.5640  -14.2467   19.3665 H   0  0  0  0  0  0
  -28.7724  -12.3984   21.4819 H   0  0  0  0  0  0
  -28.3504  -14.0832   21.7091 H   0  0  0  0  0  0
  -25.2792   -9.5652   22.4762 H   0  0  0  0  0  0
  -24.0016   -7.4598   22.7467 H   0  0  0  0  0  0
  -21.0849   -8.8759   19.8956 H   0  0  0  0  0  0
  -22.3729  -10.9652   19.6159 H   0  0  0  0  0  0
  -21.2026   -7.6150   23.9724 H   0  0  0  0  0  0
  -21.1494   -6.0531   25.9084 H   0  0  0  0  0  0
  -22.0590   -2.7622   23.2822 H   0  0  0  0  0  0
  -22.4040  -11.9917   22.4920 H   0  0  0  0  0  0
  -21.1004  -13.1195   22.2597 H   0  0  0  0  0  0
  -24.6299  -15.8436   20.5292 H   0  0  0  0  0  0
  -26.2420  -15.6425   20.0696 H   0  0  0  0  0  0
  -26.7292  -32.5313   23.1000 H   0  0  0  0  0  0
  -25.0098  -33.9607   25.0331 H   0  0  0  0  0  0
  -22.7520  -31.2874   21.3764 H   0  0  0  0  0  0
  -23.3784  -35.9556   23.3213 H   0  0  0  0  0  0
  -24.3587  -36.8988   22.2064 H   0  0  0  0  0  0
  -23.7198  -37.6417   23.6723 H   0  0  0  0  0  0
  -26.1577  -31.4617   20.6068 H   0  0  0  0  0  0
  -26.8793  -30.7687   22.0245 H   0  0  0  0  0  0
  -28.1286  -28.7758   21.2586 H   0  0  0  0  0  0
  -25.8988  -25.8046   19.0626 H   0  0  0  0  0  0
  -23.9813  -27.2853   18.9964 H   0  0  0  0  0  0
  -23.8253  -30.5650   19.3968 H   0  0  0  0  0  0
  -22.7919  -29.2391   19.8357 H   0  0  0  0  0  0
  -25.1300  -36.1847   25.0802 H   0  0  0  0  0  0
  -20.9995  -28.3312   24.1358 H   0  0  0  0  0  0
  -20.5699  -26.2325   23.3609 H   0  0  0  0  0  0
  -21.6661  -26.7447   22.1193 H   0  0  0  0  0  0
  -19.6937  -25.6278   21.1269 H   0  0  0  0  0  0
  -19.6720  -27.3166   20.6720 H   0  0  0  0  0  0
  -17.4211  -26.6660   21.4015 H   0  0  0  0  0  0
  -18.0352  -26.0082   22.9023 H   0  0  0  0  0  0
  -19.7939  -30.7289   24.2251 H   0  0  0  0  0  0
  -17.5016  -31.6268   24.5164 H   0  0  0  0  0  0
  -15.5358  -30.2987   23.7678 H   0  0  0  0  0  0
  -15.8665  -28.0821   22.7098 H   0  0  0  0  0  0
  -24.5828  -30.7196   25.7711 H   0  0  0  0  0  0
  -24.8915  -32.3005   26.4772 H   0  0  0  0  0  0
  -25.7927  -30.8978   27.0215 H   0  0  0  0  0  0
  -26.3000  -29.6673   24.1329 H   0  0  0  0  0  0
  -27.3984  -29.7282   25.4905 H   0  0  0  0  0  0
  -27.8915  -30.4192   23.9644 H   0  0  0  0  0  0
  -27.2653  -33.3670   26.2012 H   0  0  0  0  0  0
  -28.3909  -32.6840   25.0365 H   0  0  0  0  0  0
  -28.0660  -31.8494   26.5484 H   0  0  0  0  0  0
  -28.2553  -38.0124   24.7575 H   0  0  0  0  0  0
  -28.1137  -36.2655   24.6171 H   0  0  0  0  0  0
  -27.2317  -37.1309   25.8855 H   0  0  0  0  0  0
  -20.9470  -29.8745   21.6778 H   0  0  0  0  0  0
  -26.0139  -38.2821   24.1468 H   0  0  0  0  0  0
  -30.8678  -20.8221   21.2746 H   0  0  0  0  0  0
  -24.7402  -21.6755   19.5095 H   0  0  0  0  0  0
  -25.7750  -22.0878   20.8745 H   0  0  0  0  0  0
  -25.4458  -20.3928   20.4945 H   0  0  0  0  0  0
  -31.6807  -18.9546   19.1618 H   0  0  0  0  0  0
  -30.7102  -17.7955   18.2605 H   0  0  0  0  0  0
  -32.0880  -17.2658   19.2265 H   0  0  0  0  0  0
  -31.0861  -23.1159   19.4661 H   0  0  0  0  0  0
  -30.4919  -24.7721   19.5098 H   0  0  0  0  0  0
  -29.7518  -23.6032   18.4249 H   0  0  0  0  0  0
  -30.7506  -23.1278   22.0082 H   0  0  0  0  0  0
  -29.1441  -23.3227   22.6848 H   0  0  0  0  0  0
  -29.9871  -24.7107   22.0164 H   0  0  0  0  0  0
  -27.0409  -22.3340   18.7221 H   0  0  0  0  0  0
  -26.6605  -20.6999   18.2744 H   0  0  0  0  0  0
  -27.2424  -24.3999   21.0932 H   0  0  0  0  0  0
  -27.4727  -24.3538   19.3794 H   0  0  0  0  0  0
  -30.9551  -17.8635   21.2816 H   0  0  0  0  0  0
  -28.8192  -16.1805   20.5777 H   0  0  0  0  0  0
  1 25  1  0  0  0
  1 30  2  0  0  0
  1 84  1  0  0  0
  2  3  1  0  0  0
  2 25  1  0  0  0
  2 85  1  0  0  0
  2 86  1  0  0  0
  3  4  1  0  0  0
  3 87  1  0  0  0
  3 88  1  0  0  0
  4  5  1  0  0  0
  4 89  1  0  0  0
  4 90  1  0  0  0
  5  6  1  0  0  0
  5 26  1  0  0  0
  5 91  1  0  0  0
  6 25  1  0  0  0
  6 92  1  0  0  0
  6 93  1  0  0  0
  7  8  2  0  0  0
  7 26  1  0  0  0
  7 29  1  0  0  0
  8  9  1  0  0  0
  8 22  1  0  0  0
  9 10  1  0  0  0
  9 27  2  0  0  0
 10 11  2  0  0  0
 10 15  1  0  0  0
 11 12  1  0  0  0
 11 94  1  0  0  0
 12 13  2  0  0  0
 12 95  1  0  0  0
 13 14  1  0  0  0
 13 31  1  0  0  0
 14 15  2  0  0  0
 14 96  1  0  0  0
 15 97  1  0  0  0
 16 17  2  0  0  0
 16 21  1  0  0  0
 16 31  1  0  0  0
 17 18  1  0  0  0
 17 98  1  0  0  0
 18 19  2  0  0  0
 18 99  1  0  0  0
 19 20  1  0  0  0
 19 24  1  0  0  0
 20 21  2  0  0  0
 20100  1  0  0  0
 21 23  1  0  0  0
 22 28  1  0  0  0
 22 32  2  0  0  0
 26 27  1  0  0  0
 28101  1  0  0  0
 28102  1  0  0  0
 29103  1  0  0  0
 29104  1  0  0  0
 33 34  1  0  0  0
 33 66  1  0  0  0
 33 70  2  0  0  0
 34 36  1  0  0  0
 34 59  1  0  0  0
 34105  1  0  0  0
 35 44  2  0  0  0
 35 45  1  0  0  0
 35 68  1  0  0  0
 36 56  1  0  0  0
 36106  1  0  0  0
 37 39  1  0  0  0
 37 47  1  0  0  0
 37 66  1  0  0  0
 37107  1  0  0  0
 38 43  2  0  0  0
 38 46  1  0  0  0
 38 47  1  0  0  0
 39 64  1  0  0  0
 39 67  2  0  0  0
 40 52  1  0  0  0
 40 53  2  0  0  0
 40 58  1  0  0  0
 41108  1  0  0  0
 41109  1  0  0  0
 41110  1  0  0  0
 41 48  1  0  0  0
 42 43  1  0  0  0
 42 66  1  0  0  0
 42111  1  0  0  0
 42112  1  0  0  0
 43 44  1  0  0  0
 44113  1  0  0  0
 45 46  2  0  0  0
 45114  1  0  0  0
 46115  1  0  0  0
 47116  1  0  0  0
 47117  1  0  0  0
 48 56  1  0  0  0
 48 65  1  0  0  0
 48118  1  0  0  0
 49 50  1  0  0  0
 49 53  1  0  0  0
 49 64  1  0  0  0
 49119  1  0  0  0
 50 51  1  0  0  0
 50120  1  0  0  0
 50121  1  0  0  0
 51 52  1  0  0  0
 51122  1  0  0  0
 51123  1  0  0  0
 52124  1  0  0  0
 52125  1  0  0  0
 53 54  1  0  0  0
 54 55  2  0  0  0
 54126  1  0  0  0
 55 57  1  0  0  0
 55127  1  0  0  0
 56 69  2  0  0  0
 57 58  2  0  0  0
 57128  1  0  0  0
 58129  1  0  0  0
 59 60  1  0  0  0
 59 61  1  0  0  0
 59 62  1  0  0  0
 60130  1  0  0  0
 60131  1  0  0  0
 60132  1  0  0  0
 61133  1  0  0  0
 61134  1  0  0  0
 61135  1  0  0  0
 62136  1  0  0  0
 62137  1  0  0  0
 62138  1  0  0  0
 63 65  1  0  0  0
 63139  1  0  0  0
 63140  1  0  0  0
 63141  1  0  0  0
 64142  1  0  0  0
 65143  1  0  0  0
 68 79  1  0  0  0
 71 72  1  0  0  0
 71 73  2  0  0  0
 71144  1  0  0  0
 72 80  1  0  0  0
 72 82  2  0  0  0
 73 81  1  0  0  0
 73 83  1  0  0  0
 74 78  1  0  0  0
 74145  1  0  0  0
 74146  1  0  0  0
 74147  1  0  0  0
 75148  1  0  0  0
 75149  1  0  0  0
 75150  1  0  0  0
 75 80  1  0  0  0
 76151  1  0  0  0
 76152  1  0  0  0
 76153  1  0  0  0
 76 81  1  0  0  0
 77 81  1  0  0  0
 77154  1  0  0  0
 77155  1  0  0  0
 77156  1  0  0  0
 78 83  1  0  0  0
 78157  1  0  0  0
 78158  1  0  0  0
 79 81  1  0  0  0
 79159  1  0  0  0
 79160  1  0  0  0
 80 84  1  0  0  0
 80161  1  0  0  0
 82 83  1  0  0  0
 84162  1  0  0  0
M  ISO  4   1 100  68 101  79 101  84 100
M  END
> <chiral flag>
0

> <version>
0

> <s_m_source_file>
/data/baiqing/PycharmProjects/Reinvent-master-3.2/result/LINK_invent/BTK/process_docking_weight1_custom_sum_contain_oxygen_bond_distance_aromatic_linkinvent_7_9_3/rearranged_h_0078.sdf

> <i_m_source_file_index>
16

> <r_mmod_Potential_Energy-OPLS-2005>
517.719177246094

> <r_mmod_Stretch_Energy-OPLS-2005>
303.333892822266

> <r_mmod_Bend_Energy-OPLS-2005>
309.698974609375

> <r_mmod_Torsional_Energy-OPLS-2005>
233.064086914062

> <r_mmod_Improper_Torsional_Energy-OPLS-2005>
6.52574968338013

> <r_mmod_Van_der_Waal_Energy-OPLS-2005>
106.498237609863

> <r_mmod_Electrostatic_Energy-OPLS-2005>
-476.173583984375

> <r_mmod_Solvation_Energy-OPLS-2005>
-207.037826538086

> <b_mmod_Minimization_Converged-OPLS-2005>
0

> <r_mmod_RMS_Derivative-OPLS-2005>
3.63498544692993

$$$$
16
                    3D
 Structure written by MMmdl.
165172  0  0  1  0            999 V2000
  -30.6829  -14.4797   20.6508 C   0  0  0  0  0  0
  -30.4340  -12.3443   19.3992 C   0  0  0  0  0  0
  -29.4909  -12.5247   18.1920 C   0  0  0  0  0  0
  -28.0145  -12.3756   18.6090 C   0  0  0  0  0  0
  -27.6625  -13.2034   19.8718 C   0  0  2  0  0  0
  -28.7041  -12.9514   20.9810 C   0  0  0  0  0  0
  -25.2582  -13.8154   20.5667 C   0  0  0  0  0  0
  -24.1849  -13.0428   20.9184 C   0  0  0  0  0  0
  -24.6410  -11.6891   20.8748 C   0  0  0  0  0  0
  -23.9068  -10.4281   21.0422 C   0  0  0  0  0  0
  -24.3609   -9.4182   21.9192 C   0  0  0  0  0  0
  -23.6283   -8.2216   22.0759 C   0  0  0  0  0  0
  -22.4262   -8.0272   21.3543 C   0  0  0  0  0  0
  -21.9907   -9.0253   20.4635 C   0  0  0  0  0  0
  -22.7248  -10.2130   20.3058 C   0  0  0  0  0  0
  -21.6851   -6.0718   22.5275 C   0  0  0  0  0  0
  -21.4015   -6.5631   23.8206 C   0  0  0  0  0  0
  -21.3664   -5.6794   24.9179 C   0  0  0  0  0  0
  -21.6047   -4.3053   24.7234 C   0  0  0  0  0  0
  -21.8829   -3.8132   23.4359 C   0  0  0  0  0  0
  -21.9193   -4.6943   22.3407 C   0  0  0  0  0  0
  -22.7857  -13.5193   21.1869 C   0  0  0  0  0  0
  -22.1658   -4.2120   21.0985 F   0  0  0  0  0  0
  -21.5634   -3.4537   25.7752 F   0  0  0  0  0  0
  -30.0270  -13.3016   20.4392 N   0  0  0  0  0  0
  -26.3027  -12.9324   20.3343 N   0  0  0  0  0  0
  -25.9332  -11.6483   20.5757 N   0  0  0  0  0  0
  -22.0503  -12.8170   22.0417 N   0  0  0  0  0  0
  -25.4293  -15.1884   20.4105 N   0  0  0  0  0  0
  -31.7629  -14.7233   20.1016 O   0  0  0  0  0  0
  -21.6638   -6.8860   21.4233 O   0  0  0  0  0  0
  -22.3523  -14.5505   20.6742 O   0  0  0  0  0  0
  -24.6181  -31.8661   23.2075 C   0  0  0  0  0  0
  -25.9065  -32.4812   23.8378 C   0  0  1  0  0  0
  -27.2274  -27.3937   20.0918 C   0  0  0  0  0  0
  -25.5914  -33.8609   24.2305 N   0  0  0  0  0  0
  -23.4057  -30.4906   21.5498 C   0  0  2  0  0  0
  -24.8497  -28.9508   20.1184 C   0  0  0  0  0  0
  -22.7422  -29.4653   22.4977 C   0  0  0  0  0  0
  -18.0287  -28.1367   22.8491 C   0  0  0  0  0  0
  -24.1496  -36.7309   23.2630 C   0  0  0  0  0  0
  -25.9392  -30.8205   21.3632 C   0  0  0  0  0  0
  -26.0159  -29.4512   20.7112 C   0  0  0  0  0  0
  -27.2098  -28.6835   20.6889 C   0  0  0  0  0  0
  -26.0303  -26.9149   19.5076 C   0  0  0  0  0  0
  -24.8535  -27.6840   19.5164 C   0  0  0  0  0  0
  -23.6143  -29.8234   20.1657 C   0  0  0  0  0  0
  -25.4115  -36.3098   24.0325 C   0  0  1  0  0  0
  -20.5878  -28.3662   23.1309 C   0  0  2  0  0  0
  -20.6776  -26.9393   22.5416 C   0  0  0  0  0  0
  -19.5754  -26.6380   21.5206 C   0  0  0  0  0  0
  -18.1931  -26.7917   22.1611 C   0  0  0  0  0  0
  -19.1539  -28.8831   23.2897 C   0  0  0  0  0  0
  -18.9462  -30.1442   23.8897 C   0  0  0  0  0  0
  -17.6463  -30.6572   24.0561 C   0  0  0  0  0  0
  -25.9040  -34.9464   23.5109 C   0  0  0  0  0  0
  -16.5354  -29.9076   23.6318 C   0  0  0  0  0  0
  -16.7274  -28.6498   23.0327 C   0  0  0  0  0  0
  -26.4491  -31.6588   25.0703 C   0  0  0  0  0  0
  -25.3741  -31.3693   26.1443 C   0  0  0  0  0  0
  -27.0324  -30.3025   24.6083 C   0  0  0  0  0  0
  -27.6065  -32.4306   25.7461 C   0  0  0  0  0  0
  -27.5586  -37.1800   24.8459 C   0  0  0  0  0  0
  -21.4147  -29.3035   22.3717 N   0  0  0  0  0  0
  -26.4295  -37.3786   23.9412 N   0  0  0  0  0  0
  -24.6729  -31.0739   22.0985 N   0  0  0  0  0  0
  -23.4184  -28.8196   23.3030 O   0  0  0  0  0  0
  -28.3957  -26.6363   20.0675 O   0  0  0  0  0  0
  -26.5607  -34.8921   22.4679 O   0  0  0  0  0  0
  -23.5371  -32.1451   23.7453 O   0  0  0  0  0  0
  -30.3486  -15.1534   23.0549 C   0  0  0  0  0  0
  -27.7076  -19.8175   19.0830 C   0  0  0  0  0  0
  -31.0567  -22.5484   19.9081 C   0  0  0  0  0  0
  -29.7477  -17.9176   20.3260 C   0  0  0  0  0  0
  -30.4943  -17.0528   21.3887 C   0  0  0  0  0  0
  -29.6204  -19.4305   20.7214 C   0  0  0  0  0  0
  -29.2631  -24.1427   19.2783 C   0  0  0  0  0  0
  -28.6523  -21.8611   20.2655 C   0  0  0  0  0  0
  -28.2750  -25.1941   19.9092 C   0  0  0  0  0  0
  -30.0562  -15.5569   21.5931 C   0  0  1  0  0  0
  -28.9933  -20.4270   19.6783 C   0  0  2  0  0  0
  -29.6580  -22.9793   20.1549 N   0  3  1  0  0  0
  -31.4721  -12.4777   19.0890 H   0  0  0  0  0  0
  -30.3708  -11.3262   19.7862 H   0  0  0  0  0  0
  -29.7330  -11.7986   17.4152 H   0  0  0  0  0  0
  -29.6482  -13.5115   17.7515 H   0  0  0  0  0  0
  -27.8266  -11.3179   18.7987 H   0  0  0  0  0  0
  -27.3619  -12.6550   17.7819 H   0  0  0  0  0  0
  -27.7160  -14.2568   19.5948 H   0  0  0  0  0  0
  -28.6990  -11.9007   21.2721 H   0  0  0  0  0  0
  -28.4363  -13.4925   21.8857 H   0  0  0  0  0  0
  -25.2767   -9.5645   22.4749 H   0  0  0  0  0  0
  -23.9992   -7.4605   22.7485 H   0  0  0  0  0  0
  -21.0836   -8.8791   19.8928 H   0  0  0  0  0  0
  -22.3736  -10.9674   19.6153 H   0  0  0  0  0  0
  -21.2008   -7.6145   23.9698 H   0  0  0  0  0  0
  -21.1481   -6.0530   25.9081 H   0  0  0  0  0  0
  -22.0604   -2.7585   23.2886 H   0  0  0  0  0  0
  -22.4129  -11.9818   22.4787 H   0  0  0  0  0  0
  -21.1103  -13.1159   22.2624 H   0  0  0  0  0  0
  -24.6649  -15.8446   20.5317 H   0  0  0  0  0  0
  -26.2869  -15.6300   20.1060 H   0  0  0  0  0  0
  -26.7119  -32.5518   23.1124 H   0  0  0  0  0  0
  -25.0049  -33.9763   25.0447 H   0  0  0  0  0  0
  -22.6947  -31.3082   21.4117 H   0  0  0  0  0  0
  -23.3744  -35.9650   23.3282 H   0  0  0  0  0  0
  -24.3586  -36.8954   22.2049 H   0  0  0  0  0  0
  -23.7270  -37.6509   23.6672 H   0  0  0  0  0  0
  -26.0499  -31.5838   20.5910 H   0  0  0  0  0  0
  -26.8269  -30.8794   21.9813 H   0  0  0  0  0  0
  -28.1124  -29.0698   21.1426 H   0  0  0  0  0  0
  -25.9839  -25.9464   19.0312 H   0  0  0  0  0  0
  -23.9535  -27.2931   19.0616 H   0  0  0  0  0  0
  -23.7239  -30.5974   19.4053 H   0  0  0  0  0  0
  -22.7363  -29.2451   19.8703 H   0  0  0  0  0  0
  -25.1293  -36.1935   25.0816 H   0  0  0  0  0  0
  -20.9972  -28.3236   24.1426 H   0  0  0  0  0  0
  -20.5690  -26.2258   23.3601 H   0  0  0  0  0  0
  -21.6644  -26.7440   22.1205 H   0  0  0  0  0  0
  -19.6909  -25.6297   21.1221 H   0  0  0  0  0  0
  -19.6690  -27.3197   20.6746 H   0  0  0  0  0  0
  -17.4205  -26.6679   21.4005 H   0  0  0  0  0  0
  -18.0321  -26.0053   22.9001 H   0  0  0  0  0  0
  -19.7940  -30.7267   24.2243 H   0  0  0  0  0  0
  -17.5018  -31.6249   24.5175 H   0  0  0  0  0  0
  -15.5348  -30.2973   23.7649 H   0  0  0  0  0  0
  -15.8678  -28.0828   22.7006 H   0  0  0  0  0  0
  -24.5928  -30.7029   25.7774 H   0  0  0  0  0  0
  -24.8911  -32.2848   26.4858 H   0  0  0  0  0  0
  -25.8095  -30.8882   27.0210 H   0  0  0  0  0  0
  -26.2865  -29.6755   24.1176 H   0  0  0  0  0  0
  -27.4145  -29.7292   25.4538 H   0  0  0  0  0  0
  -27.8685  -30.4334   23.9206 H   0  0  0  0  0  0
  -27.2687  -33.3611   26.2028 H   0  0  0  0  0  0
  -28.3871  -32.6848   25.0279 H   0  0  0  0  0  0
  -28.0727  -31.8426   26.5371 H   0  0  0  0  0  0
  -28.2584  -38.0116   24.7522 H   0  0  0  0  0  0
  -28.1108  -36.2642   24.6267 H   0  0  0  0  0  0
  -27.2299  -37.1433   25.8861 H   0  0  0  0  0  0
  -20.9304  -29.8758   21.6942 H   0  0  0  0  0  0
  -26.0167  -38.2854   24.1429 H   0  0  0  0  0  0
  -29.7361  -15.7298   23.7492 H   0  0  0  0  0  0
  -31.3946  -15.3300   23.3092 H   0  0  0  0  0  0
  -30.1466  -14.0998   23.2512 H   0  0  0  0  0  0
  -27.9145  -18.9022   18.5280 H   0  0  0  0  0  0
  -27.2312  -20.4987   18.3778 H   0  0  0  0  0  0
  -26.9778  -19.5813   19.8573 H   0  0  0  0  0  0
  -31.7392  -23.3947   19.9751 H   0  0  0  0  0  0
  -31.1820  -22.1181   18.9145 H   0  0  0  0  0  0
  -31.3884  -21.8272   20.6519 H   0  0  0  0  0  0
  -28.7478  -17.5087   20.1873 H   0  0  0  0  0  0
  -30.2519  -17.8182   19.3640 H   0  0  0  0  0  0
  -30.3466  -17.5540   22.3476 H   0  0  0  0  0  0
  -31.5702  -17.1133   21.2211 H   0  0  0  0  0  0
  -30.6080  -19.7888   21.0084 H   0  0  0  0  0  0
  -29.0230  -19.4741   21.6340 H   0  0  0  0  0  0
  -30.1652  -24.6804   18.9776 H   0  0  0  0  0  0
  -28.8555  -23.7310   18.3509 H   0  0  0  0  0  0
  -28.4128  -21.7541   21.3238 H   0  0  0  0  0  0
  -27.7222  -22.2218   19.8250 H   0  0  0  0  0  0
  -28.9818  -25.3002   20.7340 H   0  0  0  0  0  0
  -28.2610  -25.5845   18.8896 H   0  0  0  0  0  0
  -28.9763  -15.5431   21.4536 H   0  0  0  0  0  0
  -29.6732  -20.5235   18.8327 H   0  0  0  0  0  0
  -29.6938  -23.3676   21.0879 H   0  0  0  0  0  0
  1 25  1  0  0  0
  1 30  2  0  0  0
  1 80  1  0  0  0
  2  3  1  0  0  0
  2 25  1  0  0  0
  2 83  1  0  0  0
  2 84  1  0  0  0
  3  4  1  0  0  0
  3 85  1  0  0  0
  3 86  1  0  0  0
  4  5  1  0  0  0
  4 87  1  0  0  0
  4 88  1  0  0  0
  5  6  1  0  0  0
  5 26  1  0  0  0
  5 89  1  0  0  0
  6 25  1  0  0  0
  6 90  1  0  0  0
  6 91  1  0  0  0
  7  8  2  0  0  0
  7 26  1  0  0  0
  7 29  1  0  0  0
  8  9  1  0  0  0
  8 22  1  0  0  0
  9 10  1  0  0  0
  9 27  2  0  0  0
 10 11  2  0  0  0
 10 15  1  0  0  0
 11 12  1  0  0  0
 11 92  1  0  0  0
 12 13  2  0  0  0
 12 93  1  0  0  0
 13 14  1  0  0  0
 13 31  1  0  0  0
 14 15  2  0  0  0
 14 94  1  0  0  0
 15 95  1  0  0  0
 16 17  2  0  0  0
 16 21  1  0  0  0
 16 31  1  0  0  0
 17 18  1  0  0  0
 17 96  1  0  0  0
 18 19  2  0  0  0
 18 97  1  0  0  0
 19 20  1  0  0  0
 19 24  1  0  0  0
 20 21  2  0  0  0
 20 98  1  0  0  0
 21 23  1  0  0  0
 22 28  1  0  0  0
 22 32  2  0  0  0
 26 27  1  0  0  0
 28 99  1  0  0  0
 28100  1  0  0  0
 29101  1  0  0  0
 29102  1  0  0  0
 33 34  1  0  0  0
 33 66  1  0  0  0
 33 70  2  0  0  0
 34 36  1  0  0  0
 34 59  1  0  0  0
 34103  1  0  0  0
 35 44  2  0  0  0
 35 45  1  0  0  0
 35 68  1  0  0  0
 36 56  1  0  0  0
 36104  1  0  0  0
 37 39  1  0  0  0
 37 47  1  0  0  0
 37 66  1  0  0  0
 37105  1  0  0  0
 38 43  2  0  0  0
 38 46  1  0  0  0
 38 47  1  0  0  0
 39 64  1  0  0  0
 39 67  2  0  0  0
 40 52  1  0  0  0
 40 53  2  0  0  0
 40 58  1  0  0  0
 41106  1  0  0  0
 41107  1  0  0  0
 41108  1  0  0  0
 41 48  1  0  0  0
 42 43  1  0  0  0
 42 66  1  0  0  0
 42109  1  0  0  0
 42110  1  0  0  0
 43 44  1  0  0  0
 44111  1  0  0  0
 45 46  2  0  0  0
 45112  1  0  0  0
 46113  1  0  0  0
 47114  1  0  0  0
 47115  1  0  0  0
 48 56  1  0  0  0
 48 65  1  0  0  0
 48116  1  0  0  0
 49 50  1  0  0  0
 49 53  1  0  0  0
 49 64  1  0  0  0
 49117  1  0  0  0
 50 51  1  0  0  0
 50118  1  0  0  0
 50119  1  0  0  0
 51 52  1  0  0  0
 51120  1  0  0  0
 51121  1  0  0  0
 52122  1  0  0  0
 52123  1  0  0  0
 53 54  1  0  0  0
 54 55  2  0  0  0
 54124  1  0  0  0
 55 57  1  0  0  0
 55125  1  0  0  0
 56 69  2  0  0  0
 57 58  2  0  0  0
 57126  1  0  0  0
 58127  1  0  0  0
 59 60  1  0  0  0
 59 61  1  0  0  0
 59 62  1  0  0  0
 60128  1  0  0  0
 60129  1  0  0  0
 60130  1  0  0  0
 61131  1  0  0  0
 61132  1  0  0  0
 61133  1  0  0  0
 62134  1  0  0  0
 62135  1  0  0  0
 62136  1  0  0  0
 63 65  1  0  0  0
 63137  1  0  0  0
 63138  1  0  0  0
 63139  1  0  0  0
 64140  1  0  0  0
 65141  1  0  0  0
 68 79  1  0  0  0
 71142  1  0  0  0
 71143  1  0  0  0
 71144  1  0  0  0
 71 80  1  0  0  0
 72145  1  0  0  0
 72146  1  0  0  0
 72147  1  0  0  0
 72 81  1  0  0  0
 73148  1  0  0  0
 73149  1  0  0  0
 73150  1  0  0  0
 73 82  1  0  0  0
 74 75  1  0  0  0
 74 76  1  0  0  0
 74151  1  0  0  0
 74152  1  0  0  0
 75 80  1  0  0  0
 75153  1  0  0  0
 75154  1  0  0  0
 76 81  1  0  0  0
 76155  1  0  0  0
 76156  1  0  0  0
 77 79  1  0  0  0
 77 82  1  0  0  0
 77157  1  0  0  0
 77158  1  0  0  0
 78 81  1  0  0  0
 78 82  1  0  0  0
 78159  1  0  0  0
 78160  1  0  0  0
 79161  1  0  0  0
 79162  1  0  0  0
 80163  1  0  0  0
 81164  1  0  0  0
 82165  1  0  0  0
M  CHG  1  82   1
M  ISO  4   1 100  68 101  79 101  80 100
M  END
> <chiral flag>
0

> <version>
0

> <s_m_source_file>
/data/baiqing/PycharmProjects/Reinvent-master-3.2/result/LINK_invent/BTK/process_docking_weight1_custom_sum_contain_oxygen_bond_distance_aromatic_linkinvent_7_9_3/rearranged_h_0078.sdf

> <i_m_source_file_index>
17

> <r_mmod_Potential_Energy-OPLS-2005>
217.463134765625

> <r_mmod_Stretch_Energy-OPLS-2005>
55.818244934082

> <r_mmod_Bend_Energy-OPLS-2005>
341.031341552734

> <r_mmod_Torsional_Energy-OPLS-2005>
215.134826660156

> <r_mmod_Improper_Torsional_Energy-OPLS-2005>
1.63492321968079

> <r_mmod_Van_der_Waal_Energy-OPLS-2005>
147.326751708984

> <r_mmod_Electrostatic_Energy-OPLS-2005>
-159.814025878906

> <r_mmod_Solvation_Energy-OPLS-2005>
-399.025482177734

> <b_mmod_Minimization_Converged-OPLS-2005>
0

> <r_mmod_RMS_Derivative-OPLS-2005>
2.17117166519165

$$$$
17
                    3D
 Structure written by MMmdl.
163171  0  0  1  0            999 V2000
  -30.6524  -14.7047   20.4266 C   0  0  0  0  0  0
  -30.4213  -12.4261   19.4605 C   0  0  0  0  0  0
  -29.4996  -12.4867   18.2248 C   0  0  0  0  0  0
  -28.0251  -12.3280   18.6421 C   0  0  0  0  0  0
  -27.6398  -13.2309   19.8444 C   0  0  2  0  0  0
  -28.6905  -13.1763   20.9750 C   0  0  0  0  0  0
  -25.2520  -13.8206   20.5706 C   0  0  0  0  0  0
  -24.1808  -13.0455   20.9239 C   0  0  0  0  0  0
  -24.6397  -11.6935   20.8761 C   0  0  0  0  0  0
  -23.9081  -10.4311   21.0422 C   0  0  0  0  0  0
  -24.3628   -9.4220   21.9198 C   0  0  0  0  0  0
  -23.6304   -8.2250   22.0754 C   0  0  0  0  0  0
  -22.4288   -8.0288   21.3545 C   0  0  0  0  0  0
  -21.9931   -9.0266   20.4645 C   0  0  0  0  0  0
  -22.7257  -10.2148   20.3062 C   0  0  0  0  0  0
  -21.6851   -6.0750   22.5283 C   0  0  0  0  0  0
  -21.4010   -6.5656   23.8223 C   0  0  0  0  0  0
  -21.3655   -5.6799   24.9179 C   0  0  0  0  0  0
  -21.6039   -4.3060   24.7228 C   0  0  0  0  0  0
  -21.8822   -3.8165   23.4348 C   0  0  0  0  0  0
  -21.9197   -4.6980   22.3401 C   0  0  0  0  0  0
  -22.7837  -13.5240   21.1887 C   0  0  0  0  0  0
  -22.1667   -4.2173   21.0972 F   0  0  0  0  0  0
  -21.5628   -3.4539   25.7743 F   0  0  0  0  0  0
  -29.9890  -13.5030   20.3763 N   0  0  0  0  0  0
  -26.2941  -12.9406   20.3282 N   0  0  0  0  0  0
  -25.9326  -11.6561   20.5779 N   0  0  0  0  0  0
  -22.0465  -12.8202   22.0418 N   0  0  0  0  0  0
  -25.4208  -15.1917   20.4110 N   0  0  0  0  0  0
  -31.8579  -14.7496   20.1752 O   0  0  0  0  0  0
  -21.6634   -6.8889   21.4246 O   0  0  0  0  0  0
  -22.3528  -14.5555   20.6747 O   0  0  0  0  0  0
  -24.6341  -31.8498   23.1968 C   0  0  0  0  0  0
  -25.9163  -32.4722   23.8325 C   0  0  1  0  0  0
  -27.2367  -27.2749   20.1161 C   0  0  0  0  0  0
  -25.5944  -33.8537   24.2233 N   0  0  0  0  0  0
  -23.4307  -30.4676   21.5439 C   0  0  2  0  0  0
  -24.8750  -28.9110   20.1107 C   0  0  0  0  0  0
  -22.7518  -29.4536   22.4963 C   0  0  0  0  0  0
  -18.0264  -28.1388   22.8429 C   0  0  0  0  0  0
  -24.1481  -36.7298   23.2632 C   0  0  0  0  0  0
  -25.9715  -30.7668   21.3711 C   0  0  0  0  0  0
  -26.0443  -29.3900   20.7130 C   0  0  0  0  0  0
  -27.2250  -28.5838   20.7007 C   0  0  0  0  0  0
  -26.0373  -26.8444   19.5055 C   0  0  0  0  0  0
  -24.8753  -27.6444   19.5005 C   0  0  0  0  0  0
  -23.6452  -29.7986   20.1597 C   0  0  0  0  0  0
  -25.4114  -36.3071   24.0307 C   0  0  1  0  0  0
  -20.5865  -28.3688   23.1269 C   0  0  2  0  0  0
  -20.6772  -26.9409   22.5414 C   0  0  0  0  0  0
  -19.5756  -26.6376   21.5203 C   0  0  0  0  0  0
  -18.1920  -26.7911   22.1593 C   0  0  0  0  0  0
  -19.1521  -28.8857   23.2822 C   0  0  0  0  0  0
  -18.9456  -30.1452   23.8839 C   0  0  0  0  0  0
  -17.6460  -30.6574   24.0558 C   0  0  0  0  0  0
  -25.9047  -34.9426   23.5086 C   0  0  0  0  0  0
  -16.5341  -29.9069   23.6338 C   0  0  0  0  0  0
  -16.7258  -28.6508   23.0313 C   0  0  0  0  0  0
  -26.4519  -31.6559   25.0730 C   0  0  0  0  0  0
  -25.3725  -31.3710   26.1445 C   0  0  0  0  0  0
  -27.0389  -30.2973   24.6250 C   0  0  0  0  0  0
  -27.6080  -32.4313   25.7490 C   0  0  0  0  0  0
  -27.5563  -37.1797   24.8446 C   0  0  0  0  0  0
  -21.4227  -29.3016   22.3681 N   0  0  0  0  0  0
  -26.4287  -37.3773   23.9388 N   0  0  0  0  0  0
  -24.6987  -31.0452   22.0959 N   0  0  0  0  0  0
  -23.4193  -28.8078   23.3078 O   0  0  0  0  0  0
  -28.3780  -26.4477   20.1885 O   0  0  0  0  0  0
  -26.5639  -34.8891   22.4660 O   0  0  0  0  0  0
  -23.5489  -32.1341   23.7265 O   0  0  0  0  0  0
  -28.0319  -21.1230   22.1065 C   0  0  0  0  0  0
  -28.5035  -18.9586   21.9394 C   0  0  0  0  0  0
  -28.6676  -20.9894   20.8946 C   0  0  0  0  0  0
  -29.0105  -19.5345   20.8053 C   0  0  0  0  0  0
  -27.7767  -20.3116   25.1772 C   0  0  0  0  0  0
  -28.8321  -22.2721   19.9660 C   0  0  0  0  0  0
  -28.4401  -23.7417   20.5595 C   0  0  0  0  0  0
  -27.1648  -19.6219   23.9527 C   0  0  0  0  0  0
  -30.5304  -17.2783   20.3240 C   0  0  0  0  0  0
  -28.4845  -25.0618   19.6301 C   0  0  0  0  0  0
  -29.7309  -18.5890   19.7712 C   0  0  2  0  0  0
  -27.8899  -19.8999   22.7224 N   0  0  0  0  0  0
  -29.9329  -15.8844   20.5019 N   0  0  0  0  0  0
  -30.6854  -19.4414   19.0498 N   0  3  0  0  0  0
  -31.4634  -12.5302   19.1530 H   0  0  0  0  0  0
  -30.3499  -11.4544   19.9517 H   0  0  0  0  0  0
  -29.7710  -11.7057   17.5127 H   0  0  0  0  0  0
  -29.6352  -13.4365   17.7049 H   0  0  0  0  0  0
  -27.8692  -11.2796   18.8995 H   0  0  0  0  0  0
  -27.3699  -12.5315   17.7941 H   0  0  0  0  0  0
  -27.6321  -14.2501   19.4583 H   0  0  0  0  0  0
  -28.7202  -12.1880   21.4368 H   0  0  0  0  0  0
  -28.4411  -13.8820   21.7693 H   0  0  0  0  0  0
  -25.2773   -9.5693   22.4783 H   0  0  0  0  0  0
  -24.0023   -7.4635   22.7466 H   0  0  0  0  0  0
  -21.0876   -8.8788   19.8940 H   0  0  0  0  0  0
  -22.3728  -10.9691   19.6178 H   0  0  0  0  0  0
  -21.1989   -7.6166   23.9736 H   0  0  0  0  0  0
  -21.1470   -6.0523   25.9080 H   0  0  0  0  0  0
  -22.0601   -2.7635   23.2839 H   0  0  0  0  0  0
  -22.4075  -11.9850   22.4783 H   0  0  0  0  0  0
  -21.1078  -13.1220   22.2608 H   0  0  0  0  0  0
  -24.6535  -15.8451   20.5238 H   0  0  0  0  0  0
  -26.2628  -15.6325   20.0672 H   0  0  0  0  0  0
  -26.7239  -32.5363   23.1073 H   0  0  0  0  0  0
  -25.0090  -33.9664   25.0383 H   0  0  0  0  0  0
  -22.7272  -31.2900   21.3988 H   0  0  0  0  0  0
  -23.3726  -35.9639   23.3311 H   0  0  0  0  0  0
  -24.3593  -36.8964   22.2049 H   0  0  0  0  0  0
  -23.7260  -37.6509   23.6689 H   0  0  0  0  0  0
  -26.1024  -31.5252   20.5983 H   0  0  0  0  0  0
  -26.8513  -30.8187   22.0022 H   0  0  0  0  0  0
  -28.1289  -28.9463   21.1698 H   0  0  0  0  0  0
  -25.9627  -25.8686   19.0518 H   0  0  0  0  0  0
  -23.9760  -27.2631   19.0352 H   0  0  0  0  0  0
  -23.7751  -30.5767   19.4056 H   0  0  0  0  0  0
  -22.7619  -29.2369   19.8536 H   0  0  0  0  0  0
  -25.1294  -36.1917   25.0802 H   0  0  0  0  0  0
  -20.9906  -28.3284   24.1413 H   0  0  0  0  0  0
  -20.5703  -26.2292   23.3622 H   0  0  0  0  0  0
  -21.6639  -26.7461   22.1207 H   0  0  0  0  0  0
  -19.6952  -25.6291   21.1239 H   0  0  0  0  0  0
  -19.6721  -27.3183   20.6731 H   0  0  0  0  0  0
  -17.4212  -26.6638   21.3976 H   0  0  0  0  0  0
  -18.0308  -26.0050   22.8983 H   0  0  0  0  0  0
  -19.7938  -30.7263   24.2201 H   0  0  0  0  0  0
  -17.5017  -31.6242   24.5177 H   0  0  0  0  0  0
  -15.5342  -30.2953   23.7711 H   0  0  0  0  0  0
  -15.8650  -28.0851   22.7004 H   0  0  0  0  0  0
  -24.5933  -30.7010   25.7781 H   0  0  0  0  0  0
  -24.8822  -32.2848   26.4809 H   0  0  0  0  0  0
  -25.8006  -30.8949   27.0264 H   0  0  0  0  0  0
  -26.2989  -29.6684   24.1274 H   0  0  0  0  0  0
  -27.4074  -29.7289   25.4797 H   0  0  0  0  0  0
  -27.8851  -30.4265   23.9499 H   0  0  0  0  0  0
  -27.2746  -33.3675   26.1992 H   0  0  0  0  0  0
  -28.3913  -32.6790   25.0308 H   0  0  0  0  0  0
  -28.0720  -31.8477   26.5462 H   0  0  0  0  0  0
  -28.2556  -38.0101   24.7522 H   0  0  0  0  0  0
  -28.1085  -36.2648   24.6254 H   0  0  0  0  0  0
  -27.2301  -37.1444   25.8851 H   0  0  0  0  0  0
  -20.9462  -29.8758   21.6878 H   0  0  0  0  0  0
  -26.0156  -38.2838   24.1418 H   0  0  0  0  0  0
  -27.6186  -21.9998   22.5873 H   0  0  0  0  0  0
  -28.5040  -17.9212   22.2495 H   0  0  0  0  0  0
  -27.1965  -20.0805   26.0712 H   0  0  0  0  0  0
  -27.7846  -21.3947   25.0611 H   0  0  0  0  0  0
  -28.8005  -19.9798   25.3524 H   0  0  0  0  0  0
  -28.2289  -22.0915   19.0746 H   0  0  0  0  0  0
  -29.8630  -22.3108   19.6160 H   0  0  0  0  0  0
  -29.0988  -23.9303   21.4069 H   0  0  0  0  0  0
  -27.4345  -23.6903   20.9776 H   0  0  0  0  0  0
  -26.1291  -19.9328   23.8152 H   0  0  0  0  0  0
  -27.1413  -18.5423   24.1132 H   0  0  0  0  0  0
  -31.0265  -17.5471   21.2567 H   0  0  0  0  0  0
  -31.3515  -17.1259   19.6206 H   0  0  0  0  0  0
  -29.4828  -25.0596   19.1933 H   0  0  0  0  0  0
  -27.8340  -24.9319   18.7671 H   0  0  0  0  0  0
  -28.9869  -18.2600   19.0442 H   0  0  0  0  0  0
  -28.9350  -15.8150   20.6273 H   0  0  0  0  0  0
  -31.3795  -19.7987   19.6803 H   0  0  0  0  0  0
  -30.2015  -20.2094   18.6235 H   0  0  0  0  0  0
  -31.1382  -18.9162   18.3237 H   0  0  0  0  0  0
  1 25  1  0  0  0
  1 30  2  0  0  0
  1 83  1  0  0  0
  2  3  1  0  0  0
  2 25  1  0  0  0
  2 85  1  0  0  0
  2 86  1  0  0  0
  3  4  1  0  0  0
  3 87  1  0  0  0
  3 88  1  0  0  0
  4  5  1  0  0  0
  4 89  1  0  0  0
  4 90  1  0  0  0
  5  6  1  0  0  0
  5 26  1  0  0  0
  5 91  1  0  0  0
  6 25  1  0  0  0
  6 92  1  0  0  0
  6 93  1  0  0  0
  7  8  2  0  0  0
  7 26  1  0  0  0
  7 29  1  0  0  0
  8  9  1  0  0  0
  8 22  1  0  0  0
  9 10  1  0  0  0
  9 27  2  0  0  0
 10 11  2  0  0  0
 10 15  1  0  0  0
 11 12  1  0  0  0
 11 94  1  0  0  0
 12 13  2  0  0  0
 12 95  1  0  0  0
 13 14  1  0  0  0
 13 31  1  0  0  0
 14 15  2  0  0  0
 14 96  1  0  0  0
 15 97  1  0  0  0
 16 17  2  0  0  0
 16 21  1  0  0  0
 16 31  1  0  0  0
 17 18  1  0  0  0
 17 98  1  0  0  0
 18 19  2  0  0  0
 18 99  1  0  0  0
 19 20  1  0  0  0
 19 24  1  0  0  0
 20 21  2  0  0  0
 20100  1  0  0  0
 21 23  1  0  0  0
 22 28  1  0  0  0
 22 32  2  0  0  0
 26 27  1  0  0  0
 28101  1  0  0  0
 28102  1  0  0  0
 29103  1  0  0  0
 29104  1  0  0  0
 33 34  1  0  0  0
 33 66  1  0  0  0
 33 70  2  0  0  0
 34 36  1  0  0  0
 34 59  1  0  0  0
 34105  1  0  0  0
 35 44  2  0  0  0
 35 45  1  0  0  0
 35 68  1  0  0  0
 36 56  1  0  0  0
 36106  1  0  0  0
 37 39  1  0  0  0
 37 47  1  0  0  0
 37 66  1  0  0  0
 37107  1  0  0  0
 38 43  2  0  0  0
 38 46  1  0  0  0
 38 47  1  0  0  0
 39 64  1  0  0  0
 39 67  2  0  0  0
 40 52  1  0  0  0
 40 53  2  0  0  0
 40 58  1  0  0  0
 41108  1  0  0  0
 41109  1  0  0  0
 41110  1  0  0  0
 41 48  1  0  0  0
 42 43  1  0  0  0
 42 66  1  0  0  0
 42111  1  0  0  0
 42112  1  0  0  0
 43 44  1  0  0  0
 44113  1  0  0  0
 45 46  2  0  0  0
 45114  1  0  0  0
 46115  1  0  0  0
 47116  1  0  0  0
 47117  1  0  0  0
 48 56  1  0  0  0
 48 65  1  0  0  0
 48118  1  0  0  0
 49 50  1  0  0  0
 49 53  1  0  0  0
 49 64  1  0  0  0
 49119  1  0  0  0
 50 51  1  0  0  0
 50120  1  0  0  0
 50121  1  0  0  0
 51 52  1  0  0  0
 51122  1  0  0  0
 51123  1  0  0  0
 52124  1  0  0  0
 52125  1  0  0  0
 53 54  1  0  0  0
 54 55  2  0  0  0
 54126  1  0  0  0
 55 57  1  0  0  0
 55127  1  0  0  0
 56 69  2  0  0  0
 57 58  2  0  0  0
 57128  1  0  0  0
 58129  1  0  0  0
 59 60  1  0  0  0
 59 61  1  0  0  0
 59 62  1  0  0  0
 60130  1  0  0  0
 60131  1  0  0  0
 60132  1  0  0  0
 61133  1  0  0  0
 61134  1  0  0  0
 61135  1  0  0  0
 62136  1  0  0  0
 62137  1  0  0  0
 62138  1  0  0  0
 63 65  1  0  0  0
 63139  1  0  0  0
 63140  1  0  0  0
 63141  1  0  0  0
 64142  1  0  0  0
 65143  1  0  0  0
 68 80  1  0  0  0
 71 73  2  0  0  0
 71 82  1  0  0  0
 71144  1  0  0  0
 72 74  2  0  0  0
 72 82  1  0  0  0
 72145  1  0  0  0
 73 74  1  0  0  0
 73 76  1  0  0  0
 74 81  1  0  0  0
 75 78  1  0  0  0
 75146  1  0  0  0
 75147  1  0  0  0
 75148  1  0  0  0
 76 77  1  0  0  0
 76149  1  0  0  0
 76150  1  0  0  0
 77 80  1  0  0  0
 77151  1  0  0  0
 77152  1  0  0  0
 78 82  1  0  0  0
 78153  1  0  0  0
 78154  1  0  0  0
 79 81  1  0  0  0
 79 83  1  0  0  0
 79155  1  0  0  0
 79156  1  0  0  0
 80157  1  0  0  0
 80158  1  0  0  0
 81 84  1  0  0  0
 81159  1  0  0  0
 83160  1  0  0  0
 84161  1  0  0  0
 84162  1  0  0  0
 84163  1  0  0  0
M  CHG  1  84   1
M  ISO  4   1 100  68 101  80 101  83 100
M  END
> <chiral flag>
0

> <version>
0

> <s_m_source_file>
/data/baiqing/PycharmProjects/Reinvent-master-3.2/result/LINK_invent/BTK/process_docking_weight1_custom_sum_contain_oxygen_bond_distance_aromatic_linkinvent_7_9_3/rearranged_h_0078.sdf

> <i_m_source_file_index>
18

> <r_mmod_Potential_Energy-OPLS-2005>
-175.121673583984

> <r_mmod_Stretch_Energy-OPLS-2005>
124.091911315918

> <r_mmod_Bend_Energy-OPLS-2005>
204.280776977539

> <r_mmod_Torsional_Energy-OPLS-2005>
231.73681640625

> <r_mmod_Improper_Torsional_Energy-OPLS-2005>
5.97282361984253

> <r_mmod_Van_der_Waal_Energy-OPLS-2005>
115.078720092773

> <r_mmod_Electrostatic_Energy-OPLS-2005>
-433.201171875

> <r_mmod_Solvation_Energy-OPLS-2005>
-497.118682861328

> <b_mmod_Minimization_Converged-OPLS-2005>
0

> <r_mmod_RMS_Derivative-OPLS-2005>
3.19240975379944

$$$$
18
                    3D
 Structure written by MMmdl.
164172  0  0  1  0            999 V2000
  -30.6416  -14.7173   20.5355 C   0  0  0  0  0  0
  -30.4354  -12.4442   19.4761 C   0  0  0  0  0  0
  -29.5117  -12.5306   18.2390 C   0  0  0  0  0  0
  -28.0340  -12.3723   18.6413 C   0  0  0  0  0  0
  -27.6513  -13.2419   19.8682 C   0  0  2  0  0  0
  -28.6979  -13.1188   20.9980 C   0  0  0  0  0  0
  -25.2532  -13.8187   20.5673 C   0  0  0  0  0  0
  -24.1840  -13.0449   20.9187 C   0  0  0  0  0  0
  -24.6457  -11.6921   20.8769 C   0  0  0  0  0  0
  -23.9164  -10.4327   21.0464 C   0  0  0  0  0  0
  -24.3709   -9.4224   21.9228 C   0  0  0  0  0  0
  -23.6364   -8.2273   22.0793 C   0  0  0  0  0  0
  -22.4334   -8.0348   21.3588 C   0  0  0  0  0  0
  -22.0014   -9.0332   20.4675 C   0  0  0  0  0  0
  -22.7348  -10.2196   20.3091 C   0  0  0  0  0  0
  -21.6868   -6.0823   22.5309 C   0  0  0  0  0  0
  -21.4018   -6.5701   23.8266 C   0  0  0  0  0  0
  -21.3659   -5.6826   24.9195 C   0  0  0  0  0  0
  -21.6029   -4.3098   24.7220 C   0  0  0  0  0  0
  -21.8815   -3.8226   23.4341 C   0  0  0  0  0  0
  -21.9225   -4.7053   22.3412 C   0  0  0  0  0  0
  -22.7868  -13.5209   21.1867 C   0  0  0  0  0  0
  -22.1701   -4.2261   21.0982 F   0  0  0  0  0  0
  -21.5613   -3.4578   25.7711 F   0  0  0  0  0  0
  -30.0096  -13.4900   20.4387 N   0  0  0  0  0  0
  -26.3007  -12.9453   20.3321 N   0  0  0  0  0  0
  -25.9396  -11.6581   20.5747 N   0  0  0  0  0  0
  -22.0531  -12.8208   22.0406 N   0  0  0  0  0  0
  -25.4153  -15.1911   20.4018 N   0  0  0  0  0  0
  -31.7543  -14.8525   20.0158 O   0  0  0  0  0  0
  -21.6669   -6.8973   21.4276 O   0  0  0  0  0  0
  -22.3552  -14.5534   20.6735 O   0  0  0  0  0  0
  -24.6322  -31.8514   23.1952 C   0  0  0  0  0  0
  -25.9157  -32.4721   23.8307 C   0  0  1  0  0  0
  -27.2473  -27.2709   20.1304 C   0  0  0  0  0  0
  -25.5929  -33.8525   24.2212 N   0  0  0  0  0  0
  -23.4328  -30.4675   21.5371 C   0  0  2  0  0  0
  -24.8878  -28.9069   20.1179 C   0  0  0  0  0  0
  -22.7501  -29.4553   22.4896 C   0  0  0  0  0  0
  -18.0284  -28.1367   22.8505 C   0  0  0  0  0  0
  -24.1492  -36.7295   23.2634 C   0  0  0  0  0  0
  -25.9775  -30.7651   21.3777 C   0  0  0  0  0  0
  -26.0556  -29.3847   20.7264 C   0  0  0  0  0  0
  -27.2395  -28.5793   20.7183 C   0  0  0  0  0  0
  -26.0526  -26.8504   19.5042 C   0  0  0  0  0  0
  -24.8895  -27.6460   19.4993 C   0  0  0  0  0  0
  -23.6595  -29.7931   20.1578 C   0  0  0  0  0  0
  -25.4114  -36.3030   24.0300 C   0  0  1  0  0  0
  -20.5886  -28.3691   23.1293 C   0  0  2  0  0  0
  -20.6769  -26.9408   22.5421 C   0  0  0  0  0  0
  -19.5746  -26.6370   21.5226 C   0  0  0  0  0  0
  -18.1917  -26.7912   22.1629 C   0  0  0  0  0  0
  -19.1531  -28.8850   23.2890 C   0  0  0  0  0  0
  -18.9450  -30.1441   23.8933 C   0  0  0  0  0  0
  -17.6450  -30.6589   24.0552 C   0  0  0  0  0  0
  -25.9052  -34.9418   23.5050 C   0  0  0  0  0  0
  -16.5348  -29.9086   23.6317 C   0  0  0  0  0  0
  -16.7264  -28.6476   23.0391 C   0  0  0  0  0  0
  -26.4535  -31.6565   25.0710 C   0  0  0  0  0  0
  -25.3784  -31.3763   26.1448 C   0  0  0  0  0  0
  -27.0366  -30.2957   24.6240 C   0  0  0  0  0  0
  -27.6025  -32.4355   25.7544 C   0  0  0  0  0  0
  -27.5570  -37.1785   24.8445 C   0  0  0  0  0  0
  -21.4204  -29.3031   22.3685 N   0  0  0  0  0  0
  -26.4271  -37.3735   23.9398 N   0  0  0  0  0  0
  -24.6984  -31.0472   22.0927 N   0  0  0  0  0  0
  -23.4195  -28.8084   23.2996 O   0  0  0  0  0  0
  -28.3707  -26.4154   20.1216 O   0  0  0  0  0  0
  -26.5619  -34.8909   22.4626 O   0  0  0  0  0  0
  -23.5487  -32.1351   23.7237 O   0  0  0  0  0  0
  -29.8118  -18.7063   21.2810 C   0  0  0  0  0  0
  -29.8348  -17.4367   20.6767 C   0  0  0  0  0  0
  -29.0915  -19.0210   19.2336 C   0  0  0  0  0  0
  -28.4695  -19.5914   18.0058 C   0  0  0  0  0  0
  -31.0663  -22.1629   20.8620 C   0  0  0  0  0  0
  -30.5267  -24.5859   19.5437 C   0  0  0  0  0  0
  -28.6240  -23.3903   18.5212 C   0  0  0  0  0  0
  -30.0333  -15.9924   21.2984 C   0  0  0  0  0  0
  -28.7091  -21.0847   20.6570 C   0  0  0  0  0  0
  -28.2314  -24.9654   20.4998 C   0  0  0  0  0  0
  -29.5544  -22.4725   20.7527 C   0  0  2  0  0  0
  -29.2124  -23.8301   19.8690 C   0  0  0  0  0  0
  -29.2847  -19.6642   20.3992 N   0  0  0  0  0  0
  -29.4270  -17.7199   19.3900 N   0  3  0  0  0  0
  -31.4775  -12.5563   19.1753 H   0  0  0  0  0  0
  -30.3747  -11.4534   19.9327 H   0  0  0  0  0  0
  -29.7782  -11.7616   17.5132 H   0  0  0  0  0  0
  -29.6645  -13.4887   17.7356 H   0  0  0  0  0  0
  -27.8594  -11.3185   18.8596 H   0  0  0  0  0  0
  -27.3923  -12.6194   17.7953 H   0  0  0  0  0  0
  -27.6627  -14.2793   19.5241 H   0  0  0  0  0  0
  -28.7248  -12.0968   21.3802 H   0  0  0  0  0  0
  -28.4227  -13.7299   21.8551 H   0  0  0  0  0  0
  -25.2880   -9.5714   22.4759 H   0  0  0  0  0  0
  -24.0134   -7.4657   22.7478 H   0  0  0  0  0  0
  -21.0979   -8.8866   19.8935 H   0  0  0  0  0  0
  -22.3854  -10.9778   19.6201 H   0  0  0  0  0  0
  -21.1991   -7.6207   23.9792 H   0  0  0  0  0  0
  -21.1462   -6.0549   25.9091 H   0  0  0  0  0  0
  -22.0576   -2.7701   23.2789 H   0  0  0  0  0  0
  -22.4169  -11.9873   22.4797 H   0  0  0  0  0  0
  -21.1140  -13.1241   22.2565 H   0  0  0  0  0  0
  -24.6277  -15.8240   20.4816 H   0  0  0  0  0  0
  -26.2440  -15.6324   20.0323 H   0  0  0  0  0  0
  -26.7199  -32.5402   23.1031 H   0  0  0  0  0  0
  -25.0071  -33.9651   25.0356 H   0  0  0  0  0  0
  -22.7308  -31.2886   21.3767 H   0  0  0  0  0  0
  -23.3724  -35.9647   23.3261 H   0  0  0  0  0  0
  -24.3595  -36.8997   22.2054 H   0  0  0  0  0  0
  -23.7281  -37.6499   23.6715 H   0  0  0  0  0  0
  -26.1175  -31.5176   20.6024 H   0  0  0  0  0  0
  -26.8542  -30.8190   22.0108 H   0  0  0  0  0  0
  -28.1433  -28.9404   21.1903 H   0  0  0  0  0  0
  -26.0034  -25.8889   19.0142 H   0  0  0  0  0  0
  -23.9961  -27.2709   19.0181 H   0  0  0  0  0  0
  -23.8011  -30.5631   19.3997 H   0  0  0  0  0  0
  -22.7844  -29.2249   19.8414 H   0  0  0  0  0  0
  -25.1292  -36.1832   25.0778 H   0  0  0  0  0  0
  -20.9962  -28.3234   24.1426 H   0  0  0  0  0  0
  -20.5707  -26.2272   23.3599 H   0  0  0  0  0  0
  -21.6623  -26.7452   22.1191 H   0  0  0  0  0  0
  -19.6926  -25.6279   21.1260 H   0  0  0  0  0  0
  -19.6696  -27.3173   20.6741 H   0  0  0  0  0  0
  -17.4187  -26.6681   21.4019 H   0  0  0  0  0  0
  -18.0322  -26.0048   22.9019 H   0  0  0  0  0  0
  -19.7922  -30.7221   24.2356 H   0  0  0  0  0  0
  -17.5009  -31.6285   24.5107 H   0  0  0  0  0  0
  -15.5351  -30.3001   23.7630 H   0  0  0  0  0  0
  -15.8651  -28.0776   22.7179 H   0  0  0  0  0  0
  -24.5848  -30.7237   25.7794 H   0  0  0  0  0  0
  -24.9141  -32.2989   26.4943 H   0  0  0  0  0  0
  -25.8113  -30.8861   27.0181 H   0  0  0  0  0  0
  -26.2940  -29.6709   24.1246 H   0  0  0  0  0  0
  -27.3993  -29.7204   25.4778 H   0  0  0  0  0  0
  -27.8861  -30.4184   23.9510 H   0  0  0  0  0  0
  -27.2486  -33.3574   26.2183 H   0  0  0  0  0  0
  -28.3823  -32.7086   25.0418 H   0  0  0  0  0  0
  -28.0714  -31.8492   26.5464 H   0  0  0  0  0  0
  -28.2508  -38.0147   24.7485 H   0  0  0  0  0  0
  -28.1129  -36.2665   24.6228 H   0  0  0  0  0  0
  -27.2305  -37.1378   25.8854 H   0  0  0  0  0  0
  -20.9390  -29.8790   21.6925 H   0  0  0  0  0  0
  -26.0130  -38.2795   24.1432 H   0  0  0  0  0  0
  -30.0183  -18.9597   22.3112 H   0  0  0  0  0  0
  -28.6010  -18.8934   17.1812 H   0  0  0  0  0  0
  -28.9632  -20.5298   17.7695 H   0  0  0  0  0  0
  -27.4095  -19.7546   18.2089 H   0  0  0  0  0  0
  -31.2521  -21.2881   21.4817 H   0  0  0  0  0  0
  -31.6064  -22.9791   21.3493 H   0  0  0  0  0  0
  -31.5256  -21.9876   19.8884 H   0  0  0  0  0  0
  -30.3471  -25.4416   18.8964 H   0  0  0  0  0  0
  -31.2621  -23.9747   19.0202 H   0  0  0  0  0  0
  -30.9959  -24.9752   20.4464 H   0  0  0  0  0  0
  -28.5514  -24.2203   17.8193 H   0  0  0  0  0  0
  -27.6188  -22.9789   18.6297 H   0  0  0  0  0  0
  -29.2586  -22.6403   18.0547 H   0  0  0  0  0  0
  -29.0852  -15.7348   21.7594 H   0  0  0  0  0  0
  -30.7057  -16.1324   22.1436 H   0  0  0  0  0  0
  -27.8373  -21.2054   20.0157 H   0  0  0  0  0  0
  -28.2496  -20.9729   21.6385 H   0  0  0  0  0  0
  -28.3562  -24.9495   21.5817 H   0  0  0  0  0  0
  -27.2058  -24.6265   20.3573 H   0  0  0  0  0  0
  -29.3205  -22.8067   21.7627 H   0  0  0  0  0  0
  -29.2978  -17.0369   18.6542 H   0  0  0  0  0  0
  1 25  1  0  0  0
  1 30  2  0  0  0
  1 78  1  0  0  0
  2  3  1  0  0  0
  2 25  1  0  0  0
  2 85  1  0  0  0
  2 86  1  0  0  0
  3  4  1  0  0  0
  3 87  1  0  0  0
  3 88  1  0  0  0
  4  5  1  0  0  0
  4 89  1  0  0  0
  4 90  1  0  0  0
  5  6  1  0  0  0
  5 26  1  0  0  0
  5 91  1  0  0  0
  6 25  1  0  0  0
  6 92  1  0  0  0
  6 93  1  0  0  0
  7  8  2  0  0  0
  7 26  1  0  0  0
  7 29  1  0  0  0
  8  9  1  0  0  0
  8 22  1  0  0  0
  9 10  1  0  0  0
  9 27  2  0  0  0
 10 11  2  0  0  0
 10 15  1  0  0  0
 11 12  1  0  0  0
 11 94  1  0  0  0
 12 13  2  0  0  0
 12 95  1  0  0  0
 13 14  1  0  0  0
 13 31  1  0  0  0
 14 15  2  0  0  0
 14 96  1  0  0  0
 15 97  1  0  0  0
 16 17  2  0  0  0
 16 21  1  0  0  0
 16 31  1  0  0  0
 17 18  1  0  0  0
 17 98  1  0  0  0
 18 19  2  0  0  0
 18 99  1  0  0  0
 19 20  1  0  0  0
 19 24  1  0  0  0
 20 21  2  0  0  0
 20100  1  0  0  0
 21 23  1  0  0  0
 22 28  1  0  0  0
 22 32  2  0  0  0
 26 27  1  0  0  0
 28101  1  0  0  0
 28102  1  0  0  0
 29103  1  0  0  0
 29104  1  0  0  0
 33 34  1  0  0  0
 33 66  1  0  0  0
 33 70  2  0  0  0
 34 36  1  0  0  0
 34 59  1  0  0  0
 34105  1  0  0  0
 35 44  2  0  0  0
 35 45  1  0  0  0
 35 68  1  0  0  0
 36 56  1  0  0  0
 36106  1  0  0  0
 37 39  1  0  0  0
 37 47  1  0  0  0
 37 66  1  0  0  0
 37107  1  0  0  0
 38 43  2  0  0  0
 38 46  1  0  0  0
 38 47  1  0  0  0
 39 64  1  0  0  0
 39 67  2  0  0  0
 40 52  1  0  0  0
 40 53  2  0  0  0
 40 58  1  0  0  0
 41108  1  0  0  0
 41109  1  0  0  0
 41110  1  0  0  0
 41 48  1  0  0  0
 42 43  1  0  0  0
 42 66  1  0  0  0
 42111  1  0  0  0
 42112  1  0  0  0
 43 44  1  0  0  0
 44113  1  0  0  0
 45 46  2  0  0  0
 45114  1  0  0  0
 46115  1  0  0  0
 47116  1  0  0  0
 47117  1  0  0  0
 48 56  1  0  0  0
 48 65  1  0  0  0
 48118  1  0  0  0
 49 50  1  0  0  0
 49 53  1  0  0  0
 49 64  1  0  0  0
 49119  1  0  0  0
 50 51  1  0  0  0
 50120  1  0  0  0
 50121  1  0  0  0
 51 52  1  0  0  0
 51122  1  0  0  0
 51123  1  0  0  0
 52124  1  0  0  0
 52125  1  0  0  0
 53 54  1  0  0  0
 54 55  2  0  0  0
 54126  1  0  0  0
 55 57  1  0  0  0
 55127  1  0  0  0
 56 69  2  0  0  0
 57 58  2  0  0  0
 57128  1  0  0  0
 58129  1  0  0  0
 59 60  1  0  0  0
 59 61  1  0  0  0
 59 62  1  0  0  0
 60130  1  0  0  0
 60131  1  0  0  0
 60132  1  0  0  0
 61133  1  0  0  0
 61134  1  0  0  0
 61135  1  0  0  0
 62136  1  0  0  0
 62137  1  0  0  0
 62138  1  0  0  0
 63 65  1  0  0  0
 63139  1  0  0  0
 63140  1  0  0  0
 63141  1  0  0  0
 64142  1  0  0  0
 65143  1  0  0  0
 68 80  1  0  0  0
 71 72  2  0  0  0
 71 83  1  0  0  0
 71144  1  0  0  0
 72 78  1  0  0  0
 72 84  1  0  0  0
 73 74  1  0  0  0
 73 83  1  0  0  0
 73 84  2  0  0  0
 74145  1  0  0  0
 74146  1  0  0  0
 74147  1  0  0  0
 75148  1  0  0  0
 75149  1  0  0  0
 75150  1  0  0  0
 75 81  1  0  0  0
 76151  1  0  0  0
 76152  1  0  0  0
 76153  1  0  0  0
 76 82  1  0  0  0
 77 82  1  0  0  0
 77154  1  0  0  0
 77155  1  0  0  0
 77156  1  0  0  0
 78157  1  0  0  0
 78158  1  0  0  0
 79 81  1  0  0  0
 79 83  1  0  0  0
 79159  1  0  0  0
 79160  1  0  0  0
 80 82  1  0  0  0
 80161  1  0  0  0
 80162  1  0  0  0
 81 82  1  0  0  0
 81163  1  0  0  0
 84164  1  0  0  0
M  CHG  1  84   1
M  ISO  4   1 100  68 101  78 100  80 101
M  END
> <chiral flag>
0

> <version>
0

> <s_m_source_file>
/data/baiqing/PycharmProjects/Reinvent-master-3.2/result/LINK_invent/BTK/process_docking_weight1_custom_sum_contain_oxygen_bond_distance_aromatic_linkinvent_7_9_3/rearranged_h_0078.sdf

> <i_m_source_file_index>
19

> <r_mmod_Potential_Energy-OPLS-2005>
268.028747558594

> <r_mmod_Stretch_Energy-OPLS-2005>
135.879287719727

> <r_mmod_Bend_Energy-OPLS-2005>
215.869842529297

> <r_mmod_Torsional_Energy-OPLS-2005>
242.145126342773

> <r_mmod_Improper_Torsional_Energy-OPLS-2005>
5.56748342514038

> <r_mmod_Van_der_Waal_Energy-OPLS-2005>
125.253410339355

> <r_mmod_Electrostatic_Energy-OPLS-2005>
-124.472633361816

> <r_mmod_Solvation_Energy-OPLS-2005>
-401.740509033203

> <b_mmod_Minimization_Converged-OPLS-2005>
0

> <r_mmod_RMS_Derivative-OPLS-2005>
5.59966897964478

$$$$
19
                    3D
 Structure written by MMmdl.
166174  0  0  1  0            999 V2000
  -30.7039  -14.5221   20.4727 C   0  0  0  0  0  0
  -30.4195  -12.3054   19.4514 C   0  0  0  0  0  0
  -29.4962  -12.4413   18.2211 C   0  0  0  0  0  0
  -28.0196  -12.3177   18.6367 C   0  0  0  0  0  0
  -27.6495  -13.2129   19.8475 C   0  0  2  0  0  0
  -28.6931  -13.0975   20.9804 C   0  0  0  0  0  0
  -25.2510  -13.8136   20.5581 C   0  0  0  0  0  0
  -24.1825  -13.0415   20.9194 C   0  0  0  0  0  0
  -24.6407  -11.6892   20.8789 C   0  0  0  0  0  0
  -23.9075  -10.4281   21.0441 C   0  0  0  0  0  0
  -24.3615   -9.4190   21.9206 C   0  0  0  0  0  0
  -23.6297   -8.2228   22.0769 C   0  0  0  0  0  0
  -22.4275   -8.0275   21.3538 C   0  0  0  0  0  0
  -21.9914   -9.0269   20.4637 C   0  0  0  0  0  0
  -22.7259  -10.2138   20.3076 C   0  0  0  0  0  0
  -21.6861   -6.0731   22.5275 C   0  0  0  0  0  0
  -21.4019   -6.5633   23.8209 C   0  0  0  0  0  0
  -21.3661   -5.6785   24.9174 C   0  0  0  0  0  0
  -21.6045   -4.3054   24.7232 C   0  0  0  0  0  0
  -21.8824   -3.8146   23.4358 C   0  0  0  0  0  0
  -21.9198   -4.6961   22.3412 C   0  0  0  0  0  0
  -22.7856  -13.5207   21.1876 C   0  0  0  0  0  0
  -22.1663   -4.2138   21.0996 F   0  0  0  0  0  0
  -21.5619   -3.4539   25.7752 F   0  0  0  0  0  0
  -30.0185  -13.3501   20.4016 N   0  0  0  0  0  0
  -26.2978  -12.9352   20.3253 N   0  0  0  0  0  0
  -25.9332  -11.6519   20.5807 N   0  0  0  0  0  0
  -22.0513  -12.8194   22.0428 N   0  0  0  0  0  0
  -25.4149  -15.1811   20.3721 N   0  0  0  0  0  0
  -31.9174  -14.5900   20.2675 O   0  0  0  0  0  0
  -21.6627   -6.8887   21.4247 O   0  0  0  0  0  0
  -22.3551  -14.5531   20.6752 O   0  0  0  0  0  0
  -24.6179  -31.8697   23.2138 C   0  0  0  0  0  0
  -25.9072  -32.4828   23.8452 C   0  0  1  0  0  0
  -27.2252  -27.4382   20.1045 C   0  0  0  0  0  0
  -25.5913  -33.8616   24.2373 N   0  0  0  0  0  0
  -23.4059  -30.5018   21.5520 C   0  0  2  0  0  0
  -24.8487  -28.9756   20.1076 C   0  0  0  0  0  0
  -22.7432  -29.4712   22.4960 C   0  0  0  0  0  0
  -18.0302  -28.1393   22.8542 C   0  0  0  0  0  0
  -24.1494  -36.7330   23.2644 C   0  0  0  0  0  0
  -25.9352  -30.8401   21.3672 C   0  0  0  0  0  0
  -26.0107  -29.4805   20.7059 C   0  0  0  0  0  0
  -27.2056  -28.7227   20.6959 C   0  0  0  0  0  0
  -26.0436  -26.9551   19.4937 C   0  0  0  0  0  0
  -24.8622  -27.7135   19.4929 C   0  0  0  0  0  0
  -23.6116  -29.8447   20.1638 C   0  0  0  0  0  0
  -25.4097  -36.3104   24.0364 C   0  0  1  0  0  0
  -20.5882  -28.3736   23.1351 C   0  0  2  0  0  0
  -20.6798  -26.9428   22.5562 C   0  0  0  0  0  0
  -19.5828  -26.6338   21.5324 C   0  0  0  0  0  0
  -18.1959  -26.7934   22.1658 C   0  0  0  0  0  0
  -19.1541  -28.8873   23.2931 C   0  0  0  0  0  0
  -18.9458  -30.1493   23.8903 C   0  0  0  0  0  0
  -17.6461  -30.6640   24.0541 C   0  0  0  0  0  0
  -25.9019  -34.9469   23.5163 C   0  0  0  0  0  0
  -16.5358  -29.9107   23.6334 C   0  0  0  0  0  0
  -16.7278  -28.6501   23.0406 C   0  0  0  0  0  0
  -26.4486  -31.6597   25.0774 C   0  0  0  0  0  0
  -25.3774  -31.3679   26.1542 C   0  0  0  0  0  0
  -27.0321  -30.3046   24.6146 C   0  0  0  0  0  0
  -27.6095  -32.4300   25.7504 C   0  0  0  0  0  0
  -27.5584  -37.1805   24.8468 C   0  0  0  0  0  0
  -21.4156  -29.3106   22.3724 N   0  0  0  0  0  0
  -26.4286  -37.3781   23.9414 N   0  0  0  0  0  0
  -24.6719  -31.0813   22.1039 N   0  0  0  0  0  0
  -23.4206  -28.8205   23.2969 O   0  0  0  0  0  0
  -28.3736  -26.6682   20.1469 O   0  0  0  0  0  0
  -26.5571  -34.8924   22.4719 O   0  0  0  0  0  0
  -23.5369  -32.1433   23.7522 O   0  0  0  0  0  0
  -26.7816  -20.9284   22.4140 C   0  0  0  0  0  0
  -26.4653  -19.7119   23.0513 C   0  0  0  0  0  0
  -27.7699  -20.8691   21.4035 C   0  0  0  0  0  0
  -27.8727  -18.5775   21.6402 C   0  0  0  0  0  0
  -26.0664  -22.2172   22.8062 C   0  0  0  0  0  0
  -25.4639  -19.6228   24.1878 C   0  0  0  0  0  0
  -30.1367  -16.2021   18.8457 C   0  0  0  0  0  0
  -28.2499  -22.1087   20.6403 C   0  0  0  0  0  0
  -28.2058  -17.2276   20.9982 C   0  0  0  0  0  0
  -29.0757  -23.1095   21.4912 C   0  0  0  0  0  0
  -29.3955  -24.4644   20.8017 C   0  0  0  0  0  0
  -29.6447  -16.6691   21.1918 C   0  0  0  0  0  0
  -28.1356  -25.2793   20.4409 C   0  0  0  0  0  0
  -27.0194  -18.5511   22.6576 N   0  0  0  0  0  0
  -28.3017  -19.6842   21.0306 N   0  0  0  0  0  0
  -29.9486  -15.6197   20.1913 N   0  0  0  0  0  0
  -31.4656  -12.3888   19.1498 H   0  0  0  0  0  0
  -30.3124  -11.3222   19.9070 H   0  0  0  0  0  0
  -29.7370  -11.6669   17.4933 H   0  0  0  0  0  0
  -29.6711  -13.3923   17.7188 H   0  0  0  0  0  0
  -27.8440  -11.2712   18.8877 H   0  0  0  0  0  0
  -27.3713  -12.5365   17.7898 H   0  0  0  0  0  0
  -27.6556  -14.2430   19.4878 H   0  0  0  0  0  0
  -28.6700  -12.1102   21.4421 H   0  0  0  0  0  0
  -28.4688  -13.8208   21.7684 H   0  0  0  0  0  0
  -25.2751   -9.5644   22.4781 H   0  0  0  0  0  0
  -23.9991   -7.4617   22.7493 H   0  0  0  0  0  0
  -21.0839   -8.8825   19.8929 H   0  0  0  0  0  0
  -22.3761  -10.9698   19.6203 H   0  0  0  0  0  0
  -21.2019   -7.6134   23.9706 H   0  0  0  0  0  0
  -21.1466   -6.0511   25.9066 H   0  0  0  0  0  0
  -22.0598   -2.7593   23.2879 H   0  0  0  0  0  0
  -22.4122  -11.9836   22.4789 H   0  0  0  0  0  0
  -21.1150  -13.1265   22.2642 H   0  0  0  0  0  0
  -24.6300  -15.8217   20.4136 H   0  0  0  0  0  0
  -26.2331  -15.5798   19.9391 H   0  0  0  0  0  0
  -26.7179  -32.5552   23.1256 H   0  0  0  0  0  0
  -25.0091  -33.9777   25.0538 H   0  0  0  0  0  0
  -22.6957  -31.3208   21.4153 H   0  0  0  0  0  0
  -23.3724  -35.9695   23.3315 H   0  0  0  0  0  0
  -24.3617  -36.8913   22.2059 H   0  0  0  0  0  0
  -23.7269  -37.6561   23.6623 H   0  0  0  0  0  0
  -26.0514  -31.6151   20.6059 H   0  0  0  0  0  0
  -26.8221  -30.8857   21.9911 H   0  0  0  0  0  0
  -28.1012  -29.1030   21.1687 H   0  0  0  0  0  0
  -26.0099  -25.9891   19.0124 H   0  0  0  0  0  0
  -23.9738  -27.3219   19.0137 H   0  0  0  0  0  0
  -23.7269  -30.6238   19.4080 H   0  0  0  0  0  0
  -22.7320  -29.2707   19.8635 H   0  0  0  0  0  0
  -25.1261  -36.1988   25.0858 H   0  0  0  0  0  0
  -20.9995  -28.3371   24.1486 H   0  0  0  0  0  0
  -20.5589  -26.2384   23.3791 H   0  0  0  0  0  0
  -21.6716  -26.7426   22.1471 H   0  0  0  0  0  0
  -19.6992  -25.6217   21.1471 H   0  0  0  0  0  0
  -19.6846  -27.3050   20.6802 H   0  0  0  0  0  0
  -17.4267  -26.6750   21.3997 H   0  0  0  0  0  0
  -18.0293  -26.0052   22.9020 H   0  0  0  0  0  0
  -19.7914  -30.7364   24.2245 H   0  0  0  0  0  0
  -17.5022  -31.6349   24.5059 H   0  0  0  0  0  0
  -15.5371  -30.3015   23.7664 H   0  0  0  0  0  0
  -15.8674  -28.0805   22.7151 H   0  0  0  0  0  0
  -24.5943  -30.7026   25.7885 H   0  0  0  0  0  0
  -24.8978  -32.2823   26.5052 H   0  0  0  0  0  0
  -25.8162  -30.8820   27.0277 H   0  0  0  0  0  0
  -26.2877  -29.6782   24.1221 H   0  0  0  0  0  0
  -27.4121  -29.7282   25.4590 H   0  0  0  0  0  0
  -27.8702  -30.4363   23.9296 H   0  0  0  0  0  0
  -27.2759  -33.3572   26.2175 H   0  0  0  0  0  0
  -28.3850  -32.6904   25.0285 H   0  0  0  0  0  0
  -28.0853  -31.8388   26.5341 H   0  0  0  0  0  0
  -28.2585  -38.0109   24.7485 H   0  0  0  0  0  0
  -28.1086  -36.2632   24.6300 H   0  0  0  0  0  0
  -27.2328  -37.1491   25.8880 H   0  0  0  0  0  0
  -20.9329  -29.8805   21.6940 H   0  0  0  0  0  0
  -26.0189  -38.2882   24.1345 H   0  0  0  0  0  0
  -25.0132  -22.0303   23.0262 H   0  0  0  0  0  0
  -26.0825  -22.9720   22.0200 H   0  0  0  0  0  0
  -26.5214  -22.6431   23.7006 H   0  0  0  0  0  0
  -25.7494  -20.2939   24.9979 H   0  0  0  0  0  0
  -25.4083  -18.6108   24.5941 H   0  0  0  0  0  0
  -24.4646  -19.8988   23.8488 H   0  0  0  0  0  0
  -29.5047  -15.6803   18.1299 H   0  0  0  0  0  0
  -31.1659  -16.1381   18.4826 H   0  0  0  0  0  0
  -29.8680  -17.2562   18.7825 H   0  0  0  0  0  0
  -27.3689  -22.5880   20.2147 H   0  0  0  0  0  0
  -28.8481  -21.7995   19.7813 H   0  0  0  0  0  0
  -27.9654  -17.3209   19.9391 H   0  0  0  0  0  0
  -27.5038  -16.4885   21.3821 H   0  0  0  0  0  0
  -30.0043  -22.6277   21.8027 H   0  0  0  0  0  0
  -28.5420  -23.3212   22.4179 H   0  0  0  0  0  0
  -29.9937  -24.2924   19.9057 H   0  0  0  0  0  0
  -30.0167  -25.0559   21.4760 H   0  0  0  0  0  0
  -29.7653  -16.3014   22.2146 H   0  0  0  0  0  0
  -30.3701  -17.4771   21.0765 H   0  0  0  0  0  0
  -27.4290  -25.2124   21.2717 H   0  0  0  0  0  0
  -27.6772  -24.7986   19.5777 H   0  0  0  0  0  0
  1 25  1  0  0  0
  1 30  2  0  0  0
  1 86  1  0  0  0
  2  3  1  0  0  0
  2 25  1  0  0  0
  2 87  1  0  0  0
  2 88  1  0  0  0
  3  4  1  0  0  0
  3 89  1  0  0  0
  3 90  1  0  0  0
  4  5  1  0  0  0
  4 91  1  0  0  0
  4 92  1  0  0  0
  5  6  1  0  0  0
  5 26  1  0  0  0
  5 93  1  0  0  0
  6 25  1  0  0  0
  6 94  1  0  0  0
  6 95  1  0  0  0
  7  8  2  0  0  0
  7 26  1  0  0  0
  7 29  1  0  0  0
  8  9  1  0  0  0
  8 22  1  0  0  0
  9 10  1  0  0  0
  9 27  2  0  0  0
 10 11  2  0  0  0
 10 15  1  0  0  0
 11 12  1  0  0  0
 11 96  1  0  0  0
 12 13  2  0  0  0
 12 97  1  0  0  0
 13 14  1  0  0  0
 13 31  1  0  0  0
 14 15  2  0  0  0
 14 98  1  0  0  0
 15 99  1  0  0  0
 16 17  2  0  0  0
 16 21  1  0  0  0
 16 31  1  0  0  0
 17 18  1  0  0  0
 17100  1  0  0  0
 18 19  2  0  0  0
 18101  1  0  0  0
 19 20  1  0  0  0
 19 24  1  0  0  0
 20 21  2  0  0  0
 20102  1  0  0  0
 21 23  1  0  0  0
 22 28  1  0  0  0
 22 32  2  0  0  0
 26 27  1  0  0  0
 28103  1  0  0  0
 28104  1  0  0  0
 29105  1  0  0  0
 29106  1  0  0  0
 33 34  1  0  0  0
 33 66  1  0  0  0
 33 70  2  0  0  0
 34 36  1  0  0  0
 34 59  1  0  0  0
 34107  1  0  0  0
 35 44  2  0  0  0
 35 45  1  0  0  0
 35 68  1  0  0  0
 36 56  1  0  0  0
 36108  1  0  0  0
 37 39  1  0  0  0
 37 47  1  0  0  0
 37 66  1  0  0  0
 37109  1  0  0  0
 38 43  2  0  0  0
 38 46  1  0  0  0
 38 47  1  0  0  0
 39 64  1  0  0  0
 39 67  2  0  0  0
 40 52  1  0  0  0
 40 53  2  0  0  0
 40 58  1  0  0  0
 41110  1  0  0  0
 41111  1  0  0  0
 41112  1  0  0  0
 41 48  1  0  0  0
 42 43  1  0  0  0
 42 66  1  0  0  0
 42113  1  0  0  0
 42114  1  0  0  0
 43 44  1  0  0  0
 44115  1  0  0  0
 45 46  2  0  0  0
 45116  1  0  0  0
 46117  1  0  0  0
 47118  1  0  0  0
 47119  1  0  0  0
 48 56  1  0  0  0
 48 65  1  0  0  0
 48120  1  0  0  0
 49 50  1  0  0  0
 49 53  1  0  0  0
 49 64  1  0  0  0
 49121  1  0  0  0
 50 51  1  0  0  0
 50122  1  0  0  0
 50123  1  0  0  0
 51 52  1  0  0  0
 51124  1  0  0  0
 51125  1  0  0  0
 52126  1  0  0  0
 52127  1  0  0  0
 53 54  1  0  0  0
 54 55  2  0  0  0
 54128  1  0  0  0
 55 57  1  0  0  0
 55129  1  0  0  0
 56 69  2  0  0  0
 57 58  2  0  0  0
 57130  1  0  0  0
 58131  1  0  0  0
 59 60  1  0  0  0
 59 61  1  0  0  0
 59 62  1  0  0  0
 60132  1  0  0  0
 60133  1  0  0  0
 60134  1  0  0  0
 61135  1  0  0  0
 61136  1  0  0  0
 61137  1  0  0  0
 62138  1  0  0  0
 62139  1  0  0  0
 62140  1  0  0  0
 63 65  1  0  0  0
 63141  1  0  0  0
 63142  1  0  0  0
 63143  1  0  0  0
 64144  1  0  0  0
 65145  1  0  0  0
 68 83  1  0  0  0
 71 72  2  0  0  0
 71 73  1  0  0  0
 71 75  1  0  0  0
 72 76  1  0  0  0
 72 84  1  0  0  0
 73 78  1  0  0  0
 73 85  2  0  0  0
 74 79  1  0  0  0
 74 84  2  0  0  0
 74 85  1  0  0  0
 75146  1  0  0  0
 75147  1  0  0  0
 75148  1  0  0  0
 76149  1  0  0  0
 76150  1  0  0  0
 76151  1  0  0  0
 77 86  1  0  0  0
 77152  1  0  0  0
 77153  1  0  0  0
 77154  1  0  0  0
 78 80  1  0  0  0
 78155  1  0  0  0
 78156  1  0  0  0
 79 82  1  0  0  0
 79157  1  0  0  0
 79158  1  0  0  0
 80 81  1  0  0  0
 80159  1  0  0  0
 80160  1  0  0  0
 81 83  1  0  0  0
 81161  1  0  0  0
 81162  1  0  0  0
 82 86  1  0  0  0
 82163  1  0  0  0
 82164  1  0  0  0
 83165  1  0  0  0
 83166  1  0  0  0
M  ISO  4   1 100  68 101  83 101  86 100
M  END
> <chiral flag>
0

> <version>
0

> <s_m_source_file>
/data/baiqing/PycharmProjects/Reinvent-master-3.2/result/LINK_invent/BTK/process_docking_weight1_custom_sum_contain_oxygen_bond_distance_aromatic_linkinvent_7_9_3/rearranged_h_0078.sdf

> <i_m_source_file_index>
20

> <r_mmod_Potential_Energy-OPLS-2005>
-238.213851928711

> <r_mmod_Stretch_Energy-OPLS-2005>
39.1938133239746

> <r_mmod_Bend_Energy-OPLS-2005>
103.252113342285

> <r_mmod_Torsional_Energy-OPLS-2005>
299.500152587891

> <r_mmod_Improper_Torsional_Energy-OPLS-2005>
24.1499919891357

> <r_mmod_Van_der_Waal_Energy-OPLS-2005>
159.790603637695

> <r_mmod_Electrostatic_Energy-OPLS-2005>
-678.909790039062

> <r_mmod_Solvation_Energy-OPLS-2005>
-215.766204833984

> <b_mmod_Minimization_Converged-OPLS-2005>
0

> <r_mmod_RMS_Derivative-OPLS-2005>
4.89420700073242

$$$$
20
                    3D
 Structure written by MMmdl.
170178  0  0  1  0            999 V2000
  -30.6244  -14.7258   20.4952 C   0  0  0  0  0  0
  -30.4358  -12.4556   19.4536 C   0  0  0  0  0  0
  -29.5023  -12.5077   18.2225 C   0  0  0  0  0  0
  -28.0289  -12.3396   18.6411 C   0  0  0  0  0  0
  -27.6423  -13.2313   19.8490 C   0  0  2  0  0  0
  -28.6926  -13.1514   20.9782 C   0  0  0  0  0  0
  -25.2515  -13.8204   20.5749 C   0  0  0  0  0  0
  -24.1799  -13.0445   20.9267 C   0  0  0  0  0  0
  -24.6384  -11.6929   20.8763 C   0  0  0  0  0  0
  -23.9066  -10.4297   21.0415 C   0  0  0  0  0  0
  -24.3615   -9.4211   21.9194 C   0  0  0  0  0  0
  -23.6284   -8.2250   22.0755 C   0  0  0  0  0  0
  -22.4270   -8.0289   21.3546 C   0  0  0  0  0  0
  -21.9925   -9.0262   20.4638 C   0  0  0  0  0  0
  -22.7241  -10.2148   20.3061 C   0  0  0  0  0  0
  -21.6854   -6.0743   22.5277 C   0  0  0  0  0  0
  -21.4013   -6.5652   23.8211 C   0  0  0  0  0  0
  -21.3656   -5.6802   24.9174 C   0  0  0  0  0  0
  -21.6043   -4.3066   24.7222 C   0  0  0  0  0  0
  -21.8819   -3.8155   23.4344 C   0  0  0  0  0  0
  -21.9206   -4.6971   22.3400 C   0  0  0  0  0  0
  -22.7830  -13.5235   21.1921 C   0  0  0  0  0  0
  -22.1683   -4.2157   21.0981 F   0  0  0  0  0  0
  -21.5620   -3.4549   25.7737 F   0  0  0  0  0  0
  -29.9919  -13.5080   20.3940 N   0  0  0  0  0  0
  -26.2936  -12.9406   20.3296 N   0  0  0  0  0  0
  -25.9314  -11.6545   20.5759 N   0  0  0  0  0  0
  -22.0480  -12.8166   22.0447 N   0  0  0  0  0  0
  -25.4185  -15.1928   20.4192 N   0  0  0  0  0  0
  -31.8168  -14.8334   20.1994 O   0  0  0  0  0  0
  -21.6643   -6.8880   21.4234 O   0  0  0  0  0  0
  -22.3518  -14.5541   20.6787 O   0  0  0  0  0  0
  -24.6374  -31.8572   23.1956 C   0  0  0  0  0  0
  -25.9194  -32.4751   23.8315 C   0  0  1  0  0  0
  -27.2262  -27.2496   20.0934 C   0  0  0  0  0  0
  -25.5997  -33.8552   24.2239 N   0  0  0  0  0  0
  -23.4323  -30.4817   21.5447 C   0  0  2  0  0  0
  -24.8714  -28.9284   20.1178 C   0  0  0  0  0  0
  -22.7516  -29.4646   22.4940 C   0  0  0  0  0  0
  -18.0301  -28.1391   22.8482 C   0  0  0  0  0  0
  -24.1499  -36.7254   23.2644 C   0  0  0  0  0  0
  -25.9848  -30.7653   21.3754 C   0  0  0  0  0  0
  -26.0543  -29.3914   20.7070 C   0  0  0  0  0  0
  -27.2300  -28.5685   20.6747 C   0  0  0  0  0  0
  -25.9848  -26.8392   19.5579 C   0  0  0  0  0  0
  -24.8431  -27.6572   19.5363 C   0  0  0  0  0  0
  -23.6475  -29.8191   20.1620 C   0  0  0  0  0  0
  -25.4128  -36.3040   24.0319 C   0  0  1  0  0  0
  -20.5913  -28.3705   23.1260 C   0  0  2  0  0  0
  -20.6799  -26.9428   22.5386 C   0  0  0  0  0  0
  -19.5771  -26.6384   21.5208 C   0  0  0  0  0  0
  -18.1948  -26.7939   22.1615 C   0  0  0  0  0  0
  -19.1554  -28.8868   23.2864 C   0  0  0  0  0  0
  -18.9468  -30.1479   23.8872 C   0  0  0  0  0  0
  -17.6458  -30.6595   24.0558 C   0  0  0  0  0  0
  -25.9087  -34.9429   23.5067 C   0  0  0  0  0  0
  -16.5354  -29.9079   23.6344 C   0  0  0  0  0  0
  -16.7280  -28.6504   23.0349 C   0  0  0  0  0  0
  -26.4541  -31.6580   25.0724 C   0  0  0  0  0  0
  -25.3749  -31.3704   26.1425 C   0  0  0  0  0  0
  -27.0435  -30.3011   24.6238 C   0  0  0  0  0  0
  -27.6079  -32.4342   25.7497 C   0  0  0  0  0  0
  -27.5569  -37.1785   24.8477 C   0  0  0  0  0  0
  -21.4226  -29.3058   22.3657 N   0  0  0  0  0  0
  -26.4287  -37.3746   23.9416 N   0  0  0  0  0  0
  -24.7053  -31.0523   22.0945 N   0  0  0  0  0  0
  -23.4207  -28.8224   23.3068 O   0  0  0  0  0  0
  -28.3612  -26.3916   20.1490 O   0  0  0  0  0  0
  -26.5648  -34.8906   22.4626 O   0  0  0  0  0  0
  -23.5511  -32.1424   23.7213 O   0  0  0  0  0  0
  -30.0904  -24.0147   21.2973 C   0  0  0  0  0  0
  -28.7987  -22.4070   20.0687 C   0  0  0  0  0  0
  -29.1260  -23.8125   20.2904 C   0  0  0  0  0  0
  -30.6720  -22.9233   21.9723 C   0  0  0  0  0  0
  -29.4309  -21.3228   20.8000 C   0  0  0  0  0  0
  -31.7077  -23.1601   23.0509 C   0  0  0  0  0  0
  -27.4675  -25.5102   17.0620 C   0  0  0  0  0  0
  -27.5289  -19.6049   20.4353 C   0  0  0  0  0  0
  -29.5607  -18.1538   18.8223 C   0  0  0  0  0  0
  -29.9440  -25.5643   18.6968 C   0  0  0  0  0  0
  -27.7124  -24.5866   18.2774 C   0  0  0  0  0  0
  -30.2482  -17.2649   21.1622 C   0  0  0  0  0  0
  -29.0013  -19.7774   20.8354 C   0  0  1  0  0  0
  -29.9412  -18.5782   20.2522 C   0  0  2  0  0  0
  -28.6606  -25.0866   19.4161 C   0  0  2  0  0  0
  -30.3634  -21.6311   21.7273 N   0  0  0  0  0  0
  -29.8526  -15.8432   20.7632 N   0  0  0  0  0  0
  -31.4730  -12.5906   19.1419 H   0  0  0  0  0  0
  -30.3898  -11.4776   19.9354 H   0  0  0  0  0  0
  -29.7713  -11.7317   17.5046 H   0  0  0  0  0  0
  -29.6293  -13.4626   17.7074 H   0  0  0  0  0  0
  -27.8784  -11.2902   18.8964 H   0  0  0  0  0  0
  -27.3697  -12.5463   17.7965 H   0  0  0  0  0  0
  -27.6380  -14.2559   19.4749 H   0  0  0  0  0  0
  -28.7283  -12.1476   21.4032 H   0  0  0  0  0  0
  -28.4301  -13.8202   21.7998 H   0  0  0  0  0  0
  -25.2761   -9.5710   22.4771 H   0  0  0  0  0  0
  -24.0001   -7.4654   22.7480 H   0  0  0  0  0  0
  -21.0867   -8.8775   19.8923 H   0  0  0  0  0  0
  -22.3689  -10.9700   19.6183 H   0  0  0  0  0  0
  -21.1989   -7.6163   23.9712 H   0  0  0  0  0  0
  -21.1481   -6.0539   25.9077 H   0  0  0  0  0  0
  -22.0589   -2.7619   23.2842 H   0  0  0  0  0  0
  -22.4117  -11.9807   22.4778 H   0  0  0  0  0  0
  -21.1087  -13.1145   22.2659 H   0  0  0  0  0  0
  -24.6413  -15.8370   20.5205 H   0  0  0  0  0  0
  -26.2494  -15.6322   20.0451 H   0  0  0  0  0  0
  -26.7271  -32.5391   23.1060 H   0  0  0  0  0  0
  -25.0173  -33.9692   25.0405 H   0  0  0  0  0  0
  -22.7298  -31.3055   21.3975 H   0  0  0  0  0  0
  -23.3771  -35.9576   23.3306 H   0  0  0  0  0  0
  -24.3575  -36.8889   22.2056 H   0  0  0  0  0  0
  -23.7258  -37.6449   23.6693 H   0  0  0  0  0  0
  -26.1331  -31.5284   20.6097 H   0  0  0  0  0  0
  -26.8612  -30.8057   22.0118 H   0  0  0  0  0  0
  -28.1421  -28.9275   21.1318 H   0  0  0  0  0  0
  -25.8223  -25.8547   19.1764 H   0  0  0  0  0  0
  -23.9252  -27.2755   19.1091 H   0  0  0  0  0  0
  -23.7790  -30.6009   19.4115 H   0  0  0  0  0  0
  -22.7636  -29.2564   19.8538 H   0  0  0  0  0  0
  -25.1302  -36.1856   25.0809 H   0  0  0  0  0  0
  -20.9990  -28.3275   24.1392 H   0  0  0  0  0  0
  -20.5728  -26.2304   23.3579 H   0  0  0  0  0  0
  -21.6655  -26.7470   22.1159 H   0  0  0  0  0  0
  -19.6935  -25.6292   21.1253 H   0  0  0  0  0  0
  -19.6718  -27.3175   20.6728 H   0  0  0  0  0  0
  -17.4212  -26.6688   21.4027 H   0  0  0  0  0  0
  -18.0355  -26.0088   22.9012 H   0  0  0  0  0  0
  -19.7943  -30.7319   24.2219 H   0  0  0  0  0  0
  -17.5009  -31.6289   24.5132 H   0  0  0  0  0  0
  -15.5351  -30.2950   23.7717 H   0  0  0  0  0  0
  -15.8685  -28.0824   22.7047 H   0  0  0  0  0  0
  -24.5923  -30.7076   25.7724 H   0  0  0  0  0  0
  -24.8945  -32.2853   26.4893 H   0  0  0  0  0  0
  -25.8053  -30.8836   27.0181 H   0  0  0  0  0  0
  -26.3052  -29.6705   24.1275 H   0  0  0  0  0  0
  -27.4157  -29.7321   25.4770 H   0  0  0  0  0  0
  -27.8888  -30.4318   23.9479 H   0  0  0  0  0  0
  -27.2697  -33.3660   26.2030 H   0  0  0  0  0  0
  -28.3892  -32.6881   25.0327 H   0  0  0  0  0  0
  -28.0750  -31.8512   26.5438 H   0  0  0  0  0  0
  -28.2575  -38.0091   24.7500 H   0  0  0  0  0  0
  -28.1078  -36.2613   24.6327 H   0  0  0  0  0  0
  -27.2284  -37.1434   25.8882 H   0  0  0  0  0  0
  -20.9432  -29.8728   21.6809 H   0  0  0  0  0  0
  -26.0151  -38.2811   24.1427 H   0  0  0  0  0  0
  -30.4102  -25.0210   21.5277 H   0  0  0  0  0  0
  -28.0517  -22.1414   19.3369 H   0  0  0  0  0  0
  -31.5982  -24.1596   23.4712 H   0  0  0  0  0  0
  -32.7153  -23.0650   22.6463 H   0  0  0  0  0  0
  -31.5995  -22.4466   23.8698 H   0  0  0  0  0  0
  -26.6375  -25.1347   16.4609 H   0  0  0  0  0  0
  -28.3431  -25.5389   16.4133 H   0  0  0  0  0  0
  -27.2398  -26.5391   17.3327 H   0  0  0  0  0  0
  -26.8919  -20.2678   21.0216 H   0  0  0  0  0  0
  -27.1932  -18.5824   20.6123 H   0  0  0  0  0  0
  -27.3714  -19.8415   19.3823 H   0  0  0  0  0  0
  -30.3438  -17.5389   18.3761 H   0  0  0  0  0  0
  -29.4191  -19.0207   18.1767 H   0  0  0  0  0  0
  -28.6382  -17.5738   18.8079 H   0  0  0  0  0  0
  -30.3468  -24.7917   18.0425 H   0  0  0  0  0  0
  -30.7324  -25.8356   19.4000 H   0  0  0  0  0  0
  -29.7609  -26.4526   18.0926 H   0  0  0  0  0  0
  -28.1777  -23.7109   17.8257 H   0  0  0  0  0  0
  -26.7911  -24.1807   18.6886 H   0  0  0  0  0  0
  -29.8244  -17.4295   22.1533 H   0  0  0  0  0  0
  -31.3239  -17.2490   21.3450 H   0  0  0  0  0  0
  -28.9972  -19.5798   21.9089 H   0  0  0  0  0  0
  -30.9140  -19.0619   20.1592 H   0  0  0  0  0  0
  -28.8695  -15.6444   20.8659 H   0  0  0  0  0  0
  1 25  1  0  0  0
  1 30  2  0  0  0
  1 87  1  0  0  0
  2  3  1  0  0  0
  2 25  1  0  0  0
  2 88  1  0  0  0
  2 89  1  0  0  0
  3  4  1  0  0  0
  3 90  1  0  0  0
  3 91  1  0  0  0
  4  5  1  0  0  0
  4 92  1  0  0  0
  4 93  1  0  0  0
  5  6  1  0  0  0
  5 26  1  0  0  0
  5 94  1  0  0  0
  6 25  1  0  0  0
  6 95  1  0  0  0
  6 96  1  0  0  0
  7  8  2  0  0  0
  7 26  1  0  0  0
  7 29  1  0  0  0
  8  9  1  0  0  0
  8 22  1  0  0  0
  9 10  1  0  0  0
  9 27  2  0  0  0
 10 11  2  0  0  0
 10 15  1  0  0  0
 11 12  1  0  0  0
 11 97  1  0  0  0
 12 13  2  0  0  0
 12 98  1  0  0  0
 13 14  1  0  0  0
 13 31  1  0  0  0
 14 15  2  0  0  0
 14 99  1  0  0  0
 15100  1  0  0  0
 16 17  2  0  0  0
 16 21  1  0  0  0
 16 31  1  0  0  0
 17 18  1  0  0  0
 17101  1  0  0  0
 18 19  2  0  0  0
 18102  1  0  0  0
 19 20  1  0  0  0
 19 24  1  0  0  0
 20 21  2  0  0  0
 20103  1  0  0  0
 21 23  1  0  0  0
 22 28  1  0  0  0
 22 32  2  0  0  0
 26 27  1  0  0  0
 28104  1  0  0  0
 28105  1  0  0  0
 29106  1  0  0  0
 29107  1  0  0  0
 33 34  1  0  0  0
 33 66  1  0  0  0
 33 70  2  0  0  0
 34 36  1  0  0  0
 34 59  1  0  0  0
 34108  1  0  0  0
 35 44  2  0  0  0
 35 45  1  0  0  0
 35 68  1  0  0  0
 36 56  1  0  0  0
 36109  1  0  0  0
 37 39  1  0  0  0
 37 47  1  0  0  0
 37 66  1  0  0  0
 37110  1  0  0  0
 38 43  2  0  0  0
 38 46  1  0  0  0
 38 47  1  0  0  0
 39 64  1  0  0  0
 39 67  2  0  0  0
 40 52  1  0  0  0
 40 53  2  0  0  0
 40 58  1  0  0  0
 41111  1  0  0  0
 41112  1  0  0  0
 41113  1  0  0  0
 41 48  1  0  0  0
 42 43  1  0  0  0
 42 66  1  0  0  0
 42114  1  0  0  0
 42115  1  0  0  0
 43 44  1  0  0  0
 44116  1  0  0  0
 45 46  2  0  0  0
 45117  1  0  0  0
 46118  1  0  0  0
 47119  1  0  0  0
 47120  1  0  0  0
 48 56  1  0  0  0
 48 65  1  0  0  0
 48121  1  0  0  0
 49 50  1  0  0  0
 49 53  1  0  0  0
 49 64  1  0  0  0
 49122  1  0  0  0
 50 51  1  0  0  0
 50123  1  0  0  0
 50124  1  0  0  0
 51 52  1  0  0  0
 51125  1  0  0  0
 51126  1  0  0  0
 52127  1  0  0  0
 52128  1  0  0  0
 53 54  1  0  0  0
 54 55  2  0  0  0
 54129  1  0  0  0
 55 57  1  0  0  0
 55130  1  0  0  0
 56 69  2  0  0  0
 57 58  2  0  0  0
 57131  1  0  0  0
 58132  1  0  0  0
 59 60  1  0  0  0
 59 61  1  0  0  0
 59 62  1  0  0  0
 60133  1  0  0  0
 60134  1  0  0  0
 60135  1  0  0  0
 61136  1  0  0  0
 61137  1  0  0  0
 61138  1  0  0  0
 62139  1  0  0  0
 62140  1  0  0  0
 62141  1  0  0  0
 63 65  1  0  0  0
 63142  1  0  0  0
 63143  1  0  0  0
 63144  1  0  0  0
 64145  1  0  0  0
 65146  1  0  0  0
 68 85  1  0  0  0
 71 73  2  0  0  0
 71 74  1  0  0  0
 71147  1  0  0  0
 72 73  1  0  0  0
 72 75  2  0  0  0
 72148  1  0  0  0
 73 85  1  0  0  0
 74 76  1  0  0  0
 74 86  2  0  0  0
 75 83  1  0  0  0
 75 86  1  0  0  0
 76149  1  0  0  0
 76150  1  0  0  0
 76151  1  0  0  0
 77 81  1  0  0  0
 77152  1  0  0  0
 77153  1  0  0  0
 77154  1  0  0  0
 78155  1  0  0  0
 78156  1  0  0  0
 78157  1  0  0  0
 78 83  1  0  0  0
 79158  1  0  0  0
 79159  1  0  0  0
 79160  1  0  0  0
 79 84  1  0  0  0
 80161  1  0  0  0
 80162  1  0  0  0
 80163  1  0  0  0
 80 85  1  0  0  0
 81 85  1  0  0  0
 81164  1  0  0  0
 81165  1  0  0  0
 82 84  1  0  0  0
 82 87  1  0  0  0
 82166  1  0  0  0
 82167  1  0  0  0
 83 84  1  0  0  0
 83168  1  0  0  0
 84169  1  0  0  0
 87170  1  0  0  0
M  ISO  4   1 100  68 101  85 101  87 100
M  END
> <chiral flag>
0

> <version>
0

> <s_m_source_file>
/data/baiqing/PycharmProjects/Reinvent-master-3.2/result/LINK_invent/BTK/process_docking_weight1_custom_sum_contain_oxygen_bond_distance_aromatic_linkinvent_7_9_3/rearranged_h_0078.sdf

> <i_m_source_file_index>
21

> <r_mmod_Potential_Energy-OPLS-2005>
80.2533187866211

> <r_mmod_Stretch_Energy-OPLS-2005>
142.25959777832

> <r_mmod_Bend_Energy-OPLS-2005>
242.143005371094

> <r_mmod_Torsional_Energy-OPLS-2005>
249.539749145508

> <r_mmod_Improper_Torsional_Energy-OPLS-2005>
5.98537254333496

> <r_mmod_Van_der_Waal_Energy-OPLS-2005>
154.562484741211

> <r_mmod_Electrostatic_Energy-OPLS-2005>
-587.647766113281

> <r_mmod_Solvation_Energy-OPLS-2005>
-208.159362792969

> <b_mmod_Minimization_Converged-OPLS-2005>
0

> <r_mmod_RMS_Derivative-OPLS-2005>
2.90038156509399

$$$$
21
                    3D
 Structure written by MMmdl.
161169  0  0  1  0            999 V2000
  -30.6920  -14.4336   20.6032 C   0  0  0  0  0  0
  -30.4310  -12.2917   19.4110 C   0  0  0  0  0  0
  -29.4954  -12.5106   18.2028 C   0  0  0  0  0  0
  -28.0148  -12.3757   18.6140 C   0  0  0  0  0  0
  -27.6683  -13.1963   19.8848 C   0  0  2  0  0  0
  -28.7081  -12.9319   20.9990 C   0  0  0  0  0  0
  -25.2615  -13.8136   20.5671 C   0  0  0  0  0  0
  -24.1848  -13.0428   20.9161 C   0  0  0  0  0  0
  -24.6382  -11.6890   20.8724 C   0  0  0  0  0  0
  -23.9043  -10.4284   21.0399 C   0  0  0  0  0  0
  -24.3599   -9.4206   21.9176 C   0  0  0  0  0  0
  -23.6281   -8.2243   22.0749 C   0  0  0  0  0  0
  -22.4266   -8.0276   21.3539 C   0  0  0  0  0  0
  -21.9894   -9.0249   20.4641 C   0  0  0  0  0  0
  -22.7217  -10.2130   20.3051 C   0  0  0  0  0  0
  -21.6851   -6.0729   22.5277 C   0  0  0  0  0  0
  -21.4011   -6.5633   23.8211 C   0  0  0  0  0  0
  -21.3659   -5.6784   24.9175 C   0  0  0  0  0  0
  -21.6041   -4.3047   24.7224 C   0  0  0  0  0  0
  -21.8821   -3.8140   23.4346 C   0  0  0  0  0  0
  -21.9195   -4.6957   22.3403 C   0  0  0  0  0  0
  -22.7878  -13.5243   21.1836 C   0  0  0  0  0  0
  -22.1670   -4.2140   21.0983 F   0  0  0  0  0  0
  -21.5630   -3.4533   25.7738 F   0  0  0  0  0  0
  -30.0453  -13.2470   20.4594 N   0  0  0  0  0  0
  -26.3052  -12.9283   20.3395 N   0  0  0  0  0  0
  -25.9307  -11.6453   20.5759 N   0  0  0  0  0  0
  -22.0513  -12.8239   22.0390 N   0  0  0  0  0  0
  -25.4362  -15.1848   20.4073 N   0  0  0  0  0  0
  -31.7842  -14.6835   20.0838 O   0  0  0  0  0  0
  -21.6636   -6.8871   21.4236 O   0  0  0  0  0  0
  -22.3570  -14.5560   20.6700 O   0  0  0  0  0  0
  -24.6115  -31.8686   23.2122 C   0  0  0  0  0  0
  -25.9025  -32.4821   23.8402 C   0  0  1  0  0  0
  -27.2452  -27.4559   20.0794 C   0  0  0  0  0  0
  -25.5886  -33.8620   24.2335 N   0  0  0  0  0  0
  -23.3983  -30.4912   21.5523 C   0  0  2  0  0  0
  -24.8454  -28.9564   20.1164 C   0  0  0  0  0  0
  -22.7390  -29.4657   22.5010 C   0  0  0  0  0  0
  -18.0265  -28.1381   22.8495 C   0  0  0  0  0  0
  -24.1480  -36.7315   23.2635 C   0  0  0  0  0  0
  -25.9246  -30.8356   21.3652 C   0  0  0  0  0  0
  -26.0005  -29.4694   20.7168 C   0  0  0  0  0  0
  -27.1957  -28.7191   20.7084 C   0  0  0  0  0  0
  -26.0672  -26.9468   19.4841 C   0  0  0  0  0  0
  -24.8706  -27.6905   19.5046 C   0  0  0  0  0  0
  -23.6060  -29.8211   20.1668 C   0  0  0  0  0  0
  -25.4102  -36.3111   24.0336 C   0  0  1  0  0  0
  -20.5850  -28.3656   23.1335 C   0  0  2  0  0  0
  -20.6753  -26.9396   22.5427 C   0  0  0  0  0  0
  -19.5735  -26.6391   21.5217 C   0  0  0  0  0  0
  -18.1913  -26.7930   22.1627 C   0  0  0  0  0  0
  -19.1512  -28.8839   23.2913 C   0  0  0  0  0  0
  -18.9441  -30.1446   23.8918 C   0  0  0  0  0  0
  -17.6445  -30.6586   24.0572 C   0  0  0  0  0  0
  -25.9030  -34.9474   23.5137 C   0  0  0  0  0  0
  -16.5337  -29.9093   23.6326 C   0  0  0  0  0  0
  -16.7254  -28.6510   23.0343 C   0  0  0  0  0  0
  -26.4468  -31.6592   25.0715 C   0  0  0  0  0  0
  -25.3744  -31.3689   26.1469 C   0  0  0  0  0  0
  -27.0290  -30.3032   24.6077 C   0  0  0  0  0  0
  -27.6054  -32.4299   25.7468 C   0  0  0  0  0  0
  -27.5581  -37.1811   24.8465 C   0  0  0  0  0  0
  -21.4122  -29.3022   22.3743 N   0  0  0  0  0  0
  -26.4295  -37.3793   23.9408 N   0  0  0  0  0  0
  -24.6627  -31.0793   22.1020 N   0  0  0  0  0  0
  -23.4171  -28.8206   23.3052 O   0  0  0  0  0  0
  -28.4476  -26.7798   20.0851 O   0  0  0  0  0  0
  -26.5592  -34.8922   22.4697 O   0  0  0  0  0  0
  -23.5313  -32.1437   23.7529 O   0  0  0  0  0  0
  -28.4578  -20.2437   20.8508 C   0  0  0  0  0  0
  -29.5231  -19.8061   21.5841 C   0  0  0  0  0  0
  -29.9189  -19.4534   24.0407 C   0  0  0  0  0  0
  -28.7947  -23.2856   18.5702 C   0  0  0  0  0  0
  -28.4066  -24.3496   19.6167 C   0  0  0  0  0  0
  -30.3926  -17.5341   22.4275 C   0  0  0  0  0  0
  -28.3270  -21.8450   18.8748 C   0  0  0  0  0  0
  -30.0987  -16.8300   21.0852 C   0  0  0  0  0  0
  -28.7015  -25.7742   19.1046 C   0  0  0  0  0  0
  -29.5398  -18.7962   22.7059 C   0  0  2  0  0  0
  -30.6621  -20.4798   21.1384 N   0  0  0  0  0  0
  -30.3375  -21.2771   20.1639 N   0  0  0  0  0  0
  -28.9979  -21.1671   19.9787 N   0  0  0  0  0  0
  -29.9700  -15.3772   21.2254 N   0  0  0  0  0  0
  -31.4736  -12.4061   19.1073 H   0  0  0  0  0  0
  -30.3420  -11.2707   19.7860 H   0  0  0  0  0  0
  -29.7293  -11.7945   17.4134 H   0  0  0  0  0  0
  -29.6680  -13.5004   17.7778 H   0  0  0  0  0  0
  -27.8146  -11.3184   18.7915 H   0  0  0  0  0  0
  -27.3667  -12.6719   17.7882 H   0  0  0  0  0  0
  -27.7258  -14.2502   19.6116 H   0  0  0  0  0  0
  -28.6791  -11.8836   21.3004 H   0  0  0  0  0  0
  -28.4659  -13.4912   21.9037 H   0  0  0  0  0  0
  -25.2748   -9.5681   22.4744 H   0  0  0  0  0  0
  -23.9993   -7.4630   22.7465 H   0  0  0  0  0  0
  -21.0831   -8.8768   19.8943 H   0  0  0  0  0  0
  -22.3683  -10.9670   19.6162 H   0  0  0  0  0  0
  -21.2007   -7.6139   23.9713 H   0  0  0  0  0  0
  -21.1481   -6.0515   25.9075 H   0  0  0  0  0  0
  -22.0605   -2.7601   23.2854 H   0  0  0  0  0  0
  -22.4130  -11.9895   22.4773 H   0  0  0  0  0  0
  -21.1134  -13.1266   22.2597 H   0  0  0  0  0  0
  -24.6708  -15.8415   20.5129 H   0  0  0  0  0  0
  -26.2924  -15.6206   20.0880 H   0  0  0  0  0  0
  -26.7092  -32.5543   23.1163 H   0  0  0  0  0  0
  -25.0025  -33.9780   25.0470 H   0  0  0  0  0  0
  -22.6853  -31.3070   21.4141 H   0  0  0  0  0  0
  -23.3731  -35.9662   23.3317 H   0  0  0  0  0  0
  -24.3573  -36.8906   22.2046 H   0  0  0  0  0  0
  -23.7245  -37.6531   23.6637 H   0  0  0  0  0  0
  -26.0322  -31.6002   20.5945 H   0  0  0  0  0  0
  -26.8142  -30.8920   21.9807 H   0  0  0  0  0  0
  -28.0891  -29.1139   21.1719 H   0  0  0  0  0  0
  -26.0545  -25.9792   19.0051 H   0  0  0  0  0  0
  -23.9796  -27.2866   19.0440 H   0  0  0  0  0  0
  -23.7117  -30.5943   19.4055 H   0  0  0  0  0  0
  -22.7301  -29.2394   19.8737 H   0  0  0  0  0  0
  -25.1278  -36.1981   25.0831 H   0  0  0  0  0  0
  -20.9939  -28.3223   24.1456 H   0  0  0  0  0  0
  -20.5659  -26.2258   23.3605 H   0  0  0  0  0  0
  -21.6628  -26.7447   22.1220 H   0  0  0  0  0  0
  -19.6894  -25.6310   21.1222 H   0  0  0  0  0  0
  -19.6677  -27.3222   20.6764 H   0  0  0  0  0  0
  -17.4183  -26.6679   21.4030 H   0  0  0  0  0  0
  -18.0315  -26.0071   22.9022 H   0  0  0  0  0  0
  -19.7919  -30.7262   24.2291 H   0  0  0  0  0  0
  -17.4999  -31.6267   24.5174 H   0  0  0  0  0  0
  -15.5340  -30.3000   23.7641 H   0  0  0  0  0  0
  -15.8654  -28.0844   22.7038 H   0  0  0  0  0  0
  -24.5920  -30.7031   25.7811 H   0  0  0  0  0  0
  -24.8931  -32.2838   26.4931 H   0  0  0  0  0  0
  -25.8104  -30.8851   27.0216 H   0  0  0  0  0  0
  -26.2828  -29.6795   24.1138 H   0  0  0  0  0  0
  -27.4068  -29.7264   25.4529 H   0  0  0  0  0  0
  -27.8660  -30.4346   23.9213 H   0  0  0  0  0  0
  -27.2686  -33.3580   26.2100 H   0  0  0  0  0  0
  -28.3836  -32.6888   25.0275 H   0  0  0  0  0  0
  -28.0756  -31.8386   26.5334 H   0  0  0  0  0  0
  -28.2614  -38.0095   24.7503 H   0  0  0  0  0  0
  -28.1062  -36.2626   24.6304 H   0  0  0  0  0  0
  -27.2297  -37.1482   25.8868 H   0  0  0  0  0  0
  -20.9279  -29.8728   21.6954 H   0  0  0  0  0  0
  -26.0180  -38.2871   24.1414 H   0  0  0  0  0  0
  -27.4087  -19.9749   20.8638 H   0  0  0  0  0  0
  -29.2412  -20.2744   24.2765 H   0  0  0  0  0  0
  -30.9314  -19.8565   24.0109 H   0  0  0  0  0  0
  -29.8677  -18.7379   24.8622 H   0  0  0  0  0  0
  -29.8722  -23.3060   18.4035 H   0  0  0  0  0  0
  -28.3509  -23.5724   17.6159 H   0  0  0  0  0  0
  -28.9525  -24.1691   20.5433 H   0  0  0  0  0  0
  -27.3485  -24.2576   19.8608 H   0  0  0  0  0  0
  -31.4498  -17.8016   22.4506 H   0  0  0  0  0  0
  -30.2496  -16.8381   23.2554 H   0  0  0  0  0  0
  -28.4756  -21.2300   17.9865 H   0  0  0  0  0  0
  -27.2535  -21.8407   19.0680 H   0  0  0  0  0  0
  -29.1518  -17.1843   20.6749 H   0  0  0  0  0  0
  -30.8579  -17.0993   20.3475 H   0  0  0  0  0  0
  -28.1807  -25.9814   18.1684 H   0  0  0  0  0  0
  -29.7625  -25.8420   18.8605 H   0  0  0  0  0  0
  -28.5172  -18.4367   22.8326 H   0  0  0  0  0  0
  -29.1068  -15.0460   21.6309 H   0  0  0  0  0  0
  1 25  1  0  0  0
  1 30  2  0  0  0
  1 84  1  0  0  0
  2  3  1  0  0  0
  2 25  1  0  0  0
  2 85  1  0  0  0
  2 86  1  0  0  0
  3  4  1  0  0  0
  3 87  1  0  0  0
  3 88  1  0  0  0
  4  5  1  0  0  0
  4 89  1  0  0  0
  4 90  1  0  0  0
  5  6  1  0  0  0
  5 26  1  0  0  0
  5 91  1  0  0  0
  6 25  1  0  0  0
  6 92  1  0  0  0
  6 93  1  0  0  0
  7  8  2  0  0  0
  7 26  1  0  0  0
  7 29  1  0  0  0
  8  9  1  0  0  0
  8 22  1  0  0  0
  9 10  1  0  0  0
  9 27  2  0  0  0
 10 11  2  0  0  0
 10 15  1  0  0  0
 11 12  1  0  0  0
 11 94  1  0  0  0
 12 13  2  0  0  0
 12 95  1  0  0  0
 13 14  1  0  0  0
 13 31  1  0  0  0
 14 15  2  0  0  0
 14 96  1  0  0  0
 15 97  1  0  0  0
 16 17  2  0  0  0
 16 21  1  0  0  0
 16 31  1  0  0  0
 17 18  1  0  0  0
 17 98  1  0  0  0
 18 19  2  0  0  0
 18 99  1  0  0  0
 19 20  1  0  0  0
 19 24  1  0  0  0
 20 21  2  0  0  0
 20100  1  0  0  0
 21 23  1  0  0  0
 22 28  1  0  0  0
 22 32  2  0  0  0
 26 27  1  0  0  0
 28101  1  0  0  0
 28102  1  0  0  0
 29103  1  0  0  0
 29104  1  0  0  0
 33 34  1  0  0  0
 33 66  1  0  0  0
 33 70  2  0  0  0
 34 36  1  0  0  0
 34 59  1  0  0  0
 34105  1  0  0  0
 35 44  2  0  0  0
 35 45  1  0  0  0
 35 68  1  0  0  0
 36 56  1  0  0  0
 36106  1  0  0  0
 37 39  1  0  0  0
 37 47  1  0  0  0
 37 66  1  0  0  0
 37107  1  0  0  0
 38 43  2  0  0  0
 38 46  1  0  0  0
 38 47  1  0  0  0
 39 64  1  0  0  0
 39 67  2  0  0  0
 40 52  1  0  0  0
 40 53  2  0  0  0
 40 58  1  0  0  0
 41108  1  0  0  0
 41109  1  0  0  0
 41110  1  0  0  0
 41 48  1  0  0  0
 42 43  1  0  0  0
 42 66  1  0  0  0
 42111  1  0  0  0
 42112  1  0  0  0
 43 44  1  0  0  0
 44113  1  0  0  0
 45 46  2  0  0  0
 45114  1  0  0  0
 46115  1  0  0  0
 47116  1  0  0  0
 47117  1  0  0  0
 48 56  1  0  0  0
 48 65  1  0  0  0
 48118  1  0  0  0
 49 50  1  0  0  0
 49 53  1  0  0  0
 49 64  1  0  0  0
 49119  1  0  0  0
 50 51  1  0  0  0
 50120  1  0  0  0
 50121  1  0  0  0
 51 52  1  0  0  0
 51122  1  0  0  0
 51123  1  0  0  0
 52124  1  0  0  0
 52125  1  0  0  0
 53 54  1  0  0  0
 54 55  2  0  0  0
 54126  1  0  0  0
 55 57  1  0  0  0
 55127  1  0  0  0
 56 69  2  0  0  0
 57 58  2  0  0  0
 57128  1  0  0  0
 58129  1  0  0  0
 59 60  1  0  0  0
 59 61  1  0  0  0
 59 62  1  0  0  0
 60130  1  0  0  0
 60131  1  0  0  0
 60132  1  0  0  0
 61133  1  0  0  0
 61134  1  0  0  0
 61135  1  0  0  0
 62136  1  0  0  0
 62137  1  0  0  0
 62138  1  0  0  0
 63 65  1  0  0  0
 63139  1  0  0  0
 63140  1  0  0  0
 63141  1  0  0  0
 64142  1  0  0  0
 65143  1  0  0  0
 68 79  1  0  0  0
 71 72  2  0  0  0
 71 83  1  0  0  0
 71144  1  0  0  0
 72 80  1  0  0  0
 72 81  1  0  0  0
 73145  1  0  0  0
 73146  1  0  0  0
 73147  1  0  0  0
 73 80  1  0  0  0
 74 75  1  0  0  0
 74 77  1  0  0  0
 74148  1  0  0  0
 74149  1  0  0  0
 75 79  1  0  0  0
 75150  1  0  0  0
 75151  1  0  0  0
 76 78  1  0  0  0
 76 80  1  0  0  0
 76152  1  0  0  0
 76153  1  0  0  0
 77 83  1  0  0  0
 77154  1  0  0  0
 77155  1  0  0  0
 78 84  1  0  0  0
 78156  1  0  0  0
 78157  1  0  0  0
 79158  1  0  0  0
 79159  1  0  0  0
 80160  1  0  0  0
 81 82  2  0  0  0
 82 83  1  0  0  0
 84161  1  0  0  0
M  ISO  4   1 100  68 101  79 101  84 100
M  END
> <chiral flag>
0

> <version>
0

> <s_m_source_file>
/data/baiqing/PycharmProjects/Reinvent-master-3.2/result/LINK_invent/BTK/process_docking_weight1_custom_sum_contain_oxygen_bond_distance_aromatic_linkinvent_7_9_3/rearranged_h_0078.sdf

> <i_m_source_file_index>
22

> <r_mmod_Potential_Energy-OPLS-2005>
-136.216903686523

> <r_mmod_Stretch_Energy-OPLS-2005>
32.567741394043

> <r_mmod_Bend_Energy-OPLS-2005>
104.146759033203

> <r_mmod_Torsional_Energy-OPLS-2005>
205.790420532227

> <r_mmod_Improper_Torsional_Energy-OPLS-2005>
4.81313323974609

> <r_mmod_Van_der_Waal_Energy-OPLS-2005>
127.386703491211

> <r_mmod_Electrostatic_Energy-OPLS-2005>
-391.313537597656

> <r_mmod_Solvation_Energy-OPLS-2005>
-229.121109008789

> <b_mmod_Minimization_Converged-OPLS-2005>
0

> <r_mmod_RMS_Derivative-OPLS-2005>
1.01625597476959

$$$$
22
                    3D
 Structure written by MMmdl.
168176  0  0  1  0            999 V2000
  -30.7501  -14.3807   20.6436 C   0  0  0  0  0  0
  -30.4105  -12.2816   19.3984 C   0  0  0  0  0  0
  -29.4843  -12.5194   18.1919 C   0  0  0  0  0  0
  -28.0064  -12.3797   18.6079 C   0  0  0  0  0  0
  -27.6633  -13.2038   19.8784 C   0  0  2  0  0  0
  -28.7012  -12.9493   20.9925 C   0  0  0  0  0  0
  -25.2585  -13.8182   20.5678 C   0  0  0  0  0  0
  -24.1816  -13.0463   20.9179 C   0  0  0  0  0  0
  -24.6369  -11.6931   20.8744 C   0  0  0  0  0  0
  -23.9044  -10.4316   21.0414 C   0  0  0  0  0  0
  -24.3606   -9.4224   21.9187 C   0  0  0  0  0  0
  -23.6292   -8.2247   22.0751 C   0  0  0  0  0  0
  -22.4279   -8.0275   21.3532 C   0  0  0  0  0  0
  -21.9904   -9.0259   20.4648 C   0  0  0  0  0  0
  -22.7221  -10.2149   20.3060 C   0  0  0  0  0  0
  -21.6851   -6.0740   22.5281 C   0  0  0  0  0  0
  -21.4016   -6.5640   23.8217 C   0  0  0  0  0  0
  -21.3657   -5.6785   24.9172 C   0  0  0  0  0  0
  -21.6037   -4.3048   24.7218 C   0  0  0  0  0  0
  -21.8817   -3.8146   23.4337 C   0  0  0  0  0  0
  -21.9191   -4.6969   22.3394 C   0  0  0  0  0  0
  -22.7836  -13.5258   21.1845 C   0  0  0  0  0  0
  -22.1654   -4.2154   21.0973 F   0  0  0  0  0  0
  -21.5635   -3.4532   25.7734 F   0  0  0  0  0  0
  -30.0368  -13.2442   20.4447 N   0  0  0  0  0  0
  -26.3018  -12.9340   20.3378 N   0  0  0  0  0  0
  -25.9288  -11.6508   20.5755 N   0  0  0  0  0  0
  -22.0474  -12.8262   22.0419 N   0  0  0  0  0  0
  -25.4338  -15.1896   20.4087 N   0  0  0  0  0  0
  -31.8375  -14.5879   20.1009 O   0  0  0  0  0  0
  -21.6630   -6.8876   21.4237 O   0  0  0  0  0  0
  -22.3510  -14.5553   20.6684 O   0  0  0  0  0  0
  -24.6157  -31.8695   23.2152 C   0  0  0  0  0  0
  -25.9051  -32.4831   23.8419 C   0  0  1  0  0  0
  -27.2282  -27.4562   20.0631 C   0  0  0  0  0  0
  -25.5923  -33.8626   24.2358 N   0  0  0  0  0  0
  -23.4015  -30.4936   21.5614 C   0  0  2  0  0  0
  -24.8379  -28.9634   20.1214 C   0  0  0  0  0  0
  -22.7414  -29.4649   22.5064 C   0  0  0  0  0  0
  -18.0277  -28.1376   22.8516 C   0  0  0  0  0  0
  -24.1497  -36.7302   23.2640 C   0  0  0  0  0  0
  -25.9296  -30.8298   21.3728 C   0  0  0  0  0  0
  -25.9980  -29.4667   20.7204 C   0  0  0  0  0  0
  -27.1919  -28.7125   20.7059 C   0  0  0  0  0  0
  -26.0414  -26.9594   19.4717 C   0  0  0  0  0  0
  -24.8488  -27.7016   19.5062 C   0  0  0  0  0  0
  -23.6020  -29.8302   20.1750 C   0  0  0  0  0  0
  -25.4117  -36.3118   24.0361 C   0  0  1  0  0  0
  -20.5875  -28.3653   23.1346 C   0  0  2  0  0  0
  -20.6785  -26.9402   22.5418 C   0  0  0  0  0  0
  -19.5745  -26.6386   21.5234 C   0  0  0  0  0  0
  -18.1925  -26.7934   22.1638 C   0  0  0  0  0  0
  -19.1522  -28.8835   23.2930 C   0  0  0  0  0  0
  -18.9434  -30.1453   23.8930 C   0  0  0  0  0  0
  -17.6426  -30.6585   24.0567 C   0  0  0  0  0  0
  -25.9039  -34.9487   23.5147 C   0  0  0  0  0  0
  -16.5327  -29.9066   23.6350 C   0  0  0  0  0  0
  -16.7263  -28.6487   23.0372 C   0  0  0  0  0  0
  -26.4494  -31.6609   25.0734 C   0  0  0  0  0  0
  -25.3760  -31.3647   26.1465 C   0  0  0  0  0  0
  -27.0305  -30.3067   24.6072 C   0  0  0  0  0  0
  -27.6106  -32.4307   25.7459 C   0  0  0  0  0  0
  -27.5601  -37.1814   24.8479 C   0  0  0  0  0  0
  -21.4148  -29.3009   22.3761 N   0  0  0  0  0  0
  -26.4313  -37.3798   23.9418 N   0  0  0  0  0  0
  -24.6672  -31.0779   22.1068 N   0  0  0  0  0  0
  -23.4181  -28.8201   23.3119 O   0  0  0  0  0  0
  -28.4217  -26.7656   20.0315 O   0  0  0  0  0  0
  -26.5573  -34.8949   22.4699 O   0  0  0  0  0  0
  -23.5357  -32.1446   23.7555 O   0  0  0  0  0  0
  -28.6951  -19.9042   19.0035 C   0  0  0  0  0  0
  -30.0022  -21.6297   19.1621 C   0  0  0  0  0  0
  -29.8932  -19.5175   19.5632 C   0  0  0  0  0  0
  -31.7780  -17.9281   19.4557 C   0  0  0  0  0  0
  -30.7701  -18.9515   22.4072 C   0  0  0  0  0  0
  -28.6465  -17.7776   21.8518 C   0  0  0  0  0  0
  -28.0752  -23.5820   17.9712 C   0  0  0  0  0  0
  -28.1837  -24.4227   19.2605 C   0  0  0  0  0  0
  -27.7188  -22.0934   18.1747 C   0  0  0  0  0  0
  -30.8171  -16.4958   21.9839 C   0  0  0  0  0  0
  -28.6374  -25.8613   18.9478 C   0  0  0  0  0  0
  -30.3482  -18.1372   19.9952 C   0  0  1  0  0  0
  -30.1580  -17.8358   21.5303 C   0  0  0  0  0  0
  -30.7182  -20.6395   19.6767 N   0  0  0  0  0  0
  -28.7728  -21.2724   18.7604 N   0  0  0  0  0  0
  -30.1870  -15.2802   21.4613 N   0  0  0  0  0  0
  -31.4563  -12.3708   19.0990 H   0  0  0  0  0  0
  -30.2969  -11.2627   19.7724 H   0  0  0  0  0  0
  -29.7185  -11.8161   17.3920 H   0  0  0  0  0  0
  -29.6621  -13.5156   17.7833 H   0  0  0  0  0  0
  -27.8109  -11.3228   18.7924 H   0  0  0  0  0  0
  -27.3538  -12.6687   17.7823 H   0  0  0  0  0  0
  -27.7226  -14.2576   19.6042 H   0  0  0  0  0  0
  -28.6676  -11.9060   21.3102 H   0  0  0  0  0  0
  -28.4615  -13.5264   21.8855 H   0  0  0  0  0  0
  -25.2766   -9.5697   22.4739 H   0  0  0  0  0  0
  -24.0008   -7.4638   22.7477 H   0  0  0  0  0  0
  -21.0827   -8.8768   19.8963 H   0  0  0  0  0  0
  -22.3680  -10.9672   19.6147 H   0  0  0  0  0  0
  -21.2010   -7.6151   23.9719 H   0  0  0  0  0  0
  -21.1479   -6.0517   25.9074 H   0  0  0  0  0  0
  -22.0605   -2.7612   23.2835 H   0  0  0  0  0  0
  -22.4057  -11.9915   22.4816 H   0  0  0  0  0  0
  -21.1090  -13.1297   22.2614 H   0  0  0  0  0  0
  -24.6794  -15.8562   20.5267 H   0  0  0  0  0  0
  -26.2955  -15.6228   20.1019 H   0  0  0  0  0  0
  -26.7116  -32.5550   23.1173 H   0  0  0  0  0  0
  -25.0181  -33.9779   25.0576 H   0  0  0  0  0  0
  -22.6917  -31.3127   21.4327 H   0  0  0  0  0  0
  -23.3773  -35.9623   23.3302 H   0  0  0  0  0  0
  -24.3594  -36.8876   22.2050 H   0  0  0  0  0  0
  -23.7224  -37.6515   23.6615 H   0  0  0  0  0  0
  -26.0508  -31.5940   20.6046 H   0  0  0  0  0  0
  -26.8160  -30.8728   21.9930 H   0  0  0  0  0  0
  -28.0916  -29.0997   21.1650 H   0  0  0  0  0  0
  -26.0056  -26.0043   18.9727 H   0  0  0  0  0  0
  -23.9550  -27.3008   19.0485 H   0  0  0  0  0  0
  -23.7098  -30.6059   19.4158 H   0  0  0  0  0  0
  -22.7266  -29.2460   19.8862 H   0  0  0  0  0  0
  -25.1294  -36.2007   25.0858 H   0  0  0  0  0  0
  -20.9983  -28.3208   24.1459 H   0  0  0  0  0  0
  -20.5758  -26.2251   23.3593 H   0  0  0  0  0  0
  -21.6652  -26.7497   22.1171 H   0  0  0  0  0  0
  -19.6910  -25.6305   21.1237 H   0  0  0  0  0  0
  -19.6691  -27.3231   20.6793 H   0  0  0  0  0  0
  -17.4229  -26.6737   21.3996 H   0  0  0  0  0  0
  -18.0287  -26.0052   22.9001 H   0  0  0  0  0  0
  -19.7897  -30.7271   24.2325 H   0  0  0  0  0  0
  -17.4965  -31.6289   24.5119 H   0  0  0  0  0  0
  -15.5324  -30.2946   23.7659 H   0  0  0  0  0  0
  -15.8680  -28.0784   22.7078 H   0  0  0  0  0  0
  -24.5994  -30.6942   25.7745 H   0  0  0  0  0  0
  -24.8886  -32.2761   26.4943 H   0  0  0  0  0  0
  -25.8132  -30.8788   27.0195 H   0  0  0  0  0  0
  -26.2808  -29.6823   24.1195 H   0  0  0  0  0  0
  -27.4143  -29.7309   25.4493 H   0  0  0  0  0  0
  -27.8629  -30.4374   23.9155 H   0  0  0  0  0  0
  -27.2789  -33.3614   26.2073 H   0  0  0  0  0  0
  -28.3893  -32.6839   25.0247 H   0  0  0  0  0  0
  -28.0814  -31.8396   26.5321 H   0  0  0  0  0  0
  -28.2648  -38.0089   24.7563 H   0  0  0  0  0  0
  -28.1071  -36.2633   24.6279 H   0  0  0  0  0  0
  -27.2324  -37.1463   25.8882 H   0  0  0  0  0  0
  -20.9339  -29.8652   21.6901 H   0  0  0  0  0  0
  -26.0212  -38.2897   24.1364 H   0  0  0  0  0  0
  -27.8118  -19.3275   18.7599 H   0  0  0  0  0  0
  -30.3895  -22.6342   19.0824 H   0  0  0  0  0  0
  -31.8146  -18.1660   18.3918 H   0  0  0  0  0  0
  -32.1285  -16.9087   19.5563 H   0  0  0  0  0  0
  -32.5002  -18.5688   19.9599 H   0  0  0  0  0  0
  -30.6844  -18.7169   23.4698 H   0  0  0  0  0  0
  -30.2748  -19.9123   22.2623 H   0  0  0  0  0  0
  -31.8278  -19.0953   22.1867 H   0  0  0  0  0  0
  -28.4731  -17.5054   22.8933 H   0  0  0  0  0  0
  -28.1233  -17.0520   21.2278 H   0  0  0  0  0  0
  -28.1680  -18.7456   21.6963 H   0  0  0  0  0  0
  -28.9980  -23.6669   17.3972 H   0  0  0  0  0  0
  -27.3031  -24.0307   17.3422 H   0  0  0  0  0  0
  -28.8828  -23.9884   19.9733 H   0  0  0  0  0  0
  -27.2239  -24.4118   19.7739 H   0  0  0  0  0  0
  -27.4537  -21.6523   17.2114 H   0  0  0  0  0  0
  -26.8332  -22.0107   18.8039 H   0  0  0  0  0  0
  -30.7412  -16.4106   23.0691 H   0  0  0  0  0  0
  -31.8896  -16.5042   21.7849 H   0  0  0  0  0  0
  -29.7068  -25.8554   18.7339 H   0  0  0  0  0  0
  -28.1715  -26.2322   18.0337 H   0  0  0  0  0  0
  -29.7393  -17.4071   19.4579 H   0  0  0  0  0  0
  -29.2819  -15.0379   21.8365 H   0  0  0  0  0  0
  1 25  1  0  0  0
  1 30  2  0  0  0
  1 86  1  0  0  0
  2  3  1  0  0  0
  2 25  1  0  0  0
  2 87  1  0  0  0
  2 88  1  0  0  0
  3  4  1  0  0  0
  3 89  1  0  0  0
  3 90  1  0  0  0
  4  5  1  0  0  0
  4 91  1  0  0  0
  4 92  1  0  0  0
  5  6  1  0  0  0
  5 26  1  0  0  0
  5 93  1  0  0  0
  6 25  1  0  0  0
  6 94  1  0  0  0
  6 95  1  0  0  0
  7  8  2  0  0  0
  7 26  1  0  0  0
  7 29  1  0  0  0
  8  9  1  0  0  0
  8 22  1  0  0  0
  9 10  1  0  0  0
  9 27  2  0  0  0
 10 11  2  0  0  0
 10 15  1  0  0  0
 11 12  1  0  0  0
 11 96  1  0  0  0
 12 13  2  0  0  0
 12 97  1  0  0  0
 13 14  1  0  0  0
 13 31  1  0  0  0
 14 15  2  0  0  0
 14 98  1  0  0  0
 15 99  1  0  0  0
 16 17  2  0  0  0
 16 21  1  0  0  0
 16 31  1  0  0  0
 17 18  1  0  0  0
 17100  1  0  0  0
 18 19  2  0  0  0
 18101  1  0  0  0
 19 20  1  0  0  0
 19 24  1  0  0  0
 20 21  2  0  0  0
 20102  1  0  0  0
 21 23  1  0  0  0
 22 28  1  0  0  0
 22 32  2  0  0  0
 26 27  1  0  0  0
 28103  1  0  0  0
 28104  1  0  0  0
 29105  1  0  0  0
 29106  1  0  0  0
 33 34  1  0  0  0
 33 66  1  0  0  0
 33 70  2  0  0  0
 34 36  1  0  0  0
 34 59  1  0  0  0
 34107  1  0  0  0
 35 44  2  0  0  0
 35 45  1  0  0  0
 35 68  1  0  0  0
 36 56  1  0  0  0
 36108  1  0  0  0
 37 39  1  0  0  0
 37 47  1  0  0  0
 37 66  1  0  0  0
 37109  1  0  0  0
 38 43  2  0  0  0
 38 46  1  0  0  0
 38 47  1  0  0  0
 39 64  1  0  0  0
 39 67  2  0  0  0
 40 52  1  0  0  0
 40 53  2  0  0  0
 40 58  1  0  0  0
 41110  1  0  0  0
 41111  1  0  0  0
 41112  1  0  0  0
 41 48  1  0  0  0
 42 43  1  0  0  0
 42 66  1  0  0  0
 42113  1  0  0  0
 42114  1  0  0  0
 43 44  1  0  0  0
 44115  1  0  0  0
 45 46  2  0  0  0
 45116  1  0  0  0
 46117  1  0  0  0
 47118  1  0  0  0
 47119  1  0  0  0
 48 56  1  0  0  0
 48 65  1  0  0  0
 48120  1  0  0  0
 49 50  1  0  0  0
 49 53  1  0  0  0
 49 64  1  0  0  0
 49121  1  0  0  0
 50 51  1  0  0  0
 50122  1  0  0  0
 50123  1  0  0  0
 51 52  1  0  0  0
 51124  1  0  0  0
 51125  1  0  0  0
 52126  1  0  0  0
 52127  1  0  0  0
 53 54  1  0  0  0
 54 55  2  0  0  0
 54128  1  0  0  0
 55 57  1  0  0  0
 55129  1  0  0  0
 56 69  2  0  0  0
 57 58  2  0  0  0
 57130  1  0  0  0
 58131  1  0  0  0
 59 60  1  0  0  0
 59 61  1  0  0  0
 59 62  1  0  0  0
 60132  1  0  0  0
 60133  1  0  0  0
 60134  1  0  0  0
 61135  1  0  0  0
 61136  1  0  0  0
 61137  1  0  0  0
 62138  1  0  0  0
 62139  1  0  0  0
 62140  1  0  0  0
 63 65  1  0  0  0
 63141  1  0  0  0
 63142  1  0  0  0
 63143  1  0  0  0
 64144  1  0  0  0
 65145  1  0  0  0
 68 81  1  0  0  0
 71 73  2  0  0  0
 71 85  1  0  0  0
 71146  1  0  0  0
 72 84  2  0  0  0
 72 85  1  0  0  0
 72147  1  0  0  0
 73 82  1  0  0  0
 73 84  1  0  0  0
 74148  1  0  0  0
 74149  1  0  0  0
 74150  1  0  0  0
 74 82  1  0  0  0
 75151  1  0  0  0
 75152  1  0  0  0
 75153  1  0  0  0
 75 83  1  0  0  0
 76 83  1  0  0  0
 76154  1  0  0  0
 76155  1  0  0  0
 76156  1  0  0  0
 77 78  1  0  0  0
 77 79  1  0  0  0
 77157  1  0  0  0
 77158  1  0  0  0
 78 81  1  0  0  0
 78159  1  0  0  0
 78160  1  0  0  0
 79 85  1  0  0  0
 79161  1  0  0  0
 79162  1  0  0  0
 80 83  1  0  0  0
 80 86  1  0  0  0
 80163  1  0  0  0
 80164  1  0  0  0
 81165  1  0  0  0
 81166  1  0  0  0
 82 83  1  0  0  0
 82167  1  0  0  0
 86168  1  0  0  0
M  ISO  4   1 100  68 101  81 101  86 100
M  END
> <chiral flag>
0

> <version>
0

> <s_m_source_file>
/data/baiqing/PycharmProjects/Reinvent-master-3.2/result/LINK_invent/BTK/process_docking_weight1_custom_sum_contain_oxygen_bond_distance_aromatic_linkinvent_7_9_3/rearranged_h_0078.sdf

> <i_m_source_file_index>
23

> <r_mmod_Potential_Energy-OPLS-2005>
-90.5282135009766

> <r_mmod_Stretch_Energy-OPLS-2005>
35.6655731201172

> <r_mmod_Bend_Energy-OPLS-2005>
117.788223266602

> <r_mmod_Torsional_Energy-OPLS-2005>
217.866806030273

> <r_mmod_Improper_Torsional_Energy-OPLS-2005>
1.73808109760284

> <r_mmod_Van_der_Waal_Energy-OPLS-2005>
142.771514892578

> <r_mmod_Electrostatic_Energy-OPLS-2005>
-401.312408447266

> <r_mmod_Solvation_Energy-OPLS-2005>
-214.173522949219

> <b_mmod_Minimization_Converged-OPLS-2005>
0

> <r_mmod_RMS_Derivative-OPLS-2005>
2.6094696521759

$$$$
23
                    3D
 Structure written by MMmdl.
167175  0  0  1  0            999 V2000
  -30.7762  -14.4335   20.6698 C   0  0  0  0  0  0
  -30.4093  -12.3144   19.4479 C   0  0  0  0  0  0
  -29.4873  -12.5368   18.2317 C   0  0  0  0  0  0
  -28.0197  -12.3452   18.6366 C   0  0  0  0  0  0
  -27.6601  -13.1741   19.8841 C   0  0  2  0  0  0
  -28.6962  -12.9579   21.0076 C   0  0  0  0  0  0
  -25.2691  -13.8029   20.5818 C   0  0  0  0  0  0
  -24.1877  -13.0408   20.9176 C   0  0  0  0  0  0
  -24.6326  -11.6830   20.8744 C   0  0  0  0  0  0
  -23.8980  -10.4258   21.0453 C   0  0  0  0  0  0
  -24.3533   -9.4220   21.9285 C   0  0  0  0  0  0
  -23.6227   -8.2259   22.0817 C   0  0  0  0  0  0
  -22.4250   -8.0244   21.3548 C   0  0  0  0  0  0
  -21.9852   -9.0243   20.4649 C   0  0  0  0  0  0
  -22.7152  -10.2136   20.3111 C   0  0  0  0  0  0
  -21.6813   -6.0726   22.5288 C   0  0  0  0  0  0
  -21.4023   -6.5651   23.8218 C   0  0  0  0  0  0
  -21.3684   -5.6794   24.9188 C   0  0  0  0  0  0
  -21.6088   -4.3067   24.7255 C   0  0  0  0  0  0
  -21.8817   -3.8147   23.4371 C   0  0  0  0  0  0
  -21.9180   -4.6963   22.3411 C   0  0  0  0  0  0
  -22.7931  -13.5277   21.1846 C   0  0  0  0  0  0
  -22.1641   -4.2140   21.1010 F   0  0  0  0  0  0
  -21.5633   -3.4557   25.7783 F   0  0  0  0  0  0
  -30.0358  -13.2934   20.4925 N   0  0  0  0  0  0
  -26.3017  -12.9113   20.3393 N   0  0  0  0  0  0
  -25.9224  -11.6293   20.5742 N   0  0  0  0  0  0
  -22.0657  -12.8339   22.0507 N   0  0  0  0  0  0
  -25.4460  -15.1741   20.4440 N   0  0  0  0  0  0
  -31.8299  -14.5653   20.0361 O   0  0  0  0  0  0
  -21.6627   -6.8838   21.4223 O   0  0  0  0  0  0
  -22.3602  -14.5586   20.6694 O   0  0  0  0  0  0
  -24.6101  -31.8729   23.2154 C   0  0  0  0  0  0
  -25.9015  -32.4852   23.8429 C   0  0  1  0  0  0
  -27.2133  -27.4694   20.0932 C   0  0  0  0  0  0
  -25.5901  -33.8645   24.2371 N   0  0  0  0  0  0
  -23.3938  -30.5014   21.5586 C   0  0  2  0  0  0
  -24.8343  -28.9791   20.1109 C   0  0  0  0  0  0
  -22.7378  -29.4689   22.5026 C   0  0  0  0  0  0
  -18.0264  -28.1367   22.8496 C   0  0  0  0  0  0
  -24.1487  -36.7328   23.2638 C   0  0  0  0  0  0
  -25.9206  -30.8532   21.3593 C   0  0  0  0  0  0
  -25.9951  -29.4944   20.7010 C   0  0  0  0  0  0
  -27.1938  -28.7501   20.6808 C   0  0  0  0  0  0
  -26.0364  -26.9654   19.4949 C   0  0  0  0  0  0
  -24.8483  -27.7131   19.5036 C   0  0  0  0  0  0
  -23.5956  -29.8427   20.1679 C   0  0  0  0  0  0
  -25.4107  -36.3125   24.0343 C   0  0  1  0  0  0
  -20.5852  -28.3653   23.1337 C   0  0  2  0  0  0
  -20.6767  -26.9402   22.5424 C   0  0  0  0  0  0
  -19.5741  -26.6386   21.5218 C   0  0  0  0  0  0
  -18.1914  -26.7914   22.1626 C   0  0  0  0  0  0
  -19.1511  -28.8826   23.2911 C   0  0  0  0  0  0
  -18.9443  -30.1440   23.8920 C   0  0  0  0  0  0
  -17.6446  -30.6582   24.0568 C   0  0  0  0  0  0
  -25.9024  -34.9494   23.5145 C   0  0  0  0  0  0
  -16.5338  -29.9088   23.6328 C   0  0  0  0  0  0
  -16.7258  -28.6501   23.0351 C   0  0  0  0  0  0
  -26.4453  -31.6609   25.0745 C   0  0  0  0  0  0
  -25.3740  -31.3701   26.1513 C   0  0  0  0  0  0
  -27.0278  -30.3068   24.6075 C   0  0  0  0  0  0
  -27.6043  -32.4321   25.7498 C   0  0  0  0  0  0
  -27.5579  -37.1822   24.8467 C   0  0  0  0  0  0
  -21.4111  -29.3025   22.3751 N   0  0  0  0  0  0
  -26.4302  -37.3812   23.9398 N   0  0  0  0  0  0
  -24.6612  -31.0872   22.1042 N   0  0  0  0  0  0
  -23.4180  -28.8219   23.3033 O   0  0  0  0  0  0
  -28.3697  -26.7296   20.1331 O   0  0  0  0  0  0
  -26.5579  -34.8934   22.4702 O   0  0  0  0  0  0
  -23.5310  -32.1455   23.7598 O   0  0  0  0  0  0
  -28.2171  -19.8036   20.1907 C   0  0  0  0  0  0
  -26.0745  -20.0881   19.1198 C   0  0  0  0  0  0
  -27.3536  -20.5978   19.4047 C   0  0  0  0  0  0
  -27.7208  -18.5634   20.6411 C   0  0  0  0  0  0
  -29.3562  -16.6006   19.2534 C   0  0  0  0  0  0
  -29.6959  -15.2945   22.9180 C   0  0  0  0  0  0
  -31.7377  -16.2661   22.0906 C   0  0  0  0  0  0
  -27.7748  -21.9629   18.9005 C   0  0  0  0  0  0
  -28.5588  -17.6168   21.4999 C   0  0  0  0  0  0
  -27.8923  -22.9699   20.0470 C   0  0  0  0  0  0
  -28.2906  -24.3651   19.5561 C   0  0  0  0  0  0
  -28.2018  -25.4166   20.6684 C   0  0  0  0  0  0
  -29.6979  -16.8567   20.7510 C   0  0  1  0  0  0
  -30.3900  -15.6733   21.5737 C   0  0  0  0  0  0
  -25.6652  -18.8735   19.5581 N   0  0  0  0  0  0
  -26.4808  -18.1253   20.3057 N   0  0  0  0  0  0
  -31.4533  -12.3835   19.1386 H   0  0  0  0  0  0
  -30.2956  -11.2997   19.8326 H   0  0  0  0  0  0
  -29.7433  -11.8464   17.4287 H   0  0  0  0  0  0
  -29.6373  -13.5424   17.8405 H   0  0  0  0  0  0
  -27.8741  -11.2876   18.8535 H   0  0  0  0  0  0
  -27.3519  -12.5741   17.8059 H   0  0  0  0  0  0
  -27.6911  -14.2124   19.5835 H   0  0  0  0  0  0
  -28.6925  -11.9197   21.3441 H   0  0  0  0  0  0
  -28.3731  -13.5013   21.8766 H   0  0  0  0  0  0
  -25.2651   -9.5765   22.4888 H   0  0  0  0  0  0
  -23.9998   -7.4679   22.7531 H   0  0  0  0  0  0
  -21.0825   -8.8687   19.8910 H   0  0  0  0  0  0
  -22.3616  -10.9711   19.6252 H   0  0  0  0  0  0
  -21.2027   -7.6156   23.9703 H   0  0  0  0  0  0
  -21.1489   -6.0565   25.9073 H   0  0  0  0  0  0
  -22.0559   -2.7609   23.2895 H   0  0  0  0  0  0
  -22.4410  -12.0151   22.5072 H   0  0  0  0  0  0
  -21.1436  -13.1571   22.2975 H   0  0  0  0  0  0
  -24.6842  -15.8223   20.5977 H   0  0  0  0  0  0
  -26.2815  -15.6440   20.1169 H   0  0  0  0  0  0
  -26.7097  -32.5569   23.1201 H   0  0  0  0  0  0
  -25.0079  -33.9827   25.0532 H   0  0  0  0  0  0
  -22.6801  -31.3181   21.4284 H   0  0  0  0  0  0
  -23.3743  -35.9666   23.3314 H   0  0  0  0  0  0
  -24.3578  -36.8924   22.2046 H   0  0  0  0  0  0
  -23.7237  -37.6546   23.6632 H   0  0  0  0  0  0
  -26.0253  -31.6258   20.5959 H   0  0  0  0  0  0
  -26.8103  -30.9035   21.9742 H   0  0  0  0  0  0
  -28.0912  -29.1420   21.1385 H   0  0  0  0  0  0
  -26.0183  -25.9938   19.0290 H   0  0  0  0  0  0
  -23.9541  -27.3112   19.0476 H   0  0  0  0  0  0
  -23.6995  -30.6242   19.4136 H   0  0  0  0  0  0
  -22.7179  -29.2649   19.8717 H   0  0  0  0  0  0
  -25.1273  -36.2012   25.0841 H   0  0  0  0  0  0
  -20.9944  -28.3212   24.1453 H   0  0  0  0  0  0
  -20.5681  -26.2258   23.3594 H   0  0  0  0  0  0
  -21.6635  -26.7462   22.1198 H   0  0  0  0  0  0
  -19.6906  -25.6297   21.1229 H   0  0  0  0  0  0
  -19.6679  -27.3212   20.6749 H   0  0  0  0  0  0
  -17.4190  -26.6671   21.4024 H   0  0  0  0  0  0
  -18.0320  -26.0052   22.9014 H   0  0  0  0  0  0
  -19.7926  -30.7248   24.2298 H   0  0  0  0  0  0
  -17.5008  -31.6263   24.5159 H   0  0  0  0  0  0
  -15.5343  -30.2996   23.7640 H   0  0  0  0  0  0
  -15.8654  -28.0828   22.7056 H   0  0  0  0  0  0
  -24.5908  -30.7049   25.7855 H   0  0  0  0  0  0
  -24.8939  -32.2858   26.4984 H   0  0  0  0  0  0
  -25.8120  -30.8861   27.0251 H   0  0  0  0  0  0
  -26.2814  -29.6855   24.1125 H   0  0  0  0  0  0
  -27.4065  -29.7276   25.4497 H   0  0  0  0  0  0
  -27.8629  -30.4407   23.9200 H   0  0  0  0  0  0
  -27.2668  -33.3604   26.2118 H   0  0  0  0  0  0
  -28.3830  -32.6911   25.0312 H   0  0  0  0  0  0
  -28.0735  -31.8423   26.5382 H   0  0  0  0  0  0
  -28.2620  -38.0102   24.7501 H   0  0  0  0  0  0
  -28.1057  -36.2631   24.6310 H   0  0  0  0  0  0
  -27.2296  -37.1497   25.8876 H   0  0  0  0  0  0
  -20.9261  -29.8763   21.6992 H   0  0  0  0  0  0
  -26.0192  -38.2898   24.1398 H   0  0  0  0  0  0
  -29.2140  -20.1401   20.4399 H   0  0  0  0  0  0
  -25.3612  -20.6592   18.5461 H   0  0  0  0  0  0
  -29.2193  -17.5437   18.7248 H   0  0  0  0  0  0
  -28.4263  -16.0605   19.1288 H   0  0  0  0  0  0
  -30.1362  -16.0837   18.6944 H   0  0  0  0  0  0
  -29.8833  -16.0355   23.6985 H   0  0  0  0  0  0
  -30.0667  -14.3442   23.3081 H   0  0  0  0  0  0
  -28.6136  -15.2377   22.8747 H   0  0  0  0  0  0
  -31.5866  -17.1450   22.7218 H   0  0  0  0  0  0
  -32.4003  -16.5899   21.2874 H   0  0  0  0  0  0
  -32.2940  -15.5350   22.6755 H   0  0  0  0  0  0
  -27.0444  -22.3197   18.1721 H   0  0  0  0  0  0
  -28.7187  -21.8782   18.3618 H   0  0  0  0  0  0
  -27.8379  -16.9168   21.9232 H   0  0  0  0  0  0
  -28.9638  -18.1695   22.3471 H   0  0  0  0  0  0
  -28.6213  -22.6201   20.7788 H   0  0  0  0  0  0
  -26.9347  -23.0216   20.5672 H   0  0  0  0  0  0
  -27.6520  -24.6474   18.7228 H   0  0  0  0  0  0
  -29.3064  -24.3460   19.1638 H   0  0  0  0  0  0
  -28.9852  -25.2429   21.4088 H   0  0  0  0  0  0
  -27.2599  -25.3213   21.2214 H   0  0  0  0  0  0
  -30.4573  -17.6365   20.6505 H   0  0  0  0  0  0
  1 25  1  0  0  0
  1 30  2  0  0  0
  1 84  1  0  0  0
  2  3  1  0  0  0
  2 25  1  0  0  0
  2 87  1  0  0  0
  2 88  1  0  0  0
  3  4  1  0  0  0
  3 89  1  0  0  0
  3 90  1  0  0  0
  4  5  1  0  0  0
  4 91  1  0  0  0
  4 92  1  0  0  0
  5  6  1  0  0  0
  5 26  1  0  0  0
  5 93  1  0  0  0
  6 25  1  0  0  0
  6 94  1  0  0  0
  6 95  1  0  0  0
  7  8  2  0  0  0
  7 26  1  0  0  0
  7 29  1  0  0  0
  8  9  1  0  0  0
  8 22  1  0  0  0
  9 10  1  0  0  0
  9 27  2  0  0  0
 10 11  2  0  0  0
 10 15  1  0  0  0
 11 12  1  0  0  0
 11 96  1  0  0  0
 12 13  2  0  0  0
 12 97  1  0  0  0
 13 14  1  0  0  0
 13 31  1  0  0  0
 14 15  2  0  0  0
 14 98  1  0  0  0
 15 99  1  0  0  0
 16 17  2  0  0  0
 16 21  1  0  0  0
 16 31  1  0  0  0
 17 18  1  0  0  0
 17100  1  0  0  0
 18 19  2  0  0  0
 18101  1  0  0  0
 19 20  1  0  0  0
 19 24  1  0  0  0
 20 21  2  0  0  0
 20102  1  0  0  0
 21 23  1  0  0  0
 22 28  1  0  0  0
 22 32  2  0  0  0
 26 27  1  0  0  0
 28103  1  0  0  0
 28104  1  0  0  0
 29105  1  0  0  0
 29106  1  0  0  0
 33 34  1  0  0  0
 33 66  1  0  0  0
 33 70  2  0  0  0
 34 36  1  0  0  0
 34 59  1  0  0  0
 34107  1  0  0  0
 35 44  2  0  0  0
 35 45  1  0  0  0
 35 68  1  0  0  0
 36 56  1  0  0  0
 36108  1  0  0  0
 37 39  1  0  0  0
 37 47  1  0  0  0
 37 66  1  0  0  0
 37109  1  0  0  0
 38 43  2  0  0  0
 38 46  1  0  0  0
 38 47  1  0  0  0
 39 64  1  0  0  0
 39 67  2  0  0  0
 40 52  1  0  0  0
 40 53  2  0  0  0
 40 58  1  0  0  0
 41110  1  0  0  0
 41111  1  0  0  0
 41112  1  0  0  0
 41 48  1  0  0  0
 42 43  1  0  0  0
 42 66  1  0  0  0
 42113  1  0  0  0
 42114  1  0  0  0
 43 44  1  0  0  0
 44115  1  0  0  0
 45 46  2  0  0  0
 45116  1  0  0  0
 46117  1  0  0  0
 47118  1  0  0  0
 47119  1  0  0  0
 48 56  1  0  0  0
 48 65  1  0  0  0
 48120  1  0  0  0
 49 50  1  0  0  0
 49 53  1  0  0  0
 49 64  1  0  0  0
 49121  1  0  0  0
 50 51  1  0  0  0
 50122  1  0  0  0
 50123  1  0  0  0
 51 52  1  0  0  0
 51124  1  0  0  0
 51125  1  0  0  0
 52126  1  0  0  0
 52127  1  0  0  0
 53 54  1  0  0  0
 54 55  2  0  0  0
 54128  1  0  0  0
 55 57  1  0  0  0
 55129  1  0  0  0
 56 69  2  0  0  0
 57 58  2  0  0  0
 57130  1  0  0  0
 58131  1  0  0  0
 59 60  1  0  0  0
 59 61  1  0  0  0
 59 62  1  0  0  0
 60132  1  0  0  0
 60133  1  0  0  0
 60134  1  0  0  0
 61135  1  0  0  0
 61136  1  0  0  0
 61137  1  0  0  0
 62138  1  0  0  0
 62139  1  0  0  0
 62140  1  0  0  0
 63 65  1  0  0  0
 63141  1  0  0  0
 63142  1  0  0  0
 63143  1  0  0  0
 64144  1  0  0  0
 65145  1  0  0  0
 68 82  1  0  0  0
 71 73  2  0  0  0
 71 74  1  0  0  0
 71146  1  0  0  0
 72 73  1  0  0  0
 72 85  2  0  0  0
 72147  1  0  0  0
 73 78  1  0  0  0
 74 79  1  0  0  0
 74 86  2  0  0  0
 75148  1  0  0  0
 75149  1  0  0  0
 75150  1  0  0  0
 75 83  1  0  0  0
 76151  1  0  0  0
 76152  1  0  0  0
 76153  1  0  0  0
 76 84  1  0  0  0
 77 84  1  0  0  0
 77154  1  0  0  0
 77155  1  0  0  0
 77156  1  0  0  0
 78 80  1  0  0  0
 78157  1  0  0  0
 78158  1  0  0  0
 79 83  1  0  0  0
 79159  1  0  0  0
 79160  1  0  0  0
 80 81  1  0  0  0
 80161  1  0  0  0
 80162  1  0  0  0
 81 82  1  0  0  0
 81163  1  0  0  0
 81164  1  0  0  0
 82165  1  0  0  0
 82166  1  0  0  0
 83 84  1  0  0  0
 83167  1  0  0  0
 85 86  1  0  0  0
M  ISO  4   1 100  68 101  82 101  84 100
M  END
> <chiral flag>
0

> <version>
0

> <s_m_source_file>
/data/baiqing/PycharmProjects/Reinvent-master-3.2/result/LINK_invent/BTK/process_docking_weight1_custom_sum_contain_oxygen_bond_distance_aromatic_linkinvent_7_9_3/rearranged_h_0078.sdf

> <i_m_source_file_index>
24

> <r_mmod_Potential_Energy-OPLS-2005>
146.267150878906

> <r_mmod_Stretch_Energy-OPLS-2005>
47.8993301391602

> <r_mmod_Bend_Energy-OPLS-2005>
140.374084472656

> <r_mmod_Torsional_Energy-OPLS-2005>
203.735305786133

> <r_mmod_Improper_Torsional_Energy-OPLS-2005>
1.93586874008179

> <r_mmod_Van_der_Waal_Energy-OPLS-2005>
186.02490234375

> <r_mmod_Electrostatic_Energy-OPLS-2005>
-255.883377075195

> <r_mmod_Solvation_Energy-OPLS-2005>
-191.09880065918

> <b_mmod_Minimization_Converged-OPLS-2005>
0

> <r_mmod_RMS_Derivative-OPLS-2005>
5.77876758575439

$$$$
24
                    3D
 Structure written by MMmdl.
167175  0  0  1  0            999 V2000
  -30.6940  -14.3956   20.5505 C   0  0  0  0  0  0
  -30.4196  -12.2559   19.3896 C   0  0  0  0  0  0
  -29.4963  -12.5064   18.1795 C   0  0  0  0  0  0
  -28.0065  -12.4018   18.5794 C   0  0  0  0  0  0
  -27.6631  -13.1978   19.8709 C   0  0  2  0  0  0
  -28.7043  -12.9063   20.9721 C   0  0  0  0  0  0
  -25.2608  -13.8131   20.5655 C   0  0  0  0  0  0
  -24.1822  -13.0423   20.9169 C   0  0  0  0  0  0
  -24.6357  -11.6891   20.8681 C   0  0  0  0  0  0
  -23.9004  -10.4300   21.0374 C   0  0  0  0  0  0
  -24.3575   -9.4231   21.9147 C   0  0  0  0  0  0
  -23.6270   -8.2251   22.0729 C   0  0  0  0  0  0
  -22.4237   -8.0279   21.3546 C   0  0  0  0  0  0
  -21.9864   -9.0237   20.4634 C   0  0  0  0  0  0
  -22.7182  -10.2131   20.3020 C   0  0  0  0  0  0
  -21.6869   -6.0720   22.5284 C   0  0  0  0  0  0
  -21.4025   -6.5613   23.8225 C   0  0  0  0  0  0
  -21.3672   -5.6767   24.9182 C   0  0  0  0  0  0
  -21.6041   -4.3025   24.7232 C   0  0  0  0  0  0
  -21.8828   -3.8124   23.4347 C   0  0  0  0  0  0
  -21.9199   -4.6944   22.3404 C   0  0  0  0  0  0
  -22.7868  -13.5281   21.1849 C   0  0  0  0  0  0
  -22.1664   -4.2134   21.0986 F   0  0  0  0  0  0
  -21.5639   -3.4495   25.7742 F   0  0  0  0  0  0
  -30.0354  -13.2173   20.4288 N   0  0  0  0  0  0
  -26.3016  -12.9259   20.3295 N   0  0  0  0  0  0
  -25.9273  -11.6437   20.5660 N   0  0  0  0  0  0
  -22.0455  -12.8294   22.0412 N   0  0  0  0  0  0
  -25.4374  -15.1829   20.4125 N   0  0  0  0  0  0
  -31.8486  -14.5802   20.1629 O   0  0  0  0  0  0
  -21.6625   -6.8852   21.4244 O   0  0  0  0  0  0
  -22.3588  -14.5599   20.6733 O   0  0  0  0  0  0
  -24.6188  -31.8667   23.2136 C   0  0  0  0  0  0
  -25.9058  -32.4845   23.8438 C   0  0  1  0  0  0
  -27.2158  -27.4095   20.1055 C   0  0  0  0  0  0
  -25.5910  -33.8659   24.2380 N   0  0  0  0  0  0
  -23.4119  -30.4926   21.5532 C   0  0  2  0  0  0
  -24.8570  -28.9727   20.1018 C   0  0  0  0  0  0
  -22.7460  -29.4655   22.4969 C   0  0  0  0  0  0
  -18.0308  -28.1390   22.8505 C   0  0  0  0  0  0
  -24.1475  -36.7302   23.2643 C   0  0  0  0  0  0
  -25.9494  -30.8213   21.3784 C   0  0  0  0  0  0
  -26.0201  -29.4642   20.7049 C   0  0  0  0  0  0
  -27.2092  -28.6951   20.6966 C   0  0  0  0  0  0
  -26.0407  -26.9581   19.4641 C   0  0  0  0  0  0
  -24.8630  -27.7249   19.4647 C   0  0  0  0  0  0
  -23.6222  -29.8381   20.1639 C   0  0  0  0  0  0
  -25.4103  -36.3164   24.0373 C   0  0  1  0  0  0
  -20.5876  -28.3769   23.1335 C   0  0  2  0  0  0
  -20.6815  -26.9455   22.5574 C   0  0  0  0  0  0
  -19.5839  -26.6284   21.5392 C   0  0  0  0  0  0
  -18.1991  -26.7898   22.1725 C   0  0  0  0  0  0
  -19.1536  -28.8911   23.2869 C   0  0  0  0  0  0
  -18.9408  -30.1518   23.8853 C   0  0  0  0  0  0
  -17.6390  -30.6606   24.0533 C   0  0  0  0  0  0
  -25.9019  -34.9511   23.5165 C   0  0  0  0  0  0
  -16.5298  -29.9063   23.6291 C   0  0  0  0  0  0
  -16.7270  -28.6480   23.0317 C   0  0  0  0  0  0
  -26.4467  -31.6605   25.0763 C   0  0  0  0  0  0
  -25.3717  -31.3738   26.1502 C   0  0  0  0  0  0
  -27.0296  -30.3041   24.6180 C   0  0  0  0  0  0
  -27.6081  -32.4321   25.7466 C   0  0  0  0  0  0
  -27.5593  -37.1817   24.8483 C   0  0  0  0  0  0
  -21.4172  -29.3069   22.3687 N   0  0  0  0  0  0
  -26.4307  -37.3839   23.9414 N   0  0  0  0  0  0
  -24.6783  -31.0725   22.1068 N   0  0  0  0  0  0
  -23.4192  -28.8177   23.3027 O   0  0  0  0  0  0
  -28.2916  -26.5494   20.2388 O   0  0  0  0  0  0
  -26.5573  -34.8941   22.4720 O   0  0  0  0  0  0
  -23.5356  -32.1457   23.7465 O   0  0  0  0  0  0
  -28.5011  -20.8695   22.4755 C   0  0  0  0  0  0
  -27.7776  -22.0530   22.2067 C   0  0  0  0  0  0
  -26.4339  -21.9148   21.7551 C   0  0  0  0  0  0
  -27.8681  -19.6201   22.3360 C   0  0  0  0  0  0
  -25.9169  -20.6044   21.5585 C   0  0  0  0  0  0
  -25.5520  -23.1316   21.5138 C   0  0  0  0  0  0
  -24.6013  -19.8651   19.5046 C   0  0  0  0  0  0
  -28.4297  -23.3991   22.5629 C   0  0  0  0  0  0
  -28.5427  -18.3187   22.7381 C   0  0  0  0  0  0
  -24.5391  -20.2984   20.9767 C   0  0  0  0  0  0
  -28.9391  -24.3309   21.4181 C   0  0  0  0  0  0
  -28.7770  -17.4104   21.5296 C   0  0  0  0  0  0
  -29.5005  -16.1052   21.8771 C   0  0  0  0  0  0
  -27.8759  -25.3229   20.8910 C   0  0  0  0  0  0
  -26.6116  -19.4972   21.8759 N   0  0  0  0  0  0
  -29.8901  -15.4560   20.6337 N   0  0  0  0  0  0
  -31.4681  -12.3465   19.1001 H   0  0  0  0  0  0
  -30.2971  -11.2338   19.7507 H   0  0  0  0  0  0
  -29.7148  -11.7903   17.3853 H   0  0  0  0  0  0
  -29.7018  -13.4940   17.7593 H   0  0  0  0  0  0
  -27.7754  -11.3468   18.7180 H   0  0  0  0  0  0
  -27.3778  -12.7411   17.7542 H   0  0  0  0  0  0
  -27.7183  -14.2562   19.6192 H   0  0  0  0  0  0
  -28.6615  -11.8509   21.2418 H   0  0  0  0  0  0
  -28.4841  -13.4486   21.8882 H   0  0  0  0  0  0
  -25.2728   -9.5721   22.4700 H   0  0  0  0  0  0
  -23.9999   -7.4655   22.7440 H   0  0  0  0  0  0
  -21.0787   -8.8743   19.8948 H   0  0  0  0  0  0
  -22.3625  -10.9644   19.6109 H   0  0  0  0  0  0
  -21.2005   -7.6118   23.9733 H   0  0  0  0  0  0
  -21.1493   -6.0475   25.9096 H   0  0  0  0  0  0
  -22.0588   -2.7571   23.2853 H   0  0  0  0  0  0
  -22.4032  -12.0013   22.4917 H   0  0  0  0  0  0
  -21.1071  -13.1360   22.2512 H   0  0  0  0  0  0
  -24.6846  -15.8495   20.5420 H   0  0  0  0  0  0
  -26.3151  -15.6177   20.1531 H   0  0  0  0  0  0
  -26.7120  -32.5538   23.1197 H   0  0  0  0  0  0
  -25.0169  -33.9791   25.0594 H   0  0  0  0  0  0
  -22.7073  -31.3149   21.4202 H   0  0  0  0  0  0
  -23.3787  -35.9590   23.3342 H   0  0  0  0  0  0
  -24.3581  -36.8840   22.2050 H   0  0  0  0  0  0
  -23.7140  -37.6505   23.6572 H   0  0  0  0  0  0
  -26.0747  -31.5950   20.6206 H   0  0  0  0  0  0
  -26.8356  -30.8612   22.0031 H   0  0  0  0  0  0
  -28.0971  -29.0649   21.1852 H   0  0  0  0  0  0
  -26.0185  -25.9954   18.9785 H   0  0  0  0  0  0
  -23.9727  -27.3504   18.9806 H   0  0  0  0  0  0
  -23.7352  -30.6220   19.4163 H   0  0  0  0  0  0
  -22.7559  -29.2487   19.8626 H   0  0  0  0  0  0
  -25.1262  -36.2110   25.0878 H   0  0  0  0  0  0
  -20.9931  -28.3448   24.1462 H   0  0  0  0  0  0
  -20.5726  -26.2442   23.3863 H   0  0  0  0  0  0
  -21.6711  -26.7489   22.1444 H   0  0  0  0  0  0
  -19.7006  -25.6117   21.1627 H   0  0  0  0  0  0
  -19.6803  -27.2937   20.6802 H   0  0  0  0  0  0
  -17.4282  -26.6563   21.4117 H   0  0  0  0  0  0
  -18.0358  -26.0119   22.9214 H   0  0  0  0  0  0
  -19.7842  -30.7401   24.2196 H   0  0  0  0  0  0
  -17.4889  -31.6299   24.5104 H   0  0  0  0  0  0
  -15.5275  -30.2933   23.7581 H   0  0  0  0  0  0
  -15.8689  -28.0754   22.7027 H   0  0  0  0  0  0
  -24.5956  -30.7000   25.7858 H   0  0  0  0  0  0
  -24.8817  -32.2887   26.4862 H   0  0  0  0  0  0
  -25.8062  -30.9016   27.0319 H   0  0  0  0  0  0
  -26.2857  -29.6812   24.1232 H   0  0  0  0  0  0
  -27.4034  -29.7293   25.4658 H   0  0  0  0  0  0
  -27.8699  -30.4358   23.9373 H   0  0  0  0  0  0
  -27.2781  -33.3669   26.2016 H   0  0  0  0  0  0
  -28.3866  -32.6802   25.0232 H   0  0  0  0  0  0
  -28.0774  -31.8456   26.5373 H   0  0  0  0  0  0
  -28.2682  -38.0054   24.7541 H   0  0  0  0  0  0
  -28.1013  -36.2603   24.6318 H   0  0  0  0  0  0
  -27.2300  -37.1497   25.8882 H   0  0  0  0  0  0
  -20.9372  -29.8795   21.6882 H   0  0  0  0  0  0
  -26.0242  -38.2941   24.1411 H   0  0  0  0  0  0
  -29.5142  -20.9123   22.8490 H   0  0  0  0  0  0
  -25.8640  -23.9929   22.0968 H   0  0  0  0  0  0
  -24.5223  -22.9706   21.8176 H   0  0  0  0  0  0
  -25.5571  -23.3820   20.4539 H   0  0  0  0  0  0
  -23.6001  -19.7451   19.0878 H   0  0  0  0  0  0
  -25.1230  -18.9144   19.3844 H   0  0  0  0  0  0
  -25.1261  -20.6139   18.9100 H   0  0  0  0  0  0
  -29.2859  -23.1647   23.1998 H   0  0  0  0  0  0
  -27.7720  -23.9363   23.2451 H   0  0  0  0  0  0
  -27.9157  -17.8123   23.4725 H   0  0  0  0  0  0
  -29.4923  -18.5237   23.2336 H   0  0  0  0  0  0
  -23.8517  -21.1339   21.0701 H   0  0  0  0  0  0
  -24.0889  -19.4965   21.5622 H   0  0  0  0  0  0
  -29.3882  -23.7589   20.6027 H   0  0  0  0  0  0
  -29.7505  -24.9154   21.8475 H   0  0  0  0  0  0
  -29.3469  -17.9693   20.7844 H   0  0  0  0  0  0
  -27.8139  -17.1771   21.0711 H   0  0  0  0  0  0
  -28.8457  -15.4722   22.4760 H   0  0  0  0  0  0
  -30.3915  -16.3068   22.4761 H   0  0  0  0  0  0
  -27.2604  -25.6325   21.7433 H   0  0  0  0  0  0
  -27.2488  -24.7541   20.2117 H   0  0  0  0  0  0
  -30.1852  -16.1453   19.9569 H   0  0  0  0  0  0
  1 25  1  0  0  0
  1 30  2  0  0  0
  1 86  1  0  0  0
  2  3  1  0  0  0
  2 25  1  0  0  0
  2 87  1  0  0  0
  2 88  1  0  0  0
  3  4  1  0  0  0
  3 89  1  0  0  0
  3 90  1  0  0  0
  4  5  1  0  0  0
  4 91  1  0  0  0
  4 92  1  0  0  0
  5  6  1  0  0  0
  5 26  1  0  0  0
  5 93  1  0  0  0
  6 25  1  0  0  0
  6 94  1  0  0  0
  6 95  1  0  0  0
  7  8  2  0  0  0
  7 26  1  0  0  0
  7 29  1  0  0  0
  8  9  1  0  0  0
  8 22  1  0  0  0
  9 10  1  0  0  0
  9 27  2  0  0  0
 10 11  2  0  0  0
 10 15  1  0  0  0
 11 12  1  0  0  0
 11 96  1  0  0  0
 12 13  2  0  0  0
 12 97  1  0  0  0
 13 14  1  0  0  0
 13 31  1  0  0  0
 14 15  2  0  0  0
 14 98  1  0  0  0
 15 99  1  0  0  0
 16 17  2  0  0  0
 16 21  1  0  0  0
 16 31  1  0  0  0
 17 18  1  0  0  0
 17100  1  0  0  0
 18 19  2  0  0  0
 18101  1  0  0  0
 19 20  1  0  0  0
 19 24  1  0  0  0
 20 21  2  0  0  0
 20102  1  0  0  0
 21 23  1  0  0  0
 22 28  1  0  0  0
 22 32  2  0  0  0
 26 27  1  0  0  0
 28103  1  0  0  0
 28104  1  0  0  0
 29105  1  0  0  0
 29106  1  0  0  0
 33 34  1  0  0  0
 33 66  1  0  0  0
 33 70  2  0  0  0
 34 36  1  0  0  0
 34 59  1  0  0  0
 34107  1  0  0  0
 35 44  2  0  0  0
 35 45  1  0  0  0
 35 68  1  0  0  0
 36 56  1  0  0  0
 36108  1  0  0  0
 37 39  1  0  0  0
 37 47  1  0  0  0
 37 66  1  0  0  0
 37109  1  0  0  0
 38 43  2  0  0  0
 38 46  1  0  0  0
 38 47  1  0  0  0
 39 64  1  0  0  0
 39 67  2  0  0  0
 40 52  1  0  0  0
 40 53  2  0  0  0
 40 58  1  0  0  0
 41110  1  0  0  0
 41111  1  0  0  0
 41112  1  0  0  0
 41 48  1  0  0  0
 42 43  1  0  0  0
 42 66  1  0  0  0
 42113  1  0  0  0
 42114  1  0  0  0
 43 44  1  0  0  0
 44115  1  0  0  0
 45 46  2  0  0  0
 45116  1  0  0  0
 46117  1  0  0  0
 47118  1  0  0  0
 47119  1  0  0  0
 48 56  1  0  0  0
 48 65  1  0  0  0
 48120  1  0  0  0
 49 50  1  0  0  0
 49 53  1  0  0  0
 49 64  1  0  0  0
 49121  1  0  0  0
 50 51  1  0  0  0
 50122  1  0  0  0
 50123  1  0  0  0
 51 52  1  0  0  0
 51124  1  0  0  0
 51125  1  0  0  0
 52126  1  0  0  0
 52127  1  0  0  0
 53 54  1  0  0  0
 54 55  2  0  0  0
 54128  1  0  0  0
 55 57  1  0  0  0
 55129  1  0  0  0
 56 69  2  0  0  0
 57 58  2  0  0  0
 57130  1  0  0  0
 58131  1  0  0  0
 59 60  1  0  0  0
 59 61  1  0  0  0
 59 62  1  0  0  0
 60132  1  0  0  0
 60133  1  0  0  0
 60134  1  0  0  0
 61135  1  0  0  0
 61136  1  0  0  0
 61137  1  0  0  0
 62138  1  0  0  0
 62139  1  0  0  0
 62140  1  0  0  0
 63 65  1  0  0  0
 63141  1  0  0  0
 63142  1  0  0  0
 63143  1  0  0  0
 64144  1  0  0  0
 65145  1  0  0  0
 68 84  1  0  0  0
 71 72  2  0  0  0
 71 74  1  0  0  0
 71146  1  0  0  0
 72 73  1  0  0  0
 72 78  1  0  0  0
 73 75  2  0  0  0
 73 76  1  0  0  0
 74 79  1  0  0  0
 74 85  2  0  0  0
 75 80  1  0  0  0
 75 85  1  0  0  0
 76147  1  0  0  0
 76148  1  0  0  0
 76149  1  0  0  0
 77 80  1  0  0  0
 77150  1  0  0  0
 77151  1  0  0  0
 77152  1  0  0  0
 78 81  1  0  0  0
 78153  1  0  0  0
 78154  1  0  0  0
 79 82  1  0  0  0
 79155  1  0  0  0
 79156  1  0  0  0
 80157  1  0  0  0
 80158  1  0  0  0
 81 84  1  0  0  0
 81159  1  0  0  0
 81160  1  0  0  0
 82 83  1  0  0  0
 82161  1  0  0  0
 82162  1  0  0  0
 83 86  1  0  0  0
 83163  1  0  0  0
 83164  1  0  0  0
 84165  1  0  0  0
 84166  1  0  0  0
 86167  1  0  0  0
M  ISO  4   1 100  68 101  84 101  86 100
M  END
> <chiral flag>
0

> <version>
0

> <s_m_source_file>
/data/baiqing/PycharmProjects/Reinvent-master-3.2/result/LINK_invent/BTK/process_docking_weight1_custom_sum_contain_oxygen_bond_distance_aromatic_linkinvent_7_9_3/rearranged_h_0078.sdf

> <i_m_source_file_index>
25

> <r_mmod_Potential_Energy-OPLS-2005>
-160.088241577148

> <r_mmod_Stretch_Energy-OPLS-2005>
38.2135353088379

> <r_mmod_Bend_Energy-OPLS-2005>
116.437286376953

> <r_mmod_Torsional_Energy-OPLS-2005>
278.798034667969

> <r_mmod_Improper_Torsional_Energy-OPLS-2005>
20.727481842041

> <r_mmod_Van_der_Waal_Energy-OPLS-2005>
159.621322631836

> <r_mmod_Electrostatic_Energy-OPLS-2005>
-589.092651367188

> <r_mmod_Solvation_Energy-OPLS-2005>
-209.220962524414

> <b_mmod_Minimization_Converged-OPLS-2005>
0

> <r_mmod_RMS_Derivative-OPLS-2005>
6.13398933410645

$$$$
25
                    3D
 Structure written by MMmdl.
166174  0  0  1  0            999 V2000
  -30.6186  -14.7173   20.4741 C   0  0  0  0  0  0
  -30.4341  -12.4441   19.4603 C   0  0  0  0  0  0
  -29.5082  -12.5140   18.2263 C   0  0  0  0  0  0
  -28.0341  -12.3458   18.6394 C   0  0  0  0  0  0
  -27.6456  -13.2336   19.8521 C   0  0  2  0  0  0
  -28.6908  -13.1474   20.9844 C   0  0  0  0  0  0
  -25.2527  -13.8202   20.5698 C   0  0  0  0  0  0
  -24.1829  -13.0455   20.9209 C   0  0  0  0  0  0
  -24.6422  -11.6929   20.8755 C   0  0  0  0  0  0
  -23.9091  -10.4306   21.0427 C   0  0  0  0  0  0
  -24.3636   -9.4211   21.9203 C   0  0  0  0  0  0
  -23.6301   -8.2251   22.0769 C   0  0  0  0  0  0
  -22.4279   -8.0294   21.3549 C   0  0  0  0  0  0
  -21.9927   -9.0278   20.4654 C   0  0  0  0  0  0
  -22.7266  -10.2150   20.3070 C   0  0  0  0  0  0
  -21.6843   -6.0749   22.5284 C   0  0  0  0  0  0
  -21.4008   -6.5654   23.8219 C   0  0  0  0  0  0
  -21.3659   -5.6810   24.9187 C   0  0  0  0  0  0
  -21.6043   -4.3070   24.7234 C   0  0  0  0  0  0
  -21.8812   -3.8159   23.4353 C   0  0  0  0  0  0
  -21.9188   -4.6978   22.3414 C   0  0  0  0  0  0
  -22.7841  -13.5233   21.1866 C   0  0  0  0  0  0
  -22.1663   -4.2165   21.0984 F   0  0  0  0  0  0
  -21.5638   -3.4544   25.7741 F   0  0  0  0  0  0
  -29.9907  -13.4974   20.4004 N   0  0  0  0  0  0
  -26.2960  -12.9414   20.3265 N   0  0  0  0  0  0
  -25.9348  -11.6554   20.5735 N   0  0  0  0  0  0
  -22.0490  -12.8214   22.0404 N   0  0  0  0  0  0
  -25.4221  -15.1930   20.4117 N   0  0  0  0  0  0
  -31.8064  -14.8189   20.1604 O   0  0  0  0  0  0
  -21.6640   -6.8893   21.4243 O   0  0  0  0  0  0
  -22.3516  -14.5536   20.6720 O   0  0  0  0  0  0
  -24.6290  -31.8551   23.1994 C   0  0  0  0  0  0
  -25.9130  -32.4745   23.8319 C   0  0  1  0  0  0
  -27.2205  -27.2808   20.1345 C   0  0  0  0  0  0
  -25.5928  -33.8544   24.2234 N   0  0  0  0  0  0
  -23.4237  -30.4789   21.5418 C   0  0  2  0  0  0
  -24.8721  -28.9305   20.1097 C   0  0  0  0  0  0
  -22.7475  -29.4600   22.4912 C   0  0  0  0  0  0
  -18.0278  -28.1387   22.8480 C   0  0  0  0  0  0
  -24.1491  -36.7295   23.2633 C   0  0  0  0  0  0
  -25.9680  -30.7781   21.3733 C   0  0  0  0  0  0
  -26.0425  -29.4017   20.7180 C   0  0  0  0  0  0
  -27.2196  -28.5894   20.7196 C   0  0  0  0  0  0
  -26.0258  -26.8759   19.4950 C   0  0  0  0  0  0
  -24.8688  -27.6754   19.4858 C   0  0  0  0  0  0
  -23.6411  -29.8126   20.1574 C   0  0  0  0  0  0
  -25.4113  -36.3051   24.0312 C   0  0  1  0  0  0
  -20.5881  -28.3687   23.1282 C   0  0  2  0  0  0
  -20.6766  -26.9405   22.5411 C   0  0  0  0  0  0
  -19.5743  -26.6385   21.5212 C   0  0  0  0  0  0
  -18.1923  -26.7929   22.1619 C   0  0  0  0  0  0
  -19.1533  -28.8854   23.2875 C   0  0  0  0  0  0
  -18.9459  -30.1461   23.8887 C   0  0  0  0  0  0
  -17.6455  -30.6592   24.0568 C   0  0  0  0  0  0
  -25.9060  -34.9426   23.5075 C   0  0  0  0  0  0
  -16.5346  -29.9088   23.6333 C   0  0  0  0  0  0
  -16.7270  -28.6511   23.0347 C   0  0  0  0  0  0
  -26.4503  -31.6566   25.0700 C   0  0  0  0  0  0
  -25.3737  -31.3724   26.1429 C   0  0  0  0  0  0
  -27.0346  -30.2976   24.6187 C   0  0  0  0  0  0
  -27.6039  -32.4307   25.7494 C   0  0  0  0  0  0
  -27.5578  -37.1786   24.8448 C   0  0  0  0  0  0
  -21.4184  -29.3041   22.3670 N   0  0  0  0  0  0
  -26.4274  -37.3762   23.9417 N   0  0  0  0  0  0
  -24.6928  -31.0544   22.0954 N   0  0  0  0  0  0
  -23.4187  -28.8135   23.3000 O   0  0  0  0  0  0
  -28.3183  -26.3956   20.2010 O   0  0  0  0  0  0
  -26.5630  -34.8906   22.4645 O   0  0  0  0  0  0
  -23.5445  -32.1360   23.7306 O   0  0  0  0  0  0
  -31.4146  -21.8251   20.1412 C   0  0  0  0  0  0
  -30.1046  -21.2663   20.1904 C   0  0  0  0  0  0
  -32.2786  -20.9277   19.6096 C   0  0  0  0  0  0
  -30.2957  -19.8695   19.9791 C   0  0  0  0  0  0
  -33.7236  -21.0835   19.2433 C   0  0  0  0  0  0
  -28.0867  -18.7116   20.6556 C   0  0  0  0  0  0
  -30.4242  -17.6142   22.3757 C   0  0  0  0  0  0
  -32.1083  -18.6740   18.5794 C   0  0  0  0  0  0
  -28.8869  -22.2466   20.4276 C   0  0  0  0  0  0
  -29.2032  -23.8429   20.4188 C   0  0  0  0  0  0
  -28.0441  -24.9228   20.1705 C   0  0  0  0  0  0
  -29.5107  -18.5061   20.1123 C   0  0  2  0  0  0
  -30.2953  -17.2942   20.8778 C   0  0  2  0  0  0
  -31.5606  -19.7772   19.3688 N   0  0  0  0  0  0
  -29.8487  -15.8423   20.7195 N   0  0  0  0  0  0
  -31.4743  -12.5710   19.1564 H   0  0  0  0  0  0
  -30.3785  -11.4628   19.9344 H   0  0  0  0  0  0
  -29.7831  -11.7503   17.4972 H   0  0  0  0  0  0
  -29.6340  -13.4761   17.7251 H   0  0  0  0  0  0
  -27.8811  -11.2946   18.8856 H   0  0  0  0  0  0
  -27.3802  -12.5625   17.7950 H   0  0  0  0  0  0
  -27.6443  -14.2596   19.4834 H   0  0  0  0  0  0
  -28.7205  -12.1446   21.4123 H   0  0  0  0  0  0
  -28.4335  -13.8179   21.8061 H   0  0  0  0  0  0
  -25.2795   -9.5680   22.4767 H   0  0  0  0  0  0
  -24.0007   -7.4634   22.7486 H   0  0  0  0  0  0
  -21.0865   -8.8810   19.8951 H   0  0  0  0  0  0
  -22.3747  -10.9696   19.6177 H   0  0  0  0  0  0
  -21.1991   -7.6160   23.9719 H   0  0  0  0  0  0
  -21.1488   -6.0549   25.9083 H   0  0  0  0  0  0
  -22.0587   -2.7618   23.2853 H   0  0  0  0  0  0
  -22.4107  -11.9866   22.4771 H   0  0  0  0  0  0
  -21.1114  -13.1235   22.2627 H   0  0  0  0  0  0
  -24.6516  -15.8447   20.5149 H   0  0  0  0  0  0
  -26.2625  -15.6286   20.0560 H   0  0  0  0  0  0
  -26.7195  -32.5406   23.1061 H   0  0  0  0  0  0
  -25.0046  -33.9676   25.0354 H   0  0  0  0  0  0
  -22.7189  -31.3002   21.3955 H   0  0  0  0  0  0
  -23.3745  -35.9635   23.3244 H   0  0  0  0  0  0
  -24.3599  -36.8982   22.2063 H   0  0  0  0  0  0
  -23.7254  -37.6479   23.6708 H   0  0  0  0  0  0
  -26.0950  -31.5379   20.6008 H   0  0  0  0  0  0
  -26.8495  -30.8332   22.0004 H   0  0  0  0  0  0
  -28.1145  -28.9425   21.2126 H   0  0  0  0  0  0
  -25.9471  -25.9189   19.0037 H   0  0  0  0  0  0
  -23.9741  -27.3080   19.0021 H   0  0  0  0  0  0
  -23.7597  -30.5876   19.3995 H   0  0  0  0  0  0
  -22.7618  -29.2410   19.8553 H   0  0  0  0  0  0
  -25.1295  -36.1871   25.0801 H   0  0  0  0  0  0
  -20.9965  -28.3264   24.1406 H   0  0  0  0  0  0
  -20.5660  -26.2292   23.3612 H   0  0  0  0  0  0
  -21.6638  -26.7427   22.1214 H   0  0  0  0  0  0
  -19.6908  -25.6295   21.1246 H   0  0  0  0  0  0
  -19.6697  -27.3193   20.6742 H   0  0  0  0  0  0
  -17.4191  -26.6662   21.4028 H   0  0  0  0  0  0
  -18.0335  -26.0081   22.9025 H   0  0  0  0  0  0
  -19.7937  -30.7284   24.2245 H   0  0  0  0  0  0
  -17.5014  -31.6269   24.5167 H   0  0  0  0  0  0
  -15.5348  -30.2987   23.7681 H   0  0  0  0  0  0
  -15.8662  -28.0843   22.7048 H   0  0  0  0  0  0
  -24.5898  -30.7084   25.7767 H   0  0  0  0  0  0
  -24.8956  -32.2908   26.4848 H   0  0  0  0  0  0
  -25.8069  -30.8903   27.0202 H   0  0  0  0  0  0
  -26.2926  -29.6715   24.1215 H   0  0  0  0  0  0
  -27.4023  -29.7246   25.4712 H   0  0  0  0  0  0
  -27.8806  -30.4232   23.9422 H   0  0  0  0  0  0
  -27.2616  -33.3595   26.2074 H   0  0  0  0  0  0
  -28.3870  -32.6885   25.0349 H   0  0  0  0  0  0
  -28.0686  -31.8429   26.5423 H   0  0  0  0  0  0
  -28.2535  -38.0137   24.7541 H   0  0  0  0  0  0
  -28.1125  -36.2664   24.6195 H   0  0  0  0  0  0
  -27.2308  -37.1342   25.8849 H   0  0  0  0  0  0
  -20.9348  -29.8780   21.6900 H   0  0  0  0  0  0
  -26.0130  -38.2814   24.1468 H   0  0  0  0  0  0
  -31.6945  -22.8445   20.3657 H   0  0  0  0  0  0
  -34.2588  -21.6488   20.0071 H   0  0  0  0  0  0
  -33.8267  -21.6155   18.2986 H   0  0  0  0  0  0
  -34.2337  -20.1255   19.1455 H   0  0  0  0  0  0
  -27.5053  -19.3496   19.9879 H   0  0  0  0  0  0
  -28.0890  -19.1840   21.6387 H   0  0  0  0  0  0
  -27.5503  -17.7667   20.7430 H   0  0  0  0  0  0
  -30.8419  -18.6107   22.5243 H   0  0  0  0  0  0
  -31.0885  -16.9121   22.8792 H   0  0  0  0  0  0
  -29.4589  -17.5837   22.8803 H   0  0  0  0  0  0
  -32.9585  -18.2269   19.0931 H   0  0  0  0  0  0
  -32.4476  -19.0590   17.6165 H   0  0  0  0  0  0
  -31.3753  -17.9014   18.3628 H   0  0  0  0  0  0
  -28.3909  -21.9768   21.3610 H   0  0  0  0  0  0
  -28.1634  -22.0397   19.6381 H   0  0  0  0  0  0
  -29.9316  -24.0337   19.6317 H   0  0  0  0  0  0
  -29.7120  -24.0893   21.3518 H   0  0  0  0  0  0
  -27.2480  -24.7199   20.8894 H   0  0  0  0  0  0
  -27.6383  -24.6785   19.1893 H   0  0  0  0  0  0
  -29.3471  -18.1471   19.0963 H   0  0  0  0  0  0
  -31.3201  -17.2939   20.5196 H   0  0  0  0  0  0
  -28.8713  -15.6639   20.8901 H   0  0  0  0  0  0
  1 25  1  0  0  0
  1 30  2  0  0  0
  1 85  1  0  0  0
  2  3  1  0  0  0
  2 25  1  0  0  0
  2 86  1  0  0  0
  2 87  1  0  0  0
  3  4  1  0  0  0
  3 88  1  0  0  0
  3 89  1  0  0  0
  4  5  1  0  0  0
  4 90  1  0  0  0
  4 91  1  0  0  0
  5  6  1  0  0  0
  5 26  1  0  0  0
  5 92  1  0  0  0
  6 25  1  0  0  0
  6 93  1  0  0  0
  6 94  1  0  0  0
  7  8  2  0  0  0
  7 26  1  0  0  0
  7 29  1  0  0  0
  8  9  1  0  0  0
  8 22  1  0  0  0
  9 10  1  0  0  0
  9 27  2  0  0  0
 10 11  2  0  0  0
 10 15  1  0  0  0
 11 12  1  0  0  0
 11 95  1  0  0  0
 12 13  2  0  0  0
 12 96  1  0  0  0
 13 14  1  0  0  0
 13 31  1  0  0  0
 14 15  2  0  0  0
 14 97  1  0  0  0
 15 98  1  0  0  0
 16 17  2  0  0  0
 16 21  1  0  0  0
 16 31  1  0  0  0
 17 18  1  0  0  0
 17 99  1  0  0  0
 18 19  2  0  0  0
 18100  1  0  0  0
 19 20  1  0  0  0
 19 24  1  0  0  0
 20 21  2  0  0  0
 20101  1  0  0  0
 21 23  1  0  0  0
 22 28  1  0  0  0
 22 32  2  0  0  0
 26 27  1  0  0  0
 28102  1  0  0  0
 28103  1  0  0  0
 29104  1  0  0  0
 29105  1  0  0  0
 33 34  1  0  0  0
 33 66  1  0  0  0
 33 70  2  0  0  0
 34 36  1  0  0  0
 34 59  1  0  0  0
 34106  1  0  0  0
 35 44  2  0  0  0
 35 45  1  0  0  0
 35 68  1  0  0  0
 36 56  1  0  0  0
 36107  1  0  0  0
 37 39  1  0  0  0
 37 47  1  0  0  0
 37 66  1  0  0  0
 37108  1  0  0  0
 38 43  2  0  0  0
 38 46  1  0  0  0
 38 47  1  0  0  0
 39 64  1  0  0  0
 39 67  2  0  0  0
 40 52  1  0  0  0
 40 53  2  0  0  0
 40 58  1  0  0  0
 41109  1  0  0  0
 41110  1  0  0  0
 41111  1  0  0  0
 41 48  1  0  0  0
 42 43  1  0  0  0
 42 66  1  0  0  0
 42112  1  0  0  0
 42113  1  0  0  0
 43 44  1  0  0  0
 44114  1  0  0  0
 45 46  2  0  0  0
 45115  1  0  0  0
 46116  1  0  0  0
 47117  1  0  0  0
 47118  1  0  0  0
 48 56  1  0  0  0
 48 65  1  0  0  0
 48119  1  0  0  0
 49 50  1  0  0  0
 49 53  1  0  0  0
 49 64  1  0  0  0
 49120  1  0  0  0
 50 51  1  0  0  0
 50121  1  0  0  0
 50122  1  0  0  0
 51 52  1  0  0  0
 51123  1  0  0  0
 51124  1  0  0  0
 52125  1  0  0  0
 52126  1  0  0  0
 53 54  1  0  0  0
 54 55  2  0  0  0
 54127  1  0  0  0
 55 57  1  0  0  0
 55128  1  0  0  0
 56 69  2  0  0  0
 57 58  2  0  0  0
 57129  1  0  0  0
 58130  1  0  0  0
 59 60  1  0  0  0
 59 61  1  0  0  0
 59 62  1  0  0  0
 60131  1  0  0  0
 60132  1  0  0  0
 60133  1  0  0  0
 61134  1  0  0  0
 61135  1  0  0  0
 61136  1  0  0  0
 62137  1  0  0  0
 62138  1  0  0  0
 62139  1  0  0  0
 63 65  1  0  0  0
 63140  1  0  0  0
 63141  1  0  0  0
 63142  1  0  0  0
 64143  1  0  0  0
 65144  1  0  0  0
 68 81  1  0  0  0
 71 72  1  0  0  0
 71 73  2  0  0  0
 71145  1  0  0  0
 72 74  2  0  0  0
 72 79  1  0  0  0
 73 75  1  0  0  0
 73 84  1  0  0  0
 74 82  1  0  0  0
 74 84  1  0  0  0
 75146  1  0  0  0
 75147  1  0  0  0
 75148  1  0  0  0
 76149  1  0  0  0
 76150  1  0  0  0
 76151  1  0  0  0
 76 82  1  0  0  0
 77152  1  0  0  0
 77153  1  0  0  0
 77154  1  0  0  0
 77 83  1  0  0  0
 78 84  1  0  0  0
 78155  1  0  0  0
 78156  1  0  0  0
 78157  1  0  0  0
 79 80  1  0  0  0
 79158  1  0  0  0
 79159  1  0  0  0
 80 81  1  0  0  0
 80160  1  0  0  0
 80161  1  0  0  0
 81162  1  0  0  0
 81163  1  0  0  0
 82 83  1  0  0  0
 82164  1  0  0  0
 83 85  1  0  0  0
 83165  1  0  0  0
 85166  1  0  0  0
M  ISO  4   1 100  68 101  81 101  85 100
M  END
> <chiral flag>
0

> <version>
0

> <s_m_source_file>
/data/baiqing/PycharmProjects/Reinvent-master-3.2/result/LINK_invent/BTK/process_docking_weight1_custom_sum_contain_oxygen_bond_distance_aromatic_linkinvent_7_9_3/rearranged_h_0078.sdf

> <i_m_source_file_index>
26

> <r_mmod_Potential_Energy-OPLS-2005>
105.708541870117

> <r_mmod_Stretch_Energy-OPLS-2005>
122.15145111084

> <r_mmod_Bend_Energy-OPLS-2005>
169.185607910156

> <r_mmod_Torsional_Energy-OPLS-2005>
247.498886108398

> <r_mmod_Improper_Torsional_Energy-OPLS-2005>
4.59377384185791

> <r_mmod_Van_der_Waal_Energy-OPLS-2005>
127.156593322754

> <r_mmod_Electrostatic_Energy-OPLS-2005>
-434.054504394531

> <r_mmod_Solvation_Energy-OPLS-2005>
-205.767303466797

> <b_mmod_Minimization_Converged-OPLS-2005>
0

> <r_mmod_RMS_Derivative-OPLS-2005>
2.89923572540283

$$$$
26
                    3D
 Structure written by MMmdl.
179187  0  0  1  0            999 V2000
  -30.7420  -14.4665   20.6295 C   0  0  0  0  0  0
  -30.4286  -12.3152   19.4491 C   0  0  0  0  0  0
  -29.5180  -12.5141   18.2216 C   0  0  0  0  0  0
  -28.0337  -12.3679   18.6142 C   0  0  0  0  0  0
  -27.6630  -13.2044   19.8671 C   0  0  2  0  0  0
  -28.6929  -13.0106   20.9976 C   0  0  0  0  0  0
  -25.2612  -13.8132   20.5650 C   0  0  0  0  0  0
  -24.1874  -13.0453   20.9175 C   0  0  0  0  0  0
  -24.6411  -11.6896   20.8749 C   0  0  0  0  0  0
  -23.9063  -10.4301   21.0409 C   0  0  0  0  0  0
  -24.3637   -9.4219   21.9189 C   0  0  0  0  0  0
  -23.6316   -8.2252   22.0749 C   0  0  0  0  0  0
  -22.4286   -8.0275   21.3535 C   0  0  0  0  0  0
  -21.9916   -9.0247   20.4642 C   0  0  0  0  0  0
  -22.7234  -10.2133   20.3052 C   0  0  0  0  0  0
  -21.6863   -6.0757   22.5292 C   0  0  0  0  0  0
  -21.4028   -6.5658   23.8225 C   0  0  0  0  0  0
  -21.3669   -5.6799   24.9170 C   0  0  0  0  0  0
  -21.6053   -4.3065   24.7222 C   0  0  0  0  0  0
  -21.8817   -3.8176   23.4329 C   0  0  0  0  0  0
  -21.9196   -4.6996   22.3395 C   0  0  0  0  0  0
  -22.7894  -13.5260   21.1852 C   0  0  0  0  0  0
  -22.1669   -4.2205   21.0968 F   0  0  0  0  0  0
  -21.5614   -3.4533   25.7716 F   0  0  0  0  0  0
  -30.0377  -13.3074   20.4660 N   0  0  0  0  0  0
  -26.3033  -12.9304   20.3265 N   0  0  0  0  0  0
  -25.9340  -11.6472   20.5730 N   0  0  0  0  0  0
  -22.0497  -12.8280   22.0373 N   0  0  0  0  0  0
  -25.4380  -15.1864   20.4069 N   0  0  0  0  0  0
  -31.8223  -14.6663   20.0661 O   0  0  0  0  0  0
  -21.6638   -6.8878   21.4236 O   0  0  0  0  0  0
  -22.3587  -14.5566   20.6663 O   0  0  0  0  0  0
  -24.6130  -31.8686   23.2146 C   0  0  0  0  0  0
  -25.9020  -32.4834   23.8406 C   0  0  1  0  0  0
  -27.2252  -27.4320   20.0656 C   0  0  0  0  0  0
  -25.5890  -33.8630   24.2327 N   0  0  0  0  0  0
  -23.3999  -30.4977   21.5553 C   0  0  2  0  0  0
  -24.8425  -28.9712   20.1126 C   0  0  0  0  0  0
  -22.7394  -29.4657   22.4975 C   0  0  0  0  0  0
  -18.0271  -28.1391   22.8496 C   0  0  0  0  0  0
  -24.1487  -36.7305   23.2637 C   0  0  0  0  0  0
  -25.9334  -30.8289   21.3715 C   0  0  0  0  0  0
  -26.0076  -29.4678   20.7101 C   0  0  0  0  0  0
  -27.2016  -28.7056   20.6863 C   0  0  0  0  0  0
  -26.0320  -26.9592   19.4718 C   0  0  0  0  0  0
  -24.8503  -27.7148   19.4927 C   0  0  0  0  0  0
  -23.6069  -29.8415   20.1664 C   0  0  0  0  0  0
  -25.4114  -36.3111   24.0336 C   0  0  1  0  0  0
  -20.5857  -28.3662   23.1305 C   0  0  2  0  0  0
  -20.6754  -26.9391   22.5409 C   0  0  0  0  0  0
  -19.5732  -26.6399   21.5201 C   0  0  0  0  0  0
  -18.1914  -26.7939   22.1627 C   0  0  0  0  0  0
  -19.1519  -28.8853   23.2910 C   0  0  0  0  0  0
  -18.9453  -30.1467   23.8911 C   0  0  0  0  0  0
  -17.6451  -30.6595   24.0572 C   0  0  0  0  0  0
  -25.9053  -34.9487   23.5143 C   0  0  0  0  0  0
  -16.5340  -29.9094   23.6337 C   0  0  0  0  0  0
  -16.7262  -28.6524   23.0337 C   0  0  0  0  0  0
  -26.4470  -31.6607   25.0724 C   0  0  0  0  0  0
  -25.3750  -31.3653   26.1477 C   0  0  0  0  0  0
  -27.0314  -30.3062   24.6091 C   0  0  0  0  0  0
  -27.6091  -32.4306   25.7456 C   0  0  0  0  0  0
  -27.5589  -37.1781   24.8448 C   0  0  0  0  0  0
  -21.4117  -29.3024   22.3699 N   0  0  0  0  0  0
  -26.4275  -37.3813   23.9445 N   0  0  0  0  0  0
  -24.6672  -31.0783   22.1059 N   0  0  0  0  0  0
  -23.4168  -28.8175   23.2996 O   0  0  0  0  0  0
  -28.4001  -26.6978   20.0537 O   0  0  0  0  0  0
  -26.5611  -34.8934   22.4702 O   0  0  0  0  0  0
  -23.5324  -32.1441   23.7551 O   0  0  0  0  0  0
  -31.3292  -17.9810   16.4510 C   0  0  0  0  0  0
  -30.5115  -18.4091   17.4609 C   0  0  0  0  0  0
  -31.9132  -18.7485   15.3056 C   0  0  0  0  0  0
  -31.3681  -16.0417   23.4084 C   0  0  0  0  0  0
  -26.5030  -23.9628   17.3290 C   0  0  0  0  0  0
  -30.1291  -25.4070   17.7773 C   0  0  0  0  0  0
  -30.0031  -19.8045   17.7105 C   0  0  0  0  0  0
  -28.4751  -19.9660   17.7737 C   0  0  0  0  0  0
  -27.9555  -21.3250   17.2670 C   0  0  0  0  0  0
  -28.5599  -22.5749   17.9561 C   0  0  0  0  0  0
  -29.3614  -16.9719   19.3154 C   0  0  0  0  0  0
  -30.0930  -15.4595   22.7611 C   0  0  0  0  0  0
  -30.0325  -16.8515   20.7147 C   0  0  0  0  0  0
  -28.3738  -25.3264   19.6034 C   0  0  0  0  0  0
  -28.0419  -23.9255   17.3892 C   0  0  2  0  0  0
  -28.6301  -25.2060   18.0752 C   0  0  2  0  0  0
  -31.5593  -16.6192   16.6045 N   0  0  0  0  0  0
  -30.9129  -16.1912   17.6397 N   0  0  0  0  0  0
  -30.2606  -17.2433   18.1921 N   0  0  0  0  0  0
  -30.1142  -15.4790   21.2825 N   0  0  0  0  0  0
  -31.4773  -12.4038   19.1620 H   0  0  0  0  0  0
  -30.3214  -11.3038   19.8446 H   0  0  0  0  0  0
  -29.7689  -11.7876   17.4486 H   0  0  0  0  0  0
  -29.7005  -13.4986   17.7875 H   0  0  0  0  0  0
  -27.8430  -11.3124   18.8064 H   0  0  0  0  0  0
  -27.3947  -12.6400   17.7768 H   0  0  0  0  0  0
  -27.6960  -14.2483   19.5706 H   0  0  0  0  0  0
  -28.6618  -11.9865   21.3692 H   0  0  0  0  0  0
  -28.4034  -13.6369   21.8390 H   0  0  0  0  0  0
  -25.2786   -9.5731   22.4766 H   0  0  0  0  0  0
  -24.0064   -7.4639   22.7454 H   0  0  0  0  0  0
  -21.0854   -8.8738   19.8956 H   0  0  0  0  0  0
  -22.3667  -10.9669   19.6167 H   0  0  0  0  0  0
  -21.2028   -7.6165   23.9758 H   0  0  0  0  0  0
  -21.1498   -6.0506   25.9073 H   0  0  0  0  0  0
  -22.0593   -2.7655   23.2796 H   0  0  0  0  0  0
  -22.4047  -11.9955   22.4856 H   0  0  0  0  0  0
  -21.1093  -13.1327   22.2459 H   0  0  0  0  0  0
  -24.6800  -15.8475   20.5233 H   0  0  0  0  0  0
  -26.3009  -15.6230   20.1118 H   0  0  0  0  0  0
  -26.7069  -32.5551   23.1148 H   0  0  0  0  0  0
  -24.9982  -33.9803   25.0426 H   0  0  0  0  0  0
  -22.6882  -31.3157   21.4227 H   0  0  0  0  0  0
  -23.3762  -35.9617   23.3282 H   0  0  0  0  0  0
  -24.3556  -36.8941   22.2046 H   0  0  0  0  0  0
  -23.7218  -37.6497   23.6667 H   0  0  0  0  0  0
  -26.0537  -31.5979   20.6064 H   0  0  0  0  0  0
  -26.8176  -30.8722   21.9964 H   0  0  0  0  0  0
  -28.1000  -29.0873   21.1536 H   0  0  0  0  0  0
  -25.9855  -26.0093   18.9714 H   0  0  0  0  0  0
  -23.9591  -27.3250   19.0202 H   0  0  0  0  0  0
  -23.7168  -30.6232   19.4127 H   0  0  0  0  0  0
  -22.7300  -29.2642   19.8656 H   0  0  0  0  0  0
  -25.1283  -36.1961   25.0817 H   0  0  0  0  0  0
  -20.9965  -28.3231   24.1419 H   0  0  0  0  0  0
  -20.5642  -26.2258   23.3593 H   0  0  0  0  0  0
  -21.6627  -26.7432   22.1195 H   0  0  0  0  0  0
  -19.6877  -25.6320   21.1207 H   0  0  0  0  0  0
  -19.6673  -27.3241   20.6758 H   0  0  0  0  0  0
  -17.4162  -26.6668   21.4040 H   0  0  0  0  0  0
  -18.0342  -26.0089   22.9046 H   0  0  0  0  0  0
  -19.7935  -30.7291   24.2248 H   0  0  0  0  0  0
  -17.5019  -31.6275   24.5182 H   0  0  0  0  0  0
  -15.5352  -30.3002   23.7703 H   0  0  0  0  0  0
  -15.8651  -28.0887   22.7006 H   0  0  0  0  0  0
  -24.5933  -30.7010   25.7758 H   0  0  0  0  0  0
  -24.8938  -32.2780   26.5006 H   0  0  0  0  0  0
  -25.8120  -30.8732   27.0179 H   0  0  0  0  0  0
  -26.2829  -29.6776   24.1246 H   0  0  0  0  0  0
  -27.4193  -29.7352   25.4537 H   0  0  0  0  0  0
  -27.8629  -30.4391   23.9164 H   0  0  0  0  0  0
  -27.2763  -33.3598   26.2092 H   0  0  0  0  0  0
  -28.3859  -32.6859   25.0232 H   0  0  0  0  0  0
  -28.0805  -31.8374   26.5305 H   0  0  0  0  0  0
  -28.2557  -38.0131   24.7623 H   0  0  0  0  0  0
  -28.1142  -36.2681   24.6131 H   0  0  0  0  0  0
  -27.2315  -37.1246   25.8841 H   0  0  0  0  0  0
  -20.9255  -29.8752   21.6934 H   0  0  0  0  0  0
  -26.0158  -38.2865   24.1542 H   0  0  0  0  0  0
  -31.2536  -19.5551   14.9830 H   0  0  0  0  0  0
  -32.0806  -18.1072   14.4387 H   0  0  0  0  0  0
  -32.8666  -19.2016   15.5783 H   0  0  0  0  0  0
  -31.4435  -17.1240   23.2921 H   0  0  0  0  0  0
  -32.2670  -15.5953   22.9855 H   0  0  0  0  0  0
  -31.3879  -15.8270   24.4792 H   0  0  0  0  0  0
  -26.1100  -23.2626   16.5909 H   0  0  0  0  0  0
  -26.1309  -24.9418   17.0266 H   0  0  0  0  0  0
  -26.0525  -23.7072   18.2880 H   0  0  0  0  0  0
  -30.4903  -26.3320   18.2317 H   0  0  0  0  0  0
  -30.3274  -25.4767   16.7095 H   0  0  0  0  0  0
  -30.7415  -24.5977   18.1804 H   0  0  0  0  0  0
  -30.3576  -20.4336   16.8943 H   0  0  0  0  0  0
  -30.4692  -20.2177   18.6050 H   0  0  0  0  0  0
  -28.1269  -19.8073   18.7928 H   0  0  0  0  0  0
  -28.0084  -19.1894   17.1643 H   0  0  0  0  0  0
  -26.8751  -21.3160   17.4103 H   0  0  0  0  0  0
  -28.1045  -21.3898   16.1887 H   0  0  0  0  0  0
  -29.6411  -22.5498   17.8354 H   0  0  0  0  0  0
  -28.3679  -22.5121   19.0284 H   0  0  0  0  0  0
  -28.6155  -17.7609   19.3462 H   0  0  0  0  0  0
  -28.7969  -16.0724   19.0777 H   0  0  0  0  0  0
  -29.2019  -15.9680   23.1350 H   0  0  0  0  0  0
  -29.9946  -14.4341   23.1181 H   0  0  0  0  0  0
  -29.4282  -17.4562   21.3965 H   0  0  0  0  0  0
  -31.0163  -17.3242   20.7091 H   0  0  0  0  0  0
  -29.1668  -24.7983   20.1334 H   0  0  0  0  0  0
  -27.4679  -24.8113   19.9190 H   0  0  0  0  0  0
  -28.3671  -23.9678   16.3463 H   0  0  0  0  0  0
  -28.1242  -26.0480   17.6026 H   0  0  0  0  0  0
  1 25  1  0  0  0
  1 30  2  0  0  0
  1 90  1  0  0  0
  2  3  1  0  0  0
  2 25  1  0  0  0
  2 91  1  0  0  0
  2 92  1  0  0  0
  3  4  1  0  0  0
  3 93  1  0  0  0
  3 94  1  0  0  0
  4  5  1  0  0  0
  4 95  1  0  0  0
  4 96  1  0  0  0
  5  6  1  0  0  0
  5 26  1  0  0  0
  5 97  1  0  0  0
  6 25  1  0  0  0
  6 98  1  0  0  0
  6 99  1  0  0  0
  7  8  2  0  0  0
  7 26  1  0  0  0
  7 29  1  0  0  0
  8  9  1  0  0  0
  8 22  1  0  0  0
  9 10  1  0  0  0
  9 27  2  0  0  0
 10 11  2  0  0  0
 10 15  1  0  0  0
 11 12  1  0  0  0
 11100  1  0  0  0
 12 13  2  0  0  0
 12101  1  0  0  0
 13 14  1  0  0  0
 13 31  1  0  0  0
 14 15  2  0  0  0
 14102  1  0  0  0
 15103  1  0  0  0
 16 17  2  0  0  0
 16 21  1  0  0  0
 16 31  1  0  0  0
 17 18  1  0  0  0
 17104  1  0  0  0
 18 19  2  0  0  0
 18105  1  0  0  0
 19 20  1  0  0  0
 19 24  1  0  0  0
 20 21  2  0  0  0
 20106  1  0  0  0
 21 23  1  0  0  0
 22 28  1  0  0  0
 22 32  2  0  0  0
 26 27  1  0  0  0
 28107  1  0  0  0
 28108  1  0  0  0
 29109  1  0  0  0
 29110  1  0  0  0
 33 34  1  0  0  0
 33 66  1  0  0  0
 33 70  2  0  0  0
 34 36  1  0  0  0
 34 59  1  0  0  0
 34111  1  0  0  0
 35 44  2  0  0  0
 35 45  1  0  0  0
 35 68  1  0  0  0
 36 56  1  0  0  0
 36112  1  0  0  0
 37 39  1  0  0  0
 37 47  1  0  0  0
 37 66  1  0  0  0
 37113  1  0  0  0
 38 43  2  0  0  0
 38 46  1  0  0  0
 38 47  1  0  0  0
 39 64  1  0  0  0
 39 67  2  0  0  0
 40 52  1  0  0  0
 40 53  2  0  0  0
 40 58  1  0  0  0
 41114  1  0  0  0
 41115  1  0  0  0
 41116  1  0  0  0
 41 48  1  0  0  0
 42 43  1  0  0  0
 42 66  1  0  0  0
 42117  1  0  0  0
 42118  1  0  0  0
 43 44  1  0  0  0
 44119  1  0  0  0
 45 46  2  0  0  0
 45120  1  0  0  0
 46121  1  0  0  0
 47122  1  0  0  0
 47123  1  0  0  0
 48 56  1  0  0  0
 48 65  1  0  0  0
 48124  1  0  0  0
 49 50  1  0  0  0
 49 53  1  0  0  0
 49 64  1  0  0  0
 49125  1  0  0  0
 50 51  1  0  0  0
 50126  1  0  0  0
 50127  1  0  0  0
 51 52  1  0  0  0
 51128  1  0  0  0
 51129  1  0  0  0
 52130  1  0  0  0
 52131  1  0  0  0
 53 54  1  0  0  0
 54 55  2  0  0  0
 54132  1  0  0  0
 55 57  1  0  0  0
 55133  1  0  0  0
 56 69  2  0  0  0
 57 58  2  0  0  0
 57134  1  0  0  0
 58135  1  0  0  0
 59 60  1  0  0  0
 59 61  1  0  0  0
 59 62  1  0  0  0
 60136  1  0  0  0
 60137  1  0  0  0
 60138  1  0  0  0
 61139  1  0  0  0
 61140  1  0  0  0
 61141  1  0  0  0
 62142  1  0  0  0
 62143  1  0  0  0
 62144  1  0  0  0
 63 65  1  0  0  0
 63145  1  0  0  0
 63146  1  0  0  0
 63147  1  0  0  0
 64148  1  0  0  0
 65149  1  0  0  0
 68 84  1  0  0  0
 71 72  2  0  0  0
 71 73  1  0  0  0
 71 87  1  0  0  0
 72 77  1  0  0  0
 72 89  1  0  0  0
 73150  1  0  0  0
 73151  1  0  0  0
 73152  1  0  0  0
 74 82  1  0  0  0
 74153  1  0  0  0
 74154  1  0  0  0
 74155  1  0  0  0
 75156  1  0  0  0
 75157  1  0  0  0
 75158  1  0  0  0
 75 85  1  0  0  0
 76159  1  0  0  0
 76160  1  0  0  0
 76161  1  0  0  0
 76 86  1  0  0  0
 77 78  1  0  0  0
 77162  1  0  0  0
 77163  1  0  0  0
 78 79  1  0  0  0
 78164  1  0  0  0
 78165  1  0  0  0
 79 80  1  0  0  0
 79166  1  0  0  0
 79167  1  0  0  0
 80 85  1  0  0  0
 80168  1  0  0  0
 80169  1  0  0  0
 81 83  1  0  0  0
 81 89  1  0  0  0
 81170  1  0  0  0
 81171  1  0  0  0
 82 90  1  0  0  0
 82172  1  0  0  0
 82173  1  0  0  0
 83 90  1  0  0  0
 83174  1  0  0  0
 83175  1  0  0  0
 84 86  1  0  0  0
 84176  1  0  0  0
 84177  1  0  0  0
 85 86  1  0  0  0
 85178  1  0  0  0
 86179  1  0  0  0
 87 88  2  0  0  0
 88 89  1  0  0  0
M  ISO  4   1 100  68 101  84 101  90 100
M  END
> <chiral flag>
0

> <version>
0

> <s_m_source_file>
/data/baiqing/PycharmProjects/Reinvent-master-3.2/result/LINK_invent/BTK/process_docking_weight1_custom_sum_contain_oxygen_bond_distance_aromatic_linkinvent_7_9_3/rearranged_h_0078.sdf

> <i_m_source_file_index>
27

> <r_mmod_Potential_Energy-OPLS-2005>
154.024673461914

> <r_mmod_Stretch_Energy-OPLS-2005>
44.2387199401855

> <r_mmod_Bend_Energy-OPLS-2005>
123.252372741699

> <r_mmod_Torsional_Energy-OPLS-2005>
316.122497558594

> <r_mmod_Improper_Torsional_Energy-OPLS-2005>
6.32509231567383

> <r_mmod_Van_der_Waal_Energy-OPLS-2005>
124.247245788574

> <r_mmod_Electrostatic_Energy-OPLS-2005>
-275.72021484375

> <r_mmod_Solvation_Energy-OPLS-2005>
-197.144775390625

> <b_mmod_Minimization_Converged-OPLS-2005>
0

> <r_mmod_RMS_Derivative-OPLS-2005>
5.15152835845947

$$$$
27
                    3D
 Structure written by MMmdl.
165173  0  0  1  0            999 V2000
  -30.7029  -14.5528   20.5390 C   0  0  0  0  0  0
  -30.4321  -12.3477   19.4456 C   0  0  0  0  0  0
  -29.5004  -12.4910   18.2227 C   0  0  0  0  0  0
  -28.0232  -12.3420   18.6382 C   0  0  0  0  0  0
  -27.6567  -13.2055   19.8738 C   0  0  2  0  0  0
  -28.7083  -13.0495   21.0012 C   0  0  0  0  0  0
  -25.2420  -13.8002   20.5661 C   0  0  0  0  0  0
  -24.1752  -13.0285   20.9229 C   0  0  0  0  0  0
  -24.6376  -11.6794   20.8782 C   0  0  0  0  0  0
  -23.9058  -10.4194   21.0414 C   0  0  0  0  0  0
  -24.3589   -9.4132   21.9214 C   0  0  0  0  0  0
  -23.6267   -8.2170   22.0770 C   0  0  0  0  0  0
  -22.4256   -8.0217   21.3539 C   0  0  0  0  0  0
  -21.9890   -9.0196   20.4647 C   0  0  0  0  0  0
  -22.7226  -10.2072   20.3071 C   0  0  0  0  0  0
  -21.6830   -6.0702   22.5278 C   0  0  0  0  0  0
  -21.3996   -6.5616   23.8208 C   0  0  0  0  0  0
  -21.3667   -5.6780   24.9177 C   0  0  0  0  0  0
  -21.6053   -4.3044   24.7235 C   0  0  0  0  0  0
  -21.8815   -3.8124   23.4358 C   0  0  0  0  0  0
  -21.9192   -4.6931   22.3410 C   0  0  0  0  0  0
  -22.7779  -13.5103   21.1884 C   0  0  0  0  0  0
  -22.1665   -4.2115   21.0989 F   0  0  0  0  0  0
  -21.5640   -3.4539   25.7756 F   0  0  0  0  0  0
  -30.0371  -13.3608   20.4427 N   0  0  0  0  0  0
  -26.2976  -12.9281   20.3402 N   0  0  0  0  0  0
  -25.9324  -11.6435   20.5847 N   0  0  0  0  0  0
  -22.0413  -12.8127   22.0452 N   0  0  0  0  0  0
  -25.3727  -15.1687   20.3945 N   0  0  0  0  0  0
  -31.8342  -14.7154   20.0795 O   0  0  0  0  0  0
  -21.6611   -6.8829   21.4230 O   0  0  0  0  0  0
  -22.3490  -14.5427   20.6739 O   0  0  0  0  0  0
  -24.6177  -31.8664   23.2095 C   0  0  0  0  0  0
  -25.9061  -32.4812   23.8387 C   0  0  1  0  0  0
  -27.2363  -27.3973   20.1048 C   0  0  0  0  0  0
  -25.5918  -33.8615   24.2321 N   0  0  0  0  0  0
  -23.4063  -30.4935   21.5508 C   0  0  2  0  0  0
  -24.8541  -28.9630   20.1108 C   0  0  0  0  0  0
  -22.7420  -29.4667   22.4971 C   0  0  0  0  0  0
  -18.0294  -28.1340   22.8496 C   0  0  0  0  0  0
  -24.1491  -36.7316   23.2640 C   0  0  0  0  0  0
  -25.9407  -30.8209   21.3703 C   0  0  0  0  0  0
  -26.0186  -29.4556   20.7130 C   0  0  0  0  0  0
  -27.2091  -28.6822   20.7083 C   0  0  0  0  0  0
  -26.0475  -26.9452   19.4755 C   0  0  0  0  0  0
  -24.8656  -27.7063   19.4896 C   0  0  0  0  0  0
  -23.6175  -29.8339   20.1629 C   0  0  0  0  0  0
  -25.4112  -36.3108   24.0335 C   0  0  1  0  0  0
  -20.5879  -28.3650   23.1301 C   0  0  2  0  0  0
  -20.6782  -26.9393   22.5394 C   0  0  0  0  0  0
  -19.5749  -26.6331   21.5220 C   0  0  0  0  0  0
  -18.1939  -26.7877   22.1639 C   0  0  0  0  0  0
  -19.1537  -28.8806   23.2912 C   0  0  0  0  0  0
  -18.9468  -30.1397   23.8953 C   0  0  0  0  0  0
  -17.6472  -30.6540   24.0584 C   0  0  0  0  0  0
  -25.9040  -34.9470   23.5126 C   0  0  0  0  0  0
  -16.5368  -29.9052   23.6314 C   0  0  0  0  0  0
  -16.7292  -28.6471   23.0337 C   0  0  0  0  0  0
  -26.4476  -31.6588   25.0719 C   0  0  0  0  0  0
  -25.3730  -31.3705   26.1457 C   0  0  0  0  0  0
  -27.0329  -30.3027   24.6121 C   0  0  0  0  0  0
  -27.6038  -32.4314   25.7495 C   0  0  0  0  0  0
  -27.5578  -37.1815   24.8462 C   0  0  0  0  0  0
  -21.4143  -29.3043   22.3712 N   0  0  0  0  0  0
  -26.4289  -37.3798   23.9407 N   0  0  0  0  0  0
  -24.6734  -31.0738   22.1014 N   0  0  0  0  0  0
  -23.4183  -28.8208   23.3016 O   0  0  0  0  0  0
  -28.3832  -26.6021   20.1619 O   0  0  0  0  0  0
  -26.5597  -34.8919   22.4686 O   0  0  0  0  0  0
  -23.5360  -32.1432   23.7469 O   0  0  0  0  0  0
  -27.2571  -20.3150   19.6320 C   0  0  0  0  0  0
  -27.2890  -19.8740   18.2914 C   0  0  0  0  0  0
  -28.5738  -20.1725   19.9789 C   0  0  0  0  0  0
  -26.2661  -20.0850   17.2176 C   0  0  0  0  0  0
  -27.6806  -17.2148   20.1245 C   0  0  0  0  0  0
  -29.3304  -16.7360   18.2818 C   0  0  0  0  0  0
  -29.3902  -21.3444   20.5261 C   0  0  0  0  0  0
  -28.6302  -22.7024   20.2642 C   0  0  0  0  0  0
  -29.2383  -24.1290   20.4553 C   0  0  0  0  0  0
  -30.1396  -17.0703   20.6257 C   0  0  0  0  0  0
  -28.1665  -25.1762   19.9953 C   0  0  0  0  0  0
  -29.0746  -17.5767   19.5741 C   0  0  0  0  0  0
  -28.4279  -19.2584   18.0308 N   0  0  0  0  0  0
  -29.0425  -19.0617   19.2352 N   0  0  0  0  0  0
  -29.9742  -15.6122   20.9646 N   0  0  0  0  0  0
  -31.4747  -12.4487   19.1373 H   0  0  0  0  0  0
  -30.3466  -11.3473   19.8739 H   0  0  0  0  0  0
  -29.7509  -11.7382   17.4750 H   0  0  0  0  0  0
  -29.6554  -13.4584   17.7432 H   0  0  0  0  0  0
  -27.8509  -11.2878   18.8606 H   0  0  0  0  0  0
  -27.3677  -12.5865   17.8021 H   0  0  0  0  0  0
  -27.6744  -14.2371   19.5318 H   0  0  0  0  0  0
  -28.7030  -12.0282   21.3871 H   0  0  0  0  0  0
  -28.4670  -13.6844   21.8545 H   0  0  0  0  0  0
  -25.2713   -9.5621   22.4822 H   0  0  0  0  0  0
  -23.9957   -7.4556   22.7494 H   0  0  0  0  0  0
  -21.0826   -8.8722   19.8951 H   0  0  0  0  0  0
  -22.3683  -10.9619   19.6197 H   0  0  0  0  0  0
  -21.1969   -7.6123   23.9698 H   0  0  0  0  0  0
  -21.1513   -6.0521   25.9081 H   0  0  0  0  0  0
  -22.0594   -2.7582   23.2880 H   0  0  0  0  0  0
  -22.4005  -11.9792   22.4872 H   0  0  0  0  0  0
  -21.1040  -13.1198   22.2654 H   0  0  0  0  0  0
  -24.5800  -15.7919   20.4994 H   0  0  0  0  0  0
  -26.2000  -15.6344   20.0464 H   0  0  0  0  0  0
  -26.7132  -32.5500   23.1144 H   0  0  0  0  0  0
  -25.0085  -33.9766   25.0478 H   0  0  0  0  0  0
  -22.6949  -31.3112   21.4132 H   0  0  0  0  0  0
  -23.3744  -35.9661   23.3314 H   0  0  0  0  0  0
  -24.3589  -36.8916   22.2053 H   0  0  0  0  0  0
  -23.7245  -37.6527   23.6644 H   0  0  0  0  0  0
  -26.0620  -31.5871   20.6035 H   0  0  0  0  0  0
  -26.8250  -30.8687   21.9935 H   0  0  0  0  0  0
  -28.0992  -29.0560   21.1940 H   0  0  0  0  0  0
  -25.9964  -25.9919   18.9705 H   0  0  0  0  0  0
  -23.9726  -27.3194   19.0175 H   0  0  0  0  0  0
  -23.7320  -30.6140   19.4092 H   0  0  0  0  0  0
  -22.7381  -29.2626   19.8599 H   0  0  0  0  0  0
  -25.1290  -36.1982   25.0826 H   0  0  0  0  0  0
  -20.9991  -28.3212   24.1416 H   0  0  0  0  0  0
  -20.5762  -26.2257   23.3590 H   0  0  0  0  0  0
  -21.6622  -26.7489   22.1108 H   0  0  0  0  0  0
  -19.6912  -25.6214   21.1311 H   0  0  0  0  0  0
  -19.6640  -27.3124   20.6728 H   0  0  0  0  0  0
  -17.4226  -26.6627   21.4028 H   0  0  0  0  0  0
  -18.0319  -25.9995   22.9019 H   0  0  0  0  0  0
  -19.7938  -30.7204   24.2383 H   0  0  0  0  0  0
  -17.5031  -31.6215   24.5207 H   0  0  0  0  0  0
  -15.5367  -30.2947   23.7608 H   0  0  0  0  0  0
  -15.8704  -28.0802   22.6989 H   0  0  0  0  0  0
  -24.5899  -30.7059   25.7790 H   0  0  0  0  0  0
  -24.8937  -32.2873   26.4898 H   0  0  0  0  0  0
  -25.8073  -30.8876   27.0219 H   0  0  0  0  0  0
  -26.2902  -29.6774   24.1152 H   0  0  0  0  0  0
  -27.4071  -29.7272   25.4596 H   0  0  0  0  0  0
  -27.8744  -30.4343   23.9317 H   0  0  0  0  0  0
  -27.2641  -33.3595   26.2107 H   0  0  0  0  0  0
  -28.3842  -32.6898   25.0324 H   0  0  0  0  0  0
  -28.0717  -31.8418   26.5386 H   0  0  0  0  0  0
  -28.2602  -38.0107   24.7507 H   0  0  0  0  0  0
  -28.1065  -36.2632   24.6300 H   0  0  0  0  0  0
  -27.2293  -37.1493   25.8865 H   0  0  0  0  0  0
  -20.9304  -29.8724   21.6900 H   0  0  0  0  0  0
  -26.0177  -38.2877   24.1416 H   0  0  0  0  0  0
  -26.5127  -20.9747   20.0551 H   0  0  0  0  0  0
  -26.2560  -21.1256   16.8942 H   0  0  0  0  0  0
  -25.2674  -19.8382   17.5758 H   0  0  0  0  0  0
  -26.4649  -19.4683   16.3410 H   0  0  0  0  0  0
  -27.6387  -16.1948   20.4758 H   0  0  0  0  0  0
  -26.9047  -17.3395   19.3687 H   0  0  0  0  0  0
  -27.4150  -17.8348   20.9805 H   0  0  0  0  0  0
  -29.3329  -15.6664   18.4648 H   0  0  0  0  0  0
  -30.2882  -16.9937   17.8292 H   0  0  0  0  0  0
  -28.5615  -16.8672   17.5196 H   0  0  0  0  0  0
  -30.3607  -21.3623   20.0300 H   0  0  0  0  0  0
  -29.5826  -21.2080   21.5913 H   0  0  0  0  0  0
  -27.7159  -22.6757   20.8576 H   0  0  0  0  0  0
  -28.3099  -22.6779   19.2208 H   0  0  0  0  0  0
  -30.1512  -24.2423   19.8700 H   0  0  0  0  0  0
  -29.5030  -24.2861   21.5003 H   0  0  0  0  0  0
  -30.0403  -17.6465   21.5459 H   0  0  0  0  0  0
  -31.1483  -17.2652   20.2589 H   0  0  0  0  0  0
  -27.2581  -24.9175   20.5410 H   0  0  0  0  0  0
  -27.9648  -24.9945   18.9385 H   0  0  0  0  0  0
  -29.0823  -15.3681   21.3659 H   0  0  0  0  0  0
  1 25  1  0  0  0
  1 30  2  0  0  0
  1 85  1  0  0  0
  2  3  1  0  0  0
  2 25  1  0  0  0
  2 86  1  0  0  0
  2 87  1  0  0  0
  3  4  1  0  0  0
  3 88  1  0  0  0
  3 89  1  0  0  0
  4  5  1  0  0  0
  4 90  1  0  0  0
  4 91  1  0  0  0
  5  6  1  0  0  0
  5 26  1  0  0  0
  5 92  1  0  0  0
  6 25  1  0  0  0
  6 93  1  0  0  0
  6 94  1  0  0  0
  7  8  2  0  0  0
  7 26  1  0  0  0
  7 29  1  0  0  0
  8  9  1  0  0  0
  8 22  1  0  0  0
  9 10  1  0  0  0
  9 27  2  0  0  0
 10 11  2  0  0  0
 10 15  1  0  0  0
 11 12  1  0  0  0
 11 95  1  0  0  0
 12 13  2  0  0  0
 12 96  1  0  0  0
 13 14  1  0  0  0
 13 31  1  0  0  0
 14 15  2  0  0  0
 14 97  1  0  0  0
 15 98  1  0  0  0
 16 17  2  0  0  0
 16 21  1  0  0  0
 16 31  1  0  0  0
 17 18  1  0  0  0
 17 99  1  0  0  0
 18 19  2  0  0  0
 18100  1  0  0  0
 19 20  1  0  0  0
 19 24  1  0  0  0
 20 21  2  0  0  0
 20101  1  0  0  0
 21 23  1  0  0  0
 22 28  1  0  0  0
 22 32  2  0  0  0
 26 27  1  0  0  0
 28102  1  0  0  0
 28103  1  0  0  0
 29104  1  0  0  0
 29105  1  0  0  0
 33 34  1  0  0  0
 33 66  1  0  0  0
 33 70  2  0  0  0
 34 36  1  0  0  0
 34 59  1  0  0  0
 34106  1  0  0  0
 35 44  2  0  0  0
 35 45  1  0  0  0
 35 68  1  0  0  0
 36 56  1  0  0  0
 36107  1  0  0  0
 37 39  1  0  0  0
 37 47  1  0  0  0
 37 66  1  0  0  0
 37108  1  0  0  0
 38 43  2  0  0  0
 38 46  1  0  0  0
 38 47  1  0  0  0
 39 64  1  0  0  0
 39 67  2  0  0  0
 40 52  1  0  0  0
 40 53  2  0  0  0
 40 58  1  0  0  0
 41109  1  0  0  0
 41110  1  0  0  0
 41111  1  0  0  0
 41 48  1  0  0  0
 42 43  1  0  0  0
 42 66  1  0  0  0
 42112  1  0  0  0
 42113  1  0  0  0
 43 44  1  0  0  0
 44114  1  0  0  0
 45 46  2  0  0  0
 45115  1  0  0  0
 46116  1  0  0  0
 47117  1  0  0  0
 47118  1  0  0  0
 48 56  1  0  0  0
 48 65  1  0  0  0
 48119  1  0  0  0
 49 50  1  0  0  0
 49 53  1  0  0  0
 49 64  1  0  0  0
 49120  1  0  0  0
 50 51  1  0  0  0
 50121  1  0  0  0
 50122  1  0  0  0
 51 52  1  0  0  0
 51123  1  0  0  0
 51124  1  0  0  0
 52125  1  0  0  0
 52126  1  0  0  0
 53 54  1  0  0  0
 54 55  2  0  0  0
 54127  1  0  0  0
 55 57  1  0  0  0
 55128  1  0  0  0
 56 69  2  0  0  0
 57 58  2  0  0  0
 57129  1  0  0  0
 58130  1  0  0  0
 59 60  1  0  0  0
 59 61  1  0  0  0
 59 62  1  0  0  0
 60131  1  0  0  0
 60132  1  0  0  0
 60133  1  0  0  0
 61134  1  0  0  0
 61135  1  0  0  0
 61136  1  0  0  0
 62137  1  0  0  0
 62138  1  0  0  0
 62139  1  0  0  0
 63 65  1  0  0  0
 63140  1  0  0  0
 63141  1  0  0  0
 63142  1  0  0  0
 64143  1  0  0  0
 65144  1  0  0  0
 68 81  1  0  0  0
 71 72  1  0  0  0
 71 73  2  0  0  0
 71145  1  0  0  0
 72 74  1  0  0  0
 72 83  2  0  0  0
 73 77  1  0  0  0
 73 84  1  0  0  0
 74146  1  0  0  0
 74147  1  0  0  0
 74148  1  0  0  0
 75149  1  0  0  0
 75150  1  0  0  0
 75151  1  0  0  0
 75 82  1  0  0  0
 76 82  1  0  0  0
 76152  1  0  0  0
 76153  1  0  0  0
 76154  1  0  0  0
 77 78  1  0  0  0
 77155  1  0  0  0
 77156  1  0  0  0
 78 79  1  0  0  0
 78157  1  0  0  0
 78158  1  0  0  0
 79 81  1  0  0  0
 79159  1  0  0  0
 79160  1  0  0  0
 80 82  1  0  0  0
 80 85  1  0  0  0
 80161  1  0  0  0
 80162  1  0  0  0
 81163  1  0  0  0
 81164  1  0  0  0
 82 84  1  0  0  0
 83 84  1  0  0  0
 85165  1  0  0  0
M  ISO  4   1 100  68 101  81 101  85 100
M  END
> <chiral flag>
0

> <version>
0

> <s_m_source_file>
/data/baiqing/PycharmProjects/Reinvent-master-3.2/result/LINK_invent/BTK/process_docking_weight1_custom_sum_contain_oxygen_bond_distance_aromatic_linkinvent_7_9_3/rearranged_h_0078.sdf

> <i_m_source_file_index>
28

> <r_mmod_Potential_Energy-OPLS-2005>
186.900100708008

> <r_mmod_Stretch_Energy-OPLS-2005>
65.3218688964844

> <r_mmod_Bend_Energy-OPLS-2005>
162.349014282227

> <r_mmod_Torsional_Energy-OPLS-2005>
412.350311279297

> <r_mmod_Improper_Torsional_Energy-OPLS-2005>
27.0582008361816

> <r_mmod_Van_der_Waal_Energy-OPLS-2005>
163.983856201172

> <r_mmod_Electrostatic_Energy-OPLS-2005>
-460.246429443359

> <r_mmod_Solvation_Energy-OPLS-2005>
-208.926086425781

> <b_mmod_Minimization_Converged-OPLS-2005>
0

> <r_mmod_RMS_Derivative-OPLS-2005>
2.10083651542664

$$$$
28
                    3D
 Structure written by MMmdl.
155163  0  0  1  0            999 V2000
  -30.6234  -14.6056   20.5679 C   0  0  0  0  0  0
  -30.4457  -12.3880   19.4325 C   0  0  0  0  0  0
  -29.5052  -12.5260   18.2146 C   0  0  0  0  0  0
  -28.0279  -12.3605   18.6278 C   0  0  0  0  0  0
  -27.6607  -13.2088   19.8739 C   0  0  2  0  0  0
  -28.7089  -13.0141   20.9930 C   0  0  0  0  0  0
  -25.2596  -13.8147   20.5697 C   0  0  0  0  0  0
  -24.1850  -13.0419   20.9187 C   0  0  0  0  0  0
  -24.6409  -11.6891   20.8737 C   0  0  0  0  0  0
  -23.9070  -10.4281   21.0405 C   0  0  0  0  0  0
  -24.3620   -9.4196   21.9183 C   0  0  0  0  0  0
  -23.6291   -8.2234   22.0755 C   0  0  0  0  0  0
  -22.4273   -8.0277   21.3545 C   0  0  0  0  0  0
  -21.9911   -9.0251   20.4644 C   0  0  0  0  0  0
  -22.7243  -10.2128   20.3054 C   0  0  0  0  0  0
  -21.6849   -6.0736   22.5280 C   0  0  0  0  0  0
  -21.4010   -6.5641   23.8215 C   0  0  0  0  0  0
  -21.3661   -5.6793   24.9176 C   0  0  0  0  0  0
  -21.6047   -4.3056   24.7224 C   0  0  0  0  0  0
  -21.8821   -3.8147   23.4345 C   0  0  0  0  0  0
  -21.9192   -4.6965   22.3403 C   0  0  0  0  0  0
  -22.7871  -13.5219   21.1850 C   0  0  0  0  0  0
  -22.1663   -4.2148   21.0980 F   0  0  0  0  0  0
  -21.5628   -3.4539   25.7736 F   0  0  0  0  0  0
  -30.0227  -13.3792   20.4403 N   0  0  0  0  0  0
  -26.3033  -12.9318   20.3373 N   0  0  0  0  0  0
  -25.9340  -11.6477   20.5766 N   0  0  0  0  0  0
  -22.0514  -12.8208   22.0408 N   0  0  0  0  0  0
  -25.4304  -15.1867   20.4110 N   0  0  0  0  0  0
  -31.7441  -14.8096   20.0875 O   0  0  0  0  0  0
  -21.6632   -6.8878   21.4242 O   0  0  0  0  0  0
  -22.3552  -14.5530   20.6710 O   0  0  0  0  0  0
  -24.6250  -31.8610   23.2043 C   0  0  0  0  0  0
  -25.9106  -32.4783   23.8363 C   0  0  1  0  0  0
  -27.2276  -27.3360   20.1059 C   0  0  0  0  0  0
  -25.5925  -33.8586   24.2287 N   0  0  0  0  0  0
  -23.4172  -30.4859   21.5478 C   0  0  2  0  0  0
  -24.8629  -28.9443   20.1126 C   0  0  0  0  0  0
  -22.7466  -29.4630   22.4954 C   0  0  0  0  0  0
  -18.0284  -28.1385   22.8494 C   0  0  0  0  0  0
  -24.1490  -36.7294   23.2637 C   0  0  0  0  0  0
  -25.9580  -30.7965   21.3734 C   0  0  0  0  0  0
  -26.0325  -29.4263   20.7134 C   0  0  0  0  0  0
  -27.2175  -28.6343   20.7000 C   0  0  0  0  0  0
  -26.0300  -26.9025   19.4880 C   0  0  0  0  0  0
  -24.8626  -27.6865   19.4932 C   0  0  0  0  0  0
  -23.6302  -29.8224   20.1627 C   0  0  0  0  0  0
  -25.4115  -36.3087   24.0329 C   0  0  1  0  0  0
  -20.5882  -28.3686   23.1294 C   0  0  2  0  0  0
  -20.6775  -26.9413   22.5417 C   0  0  0  0  0  0
  -19.5749  -26.6386   21.5220 C   0  0  0  0  0  0
  -18.1927  -26.7928   22.1629 C   0  0  0  0  0  0
  -19.1537  -28.8854   23.2886 C   0  0  0  0  0  0
  -18.9458  -30.1459   23.8897 C   0  0  0  0  0  0
  -17.6456  -30.6588   24.0566 C   0  0  0  0  0  0
  -25.9052  -34.9455   23.5107 C   0  0  0  0  0  0
  -16.5348  -29.9087   23.6332 C   0  0  0  0  0  0
  -16.7271  -28.6506   23.0353 C   0  0  0  0  0  0
  -26.4493  -31.6586   25.0725 C   0  0  0  0  0  0
  -25.3729  -31.3713   26.1451 C   0  0  0  0  0  0
  -27.0336  -30.3014   24.6168 C   0  0  0  0  0  0
  -27.6051  -32.4321   25.7499 C   0  0  0  0  0  0
  -27.5586  -37.1799   24.8462 C   0  0  0  0  0  0
  -21.4183  -29.3039   22.3690 N   0  0  0  0  0  0
  -26.4293  -37.3784   23.9412 N   0  0  0  0  0  0
  -24.6856  -31.0636   22.0991 N   0  0  0  0  0  0
  -23.4198  -28.8167   23.3026 O   0  0  0  0  0  0
  -28.3569  -26.5041   20.1453 O   0  0  0  0  0  0
  -26.5622  -34.8919   22.4673 O   0  0  0  0  0  0
  -23.5417  -32.1403   23.7381 O   0  0  0  0  0  0
  -29.4468  -17.8782   19.7359 C   0  0  0  0  0  0
  -30.0823  -17.2783   20.8530 C   0  0  0  0  0  0
  -30.1070  -19.9789   20.4589 C   0  0  0  0  0  0
  -29.8592  -15.7884   21.2771 C   0  0  0  0  0  0
  -29.3507  -24.0670   20.2765 C   0  0  0  0  0  0
  -29.0824  -22.4960   20.1251 C   0  0  0  0  0  0
  -28.1512  -25.0525   19.9751 C   0  0  0  0  0  0
  -31.2873  -21.7256   18.9790 C   0  0  0  0  0  0
  -30.3369  -21.5187   20.1918 C   0  0  2  0  0  0
  -29.4612  -19.2325   19.5433 N   0  0  0  0  0  0
  -30.7048  -18.1032   21.7394 N   0  0  0  0  0  0
  -30.7263  -19.4401   21.5354 N   0  0  0  0  0  0
  -32.6695  -21.6883   19.3203 O   0  0  0  0  0  0
  -31.4836  -12.5271   19.1257 H   0  0  0  0  0  0
  -30.3922  -11.3804   19.8473 H   0  0  0  0  0  0
  -29.7649  -11.7913   17.4514 H   0  0  0  0  0  0
  -29.6474  -13.5059   17.7559 H   0  0  0  0  0  0
  -27.8580  -11.3039   18.8374 H   0  0  0  0  0  0
  -27.3726  -12.6136   17.7937 H   0  0  0  0  0  0
  -27.6920  -14.2516   19.5598 H   0  0  0  0  0  0
  -28.7204  -11.9732   21.3201 H   0  0  0  0  0  0
  -28.4558  -13.5883   21.8844 H   0  0  0  0  0  0
  -25.2770   -9.5662   22.4750 H   0  0  0  0  0  0
  -24.0000   -7.4621   22.7475 H   0  0  0  0  0  0
  -21.0844   -8.8771   19.8943 H   0  0  0  0  0  0
  -22.3713  -10.9666   19.6158 H   0  0  0  0  0  0
  -21.2003   -7.6151   23.9715 H   0  0  0  0  0  0
  -21.1485   -6.0524   25.9077 H   0  0  0  0  0  0
  -22.0600   -2.7607   23.2844 H   0  0  0  0  0  0
  -22.4137  -11.9860   22.4771 H   0  0  0  0  0  0
  -21.1134  -13.1232   22.2631 H   0  0  0  0  0  0
  -24.6610  -15.8392   20.5171 H   0  0  0  0  0  0
  -26.2784  -15.6277   20.0797 H   0  0  0  0  0  0
  -26.7171  -32.5457   23.1111 H   0  0  0  0  0  0
  -25.0072  -33.9737   25.0431 H   0  0  0  0  0  0
  -22.7098  -31.3060   21.4069 H   0  0  0  0  0  0
  -23.3759  -35.9620   23.3291 H   0  0  0  0  0  0
  -24.3583  -36.8930   22.2055 H   0  0  0  0  0  0
  -23.7232  -37.6488   23.6668 H   0  0  0  0  0  0
  -26.0880  -31.5617   20.6067 H   0  0  0  0  0  0
  -26.8393  -30.8432   22.0015 H   0  0  0  0  0  0
  -28.1164  -29.0019   21.1751 H   0  0  0  0  0  0
  -25.9624  -25.9432   18.9982 H   0  0  0  0  0  0
  -23.9652  -27.3107   19.0212 H   0  0  0  0  0  0
  -23.7480  -30.5995   19.4068 H   0  0  0  0  0  0
  -22.7500  -29.2516   19.8613 H   0  0  0  0  0  0
  -25.1292  -36.1943   25.0822 H   0  0  0  0  0  0
  -20.9974  -28.3263   24.1414 H   0  0  0  0  0  0
  -20.5692  -26.2292   23.3612 H   0  0  0  0  0  0
  -21.6642  -26.7451   22.1202 H   0  0  0  0  0  0
  -19.6911  -25.6298   21.1246 H   0  0  0  0  0  0
  -19.6687  -27.3202   20.6755 H   0  0  0  0  0  0
  -17.4200  -26.6687   21.4027 H   0  0  0  0  0  0
  -18.0318  -26.0071   22.9023 H   0  0  0  0  0  0
  -19.7932  -30.7281   24.2262 H   0  0  0  0  0  0
  -17.5008  -31.6268   24.5170 H   0  0  0  0  0  0
  -15.5348  -30.2987   23.7654 H   0  0  0  0  0  0
  -15.8671  -28.0825   22.7061 H   0  0  0  0  0  0
  -24.5914  -30.7051   25.7775 H   0  0  0  0  0  0
  -24.8905  -32.2873   26.4869 H   0  0  0  0  0  0
  -25.8059  -30.8895   27.0226 H   0  0  0  0  0  0
  -26.2907  -29.6764   24.1195 H   0  0  0  0  0  0
  -27.4046  -29.7265   25.4662 H   0  0  0  0  0  0
  -27.8771  -30.4304   23.9381 H   0  0  0  0  0  0
  -27.2661  -33.3624   26.2068 H   0  0  0  0  0  0
  -28.3866  -32.6877   25.0332 H   0  0  0  0  0  0
  -28.0710  -31.8449   26.5422 H   0  0  0  0  0  0
  -28.2584  -38.0117   24.7539 H   0  0  0  0  0  0
  -28.1105  -36.2648   24.6255 H   0  0  0  0  0  0
  -27.2305  -37.1407   25.8864 H   0  0  0  0  0  0
  -20.9359  -29.8760   21.6900 H   0  0  0  0  0  0
  -26.0175  -38.2856   24.1434 H   0  0  0  0  0  0
  -28.8790  -17.2850   19.0337 H   0  0  0  0  0  0
  -28.7872  -15.6391   21.1708 H   0  0  0  0  0  0
  -30.0589  -15.6989   22.3449 H   0  0  0  0  0  0
  -30.1736  -24.3620   19.6271 H   0  0  0  0  0  0
  -29.7045  -24.2566   21.2904 H   0  0  0  0  0  0
  -28.5539  -22.3051   19.1908 H   0  0  0  0  0  0
  -28.3883  -22.2037   20.9136 H   0  0  0  0  0  0
  -27.3132  -24.7476   20.6045 H   0  0  0  0  0  0
  -27.8506  -24.8719   18.9426 H   0  0  0  0  0  0
  -31.1120  -22.6946   18.5143 H   0  0  0  0  0  0
  -31.0759  -20.9932   18.1986 H   0  0  0  0  0  0
  -30.8744  -21.8709   21.0734 H   0  0  0  0  0  0
  -32.8689  -22.4597   19.8442 H   0  0  0  0  0  0
  1 25  1  0  0  0
  1 30  2  0  0  0
  1 74  1  0  0  0
  2  3  1  0  0  0
  2 25  1  0  0  0
  2 84  1  0  0  0
  2 85  1  0  0  0
  3  4  1  0  0  0
  3 86  1  0  0  0
  3 87  1  0  0  0
  4  5  1  0  0  0
  4 88  1  0  0  0
  4 89  1  0  0  0
  5  6  1  0  0  0
  5 26  1  0  0  0
  5 90  1  0  0  0
  6 25  1  0  0  0
  6 91  1  0  0  0
  6 92  1  0  0  0
  7  8  2  0  0  0
  7 26  1  0  0  0
  7 29  1  0  0  0
  8  9  1  0  0  0
  8 22  1  0  0  0
  9 10  1  0  0  0
  9 27  2  0  0  0
 10 11  2  0  0  0
 10 15  1  0  0  0
 11 12  1  0  0  0
 11 93  1  0  0  0
 12 13  2  0  0  0
 12 94  1  0  0  0
 13 14  1  0  0  0
 13 31  1  0  0  0
 14 15  2  0  0  0
 14 95  1  0  0  0
 15 96  1  0  0  0
 16 17  2  0  0  0
 16 21  1  0  0  0
 16 31  1  0  0  0
 17 18  1  0  0  0
 17 97  1  0  0  0
 18 19  2  0  0  0
 18 98  1  0  0  0
 19 20  1  0  0  0
 19 24  1  0  0  0
 20 21  2  0  0  0
 20 99  1  0  0  0
 21 23  1  0  0  0
 22 28  1  0  0  0
 22 32  2  0  0  0
 26 27  1  0  0  0
 28100  1  0  0  0
 28101  1  0  0  0
 29102  1  0  0  0
 29103  1  0  0  0
 33 34  1  0  0  0
 33 66  1  0  0  0
 33 70  2  0  0  0
 34 36  1  0  0  0
 34 59  1  0  0  0
 34104  1  0  0  0
 35 44  2  0  0  0
 35 45  1  0  0  0
 35 68  1  0  0  0
 36 56  1  0  0  0
 36105  1  0  0  0
 37 39  1  0  0  0
 37 47  1  0  0  0
 37 66  1  0  0  0
 37106  1  0  0  0
 38 43  2  0  0  0
 38 46  1  0  0  0
 38 47  1  0  0  0
 39 64  1  0  0  0
 39 67  2  0  0  0
 40 52  1  0  0  0
 40 53  2  0  0  0
 40 58  1  0  0  0
 41107  1  0  0  0
 41108  1  0  0  0
 41109  1  0  0  0
 41 48  1  0  0  0
 42 43  1  0  0  0
 42 66  1  0  0  0
 42110  1  0  0  0
 42111  1  0  0  0
 43 44  1  0  0  0
 44112  1  0  0  0
 45 46  2  0  0  0
 45113  1  0  0  0
 46114  1  0  0  0
 47115  1  0  0  0
 47116  1  0  0  0
 48 56  1  0  0  0
 48 65  1  0  0  0
 48117  1  0  0  0
 49 50  1  0  0  0
 49 53  1  0  0  0
 49 64  1  0  0  0
 49118  1  0  0  0
 50 51  1  0  0  0
 50119  1  0  0  0
 50120  1  0  0  0
 51 52  1  0  0  0
 51121  1  0  0  0
 51122  1  0  0  0
 52123  1  0  0  0
 52124  1  0  0  0
 53 54  1  0  0  0
 54 55  2  0  0  0
 54125  1  0  0  0
 55 57  1  0  0  0
 55126  1  0  0  0
 56 69  2  0  0  0
 57 58  2  0  0  0
 57127  1  0  0  0
 58128  1  0  0  0
 59 60  1  0  0  0
 59 61  1  0  0  0
 59 62  1  0  0  0
 60129  1  0  0  0
 60130  1  0  0  0
 60131  1  0  0  0
 61132  1  0  0  0
 61133  1  0  0  0
 61134  1  0  0  0
 62135  1  0  0  0
 62136  1  0  0  0
 62137  1  0  0  0
 63 65  1  0  0  0
 63138  1  0  0  0
 63139  1  0  0  0
 63140  1  0  0  0
 64141  1  0  0  0
 65142  1  0  0  0
 68 77  1  0  0  0
 71 72  2  0  0  0
 71 80  1  0  0  0
 71143  1  0  0  0
 72 74  1  0  0  0
 72 81  1  0  0  0
 73 79  1  0  0  0
 73 80  2  0  0  0
 73 82  1  0  0  0
 74144  1  0  0  0
 74145  1  0  0  0
 75 76  1  0  0  0
 75 77  1  0  0  0
 75146  1  0  0  0
 75147  1  0  0  0
 76148  1  0  0  0
 76149  1  0  0  0
 76 79  1  0  0  0
 77150  1  0  0  0
 77151  1  0  0  0
 78 79  1  0  0  0
 78 83  1  0  0  0
 78152  1  0  0  0
 78153  1  0  0  0
 79154  1  0  0  0
 81 82  2  0  0  0
 83155  1  0  0  0
M  ISO  4   1 100  68 101  74 100  77 101
M  END
> <chiral flag>
0

> <version>
0

> <s_m_source_file>
/data/baiqing/PycharmProjects/Reinvent-master-3.2/result/LINK_invent/BTK/process_docking_weight1_custom_sum_contain_oxygen_bond_distance_aromatic_linkinvent_7_9_3/rearranged_h_0078.sdf

> <i_m_source_file_index>
29

> <r_mmod_Potential_Energy-OPLS-2005>
58.3544540405273

> <r_mmod_Stretch_Energy-OPLS-2005>
80.0737152099609

> <r_mmod_Bend_Energy-OPLS-2005>
139.120498657227

> <r_mmod_Torsional_Energy-OPLS-2005>
159.927307128906

> <r_mmod_Improper_Torsional_Energy-OPLS-2005>
4.42967510223389

> <r_mmod_Van_der_Waal_Energy-OPLS-2005>
152.199081420898

> <r_mmod_Electrostatic_Energy-OPLS-2005>
-258.010772705078

> <r_mmod_Solvation_Energy-OPLS-2005>
-257.442626953125

> <b_mmod_Minimization_Converged-OPLS-2005>
0

> <r_mmod_RMS_Derivative-OPLS-2005>
0.587391316890717

$$$$
29
                    3D
 Structure written by MMmdl.
173181  0  0  1  0            999 V2000
  -30.8102  -14.2964   20.6055 C   0  0  0  0  0  0
  -30.3915  -12.2150   19.3636 C   0  0  0  0  0  0
  -29.4649  -12.5132   18.1647 C   0  0  0  0  0  0
  -27.9875  -12.3934   18.5938 C   0  0  0  0  0  0
  -27.6777  -13.1863   19.8926 C   0  0  2  0  0  0
  -28.7248  -12.9168   20.9974 C   0  0  0  0  0  0
  -25.2769  -13.8164   20.5815 C   0  0  0  0  0  0
  -24.1913  -13.0410   20.9171 C   0  0  0  0  0  0
  -24.6459  -11.6903   20.8701 C   0  0  0  0  0  0
  -23.9213  -10.4229   21.0394 C   0  0  0  0  0  0
  -24.3750   -9.4123   21.9210 C   0  0  0  0  0  0
  -23.6370   -8.2161   22.0791 C   0  0  0  0  0  0
  -22.4360   -8.0282   21.3572 C   0  0  0  0  0  0
  -22.0036   -9.0267   20.4682 C   0  0  0  0  0  0
  -22.7387  -10.2124   20.3071 C   0  0  0  0  0  0
  -21.6839   -6.0789   22.5307 C   0  0  0  0  0  0
  -21.3986   -6.5681   23.8237 C   0  0  0  0  0  0
  -21.3646   -5.6836   24.9207 C   0  0  0  0  0  0
  -21.6024   -4.3084   24.7214 C   0  0  0  0  0  0
  -21.8813   -3.8196   23.4322 C   0  0  0  0  0  0
  -21.9193   -4.7030   22.3403 C   0  0  0  0  0  0
  -22.7962  -13.5273   21.1798 C   0  0  0  0  0  0
  -22.1697   -4.2235   21.0960 F   0  0  0  0  0  0
  -21.5613   -3.4534   25.7694 F   0  0  0  0  0  0
  -30.0688  -13.1721   20.4314 N   0  0  0  0  0  0
  -26.3150  -12.9261   20.3555 N   0  0  0  0  0  0
  -25.9405  -11.6453   20.5884 N   0  0  0  0  0  0
  -22.0672  -12.8263   22.0468 N   0  0  0  0  0  0
  -25.4615  -15.1836   20.4532 N   0  0  0  0  0  0
  -31.8782  -14.5340   20.0370 O   0  0  0  0  0  0
  -21.6662   -6.8936   21.4270 O   0  0  0  0  0  0
  -22.3546  -14.5482   20.6576 O   0  0  0  0  0  0
  -24.6082  -31.8785   23.2029 C   0  0  0  0  0  0
  -25.9051  -32.4802   23.8326 C   0  0  1  0  0  0
  -27.2842  -27.5180   20.0695 C   0  0  0  0  0  0
  -25.5941  -33.8596   24.2284 N   0  0  0  0  0  0
  -23.3957  -30.5008   21.5381 C   0  0  2  0  0  0
  -24.8591  -28.9685   20.1294 C   0  0  0  0  0  0
  -22.7314  -29.4853   22.4942 C   0  0  0  0  0  0
  -18.0314  -28.1372   22.8407 C   0  0  0  0  0  0
  -24.1526  -36.7291   23.2651 C   0  0  0  0  0  0
  -25.9143  -30.8736   21.3506 C   0  0  0  0  0  0
  -26.0115  -29.5082   20.7115 C   0  0  0  0  0  0
  -27.2243  -28.7885   20.6920 C   0  0  0  0  0  0
  -26.0956  -26.9620   19.5412 C   0  0  0  0  0  0
  -24.8934  -27.6848   19.5615 C   0  0  0  0  0  0
  -23.6066  -29.8135   20.1610 C   0  0  0  0  0  0
  -25.4115  -36.3051   24.0350 C   0  0  1  0  0  0
  -20.5875  -28.3637   23.1260 C   0  0  2  0  0  0
  -20.6816  -26.9422   22.5200 C   0  0  0  0  0  0
  -19.5784  -26.6405   21.5053 C   0  0  0  0  0  0
  -18.1983  -26.7941   22.1504 C   0  0  0  0  0  0
  -19.1538  -28.8791   23.2924 C   0  0  0  0  0  0
  -18.9483  -30.1395   23.8937 C   0  0  0  0  0  0
  -17.6499  -30.6549   24.0546 C   0  0  0  0  0  0
  -25.9049  -34.9439   23.5073 C   0  0  0  0  0  0
  -16.5394  -29.9029   23.6345 C   0  0  0  0  0  0
  -16.7293  -28.6496   23.0259 C   0  0  0  0  0  0
  -26.4458  -31.6568   25.0628 C   0  0  0  0  0  0
  -25.3700  -31.3787   26.1348 C   0  0  0  0  0  0
  -27.0375  -30.3020   24.6099 C   0  0  0  0  0  0
  -27.6003  -32.4264   25.7400 C   0  0  0  0  0  0
  -27.5573  -37.1780   24.8465 C   0  0  0  0  0  0
  -21.4042  -29.3212   22.3766 N   0  0  0  0  0  0
  -26.4287  -37.3732   23.9412 N   0  0  0  0  0  0
  -24.6545  -31.0981   22.0870 N   0  0  0  0  0  0
  -23.4150  -28.8452   23.2987 O   0  0  0  0  0  0
  -28.5073  -26.8883   19.9837 O   0  0  0  0  0  0
  -26.5581  -34.8930   22.4620 O   0  0  0  0  0  0
  -23.5295  -32.1523   23.7482 O   0  0  0  0  0  0
  -28.3459  -19.6107   21.3845 C   0  0  0  0  0  0
  -29.1397  -21.3321   22.8660 C   0  0  0  0  0  0
  -28.7879  -19.9816   22.6751 C   0  0  0  0  0  0
  -28.1909  -20.5973   20.3906 C   0  0  0  0  0  0
  -28.5055  -21.9388   20.7212 C   0  0  0  0  0  0
  -27.0957  -18.8276   18.8001 C   0  0  0  0  0  0
  -28.9520  -16.7653   24.9084 C   0  0  0  0  0  0
  -31.1222  -17.9888   21.8769 C   0  0  0  0  0  0
  -28.7507  -19.0354   23.8846 C   0  0  0  0  0  0
  -27.6162  -20.2552   19.0155 C   0  0  0  0  0  0
  -28.2124  -23.0857   19.7476 C   0  0  0  0  0  0
  -28.4436  -24.5226   20.2994 C   0  0  0  0  0  0
  -30.4613  -15.6562   22.6131 C   0  0  0  0  0  0
  -28.6201  -25.6557   19.2661 C   0  0  0  0  0  0
  -29.6610  -17.7706   23.9761 C   0  0  2  0  0  0
  -30.0421  -17.1445   22.6249 C   0  0  2  0  0  0
  -29.0050  -22.2769   21.9245 N   0  0  0  0  0  0
  -30.2039  -15.2769   21.2425 N   0  0  0  0  0  0
  -31.4469  -12.2616   19.0885 H   0  0  0  0  0  0
  -30.2181  -11.1900   19.6899 H   0  0  0  0  0  0
  -29.6523  -11.8312   17.3328 H   0  0  0  0  0  0
  -29.6637  -13.5169   17.7843 H   0  0  0  0  0  0
  -27.7519  -11.3337   18.7270 H   0  0  0  0  0  0
  -27.3405  -12.7499   17.7917 H   0  0  0  0  0  0
  -27.7429  -14.2467   19.6537 H   0  0  0  0  0  0
  -28.6475  -11.8838   21.3443 H   0  0  0  0  0  0
  -28.5166  -13.5145   21.8850 H   0  0  0  0  0  0
  -25.2849   -9.5531   22.4903 H   0  0  0  0  0  0
  -23.9994   -7.4515   22.7530 H   0  0  0  0  0  0
  -21.0967   -8.8852   19.8983 H   0  0  0  0  0  0
  -22.3870  -10.9714   19.6233 H   0  0  0  0  0  0
  -21.1989   -7.6193   23.9698 H   0  0  0  0  0  0
  -21.1504   -6.0613   25.9113 H   0  0  0  0  0  0
  -22.0607   -2.7650   23.2774 H   0  0  0  0  0  0
  -22.4147  -11.9726   22.4588 H   0  0  0  0  0  0
  -21.1258  -13.1246   22.2507 H   0  0  0  0  0  0
  -24.7143  -15.8354   20.6620 H   0  0  0  0  0  0
  -26.3658  -15.6302   20.3040 H   0  0  0  0  0  0
  -26.7152  -32.5625   23.1125 H   0  0  0  0  0  0
  -24.9981  -33.9756   25.0356 H   0  0  0  0  0  0
  -22.6889  -31.3172   21.3743 H   0  0  0  0  0  0
  -23.3729  -35.9697   23.3315 H   0  0  0  0  0  0
  -24.3606  -36.8880   22.2066 H   0  0  0  0  0  0
  -23.7401  -37.6545   23.6633 H   0  0  0  0  0  0
  -26.0126  -31.6529   20.5941 H   0  0  0  0  0  0
  -26.7920  -30.9276   21.9782 H   0  0  0  0  0  0
  -28.1148  -29.2298   21.1269 H   0  0  0  0  0  0
  -26.0821  -25.9784   19.1012 H   0  0  0  0  0  0
  -24.0048  -27.2287   19.1558 H   0  0  0  0  0  0
  -23.6863  -30.5628   19.3747 H   0  0  0  0  0  0
  -22.7482  -29.2021   19.8686 H   0  0  0  0  0  0
  -25.1304  -36.1808   25.0842 H   0  0  0  0  0  0
  -21.0002  -28.3143   24.1353 H   0  0  0  0  0  0
  -20.5758  -26.2174   23.3267 H   0  0  0  0  0  0
  -21.6686  -26.7544   22.0909 H   0  0  0  0  0  0
  -19.6963  -25.6297   21.1087 H   0  0  0  0  0  0
  -19.6757  -27.3157   20.6548 H   0  0  0  0  0  0
  -17.4217  -26.6740   21.3945 H   0  0  0  0  0  0
  -18.0512  -26.0038   22.8848 H   0  0  0  0  0  0
  -19.7993  -30.7174   24.2345 H   0  0  0  0  0  0
  -17.5078  -31.6283   24.5064 H   0  0  0  0  0  0
  -15.5401  -30.2900   23.7730 H   0  0  0  0  0  0
  -15.8727  -28.0887   22.6801 H   0  0  0  0  0  0
  -24.5782  -30.7257   25.7653 H   0  0  0  0  0  0
  -24.9021  -32.3045   26.4710 H   0  0  0  0  0  0
  -25.7972  -30.8932   27.0149 H   0  0  0  0  0  0
  -26.3040  -29.6634   24.1172 H   0  0  0  0  0  0
  -27.4147  -29.7358   25.4636 H   0  0  0  0  0  0
  -27.8820  -30.4270   23.9319 H   0  0  0  0  0  0
  -27.2574  -33.3519   26.2035 H   0  0  0  0  0  0
  -28.3785  -32.6891   25.0221 H   0  0  0  0  0  0
  -28.0697  -31.8348   26.5265 H   0  0  0  0  0  0
  -28.2564  -38.0086   24.7405 H   0  0  0  0  0  0
  -28.1077  -36.2587   24.6346 H   0  0  0  0  0  0
  -27.2270  -37.1512   25.8869 H   0  0  0  0  0  0
  -20.9044  -29.9226   21.7366 H   0  0  0  0  0  0
  -26.0141  -38.2831   24.1290 H   0  0  0  0  0  0
  -28.0801  -18.5959   21.1506 H   0  0  0  0  0  0
  -29.4875  -21.7128   23.8108 H   0  0  0  0  0  0
  -26.6941  -18.7293   17.7926 H   0  0  0  0  0  0
  -26.2713  -18.5826   19.4676 H   0  0  0  0  0  0
  -27.8689  -18.0740   18.9195 H   0  0  0  0  0  0
  -28.0475  -16.3437   24.4584 H   0  0  0  0  0  0
  -28.6674  -17.2450   25.8451 H   0  0  0  0  0  0
  -29.5963  -15.9335   25.1794 H   0  0  0  0  0  0
  -30.9466  -19.0635   21.8639 H   0  0  0  0  0  0
  -32.0957  -17.8639   22.3532 H   0  0  0  0  0  0
  -31.2277  -17.7115   20.8290 H   0  0  0  0  0  0
  -27.6975  -18.7604   24.0226 H   0  0  0  0  0  0
  -29.0330  -19.6239   24.7566 H   0  0  0  0  0  0
  -28.3628  -20.5096   18.2638 H   0  0  0  0  0  0
  -26.7656  -20.9035   18.8208 H   0  0  0  0  0  0
  -27.1482  -22.9974   19.5092 H   0  0  0  0  0  0
  -28.7698  -22.8880   18.8283 H   0  0  0  0  0  0
  -29.3502  -24.5404   20.9023 H   0  0  0  0  0  0
  -27.6538  -24.7827   21.0091 H   0  0  0  0  0  0
  -31.5054  -15.5266   22.9084 H   0  0  0  0  0  0
  -29.8614  -14.9960   23.2307 H   0  0  0  0  0  0
  -27.9557  -25.5753   18.4049 H   0  0  0  0  0  0
  -29.6270  -25.6251   18.8430 H   0  0  0  0  0  0
  -30.6048  -18.0579   24.4442 H   0  0  0  0  0  0
  -29.1017  -17.1265   22.0842 H   0  0  0  0  0  0
  -30.2672  -16.1360   20.7192 H   0  0  0  0  0  0
  1 25  1  0  0  0
  1 30  2  0  0  0
  1 88  1  0  0  0
  2  3  1  0  0  0
  2 25  1  0  0  0
  2 89  1  0  0  0
  2 90  1  0  0  0
  3  4  1  0  0  0
  3 91  1  0  0  0
  3 92  1  0  0  0
  4  5  1  0  0  0
  4 93  1  0  0  0
  4 94  1  0  0  0
  5  6  1  0  0  0
  5 26  1  0  0  0
  5 95  1  0  0  0
  6 25  1  0  0  0
  6 96  1  0  0  0
  6 97  1  0  0  0
  7  8  2  0  0  0
  7 26  1  0  0  0
  7 29  1  0  0  0
  8  9  1  0  0  0
  8 22  1  0  0  0
  9 10  1  0  0  0
  9 27  2  0  0  0
 10 11  2  0  0  0
 10 15  1  0  0  0
 11 12  1  0  0  0
 11 98  1  0  0  0
 12 13  2  0  0  0
 12 99  1  0  0  0
 13 14  1  0  0  0
 13 31  1  0  0  0
 14 15  2  0  0  0
 14100  1  0  0  0
 15101  1  0  0  0
 16 17  2  0  0  0
 16 21  1  0  0  0
 16 31  1  0  0  0
 17 18  1  0  0  0
 17102  1  0  0  0
 18 19  2  0  0  0
 18103  1  0  0  0
 19 20  1  0  0  0
 19 24  1  0  0  0
 20 21  2  0  0  0
 20104  1  0  0  0
 21 23  1  0  0  0
 22 28  1  0  0  0
 22 32  2  0  0  0
 26 27  1  0  0  0
 28105  1  0  0  0
 28106  1  0  0  0
 29107  1  0  0  0
 29108  1  0  0  0
 33 34  1  0  0  0
 33 66  1  0  0  0
 33 70  2  0  0  0
 34 36  1  0  0  0
 34 59  1  0  0  0
 34109  1  0  0  0
 35 44  2  0  0  0
 35 45  1  0  0  0
 35 68  1  0  0  0
 36 56  1  0  0  0
 36110  1  0  0  0
 37 39  1  0  0  0
 37 47  1  0  0  0
 37 66  1  0  0  0
 37111  1  0  0  0
 38 43  2  0  0  0
 38 46  1  0  0  0
 38 47  1  0  0  0
 39 64  1  0  0  0
 39 67  2  0  0  0
 40 52  1  0  0  0
 40 53  2  0  0  0
 40 58  1  0  0  0
 41112  1  0  0  0
 41113  1  0  0  0
 41114  1  0  0  0
 41 48  1  0  0  0
 42 43  1  0  0  0
 42 66  1  0  0  0
 42115  1  0  0  0
 42116  1  0  0  0
 43 44  1  0  0  0
 44117  1  0  0  0
 45 46  2  0  0  0
 45118  1  0  0  0
 46119  1  0  0  0
 47120  1  0  0  0
 47121  1  0  0  0
 48 56  1  0  0  0
 48 65  1  0  0  0
 48122  1  0  0  0
 49 50  1  0  0  0
 49 53  1  0  0  0
 49 64  1  0  0  0
 49123  1  0  0  0
 50 51  1  0  0  0
 50124  1  0  0  0
 50125  1  0  0  0
 51 52  1  0  0  0
 51126  1  0  0  0
 51127  1  0  0  0
 52128  1  0  0  0
 52129  1  0  0  0
 53 54  1  0  0  0
 54 55  2  0  0  0
 54130  1  0  0  0
 55 57  1  0  0  0
 55131  1  0  0  0
 56 69  2  0  0  0
 57 58  2  0  0  0
 57132  1  0  0  0
 58133  1  0  0  0
 59 60  1  0  0  0
 59 61  1  0  0  0
 59 62  1  0  0  0
 60134  1  0  0  0
 60135  1  0  0  0
 60136  1  0  0  0
 61137  1  0  0  0
 61138  1  0  0  0
 61139  1  0  0  0
 62140  1  0  0  0
 62141  1  0  0  0
 62142  1  0  0  0
 63 65  1  0  0  0
 63143  1  0  0  0
 63144  1  0  0  0
 63145  1  0  0  0
 64146  1  0  0  0
 65147  1  0  0  0
 68 84  1  0  0  0
 71 73  2  0  0  0
 71 74  1  0  0  0
 71148  1  0  0  0
 72 73  1  0  0  0
 72 87  2  0  0  0
 72149  1  0  0  0
 73 79  1  0  0  0
 74 75  2  0  0  0
 74 80  1  0  0  0
 75 81  1  0  0  0
 75 87  1  0  0  0
 76 80  1  0  0  0
 76150  1  0  0  0
 76151  1  0  0  0
 76152  1  0  0  0
 77153  1  0  0  0
 77154  1  0  0  0
 77155  1  0  0  0
 77 85  1  0  0  0
 78156  1  0  0  0
 78157  1  0  0  0
 78158  1  0  0  0
 78 86  1  0  0  0
 79 85  1  0  0  0
 79159  1  0  0  0
 79160  1  0  0  0
 80161  1  0  0  0
 80162  1  0  0  0
 81 82  1  0  0  0
 81163  1  0  0  0
 81164  1  0  0  0
 82 84  1  0  0  0
 82165  1  0  0  0
 82166  1  0  0  0
 83 86  1  0  0  0
 83 88  1  0  0  0
 83167  1  0  0  0
 83168  1  0  0  0
 84169  1  0  0  0
 84170  1  0  0  0
 85 86  1  0  0  0
 85171  1  0  0  0
 86172  1  0  0  0
 88173  1  0  0  0
M  ISO  4   1 100  68 101  84 101  88 100
M  END
> <chiral flag>
0

> <version>
0

> <s_m_source_file>
/data/baiqing/PycharmProjects/Reinvent-master-3.2/result/LINK_invent/BTK/process_docking_weight1_custom_sum_contain_oxygen_bond_distance_aromatic_linkinvent_7_9_3/rearranged_h_0078.sdf

> <i_m_source_file_index>
30

> <r_mmod_Potential_Energy-OPLS-2005>
-84.305549621582

> <r_mmod_Stretch_Energy-OPLS-2005>
38.2014236450195

> <r_mmod_Bend_Energy-OPLS-2005>
155.57649230957

> <r_mmod_Torsional_Energy-OPLS-2005>
289.882080078125

> <r_mmod_Improper_Torsional_Energy-OPLS-2005>
11.803186416626

> <r_mmod_Van_der_Waal_Energy-OPLS-2005>
187.341735839844

> <r_mmod_Electrostatic_Energy-OPLS-2005>
-575.947570800781

> <r_mmod_Solvation_Energy-OPLS-2005>
-206.455795288086

> <b_mmod_Minimization_Converged-OPLS-2005>
0

> <r_mmod_RMS_Derivative-OPLS-2005>
13.3673620223999

$$$$
30
                    3D
 Structure written by MMmdl.
161169  0  0  1  0            999 V2000
  -30.6529  -14.6406   20.5982 C   0  0  0  0  0  0
  -30.4325  -12.4221   19.4568 C   0  0  0  0  0  0
  -29.5102  -12.5417   18.2223 C   0  0  0  0  0  0
  -28.0262  -12.3745   18.6111 C   0  0  0  0  0  0
  -27.6524  -13.2137   19.8610 C   0  0  2  0  0  0
  -28.6894  -12.9996   20.9771 C   0  0  0  0  0  0
  -25.2573  -13.8190   20.5634 C   0  0  0  0  0  0
  -24.1817  -13.0459   20.9139 C   0  0  0  0  0  0
  -24.6377  -11.6927   20.8731 C   0  0  0  0  0  0
  -23.9035  -10.4307   21.0407 C   0  0  0  0  0  0
  -24.3571   -9.4220   21.9201 C   0  0  0  0  0  0
  -23.6279   -8.2232   22.0735 C   0  0  0  0  0  0
  -22.4285   -8.0246   21.3503 C   0  0  0  0  0  0
  -21.9924   -9.0226   20.4619 C   0  0  0  0  0  0
  -22.7219  -10.2136   20.3054 C   0  0  0  0  0  0
  -21.6842   -6.0718   22.5288 C   0  0  0  0  0  0
  -21.3997   -6.5618   23.8225 C   0  0  0  0  0  0
  -21.3676   -5.6772   24.9203 C   0  0  0  0  0  0
  -21.6061   -4.3034   24.7244 C   0  0  0  0  0  0
  -21.8816   -3.8129   23.4365 C   0  0  0  0  0  0
  -21.9170   -4.6944   22.3418 C   0  0  0  0  0  0
  -22.7849  -13.5281   21.1819 C   0  0  0  0  0  0
  -22.1624   -4.2128   21.0994 F   0  0  0  0  0  0
  -21.5652   -3.4520   25.7751 F   0  0  0  0  0  0
  -29.9985  -13.4290   20.4614 N   0  0  0  0  0  0
  -26.2970  -12.9338   20.3257 N   0  0  0  0  0  0
  -25.9292  -11.6502   20.5716 N   0  0  0  0  0  0
  -22.0469  -12.8278   22.0370 N   0  0  0  0  0  0
  -25.4399  -15.1897   20.4114 N   0  0  0  0  0  0
  -31.7489  -14.7461   20.0277 O   0  0  0  0  0  0
  -21.6629   -6.8856   21.4231 O   0  0  0  0  0  0
  -22.3550  -14.5579   20.6664 O   0  0  0  0  0  0
  -24.6290  -31.8605   23.2033 C   0  0  0  0  0  0
  -25.9138  -32.4779   23.8364 C   0  0  1  0  0  0
  -27.2003  -27.3018   20.1092 C   0  0  0  0  0  0
  -25.5953  -33.8579   24.2289 N   0  0  0  0  0  0
  -23.4206  -30.4896   21.5468 C   0  0  2  0  0  0
  -24.8605  -28.9505   20.1057 C   0  0  0  0  0  0
  -22.7481  -29.4640   22.4923 C   0  0  0  0  0  0
  -18.0290  -28.1392   22.8486 C   0  0  0  0  0  0
  -24.1481  -36.7285   23.2638 C   0  0  0  0  0  0
  -25.9661  -30.7836   21.3787 C   0  0  0  0  0  0
  -26.0339  -29.4128   20.7165 C   0  0  0  0  0  0
  -27.2092  -28.6011   20.7105 C   0  0  0  0  0  0
  -26.0044  -26.9070   19.4652 C   0  0  0  0  0  0
  -24.8485  -27.7033   19.4709 C   0  0  0  0  0  0
  -23.6349  -29.8364   20.1573 C   0  0  0  0  0  0
  -25.4107  -36.3076   24.0327 C   0  0  1  0  0  0
  -20.5893  -28.3696   23.1270 C   0  0  2  0  0  0
  -20.6780  -26.9418   22.5399 C   0  0  0  0  0  0
  -19.5747  -26.6384   21.5210 C   0  0  0  0  0  0
  -18.1932  -26.7935   22.1627 C   0  0  0  0  0  0
  -19.1544  -28.8862   23.2876 C   0  0  0  0  0  0
  -18.9467  -30.1468   23.8891 C   0  0  0  0  0  0
  -17.6466  -30.6593   24.0572 C   0  0  0  0  0  0
  -25.9046  -34.9452   23.5095 C   0  0  0  0  0  0
  -16.5356  -29.9094   23.6341 C   0  0  0  0  0  0
  -16.7276  -28.6516   23.0351 C   0  0  0  0  0  0
  -26.4514  -31.6587   25.0735 C   0  0  0  0  0  0
  -25.3751  -31.3724   26.1463 C   0  0  0  0  0  0
  -27.0356  -30.3009   24.6191 C   0  0  0  0  0  0
  -27.6071  -32.4321   25.7517 C   0  0  0  0  0  0
  -27.5572  -37.1800   24.8471 C   0  0  0  0  0  0
  -21.4197  -29.3049   22.3659 N   0  0  0  0  0  0
  -26.4283  -37.3776   23.9415 N   0  0  0  0  0  0
  -24.6910  -31.0621   22.0983 N   0  0  0  0  0  0
  -23.4204  -28.8172   23.2996 O   0  0  0  0  0  0
  -28.2870  -26.4079   20.1694 O   0  0  0  0  0  0
  -26.5606  -34.8918   22.4655 O   0  0  0  0  0  0
  -23.5448  -32.1411   23.7357 O   0  0  0  0  0  0
  -29.9232  -18.5635   20.9416 C   0  0  0  0  0  0
  -29.2469  -19.6212   20.2641 C   0  0  0  0  0  0
  -29.6172  -17.1918   20.6417 C   0  0  0  0  0  0
  -28.0571  -17.9997   19.1414 C   0  0  0  0  0  0
  -26.9671  -17.6864   18.1386 C   0  0  0  0  0  0
  -29.1769  -15.6557   22.5712 C   0  0  0  0  0  0
  -31.4765  -16.3906   22.1989 C   0  0  0  0  0  0
  -29.6378  -21.1412   20.4013 C   0  0  0  0  0  0
  -28.5425  -22.2956   20.2804 C   0  0  0  0  0  0
  -29.0267  -23.8225   20.3911 C   0  0  0  0  0  0
  -27.9731  -24.9584   20.0289 C   0  0  0  0  0  0
  -30.1918  -15.9451   21.4454 C   0  0  0  0  0  0
  -28.3268  -19.2924   19.3373 N   0  0  0  0  0  0
  -28.6346  -16.9587   19.7439 N   0  0  0  0  0  0
  -31.4726  -12.5413   19.1520 H   0  0  0  0  0  0
  -30.3840  -11.4166   19.8777 H   0  0  0  0  0  0
  -29.7888  -11.7974   17.4744 H   0  0  0  0  0  0
  -29.6574  -13.5151   17.7519 H   0  0  0  0  0  0
  -27.8478  -11.3158   18.8033 H   0  0  0  0  0  0
  -27.3868  -12.6432   17.7701 H   0  0  0  0  0  0
  -27.6933  -14.2603   19.5607 H   0  0  0  0  0  0
  -28.7263  -11.9402   21.2338 H   0  0  0  0  0  0
  -28.3709  -13.4517   21.9025 H   0  0  0  0  0  0
  -25.2668   -9.5711   22.4848 H   0  0  0  0  0  0
  -23.9999   -7.4616   22.7454 H   0  0  0  0  0  0
  -21.0872   -8.8709   19.8910 H   0  0  0  0  0  0
  -22.3642  -10.9686   19.6201 H   0  0  0  0  0  0
  -21.1943   -7.6117   23.9738 H   0  0  0  0  0  0
  -21.1531   -6.0483   25.9113 H   0  0  0  0  0  0
  -22.0581   -2.7584   23.2883 H   0  0  0  0  0  0
  -22.4006  -11.9861   22.4666 H   0  0  0  0  0  0
  -21.1112  -13.1392   22.2597 H   0  0  0  0  0  0
  -26.3300  -15.6192   20.1830 H   0  0  0  0  0  0
  -24.6828  -15.8579   20.4995 H   0  0  0  0  0  0
  -26.7214  -32.5429   23.1117 H   0  0  0  0  0  0
  -25.0136  -33.9733   25.0459 H   0  0  0  0  0  0
  -22.7141  -31.3115   21.4100 H   0  0  0  0  0  0
  -23.3742  -35.9622   23.3309 H   0  0  0  0  0  0
  -24.3572  -36.8883   22.2050 H   0  0  0  0  0  0
  -23.7240  -37.6489   23.6652 H   0  0  0  0  0  0
  -26.1033  -31.5450   20.6099 H   0  0  0  0  0  0
  -26.8463  -30.8277   22.0083 H   0  0  0  0  0  0
  -28.1043  -28.9468   21.2090 H   0  0  0  0  0  0
  -25.9149  -25.9598   18.9572 H   0  0  0  0  0  0
  -23.9531  -27.3464   18.9797 H   0  0  0  0  0  0
  -23.7620  -30.6204   19.4092 H   0  0  0  0  0  0
  -22.7512  -29.2756   19.8472 H   0  0  0  0  0  0
  -25.1289  -36.1922   25.0821 H   0  0  0  0  0  0
  -21.0002  -28.3270   24.1384 H   0  0  0  0  0  0
  -20.5685  -26.2308   23.3598 H   0  0  0  0  0  0
  -21.6647  -26.7439   22.1190 H   0  0  0  0  0  0
  -19.6894  -25.6291   21.1239 H   0  0  0  0  0  0
  -19.6685  -27.3201   20.6743 H   0  0  0  0  0  0
  -17.4200  -26.6688   21.4032 H   0  0  0  0  0  0
  -18.0334  -26.0087   22.9031 H   0  0  0  0  0  0
  -19.7939  -30.7296   24.2247 H   0  0  0  0  0  0
  -17.5014  -31.6267   24.5179 H   0  0  0  0  0  0
  -15.5354  -30.2991   23.7664 H   0  0  0  0  0  0
  -15.8677  -28.0833   22.7054 H   0  0  0  0  0  0
  -24.5936  -30.7055   25.7803 H   0  0  0  0  0  0
  -24.8937  -32.2883   26.4891 H   0  0  0  0  0  0
  -25.8081  -30.8910   27.0240 H   0  0  0  0  0  0
  -26.2921  -29.6758   24.1222 H   0  0  0  0  0  0
  -27.4060  -29.7269   25.4699 H   0  0  0  0  0  0
  -27.8797  -30.4299   23.9414 H   0  0  0  0  0  0
  -27.2676  -33.3622   26.2095 H   0  0  0  0  0  0
  -28.3887  -32.6870   25.0349 H   0  0  0  0  0  0
  -28.0738  -31.8445   26.5432 H   0  0  0  0  0  0
  -28.2594  -38.0091   24.7508 H   0  0  0  0  0  0
  -28.1053  -36.2619   24.6305 H   0  0  0  0  0  0
  -27.2289  -37.1465   25.8873 H   0  0  0  0  0  0
  -20.9363  -29.8800   21.6902 H   0  0  0  0  0  0
  -26.0148  -38.2839   24.1431 H   0  0  0  0  0  0
  -30.6697  -18.8195   21.6787 H   0  0  0  0  0  0
  -27.1228  -18.2479   17.2179 H   0  0  0  0  0  0
  -25.9924  -17.9619   18.5428 H   0  0  0  0  0  0
  -26.9437  -16.6260   17.8845 H   0  0  0  0  0  0
  -29.1121  -16.4914   23.2664 H   0  0  0  0  0  0
  -29.4591  -14.7869   23.1655 H   0  0  0  0  0  0
  -28.1685  -15.5340   22.1768 H   0  0  0  0  0  0
  -31.9567  -15.5528   22.7072 H   0  0  0  0  0  0
  -31.2738  -17.1414   22.9632 H   0  0  0  0  0  0
  -32.2125  -16.8181   21.5173 H   0  0  0  0  0  0
  -30.4062  -21.3295   19.6522 H   0  0  0  0  0  0
  -30.1374  -21.2579   21.3631 H   0  0  0  0  0  0
  -27.7678  -22.1146   21.0254 H   0  0  0  0  0  0
  -28.0485  -22.1737   19.3169 H   0  0  0  0  0  0
  -29.8920  -23.9528   19.7410 H   0  0  0  0  0  0
  -29.3900  -23.9974   21.4044 H   0  0  0  0  0  0
  -27.0823  -24.7528   20.6246 H   0  0  0  0  0  0
  -27.6971  -24.7820   18.9895 H   0  0  0  0  0  0
  1 25  1  0  0  0
  1 30  2  0  0  0
  1 82  1  0  0  0
  2  3  1  0  0  0
  2 25  1  0  0  0
  2 85  1  0  0  0
  2 86  1  0  0  0
  3  4  1  0  0  0
  3 87  1  0  0  0
  3 88  1  0  0  0
  4  5  1  0  0  0
  4 89  1  0  0  0
  4 90  1  0  0  0
  5  6  1  0  0  0
  5 26  1  0  0  0
  5 91  1  0  0  0
  6 25  1  0  0  0
  6 92  1  0  0  0
  6 93  1  0  0  0
  7  8  2  0  0  0
  7 26  1  0  0  0
  7 29  1  0  0  0
  8  9  1  0  0  0
  8 22  1  0  0  0
  9 10  1  0  0  0
  9 27  2  0  0  0
 10 11  2  0  0  0
 10 15  1  0  0  0
 11 12  1  0  0  0
 11 94  1  0  0  0
 12 13  2  0  0  0
 12 95  1  0  0  0
 13 14  1  0  0  0
 13 31  1  0  0  0
 14 15  2  0  0  0
 14 96  1  0  0  0
 15 97  1  0  0  0
 16 17  2  0  0  0
 16 21  1  0  0  0
 16 31  1  0  0  0
 17 18  1  0  0  0
 17 98  1  0  0  0
 18 19  2  0  0  0
 18 99  1  0  0  0
 19 20  1  0  0  0
 19 24  1  0  0  0
 20 21  2  0  0  0
 20100  1  0  0  0
 21 23  1  0  0  0
 22 28  1  0  0  0
 22 32  2  0  0  0
 26 27  1  0  0  0
 28101  1  0  0  0
 28102  1  0  0  0
 29103  1  0  0  0
 29104  1  0  0  0
 33 34  1  0  0  0
 33 66  1  0  0  0
 33 70  2  0  0  0
 34 36  1  0  0  0
 34 59  1  0  0  0
 34105  1  0  0  0
 35 44  2  0  0  0
 35 45  1  0  0  0
 35 68  1  0  0  0
 36 56  1  0  0  0
 36106  1  0  0  0
 37 39  1  0  0  0
 37 47  1  0  0  0
 37 66  1  0  0  0
 37107  1  0  0  0
 38 43  2  0  0  0
 38 46  1  0  0  0
 38 47  1  0  0  0
 39 64  1  0  0  0
 39 67  2  0  0  0
 40 52  1  0  0  0
 40 53  2  0  0  0
 40 58  1  0  0  0
 41108  1  0  0  0
 41109  1  0  0  0
 41110  1  0  0  0
 41 48  1  0  0  0
 42 43  1  0  0  0
 42 66  1  0  0  0
 42111  1  0  0  0
 42112  1  0  0  0
 43 44  1  0  0  0
 44113  1  0  0  0
 45 46  2  0  0  0
 45114  1  0  0  0
 46115  1  0  0  0
 47116  1  0  0  0
 47117  1  0  0  0
 48 56  1  0  0  0
 48 65  1  0  0  0
 48118  1  0  0  0
 49 50  1  0  0  0
 49 53  1  0  0  0
 49 64  1  0  0  0
 49119  1  0  0  0
 50 51  1  0  0  0
 50120  1  0  0  0
 50121  1  0  0  0
 51 52  1  0  0  0
 51122  1  0  0  0
 51123  1  0  0  0
 52124  1  0  0  0
 52125  1  0  0  0
 53 54  1  0  0  0
 54 55  2  0  0  0
 54126  1  0  0  0
 55 57  1  0  0  0
 55127  1  0  0  0
 56 69  2  0  0  0
 57 58  2  0  0  0
 57128  1  0  0  0
 58129  1  0  0  0
 59 60  1  0  0  0
 59 61  1  0  0  0
 59 62  1  0  0  0
 60130  1  0  0  0
 60131  1  0  0  0
 60132  1  0  0  0
 61133  1  0  0  0
 61134  1  0  0  0
 61135  1  0  0  0
 62136  1  0  0  0
 62137  1  0  0  0
 62138  1  0  0  0
 63 65  1  0  0  0
 63139  1  0  0  0
 63140  1  0  0  0
 63141  1  0  0  0
 64142  1  0  0  0
 65143  1  0  0  0
 68 81  1  0  0  0
 71 72  2  0  0  0
 71 73  1  0  0  0
 71144  1  0  0  0
 72 78  1  0  0  0
 72 83  1  0  0  0
 73 82  1  0  0  0
 73 84  2  0  0  0
 74 75  1  0  0  0
 74 83  2  0  0  0
 74 84  1  0  0  0
 75145  1  0  0  0
 75146  1  0  0  0
 75147  1  0  0  0
 76148  1  0  0  0
 76149  1  0  0  0
 76150  1  0  0  0
 76 82  1  0  0  0
 77 82  1  0  0  0
 77151  1  0  0  0
 77152  1  0  0  0
 77153  1  0  0  0
 78 79  1  0  0  0
 78154  1  0  0  0
 78155  1  0  0  0
 79 80  1  0  0  0
 79156  1  0  0  0
 79157  1  0  0  0
 80 81  1  0  0  0
 80158  1  0  0  0
 80159  1  0  0  0
 81160  1  0  0  0
 81161  1  0  0  0
M  ISO  4   1 100  68 101  81 101  82 100
M  END
> <chiral flag>
0

> <version>
0

> <s_m_source_file>
/data/baiqing/PycharmProjects/Reinvent-master-3.2/result/LINK_invent/BTK/process_docking_weight1_custom_sum_contain_oxygen_bond_distance_aromatic_linkinvent_7_9_3/rearranged_h_0078.sdf

> <i_m_source_file_index>
31

> <r_mmod_Potential_Energy-OPLS-2005>
-217.572814941406

> <r_mmod_Stretch_Energy-OPLS-2005>
100.188468933105

> <r_mmod_Bend_Energy-OPLS-2005>
174.772720336914

> <r_mmod_Torsional_Energy-OPLS-2005>
174.304534912109

> <r_mmod_Improper_Torsional_Energy-OPLS-2005>
3.07739353179932

> <r_mmod_Van_der_Waal_Energy-OPLS-2005>
164.950744628906

> <r_mmod_Electrostatic_Energy-OPLS-2005>
-688.765014648438

> <r_mmod_Solvation_Energy-OPLS-2005>
-198.225463867188

> <b_mmod_Minimization_Converged-OPLS-2005>
0

> <r_mmod_RMS_Derivative-OPLS-2005>
2.60523343086243

$$$$
31
                    3D
 Structure written by MMmdl.
170178  0  0  1  0            999 V2000
  -30.6860  -14.5774   20.5402 C   0  0  0  0  0  0
  -30.4248  -12.3691   19.4393 C   0  0  0  0  0  0
  -29.4977  -12.5041   18.2140 C   0  0  0  0  0  0
  -28.0214  -12.3519   18.6295 C   0  0  0  0  0  0
  -27.6521  -13.2206   19.8622 C   0  0  2  0  0  0
  -28.6979  -13.0726   20.9892 C   0  0  0  0  0  0
  -25.2549  -13.8186   20.5689 C   0  0  0  0  0  0
  -24.1820  -13.0444   20.9194 C   0  0  0  0  0  0
  -24.6392  -11.6916   20.8741 C   0  0  0  0  0  0
  -23.9065  -10.4297   21.0402 C   0  0  0  0  0  0
  -24.3617   -9.4210   21.9182 C   0  0  0  0  0  0
  -23.6292   -8.2245   22.0752 C   0  0  0  0  0  0
  -22.4273   -8.0282   21.3543 C   0  0  0  0  0  0
  -21.9909   -9.0254   20.4646 C   0  0  0  0  0  0
  -22.7236  -10.2135   20.3054 C   0  0  0  0  0  0
  -21.6855   -6.0735   22.5278 C   0  0  0  0  0  0
  -21.4012   -6.5639   23.8212 C   0  0  0  0  0  0
  -21.3660   -5.6791   24.9173 C   0  0  0  0  0  0
  -21.6046   -4.3053   24.7224 C   0  0  0  0  0  0
  -21.8820   -3.8145   23.4345 C   0  0  0  0  0  0
  -21.9192   -4.6963   22.3400 C   0  0  0  0  0  0
  -22.7840  -13.5233   21.1858 C   0  0  0  0  0  0
  -22.1661   -4.2147   21.0979 F   0  0  0  0  0  0
  -21.5631   -3.4538   25.7737 F   0  0  0  0  0  0
  -30.0142  -13.3932   20.4184 N   0  0  0  0  0  0
  -26.2983  -12.9378   20.3328 N   0  0  0  0  0  0
  -25.9323  -11.6527   20.5763 N   0  0  0  0  0  0
  -22.0485  -12.8219   22.0412 N   0  0  0  0  0  0
  -25.4258  -15.1905   20.4104 N   0  0  0  0  0  0
  -31.8456  -14.7043   20.1405 O   0  0  0  0  0  0
  -21.6641   -6.8877   21.4238 O   0  0  0  0  0  0
  -22.3522  -14.5536   20.6706 O   0  0  0  0  0  0
  -24.6237  -31.8632   23.2065 C   0  0  0  0  0  0
  -25.9093  -32.4796   23.8378 C   0  0  1  0  0  0
  -27.2182  -27.3447   20.0996 C   0  0  0  0  0  0
  -25.5923  -33.8599   24.2296 N   0  0  0  0  0  0
  -23.4152  -30.4912   21.5494 C   0  0  2  0  0  0
  -24.8581  -28.9566   20.1100 C   0  0  0  0  0  0
  -22.7460  -29.4647   22.4944 C   0  0  0  0  0  0
  -18.0284  -28.1381   22.8496 C   0  0  0  0  0  0
  -24.1487  -36.7299   23.2638 C   0  0  0  0  0  0
  -25.9564  -30.8010   21.3754 C   0  0  0  0  0  0
  -26.0283  -29.4324   20.7144 C   0  0  0  0  0  0
  -27.2107  -28.6370   20.7040 C   0  0  0  0  0  0
  -26.0195  -26.9233   19.4705 C   0  0  0  0  0  0
  -24.8539  -27.7051   19.4823 C   0  0  0  0  0  0
  -23.6269  -29.8340   20.1621 C   0  0  0  0  0  0
  -25.4111  -36.3095   24.0336 C   0  0  1  0  0  0
  -20.5887  -28.3680   23.1288 C   0  0  2  0  0  0
  -20.6775  -26.9406   22.5409 C   0  0  0  0  0  0
  -19.5749  -26.6384   21.5214 C   0  0  0  0  0  0
  -18.1928  -26.7927   22.1627 C   0  0  0  0  0  0
  -19.1539  -28.8847   23.2891 C   0  0  0  0  0  0
  -18.9465  -30.1451   23.8900 C   0  0  0  0  0  0
  -17.6466  -30.6586   24.0566 C   0  0  0  0  0  0
  -25.9050  -34.9465   23.5114 C   0  0  0  0  0  0
  -16.5355  -29.9090   23.6327 C   0  0  0  0  0  0
  -16.7272  -28.6507   23.0352 C   0  0  0  0  0  0
  -26.4489  -31.6594   25.0731 C   0  0  0  0  0  0
  -25.3734  -31.3736   26.1467 C   0  0  0  0  0  0
  -27.0314  -30.3017   24.6163 C   0  0  0  0  0  0
  -27.6052  -32.4323   25.7497 C   0  0  0  0  0  0
  -27.5579  -37.1807   24.8465 C   0  0  0  0  0  0
  -21.4178  -29.3043   22.3683 N   0  0  0  0  0  0
  -26.4288  -37.3786   23.9413 N   0  0  0  0  0  0
  -24.6843  -31.0670   22.1008 N   0  0  0  0  0  0
  -23.4204  -28.8178   23.3003 O   0  0  0  0  0  0
  -28.3421  -26.5047   20.1465 O   0  0  0  0  0  0
  -26.5612  -34.8927   22.4676 O   0  0  0  0  0  0
  -23.5406  -32.1414   23.7410 O   0  0  0  0  0  0
  -29.0888  -22.9733   17.7371 C   0  0  0  0  0  0
  -28.8340  -21.9444   16.8219 C   0  0  0  0  0  0
  -29.0839  -22.7205   19.1276 C   0  0  0  0  0  0
  -28.5736  -20.6612   17.3126 C   0  0  0  0  0  0
  -28.9223  -21.3389   19.5317 C   0  0  0  0  0  0
  -26.7456  -19.0657   16.5925 C   0  0  0  0  0  0
  -29.1894  -18.3541   16.4293 C   0  0  0  0  0  0
  -27.7617  -21.3019   21.7717 C   0  0  0  0  0  0
  -29.2501  -23.9943   20.0185 C   0  0  0  0  0  0
  -30.1642  -18.2894   20.5935 C   0  0  0  0  0  0
  -29.0130  -19.1895   21.1743 C   0  0  0  0  0  0
  -30.5521  -16.9814   21.3977 C   0  0  0  0  0  0
  -28.1396  -25.0973   19.7704 C   0  0  0  0  0  0
  -28.1951  -19.5244   16.3684 C   0  0  0  0  0  0
  -28.9748  -20.7803   20.9778 C   0  0  1  0  0  0
  -28.6189  -20.3796   18.6280 N   0  0  0  0  0  0
  -29.9878  -15.6557   20.9961 N   0  0  0  0  0  0
  -31.4675  -12.4753   19.1347 H   0  0  0  0  0  0
  -30.3431  -11.3737   19.8782 H   0  0  0  0  0  0
  -29.7533  -11.7550   17.4634 H   0  0  0  0  0  0
  -29.6488  -13.4759   17.7412 H   0  0  0  0  0  0
  -27.8502  -11.2990   18.8553 H   0  0  0  0  0  0
  -27.3667  -12.5915   17.7907 H   0  0  0  0  0  0
  -27.6735  -14.2579   19.5273 H   0  0  0  0  0  0
  -28.6997  -12.0541   21.3798 H   0  0  0  0  0  0
  -28.4527  -13.7162   21.8352 H   0  0  0  0  0  0
  -25.2762   -9.5688   22.4755 H   0  0  0  0  0  0
  -24.0004   -7.4635   22.7469 H   0  0  0  0  0  0
  -21.0842   -8.8771   19.8951 H   0  0  0  0  0  0
  -22.3693  -10.9672   19.6163 H   0  0  0  0  0  0
  -21.2002   -7.6146   23.9713 H   0  0  0  0  0  0
  -21.1483   -6.0522   25.9077 H   0  0  0  0  0  0
  -22.0598   -2.7607   23.2845 H   0  0  0  0  0  0
  -22.4101  -11.9882   22.4802 H   0  0  0  0  0  0
  -21.1099  -13.1240   22.2615 H   0  0  0  0  0  0
  -24.6596  -15.8458   20.5197 H   0  0  0  0  0  0
  -26.2770  -15.6295   20.0828 H   0  0  0  0  0  0
  -26.7162  -32.5467   23.1131 H   0  0  0  0  0  0
  -25.0079  -33.9755   25.0447 H   0  0  0  0  0  0
  -22.7080  -31.3118   21.4116 H   0  0  0  0  0  0
  -23.3751  -35.9629   23.3306 H   0  0  0  0  0  0
  -24.3582  -36.8903   22.2050 H   0  0  0  0  0  0
  -23.7238  -37.6506   23.6651 H   0  0  0  0  0  0
  -26.0872  -31.5676   20.6104 H   0  0  0  0  0  0
  -26.8385  -30.8460   22.0021 H   0  0  0  0  0  0
  -28.1079  -28.9988   21.1864 H   0  0  0  0  0  0
  -25.9367  -25.9746   18.9637 H   0  0  0  0  0  0
  -23.9569  -27.3355   19.0039 H   0  0  0  0  0  0
  -23.7450  -30.6139   19.4089 H   0  0  0  0  0  0
  -22.7465  -29.2641   19.8586 H   0  0  0  0  0  0
  -25.1290  -36.1953   25.0830 H   0  0  0  0  0  0
  -20.9988  -28.3247   24.1406 H   0  0  0  0  0  0
  -20.5670  -26.2292   23.3608 H   0  0  0  0  0  0
  -21.6645  -26.7434   22.1204 H   0  0  0  0  0  0
  -19.6911  -25.6298   21.1234 H   0  0  0  0  0  0
  -19.6687  -27.3201   20.6752 H   0  0  0  0  0  0
  -17.4201  -26.6679   21.4025 H   0  0  0  0  0  0
  -18.0324  -26.0064   22.9020 H   0  0  0  0  0  0
  -19.7943  -30.7269   24.2264 H   0  0  0  0  0  0
  -17.5024  -31.6264   24.5170 H   0  0  0  0  0  0
  -15.5357  -30.3000   23.7649 H   0  0  0  0  0  0
  -15.8670  -28.0833   22.7060 H   0  0  0  0  0  0
  -24.5920  -30.7062   25.7817 H   0  0  0  0  0  0
  -24.8913  -32.2902   26.4873 H   0  0  0  0  0  0
  -25.8072  -30.8946   27.0251 H   0  0  0  0  0  0
  -26.2875  -29.6789   24.1178 H   0  0  0  0  0  0
  -27.4009  -29.7250   25.4652 H   0  0  0  0  0  0
  -27.8755  -30.4305   23.9381 H   0  0  0  0  0  0
  -27.2663  -33.3625   26.2072 H   0  0  0  0  0  0
  -28.3863  -32.6876   25.0324 H   0  0  0  0  0  0
  -28.0719  -31.8448   26.5412 H   0  0  0  0  0  0
  -28.2603  -38.0098   24.7503 H   0  0  0  0  0  0
  -28.1066  -36.2630   24.6296 H   0  0  0  0  0  0
  -27.2300  -37.1456   25.8868 H   0  0  0  0  0  0
  -20.9334  -29.8785   21.6920 H   0  0  0  0  0  0
  -26.0172  -38.2861   24.1416 H   0  0  0  0  0  0
  -29.2606  -23.9705   17.3579 H   0  0  0  0  0  0
  -28.8067  -22.1515   15.7608 H   0  0  0  0  0  0
  -26.0532  -19.8996   16.4734 H   0  0  0  0  0  0
  -26.6090  -18.6633   17.5967 H   0  0  0  0  0  0
  -26.4609  -18.2923   15.8795 H   0  0  0  0  0  0
  -30.2083  -18.6957   16.2451 H   0  0  0  0  0  0
  -28.9520  -17.5984   15.6805 H   0  0  0  0  0  0
  -29.1700  -17.8686   17.4041 H   0  0  0  0  0  0
  -27.6998  -22.3878   21.7692 H   0  0  0  0  0  0
  -27.8023  -20.9854   22.8140 H   0  0  0  0  0  0
  -26.8314  -20.9258   21.3456 H   0  0  0  0  0  0
  -30.2216  -24.4251   19.7746 H   0  0  0  0  0  0
  -29.3079  -23.7364   21.0746 H   0  0  0  0  0  0
  -31.0565  -18.9166   20.5740 H   0  0  0  0  0  0
  -29.9734  -18.0491   19.5487 H   0  0  0  0  0  0
  -29.0060  -19.0216   22.2515 H   0  0  0  0  0  0
  -28.0680  -18.7720   20.8246 H   0  0  0  0  0  0
  -30.3260  -17.1262   22.4545 H   0  0  0  0  0  0
  -31.6407  -16.9038   21.3729 H   0  0  0  0  0  0
  -27.2346  -24.7194   20.2486 H   0  0  0  0  0  0
  -27.9334  -25.1300   18.7019 H   0  0  0  0  0  0
  -28.2462  -19.9205   15.3532 H   0  0  0  0  0  0
  -29.8792  -21.1897   21.4298 H   0  0  0  0  0  0
  -29.0202  -15.4869   21.2281 H   0  0  0  0  0  0
  1 25  1  0  0  0
  1 30  2  0  0  0
  1 87  1  0  0  0
  2  3  1  0  0  0
  2 25  1  0  0  0
  2 88  1  0  0  0
  2 89  1  0  0  0
  3  4  1  0  0  0
  3 90  1  0  0  0
  3 91  1  0  0  0
  4  5  1  0  0  0
  4 92  1  0  0  0
  4 93  1  0  0  0
  5  6  1  0  0  0
  5 26  1  0  0  0
  5 94  1  0  0  0
  6 25  1  0  0  0
  6 95  1  0  0  0
  6 96  1  0  0  0
  7  8  2  0  0  0
  7 26  1  0  0  0
  7 29  1  0  0  0
  8  9  1  0  0  0
  8 22  1  0  0  0
  9 10  1  0  0  0
  9 27  2  0  0  0
 10 11  2  0  0  0
 10 15  1  0  0  0
 11 12  1  0  0  0
 11 97  1  0  0  0
 12 13  2  0  0  0
 12 98  1  0  0  0
 13 14  1  0  0  0
 13 31  1  0  0  0
 14 15  2  0  0  0
 14 99  1  0  0  0
 15100  1  0  0  0
 16 17  2  0  0  0
 16 21  1  0  0  0
 16 31  1  0  0  0
 17 18  1  0  0  0
 17101  1  0  0  0
 18 19  2  0  0  0
 18102  1  0  0  0
 19 20  1  0  0  0
 19 24  1  0  0  0
 20 21  2  0  0  0
 20103  1  0  0  0
 21 23  1  0  0  0
 22 28  1  0  0  0
 22 32  2  0  0  0
 26 27  1  0  0  0
 28104  1  0  0  0
 28105  1  0  0  0
 29106  1  0  0  0
 29107  1  0  0  0
 33 34  1  0  0  0
 33 66  1  0  0  0
 33 70  2  0  0  0
 34 36  1  0  0  0
 34 59  1  0  0  0
 34108  1  0  0  0
 35 44  2  0  0  0
 35 45  1  0  0  0
 35 68  1  0  0  0
 36 56  1  0  0  0
 36109  1  0  0  0
 37 39  1  0  0  0
 37 47  1  0  0  0
 37 66  1  0  0  0
 37110  1  0  0  0
 38 43  2  0  0  0
 38 46  1  0  0  0
 38 47  1  0  0  0
 39 64  1  0  0  0
 39 67  2  0  0  0
 40 52  1  0  0  0
 40 53  2  0  0  0
 40 58  1  0  0  0
 41111  1  0  0  0
 41112  1  0  0  0
 41113  1  0  0  0
 41 48  1  0  0  0
 42 43  1  0  0  0
 42 66  1  0  0  0
 42114  1  0  0  0
 42115  1  0  0  0
 43 44  1  0  0  0
 44116  1  0  0  0
 45 46  2  0  0  0
 45117  1  0  0  0
 46118  1  0  0  0
 47119  1  0  0  0
 47120  1  0  0  0
 48 56  1  0  0  0
 48 65  1  0  0  0
 48121  1  0  0  0
 49 50  1  0  0  0
 49 53  1  0  0  0
 49 64  1  0  0  0
 49122  1  0  0  0
 50 51  1  0  0  0
 50123  1  0  0  0
 50124  1  0  0  0
 51 52  1  0  0  0
 51125  1  0  0  0
 51126  1  0  0  0
 52127  1  0  0  0
 52128  1  0  0  0
 53 54  1  0  0  0
 54 55  2  0  0  0
 54129  1  0  0  0
 55 57  1  0  0  0
 55130  1  0  0  0
 56 69  2  0  0  0
 57 58  2  0  0  0
 57131  1  0  0  0
 58132  1  0  0  0
 59 60  1  0  0  0
 59 61  1  0  0  0
 59 62  1  0  0  0
 60133  1  0  0  0
 60134  1  0  0  0
 60135  1  0  0  0
 61136  1  0  0  0
 61137  1  0  0  0
 61138  1  0  0  0
 62139  1  0  0  0
 62140  1  0  0  0
 62141  1  0  0  0
 63 65  1  0  0  0
 63142  1  0  0  0
 63143  1  0  0  0
 63144  1  0  0  0
 64145  1  0  0  0
 65146  1  0  0  0
 68 83  1  0  0  0
 71 72  2  0  0  0
 71 73  1  0  0  0
 71147  1  0  0  0
 72 74  1  0  0  0
 72148  1  0  0  0
 73 75  2  0  0  0
 73 79  1  0  0  0
 74 84  1  0  0  0
 74 86  2  0  0  0
 75 85  1  0  0  0
 75 86  1  0  0  0
 76149  1  0  0  0
 76150  1  0  0  0
 76151  1  0  0  0
 76 84  1  0  0  0
 77 84  1  0  0  0
 77152  1  0  0  0
 77153  1  0  0  0
 77154  1  0  0  0
 78155  1  0  0  0
 78156  1  0  0  0
 78157  1  0  0  0
 78 85  1  0  0  0
 79 83  1  0  0  0
 79158  1  0  0  0
 79159  1  0  0  0
 80 81  1  0  0  0
 80 82  1  0  0  0
 80160  1  0  0  0
 80161  1  0  0  0
 81 85  1  0  0  0
 81162  1  0  0  0
 81163  1  0  0  0
 82 87  1  0  0  0
 82164  1  0  0  0
 82165  1  0  0  0
 83166  1  0  0  0
 83167  1  0  0  0
 84168  1  0  0  0
 85169  1  0  0  0
 87170  1  0  0  0
M  ISO  4   1 100  68 101  83 101  87 100
M  END
> <chiral flag>
0

> <version>
0

> <s_m_source_file>
/data/baiqing/PycharmProjects/Reinvent-master-3.2/result/LINK_invent/BTK/process_docking_weight1_custom_sum_contain_oxygen_bond_distance_aromatic_linkinvent_7_9_3/rearranged_h_0078.sdf

> <i_m_source_file_index>
32

> <r_mmod_Potential_Energy-OPLS-2005>
-151.852966308594

> <r_mmod_Stretch_Energy-OPLS-2005>
72.5741500854492

> <r_mmod_Bend_Energy-OPLS-2005>
155.743942260742

> <r_mmod_Torsional_Energy-OPLS-2005>
208.551864624023

> <r_mmod_Improper_Torsional_Energy-OPLS-2005>
3.2190728187561

> <r_mmod_Van_der_Waal_Energy-OPLS-2005>
154.595001220703

> <r_mmod_Electrostatic_Energy-OPLS-2005>
-575.9453125

> <r_mmod_Solvation_Energy-OPLS-2005>
-206.704437255859

> <b_mmod_Minimization_Converged-OPLS-2005>
0

> <r_mmod_RMS_Derivative-OPLS-2005>
0.711993813514709

$$$$
32
                    3D
 Structure written by MMmdl.
174182  0  0  1  0            999 V2000
  -30.7080  -14.4061   20.6257 C   0  0  0  0  0  0
  -30.4219  -12.2880   19.3912 C   0  0  0  0  0  0
  -29.4834  -12.5098   18.1887 C   0  0  0  0  0  0
  -28.0069  -12.3685   18.6081 C   0  0  0  0  0  0
  -27.6623  -13.1943   19.8760 C   0  0  2  0  0  0
  -28.7017  -12.9274   20.9853 C   0  0  0  0  0  0
  -25.2609  -13.8141   20.5672 C   0  0  0  0  0  0
  -24.1835  -13.0423   20.9168 C   0  0  0  0  0  0
  -24.6377  -11.6898   20.8735 C   0  0  0  0  0  0
  -23.9029  -10.4287   21.0413 C   0  0  0  0  0  0
  -24.3590   -9.4207   21.9185 C   0  0  0  0  0  0
  -23.6276   -8.2236   22.0753 C   0  0  0  0  0  0
  -22.4260   -8.0277   21.3549 C   0  0  0  0  0  0
  -21.9887   -9.0242   20.4645 C   0  0  0  0  0  0
  -22.7204  -10.2127   20.3060 C   0  0  0  0  0  0
  -21.6850   -6.0725   22.5278 C   0  0  0  0  0  0
  -21.4008   -6.5635   23.8210 C   0  0  0  0  0  0
  -21.3662   -5.6794   24.9176 C   0  0  0  0  0  0
  -21.6043   -4.3055   24.7228 C   0  0  0  0  0  0
  -21.8820   -3.8142   23.4356 C   0  0  0  0  0  0
  -21.9190   -4.6953   22.3409 C   0  0  0  0  0  0
  -22.7869  -13.5257   21.1834 C   0  0  0  0  0  0
  -22.1660   -4.2145   21.0984 F   0  0  0  0  0  0
  -21.5629   -3.4539   25.7739 F   0  0  0  0  0  0
  -30.0345  -13.2433   20.4384 N   0  0  0  0  0  0
  -26.3023  -12.9280   20.3371 N   0  0  0  0  0  0
  -25.9293  -11.6454   20.5744 N   0  0  0  0  0  0
  -22.0496  -12.8260   22.0396 N   0  0  0  0  0  0
  -25.4369  -15.1841   20.4083 N   0  0  0  0  0  0
  -31.8045  -14.6501   20.1129 O   0  0  0  0  0  0
  -21.6638   -6.8871   21.4243 O   0  0  0  0  0  0
  -22.3567  -14.5566   20.6685 O   0  0  0  0  0  0
  -24.6163  -31.8704   23.2084 C   0  0  0  0  0  0
  -25.9079  -32.4796   23.8395 C   0  0  1  0  0  0
  -27.2367  -27.4571   20.0642 C   0  0  0  0  0  0
  -25.5959  -33.8617   24.2334 N   0  0  0  0  0  0
  -23.4037  -30.4928   21.5477 C   0  0  2  0  0  0
  -24.8476  -28.9614   20.1132 C   0  0  0  0  0  0
  -22.7412  -29.4673   22.4974 C   0  0  0  0  0  0
  -18.0274  -28.1418   22.8476 C   0  0  0  0  0  0
  -24.1489  -36.7287   23.2624 C   0  0  0  0  0  0
  -25.9344  -30.8246   21.3788 C   0  0  0  0  0  0
  -26.0032  -29.4678   20.7170 C   0  0  0  0  0  0
  -27.1958  -28.7147   20.7060 C   0  0  0  0  0  0
  -26.0595  -26.9607   19.4602 C   0  0  0  0  0  0
  -24.8664  -27.7055   19.4875 C   0  0  0  0  0  0
  -23.6138  -29.8270   20.1623 C   0  0  0  0  0  0
  -25.4118  -36.3100   24.0318 C   0  0  1  0  0  0
  -20.5867  -28.3696   23.1291 C   0  0  2  0  0  0
  -20.6768  -26.9430   22.5393 C   0  0  0  0  0  0
  -19.5754  -26.6405   21.5187 C   0  0  0  0  0  0
  -18.1940  -26.7961   22.1609 C   0  0  0  0  0  0
  -19.1529  -28.8870   23.2874 C   0  0  0  0  0  0
  -18.9467  -30.1480   23.8889 C   0  0  0  0  0  0
  -17.6480  -30.6613   24.0587 C   0  0  0  0  0  0
  -25.9054  -34.9457   23.5131 C   0  0  0  0  0  0
  -16.5364  -29.9124   23.6350 C   0  0  0  0  0  0
  -16.7269  -28.6540   23.0351 C   0  0  0  0  0  0
  -26.4490  -31.6625   25.0783 C   0  0  0  0  0  0
  -25.3724  -31.3838   26.1535 C   0  0  0  0  0  0
  -27.0333  -30.3029   24.6278 C   0  0  0  0  0  0
  -27.6064  -32.4352   25.7546 C   0  0  0  0  0  0
  -27.5576  -37.1781   24.8459 C   0  0  0  0  0  0
  -21.4134  -29.3047   22.3681 N   0  0  0  0  0  0
  -26.4294  -37.3780   23.9403 N   0  0  0  0  0  0
  -24.6671  -31.0806   22.0994 N   0  0  0  0  0  0
  -23.4161  -28.8229   23.3054 O   0  0  0  0  0  0
  -28.4260  -26.7611   20.0803 O   0  0  0  0  0  0
  -26.5580  -34.8911   22.4666 O   0  0  0  0  0  0
  -23.5347  -32.1462   23.7441 O   0  0  0  0  0  0
  -29.1834  -21.9737   21.6314 C   0  0  0  0  0  0
  -29.7989  -21.8196   20.3661 C   0  0  0  0  0  0
  -28.7324  -20.7292   21.9798 C   0  0  0  0  0  0
  -31.5873  -22.5592   18.7218 C   0  0  0  0  0  0
  -27.6782  -21.6033   24.0957 C   0  0  0  0  0  0
  -28.6154  -19.3262   24.0834 C   0  0  0  0  0  0
  -26.5062  -19.8813   22.7659 C   0  0  0  0  0  0
  -28.2419  -24.4412   19.1956 C   0  0  0  0  0  0
  -29.1549  -23.3907   18.5310 C   0  0  0  0  0  0
  -30.4846  -17.7507   20.9116 C   0  0  0  0  0  0
  -29.0834  -18.4099   20.8149 C   0  0  0  0  0  0
  -30.6158  -16.5613   21.8890 C   0  0  0  0  0  0
  -28.7512  -25.8850   19.0017 C   0  0  0  0  0  0
  -30.2896  -22.9262   19.4641 C   0  0  1  0  0  0
  -27.9045  -20.3654   23.1991 C   0  0  0  0  0  0
  -29.7612  -20.5598   19.9633 N   0  0  0  0  0  0
  -29.1640  -19.8666   20.9662 N   0  0  0  0  0  0
  -30.0643  -15.3072   21.3826 N   0  0  0  0  0  0
  -31.4652  -12.4013   19.0881 H   0  0  0  0  0  0
  -30.3298  -11.2679   19.7663 H   0  0  0  0  0  0
  -29.7165  -11.7993   17.3949 H   0  0  0  0  0  0
  -29.6528  -13.5029   17.7688 H   0  0  0  0  0  0
  -27.8174  -11.3104   18.7962 H   0  0  0  0  0  0
  -27.3519  -12.6501   17.7844 H   0  0  0  0  0  0
  -27.7229  -14.2470   19.6025 H   0  0  0  0  0  0
  -28.6759  -11.8770   21.2786 H   0  0  0  0  0  0
  -28.4584  -13.4786   21.8940 H   0  0  0  0  0  0
  -25.2732   -9.5693   22.4758 H   0  0  0  0  0  0
  -23.9987   -7.4638   22.7479 H   0  0  0  0  0  0
  -21.0812   -8.8754   19.8965 H   0  0  0  0  0  0
  -22.3650  -10.9664   19.6172 H   0  0  0  0  0  0
  -21.2002   -7.6141   23.9714 H   0  0  0  0  0  0
  -21.1482   -6.0522   25.9079 H   0  0  0  0  0  0
  -22.0599   -2.7605   23.2853 H   0  0  0  0  0  0
  -22.4084  -11.9911   22.4782 H   0  0  0  0  0  0
  -21.1128  -13.1321   22.2602 H   0  0  0  0  0  0
  -24.6755  -15.8450   20.5200 H   0  0  0  0  0  0
  -26.2926  -15.6176   20.0833 H   0  0  0  0  0  0
  -26.7176  -32.5469   23.1171 H   0  0  0  0  0  0
  -25.0230  -33.9834   25.0557 H   0  0  0  0  0  0
  -22.6939  -31.3079   21.4000 H   0  0  0  0  0  0
  -23.3743  -35.9621   23.3320 H   0  0  0  0  0  0
  -24.3579  -36.8866   22.2033 H   0  0  0  0  0  0
  -23.7227  -37.6495   23.6617 H   0  0  0  0  0  0
  -26.0816  -31.5963   20.6238 H   0  0  0  0  0  0
  -26.8087  -30.8486   22.0164 H   0  0  0  0  0  0
  -28.0911  -29.1005   21.1731 H   0  0  0  0  0  0
  -26.0299  -26.0058   18.9642 H   0  0  0  0  0  0
  -23.9734  -27.3162   19.0206 H   0  0  0  0  0  0
  -23.7291  -30.5974   19.3979 H   0  0  0  0  0  0
  -22.7404  -29.2459   19.8667 H   0  0  0  0  0  0
  -25.1264  -36.1972   25.0797 H   0  0  0  0  0  0
  -20.9915  -28.3269   24.1422 H   0  0  0  0  0  0
  -20.5676  -26.2299   23.3561 H   0  0  0  0  0  0
  -21.6647  -26.7494   22.1182 H   0  0  0  0  0  0
  -19.6924  -25.6294   21.1247 H   0  0  0  0  0  0
  -19.6733  -27.3192   20.6695 H   0  0  0  0  0  0
  -17.4186  -26.6689   21.4034 H   0  0  0  0  0  0
  -18.0386  -26.0112   22.9027 H   0  0  0  0  0  0
  -19.7964  -30.7293   24.2230 H   0  0  0  0  0  0
  -17.5065  -31.6287   24.5205 H   0  0  0  0  0  0
  -15.5378  -30.3053   23.7675 H   0  0  0  0  0  0
  -15.8667  -28.0880   22.7072 H   0  0  0  0  0  0
  -24.5893  -30.7183   25.7920 H   0  0  0  0  0  0
  -24.8941  -32.3056   26.4867 H   0  0  0  0  0  0
  -25.8056  -30.9115   27.0371 H   0  0  0  0  0  0
  -26.2972  -29.6809   24.1196 H   0  0  0  0  0  0
  -27.3894  -29.7272   25.4838 H   0  0  0  0  0  0
  -27.8882  -30.4293   23.9628 H   0  0  0  0  0  0
  -27.2685  -33.3639   26.2154 H   0  0  0  0  0  0
  -28.3859  -32.6945   25.0373 H   0  0  0  0  0  0
  -28.0759  -31.8480   26.5447 H   0  0  0  0  0  0
  -28.2592  -38.0082   24.7520 H   0  0  0  0  0  0
  -28.1084  -36.2621   24.6271 H   0  0  0  0  0  0
  -27.2312  -37.1394   25.8868 H   0  0  0  0  0  0
  -20.9302  -29.8747   21.6866 H   0  0  0  0  0  0
  -26.0185  -38.2837   24.1469 H   0  0  0  0  0  0
  -29.0355  -22.8949   22.1753 H   0  0  0  0  0  0
  -32.3789  -22.3186   19.4333 H   0  0  0  0  0  0
  -31.9354  -23.3925   18.1114 H   0  0  0  0  0  0
  -31.4523  -21.6984   18.0663 H   0  0  0  0  0  0
  -28.6215  -22.0147   24.4588 H   0  0  0  0  0  0
  -27.0758  -21.3600   24.9734 H   0  0  0  0  0  0
  -27.1546  -22.3992   23.5640 H   0  0  0  0  0  0
  -29.6039  -19.6837   24.3739 H   0  0  0  0  0  0
  -28.7480  -18.3676   23.5954 H   0  0  0  0  0  0
  -28.0545  -19.1316   24.9995 H   0  0  0  0  0  0
  -25.9912  -20.6594   22.1982 H   0  0  0  0  0  0
  -25.8770  -19.6430   23.6257 H   0  0  0  0  0  0
  -26.5395  -18.9966   22.1333 H   0  0  0  0  0  0
  -27.2509  -24.3335   18.7662 H   0  0  0  0  0  0
  -28.1291  -24.2246   20.2571 H   0  0  0  0  0  0
  -29.5556  -23.8167   17.6094 H   0  0  0  0  0  0
  -28.5645  -22.5248   18.2281 H   0  0  0  0  0  0
  -31.2038  -18.5024   21.2429 H   0  0  0  0  0  0
  -30.8245  -17.4629   19.9154 H   0  0  0  0  0  0
  -28.3968  -17.9840   21.5405 H   0  0  0  0  0  0
  -28.6411  -18.1861   19.8424 H   0  0  0  0  0  0
  -30.1291  -16.7911   22.8359 H   0  0  0  0  0  0
  -31.6687  -16.4113   22.1341 H   0  0  0  0  0  0
  -29.8423  -25.8770   18.9675 H   0  0  0  0  0  0
  -28.4358  -26.2926   18.0422 H   0  0  0  0  0  0
  -30.5566  -23.7749   20.0966 H   0  0  0  0  0  0
  -29.1519  -15.0323   21.7179 H   0  0  0  0  0  0
  1 25  1  0  0  0
  1 30  2  0  0  0
  1 88  1  0  0  0
  2  3  1  0  0  0
  2 25  1  0  0  0
  2 89  1  0  0  0
  2 90  1  0  0  0
  3  4  1  0  0  0
  3 91  1  0  0  0
  3 92  1  0  0  0
  4  5  1  0  0  0
  4 93  1  0  0  0
  4 94  1  0  0  0
  5  6  1  0  0  0
  5 26  1  0  0  0
  5 95  1  0  0  0
  6 25  1  0  0  0
  6 96  1  0  0  0
  6 97  1  0  0  0
  7  8  2  0  0  0
  7 26  1  0  0  0
  7 29  1  0  0  0
  8  9  1  0  0  0
  8 22  1  0  0  0
  9 10  1  0  0  0
  9 27  2  0  0  0
 10 11  2  0  0  0
 10 15  1  0  0  0
 11 12  1  0  0  0
 11 98  1  0  0  0
 12 13  2  0  0  0
 12 99  1  0  0  0
 13 14  1  0  0  0
 13 31  1  0  0  0
 14 15  2  0  0  0
 14100  1  0  0  0
 15101  1  0  0  0
 16 17  2  0  0  0
 16 21  1  0  0  0
 16 31  1  0  0  0
 17 18  1  0  0  0
 17102  1  0  0  0
 18 19  2  0  0  0
 18103  1  0  0  0
 19 20  1  0  0  0
 19 24  1  0  0  0
 20 21  2  0  0  0
 20104  1  0  0  0
 21 23  1  0  0  0
 22 28  1  0  0  0
 22 32  2  0  0  0
 26 27  1  0  0  0
 28105  1  0  0  0
 28106  1  0  0  0
 29107  1  0  0  0
 29108  1  0  0  0
 33 34  1  0  0  0
 33 66  1  0  0  0
 33 70  2  0  0  0
 34 36  1  0  0  0
 34 59  1  0  0  0
 34109  1  0  0  0
 35 44  2  0  0  0
 35 45  1  0  0  0
 35 68  1  0  0  0
 36 56  1  0  0  0
 36110  1  0  0  0
 37 39  1  0  0  0
 37 47  1  0  0  0
 37 66  1  0  0  0
 37111  1  0  0  0
 38 43  2  0  0  0
 38 46  1  0  0  0
 38 47  1  0  0  0
 39 64  1  0  0  0
 39 67  2  0  0  0
 40 52  1  0  0  0
 40 53  2  0  0  0
 40 58  1  0  0  0
 41112  1  0  0  0
 41113  1  0  0  0
 41114  1  0  0  0
 41 48  1  0  0  0
 42 43  1  0  0  0
 42 66  1  0  0  0
 42115  1  0  0  0
 42116  1  0  0  0
 43 44  1  0  0  0
 44117  1  0  0  0
 45 46  2  0  0  0
 45118  1  0  0  0
 46119  1  0  0  0
 47120  1  0  0  0
 47121  1  0  0  0
 48 56  1  0  0  0
 48 65  1  0  0  0
 48122  1  0  0  0
 49 50  1  0  0  0
 49 53  1  0  0  0
 49 64  1  0  0  0
 49123  1  0  0  0
 50 51  1  0  0  0
 50124  1  0  0  0
 50125  1  0  0  0
 51 52  1  0  0  0
 51126  1  0  0  0
 51127  1  0  0  0
 52128  1  0  0  0
 52129  1  0  0  0
 53 54  1  0  0  0
 54 55  2  0  0  0
 54130  1  0  0  0
 55 57  1  0  0  0
 55131  1  0  0  0
 56 69  2  0  0  0
 57 58  2  0  0  0
 57132  1  0  0  0
 58133  1  0  0  0
 59 60  1  0  0  0
 59 61  1  0  0  0
 59 62  1  0  0  0
 60134  1  0  0  0
 60135  1  0  0  0
 60136  1  0  0  0
 61137  1  0  0  0
 61138  1  0  0  0
 61139  1  0  0  0
 62140  1  0  0  0
 62141  1  0  0  0
 62142  1  0  0  0
 63 65  1  0  0  0
 63143  1  0  0  0
 63144  1  0  0  0
 63145  1  0  0  0
 64146  1  0  0  0
 65147  1  0  0  0
 68 83  1  0  0  0
 71 72  1  0  0  0
 71 73  2  0  0  0
 71148  1  0  0  0
 72 84  1  0  0  0
 72 86  2  0  0  0
 73 85  1  0  0  0
 73 87  1  0  0  0
 74149  1  0  0  0
 74150  1  0  0  0
 74151  1  0  0  0
 74 84  1  0  0  0
 75152  1  0  0  0
 75153  1  0  0  0
 75154  1  0  0  0
 75 85  1  0  0  0
 76 85  1  0  0  0
 76155  1  0  0  0
 76156  1  0  0  0
 76157  1  0  0  0
 77 85  1  0  0  0
 77158  1  0  0  0
 77159  1  0  0  0
 77160  1  0  0  0
 78 79  1  0  0  0
 78 83  1  0  0  0
 78161  1  0  0  0
 78162  1  0  0  0
 79 84  1  0  0  0
 79163  1  0  0  0
 79164  1  0  0  0
 80 81  1  0  0  0
 80 82  1  0  0  0
 80165  1  0  0  0
 80166  1  0  0  0
 81 87  1  0  0  0
 81167  1  0  0  0
 81168  1  0  0  0
 82 88  1  0  0  0
 82169  1  0  0  0
 82170  1  0  0  0
 83171  1  0  0  0
 83172  1  0  0  0
 84173  1  0  0  0
 86 87  1  0  0  0
 88174  1  0  0  0
M  ISO  4   1 100  68 101  83 101  88 100
M  END
> <chiral flag>
0

> <version>
0

> <s_m_source_file>
/data/baiqing/PycharmProjects/Reinvent-master-3.2/result/LINK_invent/BTK/process_docking_weight1_custom_sum_contain_oxygen_bond_distance_aromatic_linkinvent_7_9_3/rearranged_h_0078.sdf

> <i_m_source_file_index>
33

> <r_mmod_Potential_Energy-OPLS-2005>
-97.2259826660156

> <r_mmod_Stretch_Energy-OPLS-2005>
34.1745834350586

> <r_mmod_Bend_Energy-OPLS-2005>
115.524620056152

> <r_mmod_Torsional_Energy-OPLS-2005>
238.528335571289

> <r_mmod_Improper_Torsional_Energy-OPLS-2005>
2.62547039985657

> <r_mmod_Van_der_Waal_Energy-OPLS-2005>
134.881942749023

> <r_mmod_Electrostatic_Energy-OPLS-2005>
-426.389343261719

> <r_mmod_Solvation_Energy-OPLS-2005>
-206.752777099609

> <b_mmod_Minimization_Converged-OPLS-2005>
0

> <r_mmod_RMS_Derivative-OPLS-2005>
4.30821323394775

$$$$
33
                    3D
 Structure written by MMmdl.
168176  0  0  1  0            999 V2000
  -30.6935  -14.5050   20.5416 C   0  0  0  0  0  0
  -30.4222  -12.3208   19.4360 C   0  0  0  0  0  0
  -29.4957  -12.4999   18.2156 C   0  0  0  0  0  0
  -28.0157  -12.3577   18.6237 C   0  0  0  0  0  0
  -27.6565  -13.2099   19.8716 C   0  0  2  0  0  0
  -28.6976  -13.0246   20.9989 C   0  0  0  0  0  0
  -25.2584  -13.8184   20.5688 C   0  0  0  0  0  0
  -24.1836  -13.0444   20.9203 C   0  0  0  0  0  0
  -24.6375  -11.6921   20.8745 C   0  0  0  0  0  0
  -23.9031  -10.4304   21.0394 C   0  0  0  0  0  0
  -24.3598   -9.4226   21.9166 C   0  0  0  0  0  0
  -23.6296   -8.2248   22.0741 C   0  0  0  0  0  0
  -22.4277   -8.0276   21.3538 C   0  0  0  0  0  0
  -21.9899   -9.0238   20.4637 C   0  0  0  0  0  0
  -22.7206  -10.2132   20.3042 C   0  0  0  0  0  0
  -21.6871   -6.0728   22.5274 C   0  0  0  0  0  0
  -21.4021   -6.5631   23.8205 C   0  0  0  0  0  0
  -21.3671   -5.6790   24.9171 C   0  0  0  0  0  0
  -21.6042   -4.3049   24.7224 C   0  0  0  0  0  0
  -21.8820   -3.8142   23.4351 C   0  0  0  0  0  0
  -21.9207   -4.6954   22.3406 C   0  0  0  0  0  0
  -22.7863  -13.5243   21.1864 C   0  0  0  0  0  0
  -22.1662   -4.2132   21.0986 F   0  0  0  0  0  0
  -21.5643   -3.4537   25.7749 F   0  0  0  0  0  0
  -30.0277  -13.3212   20.4422 N   0  0  0  0  0  0
  -26.3003  -12.9343   20.3364 N   0  0  0  0  0  0
  -25.9307  -11.6501   20.5786 N   0  0  0  0  0  0
  -22.0509  -12.8237   22.0432 N   0  0  0  0  0  0
  -25.4307  -15.1901   20.4042 N   0  0  0  0  0  0
  -31.8408  -14.6556   20.1138 O   0  0  0  0  0  0
  -21.6662   -6.8863   21.4230 O   0  0  0  0  0  0
  -22.3529  -14.5523   20.6693 O   0  0  0  0  0  0
  -24.6135  -31.8667   23.2095 C   0  0  0  0  0  0
  -25.9010  -32.4835   23.8401 C   0  0  1  0  0  0
  -27.2286  -27.4300   20.1001 C   0  0  0  0  0  0
  -25.5873  -33.8637   24.2338 N   0  0  0  0  0  0
  -23.4026  -30.4865   21.5518 C   0  0  2  0  0  0
  -24.8472  -28.9480   20.1218 C   0  0  0  0  0  0
  -22.7414  -29.4625   22.5013 C   0  0  0  0  0  0
  -18.0265  -28.1380   22.8482 C   0  0  0  0  0  0
  -24.1484  -36.7323   23.2638 C   0  0  0  0  0  0
  -25.9293  -30.8324   21.3586 C   0  0  0  0  0  0
  -26.0069  -29.4623   20.7160 C   0  0  0  0  0  0
  -27.2033  -28.7099   20.6996 C   0  0  0  0  0  0
  -26.0535  -26.9276   19.5067 C   0  0  0  0  0  0
  -24.8636  -27.6798   19.5158 C   0  0  0  0  0  0
  -23.6108  -29.8149   20.1684 C   0  0  0  0  0  0
  -25.4099  -36.3123   24.0346 C   0  0  1  0  0  0
  -20.5855  -28.3650   23.1339 C   0  0  2  0  0  0
  -20.6764  -26.9392   22.5423 C   0  0  0  0  0  0
  -19.5752  -26.6385   21.5207 C   0  0  0  0  0  0
  -18.1923  -26.7928   22.1611 C   0  0  0  0  0  0
  -19.1512  -28.8831   23.2905 C   0  0  0  0  0  0
  -18.9441  -30.1440   23.8912 C   0  0  0  0  0  0
  -17.6447  -30.6587   24.0563 C   0  0  0  0  0  0
  -25.9024  -34.9492   23.5142 C   0  0  0  0  0  0
  -16.5338  -29.9091   23.6328 C   0  0  0  0  0  0
  -16.7255  -28.6508   23.0347 C   0  0  0  0  0  0
  -26.4438  -31.6610   25.0722 C   0  0  0  0  0  0
  -25.3719  -31.3707   26.1481 C   0  0  0  0  0  0
  -27.0244  -30.3065   24.6046 C   0  0  0  0  0  0
  -27.6044  -32.4301   25.7459 C   0  0  0  0  0  0
  -27.5573  -37.1818   24.8464 C   0  0  0  0  0  0
  -21.4137  -29.3020   22.3762 N   0  0  0  0  0  0
  -26.4291  -37.3800   23.9410 N   0  0  0  0  0  0
  -24.6675  -31.0768   22.0995 N   0  0  0  0  0  0
  -23.4188  -28.8172   23.3058 O   0  0  0  0  0  0
  -28.3990  -26.7071   20.0548 O   0  0  0  0  0  0
  -26.5595  -34.8937   22.4707 O   0  0  0  0  0  0
  -23.5324  -32.1396   23.7492 O   0  0  0  0  0  0
  -29.0674  -20.5969   20.9519 C   0  0  0  0  0  0
  -28.8268  -21.9462   21.0964 C   0  0  0  0  0  0
  -28.5298  -22.0658   22.4857 C   0  0  0  0  0  0
  -28.1995  -23.2839   23.3001 C   0  0  0  0  0  0
  -31.6324  -18.8065   21.9311 C   0  0  0  0  0  0
  -29.2239  -18.4545   24.1420 C   0  0  0  0  0  0
  -27.8314  -17.7995   22.1946 C   0  0  0  0  0  0
  -28.9248  -23.0137   20.0071 C   0  0  0  0  0  0
  -27.9446  -24.2244   20.0540 C   0  0  0  0  0  0
  -30.3114  -16.9915   20.7267 C   0  0  0  0  0  0
  -28.4289  -25.4884   20.8162 C   0  0  0  0  0  0
  -30.4348  -17.8352   22.0352 C   0  0  2  0  0  0
  -29.1255  -18.5447   22.5911 C   0  0  0  0  0  0
  -28.5860  -20.9002   23.1068 N   0  0  0  0  0  0
  -28.9780  -19.9792   22.1914 N   0  0  0  0  0  0
  -29.9586  -15.5666   20.9389 N   0  0  0  0  0  0
  -31.4629  -12.4296   19.1267 H   0  0  0  0  0  0
  -30.3372  -11.3149   19.8499 H   0  0  0  0  0  0
  -29.7437  -11.7687   17.4445 H   0  0  0  0  0  0
  -29.6606  -13.4831   17.7740 H   0  0  0  0  0  0
  -27.8273  -11.3023   18.8242 H   0  0  0  0  0  0
  -27.3680  -12.6275   17.7872 H   0  0  0  0  0  0
  -27.6910  -14.2523   19.5546 H   0  0  0  0  0  0
  -28.6781  -12.0008   21.3768 H   0  0  0  0  0  0
  -28.4602  -13.6623   21.8535 H   0  0  0  0  0  0
  -25.2731   -9.5757   22.4736 H   0  0  0  0  0  0
  -24.0046   -7.4657   22.7453 H   0  0  0  0  0  0
  -21.0841   -8.8717   19.8939 H   0  0  0  0  0  0
  -22.3619  -10.9658   19.6169 H   0  0  0  0  0  0
  -21.1976   -7.6134   23.9704 H   0  0  0  0  0  0
  -21.1512   -6.0520   25.9077 H   0  0  0  0  0  0
  -22.0587   -2.7599   23.2862 H   0  0  0  0  0  0
  -22.4122  -11.9906   22.4836 H   0  0  0  0  0  0
  -21.1104  -13.1238   22.2579 H   0  0  0  0  0  0
  -24.6676  -15.8498   20.5113 H   0  0  0  0  0  0
  -26.2823  -15.6271   20.0747 H   0  0  0  0  0  0
  -26.7093  -32.5552   23.1182 H   0  0  0  0  0  0
  -25.0051  -33.9824   25.0495 H   0  0  0  0  0  0
  -22.6898  -31.3012   21.4088 H   0  0  0  0  0  0
  -23.3755  -35.9647   23.3311 H   0  0  0  0  0  0
  -24.3574  -36.8910   22.2047 H   0  0  0  0  0  0
  -23.7220  -37.6531   23.6632 H   0  0  0  0  0  0
  -26.0316  -31.5916   20.5816 H   0  0  0  0  0  0
  -26.8236  -30.8982   21.9663 H   0  0  0  0  0  0
  -28.1041  -29.1011   21.1509 H   0  0  0  0  0  0
  -26.0519  -25.9637   19.0210 H   0  0  0  0  0  0
  -23.9708  -27.2786   19.0558 H   0  0  0  0  0  0
  -23.7244  -30.5851   19.4046 H   0  0  0  0  0  0
  -22.7352  -29.2331   19.8746 H   0  0  0  0  0  0
  -25.1272  -36.2001   25.0842 H   0  0  0  0  0  0
  -20.9917  -28.3196   24.1471 H   0  0  0  0  0  0
  -20.5667  -26.2244   23.3600 H   0  0  0  0  0  0
  -21.6639  -26.7463   22.1206 H   0  0  0  0  0  0
  -19.6927  -25.6296   21.1240 H   0  0  0  0  0  0
  -19.6709  -27.3196   20.6746 H   0  0  0  0  0  0
  -17.4189  -26.6651   21.4024 H   0  0  0  0  0  0
  -18.0343  -26.0076   22.9018 H   0  0  0  0  0  0
  -19.7912  -30.7251   24.2293 H   0  0  0  0  0  0
  -17.5002  -31.6273   24.5156 H   0  0  0  0  0  0
  -15.5341  -30.3009   23.7652 H   0  0  0  0  0  0
  -15.8643  -28.0849   22.7071 H   0  0  0  0  0  0
  -24.5889  -30.7050   25.7819 H   0  0  0  0  0  0
  -24.8915  -32.2868   26.4946 H   0  0  0  0  0  0
  -25.8079  -30.8863   27.0229 H   0  0  0  0  0  0
  -26.2772  -29.6877   24.1064 H   0  0  0  0  0  0
  -27.4002  -29.7237   25.4462 H   0  0  0  0  0  0
  -27.8612  -30.4414   23.9185 H   0  0  0  0  0  0
  -27.2709  -33.3609   26.2057 H   0  0  0  0  0  0
  -28.3838  -32.6833   25.0258 H   0  0  0  0  0  0
  -28.0727  -31.8398   26.5346 H   0  0  0  0  0  0
  -28.2614  -38.0098   24.7517 H   0  0  0  0  0  0
  -28.1059  -36.2642   24.6293 H   0  0  0  0  0  0
  -27.2309  -37.1457   25.8872 H   0  0  0  0  0  0
  -20.9292  -29.8740   21.6987 H   0  0  0  0  0  0
  -26.0196  -38.2885   24.1411 H   0  0  0  0  0  0
  -29.3292  -20.0283   20.0711 H   0  0  0  0  0  0
  -27.2610  -23.7342   22.9816 H   0  0  0  0  0  0
  -28.9861  -24.0315   23.2203 H   0  0  0  0  0  0
  -28.0947  -23.0497   24.3598 H   0  0  0  0  0  0
  -32.5626  -18.2636   21.7620 H   0  0  0  0  0  0
  -31.7623  -19.3860   22.8459 H   0  0  0  0  0  0
  -31.5243  -19.5119   21.1097 H   0  0  0  0  0  0
  -29.3969  -17.4351   24.4864 H   0  0  0  0  0  0
  -28.3108  -18.7916   24.6335 H   0  0  0  0  0  0
  -30.0418  -19.0665   24.5271 H   0  0  0  0  0  0
  -27.8528  -16.7582   22.5184 H   0  0  0  0  0  0
  -27.6524  -17.8186   21.1201 H   0  0  0  0  0  0
  -26.9596  -18.2631   22.6570 H   0  0  0  0  0  0
  -28.7628  -22.5261   19.0440 H   0  0  0  0  0  0
  -29.9464  -23.3892   19.9428 H   0  0  0  0  0  0
  -26.9519  -23.9227   20.3880 H   0  0  0  0  0  0
  -27.8100  -24.5283   19.0155 H   0  0  0  0  0  0
  -31.2582  -17.0446   20.1867 H   0  0  0  0  0  0
  -29.5970  -17.4474   20.0424 H   0  0  0  0  0  0
  -29.4644  -25.3455   21.1230 H   0  0  0  0  0  0
  -27.8640  -25.6251   21.7390 H   0  0  0  0  0  0
  -30.7598  -17.1082   22.7809 H   0  0  0  0  0  0
  -29.0191  -15.3682   21.2444 H   0  0  0  0  0  0
  1 25  1  0  0  0
  1 30  2  0  0  0
  1 86  1  0  0  0
  2  3  1  0  0  0
  2 25  1  0  0  0
  2 87  1  0  0  0
  2 88  1  0  0  0
  3  4  1  0  0  0
  3 89  1  0  0  0
  3 90  1  0  0  0
  4  5  1  0  0  0
  4 91  1  0  0  0
  4 92  1  0  0  0
  5  6  1  0  0  0
  5 26  1  0  0  0
  5 93  1  0  0  0
  6 25  1  0  0  0
  6 94  1  0  0  0
  6 95  1  0  0  0
  7  8  2  0  0  0
  7 26  1  0  0  0
  7 29  1  0  0  0
  8  9  1  0  0  0
  8 22  1  0  0  0
  9 10  1  0  0  0
  9 27  2  0  0  0
 10 11  2  0  0  0
 10 15  1  0  0  0
 11 12  1  0  0  0
 11 96  1  0  0  0
 12 13  2  0  0  0
 12 97  1  0  0  0
 13 14  1  0  0  0
 13 31  1  0  0  0
 14 15  2  0  0  0
 14 98  1  0  0  0
 15 99  1  0  0  0
 16 17  2  0  0  0
 16 21  1  0  0  0
 16 31  1  0  0  0
 17 18  1  0  0  0
 17100  1  0  0  0
 18 19  2  0  0  0
 18101  1  0  0  0
 19 20  1  0  0  0
 19 24  1  0  0  0
 20 21  2  0  0  0
 20102  1  0  0  0
 21 23  1  0  0  0
 22 28  1  0  0  0
 22 32  2  0  0  0
 26 27  1  0  0  0
 28103  1  0  0  0
 28104  1  0  0  0
 29105  1  0  0  0
 29106  1  0  0  0
 33 34  1  0  0  0
 33 66  1  0  0  0
 33 70  2  0  0  0
 34 36  1  0  0  0
 34 59  1  0  0  0
 34107  1  0  0  0
 35 44  2  0  0  0
 35 45  1  0  0  0
 35 68  1  0  0  0
 36 56  1  0  0  0
 36108  1  0  0  0
 37 39  1  0  0  0
 37 47  1  0  0  0
 37 66  1  0  0  0
 37109  1  0  0  0
 38 43  2  0  0  0
 38 46  1  0  0  0
 38 47  1  0  0  0
 39 64  1  0  0  0
 39 67  2  0  0  0
 40 52  1  0  0  0
 40 53  2  0  0  0
 40 58  1  0  0  0
 41110  1  0  0  0
 41111  1  0  0  0
 41112  1  0  0  0
 41 48  1  0  0  0
 42 43  1  0  0  0
 42 66  1  0  0  0
 42113  1  0  0  0
 42114  1  0  0  0
 43 44  1  0  0  0
 44115  1  0  0  0
 45 46  2  0  0  0
 45116  1  0  0  0
 46117  1  0  0  0
 47118  1  0  0  0
 47119  1  0  0  0
 48 56  1  0  0  0
 48 65  1  0  0  0
 48120  1  0  0  0
 49 50  1  0  0  0
 49 53  1  0  0  0
 49 64  1  0  0  0
 49121  1  0  0  0
 50 51  1  0  0  0
 50122  1  0  0  0
 50123  1  0  0  0
 51 52  1  0  0  0
 51124  1  0  0  0
 51125  1  0  0  0
 52126  1  0  0  0
 52127  1  0  0  0
 53 54  1  0  0  0
 54 55  2  0  0  0
 54128  1  0  0  0
 55 57  1  0  0  0
 55129  1  0  0  0
 56 69  2  0  0  0
 57 58  2  0  0  0
 57130  1  0  0  0
 58131  1  0  0  0
 59 60  1  0  0  0
 59 61  1  0  0  0
 59 62  1  0  0  0
 60132  1  0  0  0
 60133  1  0  0  0
 60134  1  0  0  0
 61135  1  0  0  0
 61136  1  0  0  0
 61137  1  0  0  0
 62138  1  0  0  0
 62139  1  0  0  0
 62140  1  0  0  0
 63 65  1  0  0  0
 63141  1  0  0  0
 63142  1  0  0  0
 63143  1  0  0  0
 64144  1  0  0  0
 65145  1  0  0  0
 68 81  1  0  0  0
 71 72  2  0  0  0
 71 85  1  0  0  0
 71146  1  0  0  0
 72 73  1  0  0  0
 72 78  1  0  0  0
 73 74  1  0  0  0
 73 84  2  0  0  0
 74147  1  0  0  0
 74148  1  0  0  0
 74149  1  0  0  0
 75150  1  0  0  0
 75151  1  0  0  0
 75152  1  0  0  0
 75 82  1  0  0  0
 76153  1  0  0  0
 76154  1  0  0  0
 76155  1  0  0  0
 76 83  1  0  0  0
 77 83  1  0  0  0
 77156  1  0  0  0
 77157  1  0  0  0
 77158  1  0  0  0
 78 79  1  0  0  0
 78159  1  0  0  0
 78160  1  0  0  0
 79 81  1  0  0  0
 79161  1  0  0  0
 79162  1  0  0  0
 80 82  1  0  0  0
 80 86  1  0  0  0
 80163  1  0  0  0
 80164  1  0  0  0
 81165  1  0  0  0
 81166  1  0  0  0
 82 83  1  0  0  0
 82167  1  0  0  0
 83 85  1  0  0  0
 84 85  1  0  0  0
 86168  1  0  0  0
M  ISO  4   1 100  68 101  81 101  86 100
M  END
> <chiral flag>
0

> <version>
0

> <s_m_source_file>
/data/baiqing/PycharmProjects/Reinvent-master-3.2/result/LINK_invent/BTK/process_docking_weight1_custom_sum_contain_oxygen_bond_distance_aromatic_linkinvent_7_9_3/rearranged_h_0078.sdf

> <i_m_source_file_index>
34

> <r_mmod_Potential_Energy-OPLS-2005>
-19.0711517333984

> <r_mmod_Stretch_Energy-OPLS-2005>
46.2154502868652

> <r_mmod_Bend_Energy-OPLS-2005>
119.897666931152

> <r_mmod_Torsional_Energy-OPLS-2005>
291.864715576172

> <r_mmod_Improper_Torsional_Energy-OPLS-2005>
5.41265726089478

> <r_mmod_Van_der_Waal_Energy-OPLS-2005>
133.538467407227

> <r_mmod_Electrostatic_Energy-OPLS-2005>
-422.245635986328

> <r_mmod_Solvation_Energy-OPLS-2005>
-208.968566894531

> <b_mmod_Minimization_Converged-OPLS-2005>
0

> <r_mmod_RMS_Derivative-OPLS-2005>
2.67453861236572

$$$$
34
                    3D
 Structure written by MMmdl.
160168  0  0  1  0            999 V2000
  -30.5159  -14.9973   20.4227 C   0  0  0  0  0  0
  -30.4352  -12.6192   19.5266 C   0  0  0  0  0  0
  -29.5377  -12.5678   18.2696 C   0  0  0  0  0  0
  -28.0674  -12.3348   18.6654 C   0  0  0  0  0  0
  -27.6266  -13.2567   19.8371 C   0  0  2  0  0  0
  -28.6600  -13.2972   20.9839 C   0  0  0  0  0  0
  -25.2460  -13.8218   20.5672 C   0  0  0  0  0  0
  -24.1794  -13.0434   20.9203 C   0  0  0  0  0  0
  -24.6426  -11.6916   20.8739 C   0  0  0  0  0  0
  -23.9095  -10.4294   21.0388 C   0  0  0  0  0  0
  -24.3620   -9.4226   21.9174 C   0  0  0  0  0  0
  -23.6295   -8.2258   22.0740 C   0  0  0  0  0  0
  -22.4278   -8.0297   21.3551 C   0  0  0  0  0  0
  -21.9931   -9.0263   20.4636 C   0  0  0  0  0  0
  -22.7257  -10.2142   20.3041 C   0  0  0  0  0  0
  -21.6848   -6.0762   22.5288 C   0  0  0  0  0  0
  -21.4017   -6.5648   23.8235 C   0  0  0  0  0  0
  -21.3658   -5.6783   24.9176 C   0  0  0  0  0  0
  -21.6048   -4.3051   24.7220 C   0  0  0  0  0  0
  -21.8819   -3.8159   23.4342 C   0  0  0  0  0  0
  -21.9189   -4.6991   22.3409 C   0  0  0  0  0  0
  -22.7811  -13.5217   21.1849 C   0  0  0  0  0  0
  -22.1653   -4.2190   21.0983 F   0  0  0  0  0  0
  -21.5623   -3.4522   25.7727 F   0  0  0  0  0  0
  -29.9359  -13.7241   20.3992 N   0  0  0  0  0  0
  -26.2892  -12.9459   20.3206 N   0  0  0  0  0  0
  -25.9366  -11.6584   20.5690 N   0  0  0  0  0  0
  -22.0437  -12.8232   22.0402 N   0  0  0  0  0  0
  -25.4108  -15.1939   20.4047 N   0  0  0  0  0  0
  -31.7117  -15.0610   20.1130 O   0  0  0  0  0  0
  -21.6634   -6.8899   21.4252 O   0  0  0  0  0  0
  -22.3509  -14.5497   20.6662 O   0  0  0  0  0  0
  -24.6459  -31.8430   23.1875 C   0  0  0  0  0  0
  -25.9213  -32.4693   23.8289 C   0  0  1  0  0  0
  -27.2159  -27.1166   20.1680 C   0  0  0  0  0  0
  -25.5980  -33.8503   24.2225 N   0  0  0  0  0  0
  -23.4516  -30.4606   21.5323 C   0  0  2  0  0  0
  -24.9032  -28.8826   20.1169 C   0  0  0  0  0  0
  -22.7587  -29.4534   22.4853 C   0  0  0  0  0  0
  -18.0319  -28.1397   22.8475 C   0  0  0  0  0  0
  -24.1501  -36.7244   23.2641 C   0  0  0  0  0  0
  -26.0095  -30.7119   21.3914 C   0  0  0  0  0  0
  -26.0824  -29.3200   20.7367 C   0  0  0  0  0  0
  -27.2430  -28.4534   20.7432 C   0  0  0  0  0  0
  -26.0157  -26.7895   19.5025 C   0  0  0  0  0  0
  -24.8837  -27.6309   19.4840 C   0  0  0  0  0  0
  -23.6833  -29.7894   20.1528 C   0  0  0  0  0  0
  -25.4132  -36.3030   24.0319 C   0  0  1  0  0  0
  -20.5932  -28.3725   23.1229 C   0  0  2  0  0  0
  -20.6810  -26.9431   22.5409 C   0  0  0  0  0  0
  -19.5786  -26.6378   21.5225 C   0  0  0  0  0  0
  -18.1953  -26.7935   22.1618 C   0  0  0  0  0  0
  -19.1570  -28.8875   23.2847 C   0  0  0  0  0  0
  -18.9484  -30.1468   23.8877 C   0  0  0  0  0  0
  -17.6481  -30.6584   24.0553 C   0  0  0  0  0  0
  -25.9076  -34.9410   23.5074 C   0  0  0  0  0  0
  -16.5374  -29.9084   23.6336 C   0  0  0  0  0  0
  -16.7298  -28.6504   23.0352 C   0  0  0  0  0  0
  -26.4553  -31.6543   25.0718 C   0  0  0  0  0  0
  -25.3730  -31.3712   26.1394 C   0  0  0  0  0  0
  -27.0428  -30.2942   24.6288 C   0  0  0  0  0  0
  -27.6094  -32.4293   25.7495 C   0  0  0  0  0  0
  -27.5587  -37.1778   24.8466 C   0  0  0  0  0  0
  -21.4276  -29.3044   22.3586 N   0  0  0  0  0  0
  -26.4300  -37.3745   23.9402 N   0  0  0  0  0  0
  -24.7213  -31.0271   22.0916 N   0  0  0  0  0  0
  -23.4219  -28.8074   23.2999 O   0  0  0  0  0  0
  -28.2500  -26.1056   20.1866 O   0  0  0  0  0  0
  -26.5649  -34.8892   22.4641 O   0  0  0  0  0  0
  -23.5557  -32.1325   23.7061 O   0  0  0  0  0  0
  -28.6532  -21.8984   20.8762 C   0  0  0  0  0  0
  -28.6208  -23.2176   20.1965 C   0  0  0  0  0  0
  -29.1262  -20.6463   20.2346 C   0  0  0  0  0  0
  -29.4178  -22.0245   18.3718 C   0  0  0  0  0  0
  -29.7485  -22.1028   16.8982 C   0  0  0  0  0  0
  -28.1255  -24.7877   22.2300 C   0  0  0  0  0  0
  -27.5601  -18.6625   20.6496 C   0  0  0  0  0  0
  -29.3576  -19.1128   22.3038 C   0  0  0  0  0  0
  -29.9583  -17.7383   20.2238 C   0  0  0  0  0  0
  -27.9543  -24.6578   20.7136 C   0  0  1  0  0  0
  -29.0396  -19.0667   20.7999 C   0  0  0  0  0  0
  -29.0446  -23.1875   18.9195 N   0  0  0  0  0  0
  -29.4632  -20.8069   18.9369 N   0  0  0  0  0  0
  -29.7351  -16.1897   20.5849 N   0  0  0  0  0  0
  -31.4733  -12.7730   19.2296 H   0  0  0  0  0  0
  -30.4117  -11.6664   20.0584 H   0  0  0  0  0  0
  -29.8802  -11.7928   17.5851 H   0  0  0  0  0  0
  -29.6271  -13.5163   17.7344 H   0  0  0  0  0  0
  -27.9619  -11.2877   18.9487 H   0  0  0  0  0  0
  -27.4180  -12.4787   17.8004 H   0  0  0  0  0  0
  -27.5832  -14.2610   19.4163 H   0  0  0  0  0  0
  -28.7505  -12.3211   21.4620 H   0  0  0  0  0  0
  -28.3461  -13.9982   21.7596 H   0  0  0  0  0  0
  -25.2781   -9.5712   22.4721 H   0  0  0  0  0  0
  -24.0017   -7.4658   22.7476 H   0  0  0  0  0  0
  -21.0858   -8.8784   19.8948 H   0  0  0  0  0  0
  -22.3717  -10.9665   19.6126 H   0  0  0  0  0  0
  -21.2012   -7.6154   23.9759 H   0  0  0  0  0  0
  -21.1476   -6.0501   25.9081 H   0  0  0  0  0  0
  -22.0607   -2.7628   23.2824 H   0  0  0  0  0  0
  -22.3986  -11.9885   22.4832 H   0  0  0  0  0  0
  -21.1061  -13.1316   22.2546 H   0  0  0  0  0  0
  -24.6334  -15.8407   20.4810 H   0  0  0  0  0  0
  -26.2535  -15.6318   20.0577 H   0  0  0  0  0  0
  -26.7274  -32.5308   23.1012 H   0  0  0  0  0  0
  -25.0140  -33.9646   25.0376 H   0  0  0  0  0  0
  -22.7545  -31.2856   21.3728 H   0  0  0  0  0  0
  -23.3793  -35.9546   23.3270 H   0  0  0  0  0  0
  -24.3604  -36.8905   22.2065 H   0  0  0  0  0  0
  -23.7224  -37.6412   23.6699 H   0  0  0  0  0  0
  -26.1675  -31.4652   20.6185 H   0  0  0  0  0  0
  -26.8773  -30.7655   22.0361 H   0  0  0  0  0  0
  -28.1426  -28.7863   21.2432 H   0  0  0  0  0  0
  -25.9356  -25.8360   19.0010 H   0  0  0  0  0  0
  -23.9844  -27.2938   18.9872 H   0  0  0  0  0  0
  -23.8316  -30.5652   19.4009 H   0  0  0  0  0  0
  -22.7991  -29.2354   19.8335 H   0  0  0  0  0  0
  -25.1322  -36.1865   25.0816 H   0  0  0  0  0  0
  -21.0026  -28.3328   24.1350 H   0  0  0  0  0  0
  -20.5716  -26.2347   23.3632 H   0  0  0  0  0  0
  -21.6666  -26.7441   22.1188 H   0  0  0  0  0  0
  -19.6948  -25.6281   21.1274 H   0  0  0  0  0  0
  -19.6731  -27.3170   20.6740 H   0  0  0  0  0  0
  -17.4236  -26.6692   21.4007 H   0  0  0  0  0  0
  -18.0345  -26.0082   22.9013 H   0  0  0  0  0  0
  -19.7952  -30.7290   24.2251 H   0  0  0  0  0  0
  -17.5023  -31.6261   24.5153 H   0  0  0  0  0  0
  -15.5366  -30.2969   23.7656 H   0  0  0  0  0  0
  -15.8707  -28.0800   22.7088 H   0  0  0  0  0  0
  -24.5929  -30.7054   25.7685 H   0  0  0  0  0  0
  -24.8902  -32.2882   26.4773 H   0  0  0  0  0  0
  -25.8005  -30.8898   27.0195 H   0  0  0  0  0  0
  -26.3048  -29.6631   24.1320 H   0  0  0  0  0  0
  -27.4085  -29.7268   25.4855 H   0  0  0  0  0  0
  -27.8939  -30.4194   23.9590 H   0  0  0  0  0  0
  -27.2725  -33.3623   26.2013 H   0  0  0  0  0  0
  -28.3938  -32.6781   25.0339 H   0  0  0  0  0  0
  -28.0717  -31.8439   26.5446 H   0  0  0  0  0  0
  -28.2572  -38.0105   24.7538 H   0  0  0  0  0  0
  -28.1121  -36.2635   24.6271 H   0  0  0  0  0  0
  -27.2306  -37.1380   25.8868 H   0  0  0  0  0  0
  -20.9496  -29.8766   21.6763 H   0  0  0  0  0  0
  -26.0169  -38.2808   24.1420 H   0  0  0  0  0  0
  -28.2623  -21.8390   21.8828 H   0  0  0  0  0  0
  -30.4574  -22.9073   16.7064 H   0  0  0  0  0  0
  -28.8377  -22.3097   16.3358 H   0  0  0  0  0  0
  -30.1777  -21.1737   16.5251 H   0  0  0  0  0  0
  -27.7029  -23.9306   22.7527 H   0  0  0  0  0  0
  -27.6224  -25.6785   22.6086 H   0  0  0  0  0  0
  -29.1810  -24.8596   22.4925 H   0  0  0  0  0  0
  -26.9037  -19.3792   21.1498 H   0  0  0  0  0  0
  -27.3616  -17.6814   21.0794 H   0  0  0  0  0  0
  -27.2643  -18.6340   19.6012 H   0  0  0  0  0  0
  -28.6707  -19.7589   22.8490 H   0  0  0  0  0  0
  -30.3662  -19.4900   22.4743 H   0  0  0  0  0  0
  -29.2959  -18.1226   22.7551 H   0  0  0  0  0  0
  -31.0102  -17.9591   20.4106 H   0  0  0  0  0  0
  -29.8628  -17.7710   19.1387 H   0  0  0  0  0  0
  -26.8909  -24.4965   20.5449 H   0  0  0  0  0  0
  -28.7908  -15.9908   20.8740 H   0  0  0  0  0  0
  1 25  1  0  0  0
  1 30  2  0  0  0
  1 84  1  0  0  0
  2  3  1  0  0  0
  2 25  1  0  0  0
  2 85  1  0  0  0
  2 86  1  0  0  0
  3  4  1  0  0  0
  3 87  1  0  0  0
  3 88  1  0  0  0
  4  5  1  0  0  0
  4 89  1  0  0  0
  4 90  1  0  0  0
  5  6  1  0  0  0
  5 26  1  0  0  0
  5 91  1  0  0  0
  6 25  1  0  0  0
  6 92  1  0  0  0
  6 93  1  0  0  0
  7  8  2  0  0  0
  7 26  1  0  0  0
  7 29  1  0  0  0
  8  9  1  0  0  0
  8 22  1  0  0  0
  9 10  1  0  0  0
  9 27  2  0  0  0
 10 11  2  0  0  0
 10 15  1  0  0  0
 11 12  1  0  0  0
 11 94  1  0  0  0
 12 13  2  0  0  0
 12 95  1  0  0  0
 13 14  1  0  0  0
 13 31  1  0  0  0
 14 15  2  0  0  0
 14 96  1  0  0  0
 15 97  1  0  0  0
 16 17  2  0  0  0
 16 21  1  0  0  0
 16 31  1  0  0  0
 17 18  1  0  0  0
 17 98  1  0  0  0
 18 19  2  0  0  0
 18 99  1  0  0  0
 19 20  1  0  0  0
 19 24  1  0  0  0
 20 21  2  0  0  0
 20100  1  0  0  0
 21 23  1  0  0  0
 22 28  1  0  0  0
 22 32  2  0  0  0
 26 27  1  0  0  0
 28101  1  0  0  0
 28102  1  0  0  0
 29103  1  0  0  0
 29104  1  0  0  0
 33 34  1  0  0  0
 33 66  1  0  0  0
 33 70  2  0  0  0
 34 36  1  0  0  0
 34 59  1  0  0  0
 34105  1  0  0  0
 35 44  2  0  0  0
 35 45  1  0  0  0
 35 68  1  0  0  0
 36 56  1  0  0  0
 36106  1  0  0  0
 37 39  1  0  0  0
 37 47  1  0  0  0
 37 66  1  0  0  0
 37107  1  0  0  0
 38 43  2  0  0  0
 38 46  1  0  0  0
 38 47  1  0  0  0
 39 64  1  0  0  0
 39 67  2  0  0  0
 40 52  1  0  0  0
 40 53  2  0  0  0
 40 58  1  0  0  0
 41108  1  0  0  0
 41109  1  0  0  0
 41110  1  0  0  0
 41 48  1  0  0  0
 42 43  1  0  0  0
 42 66  1  0  0  0
 42111  1  0  0  0
 42112  1  0  0  0
 43 44  1  0  0  0
 44113  1  0  0  0
 45 46  2  0  0  0
 45114  1  0  0  0
 46115  1  0  0  0
 47116  1  0  0  0
 47117  1  0  0  0
 48 56  1  0  0  0
 48 65  1  0  0  0
 48118  1  0  0  0
 49 50  1  0  0  0
 49 53  1  0  0  0
 49 64  1  0  0  0
 49119  1  0  0  0
 50 51  1  0  0  0
 50120  1  0  0  0
 50121  1  0  0  0
 51 52  1  0  0  0
 51122  1  0  0  0
 51123  1  0  0  0
 52124  1  0  0  0
 52125  1  0  0  0
 53 54  1  0  0  0
 54 55  2  0  0  0
 54126  1  0  0  0
 55 57  1  0  0  0
 55127  1  0  0  0
 56 69  2  0  0  0
 57 58  2  0  0  0
 57128  1  0  0  0
 58129  1  0  0  0
 59 60  1  0  0  0
 59 61  1  0  0  0
 59 62  1  0  0  0
 60130  1  0  0  0
 60131  1  0  0  0
 60132  1  0  0  0
 61133  1  0  0  0
 61134  1  0  0  0
 61135  1  0  0  0
 62136  1  0  0  0
 62137  1  0  0  0
 62138  1  0  0  0
 63 65  1  0  0  0
 63139  1  0  0  0
 63140  1  0  0  0
 63141  1  0  0  0
 64142  1  0  0  0
 65143  1  0  0  0
 68 80  1  0  0  0
 71 72  2  0  0  0
 71 73  1  0  0  0
 71144  1  0  0  0
 72 80  1  0  0  0
 72 82  1  0  0  0
 73 81  1  0  0  0
 73 83  2  0  0  0
 74 75  1  0  0  0
 74 82  2  0  0  0
 74 83  1  0  0  0
 75145  1  0  0  0
 75146  1  0  0  0
 75147  1  0  0  0
 76148  1  0  0  0
 76149  1  0  0  0
 76150  1  0  0  0
 76 80  1  0  0  0
 77151  1  0  0  0
 77152  1  0  0  0
 77153  1  0  0  0
 77 81  1  0  0  0
 78 81  1  0  0  0
 78154  1  0  0  0
 78155  1  0  0  0
 78156  1  0  0  0
 79 81  1  0  0  0
 79 84  1  0  0  0
 79157  1  0  0  0
 79158  1  0  0  0
 80159  1  0  0  0
 84160  1  0  0  0
M  ISO  4   1 100  68 101  80 101  84 100
M  END
> <chiral flag>
0

> <version>
0

> <s_m_source_file>
/data/baiqing/PycharmProjects/Reinvent-master-3.2/result/LINK_invent/BTK/process_docking_weight1_custom_sum_contain_oxygen_bond_distance_aromatic_linkinvent_7_9_3/rearranged_h_0078.sdf

> <i_m_source_file_index>
35

> <r_mmod_Potential_Energy-OPLS-2005>
81.9564971923828

> <r_mmod_Stretch_Energy-OPLS-2005>
294.464935302734

> <r_mmod_Bend_Energy-OPLS-2005>
268.7958984375

> <r_mmod_Torsional_Energy-OPLS-2005>
233.139617919922

> <r_mmod_Improper_Torsional_Energy-OPLS-2005>
6.63445043563843

> <r_mmod_Van_der_Waal_Energy-OPLS-2005>
131.643951416016

> <r_mmod_Electrostatic_Energy-OPLS-2005>
-838.18310546875

> <r_mmod_Solvation_Energy-OPLS-2005>
-234.952285766602

> <b_mmod_Minimization_Converged-OPLS-2005>
0

> <r_mmod_RMS_Derivative-OPLS-2005>
3.46740102767944

$$$$
35
                    3D
 Structure written by MMmdl.
164173  0  0  1  0            999 V2000
  -30.5026  -15.0323   20.4008 C   0  0  0  0  0  0
  -30.4364  -12.6366   19.5317 C   0  0  0  0  0  0
  -29.5305  -12.5521   18.2787 C   0  0  0  0  0  0
  -28.0639  -12.3250   18.6862 C   0  0  0  0  0  0
  -27.6270  -13.2590   19.8443 C   0  0  2  0  0  0
  -28.6613  -13.3132   20.9904 C   0  0  0  0  0  0
  -25.2432  -13.8230   20.5727 C   0  0  0  0  0  0
  -24.1760  -13.0439   20.9232 C   0  0  0  0  0  0
  -24.6393  -11.6929   20.8749 C   0  0  0  0  0  0
  -23.9080  -10.4293   21.0397 C   0  0  0  0  0  0
  -24.3625   -9.4212   21.9178 C   0  0  0  0  0  0
  -23.6301   -8.2246   22.0747 C   0  0  0  0  0  0
  -22.4285   -8.0279   21.3536 C   0  0  0  0  0  0
  -21.9921   -9.0253   20.4640 C   0  0  0  0  0  0
  -22.7249  -10.2134   20.3051 C   0  0  0  0  0  0
  -21.6856   -6.0736   22.5278 C   0  0  0  0  0  0
  -21.4017   -6.5641   23.8211 C   0  0  0  0  0  0
  -21.3662   -5.6792   24.9172 C   0  0  0  0  0  0
  -21.6046   -4.3056   24.7223 C   0  0  0  0  0  0
  -21.8817   -3.8148   23.4344 C   0  0  0  0  0  0
  -21.9195   -4.6963   22.3402 C   0  0  0  0  0  0
  -22.7782  -13.5204   21.1893 C   0  0  0  0  0  0
  -22.1662   -4.2152   21.0978 F   0  0  0  0  0  0
  -21.5630   -3.4539   25.7735 F   0  0  0  0  0  0
  -29.9354  -13.7483   20.4031 N   0  0  0  0  0  0
  -26.2864  -12.9485   20.3255 N   0  0  0  0  0  0
  -25.9329  -11.6601   20.5733 N   0  0  0  0  0  0
  -22.0440  -12.8180   22.0448 N   0  0  0  0  0  0
  -25.4090  -15.1959   20.4144 N   0  0  0  0  0  0
  -31.6862  -15.0934   20.0478 O   0  0  0  0  0  0
  -21.6642   -6.8881   21.4241 O   0  0  0  0  0  0
  -22.3461  -14.5510   20.6745 O   0  0  0  0  0  0
  -24.6481  -31.8364   23.1792 C   0  0  0  0  0  0
  -25.9226  -32.4648   23.8212 C   0  0  1  0  0  0
  -27.2226  -27.0653   20.1660 C   0  0  0  0  0  0
  -25.5945  -33.8459   24.2132 N   0  0  0  0  0  0
  -23.4565  -30.4494   21.5246 C   0  0  2  0  0  0
  -24.9071  -28.8567   20.1076 C   0  0  0  0  0  0
  -22.7595  -29.4498   22.4817 C   0  0  0  0  0  0
  -18.0312  -28.1399   22.8465 C   0  0  0  0  0  0
  -24.1494  -36.7238   23.2646 C   0  0  0  0  0  0
  -26.0143  -30.6859   21.3875 C   0  0  0  0  0  0
  -26.0828  -29.2889   20.7327 C   0  0  0  0  0  0
  -27.2351  -28.4084   20.7426 C   0  0  0  0  0  0
  -26.0214  -26.7447   19.4978 C   0  0  0  0  0  0
  -24.8939  -27.6023   19.4730 C   0  0  0  0  0  0
  -23.6866  -29.7680   20.1473 C   0  0  0  0  0  0
  -25.4127  -36.3008   24.0313 C   0  0  1  0  0  0
  -20.5929  -28.3725   23.1224 C   0  0  2  0  0  0
  -20.6788  -26.9425   22.5404 C   0  0  0  0  0  0
  -19.5763  -26.6377   21.5210 C   0  0  0  0  0  0
  -18.1947  -26.7937   22.1620 C   0  0  0  0  0  0
  -19.1572  -28.8883   23.2833 C   0  0  0  0  0  0
  -18.9485  -30.1476   23.8862 C   0  0  0  0  0  0
  -17.6481  -30.6594   24.0556 C   0  0  0  0  0  0
  -25.9082  -34.9384   23.5045 C   0  0  0  0  0  0
  -16.5371  -29.9080   23.6343 C   0  0  0  0  0  0
  -16.7297  -28.6505   23.0351 C   0  0  0  0  0  0
  -26.4523  -31.6548   25.0690 C   0  0  0  0  0  0
  -25.3690  -31.3748   26.1375 C   0  0  0  0  0  0
  -27.0400  -30.2937   24.6319 C   0  0  0  0  0  0
  -27.6043  -32.4327   25.7476 C   0  0  0  0  0  0
  -27.5569  -37.1776   24.8467 C   0  0  0  0  0  0
  -21.4281  -29.3036   22.3579 N   0  0  0  0  0  0
  -26.4281  -37.3728   23.9410 N   0  0  0  0  0  0
  -24.7265  -31.0152   22.0855 N   0  0  0  0  0  0
  -23.4207  -28.8071   23.3011 O   0  0  0  0  0  0
  -28.2897  -26.0815   20.2794 O   0  0  0  0  0  0
  -26.5685  -34.8894   22.4635 O   0  0  0  0  0  0
  -23.5588  -32.1269   23.6981 O   0  0  0  0  0  0
  -30.3573  -19.8094   21.4703 C   0  0  0  0  0  0
  -29.5780  -19.2220   20.5042 C   0  0  0  0  0  0
  -29.0846  -21.6122   20.7561 C   0  0  0  0  0  0
  -29.6936  -22.9616   23.2223 C   0  0  0  0  0  0
  -29.0192  -23.8577   22.1769 C   0  0  0  0  0  0
  -30.7152  -22.0504   22.5532 C   0  0  0  0  0  0
  -28.3792  -23.1666   20.9301 C   0  0  2  0  0  0
  -26.5109  -21.9716   22.3780 C   0  0  0  0  0  0
  -28.6790  -17.5564   18.7439 C   0  0  0  0  0  0
  -26.8705  -22.9119   21.2106 C   0  0  0  0  0  0
  -28.3433  -24.5360   19.8859 C   0  0  0  0  0  0
  -29.7008  -17.6700   19.8843 C   0  0  2  0  0  0
  -30.0604  -21.1677   21.5905 N   0  0  0  0  0  0
  -28.8091  -20.3985   20.0893 N   0  3  0  0  0  0
  -29.7223  -16.2278   20.5909 N   0  0  0  0  0  0
  -31.4735  -12.7887   19.2291 H   0  0  0  0  0  0
  -30.4280  -11.6899   20.0744 H   0  0  0  0  0  0
  -29.8652  -11.7500   17.6197 H   0  0  0  0  0  0
  -29.6135  -13.4761   17.7044 H   0  0  0  0  0  0
  -27.9666  -11.2844   18.9970 H   0  0  0  0  0  0
  -27.4051  -12.4498   17.8263 H   0  0  0  0  0  0
  -27.5830  -14.2578   19.4089 H   0  0  0  0  0  0
  -28.7590  -12.3426   21.4789 H   0  0  0  0  0  0
  -28.3416  -14.0143   21.7625 H   0  0  0  0  0  0
  -25.2764   -9.5693   22.4758 H   0  0  0  0  0  0
  -24.0012   -7.4636   22.7463 H   0  0  0  0  0  0
  -21.0855   -8.8766   19.8943 H   0  0  0  0  0  0
  -22.3697  -10.9671   19.6162 H   0  0  0  0  0  0
  -21.2009   -7.6148   23.9718 H   0  0  0  0  0  0
  -21.1487   -6.0520   25.9076 H   0  0  0  0  0  0
  -22.0595   -2.7612   23.2841 H   0  0  0  0  0  0
  -22.4068  -11.9845   22.4834 H   0  0  0  0  0  0
  -21.1048  -13.1179   22.2650 H   0  0  0  0  0  0
  -24.6349  -15.8434   20.5130 H   0  0  0  0  0  0
  -26.2475  -15.6331   20.0576 H   0  0  0  0  0  0
  -26.7293  -32.5224   23.0933 H   0  0  0  0  0  0
  -25.0045  -33.9553   25.0249 H   0  0  0  0  0  0
  -22.7634  -31.2771   21.3620 H   0  0  0  0  0  0
  -23.3761  -35.9564   23.3294 H   0  0  0  0  0  0
  -24.3573  -36.8893   22.2062 H   0  0  0  0  0  0
  -23.7243  -37.6426   23.6699 H   0  0  0  0  0  0
  -26.1770  -31.4344   20.6109 H   0  0  0  0  0  0
  -26.8825  -30.7399   22.0333 H   0  0  0  0  0  0
  -28.1288  -28.7319   21.2576 H   0  0  0  0  0  0
  -25.9227  -25.7814   19.0203 H   0  0  0  0  0  0
  -23.9960  -27.2672   18.9713 H   0  0  0  0  0  0
  -23.8278  -30.5388   19.3882 H   0  0  0  0  0  0
  -22.8004  -29.2116   19.8375 H   0  0  0  0  0  0
  -25.1319  -36.1825   25.0802 H   0  0  0  0  0  0
  -21.0012  -28.3323   24.1348 H   0  0  0  0  0  0
  -20.5661  -26.2342   23.3626 H   0  0  0  0  0  0
  -21.6652  -26.7402   22.1217 H   0  0  0  0  0  0
  -19.6921  -25.6278   21.1259 H   0  0  0  0  0  0
  -19.6712  -27.3168   20.6728 H   0  0  0  0  0  0
  -17.4214  -26.6682   21.4026 H   0  0  0  0  0  0
  -18.0346  -26.0085   22.9022 H   0  0  0  0  0  0
  -19.7961  -30.7302   24.2204 H   0  0  0  0  0  0
  -17.5036  -31.6267   24.5168 H   0  0  0  0  0  0
  -15.5370  -30.2970   23.7685 H   0  0  0  0  0  0
  -15.8698  -28.0816   22.7072 H   0  0  0  0  0  0
  -24.5912  -30.7040   25.7699 H   0  0  0  0  0  0
  -24.8815  -32.2922   26.4687 H   0  0  0  0  0  0
  -25.7962  -30.9013   27.0223 H   0  0  0  0  0  0
  -26.3029  -29.6650   24.1308 H   0  0  0  0  0  0
  -27.3968  -29.7248   25.4911 H   0  0  0  0  0  0
  -27.8952  -30.4160   23.9672 H   0  0  0  0  0  0
  -27.2645  -33.3674   26.1942 H   0  0  0  0  0  0
  -28.3906  -32.6806   25.0335 H   0  0  0  0  0  0
  -28.0650  -31.8520   26.5479 H   0  0  0  0  0  0
  -28.2575  -38.0082   24.7507 H   0  0  0  0  0  0
  -28.1077  -36.2605   24.6305 H   0  0  0  0  0  0
  -27.2284  -37.1438   25.8869 H   0  0  0  0  0  0
  -20.9503  -29.8744   21.6747 H   0  0  0  0  0  0
  -26.0148  -38.2793   24.1409 H   0  0  0  0  0  0
  -31.1292  -19.3522   22.0754 H   0  0  0  0  0  0
  -28.9656  -22.3620   23.7675 H   0  0  0  0  0  0
  -30.1905  -23.5816   23.9691 H   0  0  0  0  0  0
  -29.8161  -24.5162   21.8278 H   0  0  0  0  0  0
  -28.3036  -24.5257   22.6588 H   0  0  0  0  0  0
  -31.2282  -21.4415   23.2980 H   0  0  0  0  0  0
  -31.4763  -22.6251   22.0224 H   0  0  0  0  0  0
  -25.4328  -21.8135   22.4161 H   0  0  0  0  0  0
  -26.7944  -22.3963   23.3407 H   0  0  0  0  0  0
  -26.9725  -20.9884   22.2884 H   0  0  0  0  0  0
  -28.8128  -18.3536   18.0132 H   0  0  0  0  0  0
  -27.6583  -17.6115   19.1216 H   0  0  0  0  0  0
  -28.7844  -16.6134   18.2070 H   0  0  0  0  0  0
  -26.4214  -22.5000   20.3053 H   0  0  0  0  0  0
  -26.3638  -23.8642   21.3755 H   0  0  0  0  0  0
  -27.6150  -24.3508   19.0973 H   0  0  0  0  0  0
  -29.2939  -24.4810   19.3551 H   0  0  0  0  0  0
  -30.6761  -17.6846   19.3959 H   0  0  0  0  0  0
  -28.0940  -20.3441   19.3732 H   0  0  0  0  0  0
  -28.8402  -16.0250   21.0345 H   0  0  0  0  0  0
  1 25  1  0  0  0
  1 30  2  0  0  0
  1 85  1  0  0  0
  2  3  1  0  0  0
  2 25  1  0  0  0
  2 86  1  0  0  0
  2 87  1  0  0  0
  3  4  1  0  0  0
  3 88  1  0  0  0
  3 89  1  0  0  0
  4  5  1  0  0  0
  4 90  1  0  0  0
  4 91  1  0  0  0
  5  6  1  0  0  0
  5 26  1  0  0  0
  5 92  1  0  0  0
  6 25  1  0  0  0
  6 93  1  0  0  0
  6 94  1  0  0  0
  7  8  2  0  0  0
  7 26  1  0  0  0
  7 29  1  0  0  0
  8  9  1  0  0  0
  8 22  1  0  0  0
  9 10  1  0  0  0
  9 27  2  0  0  0
 10 11  2  0  0  0
 10 15  1  0  0  0
 11 12  1  0  0  0
 11 95  1  0  0  0
 12 13  2  0  0  0
 12 96  1  0  0  0
 13 14  1  0  0  0
 13 31  1  0  0  0
 14 15  2  0  0  0
 14 97  1  0  0  0
 15 98  1  0  0  0
 16 17  2  0  0  0
 16 21  1  0  0  0
 16 31  1  0  0  0
 17 18  1  0  0  0
 17 99  1  0  0  0
 18 19  2  0  0  0
 18100  1  0  0  0
 19 20  1  0  0  0
 19 24  1  0  0  0
 20 21  2  0  0  0
 20101  1  0  0  0
 21 23  1  0  0  0
 22 28  1  0  0  0
 22 32  2  0  0  0
 26 27  1  0  0  0
 28102  1  0  0  0
 28103  1  0  0  0
 29104  1  0  0  0
 29105  1  0  0  0
 33 34  1  0  0  0
 33 66  1  0  0  0
 33 70  2  0  0  0
 34 36  1  0  0  0
 34 59  1  0  0  0
 34106  1  0  0  0
 35 44  2  0  0  0
 35 45  1  0  0  0
 35 68  1  0  0  0
 36 56  1  0  0  0
 36107  1  0  0  0
 37 39  1  0  0  0
 37 47  1  0  0  0
 37 66  1  0  0  0
 37108  1  0  0  0
 38 43  2  0  0  0
 38 46  1  0  0  0
 38 47  1  0  0  0
 39 64  1  0  0  0
 39 67  2  0  0  0
 40 52  1  0  0  0
 40 53  2  0  0  0
 40 58  1  0  0  0
 41109  1  0  0  0
 41110  1  0  0  0
 41111  1  0  0  0
 41 48  1  0  0  0
 42 43  1  0  0  0
 42 66  1  0  0  0
 42112  1  0  0  0
 42113  1  0  0  0
 43 44  1  0  0  0
 44114  1  0  0  0
 45 46  2  0  0  0
 45115  1  0  0  0
 46116  1  0  0  0
 47117  1  0  0  0
 47118  1  0  0  0
 48 56  1  0  0  0
 48 65  1  0  0  0
 48119  1  0  0  0
 49 50  1  0  0  0
 49 53  1  0  0  0
 49 64  1  0  0  0
 49120  1  0  0  0
 50 51  1  0  0  0
 50121  1  0  0  0
 50122  1  0  0  0
 51 52  1  0  0  0
 51123  1  0  0  0
 51124  1  0  0  0
 52125  1  0  0  0
 52126  1  0  0  0
 53 54  1  0  0  0
 54 55  2  0  0  0
 54127  1  0  0  0
 55 57  1  0  0  0
 55128  1  0  0  0
 56 69  2  0  0  0
 57 58  2  0  0  0
 57129  1  0  0  0
 58130  1  0  0  0
 59 60  1  0  0  0
 59 61  1  0  0  0
 59 62  1  0  0  0
 60131  1  0  0  0
 60132  1  0  0  0
 60133  1  0  0  0
 61134  1  0  0  0
 61135  1  0  0  0
 61136  1  0  0  0
 62137  1  0  0  0
 62138  1  0  0  0
 62139  1  0  0  0
 63 65  1  0  0  0
 63140  1  0  0  0
 63141  1  0  0  0
 63142  1  0  0  0
 64143  1  0  0  0
 65144  1  0  0  0
 68 81  1  0  0  0
 71 72  2  0  0  0
 71 83  1  0  0  0
 71145  1  0  0  0
 72 82  1  0  0  0
 72 84  1  0  0  0
 73 77  1  0  0  0
 73 83  1  0  0  0
 73 84  2  0  0  0
 74 75  1  0  0  0
 74 76  1  0  0  0
 74146  1  0  0  0
 74147  1  0  0  0
 75 77  1  0  0  0
 75148  1  0  0  0
 75149  1  0  0  0
 76 83  1  0  0  0
 76150  1  0  0  0
 76151  1  0  0  0
 77 80  1  0  0  0
 77 81  1  0  0  0
 78 80  1  0  0  0
 78152  1  0  0  0
 78153  1  0  0  0
 78154  1  0  0  0
 79155  1  0  0  0
 79156  1  0  0  0
 79157  1  0  0  0
 79 82  1  0  0  0
 80158  1  0  0  0
 80159  1  0  0  0
 81160  1  0  0  0
 81161  1  0  0  0
 82 85  1  0  0  0
 82162  1  0  0  0
 84163  1  0  0  0
 85164  1  0  0  0
M  CHG  1  84   1
M  ISO  4   1 100  68 101  81 101  85 100
M  END
> <chiral flag>
0

> <version>
0

> <s_m_source_file>
/data/baiqing/PycharmProjects/Reinvent-master-3.2/result/LINK_invent/BTK/process_docking_weight1_custom_sum_contain_oxygen_bond_distance_aromatic_linkinvent_7_9_3/rearranged_h_0078.sdf

> <i_m_source_file_index>
36

> <r_mmod_Potential_Energy-OPLS-2005>
692.420349121094

> <r_mmod_Stretch_Energy-OPLS-2005>
360.337371826172

> <r_mmod_Bend_Energy-OPLS-2005>
365.975067138672

> <r_mmod_Torsional_Energy-OPLS-2005>
280.759307861328

> <r_mmod_Improper_Torsional_Energy-OPLS-2005>
8.28232955932617

> <r_mmod_Van_der_Waal_Energy-OPLS-2005>
109.006591796875

> <r_mmod_Electrostatic_Energy-OPLS-2005>
-268.135406494141

> <r_mmod_Solvation_Energy-OPLS-2005>
-418.303955078125

> <b_mmod_Minimization_Converged-OPLS-2005>
0

> <r_mmod_RMS_Derivative-OPLS-2005>
1.23274087905884

$$$$
36
                    3D
 Structure written by MMmdl.
181189  0  0  1  0            999 V2000
  -30.7189  -14.4925   20.6401 C   0  0  0  0  0  0
  -30.4260  -12.3405   19.4427 C   0  0  0  0  0  0
  -29.5056  -12.5320   18.2224 C   0  0  0  0  0  0
  -28.0241  -12.3809   18.6171 C   0  0  0  0  0  0
  -27.6608  -13.2097   19.8785 C   0  0  2  0  0  0
  -28.6971  -12.9963   21.0021 C   0  0  0  0  0  0
  -25.2550  -13.8050   20.5640 C   0  0  0  0  0  0
  -24.1821  -13.0360   20.9209 C   0  0  0  0  0  0
  -24.6405  -11.6844   20.8785 C   0  0  0  0  0  0
  -23.9074  -10.4244   21.0449 C   0  0  0  0  0  0
  -24.3625   -9.4164   21.9228 C   0  0  0  0  0  0
  -23.6318   -8.2190   22.0777 C   0  0  0  0  0  0
  -22.4299   -8.0244   21.3561 C   0  0  0  0  0  0
  -21.9936   -9.0196   20.4647 C   0  0  0  0  0  0
  -22.7245  -10.2081   20.3081 C   0  0  0  0  0  0
  -21.6819   -6.0742   22.5305 C   0  0  0  0  0  0
  -21.3997   -6.5660   23.8237 C   0  0  0  0  0  0
  -21.3690   -5.6810   24.9199 C   0  0  0  0  0  0
  -21.6046   -4.3075   24.7242 C   0  0  0  0  0  0
  -21.8807   -3.8160   23.4360 C   0  0  0  0  0  0
  -21.9174   -4.6976   22.3416 C   0  0  0  0  0  0
  -22.7847  -13.5196   21.1852 C   0  0  0  0  0  0
  -22.1632   -4.2178   21.0996 F   0  0  0  0  0  0
  -21.5637   -3.4559   25.7749 F   0  0  0  0  0  0
  -30.0337  -13.3196   20.4715 N   0  0  0  0  0  0
  -26.3023  -12.9277   20.3348 N   0  0  0  0  0  0
  -25.9347  -11.6432   20.5802 N   0  0  0  0  0  0
  -22.0442  -12.8203   22.0381 N   0  0  0  0  0  0
  -25.4208  -15.1704   20.3959 N   0  0  0  0  0  0
  -31.7696  -14.7242   20.0300 O   0  0  0  0  0  0
  -21.6635   -6.8866   21.4253 O   0  0  0  0  0  0
  -22.3579  -14.5523   20.6709 O   0  0  0  0  0  0
  -24.6219  -31.8664   23.2094 C   0  0  0  0  0  0
  -25.9092  -32.4809   23.8399 C   0  0  1  0  0  0
  -27.2285  -27.3881   20.0965 C   0  0  0  0  0  0
  -25.5936  -33.8610   24.2328 N   0  0  0  0  0  0
  -23.4094  -30.4937   21.5526 C   0  0  2  0  0  0
  -24.8507  -28.9593   20.1206 C   0  0  0  0  0  0
  -22.7446  -29.4669   22.4989 C   0  0  0  0  0  0
  -18.0283  -28.1385   22.8484 C   0  0  0  0  0  0
  -24.1476  -36.7294   23.2631 C   0  0  0  0  0  0
  -25.9458  -30.8187   21.3692 C   0  0  0  0  0  0
  -26.0202  -29.4531   20.7111 C   0  0  0  0  0  0
  -27.2113  -28.6792   20.6904 C   0  0  0  0  0  0
  -26.0195  -26.9224   19.5159 C   0  0  0  0  0  0
  -24.8478  -27.6941   19.5221 C   0  0  0  0  0  0
  -23.6178  -29.8327   20.1671 C   0  0  0  0  0  0
  -25.4096  -36.3099   24.0333 C   0  0  1  0  0  0
  -20.5879  -28.3672   23.1301 C   0  0  2  0  0  0
  -20.6775  -26.9401   22.5412 C   0  0  0  0  0  0
  -19.5749  -26.6378   21.5213 C   0  0  0  0  0  0
  -18.1929  -26.7931   22.1620 C   0  0  0  0  0  0
  -19.1534  -28.8840   23.2895 C   0  0  0  0  0  0
  -18.9459  -30.1447   23.8901 C   0  0  0  0  0  0
  -17.6455  -30.6582   24.0567 C   0  0  0  0  0  0
  -25.9042  -34.9470   23.5126 C   0  0  0  0  0  0
  -16.5348  -29.9080   23.6336 C   0  0  0  0  0  0
  -16.7272  -28.6502   23.0350 C   0  0  0  0  0  0
  -26.4488  -31.6590   25.0741 C   0  0  0  0  0  0
  -25.3740  -31.3690   26.1478 C   0  0  0  0  0  0
  -27.0325  -30.3026   24.6144 C   0  0  0  0  0  0
  -27.6064  -32.4306   25.7516 C   0  0  0  0  0  0
  -27.5584  -37.1787   24.8451 C   0  0  0  0  0  0
  -21.4165  -29.3043   22.3716 N   0  0  0  0  0  0
  -26.4270  -37.3798   23.9437 N   0  0  0  0  0  0
  -24.6775  -31.0744   22.1012 N   0  0  0  0  0  0
  -23.4201  -28.8213   23.3052 O   0  0  0  0  0  0
  -28.3939  -26.6187   20.1049 O   0  0  0  0  0  0
  -26.5602  -34.8927   22.4687 O   0  0  0  0  0  0
  -23.5401  -32.1445   23.7461 O   0  0  0  0  0  0
  -27.7734  -21.0501   20.6076 C   0  0  0  0  0  0
  -29.5729  -20.1186   21.4972 C   0  0  0  0  0  0
  -29.0003  -21.3482   21.2488 C   0  0  0  0  0  0
  -27.5737  -19.6962   20.5421 C   0  0  0  0  0  0
  -30.1991  -22.6453   23.0324 C   0  0  0  0  0  0
  -25.3586  -20.0165   19.3830 C   0  0  0  0  0  0
  -25.5238  -18.3686   21.1993 C   0  0  0  0  0  0
  -26.6502  -17.9669   18.9253 C   0  0  0  0  0  0
  -30.6370  -25.2964   18.8456 C   0  0  0  0  0  0
  -29.2609  -23.2975   18.4111 C   0  0  0  0  0  0
  -30.1989  -15.2780   22.8599 C   0  0  0  0  0  0
  -30.2251  -23.6776   20.7223 C   0  0  0  0  0  0
  -28.8700  -17.6609   21.4996 C   0  0  0  0  0  0
  -30.1273  -16.8945   20.9861 C   0  0  0  0  0  0
  -28.2763  -25.2238   19.7150 C   0  0  0  0  0  0
  -29.4264  -22.7554   21.7054 C   0  0  1  0  0  0
  -26.3225  -18.9949   20.0322 C   0  0  0  0  0  0
  -29.5738  -24.3728   19.4741 C   0  0  0  0  0  0
  -28.6970  -19.0912   21.1318 N   0  0  0  0  0  0
  -30.1326  -15.4562   21.4012 N   0  0  0  0  0  0
  -31.4721  -12.4403   19.1489 H   0  0  0  0  0  0
  -30.3310  -11.3271   19.8366 H   0  0  0  0  0  0
  -29.7700  -11.8179   17.4429 H   0  0  0  0  0  0
  -29.6688  -13.5227   17.7950 H   0  0  0  0  0  0
  -27.8280  -11.3218   18.7901 H   0  0  0  0  0  0
  -27.3847  -12.6704   17.7817 H   0  0  0  0  0  0
  -27.7029  -14.2626   19.5976 H   0  0  0  0  0  0
  -28.6818  -11.9598   21.3406 H   0  0  0  0  0  0
  -28.4255  -13.5870   21.8758 H   0  0  0  0  0  0
  -25.2759   -9.5644   22.4834 H   0  0  0  0  0  0
  -24.0029   -7.4575   22.7483 H   0  0  0  0  0  0
  -21.0882   -8.8675   19.8951 H   0  0  0  0  0  0
  -22.3695  -10.9620   19.6214 H   0  0  0  0  0  0
  -21.1991   -7.6165   23.9756 H   0  0  0  0  0  0
  -21.1552   -6.0547   25.9110 H   0  0  0  0  0  0
  -22.0588   -2.7628   23.2844 H   0  0  0  0  0  0
  -22.4007  -11.9867   22.4806 H   0  0  0  0  0  0
  -21.1048  -13.1244   22.2553 H   0  0  0  0  0  0
  -24.6437  -15.8126   20.4976 H   0  0  0  0  0  0
  -26.2573  -15.6023   20.0311 H   0  0  0  0  0  0
  -26.7173  -32.5484   23.1169 H   0  0  0  0  0  0
  -25.0114  -33.9771   25.0493 H   0  0  0  0  0  0
  -22.7013  -31.3127   21.4142 H   0  0  0  0  0  0
  -23.3765  -35.9594   23.3245 H   0  0  0  0  0  0
  -24.3594  -36.8964   22.2059 H   0  0  0  0  0  0
  -23.7183  -37.6460   23.6683 H   0  0  0  0  0  0
  -26.0707  -31.5842   20.6024 H   0  0  0  0  0  0
  -26.8302  -30.8651   21.9925 H   0  0  0  0  0  0
  -28.1143  -29.0617   21.1451 H   0  0  0  0  0  0
  -25.9239  -25.9547   19.0505 H   0  0  0  0  0  0
  -23.9455  -27.3001   19.0745 H   0  0  0  0  0  0
  -23.7373  -30.6106   19.4122 H   0  0  0  0  0  0
  -22.7383  -29.2608   19.8641 H   0  0  0  0  0  0
  -25.1271  -36.1945   25.0823 H   0  0  0  0  0  0
  -20.9967  -28.3228   24.1425 H   0  0  0  0  0  0
  -20.5676  -26.2279   23.3605 H   0  0  0  0  0  0
  -21.6644  -26.7447   22.1190 H   0  0  0  0  0  0
  -19.6904  -25.6289   21.1246 H   0  0  0  0  0  0
  -19.6696  -27.3192   20.6750 H   0  0  0  0  0  0
  -17.4204  -26.6696   21.4017 H   0  0  0  0  0  0
  -18.0316  -26.0067   22.9007 H   0  0  0  0  0  0
  -19.7929  -30.7271   24.2275 H   0  0  0  0  0  0
  -17.5006  -31.6269   24.5153 H   0  0  0  0  0  0
  -15.5350  -30.2980   23.7660 H   0  0  0  0  0  0
  -15.8672  -28.0823   22.7061 H   0  0  0  0  0  0
  -24.5954  -30.6993   25.7812 H   0  0  0  0  0  0
  -24.8892  -32.2833   26.4913 H   0  0  0  0  0  0
  -25.8090  -30.8883   27.0250 H   0  0  0  0  0  0
  -26.2882  -29.6787   24.1182 H   0  0  0  0  0  0
  -27.4066  -29.7268   25.4621 H   0  0  0  0  0  0
  -27.8737  -30.4344   23.9335 H   0  0  0  0  0  0
  -27.2697  -33.3616   26.2097 H   0  0  0  0  0  0
  -28.3888  -32.6839   25.0345 H   0  0  0  0  0  0
  -28.0719  -31.8417   26.5434 H   0  0  0  0  0  0
  -28.2537  -38.0151   24.7609 H   0  0  0  0  0  0
  -28.1156  -36.2699   24.6132 H   0  0  0  0  0  0
  -27.2336  -37.1248   25.8856 H   0  0  0  0  0  0
  -20.9335  -29.8767   21.6931 H   0  0  0  0  0  0
  -26.0148  -38.2854   24.1520 H   0  0  0  0  0  0
  -27.0534  -21.7923   20.2966 H   0  0  0  0  0  0
  -30.4946  -19.8801   22.0121 H   0  0  0  0  0  0
  -29.6194  -22.1062   23.7822 H   0  0  0  0  0  0
  -30.4278  -23.6275   23.4484 H   0  0  0  0  0  0
  -31.1432  -22.1162   22.8947 H   0  0  0  0  0  0
  -25.0288  -20.7703   20.0994 H   0  0  0  0  0  0
  -24.4550  -19.5364   19.0037 H   0  0  0  0  0  0
  -25.8263  -20.5366   18.5450 H   0  0  0  0  0  0
  -25.2532  -19.1247   21.9376 H   0  0  0  0  0  0
  -26.0554  -17.5929   21.7416 H   0  0  0  0  0  0
  -24.5940  -17.9216   20.8489 H   0  0  0  0  0  0
  -27.1581  -18.4515   18.0912 H   0  0  0  0  0  0
  -25.7408  -17.5195   18.5233 H   0  0  0  0  0  0
  -27.2849  -17.1455   19.2439 H   0  0  0  0  0  0
  -31.5302  -24.7381   18.5603 H   0  0  0  0  0  0
  -30.9494  -26.0811   19.5366 H   0  0  0  0  0  0
  -30.2591  -25.7878   17.9475 H   0  0  0  0  0  0
  -30.1303  -22.6756   18.1967 H   0  0  0  0  0  0
  -28.9443  -23.7439   17.4671 H   0  0  0  0  0  0
  -28.4530  -22.6435   18.7202 H   0  0  0  0  0  0
  -29.2065  -15.3690   23.3014 H   0  0  0  0  0  0
  -30.8467  -16.0223   23.3243 H   0  0  0  0  0  0
  -30.5915  -14.3009   23.1473 H   0  0  0  0  0  0
  -31.1075  -23.1235   20.3983 H   0  0  0  0  0  0
  -30.6232  -24.4962   21.3249 H   0  0  0  0  0  0
  -28.8579  -17.6307   22.5890 H   0  0  0  0  0  0
  -28.0000  -17.0924   21.2050 H   0  0  0  0  0  0
  -31.0382  -17.3825   21.3340 H   0  0  0  0  0  0
  -30.1545  -16.9536   19.8971 H   0  0  0  0  0  0
  -27.5976  -24.7072   20.3944 H   0  0  0  0  0  0
  -27.7956  -25.2321   18.7385 H   0  0  0  0  0  0
  -28.4999  -23.2783   21.9435 H   0  0  0  0  0  0
  1 25  1  0  0  0
  1 30  2  0  0  0
  1 90  1  0  0  0
  2  3  1  0  0  0
  2 25  1  0  0  0
  2 91  1  0  0  0
  2 92  1  0  0  0
  3  4  1  0  0  0
  3 93  1  0  0  0
  3 94  1  0  0  0
  4  5  1  0  0  0
  4 95  1  0  0  0
  4 96  1  0  0  0
  5  6  1  0  0  0
  5 26  1  0  0  0
  5 97  1  0  0  0
  6 25  1  0  0  0
  6 98  1  0  0  0
  6 99  1  0  0  0
  7  8  2  0  0  0
  7 26  1  0  0  0
  7 29  1  0  0  0
  8  9  1  0  0  0
  8 22  1  0  0  0
  9 10  1  0  0  0
  9 27  2  0  0  0
 10 11  2  0  0  0
 10 15  1  0  0  0
 11 12  1  0  0  0
 11100  1  0  0  0
 12 13  2  0  0  0
 12101  1  0  0  0
 13 14  1  0  0  0
 13 31  1  0  0  0
 14 15  2  0  0  0
 14102  1  0  0  0
 15103  1  0  0  0
 16 17  2  0  0  0
 16 21  1  0  0  0
 16 31  1  0  0  0
 17 18  1  0  0  0
 17104  1  0  0  0
 18 19  2  0  0  0
 18105  1  0  0  0
 19 20  1  0  0  0
 19 24  1  0  0  0
 20 21  2  0  0  0
 20106  1  0  0  0
 21 23  1  0  0  0
 22 28  1  0  0  0
 22 32  2  0  0  0
 26 27  1  0  0  0
 28107  1  0  0  0
 28108  1  0  0  0
 29109  1  0  0  0
 29110  1  0  0  0
 33 34  1  0  0  0
 33 66  1  0  0  0
 33 70  2  0  0  0
 34 36  1  0  0  0
 34 59  1  0  0  0
 34111  1  0  0  0
 35 44  2  0  0  0
 35 45  1  0  0  0
 35 68  1  0  0  0
 36 56  1  0  0  0
 36112  1  0  0  0
 37 39  1  0  0  0
 37 47  1  0  0  0
 37 66  1  0  0  0
 37113  1  0  0  0
 38 43  2  0  0  0
 38 46  1  0  0  0
 38 47  1  0  0  0
 39 64  1  0  0  0
 39 67  2  0  0  0
 40 52  1  0  0  0
 40 53  2  0  0  0
 40 58  1  0  0  0
 41114  1  0  0  0
 41115  1  0  0  0
 41116  1  0  0  0
 41 48  1  0  0  0
 42 43  1  0  0  0
 42 66  1  0  0  0
 42117  1  0  0  0
 42118  1  0  0  0
 43 44  1  0  0  0
 44119  1  0  0  0
 45 46  2  0  0  0
 45120  1  0  0  0
 46121  1  0  0  0
 47122  1  0  0  0
 47123  1  0  0  0
 48 56  1  0  0  0
 48 65  1  0  0  0
 48124  1  0  0  0
 49 50  1  0  0  0
 49 53  1  0  0  0
 49 64  1  0  0  0
 49125  1  0  0  0
 50 51  1  0  0  0
 50126  1  0  0  0
 50127  1  0  0  0
 51 52  1  0  0  0
 51128  1  0  0  0
 51129  1  0  0  0
 52130  1  0  0  0
 52131  1  0  0  0
 53 54  1  0  0  0
 54 55  2  0  0  0
 54132  1  0  0  0
 55 57  1  0  0  0
 55133  1  0  0  0
 56 69  2  0  0  0
 57 58  2  0  0  0
 57134  1  0  0  0
 58135  1  0  0  0
 59 60  1  0  0  0
 59 61  1  0  0  0
 59 62  1  0  0  0
 60136  1  0  0  0
 60137  1  0  0  0
 60138  1  0  0  0
 61139  1  0  0  0
 61140  1  0  0  0
 61141  1  0  0  0
 62142  1  0  0  0
 62143  1  0  0  0
 62144  1  0  0  0
 63 65  1  0  0  0
 63145  1  0  0  0
 63146  1  0  0  0
 63147  1  0  0  0
 64148  1  0  0  0
 65149  1  0  0  0
 68 85  1  0  0  0
 71 73  1  0  0  0
 71 74  2  0  0  0
 71150  1  0  0  0
 72 73  2  0  0  0
 72 89  1  0  0  0
 72151  1  0  0  0
 73 86  1  0  0  0
 74 87  1  0  0  0
 74 89  1  0  0  0
 75152  1  0  0  0
 75153  1  0  0  0
 75154  1  0  0  0
 75 86  1  0  0  0
 76155  1  0  0  0
 76156  1  0  0  0
 76157  1  0  0  0
 76 87  1  0  0  0
 77 87  1  0  0  0
 77158  1  0  0  0
 77159  1  0  0  0
 77160  1  0  0  0
 78 87  1  0  0  0
 78161  1  0  0  0
 78162  1  0  0  0
 78163  1  0  0  0
 79164  1  0  0  0
 79165  1  0  0  0
 79166  1  0  0  0
 79 88  1  0  0  0
 80 88  1  0  0  0
 80167  1  0  0  0
 80168  1  0  0  0
 80169  1  0  0  0
 81 90  1  0  0  0
 81170  1  0  0  0
 81171  1  0  0  0
 81172  1  0  0  0
 82 86  1  0  0  0
 82 88  1  0  0  0
 82173  1  0  0  0
 82174  1  0  0  0
 83 84  1  0  0  0
 83 89  1  0  0  0
 83175  1  0  0  0
 83176  1  0  0  0
 84 90  1  0  0  0
 84177  1  0  0  0
 84178  1  0  0  0
 85 88  1  0  0  0
 85179  1  0  0  0
 85180  1  0  0  0
 86181  1  0  0  0
M  ISO  4   1 100  68 101  85 101  90 100
M  END
> <chiral flag>
0

> <version>
0

> <s_m_source_file>
/data/baiqing/PycharmProjects/Reinvent-master-3.2/result/LINK_invent/BTK/process_docking_weight1_custom_sum_contain_oxygen_bond_distance_aromatic_linkinvent_7_9_3/rearranged_h_0078.sdf

> <i_m_source_file_index>
37

> <r_mmod_Potential_Energy-OPLS-2005>
152.741714477539

> <r_mmod_Stretch_Energy-OPLS-2005>
57.4803009033203

> <r_mmod_Bend_Energy-OPLS-2005>
164.059005737305

> <r_mmod_Torsional_Energy-OPLS-2005>
308.550415039062

> <r_mmod_Improper_Torsional_Energy-OPLS-2005>
8.09770393371582

> <r_mmod_Van_der_Waal_Energy-OPLS-2005>
140.740036010742

> <r_mmod_Electrostatic_Energy-OPLS-2005>
-370.338653564453

> <r_mmod_Solvation_Energy-OPLS-2005>
-173.231323242188

> <b_mmod_Minimization_Converged-OPLS-2005>
0

> <r_mmod_RMS_Derivative-OPLS-2005>
2.90985178947449

$$$$
37
                    3D
 Structure written by MMmdl.
155163  0  0  1  0            999 V2000
  -30.5199  -14.9802   20.4081 C   0  0  0  0  0  0
  -30.4396  -12.6048   19.5093 C   0  0  0  0  0  0
  -29.5255  -12.5421   18.2626 C   0  0  0  0  0  0
  -28.0586  -12.3213   18.6762 C   0  0  0  0  0  0
  -27.6300  -13.2510   19.8411 C   0  0  2  0  0  0
  -28.6694  -13.2840   20.9823 C   0  0  0  0  0  0
  -25.2454  -13.8206   20.5703 C   0  0  0  0  0  0
  -24.1772  -13.0425   20.9218 C   0  0  0  0  0  0
  -24.6396  -11.6917   20.8738 C   0  0  0  0  0  0
  -23.9074  -10.4288   21.0391 C   0  0  0  0  0  0
  -24.3620   -9.4208   21.9177 C   0  0  0  0  0  0
  -23.6296   -8.2244   22.0754 C   0  0  0  0  0  0
  -22.4280   -8.0278   21.3546 C   0  0  0  0  0  0
  -21.9916   -9.0245   20.4637 C   0  0  0  0  0  0
  -22.7241  -10.2127   20.3042 C   0  0  0  0  0  0
  -21.6857   -6.0730   22.5278 C   0  0  0  0  0  0
  -21.4014   -6.5633   23.8213 C   0  0  0  0  0  0
  -21.3662   -5.6787   24.9175 C   0  0  0  0  0  0
  -21.6047   -4.3050   24.7223 C   0  0  0  0  0  0
  -21.8820   -3.8143   23.4345 C   0  0  0  0  0  0
  -21.9197   -4.6961   22.3402 C   0  0  0  0  0  0
  -22.7793  -13.5199   21.1872 C   0  0  0  0  0  0
  -22.1668   -4.2149   21.0979 F   0  0  0  0  0  0
  -21.5630   -3.4530   25.7731 F   0  0  0  0  0  0
  -29.9447  -13.7062   20.3890 N   0  0  0  0  0  0
  -26.2884  -12.9450   20.3239 N   0  0  0  0  0  0
  -25.9336  -11.6575   20.5728 N   0  0  0  0  0  0
  -22.0440  -12.8175   22.0419 N   0  0  0  0  0  0
  -25.4106  -15.1933   20.4134 N   0  0  0  0  0  0
  -31.7145  -15.0532   20.0996 O   0  0  0  0  0  0
  -21.6649   -6.8872   21.4241 O   0  0  0  0  0  0
  -22.3471  -14.5507   20.6727 O   0  0  0  0  0  0
  -24.6463  -31.8397   23.1838 C   0  0  0  0  0  0
  -25.9221  -32.4666   23.8242 C   0  0  1  0  0  0
  -27.2235  -27.0978   20.1497 C   0  0  0  0  0  0
  -25.5951  -33.8476   24.2157 N   0  0  0  0  0  0
  -23.4514  -30.4559   21.5308 C   0  0  2  0  0  0
  -24.9000  -28.8726   20.1089 C   0  0  0  0  0  0
  -22.7580  -29.4521   22.4861 C   0  0  0  0  0  0
  -18.0304  -28.1395   22.8481 C   0  0  0  0  0  0
  -24.1495  -36.7240   23.2646 C   0  0  0  0  0  0
  -26.0094  -30.6998   21.3880 C   0  0  0  0  0  0
  -26.0773  -29.3080   20.7275 C   0  0  0  0  0  0
  -27.2335  -28.4369   20.7282 C   0  0  0  0  0  0
  -26.0112  -26.7638   19.5087 C   0  0  0  0  0  0
  -24.8816  -27.6151   19.4850 C   0  0  0  0  0  0
  -23.6779  -29.7792   20.1518 C   0  0  0  0  0  0
  -25.4132  -36.3016   24.0312 C   0  0  1  0  0  0
  -20.5919  -28.3720   23.1240 C   0  0  2  0  0  0
  -20.6790  -26.9421   22.5415 C   0  0  0  0  0  0
  -19.5764  -26.6377   21.5223 C   0  0  0  0  0  0
  -18.1943  -26.7934   22.1629 C   0  0  0  0  0  0
  -19.1561  -28.8879   23.2847 C   0  0  0  0  0  0
  -18.9475  -30.1476   23.8869 C   0  0  0  0  0  0
  -17.6471  -30.6590   24.0559 C   0  0  0  0  0  0
  -25.9085  -34.9392   23.5051 C   0  0  0  0  0  0
  -16.5362  -29.9081   23.6339 C   0  0  0  0  0  0
  -16.7289  -28.6501   23.0359 C   0  0  0  0  0  0
  -26.4526  -31.6553   25.0706 C   0  0  0  0  0  0
  -25.3694  -31.3756   26.1388 C   0  0  0  0  0  0
  -27.0409  -30.2945   24.6324 C   0  0  0  0  0  0
  -27.6045  -32.4333   25.7491 C   0  0  0  0  0  0
  -27.5576  -37.1781   24.8466 C   0  0  0  0  0  0
  -21.4271  -29.3032   22.3605 N   0  0  0  0  0  0
  -26.4291  -37.3735   23.9402 N   0  0  0  0  0  0
  -24.7225  -31.0213   22.0888 N   0  0  0  0  0  0
  -23.4206  -28.8088   23.3038 O   0  0  0  0  0  0
  -28.3153  -26.1460   20.2516 O   0  0  0  0  0  0
  -26.5684  -34.8899   22.4637 O   0  0  0  0  0  0
  -23.5576  -32.1292   23.7036 O   0  0  0  0  0  0
  -28.0982  -20.2863   22.3156 C   0  0  0  0  0  0
  -29.0759  -18.8213   21.1045 C   0  0  0  0  0  0
  -27.5682  -21.4904   23.0250 C   0  0  0  0  0  0
  -27.9894  -24.4349   18.3471 C   0  0  0  0  0  0
  -29.9047  -17.7151   20.2383 C   0  0  0  0  0  0
  -28.3789  -23.1836   20.6423 C   0  0  0  0  0  0
  -28.9868  -21.6070   20.2607 C   0  0  0  0  0  0
  -28.4956  -24.6446   19.7805 C   0  0  2  0  0  0
  -27.9203  -19.1155   22.9201 N   0  0  0  0  0  0
  -28.5302  -18.1944   22.1532 N   0  0  0  0  0  0
  -28.7687  -20.2628   21.1191 N   0  0  0  0  0  0
  -29.7251  -16.1553   20.5602 N   0  0  0  0  0  0
  -31.4751  -12.7594   19.2024 H   0  0  0  0  0  0
  -30.4295  -11.6529   20.0424 H   0  0  0  0  0  0
  -29.8511  -11.7457   17.5919 H   0  0  0  0  0  0
  -29.6109  -13.4726   17.6990 H   0  0  0  0  0  0
  -27.9581  -11.2791   18.9806 H   0  0  0  0  0  0
  -27.3962  -12.4525   17.8194 H   0  0  0  0  0  0
  -27.5922  -14.2529   19.4132 H   0  0  0  0  0  0
  -28.7591  -12.3081   21.4620 H   0  0  0  0  0  0
  -28.3616  -13.9834   21.7607 H   0  0  0  0  0  0
  -25.2758   -9.5697   22.4758 H   0  0  0  0  0  0
  -24.0008   -7.4639   22.7478 H   0  0  0  0  0  0
  -21.0856   -8.8755   19.8932 H   0  0  0  0  0  0
  -22.3693  -10.9666   19.6157 H   0  0  0  0  0  0
  -21.2000   -7.6142   23.9719 H   0  0  0  0  0  0
  -21.1486   -6.0514   25.9080 H   0  0  0  0  0  0
  -22.0597   -2.7605   23.2845 H   0  0  0  0  0  0
  -22.4058  -11.9837   22.4800 H   0  0  0  0  0  0
  -21.1048  -13.1185   22.2600 H   0  0  0  0  0  0
  -24.6452  -15.8452   20.5449 H   0  0  0  0  0  0
  -26.2520  -15.6389   20.0716 H   0  0  0  0  0  0
  -26.7286  -32.5251   23.0963 H   0  0  0  0  0  0
  -25.0044  -33.9583   25.0269 H   0  0  0  0  0  0
  -22.7559  -31.2828   21.3730 H   0  0  0  0  0  0
  -23.3765  -35.9562   23.3296 H   0  0  0  0  0  0
  -24.3578  -36.8889   22.2062 H   0  0  0  0  0  0
  -23.7242  -37.6429   23.6695 H   0  0  0  0  0  0
  -26.1748  -31.4541   20.6176 H   0  0  0  0  0  0
  -26.8765  -30.7462   22.0357 H   0  0  0  0  0  0
  -28.1315  -28.7672   21.2312 H   0  0  0  0  0  0
  -25.8879  -25.7969   19.0556 H   0  0  0  0  0  0
  -23.9787  -27.2713   18.9996 H   0  0  0  0  0  0
  -23.8137  -30.5508   19.3934 H   0  0  0  0  0  0
  -22.7920  -29.2204   19.8444 H   0  0  0  0  0  0
  -25.1324  -36.1841   25.0806 H   0  0  0  0  0  0
  -21.0005  -28.3313   24.1366 H   0  0  0  0  0  0
  -20.5691  -26.2332   23.3636 H   0  0  0  0  0  0
  -21.6655  -26.7430   22.1210 H   0  0  0  0  0  0
  -19.6927  -25.6282   21.1269 H   0  0  0  0  0  0
  -19.6703  -27.3177   20.6746 H   0  0  0  0  0  0
  -17.4216  -26.6682   21.4027 H   0  0  0  0  0  0
  -18.0331  -26.0081   22.9029 H   0  0  0  0  0  0
  -19.7948  -30.7302   24.2224 H   0  0  0  0  0  0
  -17.5019  -31.6270   24.5160 H   0  0  0  0  0  0
  -15.5359  -30.2969   23.7681 H   0  0  0  0  0  0
  -15.8690  -28.0810   22.7088 H   0  0  0  0  0  0
  -24.5876  -30.7105   25.7698 H   0  0  0  0  0  0
  -24.8877  -32.2943   26.4746 H   0  0  0  0  0  0
  -25.7955  -30.8966   27.0212 H   0  0  0  0  0  0
  -26.3047  -29.6644   24.1318 H   0  0  0  0  0  0
  -27.3998  -29.7266   25.4919 H   0  0  0  0  0  0
  -27.8960  -30.4175   23.9672 H   0  0  0  0  0  0
  -27.2627  -33.3653   26.2002 H   0  0  0  0  0  0
  -28.3882  -32.6861   25.0338 H   0  0  0  0  0  0
  -28.0681  -31.8507   26.5462 H   0  0  0  0  0  0
  -28.2588  -38.0084   24.7511 H   0  0  0  0  0  0
  -28.1080  -36.2612   24.6299 H   0  0  0  0  0  0
  -27.2292  -37.1432   25.8869 H   0  0  0  0  0  0
  -20.9496  -29.8708   21.6744 H   0  0  0  0  0  0
  -26.0155  -38.2804   24.1394 H   0  0  0  0  0  0
  -26.7498  -21.9467   22.4749 H   0  0  0  0  0  0
  -28.3645  -22.1998   23.2370 H   0  0  0  0  0  0
  -27.1584  -21.2036   23.9944 H   0  0  0  0  0  0
  -26.9430  -24.1369   18.3220 H   0  0  0  0  0  0
  -28.5454  -23.6326   17.8611 H   0  0  0  0  0  0
  -28.1185  -25.3307   17.7397 H   0  0  0  0  0  0
  -29.6566  -17.8694   19.1883 H   0  0  0  0  0  0
  -30.9644  -17.9539   20.3290 H   0  0  0  0  0  0
  -28.8066  -23.4467   21.6057 H   0  0  0  0  0  0
  -27.3080  -23.0744   20.7936 H   0  0  0  0  0  0
  -30.0663  -21.7081   20.1462 H   0  0  0  0  0  0
  -28.6274  -21.3720   19.2587 H   0  0  0  0  0  0
  -29.5767  -24.6853   19.6417 H   0  0  0  0  0  0
  -28.7880  -15.9503   20.8717 H   0  0  0  0  0  0
  1 25  1  0  0  0
  1 30  2  0  0  0
  1 82  1  0  0  0
  2  3  1  0  0  0
  2 25  1  0  0  0
  2 83  1  0  0  0
  2 84  1  0  0  0
  3  4  1  0  0  0
  3 85  1  0  0  0
  3 86  1  0  0  0
  4  5  1  0  0  0
  4 87  1  0  0  0
  4 88  1  0  0  0
  5  6  1  0  0  0
  5 26  1  0  0  0
  5 89  1  0  0  0
  6 25  1  0  0  0
  6 90  1  0  0  0
  6 91  1  0  0  0
  7  8  2  0  0  0
  7 26  1  0  0  0
  7 29  1  0  0  0
  8  9  1  0  0  0
  8 22  1  0  0  0
  9 10  1  0  0  0
  9 27  2  0  0  0
 10 11  2  0  0  0
 10 15  1  0  0  0
 11 12  1  0  0  0
 11 92  1  0  0  0
 12 13  2  0  0  0
 12 93  1  0  0  0
 13 14  1  0  0  0
 13 31  1  0  0  0
 14 15  2  0  0  0
 14 94  1  0  0  0
 15 95  1  0  0  0
 16 17  2  0  0  0
 16 21  1  0  0  0
 16 31  1  0  0  0
 17 18  1  0  0  0
 17 96  1  0  0  0
 18 19  2  0  0  0
 18 97  1  0  0  0
 19 20  1  0  0  0
 19 24  1  0  0  0
 20 21  2  0  0  0
 20 98  1  0  0  0
 21 23  1  0  0  0
 22 28  1  0  0  0
 22 32  2  0  0  0
 26 27  1  0  0  0
 28 99  1  0  0  0
 28100  1  0  0  0
 29101  1  0  0  0
 29102  1  0  0  0
 33 34  1  0  0  0
 33 66  1  0  0  0
 33 70  2  0  0  0
 34 36  1  0  0  0
 34 59  1  0  0  0
 34103  1  0  0  0
 35 44  2  0  0  0
 35 45  1  0  0  0
 35 68  1  0  0  0
 36 56  1  0  0  0
 36104  1  0  0  0
 37 39  1  0  0  0
 37 47  1  0  0  0
 37 66  1  0  0  0
 37105  1  0  0  0
 38 43  2  0  0  0
 38 46  1  0  0  0
 38 47  1  0  0  0
 39 64  1  0  0  0
 39 67  2  0  0  0
 40 52  1  0  0  0
 40 53  2  0  0  0
 40 58  1  0  0  0
 41106  1  0  0  0
 41107  1  0  0  0
 41108  1  0  0  0
 41 48  1  0  0  0
 42 43  1  0  0  0
 42 66  1  0  0  0
 42109  1  0  0  0
 42110  1  0  0  0
 43 44  1  0  0  0
 44111  1  0  0  0
 45 46  2  0  0  0
 45112  1  0  0  0
 46113  1  0  0  0
 47114  1  0  0  0
 47115  1  0  0  0
 48 56  1  0  0  0
 48 65  1  0  0  0
 48116  1  0  0  0
 49 50  1  0  0  0
 49 53  1  0  0  0
 49 64  1  0  0  0
 49117  1  0  0  0
 50 51  1  0  0  0
 50118  1  0  0  0
 50119  1  0  0  0
 51 52  1  0  0  0
 51120  1  0  0  0
 51121  1  0  0  0
 52122  1  0  0  0
 52123  1  0  0  0
 53 54  1  0  0  0
 54 55  2  0  0  0
 54124  1  0  0  0
 55 57  1  0  0  0
 55125  1  0  0  0
 56 69  2  0  0  0
 57 58  2  0  0  0
 57126  1  0  0  0
 58127  1  0  0  0
 59 60  1  0  0  0
 59 61  1  0  0  0
 59 62  1  0  0  0
 60128  1  0  0  0
 60129  1  0  0  0
 60130  1  0  0  0
 61131  1  0  0  0
 61132  1  0  0  0
 61133  1  0  0  0
 62134  1  0  0  0
 62135  1  0  0  0
 62136  1  0  0  0
 63 65  1  0  0  0
 63137  1  0  0  0
 63138  1  0  0  0
 63139  1  0  0  0
 64140  1  0  0  0
 65141  1  0  0  0
 68 78  1  0  0  0
 71 73  1  0  0  0
 71 79  2  0  0  0
 71 81  1  0  0  0
 72 75  1  0  0  0
 72 80  2  0  0  0
 72 81  1  0  0  0
 73142  1  0  0  0
 73143  1  0  0  0
 73144  1  0  0  0
 74145  1  0  0  0
 74146  1  0  0  0
 74147  1  0  0  0
 74 78  1  0  0  0
 75 82  1  0  0  0
 75148  1  0  0  0
 75149  1  0  0  0
 76 77  1  0  0  0
 76 78  1  0  0  0
 76150  1  0  0  0
 76151  1  0  0  0
 77 81  1  0  0  0
 77152  1  0  0  0
 77153  1  0  0  0
 78154  1  0  0  0
 79 80  1  0  0  0
 82155  1  0  0  0
M  ISO  4   1 100  68 101  78 101  82 100
M  END
> <chiral flag>
0

> <version>
0

> <s_m_source_file>
/data/baiqing/PycharmProjects/Reinvent-master-3.2/result/LINK_invent/BTK/process_docking_weight1_custom_sum_contain_oxygen_bond_distance_aromatic_linkinvent_7_9_3/rearranged_h_0078.sdf

> <i_m_source_file_index>
38

> <r_mmod_Potential_Energy-OPLS-2005>
566.841186523438

> <r_mmod_Stretch_Energy-OPLS-2005>
338.614288330078

> <r_mmod_Bend_Energy-OPLS-2005>
386.012298583984

> <r_mmod_Torsional_Energy-OPLS-2005>
212.332138061523

> <r_mmod_Improper_Torsional_Energy-OPLS-2005>
4.76898145675659

> <r_mmod_Van_der_Waal_Energy-OPLS-2005>
119.256126403809

> <r_mmod_Electrostatic_Energy-OPLS-2005>
-471.501861572266

> <r_mmod_Solvation_Energy-OPLS-2005>
-237.11897277832

> <b_mmod_Minimization_Converged-OPLS-2005>
0

> <r_mmod_RMS_Derivative-OPLS-2005>
0.90555864572525

$$$$
38
                    3D
 Structure written by MMmdl.
164172  0  0  1  0            999 V2000
  -30.6914  -14.4979   20.5761 C   0  0  0  0  0  0
  -30.4347  -12.3364   19.3951 C   0  0  0  0  0  0
  -29.4962  -12.5264   18.1855 C   0  0  0  0  0  0
  -28.0170  -12.3856   18.6024 C   0  0  0  0  0  0
  -27.6632  -13.2127   19.8679 C   0  0  2  0  0  0
  -28.7128  -12.9901   20.9791 C   0  0  0  0  0  0
  -25.2613  -13.8172   20.5691 C   0  0  0  0  0  0
  -24.1872  -13.0441   20.9197 C   0  0  0  0  0  0
  -24.6436  -11.6908   20.8732 C   0  0  0  0  0  0
  -23.9117  -10.4288   21.0404 C   0  0  0  0  0  0
  -24.3656   -9.4194   21.9190 C   0  0  0  0  0  0
  -23.6313   -8.2241   22.0762 C   0  0  0  0  0  0
  -22.4291   -8.0295   21.3561 C   0  0  0  0  0  0
  -21.9948   -9.0271   20.4658 C   0  0  0  0  0  0
  -22.7287  -10.2144   20.3053 C   0  0  0  0  0  0
  -21.6855   -6.0745   22.5288 C   0  0  0  0  0  0
  -21.4008   -6.5646   23.8220 C   0  0  0  0  0  0
  -21.3660   -5.6799   24.9187 C   0  0  0  0  0  0
  -21.6052   -4.3063   24.7227 C   0  0  0  0  0  0
  -21.8820   -3.8156   23.4346 C   0  0  0  0  0  0
  -21.9194   -4.6979   22.3411 C   0  0  0  0  0  0
  -22.7884  -13.5231   21.1843 C   0  0  0  0  0  0
  -22.1653   -4.2174   21.0986 F   0  0  0  0  0  0
  -21.5646   -3.4542   25.7734 F   0  0  0  0  0  0
  -30.0347  -13.3163   20.4176 N   0  0  0  0  0  0
  -26.3057  -12.9347   20.3337 N   0  0  0  0  0  0
  -25.9366  -11.6503   20.5741 N   0  0  0  0  0  0
  -22.0498  -12.8231   22.0391 N   0  0  0  0  0  0
  -25.4358  -15.1895   20.4101 N   0  0  0  0  0  0
  -31.8334  -14.6974   20.1518 O   0  0  0  0  0  0
  -21.6647   -6.8892   21.4245 O   0  0  0  0  0  0
  -22.3568  -14.5536   20.6683 O   0  0  0  0  0  0
  -24.6212  -31.8665   23.2054 C   0  0  0  0  0  0
  -25.9093  -32.4801   23.8351 C   0  0  1  0  0  0
  -27.2186  -27.3709   20.0928 C   0  0  0  0  0  0
  -25.5957  -33.8609   24.2288 N   0  0  0  0  0  0
  -23.4097  -30.4928   21.5470 C   0  0  2  0  0  0
  -24.8510  -28.9544   20.1128 C   0  0  0  0  0  0
  -22.7453  -29.4649   22.4934 C   0  0  0  0  0  0
  -18.0291  -28.1399   22.8475 C   0  0  0  0  0  0
  -24.1488  -36.7293   23.2631 C   0  0  0  0  0  0
  -25.9474  -30.8094   21.3714 C   0  0  0  0  0  0
  -26.0163  -29.4382   20.7185 C   0  0  0  0  0  0
  -27.1987  -28.6504   20.7147 C   0  0  0  0  0  0
  -26.0297  -26.9341   19.4645 C   0  0  0  0  0  0
  -24.8529  -27.7005   19.4862 C   0  0  0  0  0  0
  -23.6203  -29.8317   20.1608 C   0  0  0  0  0  0
  -25.4113  -36.3091   24.0312 C   0  0  1  0  0  0
  -20.5890  -28.3689   23.1307 C   0  0  2  0  0  0
  -20.6772  -26.9417   22.5421 C   0  0  0  0  0  0
  -19.5731  -26.6393   21.5234 C   0  0  0  0  0  0
  -18.1914  -26.7939   22.1627 C   0  0  0  0  0  0
  -19.1541  -28.8857   23.2884 C   0  0  0  0  0  0
  -18.9464  -30.1467   23.8880 C   0  0  0  0  0  0
  -17.6459  -30.6586   24.0571 C   0  0  0  0  0  0
  -25.9056  -34.9464   23.5085 C   0  0  0  0  0  0
  -16.5348  -29.9083   23.6341 C   0  0  0  0  0  0
  -16.7281  -28.6524   23.0321 C   0  0  0  0  0  0
  -26.4500  -31.6616   25.0715 C   0  0  0  0  0  0
  -25.3738  -31.3740   26.1444 C   0  0  0  0  0  0
  -27.0335  -30.3039   24.6154 C   0  0  0  0  0  0
  -27.6074  -32.4358   25.7475 C   0  0  0  0  0  0
  -27.5565  -37.1794   24.8464 C   0  0  0  0  0  0
  -21.4181  -29.3048   22.3695 N   0  0  0  0  0  0
  -26.4284  -37.3790   23.9404 N   0  0  0  0  0  0
  -24.6770  -31.0726   22.0988 N   0  0  0  0  0  0
  -23.4221  -28.8191   23.2976 O   0  0  0  0  0  0
  -28.3644  -26.5781   20.1347 O   0  0  0  0  0  0
  -26.5614  -34.8933   22.4651 O   0  0  0  0  0  0
  -23.5389  -32.1450   23.7426 O   0  0  0  0  0  0
  -30.3285  -23.3467   20.7532 C   0  0  0  0  0  0
  -28.7543  -21.5478   20.5305 C   0  0  0  0  0  0
  -29.0313  -22.9390   20.3788 C   0  0  0  0  0  0
  -31.2567  -22.3971   21.2240 C   0  0  0  0  0  0
  -29.7335  -20.6531   21.0230 C   0  0  0  0  0  0
  -32.6441  -22.8314   21.6544 C   0  0  0  0  0  0
  -26.9554  -24.1331   21.0773 C   0  0  0  0  0  0
  -27.1544  -23.2785   18.7354 C   0  0  0  0  0  0
  -29.3881  -19.1977   21.4024 C   0  0  0  0  0  0
  -30.2042  -18.0409   20.7376 C   0  0  0  0  0  0
  -30.4130  -16.7898   21.6574 C   0  0  0  0  0  0
  -28.4554  -25.3531   19.3436 C   0  0  0  0  0  0
  -27.9335  -23.9452   19.8999 C   0  0  0  0  0  0
  -30.9688  -21.0830   21.3633 N   0  0  0  0  0  0
  -29.9622  -15.4855   21.1356 N   0  0  0  0  0  0
  -31.4754  -12.4596   19.0853 H   0  0  0  0  0  0
  -30.3539  -11.3192   19.7843 H   0  0  0  0  0  0
  -29.7292  -11.8031   17.4030 H   0  0  0  0  0  0
  -29.6644  -13.5114   17.7457 H   0  0  0  0  0  0
  -27.8190  -11.3284   18.7807 H   0  0  0  0  0  0
  -27.3727  -12.6816   17.7729 H   0  0  0  0  0  0
  -27.7058  -14.2630   19.5793 H   0  0  0  0  0  0
  -28.7041  -11.9499   21.3042 H   0  0  0  0  0  0
  -28.4790  -13.5753   21.8706 H   0  0  0  0  0  0
  -25.2798   -9.5671   22.4781 H   0  0  0  0  0  0
  -24.0031   -7.4626   22.7477 H   0  0  0  0  0  0
  -21.0886   -8.8779   19.8957 H   0  0  0  0  0  0
  -22.3738  -10.9688   19.6170 H   0  0  0  0  0  0
  -21.1969   -7.6149   23.9735 H   0  0  0  0  0  0
  -21.1493   -6.0523   25.9092 H   0  0  0  0  0  0
  -22.0599   -2.7623   23.2842 H   0  0  0  0  0  0
  -22.4076  -11.9873   22.4771 H   0  0  0  0  0  0
  -21.1119  -13.1272   22.2558 H   0  0  0  0  0  0
  -24.6774  -15.8537   20.5218 H   0  0  0  0  0  0
  -26.2927  -15.6217   20.0843 H   0  0  0  0  0  0
  -26.7132  -32.5479   23.1073 H   0  0  0  0  0  0
  -25.0153  -33.9767   25.0462 H   0  0  0  0  0  0
  -22.6981  -31.3094   21.4050 H   0  0  0  0  0  0
  -23.3758  -35.9617   23.3328 H   0  0  0  0  0  0
  -24.3560  -36.8912   22.2038 H   0  0  0  0  0  0
  -23.7239  -37.6502   23.6643 H   0  0  0  0  0  0
  -26.0750  -31.5723   20.6017 H   0  0  0  0  0  0
  -26.8337  -30.8587   21.9935 H   0  0  0  0  0  0
  -28.0919  -29.0189   21.1979 H   0  0  0  0  0  0
  -25.9721  -25.9843   18.9631 H   0  0  0  0  0  0
  -23.9584  -27.3194   19.0164 H   0  0  0  0  0  0
  -23.7421  -30.6112   19.4071 H   0  0  0  0  0  0
  -22.7413  -29.2631   19.8565 H   0  0  0  0  0  0
  -25.1291  -36.1921   25.0794 H   0  0  0  0  0  0
  -20.9971  -28.3244   24.1431 H   0  0  0  0  0  0
  -20.5698  -26.2282   23.3606 H   0  0  0  0  0  0
  -21.6628  -26.7440   22.1179 H   0  0  0  0  0  0
  -19.6887  -25.6319   21.1241 H   0  0  0  0  0  0
  -19.6671  -27.3217   20.6781 H   0  0  0  0  0  0
  -17.4183  -26.6725   21.4024 H   0  0  0  0  0  0
  -18.0273  -26.0090   22.9029 H   0  0  0  0  0  0
  -19.7937  -30.7320   24.2202 H   0  0  0  0  0  0
  -17.5001  -31.6240   24.5211 H   0  0  0  0  0  0
  -15.5347  -30.2966   23.7678 H   0  0  0  0  0  0
  -15.8687  -28.0861   22.6984 H   0  0  0  0  0  0
  -24.5896  -30.7109   25.7767 H   0  0  0  0  0  0
  -24.8933  -32.2904   26.4889 H   0  0  0  0  0  0
  -25.8068  -30.8887   27.0201 H   0  0  0  0  0  0
  -26.2876  -29.6777   24.1232 H   0  0  0  0  0  0
  -27.4114  -29.7309   25.4640 H   0  0  0  0  0  0
  -27.8719  -30.4356   23.9304 H   0  0  0  0  0  0
  -27.2697  -33.3671   26.2035 H   0  0  0  0  0  0
  -28.3884  -32.6921   25.0303 H   0  0  0  0  0  0
  -28.0730  -31.8486   26.5403 H   0  0  0  0  0  0
  -28.2598  -38.0079   24.7521 H   0  0  0  0  0  0
  -28.1048  -36.2618   24.6284 H   0  0  0  0  0  0
  -27.2278  -37.1446   25.8867 H   0  0  0  0  0  0
  -20.9326  -29.8793   21.6953 H   0  0  0  0  0  0
  -26.0166  -38.2854   24.1454 H   0  0  0  0  0  0
  -30.6195  -24.3859   20.7118 H   0  0  0  0  0  0
  -27.7694  -21.1529   20.3284 H   0  0  0  0  0  0
  -32.6481  -23.1101   22.7089 H   0  0  0  0  0  0
  -32.9777  -23.6925   21.0760 H   0  0  0  0  0  0
  -33.3739  -22.0358   21.5073 H   0  0  0  0  0  0
  -26.6575  -23.1733   21.5002 H   0  0  0  0  0  0
  -26.0354  -24.6321   20.7834 H   0  0  0  0  0  0
  -27.4093  -24.7142   21.8788 H   0  0  0  0  0  0
  -26.6323  -22.3694   19.0295 H   0  0  0  0  0  0
  -27.8280  -23.0217   17.9166 H   0  0  0  0  0  0
  -26.3859  -23.9313   18.3245 H   0  0  0  0  0  0
  -28.3306  -19.0222   21.2024 H   0  0  0  0  0  0
  -29.4836  -19.1443   22.4864 H   0  0  0  0  0  0
  -31.1975  -18.4237   20.5019 H   0  0  0  0  0  0
  -29.7641  -17.7730   19.7764 H   0  0  0  0  0  0
  -29.8678  -16.9286   22.5908 H   0  0  0  0  0  0
  -31.4603  -16.7168   21.9559 H   0  0  0  0  0  0
  -28.0038  -25.5625   18.3731 H   0  0  0  0  0  0
  -29.5007  -25.2568   19.0559 H   0  0  0  0  0  0
  -29.0140  -15.2241   21.3621 H   0  0  0  0  0  0
  1 25  1  0  0  0
  1 30  2  0  0  0
  1 85  1  0  0  0
  2  3  1  0  0  0
  2 25  1  0  0  0
  2 86  1  0  0  0
  2 87  1  0  0  0
  3  4  1  0  0  0
  3 88  1  0  0  0
  3 89  1  0  0  0
  4  5  1  0  0  0
  4 90  1  0  0  0
  4 91  1  0  0  0
  5  6  1  0  0  0
  5 26  1  0  0  0
  5 92  1  0  0  0
  6 25  1  0  0  0
  6 93  1  0  0  0
  6 94  1  0  0  0
  7  8  2  0  0  0
  7 26  1  0  0  0
  7 29  1  0  0  0
  8  9  1  0  0  0
  8 22  1  0  0  0
  9 10  1  0  0  0
  9 27  2  0  0  0
 10 11  2  0  0  0
 10 15  1  0  0  0
 11 12  1  0  0  0
 11 95  1  0  0  0
 12 13  2  0  0  0
 12 96  1  0  0  0
 13 14  1  0  0  0
 13 31  1  0  0  0
 14 15  2  0  0  0
 14 97  1  0  0  0
 15 98  1  0  0  0
 16 17  2  0  0  0
 16 21  1  0  0  0
 16 31  1  0  0  0
 17 18  1  0  0  0
 17 99  1  0  0  0
 18 19  2  0  0  0
 18100  1  0  0  0
 19 20  1  0  0  0
 19 24  1  0  0  0
 20 21  2  0  0  0
 20101  1  0  0  0
 21 23  1  0  0  0
 22 28  1  0  0  0
 22 32  2  0  0  0
 26 27  1  0  0  0
 28102  1  0  0  0
 28103  1  0  0  0
 29104  1  0  0  0
 29105  1  0  0  0
 33 34  1  0  0  0
 33 66  1  0  0  0
 33 70  2  0  0  0
 34 36  1  0  0  0
 34 59  1  0  0  0
 34106  1  0  0  0
 35 44  2  0  0  0
 35 45  1  0  0  0
 35 68  1  0  0  0
 36 56  1  0  0  0
 36107  1  0  0  0
 37 39  1  0  0  0
 37 47  1  0  0  0
 37 66  1  0  0  0
 37108  1  0  0  0
 38 43  2  0  0  0
 38 46  1  0  0  0
 38 47  1  0  0  0
 39 64  1  0  0  0
 39 67  2  0  0  0
 40 52  1  0  0  0
 40 53  2  0  0  0
 40 58  1  0  0  0
 41109  1  0  0  0
 41110  1  0  0  0
 41111  1  0  0  0
 41 48  1  0  0  0
 42 43  1  0  0  0
 42 66  1  0  0  0
 42112  1  0  0  0
 42113  1  0  0  0
 43 44  1  0  0  0
 44114  1  0  0  0
 45 46  2  0  0  0
 45115  1  0  0  0
 46116  1  0  0  0
 47117  1  0  0  0
 47118  1  0  0  0
 48 56  1  0  0  0
 48 65  1  0  0  0
 48119  1  0  0  0
 49 50  1  0  0  0
 49 53  1  0  0  0
 49 64  1  0  0  0
 49120  1  0  0  0
 50 51  1  0  0  0
 50121  1  0  0  0
 50122  1  0  0  0
 51 52  1  0  0  0
 51123  1  0  0  0
 51124  1  0  0  0
 52125  1  0  0  0
 52126  1  0  0  0
 53 54  1  0  0  0
 54 55  2  0  0  0
 54127  1  0  0  0
 55 57  1  0  0  0
 55128  1  0  0  0
 56 69  2  0  0  0
 57 58  2  0  0  0
 57129  1  0  0  0
 58130  1  0  0  0
 59 60  1  0  0  0
 59 61  1  0  0  0
 59 62  1  0  0  0
 60131  1  0  0  0
 60132  1  0  0  0
 60133  1  0  0  0
 61134  1  0  0  0
 61135  1  0  0  0
 61136  1  0  0  0
 62137  1  0  0  0
 62138  1  0  0  0
 62139  1  0  0  0
 63 65  1  0  0  0
 63140  1  0  0  0
 63141  1  0  0  0
 63142  1  0  0  0
 64143  1  0  0  0
 65144  1  0  0  0
 68 82  1  0  0  0
 71 73  2  0  0  0
 71 74  1  0  0  0
 71145  1  0  0  0
 72 73  1  0  0  0
 72 75  2  0  0  0
 72146  1  0  0  0
 73 83  1  0  0  0
 74 76  1  0  0  0
 74 84  2  0  0  0
 75 79  1  0  0  0
 75 84  1  0  0  0
 76147  1  0  0  0
 76148  1  0  0  0
 76149  1  0  0  0
 77150  1  0  0  0
 77151  1  0  0  0
 77152  1  0  0  0
 77 83  1  0  0  0
 78 83  1  0  0  0
 78153  1  0  0  0
 78154  1  0  0  0
 78155  1  0  0  0
 79 80  1  0  0  0
 79156  1  0  0  0
 79157  1  0  0  0
 80 81  1  0  0  0
 80158  1  0  0  0
 80159  1  0  0  0
 81 85  1  0  0  0
 81160  1  0  0  0
 81161  1  0  0  0
 82 83  1  0  0  0
 82162  1  0  0  0
 82163  1  0  0  0
 85164  1  0  0  0
M  ISO  4   1 100  68 101  82 101  85 100
M  END
> <chiral flag>
0

> <version>
0

> <s_m_source_file>
/data/baiqing/PycharmProjects/Reinvent-master-3.2/result/LINK_invent/BTK/process_docking_weight1_custom_sum_contain_oxygen_bond_distance_aromatic_linkinvent_7_9_3/rearranged_h_0078.sdf

> <i_m_source_file_index>
39

> <r_mmod_Potential_Energy-OPLS-2005>
-176.153900146484

> <r_mmod_Stretch_Energy-OPLS-2005>
55.5222053527832

> <r_mmod_Bend_Energy-OPLS-2005>
132.186492919922

> <r_mmod_Torsional_Energy-OPLS-2005>
221.639984130859

> <r_mmod_Improper_Torsional_Energy-OPLS-2005>
3.86574864387512

> <r_mmod_Van_der_Waal_Energy-OPLS-2005>
163.564651489258

> <r_mmod_Electrostatic_Energy-OPLS-2005>
-557.510803222656

> <r_mmod_Solvation_Energy-OPLS-2005>
-217.73274230957

> <b_mmod_Minimization_Converged-OPLS-2005>
0

> <r_mmod_RMS_Derivative-OPLS-2005>
3.18986701965332

$$$$
39
                    3D
 Structure written by MMmdl.
167175  0  0  1  0            999 V2000
  -30.6556  -14.6519   20.4939 C   0  0  0  0  0  0
  -30.4315  -12.4063   19.4481 C   0  0  0  0  0  0
  -29.5021  -12.5016   18.2195 C   0  0  0  0  0  0
  -28.0272  -12.3388   18.6372 C   0  0  0  0  0  0
  -27.6474  -13.2249   19.8542 C   0  0  2  0  0  0
  -28.6961  -13.1178   20.9825 C   0  0  0  0  0  0
  -25.2535  -13.8186   20.5686 C   0  0  0  0  0  0
  -24.1815  -13.0441   20.9195 C   0  0  0  0  0  0
  -24.6398  -11.6915   20.8750 C   0  0  0  0  0  0
  -23.9072  -10.4291   21.0408 C   0  0  0  0  0  0
  -24.3623   -9.4204   21.9185 C   0  0  0  0  0  0
  -23.6297   -8.2244   22.0755 C   0  0  0  0  0  0
  -22.4278   -8.0283   21.3545 C   0  0  0  0  0  0
  -21.9914   -9.0256   20.4648 C   0  0  0  0  0  0
  -22.7246  -10.2133   20.3057 C   0  0  0  0  0  0
  -21.6854   -6.0734   22.5276 C   0  0  0  0  0  0
  -21.4015   -6.5640   23.8209 C   0  0  0  0  0  0
  -21.3660   -5.6794   24.9171 C   0  0  0  0  0  0
  -21.6042   -4.3054   24.7223 C   0  0  0  0  0  0
  -21.8821   -3.8144   23.4347 C   0  0  0  0  0  0
  -21.9194   -4.6961   22.3401 C   0  0  0  0  0  0
  -22.7837  -13.5228   21.1860 C   0  0  0  0  0  0
  -22.1662   -4.2145   21.0980 F   0  0  0  0  0  0
  -21.5628   -3.4539   25.7738 F   0  0  0  0  0  0
  -30.0044  -13.4495   20.4009 N   0  0  0  0  0  0
  -26.2967  -12.9383   20.3303 N   0  0  0  0  0  0
  -25.9329  -11.6529   20.5761 N   0  0  0  0  0  0
  -22.0489  -12.8213   22.0419 N   0  0  0  0  0  0
  -25.4231  -15.1909   20.4085 N   0  0  0  0  0  0
  -31.8405  -14.7605   20.1704 O   0  0  0  0  0  0
  -21.6641   -6.8878   21.4239 O   0  0  0  0  0  0
  -22.3517  -14.5532   20.6708 O   0  0  0  0  0  0
  -24.6255  -31.8609   23.2031 C   0  0  0  0  0  0
  -25.9099  -32.4795   23.8364 C   0  0  1  0  0  0
  -27.2242  -27.3292   20.1234 C   0  0  0  0  0  0
  -25.5928  -33.8597   24.2299 N   0  0  0  0  0  0
  -23.4203  -30.4844   21.5438 C   0  0  2  0  0  0
  -24.8703  -28.9397   20.1102 C   0  0  0  0  0  0
  -22.7470  -29.4633   22.4922 C   0  0  0  0  0  0
  -18.0287  -28.1393   22.8490 C   0  0  0  0  0  0
  -24.1478  -36.7287   23.2643 C   0  0  0  0  0  0
  -25.9608  -30.7937   21.3730 C   0  0  0  0  0  0
  -26.0375  -29.4210   20.7177 C   0  0  0  0  0  0
  -27.2223  -28.6266   20.7173 C   0  0  0  0  0  0
  -26.0415  -26.8964   19.4895 C   0  0  0  0  0  0
  -24.8729  -27.6816   19.4856 C   0  0  0  0  0  0
  -23.6365  -29.8186   20.1589 C   0  0  0  0  0  0
  -25.4107  -36.3099   24.0338 C   0  0  1  0  0  0
  -20.5893  -28.3690   23.1287 C   0  0  2  0  0  0
  -20.6781  -26.9414   22.5414 C   0  0  0  0  0  0
  -19.5753  -26.6388   21.5221 C   0  0  0  0  0  0
  -18.1930  -26.7945   22.1623 C   0  0  0  0  0  0
  -19.1542  -28.8858   23.2895 C   0  0  0  0  0  0
  -18.9467  -30.1463   23.8906 C   0  0  0  0  0  0
  -17.6468  -30.6602   24.0559 C   0  0  0  0  0  0
  -25.9051  -34.9463   23.5118 C   0  0  0  0  0  0
  -16.5359  -29.9096   23.6329 C   0  0  0  0  0  0
  -16.7276  -28.6511   23.0358 C   0  0  0  0  0  0
  -26.4490  -31.6598   25.0721 C   0  0  0  0  0  0
  -25.3728  -31.3721   26.1452 C   0  0  0  0  0  0
  -27.0338  -30.3031   24.6158 C   0  0  0  0  0  0
  -27.6055  -32.4329   25.7489 C   0  0  0  0  0  0
  -27.5577  -37.1799   24.8473 C   0  0  0  0  0  0
  -21.4183  -29.3050   22.3672 N   0  0  0  0  0  0
  -26.4284  -37.3795   23.9423 N   0  0  0  0  0  0
  -24.6875  -31.0631   22.0970 N   0  0  0  0  0  0
  -23.4204  -28.8168   23.3002 O   0  0  0  0  0  0
  -28.3004  -26.4358   20.1573 O   0  0  0  0  0  0
  -26.5618  -34.8929   22.4685 O   0  0  0  0  0  0
  -23.5413  -32.1387   23.7354 O   0  0  0  0  0  0
  -28.5330  -23.2198   19.5132 C   0  0  0  0  0  0
  -28.7424  -21.8123   19.3582 C   0  0  0  0  0  0
  -28.6257  -23.8373   20.7841 C   0  0  0  0  0  0
  -29.0452  -20.9951   20.4872 C   0  0  0  0  0  0
  -29.0231  -22.9534   21.8347 C   0  0  0  0  0  0
  -28.5879  -21.2026   17.9773 C   0  0  0  0  0  0
  -27.8478  -23.3617   24.0526 C   0  0  0  0  0  0
  -29.9471  -17.8506   18.7143 C   0  0  0  0  0  0
  -31.4736  -19.2213   20.1211 C   0  0  0  0  0  0
  -28.0964  -25.3014   21.0759 C   0  0  0  0  0  0
  -28.9560  -19.4078   20.5102 C   0  0  0  0  0  0
  -29.1733  -23.4158   23.2794 C   0  0  0  0  0  0
  -30.3772  -17.1563   21.1333 C   0  0  0  0  0  0
  -30.1615  -18.4081   20.1372 C   0  0  0  0  0  0
  -29.2130  -21.6075   21.6843 N   0  0  0  0  0  0
  -29.9059  -15.7616   20.7905 N   0  0  0  0  0  0
  -31.4719  -12.5255   19.1418 H   0  0  0  0  0  0
  -30.3651  -11.4204   19.9112 H   0  0  0  0  0  0
  -29.7693  -11.7403   17.4851 H   0  0  0  0  0  0
  -29.6396  -13.4654   17.7257 H   0  0  0  0  0  0
  -27.8709  -11.2874   18.8836 H   0  0  0  0  0  0
  -27.3698  -12.5534   17.7935 H   0  0  0  0  0  0
  -27.6548  -14.2535   19.4944 H   0  0  0  0  0  0
  -28.7135  -12.1099   21.4009 H   0  0  0  0  0  0
  -28.4456  -13.7836   21.8096 H   0  0  0  0  0  0
  -25.2769   -9.5677   22.4756 H   0  0  0  0  0  0
  -24.0003   -7.4633   22.7471 H   0  0  0  0  0  0
  -21.0847   -8.8774   19.8956 H   0  0  0  0  0  0
  -22.3705  -10.9670   19.6163 H   0  0  0  0  0  0
  -21.2007   -7.6146   23.9709 H   0  0  0  0  0  0
  -21.1480   -6.0524   25.9074 H   0  0  0  0  0  0
  -22.0601   -2.7607   23.2846 H   0  0  0  0  0  0
  -22.4116  -11.9872   22.4799 H   0  0  0  0  0  0
  -21.1104  -13.1226   22.2633 H   0  0  0  0  0  0
  -24.6544  -15.8440   20.5142 H   0  0  0  0  0  0
  -26.2684  -15.6290   20.0665 H   0  0  0  0  0  0
  -26.7159  -32.5463   23.1109 H   0  0  0  0  0  0
  -25.0099  -33.9748   25.0459 H   0  0  0  0  0  0
  -22.7142  -31.3052   21.3990 H   0  0  0  0  0  0
  -23.3759  -35.9602   23.3322 H   0  0  0  0  0  0
  -24.3575  -36.8887   22.2057 H   0  0  0  0  0  0
  -23.7207  -37.6484   23.6647 H   0  0  0  0  0  0
  -26.0921  -31.5533   20.6009 H   0  0  0  0  0  0
  -26.8430  -30.8451   22.0002 H   0  0  0  0  0  0
  -28.1176  -28.9875   21.2033 H   0  0  0  0  0  0
  -26.0148  -25.9233   19.0193 H   0  0  0  0  0  0
  -23.9786  -27.3059   19.0083 H   0  0  0  0  0  0
  -23.7559  -30.5955   19.4029 H   0  0  0  0  0  0
  -22.7565  -29.2484   19.8553 H   0  0  0  0  0  0
  -25.1283  -36.1958   25.0828 H   0  0  0  0  0  0
  -20.9989  -28.3265   24.1404 H   0  0  0  0  0  0
  -20.5697  -26.2290   23.3609 H   0  0  0  0  0  0
  -21.6645  -26.7451   22.1192 H   0  0  0  0  0  0
  -19.6915  -25.6302   21.1247 H   0  0  0  0  0  0
  -19.6706  -27.3198   20.6758 H   0  0  0  0  0  0
  -17.4205  -26.6697   21.4025 H   0  0  0  0  0  0
  -18.0319  -26.0095   22.9023 H   0  0  0  0  0  0
  -19.7948  -30.7279   24.2272 H   0  0  0  0  0  0
  -17.5029  -31.6284   24.5163 H   0  0  0  0  0  0
  -15.5363  -30.3006   23.7670 H   0  0  0  0  0  0
  -15.8670  -28.0840   22.7076 H   0  0  0  0  0  0
  -24.5919  -30.7052   25.7794 H   0  0  0  0  0  0
  -24.8893  -32.2869   26.4876 H   0  0  0  0  0  0
  -25.8061  -30.8912   27.0230 H   0  0  0  0  0  0
  -26.2902  -29.6786   24.1192 H   0  0  0  0  0  0
  -27.4081  -29.7282   25.4644 H   0  0  0  0  0  0
  -27.8749  -30.4361   23.9352 H   0  0  0  0  0  0
  -27.2681  -33.3639   26.2054 H   0  0  0  0  0  0
  -28.3867  -32.6878   25.0315 H   0  0  0  0  0  0
  -28.0715  -31.8457   26.5412 H   0  0  0  0  0  0
  -28.2603  -38.0093   24.7548 H   0  0  0  0  0  0
  -28.1067  -36.2635   24.6262 H   0  0  0  0  0  0
  -27.2306  -37.1402   25.8878 H   0  0  0  0  0  0
  -20.9347  -29.8763   21.6880 H   0  0  0  0  0  0
  -26.0172  -38.2870   24.1445 H   0  0  0  0  0  0
  -28.2311  -23.8182   18.6643 H   0  0  0  0  0  0
  -28.1361  -21.9086   17.2795 H   0  0  0  0  0  0
  -27.9598  -20.3126   17.9977 H   0  0  0  0  0  0
  -29.5672  -20.9309   17.5838 H   0  0  0  0  0  0
  -27.9847  -23.6882   25.0836 H   0  0  0  0  0  0
  -27.4533  -22.3457   24.0745 H   0  0  0  0  0  0
  -27.0935  -24.0029   23.5973 H   0  0  0  0  0  0
  -29.9218  -18.6430   17.9679 H   0  0  0  0  0  0
  -29.0114  -17.2970   18.6336 H   0  0  0  0  0  0
  -30.7541  -17.1725   18.4318 H   0  0  0  0  0  0
  -31.4285  -20.0494   19.4126 H   0  0  0  0  0  0
  -32.3272  -18.6043   19.8353 H   0  0  0  0  0  0
  -31.6895  -19.6413   21.1045 H   0  0  0  0  0  0
  -28.4915  -25.6530   22.0251 H   0  0  0  0  0  0
  -27.0303  -25.1682   21.2668 H   0  0  0  0  0  0
  -28.0699  -19.1214   19.9447 H   0  0  0  0  0  0
  -28.6661  -19.1692   21.5336 H   0  0  0  0  0  0
  -29.6195  -24.4075   23.3282 H   0  0  0  0  0  0
  -29.8951  -22.7708   23.7826 H   0  0  0  0  0  0
  -29.9488  -17.4006   22.1056 H   0  0  0  0  0  0
  -31.4429  -17.0655   21.3496 H   0  0  0  0  0  0
  -28.9245  -15.5844   20.9405 H   0  0  0  0  0  0
  1 25  1  0  0  0
  1 30  2  0  0  0
  1 86  1  0  0  0
  2  3  1  0  0  0
  2 25  1  0  0  0
  2 87  1  0  0  0
  2 88  1  0  0  0
  3  4  1  0  0  0
  3 89  1  0  0  0
  3 90  1  0  0  0
  4  5  1  0  0  0
  4 91  1  0  0  0
  4 92  1  0  0  0
  5  6  1  0  0  0
  5 26  1  0  0  0
  5 93  1  0  0  0
  6 25  1  0  0  0
  6 94  1  0  0  0
  6 95  1  0  0  0
  7  8  2  0  0  0
  7 26  1  0  0  0
  7 29  1  0  0  0
  8  9  1  0  0  0
  8 22  1  0  0  0
  9 10  1  0  0  0
  9 27  2  0  0  0
 10 11  2  0  0  0
 10 15  1  0  0  0
 11 12  1  0  0  0
 11 96  1  0  0  0
 12 13  2  0  0  0
 12 97  1  0  0  0
 13 14  1  0  0  0
 13 31  1  0  0  0
 14 15  2  0  0  0
 14 98  1  0  0  0
 15 99  1  0  0  0
 16 17  2  0  0  0
 16 21  1  0  0  0
 16 31  1  0  0  0
 17 18  1  0  0  0
 17100  1  0  0  0
 18 19  2  0  0  0
 18101  1  0  0  0
 19 20  1  0  0  0
 19 24  1  0  0  0
 20 21  2  0  0  0
 20102  1  0  0  0
 21 23  1  0  0  0
 22 28  1  0  0  0
 22 32  2  0  0  0
 26 27  1  0  0  0
 28103  1  0  0  0
 28104  1  0  0  0
 29105  1  0  0  0
 29106  1  0  0  0
 33 34  1  0  0  0
 33 66  1  0  0  0
 33 70  2  0  0  0
 34 36  1  0  0  0
 34 59  1  0  0  0
 34107  1  0  0  0
 35 44  2  0  0  0
 35 45  1  0  0  0
 35 68  1  0  0  0
 36 56  1  0  0  0
 36108  1  0  0  0
 37 39  1  0  0  0
 37 47  1  0  0  0
 37 66  1  0  0  0
 37109  1  0  0  0
 38 43  2  0  0  0
 38 46  1  0  0  0
 38 47  1  0  0  0
 39 64  1  0  0  0
 39 67  2  0  0  0
 40 52  1  0  0  0
 40 53  2  0  0  0
 40 58  1  0  0  0
 41110  1  0  0  0
 41111  1  0  0  0
 41112  1  0  0  0
 41 48  1  0  0  0
 42 43  1  0  0  0
 42 66  1  0  0  0
 42113  1  0  0  0
 42114  1  0  0  0
 43 44  1  0  0  0
 44115  1  0  0  0
 45 46  2  0  0  0
 45116  1  0  0  0
 46117  1  0  0  0
 47118  1  0  0  0
 47119  1  0  0  0
 48 56  1  0  0  0
 48 65  1  0  0  0
 48120  1  0  0  0
 49 50  1  0  0  0
 49 53  1  0  0  0
 49 64  1  0  0  0
 49121  1  0  0  0
 50 51  1  0  0  0
 50122  1  0  0  0
 50123  1  0  0  0
 51 52  1  0  0  0
 51124  1  0  0  0
 51125  1  0  0  0
 52126  1  0  0  0
 52127  1  0  0  0
 53 54  1  0  0  0
 54 55  2  0  0  0
 54128  1  0  0  0
 55 57  1  0  0  0
 55129  1  0  0  0
 56 69  2  0  0  0
 57 58  2  0  0  0
 57130  1  0  0  0
 58131  1  0  0  0
 59 60  1  0  0  0
 59 61  1  0  0  0
 59 62  1  0  0  0
 60132  1  0  0  0
 60133  1  0  0  0
 60134  1  0  0  0
 61135  1  0  0  0
 61136  1  0  0  0
 61137  1  0  0  0
 62138  1  0  0  0
 62139  1  0  0  0
 62140  1  0  0  0
 63 65  1  0  0  0
 63141  1  0  0  0
 63142  1  0  0  0
 63143  1  0  0  0
 64144  1  0  0  0
 65145  1  0  0  0
 68 80  1  0  0  0
 71 72  2  0  0  0
 71 73  1  0  0  0
 71146  1  0  0  0
 72 74  1  0  0  0
 72 76  1  0  0  0
 73 75  2  0  0  0
 73 80  1  0  0  0
 74 81  1  0  0  0
 74 85  2  0  0  0
 75 82  1  0  0  0
 75 85  1  0  0  0
 76147  1  0  0  0
 76148  1  0  0  0
 76149  1  0  0  0
 77 82  1  0  0  0
 77150  1  0  0  0
 77151  1  0  0  0
 77152  1  0  0  0
 78153  1  0  0  0
 78154  1  0  0  0
 78155  1  0  0  0
 78 84  1  0  0  0
 79 84  1  0  0  0
 79156  1  0  0  0
 79157  1  0  0  0
 79158  1  0  0  0
 80159  1  0  0  0
 80160  1  0  0  0
 81 84  1  0  0  0
 81161  1  0  0  0
 81162  1  0  0  0
 82163  1  0  0  0
 82164  1  0  0  0
 83 84  1  0  0  0
 83 86  1  0  0  0
 83165  1  0  0  0
 83166  1  0  0  0
 86167  1  0  0  0
M  ISO  4   1 100  68 101  80 101  86 100
M  END
> <chiral flag>
0

> <version>
0

> <s_m_source_file>
/data/baiqing/PycharmProjects/Reinvent-master-3.2/result/LINK_invent/BTK/process_docking_weight1_custom_sum_contain_oxygen_bond_distance_aromatic_linkinvent_7_9_3/rearranged_h_0078.sdf

> <i_m_source_file_index>
40

> <r_mmod_Potential_Energy-OPLS-2005>
-28.9381484985352

> <r_mmod_Stretch_Energy-OPLS-2005>
89.632209777832

> <r_mmod_Bend_Energy-OPLS-2005>
162.12223815918

> <r_mmod_Torsional_Energy-OPLS-2005>
256.670043945312

> <r_mmod_Improper_Torsional_Energy-OPLS-2005>
6.41789674758911

> <r_mmod_Van_der_Waal_Energy-OPLS-2005>
141.970474243164

> <r_mmod_Electrostatic_Energy-OPLS-2005>
-526.333190917969

> <r_mmod_Solvation_Energy-OPLS-2005>
-213.654449462891

> <b_mmod_Minimization_Converged-OPLS-2005>
0

> <r_mmod_RMS_Derivative-OPLS-2005>
1.52180993556976

$$$$
40
                    3D
 Structure written by MMmdl.
168176  0  0  1  0            999 V2000
  -30.6998  -14.4573   20.6175 C   0  0  0  0  0  0
  -30.4311  -12.3215   19.4057 C   0  0  0  0  0  0
  -29.4970  -12.5235   18.1959 C   0  0  0  0  0  0
  -28.0172  -12.3763   18.6058 C   0  0  0  0  0  0
  -27.6630  -13.2035   19.8710 C   0  0  2  0  0  0
  -28.7030  -12.9609   20.9868 C   0  0  0  0  0  0
  -25.2596  -13.8153   20.5649 C   0  0  0  0  0  0
  -24.1841  -13.0437   20.9163 C   0  0  0  0  0  0
  -24.6392  -11.6903   20.8718 C   0  0  0  0  0  0
  -23.9051  -10.4298   21.0390 C   0  0  0  0  0  0
  -24.3614   -9.4212   21.9162 C   0  0  0  0  0  0
  -23.6302   -8.2240   22.0732 C   0  0  0  0  0  0
  -22.4280   -8.0276   21.3530 C   0  0  0  0  0  0
  -21.9911   -9.0245   20.4630 C   0  0  0  0  0  0
  -22.7228  -10.2128   20.3034 C   0  0  0  0  0  0
  -21.6855   -6.0741   22.5284 C   0  0  0  0  0  0
  -21.4007   -6.5635   23.8219 C   0  0  0  0  0  0
  -21.3658   -5.6778   24.9173 C   0  0  0  0  0  0
  -21.6052   -4.3046   24.7218 C   0  0  0  0  0  0
  -21.8818   -3.8145   23.4335 C   0  0  0  0  0  0
  -21.9190   -4.6968   22.3396 C   0  0  0  0  0  0
  -22.7862  -13.5237   21.1834 C   0  0  0  0  0  0
  -22.1659   -4.2151   21.0977 F   0  0  0  0  0  0
  -21.5633   -3.4532   25.7732 F   0  0  0  0  0  0
  -30.0338  -13.2840   20.4425 N   0  0  0  0  0  0
  -26.3029  -12.9314   20.3320 N   0  0  0  0  0  0
  -25.9314  -11.6477   20.5723 N   0  0  0  0  0  0
  -22.0498  -12.8241   22.0400 N   0  0  0  0  0  0
  -25.4340  -15.1873   20.4066 N   0  0  0  0  0  0
  -31.8035  -14.6891   20.1158 O   0  0  0  0  0  0
  -21.6634   -6.8883   21.4246 O   0  0  0  0  0  0
  -22.3542  -14.5528   20.6664 O   0  0  0  0  0  0
  -24.6138  -31.8666   23.2084 C   0  0  0  0  0  0
  -25.9015  -32.4822   23.8389 C   0  0  1  0  0  0
  -27.2478  -27.4394   20.0918 C   0  0  0  0  0  0
  -25.5857  -33.8616   24.2337 N   0  0  0  0  0  0
  -23.4020  -30.4887   21.5478 C   0  0  2  0  0  0
  -24.8492  -28.9499   20.1157 C   0  0  0  0  0  0
  -22.7432  -29.4633   22.4978 C   0  0  0  0  0  0
  -18.0281  -28.1363   22.8516 C   0  0  0  0  0  0
  -24.1462  -36.7326   23.2643 C   0  0  0  0  0  0
  -25.9281  -30.8369   21.3548 C   0  0  0  0  0  0
  -26.0064  -29.4689   20.7066 C   0  0  0  0  0  0
  -27.2035  -28.7212   20.6861 C   0  0  0  0  0  0
  -26.0633  -26.9197   19.5192 C   0  0  0  0  0  0
  -24.8720  -27.6752   19.5202 C   0  0  0  0  0  0
  -23.6106  -29.8171   20.1630 C   0  0  0  0  0  0
  -25.4078  -36.3118   24.0351 C   0  0  1  0  0  0
  -20.5874  -28.3637   23.1333 C   0  0  2  0  0  0
  -20.6751  -26.9368   22.5430 C   0  0  0  0  0  0
  -19.5726  -26.6381   21.5225 C   0  0  0  0  0  0
  -18.1911  -26.7914   22.1643 C   0  0  0  0  0  0
  -19.1531  -28.8822   23.2921 C   0  0  0  0  0  0
  -18.9449  -30.1432   23.8925 C   0  0  0  0  0  0
  -17.6444  -30.6568   24.0568 C   0  0  0  0  0  0
  -25.9010  -34.9481   23.5154 C   0  0  0  0  0  0
  -16.5342  -29.9075   23.6308 C   0  0  0  0  0  0
  -16.7267  -28.6487   23.0347 C   0  0  0  0  0  0
  -26.4473  -31.6577   25.0689 C   0  0  0  0  0  0
  -25.3783  -31.3640   26.1465 C   0  0  0  0  0  0
  -27.0266  -30.3031   24.5976 C   0  0  0  0  0  0
  -27.6055  -32.4284   25.7456 C   0  0  0  0  0  0
  -27.5567  -37.1805   24.8472 C   0  0  0  0  0  0
  -21.4148  -29.3004   22.3743 N   0  0  0  0  0  0
  -26.4272  -37.3796   23.9431 N   0  0  0  0  0  0
  -24.6666  -31.0790   22.0963 N   0  0  0  0  0  0
  -23.4216  -28.8173   23.3002 O   0  0  0  0  0  0
  -28.4632  -26.7823   20.0986 O   0  0  0  0  0  0
  -26.5588  -34.8940   22.4725 O   0  0  0  0  0  0
  -23.5333  -32.1391   23.7503 O   0  0  0  0  0  0
  -30.7888  -21.6017   21.0074 C   0  0  0  0  0  0
  -29.6720  -21.3899   18.5650 C   0  0  0  0  0  0
  -30.0449  -22.6608   19.0908 C   0  0  0  0  0  0
  -30.4888  -20.3226   20.4600 C   0  0  0  0  0  0
  -29.1159  -21.2216   17.1631 C   0  0  0  0  0  0
  -29.9759  -26.3754   17.8719 C   0  0  0  0  0  0
  -28.0083  -24.9354   17.3553 C   0  0  0  0  0  0
  -32.2581  -19.1817   21.6386 C   0  0  0  0  0  0
  -30.1644  -23.9179   18.2132 C   0  0  0  0  0  0
  -30.5325  -16.7091   21.7260 C   0  0  0  0  0  0
  -30.3925  -17.8198   20.6463 C   0  0  0  0  0  0
  -28.6121  -25.3903   19.7739 C   0  0  0  0  0  0
  -29.1767  -25.1343   18.3399 C   0  0  0  0  0  0
  -30.5765  -22.7578   20.3332 N   0  0  0  0  0  0
  -29.8827  -20.2329   19.2501 N   0  0  0  0  0  0
  -30.0348  -15.3915   21.3175 N   0  0  0  0  0  0
  -30.8917  -19.1265   21.1094 N   0  0  0  0  0  0
  -31.4728  -12.4448   19.1021 H   0  0  0  0  0  0
  -30.3517  -11.3035   19.7887 H   0  0  0  0  0  0
  -29.7429  -11.8106   17.4076 H   0  0  0  0  0  0
  -29.6628  -13.5142   17.7688 H   0  0  0  0  0  0
  -27.8261  -11.3189   18.7919 H   0  0  0  0  0  0
  -27.3707  -12.6602   17.7747 H   0  0  0  0  0  0
  -27.7138  -14.2547   19.5874 H   0  0  0  0  0  0
  -28.6848  -11.9154   21.2980 H   0  0  0  0  0  0
  -28.4522  -13.5311   21.8812 H   0  0  0  0  0  0
  -25.2775   -9.5687   22.4703 H   0  0  0  0  0  0
  -24.0025   -7.4628   22.7434 H   0  0  0  0  0  0
  -21.0846   -8.8753   19.8935 H   0  0  0  0  0  0
  -22.3698  -10.9650   19.6117 H   0  0  0  0  0  0
  -21.1989   -7.6141   23.9727 H   0  0  0  0  0  0
  -21.1481   -6.0503   25.9079 H   0  0  0  0  0  0
  -22.0601   -2.7610   23.2831 H   0  0  0  0  0  0
  -22.4128  -11.9955   22.4872 H   0  0  0  0  0  0
  -21.1078  -13.1222   22.2515 H   0  0  0  0  0  0
  -24.6704  -15.8468   20.5105 H   0  0  0  0  0  0
  -26.2904  -15.6253   20.0932 H   0  0  0  0  0  0
  -26.7080  -32.5558   23.1155 H   0  0  0  0  0  0
  -24.9988  -33.9763   25.0471 H   0  0  0  0  0  0
  -22.6900  -31.3049   21.4084 H   0  0  0  0  0  0
  -23.3717  -35.9664   23.3309 H   0  0  0  0  0  0
  -24.3569  -36.8938   22.2059 H   0  0  0  0  0  0
  -23.7207  -37.6534   23.6651 H   0  0  0  0  0  0
  -26.0332  -31.5988   20.5815 H   0  0  0  0  0  0
  -26.8204  -30.8995   21.9653 H   0  0  0  0  0  0
  -28.1019  -29.1256   21.1324 H   0  0  0  0  0  0
  -26.0400  -25.9408   19.0679 H   0  0  0  0  0  0
  -23.9790  -27.2693   19.0650 H   0  0  0  0  0  0
  -23.7187  -30.5896   19.4005 H   0  0  0  0  0  0
  -22.7364  -29.2334   19.8684 H   0  0  0  0  0  0
  -25.1241  -36.2000   25.0841 H   0  0  0  0  0  0
  -20.9985  -28.3187   24.1444 H   0  0  0  0  0  0
  -20.5634  -26.2240   23.3613 H   0  0  0  0  0  0
  -21.6620  -26.7382   22.1228 H   0  0  0  0  0  0
  -19.6870  -25.6307   21.1208 H   0  0  0  0  0  0
  -19.6660  -27.3236   20.6791 H   0  0  0  0  0  0
  -17.4185  -26.6698   21.4036 H   0  0  0  0  0  0
  -18.0287  -26.0033   22.9014 H   0  0  0  0  0  0
  -19.7918  -30.7247   24.2307 H   0  0  0  0  0  0
  -17.4987  -31.6244   24.5175 H   0  0  0  0  0  0
  -15.5339  -30.2982   23.7583 H   0  0  0  0  0  0
  -15.8677  -28.0804   22.7040 H   0  0  0  0  0  0
  -24.6000  -30.6915   25.7843 H   0  0  0  0  0  0
  -24.8917  -32.2761   26.4919 H   0  0  0  0  0  0
  -25.8195  -30.8855   27.0216 H   0  0  0  0  0  0
  -26.2733  -29.6815   24.1107 H   0  0  0  0  0  0
  -27.4166  -29.7229   25.4347 H   0  0  0  0  0  0
  -27.8527  -30.4383   23.8990 H   0  0  0  0  0  0
  -27.2681  -33.3599   26.2016 H   0  0  0  0  0  0
  -28.3875  -32.6807   25.0283 H   0  0  0  0  0  0
  -28.0694  -31.8403   26.5388 H   0  0  0  0  0  0
  -28.2596  -38.0090   24.7511 H   0  0  0  0  0  0
  -28.1046  -36.2627   24.6287 H   0  0  0  0  0  0
  -27.2306  -37.1450   25.8881 H   0  0  0  0  0  0
  -20.9314  -29.8756   21.6992 H   0  0  0  0  0  0
  -26.0173  -38.2884   24.1426 H   0  0  0  0  0  0
  -31.2622  -21.7028   21.9736 H   0  0  0  0  0  0
  -29.9127  -21.3154   16.4248 H   0  0  0  0  0  0
  -28.3567  -21.9740   16.9524 H   0  0  0  0  0  0
  -28.6549  -20.2429   17.0321 H   0  0  0  0  0  0
  -30.4028  -26.2270   16.8789 H   0  0  0  0  0  0
  -30.8021  -26.5949   18.5491 H   0  0  0  0  0  0
  -29.3558  -27.2710   17.8163 H   0  0  0  0  0  0
  -28.3580  -24.6878   16.3525 H   0  0  0  0  0  0
  -27.4114  -25.8421   17.2578 H   0  0  0  0  0  0
  -27.3470  -24.1319   17.6806 H   0  0  0  0  0  0
  -32.2430  -19.2844   22.7243 H   0  0  0  0  0  0
  -32.8409  -20.0092   21.2301 H   0  0  0  0  0  0
  -32.8184  -18.2791   21.3946 H   0  0  0  0  0  0
  -30.2618  -23.6266   17.1675 H   0  0  0  0  0  0
  -31.1636  -24.2867   18.4480 H   0  0  0  0  0  0
  -29.9759  -17.0054   22.6158 H   0  0  0  0  0  0
  -31.5681  -16.5917   22.0447 H   0  0  0  0  0  0
  -29.3399  -17.9141   20.3749 H   0  0  0  0  0  0
  -30.9284  -17.5355   19.7390 H   0  0  0  0  0  0
  -29.3433  -25.0462   20.5013 H   0  0  0  0  0  0
  -27.7164  -24.8036   19.9822 H   0  0  0  0  0  0
  -29.1253  -15.1246   21.6641 H   0  0  0  0  0  0
  1 25  1  0  0  0
  1 30  2  0  0  0
  1 86  1  0  0  0
  2  3  1  0  0  0
  2 25  1  0  0  0
  2 88  1  0  0  0
  2 89  1  0  0  0
  3  4  1  0  0  0
  3 90  1  0  0  0
  3 91  1  0  0  0
  4  5  1  0  0  0
  4 92  1  0  0  0
  4 93  1  0  0  0
  5  6  1  0  0  0
  5 26  1  0  0  0
  5 94  1  0  0  0
  6 25  1  0  0  0
  6 95  1  0  0  0
  6 96  1  0  0  0
  7  8  2  0  0  0
  7 26  1  0  0  0
  7 29  1  0  0  0
  8  9  1  0  0  0
  8 22  1  0  0  0
  9 10  1  0  0  0
  9 27  2  0  0  0
 10 11  2  0  0  0
 10 15  1  0  0  0
 11 12  1  0  0  0
 11 97  1  0  0  0
 12 13  2  0  0  0
 12 98  1  0  0  0
 13 14  1  0  0  0
 13 31  1  0  0  0
 14 15  2  0  0  0
 14 99  1  0  0  0
 15100  1  0  0  0
 16 17  2  0  0  0
 16 21  1  0  0  0
 16 31  1  0  0  0
 17 18  1  0  0  0
 17101  1  0  0  0
 18 19  2  0  0  0
 18102  1  0  0  0
 19 20  1  0  0  0
 19 24  1  0  0  0
 20 21  2  0  0  0
 20103  1  0  0  0
 21 23  1  0  0  0
 22 28  1  0  0  0
 22 32  2  0  0  0
 26 27  1  0  0  0
 28104  1  0  0  0
 28105  1  0  0  0
 29106  1  0  0  0
 29107  1  0  0  0
 33 34  1  0  0  0
 33 66  1  0  0  0
 33 70  2  0  0  0
 34 36  1  0  0  0
 34 59  1  0  0  0
 34108  1  0  0  0
 35 44  2  0  0  0
 35 45  1  0  0  0
 35 68  1  0  0  0
 36 56  1  0  0  0
 36109  1  0  0  0
 37 39  1  0  0  0
 37 47  1  0  0  0
 37 66  1  0  0  0
 37110  1  0  0  0
 38 43  2  0  0  0
 38 46  1  0  0  0
 38 47  1  0  0  0
 39 64  1  0  0  0
 39 67  2  0  0  0
 40 52  1  0  0  0
 40 53  2  0  0  0
 40 58  1  0  0  0
 41111  1  0  0  0
 41112  1  0  0  0
 41113  1  0  0  0
 41 48  1  0  0  0
 42 43  1  0  0  0
 42 66  1  0  0  0
 42114  1  0  0  0
 42115  1  0  0  0
 43 44  1  0  0  0
 44116  1  0  0  0
 45 46  2  0  0  0
 45117  1  0  0  0
 46118  1  0  0  0
 47119  1  0  0  0
 47120  1  0  0  0
 48 56  1  0  0  0
 48 65  1  0  0  0
 48121  1  0  0  0
 49 50  1  0  0  0
 49 53  1  0  0  0
 49 64  1  0  0  0
 49122  1  0  0  0
 50 51  1  0  0  0
 50123  1  0  0  0
 50124  1  0  0  0
 51 52  1  0  0  0
 51125  1  0  0  0
 51126  1  0  0  0
 52127  1  0  0  0
 52128  1  0  0  0
 53 54  1  0  0  0
 54 55  2  0  0  0
 54129  1  0  0  0
 55 57  1  0  0  0
 55130  1  0  0  0
 56 69  2  0  0  0
 57 58  2  0  0  0
 57131  1  0  0  0
 58132  1  0  0  0
 59 60  1  0  0  0
 59 61  1  0  0  0
 59 62  1  0  0  0
 60133  1  0  0  0
 60134  1  0  0  0
 60135  1  0  0  0
 61136  1  0  0  0
 61137  1  0  0  0
 61138  1  0  0  0
 62139  1  0  0  0
 62140  1  0  0  0
 62141  1  0  0  0
 63 65  1  0  0  0
 63142  1  0  0  0
 63143  1  0  0  0
 63144  1  0  0  0
 64145  1  0  0  0
 65146  1  0  0  0
 68 82  1  0  0  0
 71 74  2  0  0  0
 71 84  1  0  0  0
 71147  1  0  0  0
 72 73  1  0  0  0
 72 75  1  0  0  0
 72 85  2  0  0  0
 73 79  1  0  0  0
 73 84  2  0  0  0
 74 85  1  0  0  0
 74 87  1  0  0  0
 75148  1  0  0  0
 75149  1  0  0  0
 75150  1  0  0  0
 76151  1  0  0  0
 76152  1  0  0  0
 76153  1  0  0  0
 76 83  1  0  0  0
 77 83  1  0  0  0
 77154  1  0  0  0
 77155  1  0  0  0
 77156  1  0  0  0
 78 87  1  0  0  0
 78157  1  0  0  0
 78158  1  0  0  0
 78159  1  0  0  0
 79 83  1  0  0  0
 79160  1  0  0  0
 79161  1  0  0  0
 80 81  1  0  0  0
 80 86  1  0  0  0
 80162  1  0  0  0
 80163  1  0  0  0
 81 87  1  0  0  0
 81164  1  0  0  0
 81165  1  0  0  0
 82 83  1  0  0  0
 82166  1  0  0  0
 82167  1  0  0  0
 86168  1  0  0  0
M  ISO  4   1 100  68 101  82 101  86 100
M  END
> <chiral flag>
0

> <version>
0

> <s_m_source_file>
/data/baiqing/PycharmProjects/Reinvent-master-3.2/result/LINK_invent/BTK/process_docking_weight1_custom_sum_contain_oxygen_bond_distance_aromatic_linkinvent_7_9_3/rearranged_h_0078.sdf

> <i_m_source_file_index>
41

> <r_mmod_Potential_Energy-OPLS-2005>
-26.5040798187256

> <r_mmod_Stretch_Energy-OPLS-2005>
45.2492942810059

> <r_mmod_Bend_Energy-OPLS-2005>
139.491424560547

> <r_mmod_Torsional_Energy-OPLS-2005>
194.531005859375

> <r_mmod_Improper_Torsional_Energy-OPLS-2005>
6.77501916885376

> <r_mmod_Van_der_Waal_Energy-OPLS-2005>
170.227142333984

> <r_mmod_Electrostatic_Energy-OPLS-2005>
-361.659820556641

> <r_mmod_Solvation_Energy-OPLS-2005>
-232.673858642578

> <b_mmod_Minimization_Converged-OPLS-2005>
0

> <r_mmod_RMS_Derivative-OPLS-2005>
1.97228002548218

$$$$
41
                    3D
 Structure written by MMmdl.
159167  0  0  1  0            999 V2000
  -30.6738  -14.5451   20.4725 C   0  0  0  0  0  0
  -30.4169  -12.3293   19.4363 C   0  0  0  0  0  0
  -29.4894  -12.4823   18.2150 C   0  0  0  0  0  0
  -28.0167  -12.3290   18.6395 C   0  0  0  0  0  0
  -27.6500  -13.2119   19.8640 C   0  0  2  0  0  0
  -28.6991  -13.0617   20.9914 C   0  0  0  0  0  0
  -25.2536  -13.8146   20.5706 C   0  0  0  0  0  0
  -24.1810  -13.0429   20.9213 C   0  0  0  0  0  0
  -24.6372  -11.6888   20.8745 C   0  0  0  0  0  0
  -23.9056  -10.4271   21.0387 C   0  0  0  0  0  0
  -24.3607   -9.4182   21.9170 C   0  0  0  0  0  0
  -23.6280   -8.2212   22.0742 C   0  0  0  0  0  0
  -22.4264   -8.0258   21.3535 C   0  0  0  0  0  0
  -21.9890   -9.0234   20.4633 C   0  0  0  0  0  0
  -22.7220  -10.2122   20.3039 C   0  0  0  0  0  0
  -21.6841   -6.0711   22.5277 C   0  0  0  0  0  0
  -21.3992   -6.5623   23.8205 C   0  0  0  0  0  0
  -21.3670   -5.6784   24.9181 C   0  0  0  0  0  0
  -21.6065   -4.3047   24.7231 C   0  0  0  0  0  0
  -21.8821   -3.8132   23.4354 C   0  0  0  0  0  0
  -21.9182   -4.6939   22.3405 C   0  0  0  0  0  0
  -22.7829  -13.5188   21.1909 C   0  0  0  0  0  0
  -22.1653   -4.2120   21.0978 F   0  0  0  0  0  0
  -21.5652   -3.4537   25.7752 F   0  0  0  0  0  0
  -30.0157  -13.3555   20.4112 N   0  0  0  0  0  0
  -26.2981  -12.9336   20.3363 N   0  0  0  0  0  0
  -25.9306  -11.6486   20.5774 N   0  0  0  0  0  0
  -22.0516  -12.8149   22.0475 N   0  0  0  0  0  0
  -25.4235  -15.1861   20.4118 N   0  0  0  0  0  0
  -31.8576  -14.6557   20.1499 O   0  0  0  0  0  0
  -21.6628   -6.8868   21.4244 O   0  0  0  0  0  0
  -22.3513  -14.5527   20.6826 O   0  0  0  0  0  0
  -24.6191  -31.8643   23.2053 C   0  0  0  0  0  0
  -25.9059  -32.4797   23.8369 C   0  0  1  0  0  0
  -27.2300  -27.3786   20.0953 C   0  0  0  0  0  0
  -25.5884  -33.8602   24.2298 N   0  0  0  0  0  0
  -23.4094  -30.4876   21.5473 C   0  0  2  0  0  0
  -24.8515  -28.9394   20.1171 C   0  0  0  0  0  0
  -22.7445  -29.4666   22.4987 C   0  0  0  0  0  0
  -18.0311  -28.1350   22.8491 C   0  0  0  0  0  0
  -24.1481  -36.7311   23.2640 C   0  0  0  0  0  0
  -25.9444  -30.8091   21.3681 C   0  0  0  0  0  0
  -26.0148  -29.4416   20.7099 C   0  0  0  0  0  0
  -27.2037  -28.6714   20.6861 C   0  0  0  0  0  0
  -26.0329  -26.8892   19.5283 C   0  0  0  0  0  0
  -24.8579  -27.6660   19.5248 C   0  0  0  0  0  0
  -23.6195  -29.8157   20.1624 C   0  0  0  0  0  0
  -25.4111  -36.3105   24.0331 C   0  0  1  0  0  0
  -20.5889  -28.3682   23.1305 C   0  0  2  0  0  0
  -20.6823  -26.9426   22.5403 C   0  0  0  0  0  0
  -19.5786  -26.6361   21.5223 C   0  0  0  0  0  0
  -18.1965  -26.7899   22.1612 C   0  0  0  0  0  0
  -19.1546  -28.8817   23.2907 C   0  0  0  0  0  0
  -18.9440  -30.1437   23.8890 C   0  0  0  0  0  0
  -17.6443  -30.6553   24.0526 C   0  0  0  0  0  0
  -25.9047  -34.9471   23.5111 C   0  0  0  0  0  0
  -16.5346  -29.9036   23.6297 C   0  0  0  0  0  0
  -16.7287  -28.6441   23.0346 C   0  0  0  0  0  0
  -26.4472  -31.6605   25.0724 C   0  0  0  0  0  0
  -25.3728  -31.3729   26.1459 C   0  0  0  0  0  0
  -27.0304  -30.3035   24.6154 C   0  0  0  0  0  0
  -27.6028  -32.4347   25.7481 C   0  0  0  0  0  0
  -27.5580  -37.1809   24.8461 C   0  0  0  0  0  0
  -21.4174  -29.3063   22.3718 N   0  0  0  0  0  0
  -26.4305  -37.3774   23.9392 N   0  0  0  0  0  0
  -24.6761  -31.0710   22.0963 N   0  0  0  0  0  0
  -23.4196  -28.8221   23.3048 O   0  0  0  0  0  0
  -28.4231  -26.6655   20.1146 O   0  0  0  0  0  0
  -26.5624  -34.8922   22.4686 O   0  0  0  0  0  0
  -23.5366  -32.1422   23.7415 O   0  0  0  0  0  0
  -28.6455  -19.0490   21.5952 C   0  0  0  0  0  0
  -29.3052  -19.6846   19.6355 C   0  0  0  0  0  0
  -29.1729  -17.9511   20.9365 C   0  0  0  0  0  0
  -30.1333  -16.4474   22.7254 C   0  0  0  0  0  0
  -28.3477  -25.1709   18.0903 C   0  0  0  0  0  0
  -28.5780  -22.6818   20.0425 C   0  0  0  0  0  0
  -28.1056  -24.1201   20.4779 C   0  0  0  0  0  0
  -28.2785  -21.5431   21.0772 C   0  0  0  0  0  0
  -29.3164  -16.5010   21.4211 C   0  0  2  0  0  0
  -28.6210  -25.3137   19.6008 C   0  0  2  0  0  0
  -29.6089  -18.3797   19.6792 N   0  0  0  0  0  0
  -28.7368  -20.1690   20.7547 N   0  0  0  0  0  0
  -29.8953  -15.6453   20.3680 N   0  0  0  0  0  0
  -31.4593  -12.4181   19.1331 H   0  0  0  0  0  0
  -30.3167  -11.3376   19.8764 H   0  0  0  0  0  0
  -29.7376  -11.7381   17.4573 H   0  0  0  0  0  0
  -29.6425  -13.4560   17.7479 H   0  0  0  0  0  0
  -27.8646  -11.2787   18.8910 H   0  0  0  0  0  0
  -27.3511  -12.5420   17.8006 H   0  0  0  0  0  0
  -27.6681  -14.2469   19.5198 H   0  0  0  0  0  0
  -28.6868  -12.0481   21.3950 H   0  0  0  0  0  0
  -28.4743  -13.7264   21.8261 H   0  0  0  0  0  0
  -25.2761   -9.5642   22.4740 H   0  0  0  0  0  0
  -23.9988   -7.4588   22.7449 H   0  0  0  0  0  0
  -21.0821   -8.8752   19.8916 H   0  0  0  0  0  0
  -22.3686  -10.9663   19.6127 H   0  0  0  0  0  0
  -21.1969   -7.6130   23.9700 H   0  0  0  0  0  0
  -21.1499   -6.0519   25.9085 H   0  0  0  0  0  0
  -22.0589   -2.7587   23.2868 H   0  0  0  0  0  0
  -22.4181  -11.9790   22.4800 H   0  0  0  0  0  0
  -21.1130  -13.1109   22.2746 H   0  0  0  0  0  0
  -24.6539  -15.8374   20.5090 H   0  0  0  0  0  0
  -26.2759  -15.6242   20.0830 H   0  0  0  0  0  0
  -26.7127  -32.5469   23.1123 H   0  0  0  0  0  0
  -24.9981  -33.9755   25.0409 H   0  0  0  0  0  0
  -22.6997  -31.3059   21.4016 H   0  0  0  0  0  0
  -23.3736  -35.9643   23.3326 H   0  0  0  0  0  0
  -24.3566  -36.8917   22.2045 H   0  0  0  0  0  0
  -23.7256  -37.6528   23.6658 H   0  0  0  0  0  0
  -26.0736  -31.5734   20.6020 H   0  0  0  0  0  0
  -26.8279  -30.8540   21.9925 H   0  0  0  0  0  0
  -28.1055  -29.0617   21.1354 H   0  0  0  0  0  0
  -25.9688  -25.9021   19.1040 H   0  0  0  0  0  0
  -23.9579  -27.2659   19.0796 H   0  0  0  0  0  0
  -23.7379  -30.5840   19.3967 H   0  0  0  0  0  0
  -22.7401  -29.2373   19.8707 H   0  0  0  0  0  0
  -25.1295  -36.1963   25.0825 H   0  0  0  0  0  0
  -20.9993  -28.3245   24.1422 H   0  0  0  0  0  0
  -20.5791  -26.2277   23.3568 H   0  0  0  0  0  0
  -21.6685  -26.7502   22.1189 H   0  0  0  0  0  0
  -19.6946  -25.6298   21.1216 H   0  0  0  0  0  0
  -19.6677  -27.3176   20.6768 H   0  0  0  0  0  0
  -17.4249  -26.6661   21.4014 H   0  0  0  0  0  0
  -18.0351  -25.9980   22.8945 H   0  0  0  0  0  0
  -19.7880  -30.7275   24.2273 H   0  0  0  0  0  0
  -17.4974  -31.6240   24.5096 H   0  0  0  0  0  0
  -15.5345  -30.2930   23.7610 H   0  0  0  0  0  0
  -15.8715  -28.0763   22.6997 H   0  0  0  0  0  0
  -24.5873  -30.7114   25.7795 H   0  0  0  0  0  0
  -24.8945  -32.2884   26.4932 H   0  0  0  0  0  0
  -25.8052  -30.8864   27.0206 H   0  0  0  0  0  0
  -26.2858  -29.6786   24.1202 H   0  0  0  0  0  0
  -27.4044  -29.7281   25.4634 H   0  0  0  0  0  0
  -27.8704  -30.4330   23.9330 H   0  0  0  0  0  0
  -27.2627  -33.3622   26.2088 H   0  0  0  0  0  0
  -28.3801  -32.6962   25.0296 H   0  0  0  0  0  0
  -28.0741  -31.8475   26.5368 H   0  0  0  0  0  0
  -28.2609  -38.0092   24.7484 H   0  0  0  0  0  0
  -28.1077  -36.2627   24.6330 H   0  0  0  0  0  0
  -27.2294  -37.1501   25.8864 H   0  0  0  0  0  0
  -20.9383  -29.8699   21.6824 H   0  0  0  0  0  0
  -26.0200  -38.2850   24.1383 H   0  0  0  0  0  0
  -28.2161  -19.1180   22.5878 H   0  0  0  0  0  0
  -29.5050  -20.2963   18.7669 H   0  0  0  0  0  0
  -30.2031  -15.4358   23.1228 H   0  0  0  0  0  0
  -29.6697  -17.0576   23.5036 H   0  0  0  0  0  0
  -31.1462  -16.8248   22.5749 H   0  0  0  0  0  0
  -28.9352  -24.3543   17.6716 H   0  0  0  0  0  0
  -28.6321  -26.0748   17.5530 H   0  0  0  0  0  0
  -27.3118  -24.9419   17.8538 H   0  0  0  0  0  0
  -29.6512  -22.7050   19.8540 H   0  0  0  0  0  0
  -28.1091  -22.4240   19.0921 H   0  0  0  0  0  0
  -28.4519  -24.2931   21.4982 H   0  0  0  0  0  0
  -27.0159  -24.1463   20.5291 H   0  0  0  0  0  0
  -27.2057  -21.4963   21.2613 H   0  0  0  0  0  0
  -28.7338  -21.8097   22.0322 H   0  0  0  0  0  0
  -28.3172  -16.1118   21.6283 H   0  0  0  0  0  0
  -29.7087  -25.2392   19.6698 H   0  0  0  0  0  0
  -30.2534  -16.2764   19.6624 H   0  0  0  0  0  0
  1 25  1  0  0  0
  1 30  2  0  0  0
  1 83  1  0  0  0
  2  3  1  0  0  0
  2 25  1  0  0  0
  2 84  1  0  0  0
  2 85  1  0  0  0
  3  4  1  0  0  0
  3 86  1  0  0  0
  3 87  1  0  0  0
  4  5  1  0  0  0
  4 88  1  0  0  0
  4 89  1  0  0  0
  5  6  1  0  0  0
  5 26  1  0  0  0
  5 90  1  0  0  0
  6 25  1  0  0  0
  6 91  1  0  0  0
  6 92  1  0  0  0
  7  8  2  0  0  0
  7 26  1  0  0  0
  7 29  1  0  0  0
  8  9  1  0  0  0
  8 22  1  0  0  0
  9 10  1  0  0  0
  9 27  2  0  0  0
 10 11  2  0  0  0
 10 15  1  0  0  0
 11 12  1  0  0  0
 11 93  1  0  0  0
 12 13  2  0  0  0
 12 94  1  0  0  0
 13 14  1  0  0  0
 13 31  1  0  0  0
 14 15  2  0  0  0
 14 95  1  0  0  0
 15 96  1  0  0  0
 16 17  2  0  0  0
 16 21  1  0  0  0
 16 31  1  0  0  0
 17 18  1  0  0  0
 17 97  1  0  0  0
 18 19  2  0  0  0
 18 98  1  0  0  0
 19 20  1  0  0  0
 19 24  1  0  0  0
 20 21  2  0  0  0
 20 99  1  0  0  0
 21 23  1  0  0  0
 22 28  1  0  0  0
 22 32  2  0  0  0
 26 27  1  0  0  0
 28100  1  0  0  0
 28101  1  0  0  0
 29102  1  0  0  0
 29103  1  0  0  0
 33 34  1  0  0  0
 33 66  1  0  0  0
 33 70  2  0  0  0
 34 36  1  0  0  0
 34 59  1  0  0  0
 34104  1  0  0  0
 35 44  2  0  0  0
 35 45  1  0  0  0
 35 68  1  0  0  0
 36 56  1  0  0  0
 36105  1  0  0  0
 37 39  1  0  0  0
 37 47  1  0  0  0
 37 66  1  0  0  0
 37106  1  0  0  0
 38 43  2  0  0  0
 38 46  1  0  0  0
 38 47  1  0  0  0
 39 64  1  0  0  0
 39 67  2  0  0  0
 40 52  1  0  0  0
 40 53  2  0  0  0
 40 58  1  0  0  0
 41107  1  0  0  0
 41108  1  0  0  0
 41109  1  0  0  0
 41 48  1  0  0  0
 42 43  1  0  0  0
 42 66  1  0  0  0
 42110  1  0  0  0
 42111  1  0  0  0
 43 44  1  0  0  0
 44112  1  0  0  0
 45 46  2  0  0  0
 45113  1  0  0  0
 46114  1  0  0  0
 47115  1  0  0  0
 47116  1  0  0  0
 48 56  1  0  0  0
 48 65  1  0  0  0
 48117  1  0  0  0
 49 50  1  0  0  0
 49 53  1  0  0  0
 49 64  1  0  0  0
 49118  1  0  0  0
 50 51  1  0  0  0
 50119  1  0  0  0
 50120  1  0  0  0
 51 52  1  0  0  0
 51121  1  0  0  0
 51122  1  0  0  0
 52123  1  0  0  0
 52124  1  0  0  0
 53 54  1  0  0  0
 54 55  2  0  0  0
 54125  1  0  0  0
 55 57  1  0  0  0
 55126  1  0  0  0
 56 69  2  0  0  0
 57 58  2  0  0  0
 57127  1  0  0  0
 58128  1  0  0  0
 59 60  1  0  0  0
 59 61  1  0  0  0
 59 62  1  0  0  0
 60129  1  0  0  0
 60130  1  0  0  0
 60131  1  0  0  0
 61132  1  0  0  0
 61133  1  0  0  0
 61134  1  0  0  0
 62135  1  0  0  0
 62136  1  0  0  0
 62137  1  0  0  0
 63 65  1  0  0  0
 63138  1  0  0  0
 63139  1  0  0  0
 63140  1  0  0  0
 64141  1  0  0  0
 65142  1  0  0  0
 68 80  1  0  0  0
 71 73  2  0  0  0
 71 82  1  0  0  0
 71143  1  0  0  0
 72 81  2  0  0  0
 72 82  1  0  0  0
 72144  1  0  0  0
 73 79  1  0  0  0
 73 81  1  0  0  0
 74145  1  0  0  0
 74146  1  0  0  0
 74147  1  0  0  0
 74 79  1  0  0  0
 75148  1  0  0  0
 75149  1  0  0  0
 75150  1  0  0  0
 75 80  1  0  0  0
 76 77  1  0  0  0
 76 78  1  0  0  0
 76151  1  0  0  0
 76152  1  0  0  0
 77 80  1  0  0  0
 77153  1  0  0  0
 77154  1  0  0  0
 78 82  1  0  0  0
 78155  1  0  0  0
 78156  1  0  0  0
 79 83  1  0  0  0
 79157  1  0  0  0
 80158  1  0  0  0
 83159  1  0  0  0
M  ISO  4   1 100  68 101  80 101  83 100
M  END
> <chiral flag>
0

> <version>
0

> <s_m_source_file>
/data/baiqing/PycharmProjects/Reinvent-master-3.2/result/LINK_invent/BTK/process_docking_weight1_custom_sum_contain_oxygen_bond_distance_aromatic_linkinvent_7_9_3/rearranged_h_0078.sdf

> <i_m_source_file_index>
42

> <r_mmod_Potential_Energy-OPLS-2005>
-65.2829284667969

> <r_mmod_Stretch_Energy-OPLS-2005>
48.1791191101074

> <r_mmod_Bend_Energy-OPLS-2005>
155.194320678711

> <r_mmod_Torsional_Energy-OPLS-2005>
259.138946533203

> <r_mmod_Improper_Torsional_Energy-OPLS-2005>
21.4663105010986

> <r_mmod_Van_der_Waal_Energy-OPLS-2005>
118.398193359375

> <r_mmod_Electrostatic_Energy-OPLS-2005>
-486.076538085938

> <r_mmod_Solvation_Energy-OPLS-2005>
-208.923263549805

> <b_mmod_Minimization_Converged-OPLS-2005>
0

> <r_mmod_RMS_Derivative-OPLS-2005>
4.05002927780151

$$$$
42
                    3D
 Structure written by MMmdl.
172180  0  0  1  0            999 V2000
  -30.6478  -14.6084   20.3701 C   0  0  0  0  0  0
  -30.4092  -12.3316   19.4333 C   0  0  0  0  0  0
  -29.4848  -12.3884   18.2013 C   0  0  0  0  0  0
  -27.9978  -12.3053   18.6143 C   0  0  0  0  0  0
  -27.6215  -13.1726   19.8568 C   0  0  2  0  0  0
  -28.6916  -13.0996   20.9689 C   0  0  0  0  0  0
  -25.2476  -13.8024   20.5718 C   0  0  0  0  0  0
  -24.1723  -13.0319   20.9310 C   0  0  0  0  0  0
  -24.6312  -11.6812   20.8986 C   0  0  0  0  0  0
  -23.9011  -10.4193   21.0597 C   0  0  0  0  0  0
  -24.3617   -9.4059   21.9265 C   0  0  0  0  0  0
  -23.6289   -8.2102   22.0781 C   0  0  0  0  0  0
  -22.4243   -8.0242   21.3561 C   0  0  0  0  0  0
  -21.9924   -9.0227   20.4643 C   0  0  0  0  0  0
  -22.7290  -10.2090   20.3120 C   0  0  0  0  0  0
  -21.6788   -6.0724   22.5311 C   0  0  0  0  0  0
  -21.3980   -6.5625   23.8249 C   0  0  0  0  0  0
  -21.3653   -5.6779   24.9213 C   0  0  0  0  0  0
  -21.6052   -4.3058   24.7242 C   0  0  0  0  0  0
  -21.8824   -3.8135   23.4366 C   0  0  0  0  0  0
  -21.9155   -4.6953   22.3427 C   0  0  0  0  0  0
  -22.7766  -13.5189   21.1887 C   0  0  0  0  0  0
  -22.1632   -4.2154   21.1000 F   0  0  0  0  0  0
  -21.5651   -3.4562   25.7756 F   0  0  0  0  0  0
  -29.9853  -13.4086   20.3490 N   0  0  0  0  0  0
  -26.2829  -12.9044   20.3472 N   0  0  0  0  0  0
  -25.9224  -11.6261   20.6063 N   0  0  0  0  0  0
  -22.0415  -12.8191   22.0476 N   0  0  0  0  0  0
  -25.4120  -15.1722   20.3904 N   0  0  0  0  0  0
  -31.8653  -14.6583   20.1818 O   0  0  0  0  0  0
  -21.6557   -6.8876   21.4268 O   0  0  0  0  0  0
  -22.3433  -14.5470   20.6723 O   0  0  0  0  0  0
  -24.6156  -31.8707   23.2035 C   0  0  0  0  0  0
  -25.9037  -32.4838   23.8378 C   0  0  1  0  0  0
  -27.2106  -27.3618   20.1549 C   0  0  0  0  0  0
  -25.5906  -33.8636   24.2328 N   0  0  0  0  0  0
  -23.4095  -30.4896   21.5460 C   0  0  2  0  0  0
  -24.8589  -28.9558   20.1079 C   0  0  0  0  0  0
  -22.7468  -29.4638   22.4942 C   0  0  0  0  0  0
  -18.0296  -28.1377   22.8500 C   0  0  0  0  0  0
  -24.1506  -36.7291   23.2639 C   0  0  0  0  0  0
  -25.9429  -30.8142   21.3686 C   0  0  0  0  0  0
  -26.0201  -29.4449   20.7202 C   0  0  0  0  0  0
  -27.2009  -28.6581   20.7394 C   0  0  0  0  0  0
  -26.0338  -26.9164   19.5056 C   0  0  0  0  0  0
  -24.8661  -27.6960   19.4911 C   0  0  0  0  0  0
  -23.6268  -29.8316   20.1574 C   0  0  0  0  0  0
  -25.4122  -36.3102   24.0332 C   0  0  1  0  0  0
  -20.5907  -28.3661   23.1313 C   0  0  2  0  0  0
  -20.6805  -26.9398   22.5406 C   0  0  0  0  0  0
  -19.5778  -26.6398   21.5205 C   0  0  0  0  0  0
  -18.1954  -26.7929   22.1608 C   0  0  0  0  0  0
  -19.1555  -28.8827   23.2902 C   0  0  0  0  0  0
  -18.9472  -30.1430   23.8913 C   0  0  0  0  0  0
  -17.6478  -30.6574   24.0556 C   0  0  0  0  0  0
  -25.9063  -34.9470   23.5132 C   0  0  0  0  0  0
  -16.5365  -29.9083   23.6317 C   0  0  0  0  0  0
  -16.7289  -28.6498   23.0342 C   0  0  0  0  0  0
  -26.4471  -31.6596   25.0687 C   0  0  0  0  0  0
  -25.3733  -31.3658   26.1436 C   0  0  0  0  0  0
  -27.0319  -30.3065   24.6010 C   0  0  0  0  0  0
  -27.6057  -32.4324   25.7447 C   0  0  0  0  0  0
  -27.5583  -37.1807   24.8481 C   0  0  0  0  0  0
  -21.4182  -29.3029   22.3706 N   0  0  0  0  0  0
  -26.4310  -37.3780   23.9400 N   0  0  0  0  0  0
  -24.6745  -31.0753   22.0972 N   0  0  0  0  0  0
  -23.4239  -28.8188   23.2996 O   0  0  0  0  0  0
  -28.3212  -26.5325   20.2639 O   0  0  0  0  0  0
  -26.5620  -34.8923   22.4709 O   0  0  0  0  0  0
  -23.5327  -32.1522   23.7362 O   0  0  0  0  0  0
  -28.3861  -19.1605   23.9508 C   0  0  0  0  0  0
  -28.7726  -20.4701   23.5600 C   0  0  0  0  0  0
  -28.6072  -18.3111   22.9062 C   0  0  0  0  0  0
  -29.3037  -20.3936   22.2928 C   0  0  0  0  0  0
  -28.5804  -21.7074   24.3965 C   0  0  0  0  0  0
  -28.1915  -16.8785   22.7494 C   0  0  0  0  0  0
  -30.2876  -24.3965   19.8121 C   0  0  0  0  0  0
  -29.7956  -24.6691   22.2880 C   0  0  0  0  0  0
  -29.1542  -16.0450   19.0997 C   0  0  0  0  0  0
  -29.8460  -21.5706   21.4639 C   0  0  0  0  0  0
  -28.8026  -22.6789   21.0350 C   0  0  0  0  0  0
  -29.7822  -18.4316   20.6576 C   0  0  0  0  0  0
  -30.5798  -17.0608   20.7538 C   0  0  0  0  0  0
  -28.0279  -25.1190   20.5089 C   0  0  0  0  0  0
  -29.2383  -24.2054   20.9229 C   0  0  0  0  0  0
  -29.2844  -19.0258   21.9161 N   0  0  0  0  0  0
  -29.9179  -15.7770   20.3318 N   0  0  0  0  0  0
  -31.4501  -12.4173   19.1163 H   0  0  0  0  0  0
  -30.3355  -11.3554   19.9164 H   0  0  0  0  0  0
  -29.7176  -11.5623   17.5255 H   0  0  0  0  0  0
  -29.6785  -13.2861   17.6224 H   0  0  0  0  0  0
  -27.7836  -11.2555   18.8139 H   0  0  0  0  0  0
  -27.3671  -12.5774   17.7660 H   0  0  0  0  0  0
  -27.5433  -14.1858   19.5153 H   0  0  0  0  0  0
  -28.7095  -12.1005   21.4092 H   0  0  0  0  0  0
  -28.4648  -13.7965   21.7791 H   0  0  0  0  0  0
  -25.2818   -9.5410   22.4751 H   0  0  0  0  0  0
  -24.0014   -7.4415   22.7453 H   0  0  0  0  0  0
  -21.0887   -8.8793   19.8858 H   0  0  0  0  0  0
  -22.3934  -10.9636   19.6169 H   0  0  0  0  0  0
  -21.1996   -7.6122   23.9771 H   0  0  0  0  0  0
  -21.1478   -6.0497   25.9113 H   0  0  0  0  0  0
  -22.0624   -2.7596   23.2879 H   0  0  0  0  0  0
  -22.4195  -11.9949   22.4848 H   0  0  0  0  0  0
  -21.1023  -13.1104   22.2766 H   0  0  0  0  0  0
  -24.6122  -15.7944   20.3845 H   0  0  0  0  0  0
  -26.2384  -15.5910   19.9830 H   0  0  0  0  0  0
  -26.7113  -32.5560   23.1135 H   0  0  0  0  0  0
  -25.0067  -33.9851   25.0480 H   0  0  0  0  0  0
  -22.6891  -31.2978   21.4082 H   0  0  0  0  0  0
  -23.3764  -35.9631   23.3350 H   0  0  0  0  0  0
  -24.3595  -36.8882   22.2052 H   0  0  0  0  0  0
  -23.7283  -37.6506   23.6650 H   0  0  0  0  0  0
  -26.0668  -31.5665   20.5896 H   0  0  0  0  0  0
  -26.8271  -30.8797   21.9913 H   0  0  0  0  0  0
  -28.0849  -29.0149   21.2493 H   0  0  0  0  0  0
  -25.9915  -25.9494   19.0247 H   0  0  0  0  0  0
  -23.9722  -27.3222   19.0132 H   0  0  0  0  0  0
  -23.7488  -30.6163   19.4097 H   0  0  0  0  0  0
  -22.7504  -29.2624   19.8458 H   0  0  0  0  0  0
  -25.1308  -36.1965   25.0814 H   0  0  0  0  0  0
  -20.9984  -28.3243   24.1445 H   0  0  0  0  0  0
  -20.5786  -26.2246   23.3588 H   0  0  0  0  0  0
  -21.6662  -26.7498   22.1149 H   0  0  0  0  0  0
  -19.6941  -25.6336   21.1192 H   0  0  0  0  0  0
  -19.6718  -27.3235   20.6764 H   0  0  0  0  0  0
  -17.4237  -26.6692   21.3988 H   0  0  0  0  0  0
  -18.0322  -26.0055   22.8985 H   0  0  0  0  0  0
  -19.7953  -30.7205   24.2327 H   0  0  0  0  0  0
  -17.5050  -31.6258   24.5146 H   0  0  0  0  0  0
  -15.5375  -30.2976   23.7636 H   0  0  0  0  0  0
  -15.8698  -28.0803   22.7057 H   0  0  0  0  0  0
  -24.5928  -30.7000   25.7733 H   0  0  0  0  0  0
  -24.8877  -32.2790   26.4887 H   0  0  0  0  0  0
  -25.8091  -30.8817   27.0190 H   0  0  0  0  0  0
  -26.2846  -29.6819   24.1105 H   0  0  0  0  0  0
  -27.4225  -29.7282   25.4386 H   0  0  0  0  0  0
  -27.8622  -30.4445   23.9080 H   0  0  0  0  0  0
  -27.2718  -33.3672   26.1963 H   0  0  0  0  0  0
  -28.3874  -32.6832   25.0259 H   0  0  0  0  0  0
  -28.0716  -31.8490   26.5400 H   0  0  0  0  0  0
  -28.2607  -38.0096   24.7504 H   0  0  0  0  0  0
  -28.1089  -36.2627   24.6361 H   0  0  0  0  0  0
  -27.2299  -37.1509   25.8887 H   0  0  0  0  0  0
  -20.9333  -29.8791   21.6975 H   0  0  0  0  0  0
  -26.0203  -38.2862   24.1377 H   0  0  0  0  0  0
  -27.9210  -18.8924   24.8920 H   0  0  0  0  0  0
  -28.3879  -21.4406   25.4355 H   0  0  0  0  0  0
  -27.7222  -22.2728   24.0311 H   0  0  0  0  0  0
  -29.4550  -22.3583   24.3650 H   0  0  0  0  0  0
  -27.7933  -16.7143   21.7469 H   0  0  0  0  0  0
  -27.3998  -16.6252   23.4545 H   0  0  0  0  0  0
  -29.0133  -16.1801   22.9177 H   0  0  0  0  0  0
  -31.1951  -23.8203   19.9817 H   0  0  0  0  0  0
  -30.5792  -25.4457   19.7335 H   0  0  0  0  0  0
  -29.8847  -24.1153   18.8366 H   0  0  0  0  0  0
  -30.7837  -24.2492   22.4786 H   0  0  0  0  0  0
  -29.1467  -24.3613   23.1102 H   0  0  0  0  0  0
  -29.8924  -25.7539   22.3558 H   0  0  0  0  0  0
  -28.2085  -16.5555   19.3036 H   0  0  0  0  0  0
  -28.9239  -15.1734   18.4999 H   0  0  0  0  0  0
  -29.7366  -16.6712   18.4249 H   0  0  0  0  0  0
  -30.3674  -21.2214   20.5762 H   0  0  0  0  0  0
  -30.6333  -22.0300   22.0583 H   0  0  0  0  0  0
  -27.9752  -22.6352   21.7435 H   0  0  0  0  0  0
  -28.3579  -22.3606   20.0902 H   0  0  0  0  0  0
  -28.9684  -18.4449   19.9337 H   0  0  0  0  0  0
  -30.4854  -19.1438   20.2418 H   0  0  0  0  0  0
  -31.0654  -16.9534   21.7265 H   0  0  0  0  0  0
  -31.4177  -17.1735   20.0636 H   0  0  0  0  0  0
  -27.2406  -25.0396   21.2635 H   0  0  0  0  0  0
  -27.6233  -24.6933   19.5914 H   0  0  0  0  0  0
  1 25  1  0  0  0
  1 30  2  0  0  0
  1 87  1  0  0  0
  2  3  1  0  0  0
  2 25  1  0  0  0
  2 88  1  0  0  0
  2 89  1  0  0  0
  3  4  1  0  0  0
  3 90  1  0  0  0
  3 91  1  0  0  0
  4  5  1  0  0  0
  4 92  1  0  0  0
  4 93  1  0  0  0
  5  6  1  0  0  0
  5 26  1  0  0  0
  5 94  1  0  0  0
  6 25  1  0  0  0
  6 95  1  0  0  0
  6 96  1  0  0  0
  7  8  2  0  0  0
  7 26  1  0  0  0
  7 29  1  0  0  0
  8  9  1  0  0  0
  8 22  1  0  0  0
  9 10  1  0  0  0
  9 27  2  0  0  0
 10 11  2  0  0  0
 10 15  1  0  0  0
 11 12  1  0  0  0
 11 97  1  0  0  0
 12 13  2  0  0  0
 12 98  1  0  0  0
 13 14  1  0  0  0
 13 31  1  0  0  0
 14 15  2  0  0  0
 14 99  1  0  0  0
 15100  1  0  0  0
 16 17  2  0  0  0
 16 21  1  0  0  0
 16 31  1  0  0  0
 17 18  1  0  0  0
 17101  1  0  0  0
 18 19  2  0  0  0
 18102  1  0  0  0
 19 20  1  0  0  0
 19 24  1  0  0  0
 20 21  2  0  0  0
 20103  1  0  0  0
 21 23  1  0  0  0
 22 28  1  0  0  0
 22 32  2  0  0  0
 26 27  1  0  0  0
 28104  1  0  0  0
 28105  1  0  0  0
 29106  1  0  0  0
 29107  1  0  0  0
 33 34  1  0  0  0
 33 66  1  0  0  0
 33 70  2  0  0  0
 34 36  1  0  0  0
 34 59  1  0  0  0
 34108  1  0  0  0
 35 44  2  0  0  0
 35 45  1  0  0  0
 35 68  1  0  0  0
 36 56  1  0  0  0
 36109  1  0  0  0
 37 39  1  0  0  0
 37 47  1  0  0  0
 37 66  1  0  0  0
 37110  1  0  0  0
 38 43  2  0  0  0
 38 46  1  0  0  0
 38 47  1  0  0  0
 39 64  1  0  0  0
 39 67  2  0  0  0
 40 52  1  0  0  0
 40 53  2  0  0  0
 40 58  1  0  0  0
 41111  1  0  0  0
 41112  1  0  0  0
 41113  1  0  0  0
 41 48  1  0  0  0
 42 43  1  0  0  0
 42 66  1  0  0  0
 42114  1  0  0  0
 42115  1  0  0  0
 43 44  1  0  0  0
 44116  1  0  0  0
 45 46  2  0  0  0
 45117  1  0  0  0
 46118  1  0  0  0
 47119  1  0  0  0
 47120  1  0  0  0
 48 56  1  0  0  0
 48 65  1  0  0  0
 48121  1  0  0  0
 49 50  1  0  0  0
 49 53  1  0  0  0
 49 64  1  0  0  0
 49122  1  0  0  0
 50 51  1  0  0  0
 50123  1  0  0  0
 50124  1  0  0  0
 51 52  1  0  0  0
 51125  1  0  0  0
 51126  1  0  0  0
 52127  1  0  0  0
 52128  1  0  0  0
 53 54  1  0  0  0
 54 55  2  0  0  0
 54129  1  0  0  0
 55 57  1  0  0  0
 55130  1  0  0  0
 56 69  2  0  0  0
 57 58  2  0  0  0
 57131  1  0  0  0
 58132  1  0  0  0
 59 60  1  0  0  0
 59 61  1  0  0  0
 59 62  1  0  0  0
 60133  1  0  0  0
 60134  1  0  0  0
 60135  1  0  0  0
 61136  1  0  0  0
 61137  1  0  0  0
 61138  1  0  0  0
 62139  1  0  0  0
 62140  1  0  0  0
 62141  1  0  0  0
 63 65  1  0  0  0
 63142  1  0  0  0
 63143  1  0  0  0
 63144  1  0  0  0
 64145  1  0  0  0
 65146  1  0  0  0
 68 84  1  0  0  0
 71 72  1  0  0  0
 71 73  2  0  0  0
 71147  1  0  0  0
 72 74  2  0  0  0
 72 75  1  0  0  0
 73 76  1  0  0  0
 73 86  1  0  0  0
 74 80  1  0  0  0
 74 86  1  0  0  0
 75148  1  0  0  0
 75149  1  0  0  0
 75150  1  0  0  0
 76151  1  0  0  0
 76152  1  0  0  0
 76153  1  0  0  0
 77154  1  0  0  0
 77155  1  0  0  0
 77156  1  0  0  0
 77 85  1  0  0  0
 78 85  1  0  0  0
 78157  1  0  0  0
 78158  1  0  0  0
 78159  1  0  0  0
 79 87  1  0  0  0
 79160  1  0  0  0
 79161  1  0  0  0
 79162  1  0  0  0
 80 81  1  0  0  0
 80163  1  0  0  0
 80164  1  0  0  0
 81 85  1  0  0  0
 81165  1  0  0  0
 81166  1  0  0  0
 82 83  1  0  0  0
 82 86  1  0  0  0
 82167  1  0  0  0
 82168  1  0  0  0
 83 87  1  0  0  0
 83169  1  0  0  0
 83170  1  0  0  0
 84 85  1  0  0  0
 84171  1  0  0  0
 84172  1  0  0  0
M  ISO  4   1 100  68 101  84 101  87 100
M  END
> <chiral flag>
0

> <version>
0

> <s_m_source_file>
/data/baiqing/PycharmProjects/Reinvent-master-3.2/result/LINK_invent/BTK/process_docking_weight1_custom_sum_contain_oxygen_bond_distance_aromatic_linkinvent_7_9_3/rearranged_h_0078.sdf

> <i_m_source_file_index>
43

> <r_mmod_Potential_Energy-OPLS-2005>
234.34065246582

> <r_mmod_Stretch_Energy-OPLS-2005>
68.9536285400391

> <r_mmod_Bend_Energy-OPLS-2005>
151.237365722656

> <r_mmod_Torsional_Energy-OPLS-2005>
342.792938232422

> <r_mmod_Improper_Torsional_Energy-OPLS-2005>
12.0259475708008

> <r_mmod_Van_der_Waal_Energy-OPLS-2005>
141.139099121094

> <r_mmod_Electrostatic_Energy-OPLS-2005>
-344.539947509766

> <r_mmod_Solvation_Energy-OPLS-2005>
-190.685607910156

> <b_mmod_Minimization_Converged-OPLS-2005>
0

> <r_mmod_RMS_Derivative-OPLS-2005>
8.54164600372314

$$$$
43
                    3D
 Structure written by MMmdl.
163171  0  0  1  0            999 V2000
  -30.6883  -14.4077   20.6723 C   0  0  0  0  0  0
  -30.4177  -12.2794   19.4425 C   0  0  0  0  0  0
  -29.5008  -12.5160   18.2215 C   0  0  0  0  0  0
  -28.0133  -12.3856   18.6078 C   0  0  0  0  0  0
  -27.6614  -13.2040   19.8734 C   0  0  2  0  0  0
  -28.6804  -12.9285   21.0076 C   0  0  0  0  0  0
  -25.2514  -13.8194   20.5487 C   0  0  0  0  0  0
  -24.1812  -13.0492   20.9080 C   0  0  0  0  0  0
  -24.6333  -11.6918   20.8633 C   0  0  0  0  0  0
  -23.8999  -10.4315   21.0326 C   0  0  0  0  0  0
  -24.3562   -9.4237   21.9096 C   0  0  0  0  0  0
  -23.6270   -8.2258   22.0721 C   0  0  0  0  0  0
  -22.4231   -8.0274   21.3559 C   0  0  0  0  0  0
  -21.9844   -9.0190   20.4621 C   0  0  0  0  0  0
  -22.7156  -10.2090   20.3001 C   0  0  0  0  0  0
  -21.6843   -6.0718   22.5257 C   0  0  0  0  0  0
  -21.4024   -6.5651   23.8182 C   0  0  0  0  0  0
  -21.3662   -5.6824   24.9169 C   0  0  0  0  0  0
  -21.6049   -4.3069   24.7230 C   0  0  0  0  0  0
  -21.8842   -3.8160   23.4351 C   0  0  0  0  0  0
  -21.9188   -4.6956   22.3410 C   0  0  0  0  0  0
  -22.7814  -13.5217   21.1832 C   0  0  0  0  0  0
  -22.1673   -4.2151   21.0977 F   0  0  0  0  0  0
  -21.5582   -3.4544   25.7732 F   0  0  0  0  0  0
  -30.0397  -13.2196   20.5137 N   0  0  0  0  0  0
  -26.2974  -12.9368   20.3258 N   0  0  0  0  0  0
  -25.9260  -11.6500   20.5604 N   0  0  0  0  0  0
  -22.0559  -12.8149   22.0439 N   0  0  0  0  0  0
  -25.4347  -15.1871   20.3742 N   0  0  0  0  0  0
  -31.6821  -14.7107   19.9979 O   0  0  0  0  0  0
  -21.6653   -6.8814   21.4215 O   0  0  0  0  0  0
  -22.3405  -14.5487   20.6669 O   0  0  0  0  0  0
  -24.6057  -31.8682   23.2137 C   0  0  0  0  0  0
  -25.8991  -32.4807   23.8448 C   0  0  1  0  0  0
  -27.2209  -27.4756   20.1016 C   0  0  0  0  0  0
  -25.5839  -33.8614   24.2346 N   0  0  0  0  0  0
  -23.3945  -30.4888   21.5531 C   0  0  2  0  0  0
  -24.8423  -28.9740   20.1029 C   0  0  0  0  0  0
  -22.7411  -29.4593   22.5022 C   0  0  0  0  0  0
  -18.0292  -28.1386   22.8462 C   0  0  0  0  0  0
  -24.1503  -36.7358   23.2643 C   0  0  0  0  0  0
  -25.9160  -30.8490   21.3667 C   0  0  0  0  0  0
  -25.9927  -29.4922   20.7070 C   0  0  0  0  0  0
  -27.1916  -28.7518   20.6996 C   0  0  0  0  0  0
  -26.0603  -26.9646   19.4886 C   0  0  0  0  0  0
  -24.8684  -27.7105   19.4839 C   0  0  0  0  0  0
  -23.6016  -29.8307   20.1625 C   0  0  0  0  0  0
  -25.4106  -36.3109   24.0349 C   0  0  1  0  0  0
  -20.5853  -28.3527   23.1351 C   0  0  2  0  0  0
  -20.6785  -26.9412   22.5110 C   0  0  0  0  0  0
  -19.5735  -26.6750   21.4860 C   0  0  0  0  0  0
  -18.1890  -26.8127   22.1268 C   0  0  0  0  0  0
  -19.1546  -28.8748   23.2988 C   0  0  0  0  0  0
  -18.9486  -30.1283   23.9124 C   0  0  0  0  0  0
  -17.6516  -30.6505   24.0708 C   0  0  0  0  0  0
  -25.9032  -34.9468   23.5157 C   0  0  0  0  0  0
  -16.5385  -29.9101   23.6411 C   0  0  0  0  0  0
  -16.7277  -28.6537   23.0396 C   0  0  0  0  0  0
  -26.4460  -31.6593   25.0747 C   0  0  0  0  0  0
  -25.3787  -31.3738   26.1561 C   0  0  0  0  0  0
  -27.0272  -30.3011   24.6116 C   0  0  0  0  0  0
  -27.6010  -32.4325   25.7495 C   0  0  0  0  0  0
  -27.5600  -37.1817   24.8445 C   0  0  0  0  0  0
  -21.4124  -29.2985   22.3860 N   0  0  0  0  0  0
  -26.4308  -37.3764   23.9399 N   0  0  0  0  0  0
  -24.6548  -31.0819   22.1018 N   0  0  0  0  0  0
  -23.4201  -28.8156   23.3061 O   0  0  0  0  0  0
  -28.3825  -26.7456   20.1334 O   0  0  0  0  0  0
  -26.5597  -34.8888   22.4711 O   0  0  0  0  0  0
  -23.5272  -32.1397   23.7626 O   0  0  0  0  0  0
  -29.7038  -19.8432   21.0571 C   0  0  0  0  0  0
  -29.2588  -21.0669   20.5097 C   0  0  0  0  0  0
  -28.7562  -18.9033   21.5286 C   0  0  0  0  0  0
  -27.3886  -19.2360   21.3720 C   0  0  0  0  0  0
  -27.8780  -21.3286   20.4872 C   0  0  0  0  0  0
  -25.5300  -18.6623   23.0213 C   0  0  0  0  0  0
  -29.2270  -17.5806   22.1568 C   0  0  0  0  0  0
  -26.2315  -18.3085   21.6978 C   0  0  0  0  0  0
  -28.8689  -24.4343   19.6234 C   0  0  0  0  0  0
  -30.0455  -16.7165   21.1728 C   0  0  0  0  0  0
  -27.8987  -23.3760   19.0672 C   0  0  0  0  0  0
  -28.2401  -25.4170   20.6321 C   0  0  0  0  0  0
  -26.9796  -20.4262   20.8938 N   0  0  0  0  0  0
  -27.2947  -22.5307   20.0903 N   0  0  0  0  0  0
  -30.1582  -15.2755   21.5470 N   0  0  0  0  0  0
  -31.4644  -12.3574   19.1615 H   0  0  0  0  0  0
  -30.3012  -11.2521   19.7940 H   0  0  0  0  0  0
  -29.7392  -11.8037   17.4276 H   0  0  0  0  0  0
  -29.6820  -13.5096   17.8137 H   0  0  0  0  0  0
  -27.7918  -11.3338   18.7699 H   0  0  0  0  0  0
  -27.3809  -12.6937   17.7776 H   0  0  0  0  0  0
  -27.7113  -14.2546   19.5923 H   0  0  0  0  0  0
  -28.6353  -11.8807   21.2927 H   0  0  0  0  0  0
  -28.4135  -13.4754   21.9128 H   0  0  0  0  0  0
  -25.2697   -9.5781   22.4633 H   0  0  0  0  0  0
  -24.0014   -7.4690   22.7461 H   0  0  0  0  0  0
  -21.0751   -8.8671   19.8932 H   0  0  0  0  0  0
  -22.3535  -10.9588   19.6120 H   0  0  0  0  0  0
  -21.2068   -7.6160   23.9697 H   0  0  0  0  0  0
  -21.1442   -6.0537   25.9053 H   0  0  0  0  0  0
  -22.0614   -2.7603   23.2856 H   0  0  0  0  0  0
  -22.4139  -11.9740   22.4759 H   0  0  0  0  0  0
  -21.1218  -13.1164   22.2885 H   0  0  0  0  0  0
  -24.6978  -15.8732   20.4815 H   0  0  0  0  0  0
  -26.3256  -15.5865   20.1110 H   0  0  0  0  0  0
  -26.7048  -32.5521   23.1218 H   0  0  0  0  0  0
  -24.9918  -33.9736   25.0460 H   0  0  0  0  0  0
  -22.6790  -31.3006   21.4228 H   0  0  0  0  0  0
  -23.3725  -35.9736   23.3285 H   0  0  0  0  0  0
  -24.3638  -36.8997   22.2063 H   0  0  0  0  0  0
  -23.7334  -37.6593   23.6667 H   0  0  0  0  0  0
  -26.0336  -31.6311   20.6140 H   0  0  0  0  0  0
  -26.8008  -30.8852   21.9927 H   0  0  0  0  0  0
  -28.0839  -29.1409   21.1699 H   0  0  0  0  0  0
  -26.0694  -25.9897   19.0247 H   0  0  0  0  0  0
  -23.9891  -27.3054   19.0059 H   0  0  0  0  0  0
  -23.7114  -30.6131   19.4101 H   0  0  0  0  0  0
  -22.7282  -29.2501   19.8590 H   0  0  0  0  0  0
  -25.1295  -36.1988   25.0844 H   0  0  0  0  0  0
  -20.9971  -28.2842   24.1457 H   0  0  0  0  0  0
  -20.5842  -26.1952   23.3015 H   0  0  0  0  0  0
  -21.6587  -26.7680   22.0655 H   0  0  0  0  0  0
  -19.6688  -27.3983   20.6728 H   0  0  0  0  0  0
  -19.6883  -25.6890   21.0371 H   0  0  0  0  0  0
  -17.4253  -26.7273   21.3520 H   0  0  0  0  0  0
  -18.0118  -25.9967   22.8315 H   0  0  0  0  0  0
  -19.7994  -30.6991   24.2678 H   0  0  0  0  0  0
  -17.5123  -31.6155   24.5410 H   0  0  0  0  0  0
  -15.5417  -30.3047   23.7710 H   0  0  0  0  0  0
  -15.8643  -28.0902   22.7062 H   0  0  0  0  0  0
  -24.5874  -30.7116   25.7993 H   0  0  0  0  0  0
  -24.9066  -32.2925   26.5042 H   0  0  0  0  0  0
  -25.8174  -30.8905   27.0332 H   0  0  0  0  0  0
  -26.2755  -29.6718   24.1291 H   0  0  0  0  0  0
  -27.4182  -29.7240   25.4549 H   0  0  0  0  0  0
  -27.8557  -30.4286   23.9132 H   0  0  0  0  0  0
  -27.2555  -33.3574   26.2162 H   0  0  0  0  0  0
  -28.3774  -32.7037   25.0308 H   0  0  0  0  0  0
  -28.0786  -31.8469   26.5389 H   0  0  0  0  0  0
  -28.2605  -38.0114   24.7467 H   0  0  0  0  0  0
  -28.1098  -36.2652   24.6277 H   0  0  0  0  0  0
  -27.2319  -37.1488   25.8844 H   0  0  0  0  0  0
  -20.9280  -29.8644   21.7052 H   0  0  0  0  0  0
  -26.0212  -38.2864   24.1319 H   0  0  0  0  0  0
  -30.7635  -19.6356   21.1005 H   0  0  0  0  0  0
  -29.9774  -21.7936   20.1541 H   0  0  0  0  0  0
  -24.6752  -17.9964   23.1857 H   0  0  0  0  0  0
  -25.1498  -19.6851   22.9875 H   0  0  0  0  0  0
  -26.1856  -18.5780   23.8910 H   0  0  0  0  0  0
  -28.3870  -17.0168   22.5358 H   0  0  0  0  0  0
  -29.8181  -17.7855   23.0512 H   0  0  0  0  0  0
  -26.5330  -17.2617   21.6580 H   0  0  0  0  0  0
  -25.5200  -18.4052   20.8663 H   0  0  0  0  0  0
  -29.2801  -24.9899   18.7776 H   0  0  0  0  0  0
  -29.7305  -23.9712   20.0937 H   0  0  0  0  0  0
  -29.5408  -16.8278   20.2006 H   0  0  0  0  0  0
  -31.0291  -17.1664   21.0227 H   0  0  0  0  0  0
  -28.3806  -22.7639   18.3083 H   0  0  0  0  0  0
  -27.0874  -23.8848   18.5539 H   0  0  0  0  0  0
  -28.7616  -25.3681   21.5859 H   0  0  0  0  0  0
  -27.2130  -25.1465   20.8715 H   0  0  0  0  0  0
  -26.2799  -22.5292   20.1375 H   0  0  0  0  0  0
  -29.7837  -14.8741   22.4302 H   0  0  0  0  0  0
  1 25  1  0  0  0
  1 30  2  0  0  0
  1 85  1  0  0  0
  2  3  1  0  0  0
  2 25  1  0  0  0
  2 86  1  0  0  0
  2 87  1  0  0  0
  3  4  1  0  0  0
  3 88  1  0  0  0
  3 89  1  0  0  0
  4  5  1  0  0  0
  4 90  1  0  0  0
  4 91  1  0  0  0
  5  6  1  0  0  0
  5 26  1  0  0  0
  5 92  1  0  0  0
  6 25  1  0  0  0
  6 93  1  0  0  0
  6 94  1  0  0  0
  7  8  2  0  0  0
  7 26  1  0  0  0
  7 29  1  0  0  0
  8  9  1  0  0  0
  8 22  1  0  0  0
  9 10  1  0  0  0
  9 27  2  0  0  0
 10 11  2  0  0  0
 10 15  1  0  0  0
 11 12  1  0  0  0
 11 95  1  0  0  0
 12 13  2  0  0  0
 12 96  1  0  0  0
 13 14  1  0  0  0
 13 31  1  0  0  0
 14 15  2  0  0  0
 14 97  1  0  0  0
 15 98  1  0  0  0
 16 17  2  0  0  0
 16 21  1  0  0  0
 16 31  1  0  0  0
 17 18  1  0  0  0
 17 99  1  0  0  0
 18 19  2  0  0  0
 18100  1  0  0  0
 19 20  1  0  0  0
 19 24  1  0  0  0
 20 21  2  0  0  0
 20101  1  0  0  0
 21 23  1  0  0  0
 22 28  1  0  0  0
 22 32  2  0  0  0
 26 27  1  0  0  0
 28102  1  0  0  0
 28103  1  0  0  0
 29104  1  0  0  0
 29105  1  0  0  0
 33 34  1  0  0  0
 33 66  1  0  0  0
 33 70  2  0  0  0
 34 36  1  0  0  0
 34 59  1  0  0  0
 34106  1  0  0  0
 35 44  2  0  0  0
 35 45  1  0  0  0
 35 68  1  0  0  0
 36 56  1  0  0  0
 36107  1  0  0  0
 37 39  1  0  0  0
 37 47  1  0  0  0
 37 66  1  0  0  0
 37108  1  0  0  0
 38 43  2  0  0  0
 38 46  1  0  0  0
 38 47  1  0  0  0
 39 64  1  0  0  0
 39 67  2  0  0  0
 40 52  1  0  0  0
 40 53  2  0  0  0
 40 58  1  0  0  0
 41109  1  0  0  0
 41110  1  0  0  0
 41111  1  0  0  0
 41 48  1  0  0  0
 42 43  1  0  0  0
 42 66  1  0  0  0
 42112  1  0  0  0
 42113  1  0  0  0
 43 44  1  0  0  0
 44114  1  0  0  0
 45 46  2  0  0  0
 45115  1  0  0  0
 46116  1  0  0  0
 47117  1  0  0  0
 47118  1  0  0  0
 48 56  1  0  0  0
 48 65  1  0  0  0
 48119  1  0  0  0
 49 50  1  0  0  0
 49 53  1  0  0  0
 49 64  1  0  0  0
 49120  1  0  0  0
 50 51  1  0  0  0
 50121  1  0  0  0
 50122  1  0  0  0
 51 52  1  0  0  0
 51123  1  0  0  0
 51124  1  0  0  0
 52125  1  0  0  0
 52126  1  0  0  0
 53 54  1  0  0  0
 54 55  2  0  0  0
 54127  1  0  0  0
 55 57  1  0  0  0
 55128  1  0  0  0
 56 69  2  0  0  0
 57 58  2  0  0  0
 57129  1  0  0  0
 58130  1  0  0  0
 59 60  1  0  0  0
 59 61  1  0  0  0
 59 62  1  0  0  0
 60131  1  0  0  0
 60132  1  0  0  0
 60133  1  0  0  0
 61134  1  0  0  0
 61135  1  0  0  0
 61136  1  0  0  0
 62137  1  0  0  0
 62138  1  0  0  0
 62139  1  0  0  0
 63 65  1  0  0  0
 63140  1  0  0  0
 63141  1  0  0  0
 63142  1  0  0  0
 64143  1  0  0  0
 65144  1  0  0  0
 68 82  1  0  0  0
 71 72  2  0  0  0
 71 73  1  0  0  0
 71145  1  0  0  0
 72 75  1  0  0  0
 72146  1  0  0  0
 73 74  2  0  0  0
 73 77  1  0  0  0
 74 78  1  0  0  0
 74 83  1  0  0  0
 75 83  2  0  0  0
 75 84  1  0  0  0
 76 78  1  0  0  0
 76147  1  0  0  0
 76148  1  0  0  0
 76149  1  0  0  0
 77 80  1  0  0  0
 77150  1  0  0  0
 77151  1  0  0  0
 78152  1  0  0  0
 78153  1  0  0  0
 79 81  1  0  0  0
 79 82  1  0  0  0
 79154  1  0  0  0
 79155  1  0  0  0
 80 85  1  0  0  0
 80156  1  0  0  0
 80157  1  0  0  0
 81 84  1  0  0  0
 81158  1  0  0  0
 81159  1  0  0  0
 82160  1  0  0  0
 82161  1  0  0  0
 84162  1  0  0  0
 85163  1  0  0  0
M  ISO  4   1 100  68 101  82 101  85 100
M  END
> <chiral flag>
0

> <version>
0

> <s_m_source_file>
/data/baiqing/PycharmProjects/Reinvent-master-3.2/result/LINK_invent/BTK/process_docking_weight1_custom_sum_contain_oxygen_bond_distance_aromatic_linkinvent_7_9_3/rearranged_h_0078.sdf

> <i_m_source_file_index>
44

> <r_mmod_Potential_Energy-OPLS-2005>
-293.124267578125

> <r_mmod_Stretch_Energy-OPLS-2005>
38.0442237854004

> <r_mmod_Bend_Energy-OPLS-2005>
112.268531799316

> <r_mmod_Torsional_Energy-OPLS-2005>
256.533508300781

> <r_mmod_Improper_Torsional_Energy-OPLS-2005>
5.06242179870605

> <r_mmod_Van_der_Waal_Energy-OPLS-2005>
156.136520385742

> <r_mmod_Electrostatic_Energy-OPLS-2005>
-642.501647949219

> <r_mmod_Solvation_Energy-OPLS-2005>
-230.897155761719

> <b_mmod_Minimization_Converged-OPLS-2005>
0

> <r_mmod_RMS_Derivative-OPLS-2005>
15.8863410949707

$$$$
44
                    3D
 Structure written by MMmdl.
157165  0  0  1  0            999 V2000
  -30.3792  -15.2829   20.3943 C   0  0  0  0  0  0
  -30.4382  -12.8054   19.5544 C   0  0  0  0  0  0
  -29.5452  -12.5966   18.3034 C   0  0  0  0  0  0
  -28.0905  -12.3104   18.7155 C   0  0  0  0  0  0
  -27.6153  -13.2742   19.8294 C   0  0  2  0  0  0
  -28.6381  -13.4244   20.9748 C   0  0  0  0  0  0
  -25.2392  -13.8254   20.5756 C   0  0  0  0  0  0
  -24.1741  -13.0429   20.9263 C   0  0  0  0  0  0
  -24.6408  -11.6940   20.8762 C   0  0  0  0  0  0
  -23.9105  -10.4291   21.0407 C   0  0  0  0  0  0
  -24.3650   -9.4209   21.9193 C   0  0  0  0  0  0
  -23.6319   -8.2242   22.0765 C   0  0  0  0  0  0
  -22.4294   -8.0306   21.3548 C   0  0  0  0  0  0
  -21.9937   -9.0281   20.4641 C   0  0  0  0  0  0
  -22.7272  -10.2152   20.3043 C   0  0  0  0  0  0
  -21.6854   -6.0770   22.5293 C   0  0  0  0  0  0
  -21.4016   -6.5655   23.8236 C   0  0  0  0  0  0
  -21.3651   -5.6792   24.9192 C   0  0  0  0  0  0
  -21.6034   -4.3061   24.7225 C   0  0  0  0  0  0
  -21.8806   -3.8167   23.4336 C   0  0  0  0  0  0
  -21.9191   -4.6994   22.3408 C   0  0  0  0  0  0
  -22.7754  -13.5189   21.1919 C   0  0  0  0  0  0
  -22.1646   -4.2188   21.0979 F   0  0  0  0  0  0
  -21.5638   -3.4526   25.7725 F   0  0  0  0  0  0
  -29.8803  -13.9432   20.3797 N   0  0  0  0  0  0
  -26.2812  -12.9521   20.3190 N   0  0  0  0  0  0
  -25.9334  -11.6627   20.5683 N   0  0  0  0  0  0
  -22.0407  -12.8162   22.0476 N   0  0  0  0  0  0
  -25.4023  -15.1983   20.4244 N   0  0  0  0  0  0
  -31.5657  -15.3162   20.0242 O   0  0  0  0  0  0
  -21.6633   -6.8912   21.4253 O   0  0  0  0  0  0
  -22.3417  -14.5500   20.6794 O   0  0  0  0  0  0
  -24.6666  -31.8233   23.1680 C   0  0  0  0  0  0
  -25.9335  -32.4581   23.8147 C   0  0  1  0  0  0
  -27.2131  -26.9200   20.1811 C   0  0  0  0  0  0
  -25.6002  -33.8391   24.2050 N   0  0  0  0  0  0
  -23.4791  -30.4337   21.5192 C   0  0  2  0  0  0
  -24.9281  -28.8191   20.1085 C   0  0  0  0  0  0
  -22.7710  -29.4452   22.4815 C   0  0  0  0  0  0
  -18.0371  -28.1399   22.8466 C   0  0  0  0  0  0
  -24.1505  -36.7184   23.2644 C   0  0  0  0  0  0
  -26.0489  -30.6255   21.3975 C   0  0  0  0  0  0
  -26.1137  -29.2158   20.7399 C   0  0  0  0  0  0
  -27.2512  -28.2898   20.7444 C   0  0  0  0  0  0
  -25.9963  -26.6741   19.5041 C   0  0  0  0  0  0
  -24.8965  -27.5710   19.4664 C   0  0  0  0  0  0
  -23.7122  -29.7440   20.1461 C   0  0  0  0  0  0
  -25.4151  -36.2956   24.0284 C   0  0  1  0  0  0
  -20.6001  -28.3751   23.1231 C   0  0  2  0  0  0
  -20.6843  -26.9459   22.5392 C   0  0  0  0  0  0
  -19.5827  -26.6462   21.5193 C   0  0  0  0  0  0
  -18.2020  -26.7923   22.1644 C   0  0  0  0  0  0
  -19.1627  -28.8883   23.2855 C   0  0  0  0  0  0
  -18.9520  -30.1443   23.8951 C   0  0  0  0  0  0
  -17.6510  -30.6558   24.0639 C   0  0  0  0  0  0
  -25.9109  -34.9346   23.4988 C   0  0  0  0  0  0
  -16.5402  -29.9066   23.6367 C   0  0  0  0  0  0
  -16.7355  -28.6504   23.0334 C   0  0  0  0  0  0
  -26.4581  -31.6520   25.0673 C   0  0  0  0  0  0
  -25.3686  -31.3766   26.1302 C   0  0  0  0  0  0
  -27.0490  -30.2899   24.6393 C   0  0  0  0  0  0
  -27.6107  -32.4302   25.7468 C   0  0  0  0  0  0
  -27.5586  -37.1748   24.8471 C   0  0  0  0  0  0
  -21.4375  -29.3063   22.3594 N   0  0  0  0  0  0
  -26.4309  -37.3685   23.9401 N   0  0  0  0  0  0
  -24.7535  -30.9895   22.0809 N   0  0  0  0  0  0
  -23.4255  -28.8012   23.3041 O   0  0  0  0  0  0
  -28.2164  -25.8167   20.2565 O   0  0  0  0  0  0
  -26.5723  -34.8900   22.4585 O   0  0  0  0  0  0
  -23.5734  -32.1227   23.6761 O   0  0  0  0  0  0
  -29.6936  -19.7817   20.5760 C   0  0  0  0  0  0
  -28.7828  -20.9015   20.2883 C   0  0  0  0  0  0
  -27.6809  -19.9987   19.9563 C   0  0  0  0  0  0
  -25.9297  -21.6495   19.0665 C   0  0  0  0  0  0
  -25.5271  -20.3496   21.1556 C   0  0  0  0  0  0
  -25.4750  -19.2508   18.8786 C   0  0  0  0  0  0
  -28.9453  -22.6852   20.4171 C   0  0  0  0  0  0
  -29.6028  -16.7799   20.9270 C   0  0  0  0  0  0
  -27.9600  -24.1867   20.1230 C   0  0  0  0  0  0
  -26.1845  -20.3083   19.7629 C   0  0  0  0  0  0
  -27.9724  -18.6533   20.0258 N   0  0  0  0  0  0
  -29.2531  -18.3571   20.3990 N   0  0  0  0  0  0
  -31.4653  -12.9989   19.2451 H   0  0  0  0  0  0
  -30.4835  -11.8897   20.1467 H   0  0  0  0  0  0
  -29.9321  -11.7807   17.6915 H   0  0  0  0  0  0
  -29.5781  -13.4940   17.6841 H   0  0  0  0  0  0
  -28.0456  -11.2841   19.0822 H   0  0  0  0  0  0
  -27.4276  -12.3569   17.8497 H   0  0  0  0  0  0
  -27.5394  -14.2480   19.3449 H   0  0  0  0  0  0
  -28.7952  -12.4800   21.4972 H   0  0  0  0  0  0
  -28.2639  -14.1211   21.7252 H   0  0  0  0  0  0
  -25.2784   -9.5699   22.4782 H   0  0  0  0  0  0
  -24.0038   -7.4618   22.7480 H   0  0  0  0  0  0
  -21.0875   -8.8803   19.8928 H   0  0  0  0  0  0
  -22.3737  -10.9717   19.6167 H   0  0  0  0  0  0
  -21.1994   -7.6155   23.9765 H   0  0  0  0  0  0
  -21.1487   -6.0511   25.9107 H   0  0  0  0  0  0
  -22.0587   -2.7632   23.2821 H   0  0  0  0  0  0
  -22.4036  -11.9826   22.4824 H   0  0  0  0  0  0
  -21.1038  -13.1218   22.2711 H   0  0  0  0  0  0
  -24.6354  -15.8469   20.5605 H   0  0  0  0  0  0
  -26.2464  -15.6547   20.0988 H   0  0  0  0  0  0
  -26.7391  -32.5108   23.0844 H   0  0  0  0  0  0
  -25.0101  -33.9435   25.0167 H   0  0  0  0  0  0
  -22.7923  -31.2661   21.3487 H   0  0  0  0  0  0
  -23.3775  -35.9502   23.3270 H   0  0  0  0  0  0
  -24.3588  -36.8871   22.2075 H   0  0  0  0  0  0
  -23.7264  -37.6362   23.6712 H   0  0  0  0  0  0
  -26.2330  -31.3660   20.6178 H   0  0  0  0  0  0
  -26.9083  -30.6787   22.0539 H   0  0  0  0  0  0
  -28.1543  -28.5942   21.2538 H   0  0  0  0  0  0
  -25.8567  -25.7177   19.0225 H   0  0  0  0  0  0
  -23.9934  -27.2630   18.9567 H   0  0  0  0  0  0
  -23.8586  -30.5079   19.3816 H   0  0  0  0  0  0
  -22.8223  -29.1897   19.8418 H   0  0  0  0  0  0
  -25.1355  -36.1755   25.0775 H   0  0  0  0  0  0
  -21.0088  -28.3316   24.1353 H   0  0  0  0  0  0
  -20.5692  -26.2352   23.3579 H   0  0  0  0  0  0
  -21.6719  -26.7458   22.1205 H   0  0  0  0  0  0
  -19.7021  -25.6414   21.1123 H   0  0  0  0  0  0
  -19.6729  -27.3342   20.6779 H   0  0  0  0  0  0
  -17.4261  -26.6604   21.4089 H   0  0  0  0  0  0
  -18.0508  -26.0066   22.9075 H   0  0  0  0  0  0
  -19.7964  -30.7234   24.2389 H   0  0  0  0  0  0
  -17.5070  -31.6211   24.5301 H   0  0  0  0  0  0
  -15.5412  -30.2958   23.7717 H   0  0  0  0  0  0
  -15.8762  -28.0847   22.7007 H   0  0  0  0  0  0
  -24.5894  -30.7102   25.7560 H   0  0  0  0  0  0
  -24.8839  -32.2972   26.4572 H   0  0  0  0  0  0
  -25.7882  -30.9027   27.0181 H   0  0  0  0  0  0
  -26.3154  -29.6559   24.1394 H   0  0  0  0  0  0
  -27.4043  -29.7286   25.5036 H   0  0  0  0  0  0
  -27.9098  -30.4095   23.9811 H   0  0  0  0  0  0
  -27.2708  -33.3653   26.1924 H   0  0  0  0  0  0
  -28.3979  -32.6744   25.0322 H   0  0  0  0  0  0
  -28.0683  -31.8487   26.5479 H   0  0  0  0  0  0
  -28.2575  -38.0066   24.7519 H   0  0  0  0  0  0
  -28.1112  -36.2591   24.6299 H   0  0  0  0  0  0
  -27.2297  -37.1401   25.8872 H   0  0  0  0  0  0
  -20.9620  -29.8763   21.6736 H   0  0  0  0  0  0
  -26.0149  -38.2751   24.1367 H   0  0  0  0  0  0
  -30.6837  -19.9025   20.9908 H   0  0  0  0  0  0
  -26.1705  -22.4645   19.7280 H   0  0  0  0  0  0
  -24.8750  -21.7808   18.8171 H   0  0  0  0  0  0
  -26.5033  -21.7455   18.1454 H   0  0  0  0  0  0
  -25.9990  -21.1071   21.7848 H   0  0  0  0  0  0
  -25.6243  -19.3941   21.6722 H   0  0  0  0  0  0
  -24.4647  -20.5894   21.0993 H   0  0  0  0  0  0
  -25.9197  -19.2009   17.8846 H   0  0  0  0  0  0
  -24.4175  -19.4893   18.7514 H   0  0  0  0  0  0
  -25.5117  -18.2487   19.3097 H   0  0  0  0  0  0
  -29.8457  -22.9121   19.8466 H   0  0  0  0  0  0
  -29.2707  -22.8434   21.4458 H   0  0  0  0  0  0
  -28.6225  -16.4062   21.2161 H   0  0  0  0  0  0
  -30.0846  -16.9431   21.8907 H   0  0  0  0  0  0
  -27.6184  -24.0911   19.0930 H   0  0  0  0  0  0
  -27.0715  -24.0675   20.7399 H   0  0  0  0  0  0
  1 25  1  0  0  0
  1 30  2  0  0  0
  1 78  1  0  0  0
  2  3  1  0  0  0
  2 25  1  0  0  0
  2 83  1  0  0  0
  2 84  1  0  0  0
  3  4  1  0  0  0
  3 85  1  0  0  0
  3 86  1  0  0  0
  4  5  1  0  0  0
  4 87  1  0  0  0
  4 88  1  0  0  0
  5  6  1  0  0  0
  5 26  1  0  0  0
  5 89  1  0  0  0
  6 25  1  0  0  0
  6 90  1  0  0  0
  6 91  1  0  0  0
  7  8  2  0  0  0
  7 26  1  0  0  0
  7 29  1  0  0  0
  8  9  1  0  0  0
  8 22  1  0  0  0
  9 10  1  0  0  0
  9 27  2  0  0  0
 10 11  2  0  0  0
 10 15  1  0  0  0
 11 12  1  0  0  0
 11 92  1  0  0  0
 12 13  2  0  0  0
 12 93  1  0  0  0
 13 14  1  0  0  0
 13 31  1  0  0  0
 14 15  2  0  0  0
 14 94  1  0  0  0
 15 95  1  0  0  0
 16 17  2  0  0  0
 16 21  1  0  0  0
 16 31  1  0  0  0
 17 18  1  0  0  0
 17 96  1  0  0  0
 18 19  2  0  0  0
 18 97  1  0  0  0
 19 20  1  0  0  0
 19 24  1  0  0  0
 20 21  2  0  0  0
 20 98  1  0  0  0
 21 23  1  0  0  0
 22 28  1  0  0  0
 22 32  2  0  0  0
 26 27  1  0  0  0
 28 99  1  0  0  0
 28100  1  0  0  0
 29101  1  0  0  0
 29102  1  0  0  0
 33 34  1  0  0  0
 33 66  1  0  0  0
 33 70  2  0  0  0
 34 36  1  0  0  0
 34 59  1  0  0  0
 34103  1  0  0  0
 35 44  2  0  0  0
 35 45  1  0  0  0
 35 68  1  0  0  0
 36 56  1  0  0  0
 36104  1  0  0  0
 37 39  1  0  0  0
 37 47  1  0  0  0
 37 66  1  0  0  0
 37105  1  0  0  0
 38 43  2  0  0  0
 38 46  1  0  0  0
 38 47  1  0  0  0
 39 64  1  0  0  0
 39 67  2  0  0  0
 40 52  1  0  0  0
 40 53  2  0  0  0
 40 58  1  0  0  0
 41106  1  0  0  0
 41107  1  0  0  0
 41108  1  0  0  0
 41 48  1  0  0  0
 42 43  1  0  0  0
 42 66  1  0  0  0
 42109  1  0  0  0
 42110  1  0  0  0
 43 44  1  0  0  0
 44111  1  0  0  0
 45 46  2  0  0  0
 45112  1  0  0  0
 46113  1  0  0  0
 47114  1  0  0  0
 47115  1  0  0  0
 48 56  1  0  0  0
 48 65  1  0  0  0
 48116  1  0  0  0
 49 50  1  0  0  0
 49 53  1  0  0  0
 49 64  1  0  0  0
 49117  1  0  0  0
 50 51  1  0  0  0
 50118  1  0  0  0
 50119  1  0  0  0
 51 52  1  0  0  0
 51120  1  0  0  0
 51121  1  0  0  0
 52122  1  0  0  0
 52123  1  0  0  0
 53 54  1  0  0  0
 54 55  2  0  0  0
 54124  1  0  0  0
 55 57  1  0  0  0
 55125  1  0  0  0
 56 69  2  0  0  0
 57 58  2  0  0  0
 57126  1  0  0  0
 58127  1  0  0  0
 59 60  1  0  0  0
 59 61  1  0  0  0
 59 62  1  0  0  0
 60128  1  0  0  0
 60129  1  0  0  0
 60130  1  0  0  0
 61131  1  0  0  0
 61132  1  0  0  0
 61133  1  0  0  0
 62134  1  0  0  0
 62135  1  0  0  0
 62136  1  0  0  0
 63 65  1  0  0  0
 63137  1  0  0  0
 63138  1  0  0  0
 63139  1  0  0  0
 64140  1  0  0  0
 65141  1  0  0  0
 68 79  1  0  0  0
 71 72  2  0  0  0
 71 82  1  0  0  0
 71142  1  0  0  0
 72 73  1  0  0  0
 72 77  1  0  0  0
 73 80  1  0  0  0
 73 81  2  0  0  0
 74143  1  0  0  0
 74144  1  0  0  0
 74145  1  0  0  0
 74 80  1  0  0  0
 75 80  1  0  0  0
 75146  1  0  0  0
 75147  1  0  0  0
 75148  1  0  0  0
 76 80  1  0  0  0
 76149  1  0  0  0
 76150  1  0  0  0
 76151  1  0  0  0
 77 79  1  0  0  0
 77152  1  0  0  0
 77153  1  0  0  0
 78 82  1  0  0  0
 78154  1  0  0  0
 78155  1  0  0  0
 79156  1  0  0  0
 79157  1  0  0  0
 81 82  1  0  0  0
M  ISO  4   1 100  68 101  78 100  79 101
M  END
> <chiral flag>
0

> <version>
0

> <s_m_source_file>
/data/baiqing/PycharmProjects/Reinvent-master-3.2/result/LINK_invent/BTK/process_docking_weight1_custom_sum_contain_oxygen_bond_distance_aromatic_linkinvent_7_9_3/rearranged_h_0078.sdf

> <i_m_source_file_index>
45

> <r_mmod_Potential_Energy-OPLS-2005>
1375.4306640625

> <r_mmod_Stretch_Energy-OPLS-2005>
626.677368164062

> <r_mmod_Bend_Energy-OPLS-2005>
509.154388427734

> <r_mmod_Torsional_Energy-OPLS-2005>
192.638854980469

> <r_mmod_Improper_Torsional_Energy-OPLS-2005>
6.36525440216064

> <r_mmod_Van_der_Waal_Energy-OPLS-2005>
113.276679992676

> <r_mmod_Electrostatic_Energy-OPLS-2005>
-345.618041992188

> <r_mmod_Solvation_Energy-OPLS-2005>
-199.042602539062

> <b_mmod_Minimization_Converged-OPLS-2005>
0

> <r_mmod_RMS_Derivative-OPLS-2005>
3.41125702857971

$$$$
45
                    3D
 Structure written by MMmdl.
161169  0  0  1  0            999 V2000
  -30.6275  -14.7282   20.4825 C   0  0  0  0  0  0
  -30.4350  -12.4562   19.4506 C   0  0  0  0  0  0
  -29.5054  -12.5148   18.2183 C   0  0  0  0  0  0
  -28.0317  -12.3407   18.6353 C   0  0  0  0  0  0
  -27.6424  -13.2284   19.8475 C   0  0  2  0  0  0
  -28.6945  -13.1563   20.9751 C   0  0  0  0  0  0
  -25.2547  -13.8193   20.5672 C   0  0  0  0  0  0
  -24.1825  -13.0447   20.9183 C   0  0  0  0  0  0
  -24.6406  -11.6920   20.8735 C   0  0  0  0  0  0
  -23.9059  -10.4307   21.0407 C   0  0  0  0  0  0
  -24.3623   -9.4222   21.9179 C   0  0  0  0  0  0
  -23.6299   -8.2257   22.0755 C   0  0  0  0  0  0
  -22.4276   -8.0288   21.3546 C   0  0  0  0  0  0
  -21.9920   -9.0256   20.4637 C   0  0  0  0  0  0
  -22.7238  -10.2141   20.3044 C   0  0  0  0  0  0
  -21.6866   -6.0738   22.5269 C   0  0  0  0  0  0
  -21.4019   -6.5644   23.8197 C   0  0  0  0  0  0
  -21.3668   -5.6799   24.9159 C   0  0  0  0  0  0
  -21.6041   -4.3061   24.7219 C   0  0  0  0  0  0
  -21.8830   -3.8146   23.4348 C   0  0  0  0  0  0
  -21.9205   -4.6967   22.3410 C   0  0  0  0  0  0
  -22.7854  -13.5219   21.1857 C   0  0  0  0  0  0
  -22.1678   -4.2149   21.0985 F   0  0  0  0  0  0
  -21.5633   -3.4551   25.7736 F   0  0  0  0  0  0
  -29.9902  -13.5136   20.3842 N   0  0  0  0  0  0
  -26.2958  -12.9383   20.3277 N   0  0  0  0  0  0
  -25.9339  -11.6523   20.5736 N   0  0  0  0  0  0
  -22.0532  -12.8169   22.0401 N   0  0  0  0  0  0
  -25.4222  -15.1922   20.4113 N   0  0  0  0  0  0
  -31.8249  -14.8279   20.2012 O   0  0  0  0  0  0
  -21.6648   -6.8881   21.4234 O   0  0  0  0  0  0
  -22.3533  -14.5537   20.6739 O   0  0  0  0  0  0
  -24.6310  -31.8544   23.1978 C   0  0  0  0  0  0
  -25.9131  -32.4753   23.8328 C   0  0  1  0  0  0
  -27.2255  -27.2685   20.1250 C   0  0  0  0  0  0
  -25.5924  -33.8556   24.2250 N   0  0  0  0  0  0
  -23.4276  -30.4747   21.5426 C   0  0  2  0  0  0
  -24.8766  -28.9227   20.1118 C   0  0  0  0  0  0
  -22.7500  -29.4589   22.4937 C   0  0  0  0  0  0
  -18.0288  -28.1386   22.8492 C   0  0  0  0  0  0
  -24.1491  -36.7282   23.2632 C   0  0  0  0  0  0
  -25.9736  -30.7691   21.3774 C   0  0  0  0  0  0
  -26.0478  -29.3923   20.7191 C   0  0  0  0  0  0
  -27.2254  -28.5781   20.7143 C   0  0  0  0  0  0
  -26.0310  -26.8690   19.4839 C   0  0  0  0  0  0
  -24.8735  -27.6691   19.4824 C   0  0  0  0  0  0
  -23.6449  -29.8053   20.1601 C   0  0  0  0  0  0
  -25.4118  -36.3070   24.0321 C   0  0  1  0  0  0
  -20.5887  -28.3686   23.1286 C   0  0  2  0  0  0
  -20.6777  -26.9407   22.5412 C   0  0  0  0  0  0
  -19.5752  -26.6384   21.5218 C   0  0  0  0  0  0
  -18.1931  -26.7928   22.1623 C   0  0  0  0  0  0
  -19.1539  -28.8853   23.2880 C   0  0  0  0  0  0
  -18.9455  -30.1461   23.8894 C   0  0  0  0  0  0
  -17.6452  -30.6588   24.0556 C   0  0  0  0  0  0
  -25.9059  -34.9439   23.5090 C   0  0  0  0  0  0
  -16.5348  -29.9079   23.6335 C   0  0  0  0  0  0
  -16.7274  -28.6491   23.0366 C   0  0  0  0  0  0
  -26.4498  -31.6580   25.0723 C   0  0  0  0  0  0
  -25.3720  -31.3715   26.1438 C   0  0  0  0  0  0
  -27.0336  -30.2996   24.6207 C   0  0  0  0  0  0
  -27.6059  -32.4310   25.7499 C   0  0  0  0  0  0
  -27.5592  -37.1779   24.8449 C   0  0  0  0  0  0
  -21.4205  -29.3033   22.3675 N   0  0  0  0  0  0
  -26.4285  -37.3777   23.9421 N   0  0  0  0  0  0
  -24.6965  -31.0508   22.0956 N   0  0  0  0  0  0
  -23.4196  -28.8141   23.3044 O   0  0  0  0  0  0
  -28.3224  -26.3771   20.1868 O   0  0  0  0  0  0
  -26.5641  -34.8915   22.4668 O   0  0  0  0  0  0
  -23.5456  -32.1369   23.7267 O   0  0  0  0  0  0
  -30.8819  -19.6042   22.8108 C   0  0  0  0  0  0
  -29.6971  -22.0313   22.8934 C   0  0  0  0  0  0
  -30.0776  -19.9247   21.6834 C   0  0  0  0  0  0
  -29.5718  -21.3200   21.6737 C   0  0  0  0  0  0
  -31.0085  -20.4595   23.9092 C   0  0  0  0  0  0
  -31.8294  -20.0539   25.1161 C   0  0  0  0  0  0
  -30.5374  -18.9566   19.3533 C   0  0  0  0  0  0
  -28.8429  -22.2040   20.5703 C   0  0  0  0  0  0
  -29.1853  -23.8106   20.4828 C   0  0  0  0  0  0
  -30.3008  -17.2153   21.2635 C   0  0  0  0  0  0
  -28.0689  -24.8993   20.0698 C   0  0  0  0  0  0
  -29.8420  -18.6870   20.6923 C   0  0  1  0  0  0
  -30.3813  -21.6355   23.9767 N   0  0  0  0  0  0
  -29.8627  -15.8537   20.7298 N   0  0  0  0  0  0
  -31.4742  -12.5890   19.1440 H   0  0  0  0  0  0
  -30.3831  -11.4785   19.9316 H   0  0  0  0  0  0
  -29.7826  -11.7480   17.4945 H   0  0  0  0  0  0
  -29.6336  -13.4720   17.7108 H   0  0  0  0  0  0
  -27.8767  -11.2885   18.8768 H   0  0  0  0  0  0
  -27.3741  -12.5546   17.7925 H   0  0  0  0  0  0
  -27.6360  -14.2525   19.4730 H   0  0  0  0  0  0
  -28.7369  -12.1576   21.4123 H   0  0  0  0  0  0
  -28.4336  -13.8325   21.7919 H   0  0  0  0  0  0
  -25.2786   -9.5717   22.4719 H   0  0  0  0  0  0
  -24.0035   -7.4656   22.7476 H   0  0  0  0  0  0
  -21.0862   -8.8740   19.8936 H   0  0  0  0  0  0
  -22.3685  -10.9660   19.6131 H   0  0  0  0  0  0
  -21.1996   -7.6154   23.9695 H   0  0  0  0  0  0
  -21.1484   -6.0538   25.9065 H   0  0  0  0  0  0
  -22.0605   -2.7606   23.2842 H   0  0  0  0  0  0
  -22.4210  -11.9828   22.4735 H   0  0  0  0  0  0
  -21.1146  -13.1125   22.2627 H   0  0  0  0  0  0
  -24.6508  -15.8405   20.5236 H   0  0  0  0  0  0
  -26.2635  -15.6383   20.0691 H   0  0  0  0  0  0
  -26.7202  -32.5403   23.1068 H   0  0  0  0  0  0
  -25.0058  -33.9699   25.0385 H   0  0  0  0  0  0
  -22.7236  -31.2960   21.3942 H   0  0  0  0  0  0
  -23.3768  -35.9593   23.3251 H   0  0  0  0  0  0
  -24.3584  -36.8954   22.2055 H   0  0  0  0  0  0
  -23.7217  -37.6455   23.6692 H   0  0  0  0  0  0
  -26.1104  -31.5288   20.6063 H   0  0  0  0  0  0
  -26.8514  -30.8182   22.0105 H   0  0  0  0  0  0
  -28.1215  -28.9319   21.2046 H   0  0  0  0  0  0
  -25.9619  -25.9131   18.9867 H   0  0  0  0  0  0
  -23.9797  -27.3026   18.9972 H   0  0  0  0  0  0
  -23.7624  -30.5782   19.4005 H   0  0  0  0  0  0
  -22.7657  -29.2310   19.8609 H   0  0  0  0  0  0
  -25.1293  -36.1906   25.0809 H   0  0  0  0  0  0
  -20.9976  -28.3259   24.1407 H   0  0  0  0  0  0
  -20.5688  -26.2290   23.3610 H   0  0  0  0  0  0
  -21.6643  -26.7437   22.1201 H   0  0  0  0  0  0
  -19.6912  -25.6296   21.1246 H   0  0  0  0  0  0
  -19.6699  -27.3195   20.6751 H   0  0  0  0  0  0
  -17.4206  -26.6680   21.4030 H   0  0  0  0  0  0
  -18.0327  -26.0075   22.9023 H   0  0  0  0  0  0
  -19.7925  -30.7280   24.2267 H   0  0  0  0  0  0
  -17.5001  -31.6273   24.5149 H   0  0  0  0  0  0
  -15.5348  -30.2971   23.7668 H   0  0  0  0  0  0
  -15.8679  -28.0808   22.7096 H   0  0  0  0  0  0
  -24.5913  -30.7048   25.7753 H   0  0  0  0  0  0
  -24.8888  -32.2875   26.4856 H   0  0  0  0  0  0
  -25.8041  -30.8896   27.0219 H   0  0  0  0  0  0
  -26.2914  -29.6750   24.1224 H   0  0  0  0  0  0
  -27.3999  -29.7258   25.4730 H   0  0  0  0  0  0
  -27.8804  -30.4263   23.9456 H   0  0  0  0  0  0
  -27.2685  -33.3621   26.2065 H   0  0  0  0  0  0
  -28.3885  -32.6846   25.0334 H   0  0  0  0  0  0
  -28.0711  -31.8432   26.5423 H   0  0  0  0  0  0
  -28.2544  -38.0140   24.7589 H   0  0  0  0  0  0
  -28.1156  -36.2675   24.6161 H   0  0  0  0  0  0
  -27.2320  -37.1283   25.8848 H   0  0  0  0  0  0
  -20.9397  -29.8744   21.6866 H   0  0  0  0  0  0
  -26.0157  -38.2829   24.1492 H   0  0  0  0  0  0
  -31.4133  -18.6710   22.8974 H   0  0  0  0  0  0
  -29.2130  -22.9832   23.0371 H   0  0  0  0  0  0
  -32.8686  -19.8843   24.8338 H   0  0  0  0  0  0
  -31.4355  -19.1321   25.5447 H   0  0  0  0  0  0
  -31.8111  -20.8181   25.8938 H   0  0  0  0  0  0
  -30.1954  -19.8911   18.9095 H   0  0  0  0  0  0
  -30.3474  -18.1567   18.6385 H   0  0  0  0  0  0
  -31.6177  -19.0335   19.4866 H   0  0  0  0  0  0
  -27.7771  -22.1071   20.7792 H   0  0  0  0  0  0
  -28.9843  -21.7533   19.5881 H   0  0  0  0  0  0
  -30.0407  -23.9295   19.8165 H   0  0  0  0  0  0
  -29.5628  -24.1849   21.4296 H   0  0  0  0  0  0
  -29.9316  -17.1645   22.2887 H   0  0  0  0  0  0
  -31.3895  -17.1940   21.3407 H   0  0  0  0  0  0
  -27.1830  -24.6729   20.6659 H   0  0  0  0  0  0
  -27.7991  -24.6911   19.0349 H   0  0  0  0  0  0
  -28.7668  -18.6490   20.5110 H   0  0  0  0  0  0
  -28.8770  -15.6622   20.8248 H   0  0  0  0  0  0
  1 25  1  0  0  0
  1 30  2  0  0  0
  1 84  1  0  0  0
  2  3  1  0  0  0
  2 25  1  0  0  0
  2 85  1  0  0  0
  2 86  1  0  0  0
  3  4  1  0  0  0
  3 87  1  0  0  0
  3 88  1  0  0  0
  4  5  1  0  0  0
  4 89  1  0  0  0
  4 90  1  0  0  0
  5  6  1  0  0  0
  5 26  1  0  0  0
  5 91  1  0  0  0
  6 25  1  0  0  0
  6 92  1  0  0  0
  6 93  1  0  0  0
  7  8  2  0  0  0
  7 26  1  0  0  0
  7 29  1  0  0  0
  8  9  1  0  0  0
  8 22  1  0  0  0
  9 10  1  0  0  0
  9 27  2  0  0  0
 10 11  2  0  0  0
 10 15  1  0  0  0
 11 12  1  0  0  0
 11 94  1  0  0  0
 12 13  2  0  0  0
 12 95  1  0  0  0
 13 14  1  0  0  0
 13 31  1  0  0  0
 14 15  2  0  0  0
 14 96  1  0  0  0
 15 97  1  0  0  0
 16 17  2  0  0  0
 16 21  1  0  0  0
 16 31  1  0  0  0
 17 18  1  0  0  0
 17 98  1  0  0  0
 18 19  2  0  0  0
 18 99  1  0  0  0
 19 20  1  0  0  0
 19 24  1  0  0  0
 20 21  2  0  0  0
 20100  1  0  0  0
 21 23  1  0  0  0
 22 28  1  0  0  0
 22 32  2  0  0  0
 26 27  1  0  0  0
 28101  1  0  0  0
 28102  1  0  0  0
 29103  1  0  0  0
 29104  1  0  0  0
 33 34  1  0  0  0
 33 66  1  0  0  0
 33 70  2  0  0  0
 34 36  1  0  0  0
 34 59  1  0  0  0
 34105  1  0  0  0
 35 44  2  0  0  0
 35 45  1  0  0  0
 35 68  1  0  0  0
 36 56  1  0  0  0
 36106  1  0  0  0
 37 39  1  0  0  0
 37 47  1  0  0  0
 37 66  1  0  0  0
 37107  1  0  0  0
 38 43  2  0  0  0
 38 46  1  0  0  0
 38 47  1  0  0  0
 39 64  1  0  0  0
 39 67  2  0  0  0
 40 52  1  0  0  0
 40 53  2  0  0  0
 40 58  1  0  0  0
 41108  1  0  0  0
 41109  1  0  0  0
 41110  1  0  0  0
 41 48  1  0  0  0
 42 43  1  0  0  0
 42 66  1  0  0  0
 42111  1  0  0  0
 42112  1  0  0  0
 43 44  1  0  0  0
 44113  1  0  0  0
 45 46  2  0  0  0
 45114  1  0  0  0
 46115  1  0  0  0
 47116  1  0  0  0
 47117  1  0  0  0
 48 56  1  0  0  0
 48 65  1  0  0  0
 48118  1  0  0  0
 49 50  1  0  0  0
 49 53  1  0  0  0
 49 64  1  0  0  0
 49119  1  0  0  0
 50 51  1  0  0  0
 50120  1  0  0  0
 50121  1  0  0  0
 51 52  1  0  0  0
 51122  1  0  0  0
 51123  1  0  0  0
 52124  1  0  0  0
 52125  1  0  0  0
 53 54  1  0  0  0
 54 55  2  0  0  0
 54126  1  0  0  0
 55 57  1  0  0  0
 55127  1  0  0  0
 56 69  2  0  0  0
 57 58  2  0  0  0
 57128  1  0  0  0
 58129  1  0  0  0
 59 60  1  0  0  0
 59 61  1  0  0  0
 59 62  1  0  0  0
 60130  1  0  0  0
 60131  1  0  0  0
 60132  1  0  0  0
 61133  1  0  0  0
 61134  1  0  0  0
 61135  1  0  0  0
 62136  1  0  0  0
 62137  1  0  0  0
 62138  1  0  0  0
 63 65  1  0  0  0
 63139  1  0  0  0
 63140  1  0  0  0
 63141  1  0  0  0
 64142  1  0  0  0
 65143  1  0  0  0
 68 81  1  0  0  0
 71 73  2  0  0  0
 71 75  1  0  0  0
 71144  1  0  0  0
 72 74  2  0  0  0
 72 83  1  0  0  0
 72145  1  0  0  0
 73 74  1  0  0  0
 73 82  1  0  0  0
 74 78  1  0  0  0
 75 76  1  0  0  0
 75 83  2  0  0  0
 76146  1  0  0  0
 76147  1  0  0  0
 76148  1  0  0  0
 77149  1  0  0  0
 77150  1  0  0  0
 77151  1  0  0  0
 77 82  1  0  0  0
 78 79  1  0  0  0
 78152  1  0  0  0
 78153  1  0  0  0
 79 81  1  0  0  0
 79154  1  0  0  0
 79155  1  0  0  0
 80 82  1  0  0  0
 80 84  1  0  0  0
 80156  1  0  0  0
 80157  1  0  0  0
 81158  1  0  0  0
 81159  1  0  0  0
 82160  1  0  0  0
 84161  1  0  0  0
M  ISO  4   1 100  68 101  81 101  84 100
M  END
> <chiral flag>
0

> <version>
0

> <s_m_source_file>
/data/baiqing/PycharmProjects/Reinvent-master-3.2/result/LINK_invent/BTK/process_docking_weight1_custom_sum_contain_oxygen_bond_distance_aromatic_linkinvent_7_9_3/rearranged_h_0078.sdf

> <i_m_source_file_index>
46

> <r_mmod_Potential_Energy-OPLS-2005>
66.1241073608398

> <r_mmod_Stretch_Energy-OPLS-2005>
140.569854736328

> <r_mmod_Bend_Energy-OPLS-2005>
204.3544921875

> <r_mmod_Torsional_Energy-OPLS-2005>
234.055770874023

> <r_mmod_Improper_Torsional_Energy-OPLS-2005>
4.66551399230957

> <r_mmod_Van_der_Waal_Energy-OPLS-2005>
156.203109741211

> <r_mmod_Electrostatic_Energy-OPLS-2005>
-527.187866210938

> <r_mmod_Solvation_Energy-OPLS-2005>
-227.671966552734

> <b_mmod_Minimization_Converged-OPLS-2005>
0

> <r_mmod_RMS_Derivative-OPLS-2005>
2.38511085510254

$$$$
46
                    3D
 Structure written by MMmdl.
167175  0  0  1  0            999 V2000
  -30.7310  -14.5699   20.3042 C   0  0  0  0  0  0
  -30.4362  -12.3110   19.4114 C   0  0  0  0  0  0
  -29.4849  -12.3138   18.1970 C   0  0  0  0  0  0
  -28.0021  -12.2480   18.6327 C   0  0  0  0  0  0
  -27.6453  -13.1741   19.8227 C   0  0  2  0  0  0
  -28.7229  -13.0938   20.9193 C   0  0  0  0  0  0
  -25.2705  -13.8108   20.5683 C   0  0  0  0  0  0
  -24.1918  -13.0483   20.9266 C   0  0  0  0  0  0
  -24.6379  -11.6929   20.8865 C   0  0  0  0  0  0
  -23.9033  -10.4314   21.0463 C   0  0  0  0  0  0
  -24.3588   -9.4216   21.9225 C   0  0  0  0  0  0
  -23.6268   -8.2256   22.0780 C   0  0  0  0  0  0
  -22.4266   -8.0272   21.3560 C   0  0  0  0  0  0
  -21.9920   -9.0259   20.4658 C   0  0  0  0  0  0
  -22.7224  -10.2146   20.3081 C   0  0  0  0  0  0
  -21.6849   -6.0735   22.5294 C   0  0  0  0  0  0
  -21.3974   -6.5642   23.8212 C   0  0  0  0  0  0
  -21.3629   -5.6801   24.9198 C   0  0  0  0  0  0
  -21.6060   -4.3077   24.7245 C   0  0  0  0  0  0
  -21.8830   -3.8156   23.4368 C   0  0  0  0  0  0
  -21.9200   -4.6972   22.3415 C   0  0  0  0  0  0
  -22.7946  -13.5327   21.1880 C   0  0  0  0  0  0
  -22.1658   -4.2159   21.1001 F   0  0  0  0  0  0
  -21.5644   -3.4549   25.7743 F   0  0  0  0  0  0
  -30.0177  -13.4050   20.3055 N   0  0  0  0  0  0
  -26.3017  -12.9175   20.3281 N   0  0  0  0  0  0
  -25.9293  -11.6438   20.5933 N   0  0  0  0  0  0
  -22.0519  -12.8308   22.0346 N   0  0  0  0  0  0
  -25.4582  -15.1798   20.3945 N   0  0  0  0  0  0
  -31.9565  -14.4934   20.2743 O   0  0  0  0  0  0
  -21.6639   -6.8881   21.4241 O   0  0  0  0  0  0
  -22.3685  -14.5657   20.6706 O   0  0  0  0  0  0
  -24.6135  -31.8688   23.2106 C   0  0  0  0  0  0
  -25.9053  -32.4817   23.8395 C   0  0  1  0  0  0
  -27.2312  -27.4474   20.1076 C   0  0  0  0  0  0
  -25.5916  -33.8627   24.2318 N   0  0  0  0  0  0
  -23.3996  -30.4946   21.5461 C   0  0  2  0  0  0
  -24.8476  -28.9644   20.1081 C   0  0  0  0  0  0
  -22.7398  -29.4673   22.4941 C   0  0  0  0  0  0
  -18.0272  -28.1392   22.8476 C   0  0  0  0  0  0
  -24.1477  -36.7280   23.2635 C   0  0  0  0  0  0
  -25.9268  -30.8401   21.3644 C   0  0  0  0  0  0
  -26.0059  -29.4787   20.7081 C   0  0  0  0  0  0
  -27.2029  -28.7283   20.7047 C   0  0  0  0  0  0
  -26.0620  -26.9490   19.4932 C   0  0  0  0  0  0
  -24.8697  -27.6976   19.4969 C   0  0  0  0  0  0
  -23.6086  -29.8303   20.1596 C   0  0  0  0  0  0
  -25.4105  -36.3107   24.0326 C   0  0  1  0  0  0
  -20.5858  -28.3701   23.1289 C   0  0  2  0  0  0
  -20.6775  -26.9439   22.5403 C   0  0  0  0  0  0
  -19.5758  -26.6390   21.5204 C   0  0  0  0  0  0
  -18.1934  -26.7935   22.1606 C   0  0  0  0  0  0
  -19.1524  -28.8862   23.2876 C   0  0  0  0  0  0
  -18.9468  -30.1458   23.8901 C   0  0  0  0  0  0
  -17.6485  -30.6610   24.0573 C   0  0  0  0  0  0
  -25.9041  -34.9473   23.5110 C   0  0  0  0  0  0
  -16.5364  -29.9124   23.6330 C   0  0  0  0  0  0
  -16.7266  -28.6531   23.0352 C   0  0  0  0  0  0
  -26.4502  -31.6599   25.0716 C   0  0  0  0  0  0
  -25.3751  -31.3721   26.1442 C   0  0  0  0  0  0
  -27.0377  -30.3056   24.6106 C   0  0  0  0  0  0
  -27.6034  -32.4374   25.7488 C   0  0  0  0  0  0
  -27.5588  -37.1796   24.8461 C   0  0  0  0  0  0
  -21.4132  -29.3049   22.3675 N   0  0  0  0  0  0
  -26.4288  -37.3800   23.9396 N   0  0  0  0  0  0
  -24.6648  -31.0826   22.0975 N   0  0  0  0  0  0
  -23.4169  -28.8213   23.3009 O   0  0  0  0  0  0
  -28.3838  -26.6978   20.1211 O   0  0  0  0  0  0
  -26.5601  -34.8942   22.4682 O   0  0  0  0  0  0
  -23.5336  -32.1436   23.7511 O   0  0  0  0  0  0
  -29.7278  -19.3933   20.9888 C   0  0  0  0  0  0
  -29.2295  -20.5447   20.3562 C   0  0  0  0  0  0
  -29.0195  -18.2029   20.7683 C   0  0  0  0  0  0
  -27.4831  -19.3338   19.5039 C   0  0  0  0  0  0
  -26.2940  -19.2785   18.5691 C   0  0  0  0  0  0
  -31.3711  -16.8668   19.4502 C   0  0  0  0  0  0
  -29.2244  -16.0279   18.6715 C   0  0  0  0  0  0
  -29.9302  -21.8957   20.4002 C   0  0  0  0  0  0
  -29.0355  -23.0188   20.9775 C   0  0  0  0  0  0
  -29.2071  -24.3853   20.2788 C   0  0  0  0  0  0
  -28.2691  -25.4653   20.8442 C   0  0  0  0  0  0
  -29.5569  -16.8256   21.1763 C   0  0  2  0  0  0
  -30.1463  -16.0112   19.9463 C   0  0  0  0  0  0
  -28.1298  -20.4857   19.5808 N   0  0  0  0  0  0
  -27.8370  -18.2100   20.1144 N   0  0  0  0  0  0
  -28.4551  -16.1922   21.9056 N   0  3  0  0  0  0
  -31.4695  -12.3992   19.0652 H   0  0  0  0  0  0
  -30.3930  -11.3607   19.9467 H   0  0  0  0  0  0
  -29.7019  -11.4461   17.5722 H   0  0  0  0  0  0
  -29.6704  -13.1688   17.5543 H   0  0  0  0  0  0
  -27.8133  -11.2156   18.9284 H   0  0  0  0  0  0
  -27.3459  -12.4430   17.7866 H   0  0  0  0  0  0
  -27.6209  -14.1678   19.4133 H   0  0  0  0  0  0
  -28.7539  -12.0819   21.3260 H   0  0  0  0  0  0
  -28.5115  -13.7227   21.7748 H   0  0  0  0  0  0
  -25.2726   -9.5712   22.4804 H   0  0  0  0  0  0
  -23.9984   -7.4672   22.7508 H   0  0  0  0  0  0
  -21.0873   -8.8776   19.8948 H   0  0  0  0  0  0
  -22.3693  -10.9687   19.6204 H   0  0  0  0  0  0
  -21.1887   -7.6139   23.9699 H   0  0  0  0  0  0
  -21.1442   -6.0541   25.9091 H   0  0  0  0  0  0
  -22.0618   -2.7619   23.2876 H   0  0  0  0  0  0
  -22.4076  -11.9912   22.4717 H   0  0  0  0  0  0
  -21.1119  -13.1329   22.2505 H   0  0  0  0  0  0
  -24.6144  -15.7421   20.3400 H   0  0  0  0  0  0
  -26.1294  -15.4686   19.6984 H   0  0  0  0  0  0
  -26.7114  -32.5537   23.1141 H   0  0  0  0  0  0
  -25.0129  -33.9769   25.0504 H   0  0  0  0  0  0
  -22.6877  -31.3112   21.4106 H   0  0  0  0  0  0
  -23.3778  -35.9586   23.3295 H   0  0  0  0  0  0
  -24.3584  -36.8907   22.2061 H   0  0  0  0  0  0
  -23.7195  -37.6452   23.6677 H   0  0  0  0  0  0
  -26.0513  -31.6165   20.6090 H   0  0  0  0  0  0
  -26.8045  -30.8790   21.9959 H   0  0  0  0  0  0
  -28.0971  -29.1180   21.1751 H   0  0  0  0  0  0
  -26.0711  -25.9815   19.0119 H   0  0  0  0  0  0
  -23.9804  -27.2978   19.0249 H   0  0  0  0  0  0
  -23.7145  -30.6049   19.3998 H   0  0  0  0  0  0
  -22.7333  -29.2480   19.8661 H   0  0  0  0  0  0
  -25.1301  -36.1961   25.0826 H   0  0  0  0  0  0
  -20.9958  -28.3314   24.1407 H   0  0  0  0  0  0
  -20.5718  -26.2329   23.3603 H   0  0  0  0  0  0
  -21.6656  -26.7515   22.1200 H   0  0  0  0  0  0
  -19.6943  -25.6300   21.1258 H   0  0  0  0  0  0
  -19.6700  -27.3182   20.6732 H   0  0  0  0  0  0
  -17.4208  -26.6679   21.4000 H   0  0  0  0  0  0
  -18.0323  -26.0078   22.8999 H   0  0  0  0  0  0
  -19.7957  -30.7237   24.2286 H   0  0  0  0  0  0
  -17.5068  -31.6283   24.5184 H   0  0  0  0  0  0
  -15.5377  -30.3056   23.7638 H   0  0  0  0  0  0
  -15.8650  -28.0855   22.7084 H   0  0  0  0  0  0
  -24.5873  -30.7148   25.7745 H   0  0  0  0  0  0
  -24.9012  -32.2900   26.4932 H   0  0  0  0  0  0
  -25.8061  -30.8817   27.0166 H   0  0  0  0  0  0
  -26.2942  -29.6753   24.1213 H   0  0  0  0  0  0
  -27.4208  -29.7370   25.4579 H   0  0  0  0  0  0
  -27.8744  -30.4385   23.9244 H   0  0  0  0  0  0
  -27.2595  -33.3652   26.2083 H   0  0  0  0  0  0
  -28.3834  -32.6983   25.0319 H   0  0  0  0  0  0
  -28.0722  -31.8506   26.5390 H   0  0  0  0  0  0
  -28.2584  -38.0128   24.7597 H   0  0  0  0  0  0
  -28.1115  -36.2659   24.6203 H   0  0  0  0  0  0
  -27.2309  -37.1342   25.8868 H   0  0  0  0  0  0
  -20.9293  -29.8756   21.6864 H   0  0  0  0  0  0
  -26.0175  -38.2860   24.1473 H   0  0  0  0  0  0
  -30.6550  -19.4054   21.5510 H   0  0  0  0  0  0
  -25.4214  -19.7274   19.0399 H   0  0  0  0  0  0
  -26.0468  -18.2529   18.2947 H   0  0  0  0  0  0
  -26.5036  -19.8213   17.6461 H   0  0  0  0  0  0
  -31.0822  -17.8393   19.0516 H   0  0  0  0  0  0
  -31.9308  -16.3834   18.6448 H   0  0  0  0  0  0
  -32.0770  -17.0784   20.2556 H   0  0  0  0  0  0
  -29.3506  -16.9394   18.0810 H   0  0  0  0  0  0
  -28.1665  -16.0476   18.9121 H   0  0  0  0  0  0
  -29.4018  -15.2254   17.9630 H   0  0  0  0  0  0
  -30.2327  -22.1294   19.3787 H   0  0  0  0  0  0
  -30.8571  -21.8205   20.9739 H   0  0  0  0  0  0
  -29.1981  -23.0939   22.0538 H   0  0  0  0  0  0
  -27.9894  -22.7288   20.8660 H   0  0  0  0  0  0
  -28.9881  -24.2642   19.2191 H   0  0  0  0  0  0
  -30.2420  -24.7261   20.3423 H   0  0  0  0  0  0
  -28.5233  -25.6598   21.8865 H   0  0  0  0  0  0
  -27.2494  -25.0747   20.8482 H   0  0  0  0  0  0
  -30.3633  -16.9734   21.8991 H   0  0  0  0  0  0
  -27.6376  -16.1933   21.3201 H   0  0  0  0  0  0
  -28.2470  -16.7992   22.6770 H   0  0  0  0  0  0
  -28.6838  -15.2856   22.2608 H   0  0  0  0  0  0
  1 25  1  0  0  0
  1 30  2  0  0  0
  1 83  1  0  0  0
  2  3  1  0  0  0
  2 25  1  0  0  0
  2 87  1  0  0  0
  2 88  1  0  0  0
  3  4  1  0  0  0
  3 89  1  0  0  0
  3 90  1  0  0  0
  4  5  1  0  0  0
  4 91  1  0  0  0
  4 92  1  0  0  0
  5  6  1  0  0  0
  5 26  1  0  0  0
  5 93  1  0  0  0
  6 25  1  0  0  0
  6 94  1  0  0  0
  6 95  1  0  0  0
  7  8  2  0  0  0
  7 26  1  0  0  0
  7 29  1  0  0  0
  8  9  1  0  0  0
  8 22  1  0  0  0
  9 10  1  0  0  0
  9 27  2  0  0  0
 10 11  2  0  0  0
 10 15  1  0  0  0
 11 12  1  0  0  0
 11 96  1  0  0  0
 12 13  2  0  0  0
 12 97  1  0  0  0
 13 14  1  0  0  0
 13 31  1  0  0  0
 14 15  2  0  0  0
 14 98  1  0  0  0
 15 99  1  0  0  0
 16 17  2  0  0  0
 16 21  1  0  0  0
 16 31  1  0  0  0
 17 18  1  0  0  0
 17100  1  0  0  0
 18 19  2  0  0  0
 18101  1  0  0  0
 19 20  1  0  0  0
 19 24  1  0  0  0
 20 21  2  0  0  0
 20102  1  0  0  0
 21 23  1  0  0  0
 22 28  1  0  0  0
 22 32  2  0  0  0
 26 27  1  0  0  0
 28103  1  0  0  0
 28104  1  0  0  0
 29105  1  0  0  0
 29106  1  0  0  0
 33 34  1  0  0  0
 33 66  1  0  0  0
 33 70  2  0  0  0
 34 36  1  0  0  0
 34 59  1  0  0  0
 34107  1  0  0  0
 35 44  2  0  0  0
 35 45  1  0  0  0
 35 68  1  0  0  0
 36 56  1  0  0  0
 36108  1  0  0  0
 37 39  1  0  0  0
 37 47  1  0  0  0
 37 66  1  0  0  0
 37109  1  0  0  0
 38 43  2  0  0  0
 38 46  1  0  0  0
 38 47  1  0  0  0
 39 64  1  0  0  0
 39 67  2  0  0  0
 40 52  1  0  0  0
 40 53  2  0  0  0
 40 58  1  0  0  0
 41110  1  0  0  0
 41111  1  0  0  0
 41112  1  0  0  0
 41 48  1  0  0  0
 42 43  1  0  0  0
 42 66  1  0  0  0
 42113  1  0  0  0
 42114  1  0  0  0
 43 44  1  0  0  0
 44115  1  0  0  0
 45 46  2  0  0  0
 45116  1  0  0  0
 46117  1  0  0  0
 47118  1  0  0  0
 47119  1  0  0  0
 48 56  1  0  0  0
 48 65  1  0  0  0
 48120  1  0  0  0
 49 50  1  0  0  0
 49 53  1  0  0  0
 49 64  1  0  0  0
 49121  1  0  0  0
 50 51  1  0  0  0
 50122  1  0  0  0
 50123  1  0  0  0
 51 52  1  0  0  0
 51124  1  0  0  0
 51125  1  0  0  0
 52126  1  0  0  0
 52127  1  0  0  0
 53 54  1  0  0  0
 54 55  2  0  0  0
 54128  1  0  0  0
 55 57  1  0  0  0
 55129  1  0  0  0
 56 69  2  0  0  0
 57 58  2  0  0  0
 57130  1  0  0  0
 58131  1  0  0  0
 59 60  1  0  0  0
 59 61  1  0  0  0
 59 62  1  0  0  0
 60132  1  0  0  0
 60133  1  0  0  0
 60134  1  0  0  0
 61135  1  0  0  0
 61136  1  0  0  0
 61137  1  0  0  0
 62138  1  0  0  0
 62139  1  0  0  0
 62140  1  0  0  0
 63 65  1  0  0  0
 63141  1  0  0  0
 63142  1  0  0  0
 63143  1  0  0  0
 64144  1  0  0  0
 65145  1  0  0  0
 68 81  1  0  0  0
 71 72  2  0  0  0
 71 73  1  0  0  0
 71146  1  0  0  0
 72 78  1  0  0  0
 72 84  1  0  0  0
 73 82  1  0  0  0
 73 85  2  0  0  0
 74 75  1  0  0  0
 74 84  2  0  0  0
 74 85  1  0  0  0
 75147  1  0  0  0
 75148  1  0  0  0
 75149  1  0  0  0
 76150  1  0  0  0
 76151  1  0  0  0
 76152  1  0  0  0
 76 83  1  0  0  0
 77 83  1  0  0  0
 77153  1  0  0  0
 77154  1  0  0  0
 77155  1  0  0  0
 78 79  1  0  0  0
 78156  1  0  0  0
 78157  1  0  0  0
 79 80  1  0  0  0
 79158  1  0  0  0
 79159  1  0  0  0
 80 81  1  0  0  0
 80160  1  0  0  0
 80161  1  0  0  0
 81162  1  0  0  0
 81163  1  0  0  0
 82 83  1  0  0  0
 82 86  1  0  0  0
 82164  1  0  0  0
 86165  1  0  0  0
 86166  1  0  0  0
 86167  1  0  0  0
M  CHG  1  86   1
M  ISO  4   1 100  68 101  81 101  83 100
M  END
> <chiral flag>
0

> <version>
0

> <s_m_source_file>
/data/baiqing/PycharmProjects/Reinvent-master-3.2/result/LINK_invent/BTK/process_docking_weight1_custom_sum_contain_oxygen_bond_distance_aromatic_linkinvent_7_9_3/rearranged_h_0078.sdf

> <i_m_source_file_index>
47

> <r_mmod_Potential_Energy-OPLS-2005>
-668.794372558594

> <r_mmod_Stretch_Energy-OPLS-2005>
48.9261512756348

> <r_mmod_Bend_Energy-OPLS-2005>
132.839279174805

> <r_mmod_Torsional_Energy-OPLS-2005>
246.439483642578

> <r_mmod_Improper_Torsional_Energy-OPLS-2005>
13.7828006744385

> <r_mmod_Van_der_Waal_Energy-OPLS-2005>
184.557647705078

> <r_mmod_Electrostatic_Energy-OPLS-2005>
-888.044128417969

> <r_mmod_Solvation_Energy-OPLS-2005>
-461.261260986328

> <b_mmod_Minimization_Converged-OPLS-2005>
0

> <r_mmod_RMS_Derivative-OPLS-2005>
6.22588872909546

$$$$
47
                    3D
 Structure written by MMmdl.
155163  0  0  1  0            999 V2000
  -30.6814  -14.4749   20.5809 C   0  0  0  0  0  0
  -30.4325  -12.3124   19.4161 C   0  0  0  0  0  0
  -29.4983  -12.5129   18.2048 C   0  0  0  0  0  0
  -28.0181  -12.3712   18.6157 C   0  0  0  0  0  0
  -27.6652  -13.2024   19.8780 C   0  0  2  0  0  0
  -28.7072  -12.9632   20.9950 C   0  0  0  0  0  0
  -25.2604  -13.8148   20.5659 C   0  0  0  0  0  0
  -24.1848  -13.0437   20.9155 C   0  0  0  0  0  0
  -24.6394  -11.6900   20.8724 C   0  0  0  0  0  0
  -23.9053  -10.4290   21.0396 C   0  0  0  0  0  0
  -24.3608   -9.4205   21.9174 C   0  0  0  0  0  0
  -23.6283   -8.2241   22.0753 C   0  0  0  0  0  0
  -22.4266   -8.0278   21.3539 C   0  0  0  0  0  0
  -21.9892   -9.0253   20.4644 C   0  0  0  0  0  0
  -22.7222  -10.2132   20.3050 C   0  0  0  0  0  0
  -21.6854   -6.0726   22.5273 C   0  0  0  0  0  0
  -21.4019   -6.5629   23.8207 C   0  0  0  0  0  0
  -21.3659   -5.6780   24.9165 C   0  0  0  0  0  0
  -21.6051   -4.3044   24.7221 C   0  0  0  0  0  0
  -21.8819   -3.8136   23.4342 C   0  0  0  0  0  0
  -21.9194   -4.6955   22.3397 C   0  0  0  0  0  0
  -22.7875  -13.5242   21.1821 C   0  0  0  0  0  0
  -22.1662   -4.2139   21.0976 F   0  0  0  0  0  0
  -21.5632   -3.4530   25.7736 F   0  0  0  0  0  0
  -30.0381  -13.2831   20.4478 N   0  0  0  0  0  0
  -26.3041  -12.9309   20.3365 N   0  0  0  0  0  0
  -25.9321  -11.6470   20.5752 N   0  0  0  0  0  0
  -22.0513  -12.8251   22.0392 N   0  0  0  0  0  0
  -25.4345  -15.1860   20.4062 N   0  0  0  0  0  0
  -31.7933  -14.7045   20.0977 O   0  0  0  0  0  0
  -21.6638   -6.8870   21.4235 O   0  0  0  0  0  0
  -22.3563  -14.5548   20.6670 O   0  0  0  0  0  0
  -24.6142  -31.8667   23.2089 C   0  0  0  0  0  0
  -25.9034  -32.4816   23.8388 C   0  0  1  0  0  0
  -27.2400  -27.4344   20.1040 C   0  0  0  0  0  0
  -25.5890  -33.8613   24.2322 N   0  0  0  0  0  0
  -23.4044  -30.4881   21.5478 C   0  0  2  0  0  0
  -24.8543  -28.9502   20.1166 C   0  0  0  0  0  0
  -22.7410  -29.4649   22.4977 C   0  0  0  0  0  0
  -18.0272  -28.1388   22.8489 C   0  0  0  0  0  0
  -24.1487  -36.7319   23.2639 C   0  0  0  0  0  0
  -25.9318  -30.8320   21.3629 C   0  0  0  0  0  0
  -26.0123  -29.4639   20.7158 C   0  0  0  0  0  0
  -27.2097  -28.7116   20.7099 C   0  0  0  0  0  0
  -26.0703  -26.9320   19.5008 C   0  0  0  0  0  0
  -24.8776  -27.6821   19.5072 C   0  0  0  0  0  0
  -23.6154  -29.8168   20.1634 C   0  0  0  0  0  0
  -25.4106  -36.3106   24.0335 C   0  0  1  0  0  0
  -20.5862  -28.3674   23.1317 C   0  0  2  0  0  0
  -20.6764  -26.9410   22.5420 C   0  0  0  0  0  0
  -19.5744  -26.6392   21.5218 C   0  0  0  0  0  0
  -18.1921  -26.7933   22.1624 C   0  0  0  0  0  0
  -19.1522  -28.8846   23.2899 C   0  0  0  0  0  0
  -18.9451  -30.1450   23.8913 C   0  0  0  0  0  0
  -17.6455  -30.6590   24.0571 C   0  0  0  0  0  0
  -25.9031  -34.9472   23.5128 C   0  0  0  0  0  0
  -16.5346  -29.9096   23.6327 C   0  0  0  0  0  0
  -16.7261  -28.6515   23.0342 C   0  0  0  0  0  0
  -26.4474  -31.6594   25.0712 C   0  0  0  0  0  0
  -25.3759  -31.3698   26.1476 C   0  0  0  0  0  0
  -27.0308  -30.3037   24.6083 C   0  0  0  0  0  0
  -27.6047  -32.4318   25.7475 C   0  0  0  0  0  0
  -27.5578  -37.1813   24.8465 C   0  0  0  0  0  0
  -21.4136  -29.3037   22.3719 N   0  0  0  0  0  0
  -26.4294  -37.3787   23.9407 N   0  0  0  0  0  0
  -24.6681  -31.0768   22.0988 N   0  0  0  0  0  0
  -23.4177  -28.8194   23.3027 O   0  0  0  0  0  0
  -28.3886  -26.6743   20.0832 O   0  0  0  0  0  0
  -26.5591  -34.8925   22.4687 O   0  0  0  0  0  0
  -23.5333  -32.1416   23.7479 O   0  0  0  0  0  0
  -28.3428  -21.2646   20.1370 C   0  0  0  0  0  0
  -30.7435  -21.2341   20.2933 C   0  0  0  0  0  0
  -29.5499  -21.9871   20.2519 C   0  0  0  0  0  0
  -28.3728  -19.8542   20.0738 C   0  0  0  0  0  0
  -29.6268  -19.1920   20.1130 C   0  0  0  0  0  0
  -29.6051  -23.5265   20.3098 C   0  0  0  0  0  0
  -29.7544  -17.6641   19.9546 C   0  0  0  0  0  0
  -28.3229  -24.2545   20.7961 C   0  0  0  0  0  0
  -30.2172  -16.8931   21.2200 C   0  0  0  0  0  0
  -28.5119  -25.7510   21.1773 C   0  0  0  0  0  0
  -30.7885  -19.8820   20.2213 N   0  0  0  0  0  0
  -29.9440  -15.4440   21.1516 N   0  0  0  0  0  0
  -26.8783  -18.9953   19.9327 Cl  0  0  0  0  0  0
  -31.4759  -12.4250   19.1162 H   0  0  0  0  0  0
  -30.3425  -11.2972   19.8058 H   0  0  0  0  0  0
  -29.7402  -11.7929   17.4223 H   0  0  0  0  0  0
  -29.6654  -13.5009   17.7718 H   0  0  0  0  0  0
  -27.8248  -11.3145   18.8017 H   0  0  0  0  0  0
  -27.3696  -12.6552   17.7858 H   0  0  0  0  0  0
  -27.7133  -14.2531   19.5897 H   0  0  0  0  0  0
  -28.6868  -11.9192   21.3128 H   0  0  0  0  0  0
  -28.4653  -13.5389   21.8895 H   0  0  0  0  0  0
  -25.2759   -9.5683   22.4740 H   0  0  0  0  0  0
  -23.9993   -7.4634   22.7478 H   0  0  0  0  0  0
  -21.0814   -8.8768   19.8961 H   0  0  0  0  0  0
  -22.3673  -10.9668   19.6157 H   0  0  0  0  0  0
  -21.2020   -7.6139   23.9707 H   0  0  0  0  0  0
  -21.1482   -6.0509   25.9065 H   0  0  0  0  0  0
  -22.0605   -2.7600   23.2841 H   0  0  0  0  0  0
  -22.4115  -11.9913   22.4794 H   0  0  0  0  0  0
  -21.1146  -13.1308   22.2612 H   0  0  0  0  0  0
  -24.6702  -15.8431   20.5130 H   0  0  0  0  0  0
  -26.2872  -15.6252   20.0841 H   0  0  0  0  0  0
  -26.7107  -32.5532   23.1157 H   0  0  0  0  0  0
  -25.0057  -33.9782   25.0477 H   0  0  0  0  0  0
  -22.6931  -31.3039   21.4051 H   0  0  0  0  0  0
  -23.3735  -35.9668   23.3319 H   0  0  0  0  0  0
  -24.3581  -36.8916   22.2050 H   0  0  0  0  0  0
  -23.7263  -37.6539   23.6645 H   0  0  0  0  0  0
  -26.0406  -31.5947   20.5904 H   0  0  0  0  0  0
  -26.8209  -30.8910   21.9791 H   0  0  0  0  0  0
  -28.1048  -29.1017   21.1740 H   0  0  0  0  0  0
  -26.0839  -25.9587   19.0310 H   0  0  0  0  0  0
  -23.9881  -27.2794   19.0414 H   0  0  0  0  0  0
  -23.7228  -30.5898   19.4011 H   0  0  0  0  0  0
  -22.7415  -29.2335   19.8678 H   0  0  0  0  0  0
  -25.1284  -36.1970   25.0829 H   0  0  0  0  0  0
  -20.9953  -28.3248   24.1438 H   0  0  0  0  0  0
  -20.5676  -26.2284   23.3609 H   0  0  0  0  0  0
  -21.6636  -26.7459   22.1212 H   0  0  0  0  0  0
  -19.6910  -25.6305   21.1242 H   0  0  0  0  0  0
  -19.6691  -27.3207   20.6754 H   0  0  0  0  0  0
  -17.4194  -26.6680   21.4022 H   0  0  0  0  0  0
  -18.0320  -26.0077   22.9020 H   0  0  0  0  0  0
  -19.7929  -30.7260   24.2293 H   0  0  0  0  0  0
  -17.5013  -31.6272   24.5169 H   0  0  0  0  0  0
  -15.5347  -30.3005   23.7650 H   0  0  0  0  0  0
  -15.8660  -28.0848   22.7042 H   0  0  0  0  0  0
  -24.5916  -30.7060   25.7824 H   0  0  0  0  0  0
  -24.8978  -32.2857   26.4956 H   0  0  0  0  0  0
  -25.8130  -30.8846   27.0213 H   0  0  0  0  0  0
  -26.2844  -29.6789   24.1162 H   0  0  0  0  0  0
  -27.4112  -29.7275   25.4528 H   0  0  0  0  0  0
  -27.8664  -30.4358   23.9206 H   0  0  0  0  0  0
  -27.2658  -33.3601   26.2086 H   0  0  0  0  0  0
  -28.3840  -32.6908   25.0296 H   0  0  0  0  0  0
  -28.0741  -31.8429   26.5366 H   0  0  0  0  0  0
  -28.2603  -38.0101   24.7489 H   0  0  0  0  0  0
  -28.1062  -36.2628   24.6310 H   0  0  0  0  0  0
  -27.2295  -37.1493   25.8868 H   0  0  0  0  0  0
  -20.9296  -29.8761   21.6943 H   0  0  0  0  0  0
  -26.0179  -38.2865   24.1400 H   0  0  0  0  0  0
  -27.3938  -21.7777   20.0889 H   0  0  0  0  0  0
  -31.6990  -21.7307   20.3744 H   0  0  0  0  0  0
  -29.8859  -23.9050   19.3264 H   0  0  0  0  0  0
  -30.4270  -23.7944   20.9766 H   0  0  0  0  0  0
  -30.4506  -17.4649   19.1389 H   0  0  0  0  0  0
  -28.8061  -17.2513   19.6157 H   0  0  0  0  0  0
  -27.9837  -23.7433   21.6981 H   0  0  0  0  0  0
  -27.5159  -24.1493   20.0711 H   0  0  0  0  0  0
  -29.6718  -17.2755   22.0834 H   0  0  0  0  0  0
  -31.2732  -17.0844   21.4184 H   0  0  0  0  0  0
  -29.4915  -25.8950   21.6347 H   0  0  0  0  0  0
  -27.7958  -26.0011   21.9642 H   0  0  0  0  0  0
  -29.0532  -15.1427   21.5186 H   0  0  0  0  0  0
  1 25  1  0  0  0
  1 30  2  0  0  0
  1 82  1  0  0  0
  2  3  1  0  0  0
  2 25  1  0  0  0
  2 84  1  0  0  0
  2 85  1  0  0  0
  3  4  1  0  0  0
  3 86  1  0  0  0
  3 87  1  0  0  0
  4  5  1  0  0  0
  4 88  1  0  0  0
  4 89  1  0  0  0
  5  6  1  0  0  0
  5 26  1  0  0  0
  5 90  1  0  0  0
  6 25  1  0  0  0
  6 91  1  0  0  0
  6 92  1  0  0  0
  7  8  2  0  0  0
  7 26  1  0  0  0
  7 29  1  0  0  0
  8  9  1  0  0  0
  8 22  1  0  0  0
  9 10  1  0  0  0
  9 27  2  0  0  0
 10 11  2  0  0  0
 10 15  1  0  0  0
 11 12  1  0  0  0
 11 93  1  0  0  0
 12 13  2  0  0  0
 12 94  1  0  0  0
 13 14  1  0  0  0
 13 31  1  0  0  0
 14 15  2  0  0  0
 14 95  1  0  0  0
 15 96  1  0  0  0
 16 17  2  0  0  0
 16 21  1  0  0  0
 16 31  1  0  0  0
 17 18  1  0  0  0
 17 97  1  0  0  0
 18 19  2  0  0  0
 18 98  1  0  0  0
 19 20  1  0  0  0
 19 24  1  0  0  0
 20 21  2  0  0  0
 20 99  1  0  0  0
 21 23  1  0  0  0
 22 28  1  0  0  0
 22 32  2  0  0  0
 26 27  1  0  0  0
 28100  1  0  0  0
 28101  1  0  0  0
 29102  1  0  0  0
 29103  1  0  0  0
 33 34  1  0  0  0
 33 66  1  0  0  0
 33 70  2  0  0  0
 34 36  1  0  0  0
 34 59  1  0  0  0
 34104  1  0  0  0
 35 44  2  0  0  0
 35 45  1  0  0  0
 35 68  1  0  0  0
 36 56  1  0  0  0
 36105  1  0  0  0
 37 39  1  0  0  0
 37 47  1  0  0  0
 37 66  1  0  0  0
 37106  1  0  0  0
 38 43  2  0  0  0
 38 46  1  0  0  0
 38 47  1  0  0  0
 39 64  1  0  0  0
 39 67  2  0  0  0
 40 52  1  0  0  0
 40 53  2  0  0  0
 40 58  1  0  0  0
 41107  1  0  0  0
 41108  1  0  0  0
 41109  1  0  0  0
 41 48  1  0  0  0
 42 43  1  0  0  0
 42 66  1  0  0  0
 42110  1  0  0  0
 42111  1  0  0  0
 43 44  1  0  0  0
 44112  1  0  0  0
 45 46  2  0  0  0
 45113  1  0  0  0
 46114  1  0  0  0
 47115  1  0  0  0
 47116  1  0  0  0
 48 56  1  0  0  0
 48 65  1  0  0  0
 48117  1  0  0  0
 49 50  1  0  0  0
 49 53  1  0  0  0
 49 64  1  0  0  0
 49118  1  0  0  0
 50 51  1  0  0  0
 50119  1  0  0  0
 50120  1  0  0  0
 51 52  1  0  0  0
 51121  1  0  0  0
 51122  1  0  0  0
 52123  1  0  0  0
 52124  1  0  0  0
 53 54  1  0  0  0
 54 55  2  0  0  0
 54125  1  0  0  0
 55 57  1  0  0  0
 55126  1  0  0  0
 56 69  2  0  0  0
 57 58  2  0  0  0
 57127  1  0  0  0
 58128  1  0  0  0
 59 60  1  0  0  0
 59 61  1  0  0  0
 59 62  1  0  0  0
 60129  1  0  0  0
 60130  1  0  0  0
 60131  1  0  0  0
 61132  1  0  0  0
 61133  1  0  0  0
 61134  1  0  0  0
 62135  1  0  0  0
 62136  1  0  0  0
 62137  1  0  0  0
 63 65  1  0  0  0
 63138  1  0  0  0
 63139  1  0  0  0
 63140  1  0  0  0
 64141  1  0  0  0
 65142  1  0  0  0
 68 80  1  0  0  0
 71 73  2  0  0  0
 71 74  1  0  0  0
 71143  1  0  0  0
 72 73  1  0  0  0
 72 81  2  0  0  0
 72144  1  0  0  0
 73 76  1  0  0  0
 74 75  2  0  0  0
 74 83  1  0  0  0
 75 77  1  0  0  0
 75 81  1  0  0  0
 76 78  1  0  0  0
 76145  1  0  0  0
 76146  1  0  0  0
 77 79  1  0  0  0
 77147  1  0  0  0
 77148  1  0  0  0
 78 80  1  0  0  0
 78149  1  0  0  0
 78150  1  0  0  0
 79 82  1  0  0  0
 79151  1  0  0  0
 79152  1  0  0  0
 80153  1  0  0  0
 80154  1  0  0  0
 82155  1  0  0  0
M  ISO  4   1 100  68 101  80 101  82 100
M  END
> <chiral flag>
0

> <version>
0

> <s_m_source_file>
/data/baiqing/PycharmProjects/Reinvent-master-3.2/result/LINK_invent/BTK/process_docking_weight1_custom_sum_contain_oxygen_bond_distance_aromatic_linkinvent_7_9_3/rearranged_h_0078.sdf

> <i_m_source_file_index>
48

> <r_mmod_Potential_Energy-OPLS-2005>
-143.749771118164

> <r_mmod_Stretch_Energy-OPLS-2005>
39.0759735107422

> <r_mmod_Bend_Energy-OPLS-2005>
94.9027709960938

> <r_mmod_Torsional_Energy-OPLS-2005>
217.930877685547

> <r_mmod_Improper_Torsional_Energy-OPLS-2005>
3.56869435310364

> <r_mmod_Van_der_Waal_Energy-OPLS-2005>
145.340225219727

> <r_mmod_Electrostatic_Energy-OPLS-2005>
-439.470397949219

> <r_mmod_Solvation_Energy-OPLS-2005>
-217.108825683594

> <b_mmod_Minimization_Converged-OPLS-2005>
0

> <r_mmod_RMS_Derivative-OPLS-2005>
1.03681874275208

$$$$
48
                    3D
 Structure written by MMmdl.
190198  0  0  1  0            999 V2000
  -30.7302  -14.4170   20.6481 C   0  0  0  0  0  0
  -30.4237  -12.2940   19.4269 C   0  0  0  0  0  0
  -29.4986  -12.5112   18.2142 C   0  0  0  0  0  0
  -28.0220  -12.3710   18.6288 C   0  0  0  0  0  0
  -27.6719  -13.1996   19.8958 C   0  0  2  0  0  0
  -28.7081  -12.9430   21.0128 C   0  0  0  0  0  0
  -25.2649  -13.8177   20.5699 C   0  0  0  0  0  0
  -24.1850  -13.0434   20.9184 C   0  0  0  0  0  0
  -24.6407  -11.6919   20.8744 C   0  0  0  0  0  0
  -23.9050  -10.4301   21.0410 C   0  0  0  0  0  0
  -24.3594   -9.4224   21.9196 C   0  0  0  0  0  0
  -23.6277   -8.2257   22.0770 C   0  0  0  0  0  0
  -22.4268   -8.0281   21.3557 C   0  0  0  0  0  0
  -21.9899   -9.0259   20.4654 C   0  0  0  0  0  0
  -22.7221  -10.2147   20.3064 C   0  0  0  0  0  0
  -21.6856   -6.0726   22.5278 C   0  0  0  0  0  0
  -21.4013   -6.5638   23.8203 C   0  0  0  0  0  0
  -21.3653   -5.6788   24.9177 C   0  0  0  0  0  0
  -21.6047   -4.3058   24.7232 C   0  0  0  0  0  0
  -21.8819   -3.8139   23.4365 C   0  0  0  0  0  0
  -21.9198   -4.6958   22.3402 C   0  0  0  0  0  0
  -22.7893  -13.5276   21.1822 C   0  0  0  0  0  0
  -22.1665   -4.2143   21.0988 F   0  0  0  0  0  0
  -21.5633   -3.4539   25.7751 F   0  0  0  0  0  0
  -30.0359  -13.2597   20.4716 N   0  0  0  0  0  0
  -26.3070  -12.9305   20.3459 N   0  0  0  0  0  0
  -25.9331  -11.6475   20.5796 N   0  0  0  0  0  0
  -22.0488  -12.8260   22.0368 N   0  0  0  0  0  0
  -25.4388  -15.1869   20.4157 N   0  0  0  0  0  0
  -31.8214  -14.5895   20.0930 O   0  0  0  0  0  0
  -21.6645   -6.8884   21.4236 O   0  0  0  0  0  0
  -22.3602  -14.5572   20.6696 O   0  0  0  0  0  0
  -24.6131  -31.8656   23.2177 C   0  0  0  0  0  0
  -25.9015  -32.4793   23.8399 C   0  0  1  0  0  0
  -27.1759  -27.3911   20.1409 C   0  0  0  0  0  0
  -25.5882  -33.8599   24.2322 N   0  0  0  0  0  0
  -23.3974  -30.4978   21.5586 C   0  0  2  0  0  0
  -24.8408  -28.9933   20.0780 C   0  0  0  0  0  0
  -22.7379  -29.4588   22.4939 C   0  0  0  0  0  0
  -18.0223  -28.1303   22.8432 C   0  0  0  0  0  0
  -24.1551  -36.7278   23.2645 C   0  0  0  0  0  0
  -25.9345  -30.8338   21.3737 C   0  0  0  0  0  0
  -26.0061  -29.4821   20.6862 C   0  0  0  0  0  0
  -27.1811  -28.6876   20.7092 C   0  0  0  0  0  0
  -26.0341  -26.9797   19.4144 C   0  0  0  0  0  0
  -24.8548  -27.7486   19.4306 C   0  0  0  0  0  0
  -23.6000  -29.8538   20.1628 C   0  0  0  0  0  0
  -25.4193  -36.3102   24.0329 C   0  0  1  0  0  0
  -20.5826  -28.3577   23.1288 C   0  0  2  0  0  0
  -20.6818  -26.9323   22.5400 C   0  0  0  0  0  0
  -19.5812  -26.6300   21.5210 C   0  0  0  0  0  0
  -18.1945  -26.7800   22.1631 C   0  0  0  0  0  0
  -19.1494  -28.8773   23.2824 C   0  0  0  0  0  0
  -18.9423  -30.1382   23.8815 C   0  0  0  0  0  0
  -17.6455  -30.6500   24.0529 C   0  0  0  0  0  0
  -25.9106  -34.9446   23.5161 C   0  0  0  0  0  0
  -16.5320  -29.9000   23.6371 C   0  0  0  0  0  0
  -16.7210  -28.6449   23.0283 C   0  0  0  0  0  0
  -26.4416  -31.6556   25.0730 C   0  0  0  0  0  0
  -25.3599  -31.3620   26.1390 C   0  0  0  0  0  0
  -27.0254  -30.3000   24.6112 C   0  0  0  0  0  0
  -27.5965  -32.4261   25.7500 C   0  0  0  0  0  0
  -27.5630  -37.1780   24.8468 C   0  0  0  0  0  0
  -21.4116  -29.2940   22.3668 N   0  0  0  0  0  0
  -26.4375  -37.3790   23.9344 N   0  0  0  0  0  0
  -24.6658  -31.0741   22.1090 N   0  0  0  0  0  0
  -23.4116  -28.8104   23.2986 O   0  0  0  0  0  0
  -28.1890  -26.4832   20.4272 O   0  0  0  0  0  0
  -26.5696  -34.8908   22.4732 O   0  0  0  0  0  0
  -23.5302  -32.1439   23.7589 O   0  0  0  0  0  0
  -31.0807  -19.2601   20.3611 C   0  0  0  0  0  0
  -31.4464  -20.5368   20.8245 C   0  0  0  0  0  0
  -30.5236  -18.5679   22.6156 C   0  0  0  0  0  0
  -30.6079  -18.2647   21.2413 C   0  0  0  0  0  0
  -31.3512  -20.8643   22.1967 C   0  0  0  0  0  0
  -30.9115  -19.8452   23.0997 C   0  0  0  0  0  0
  -30.9060  -20.0427   24.6165 C   0  0  0  0  0  0
  -33.3042  -22.2507   23.0544 C   0  0  0  0  0  0
  -28.4315  -22.9529   23.8349 C   0  0  0  0  0  0
  -30.0752  -24.7064   24.7147 C   0  0  0  0  0  0
  -25.8147  -24.5072   22.9050 C   0  0  0  0  0  0
  -26.6779  -26.8876   23.2516 C   0  0  0  0  0  0
  -30.1271  -26.1479   22.2185 C   0  0  0  0  0  0
  -27.4499  -24.2081   20.4164 C   0  0  0  0  0  0
  -30.2313  -16.9156   20.6201 C   0  0  0  0  0  0
  -30.1785  -15.6105   21.4716 C   0  0  0  0  0  0
  -30.0191  -23.7235   21.4455 C   0  0  0  0  0  0
  -31.7984  -22.2607   22.6966 C   0  0  1  0  0  0
  -28.9338  -24.4219   23.6974 C   0  0  0  0  0  0
  -26.6027  -25.6830   22.2789 C   0  0  0  0  0  0
  -29.2248  -24.8871   22.1995 C   0  0  1  0  0  0
  -27.8856  -25.3504   21.3728 C   0  0  2  0  0  0
  -31.4383  -23.4378   21.8208 N   0  3  0  0  0  0
  -31.4675  -12.3901   19.1260 H   0  0  0  0  0  0
  -30.3256  -11.2754   19.8032 H   0  0  0  0  0  0
  -29.7360  -11.7916   17.4301 H   0  0  0  0  0  0
  -29.6715  -13.4983   17.7834 H   0  0  0  0  0  0
  -27.8402  -11.3134   18.8226 H   0  0  0  0  0  0
  -27.3671  -12.6466   17.8029 H   0  0  0  0  0  0
  -27.7359  -14.2533   19.6254 H   0  0  0  0  0  0
  -28.6849  -11.8914   21.3100 H   0  0  0  0  0  0
  -28.4619  -13.4899   21.9227 H   0  0  0  0  0  0
  -25.2739   -9.5720   22.4785 H   0  0  0  0  0  0
  -23.9992   -7.4665   22.7505 H   0  0  0  0  0  0
  -21.0839   -8.8775   19.8963 H   0  0  0  0  0  0
  -22.3667  -10.9693   19.6186 H   0  0  0  0  0  0
  -21.1987   -7.6141   23.9707 H   0  0  0  0  0  0
  -21.1474   -6.0526   25.9080 H   0  0  0  0  0  0
  -22.0601   -2.7604   23.2862 H   0  0  0  0  0  0
  -22.4046  -11.9889   22.4723 H   0  0  0  0  0  0
  -21.1133  -13.1360   22.2574 H   0  0  0  0  0  0
  -24.6788  -15.8480   20.5358 H   0  0  0  0  0  0
  -26.3001  -15.6274   20.1103 H   0  0  0  0  0  0
  -26.7040  -32.5504   23.1096 H   0  0  0  0  0  0
  -24.9923  -33.9745   25.0403 H   0  0  0  0  0  0
  -22.6813  -31.3160   21.4431 H   0  0  0  0  0  0
  -23.3870  -35.9582   23.3357 H   0  0  0  0  0  0
  -24.3597  -36.8885   22.2049 H   0  0  0  0  0  0
  -23.7295  -37.6475   23.6667 H   0  0  0  0  0  0
  -26.0755  -31.6394   20.6488 H   0  0  0  0  0  0
  -26.8065  -30.8491   22.0140 H   0  0  0  0  0  0
  -28.0547  -29.0219   21.2525 H   0  0  0  0  0  0
  -26.0105  -26.0204   18.9233 H   0  0  0  0  0  0
  -23.9519  -27.3771   18.9587 H   0  0  0  0  0  0
  -23.6730  -30.6491   19.4213 H   0  0  0  0  0  0
  -22.7207  -29.2749   19.8701 H   0  0  0  0  0  0
  -25.1421  -36.2013   25.0843 H   0  0  0  0  0  0
  -20.9920  -28.3186   24.1410 H   0  0  0  0  0  0
  -20.5928  -26.2124   23.3567 H   0  0  0  0  0  0
  -21.6646  -26.7508   22.1090 H   0  0  0  0  0  0
  -19.7129  -25.6229   21.1212 H   0  0  0  0  0  0
  -19.6783  -27.3107   20.6743 H   0  0  0  0  0  0
  -17.4244  -26.6383   21.3992 H   0  0  0  0  0  0
  -18.0421  -25.9988   22.9092 H   0  0  0  0  0  0
  -19.7919  -30.7167   24.2098 H   0  0  0  0  0  0
  -17.5051  -31.6194   24.5115 H   0  0  0  0  0  0
  -15.5318  -30.2891   23.7852 H   0  0  0  0  0  0
  -15.8582  -28.0803   22.6964 H   0  0  0  0  0  0
  -24.5976  -30.6762   25.7646 H   0  0  0  0  0  0
  -24.8502  -32.2688   26.4627 H   0  0  0  0  0  0
  -25.7872  -30.8946   27.0270 H   0  0  0  0  0  0
  -26.2772  -29.6725   24.1257 H   0  0  0  0  0  0
  -27.4069  -29.7284   25.4576 H   0  0  0  0  0  0
  -27.8605  -30.4236   23.9234 H   0  0  0  0  0  0
  -27.2672  -33.3742   26.1759 H   0  0  0  0  0  0
  -28.3885  -32.6448   25.0330 H   0  0  0  0  0  0
  -28.0430  -31.8533   26.5635 H   0  0  0  0  0  0
  -28.2637  -38.0085   24.7574 H   0  0  0  0  0  0
  -28.1154  -36.2608   24.6342 H   0  0  0  0  0  0
  -27.2251  -37.1425   25.8839 H   0  0  0  0  0  0
  -20.9355  -29.8618   21.6782 H   0  0  0  0  0  0
  -26.0332  -38.2897   24.1330 H   0  0  0  0  0  0
  -31.1824  -19.0370   19.3066 H   0  0  0  0  0  0
  -31.8227  -21.2401   20.0943 H   0  0  0  0  0  0
  -30.1884  -17.8109   23.3095 H   0  0  0  0  0  0
  -30.5059  -19.1577   25.1086 H   0  0  0  0  0  0
  -30.2994  -20.8768   24.9602 H   0  0  0  0  0  0
  -31.9153  -20.1906   24.9961 H   0  0  0  0  0  0
  -33.5077  -21.5418   23.8583 H   0  0  0  0  0  0
  -33.6464  -23.2232   23.4201 H   0  0  0  0  0  0
  -33.9337  -21.9572   22.2147 H   0  0  0  0  0  0
  -27.9603  -22.7634   24.8027 H   0  0  0  0  0  0
  -29.2323  -22.2400   23.7334 H   0  0  0  0  0  0
  -27.7152  -22.6332   23.0844 H   0  0  0  0  0  0
  -30.2489  -25.7715   24.8521 H   0  0  0  0  0  0
  -31.0352  -24.3047   24.4180 H   0  0  0  0  0  0
  -29.8523  -24.3351   25.7161 H   0  0  0  0  0  0
  -24.7539  -24.7534   22.9366 H   0  0  0  0  0  0
  -26.1081  -24.2762   23.9244 H   0  0  0  0  0  0
  -25.8644  -23.5894   22.3228 H   0  0  0  0  0  0
  -25.8691  -27.5833   23.0278 H   0  0  0  0  0  0
  -27.6050  -27.4519   23.1806 H   0  0  0  0  0  0
  -26.5471  -26.5989   24.2957 H   0  0  0  0  0  0
  -31.1000  -26.0029   22.6813 H   0  0  0  0  0  0
  -29.6473  -26.9577   22.7584 H   0  0  0  0  0  0
  -30.3399  -26.5210   21.2198 H   0  0  0  0  0  0
  -27.4450  -23.2408   20.9108 H   0  0  0  0  0  0
  -28.0980  -24.1485   19.5415 H   0  0  0  0  0  0
  -26.4308  -24.3136   20.0559 H   0  0  0  0  0  0
  -30.9533  -16.8034   19.8126 H   0  0  0  0  0  0
  -29.2671  -17.0368   20.1275 H   0  0  0  0  0  0
  -29.1573  -15.4671   21.8205 H   0  0  0  0  0  0
  -30.7957  -15.6797   22.3671 H   0  0  0  0  0  0
  -30.1117  -24.0241   20.4003 H   0  0  0  0  0  0
  -29.4745  -22.7814   21.4238 H   0  0  0  0  0  0
  -31.3112  -22.4166   23.6488 H   0  0  0  0  0  0
  -28.1459  -25.0319   24.1252 H   0  0  0  0  0  0
  -25.8258  -25.9689   21.5858 H   0  0  0  0  0  0
  -31.8169  -24.2833   22.2114 H   0  0  0  0  0  0
  -31.9031  -23.2917   20.9382 H   0  0  0  0  0  0
  1 25  1  0  0  0
  1 30  2  0  0  0
  1 86  1  0  0  0
  2  3  1  0  0  0
  2 25  1  0  0  0
  2 94  1  0  0  0
  2 95  1  0  0  0
  3  4  1  0  0  0
  3 96  1  0  0  0
  3 97  1  0  0  0
  4  5  1  0  0  0
  4 98  1  0  0  0
  4 99  1  0  0  0
  5  6  1  0  0  0
  5 26  1  0  0  0
  5100  1  0  0  0
  6 25  1  0  0  0
  6101  1  0  0  0
  6102  1  0  0  0
  7  8  2  0  0  0
  7 26  1  0  0  0
  7 29  1  0  0  0
  8  9  1  0  0  0
  8 22  1  0  0  0
  9 10  1  0  0  0
  9 27  2  0  0  0
 10 11  2  0  0  0
 10 15  1  0  0  0
 11 12  1  0  0  0
 11103  1  0  0  0
 12 13  2  0  0  0
 12104  1  0  0  0
 13 14  1  0  0  0
 13 31  1  0  0  0
 14 15  2  0  0  0
 14105  1  0  0  0
 15106  1  0  0  0
 16 17  2  0  0  0
 16 21  1  0  0  0
 16 31  1  0  0  0
 17 18  1  0  0  0
 17107  1  0  0  0
 18 19  2  0  0  0
 18108  1  0  0  0
 19 20  1  0  0  0
 19 24  1  0  0  0
 20 21  2  0  0  0
 20109  1  0  0  0
 21 23  1  0  0  0
 22 28  1  0  0  0
 22 32  2  0  0  0
 26 27  1  0  0  0
 28110  1  0  0  0
 28111  1  0  0  0
 29112  1  0  0  0
 29113  1  0  0  0
 33 34  1  0  0  0
 33 66  1  0  0  0
 33 70  2  0  0  0
 34 36  1  0  0  0
 34 59  1  0  0  0
 34114  1  0  0  0
 35 44  2  0  0  0
 35 45  1  0  0  0
 35 68  1  0  0  0
 36 56  1  0  0  0
 36115  1  0  0  0
 37 39  1  0  0  0
 37 47  1  0  0  0
 37 66  1  0  0  0
 37116  1  0  0  0
 38 43  2  0  0  0
 38 46  1  0  0  0
 38 47  1  0  0  0
 39 64  1  0  0  0
 39 67  2  0  0  0
 40 52  1  0  0  0
 40 53  2  0  0  0
 40 58  1  0  0  0
 41117  1  0  0  0
 41118  1  0  0  0
 41119  1  0  0  0
 41 48  1  0  0  0
 42 43  1  0  0  0
 42 66  1  0  0  0
 42120  1  0  0  0
 42121  1  0  0  0
 43 44  1  0  0  0
 44122  1  0  0  0
 45 46  2  0  0  0
 45123  1  0  0  0
 46124  1  0  0  0
 47125  1  0  0  0
 47126  1  0  0  0
 48 56  1  0  0  0
 48 65  1  0  0  0
 48127  1  0  0  0
 49 50  1  0  0  0
 49 53  1  0  0  0
 49 64  1  0  0  0
 49128  1  0  0  0
 50 51  1  0  0  0
 50129  1  0  0  0
 50130  1  0  0  0
 51 52  1  0  0  0
 51131  1  0  0  0
 51132  1  0  0  0
 52133  1  0  0  0
 52134  1  0  0  0
 53 54  1  0  0  0
 54 55  2  0  0  0
 54135  1  0  0  0
 55 57  1  0  0  0
 55136  1  0  0  0
 56 69  2  0  0  0
 57 58  2  0  0  0
 57137  1  0  0  0
 58138  1  0  0  0
 59 60  1  0  0  0
 59 61  1  0  0  0
 59 62  1  0  0  0
 60139  1  0  0  0
 60140  1  0  0  0
 60141  1  0  0  0
 61142  1  0  0  0
 61143  1  0  0  0
 61144  1  0  0  0
 62145  1  0  0  0
 62146  1  0  0  0
 62147  1  0  0  0
 63 65  1  0  0  0
 63148  1  0  0  0
 63149  1  0  0  0
 63150  1  0  0  0
 64151  1  0  0  0
 65152  1  0  0  0
 68 92  1  0  0  0
 71 72  2  0  0  0
 71 74  1  0  0  0
 71153  1  0  0  0
 72 75  1  0  0  0
 72154  1  0  0  0
 73 74  2  0  0  0
 73 76  1  0  0  0
 73155  1  0  0  0
 74 85  1  0  0  0
 75 76  2  0  0  0
 75 88  1  0  0  0
 76 77  1  0  0  0
 77156  1  0  0  0
 77157  1  0  0  0
 77158  1  0  0  0
 78159  1  0  0  0
 78160  1  0  0  0
 78161  1  0  0  0
 78 88  1  0  0  0
 79162  1  0  0  0
 79163  1  0  0  0
 79164  1  0  0  0
 79 89  1  0  0  0
 80 89  1  0  0  0
 80165  1  0  0  0
 80166  1  0  0  0
 80167  1  0  0  0
 81168  1  0  0  0
 81169  1  0  0  0
 81170  1  0  0  0
 81 90  1  0  0  0
 82 90  1  0  0  0
 82171  1  0  0  0
 82172  1  0  0  0
 82173  1  0  0  0
 83174  1  0  0  0
 83175  1  0  0  0
 83176  1  0  0  0
 83 91  1  0  0  0
 84177  1  0  0  0
 84178  1  0  0  0
 84179  1  0  0  0
 84 92  1  0  0  0
 85 86  1  0  0  0
 85180  1  0  0  0
 85181  1  0  0  0
 86182  1  0  0  0
 86183  1  0  0  0
 87 91  1  0  0  0
 87 93  1  0  0  0
 87184  1  0  0  0
 87185  1  0  0  0
 88 93  1  0  0  0
 88186  1  0  0  0
 89 91  1  0  0  0
 89187  1  0  0  0
 90 92  1  0  0  0
 90188  1  0  0  0
 91 92  1  0  0  0
 93189  1  0  0  0
 93190  1  0  0  0
M  CHG  1  93   1
M  ISO  4   1 100  68 101  86 100  92 101
M  END
> <chiral flag>
0

> <version>
0

> <s_m_source_file>
/data/baiqing/PycharmProjects/Reinvent-master-3.2/result/LINK_invent/BTK/process_docking_weight1_custom_sum_contain_oxygen_bond_distance_aromatic_linkinvent_7_9_3/rearranged_h_0078.sdf

> <i_m_source_file_index>
49

> <r_mmod_Potential_Energy-OPLS-2005>
108.88924407959

> <r_mmod_Stretch_Energy-OPLS-2005>
91.833366394043

> <r_mmod_Bend_Energy-OPLS-2005>
185.642044067383

> <r_mmod_Torsional_Energy-OPLS-2005>
302.764617919922

> <r_mmod_Improper_Torsional_Energy-OPLS-2005>
3.28631949424744

> <r_mmod_Van_der_Waal_Energy-OPLS-2005>
210.0771484375

> <r_mmod_Electrostatic_Energy-OPLS-2005>
-331.323181152344

> <r_mmod_Solvation_Energy-OPLS-2005>
-395.368194580078

> <b_mmod_Minimization_Converged-OPLS-2005>
0

> <r_mmod_RMS_Derivative-OPLS-2005>
9.65430545806885

$$$$
49
                    3D
 Structure written by MMmdl.
161169  0  0  1  0            999 V2000
  -30.7289  -14.5107   20.5445 C   0  0  0  0  0  0
  -30.4195  -12.3295   19.4273 C   0  0  0  0  0  0
  -29.4900  -12.4899   18.2069 C   0  0  0  0  0  0
  -28.0148  -12.3349   18.6267 C   0  0  0  0  0  0
  -27.6511  -13.2073   19.8564 C   0  0  2  0  0  0
  -28.7002  -13.0615   20.9839 C   0  0  0  0  0  0
  -25.2560  -13.8170   20.5701 C   0  0  0  0  0  0
  -24.1835  -13.0429   20.9240 C   0  0  0  0  0  0
  -24.6392  -11.6911   20.8756 C   0  0  0  0  0  0
  -23.9086  -10.4287   21.0414 C   0  0  0  0  0  0
  -24.3628   -9.4203   21.9195 C   0  0  0  0  0  0
  -23.6302   -8.2247   22.0745 C   0  0  0  0  0  0
  -22.4285   -8.0299   21.3528 C   0  0  0  0  0  0
  -21.9929   -9.0276   20.4629 C   0  0  0  0  0  0
  -22.7270  -10.2150   20.3044 C   0  0  0  0  0  0
  -21.6860   -6.0749   22.5268 C   0  0  0  0  0  0
  -21.4030   -6.5657   23.8202 C   0  0  0  0  0  0
  -21.3649   -5.6809   24.9155 C   0  0  0  0  0  0
  -21.6032   -4.3074   24.7217 C   0  0  0  0  0  0
  -21.8840   -3.8165   23.4346 C   0  0  0  0  0  0
  -21.9217   -4.6978   22.3399 C   0  0  0  0  0  0
  -22.7861  -13.5227   21.1906 C   0  0  0  0  0  0
  -22.1707   -4.2169   21.0981 F   0  0  0  0  0  0
  -21.5586   -3.4558   25.7728 F   0  0  0  0  0  0
  -30.0269  -13.3478   20.4152 N   0  0  0  0  0  0
  -26.2976  -12.9328   20.3304 N   0  0  0  0  0  0
  -25.9301  -11.6488   20.5743 N   0  0  0  0  0  0
  -22.0496  -12.8202   22.0451 N   0  0  0  0  0  0
  -25.4232  -15.1877   20.4059 N   0  0  0  0  0  0
  -31.8787  -14.6428   20.1280 O   0  0  0  0  0  0
  -21.6649   -6.8893   21.4227 O   0  0  0  0  0  0
  -22.3537  -14.5520   20.6747 O   0  0  0  0  0  0
  -24.6224  -31.8633   23.2138 C   0  0  0  0  0  0
  -25.9082  -32.4815   23.8424 C   0  0  1  0  0  0
  -27.2156  -27.3727   20.0847 C   0  0  0  0  0  0
  -25.5903  -33.8617   24.2334 N   0  0  0  0  0  0
  -23.4132  -30.4925   21.5563 C   0  0  2  0  0  0
  -24.8534  -28.9673   20.1106 C   0  0  0  0  0  0
  -22.7454  -29.4629   22.4981 C   0  0  0  0  0  0
  -18.0267  -28.1394   22.8489 C   0  0  0  0  0  0
  -24.1477  -36.7319   23.2637 C   0  0  0  0  0  0
  -25.9527  -30.8072   21.3807 C   0  0  0  0  0  0
  -26.0240  -29.4431   20.7167 C   0  0  0  0  0  0
  -27.2067  -28.6541   20.7030 C   0  0  0  0  0  0
  -26.0197  -26.9539   19.4437 C   0  0  0  0  0  0
  -24.8505  -27.7252   19.4687 C   0  0  0  0  0  0
  -23.6225  -29.8420   20.1667 C   0  0  0  0  0  0
  -25.4103  -36.3121   24.0336 C   0  0  1  0  0  0
  -20.5872  -28.3670   23.1324 C   0  0  2  0  0  0
  -20.6775  -26.9405   22.5417 C   0  0  0  0  0  0
  -19.5746  -26.6390   21.5224 C   0  0  0  0  0  0
  -18.1925  -26.7932   22.1641 C   0  0  0  0  0  0
  -19.1523  -28.8851   23.2900 C   0  0  0  0  0  0
  -18.9442  -30.1459   23.8904 C   0  0  0  0  0  0
  -17.6444  -30.6597   24.0563 C   0  0  0  0  0  0
  -25.9025  -34.9475   23.5129 C   0  0  0  0  0  0
  -16.5333  -29.9093   23.6343 C   0  0  0  0  0  0
  -16.7256  -28.6520   23.0348 C   0  0  0  0  0  0
  -26.4487  -31.6617   25.0771 C   0  0  0  0  0  0
  -25.3751  -31.3716   26.1516 C   0  0  0  0  0  0
  -27.0315  -30.3056   24.6180 C   0  0  0  0  0  0
  -27.6057  -32.4338   25.7531 C   0  0  0  0  0  0
  -27.5576  -37.1821   24.8469 C   0  0  0  0  0  0
  -21.4174  -29.3030   22.3733 N   0  0  0  0  0  0
  -26.4293  -37.3808   23.9409 N   0  0  0  0  0  0
  -24.6820  -31.0679   22.1081 N   0  0  0  0  0  0
  -23.4194  -28.8126   23.3016 O   0  0  0  0  0  0
  -28.3402  -26.5412   20.1313 O   0  0  0  0  0  0
  -26.5596  -34.8922   22.4694 O   0  0  0  0  0  0
  -23.5402  -32.1391   23.7505 O   0  0  0  0  0  0
  -27.5919  -20.1229   17.9653 C   0  0  0  0  0  0
  -28.5171  -20.1065   18.9915 C   0  0  0  0  0  0
  -26.9250  -21.2362   17.2075 C   0  0  0  0  0  0
  -31.0752  -18.0164   19.4806 C   0  0  0  0  0  0
  -29.1940  -21.2665   19.7365 C   0  0  0  0  0  0
  -28.5582  -22.6712   19.4562 C   0  0  0  0  0  0
  -29.0932  -23.9931   20.1048 C   0  0  0  0  0  0
  -29.2012  -16.4427   20.2629 C   0  0  0  0  0  0
  -28.1070  -25.1529   19.7489 C   0  0  0  0  0  0
  -29.6501  -17.9467   20.0572 C   0  0  2  0  0  0
  -27.2794  -18.8217   17.6046 N   0  0  0  0  0  0
  -27.9628  -18.0046   18.3210 N   0  0  0  0  0  0
  -28.7263  -18.7205   19.1866 N   0  0  0  0  0  0
  -30.0963  -15.5819   21.0671 N   0  0  0  0  0  0
  -31.4643  -12.4207   19.1233 H   0  0  0  0  0  0
  -30.3239  -11.3312   19.8598 H   0  0  0  0  0  0
  -29.7369  -11.7500   17.4430 H   0  0  0  0  0  0
  -29.6484  -13.4693   17.7477 H   0  0  0  0  0  0
  -27.8401  -11.2826   18.8601 H   0  0  0  0  0  0
  -27.3592  -12.5746   17.7883 H   0  0  0  0  0  0
  -27.6657  -14.2360   19.5044 H   0  0  0  0  0  0
  -28.6844  -12.0538   21.3995 H   0  0  0  0  0  0
  -28.4665  -13.7289   21.8131 H   0  0  0  0  0  0
  -25.2758   -9.5663   22.4786 H   0  0  0  0  0  0
  -24.0017   -7.4645   22.7465 H   0  0  0  0  0  0
  -21.0864   -8.8818   19.8927 H   0  0  0  0  0  0
  -22.3770  -10.9718   19.6167 H   0  0  0  0  0  0
  -21.2055   -7.6167   23.9714 H   0  0  0  0  0  0
  -21.1439   -6.0532   25.9061 H   0  0  0  0  0  0
  -22.0638   -2.7633   23.2849 H   0  0  0  0  0  0
  -22.4109  -11.9859   22.4826 H   0  0  0  0  0  0
  -21.1072  -13.1161   22.2570 H   0  0  0  0  0  0
  -24.6532  -15.8402   20.5071 H   0  0  0  0  0  0
  -26.2585  -15.6164   20.0325 H   0  0  0  0  0  0
  -26.7136  -32.5495   23.1163 H   0  0  0  0  0  0
  -25.0070  -33.9772   25.0492 H   0  0  0  0  0  0
  -22.7068  -31.3146   21.4247 H   0  0  0  0  0  0
  -23.3740  -35.9652   23.3315 H   0  0  0  0  0  0
  -24.3571  -36.8917   22.2048 H   0  0  0  0  0  0
  -23.7215  -37.6524   23.6636 H   0  0  0  0  0  0
  -26.0769  -31.5729   20.6144 H   0  0  0  0  0  0
  -26.8403  -30.8554   22.0015 H   0  0  0  0  0  0
  -28.1031  -29.0100   21.1908 H   0  0  0  0  0  0
  -25.9403  -26.0179   18.9137 H   0  0  0  0  0  0
  -23.9564  -27.3614   18.9802 H   0  0  0  0  0  0
  -23.7446  -30.6259   19.4193 H   0  0  0  0  0  0
  -22.7434  -29.2726   19.8602 H   0  0  0  0  0  0
  -25.1279  -36.1993   25.0832 H   0  0  0  0  0  0
  -20.9945  -28.3214   24.1456 H   0  0  0  0  0  0
  -20.5728  -26.2247   23.3587 H   0  0  0  0  0  0
  -21.6633  -26.7478   22.1174 H   0  0  0  0  0  0
  -19.6902  -25.6307   21.1243 H   0  0  0  0  0  0
  -19.6694  -27.3215   20.6770 H   0  0  0  0  0  0
  -17.4188  -26.6661   21.4053 H   0  0  0  0  0  0
  -18.0331  -26.0093   22.9061 H   0  0  0  0  0  0
  -19.7913  -30.7282   24.2270 H   0  0  0  0  0  0
  -17.4995  -31.6283   24.5151 H   0  0  0  0  0  0
  -15.5337  -30.2993   23.7683 H   0  0  0  0  0  0
  -15.8650  -28.0857   22.7048 H   0  0  0  0  0  0
  -24.5889  -30.7106   25.7848 H   0  0  0  0  0  0
  -24.8987  -32.2867   26.5044 H   0  0  0  0  0  0
  -25.8109  -30.8812   27.0230 H   0  0  0  0  0  0
  -26.2867  -29.6837   24.1206 H   0  0  0  0  0  0
  -27.4022  -29.7286   25.4662 H   0  0  0  0  0  0
  -27.8739  -30.4369   23.9389 H   0  0  0  0  0  0
  -27.2668  -33.3608   26.2171 H   0  0  0  0  0  0
  -28.3846  -32.6950   25.0355 H   0  0  0  0  0  0
  -28.0754  -31.8424   26.5402 H   0  0  0  0  0  0
  -28.2613  -38.0104   24.7516 H   0  0  0  0  0  0
  -28.1053  -36.2634   24.6303 H   0  0  0  0  0  0
  -27.2290  -37.1486   25.8873 H   0  0  0  0  0  0
  -20.9333  -29.8736   21.6946 H   0  0  0  0  0  0
  -26.0183  -38.2884   24.1426 H   0  0  0  0  0  0
  -26.3822  -21.9117   17.8655 H   0  0  0  0  0  0
  -27.6454  -21.8133   16.6276 H   0  0  0  0  0  0
  -26.1949  -20.8526   16.4936 H   0  0  0  0  0  0
  -31.3773  -19.0452   19.2757 H   0  0  0  0  0  0
  -31.1473  -17.4598   18.5448 H   0  0  0  0  0  0
  -31.8067  -17.5978   20.1709 H   0  0  0  0  0  0
  -30.2531  -21.2907   19.4792 H   0  0  0  0  0  0
  -29.1558  -21.0681   20.8070 H   0  0  0  0  0  0
  -27.5052  -22.5856   19.7248 H   0  0  0  0  0  0
  -28.5929  -22.8525   18.3837 H   0  0  0  0  0  0
  -30.0953  -24.2170   19.7382 H   0  0  0  0  0  0
  -29.1676  -23.8766   21.1869 H   0  0  0  0  0  0
  -29.0908  -15.9750   19.2837 H   0  0  0  0  0  0
  -28.2183  -16.4159   20.7341 H   0  0  0  0  0  0
  -27.1697  -24.8294   20.2056 H   0  0  0  0  0  0
  -27.9623  -25.1436   18.6664 H   0  0  0  0  0  0
  -29.6479  -18.4372   21.0310 H   0  0  0  0  0  0
  -30.7334  -16.1528   21.6020 H   0  0  0  0  0  0
  1 25  1  0  0  0
  1 30  2  0  0  0
  1 84  1  0  0  0
  2  3  1  0  0  0
  2 25  1  0  0  0
  2 85  1  0  0  0
  2 86  1  0  0  0
  3  4  1  0  0  0
  3 87  1  0  0  0
  3 88  1  0  0  0
  4  5  1  0  0  0
  4 89  1  0  0  0
  4 90  1  0  0  0
  5  6  1  0  0  0
  5 26  1  0  0  0
  5 91  1  0  0  0
  6 25  1  0  0  0
  6 92  1  0  0  0
  6 93  1  0  0  0
  7  8  2  0  0  0
  7 26  1  0  0  0
  7 29  1  0  0  0
  8  9  1  0  0  0
  8 22  1  0  0  0
  9 10  1  0  0  0
  9 27  2  0  0  0
 10 11  2  0  0  0
 10 15  1  0  0  0
 11 12  1  0  0  0
 11 94  1  0  0  0
 12 13  2  0  0  0
 12 95  1  0  0  0
 13 14  1  0  0  0
 13 31  1  0  0  0
 14 15  2  0  0  0
 14 96  1  0  0  0
 15 97  1  0  0  0
 16 17  2  0  0  0
 16 21  1  0  0  0
 16 31  1  0  0  0
 17 18  1  0  0  0
 17 98  1  0  0  0
 18 19  2  0  0  0
 18 99  1  0  0  0
 19 20  1  0  0  0
 19 24  1  0  0  0
 20 21  2  0  0  0
 20100  1  0  0  0
 21 23  1  0  0  0
 22 28  1  0  0  0
 22 32  2  0  0  0
 26 27  1  0  0  0
 28101  1  0  0  0
 28102  1  0  0  0
 29103  1  0  0  0
 29104  1  0  0  0
 33 34  1  0  0  0
 33 66  1  0  0  0
 33 70  2  0  0  0
 34 36  1  0  0  0
 34 59  1  0  0  0
 34105  1  0  0  0
 35 44  2  0  0  0
 35 45  1  0  0  0
 35 68  1  0  0  0
 36 56  1  0  0  0
 36106  1  0  0  0
 37 39  1  0  0  0
 37 47  1  0  0  0
 37 66  1  0  0  0
 37107  1  0  0  0
 38 43  2  0  0  0
 38 46  1  0  0  0
 38 47  1  0  0  0
 39 64  1  0  0  0
 39 67  2  0  0  0
 40 52  1  0  0  0
 40 53  2  0  0  0
 40 58  1  0  0  0
 41108  1  0  0  0
 41109  1  0  0  0
 41110  1  0  0  0
 41 48  1  0  0  0
 42 43  1  0  0  0
 42 66  1  0  0  0
 42111  1  0  0  0
 42112  1  0  0  0
 43 44  1  0  0  0
 44113  1  0  0  0
 45 46  2  0  0  0
 45114  1  0  0  0
 46115  1  0  0  0
 47116  1  0  0  0
 47117  1  0  0  0
 48 56  1  0  0  0
 48 65  1  0  0  0
 48118  1  0  0  0
 49 50  1  0  0  0
 49 53  1  0  0  0
 49 64  1  0  0  0
 49119  1  0  0  0
 50 51  1  0  0  0
 50120  1  0  0  0
 50121  1  0  0  0
 51 52  1  0  0  0
 51122  1  0  0  0
 51123  1  0  0  0
 52124  1  0  0  0
 52125  1  0  0  0
 53 54  1  0  0  0
 54 55  2  0  0  0
 54126  1  0  0  0
 55 57  1  0  0  0
 55127  1  0  0  0
 56 69  2  0  0  0
 57 58  2  0  0  0
 57128  1  0  0  0
 58129  1  0  0  0
 59 60  1  0  0  0
 59 61  1  0  0  0
 59 62  1  0  0  0
 60130  1  0  0  0
 60131  1  0  0  0
 60132  1  0  0  0
 61133  1  0  0  0
 61134  1  0  0  0
 61135  1  0  0  0
 62136  1  0  0  0
 62137  1  0  0  0
 62138  1  0  0  0
 63 65  1  0  0  0
 63139  1  0  0  0
 63140  1  0  0  0
 63141  1  0  0  0
 64142  1  0  0  0
 65143  1  0  0  0
 68 79  1  0  0  0
 71 72  2  0  0  0
 71 73  1  0  0  0
 71 81  1  0  0  0
 72 75  1  0  0  0
 72 83  1  0  0  0
 73144  1  0  0  0
 73145  1  0  0  0
 73146  1  0  0  0
 74147  1  0  0  0
 74148  1  0  0  0
 74149  1  0  0  0
 74 80  1  0  0  0
 75 76  1  0  0  0
 75150  1  0  0  0
 75151  1  0  0  0
 76 77  1  0  0  0
 76152  1  0  0  0
 76153  1  0  0  0
 77 79  1  0  0  0
 77154  1  0  0  0
 77155  1  0  0  0
 78 80  1  0  0  0
 78 84  1  0  0  0
 78156  1  0  0  0
 78157  1  0  0  0
 79158  1  0  0  0
 79159  1  0  0  0
 80 83  1  0  0  0
 80160  1  0  0  0
 81 82  2  0  0  0
 82 83  1  0  0  0
 84161  1  0  0  0
M  ISO  4   1 100  68 101  79 101  84 100
M  END
> <chiral flag>
0

> <version>
0

> <s_m_source_file>
/data/baiqing/PycharmProjects/Reinvent-master-3.2/result/LINK_invent/BTK/process_docking_weight1_custom_sum_contain_oxygen_bond_distance_aromatic_linkinvent_7_9_3/rearranged_h_0078.sdf

> <i_m_source_file_index>
50

> <r_mmod_Potential_Energy-OPLS-2005>
24.1725368499756

> <r_mmod_Stretch_Energy-OPLS-2005>
54.3942184448242

> <r_mmod_Bend_Energy-OPLS-2005>
136.601287841797

> <r_mmod_Torsional_Energy-OPLS-2005>
278.776733398438

> <r_mmod_Improper_Torsional_Energy-OPLS-2005>
7.11424398422241

> <r_mmod_Van_der_Waal_Energy-OPLS-2005>
138.806289672852

> <r_mmod_Electrostatic_Energy-OPLS-2005>
-406.531555175781

> <r_mmod_Solvation_Energy-OPLS-2005>
-212.793045043945

> <b_mmod_Minimization_Converged-OPLS-2005>
0

> <r_mmod_RMS_Derivative-OPLS-2005>
2.95560550689697

$$$$
50
                    3D
 Structure written by MMmdl.
168176  0  0  1  0            999 V2000
  -30.6624  -14.5378   20.5486 C   0  0  0  0  0  0
  -30.4292  -12.3426   19.4452 C   0  0  0  0  0  0
  -29.5055  -12.5186   18.2194 C   0  0  0  0  0  0
  -28.0254  -12.3665   18.6228 C   0  0  0  0  0  0
  -27.6579  -13.2147   19.8715 C   0  0  2  0  0  0
  -28.6946  -13.0201   21.0033 C   0  0  0  0  0  0
  -25.2542  -13.8193   20.5666 C   0  0  0  0  0  0
  -24.1802  -13.0460   20.9207 C   0  0  0  0  0  0
  -24.6358  -11.6942   20.8718 C   0  0  0  0  0  0
  -23.9021  -10.4315   21.0376 C   0  0  0  0  0  0
  -24.3583   -9.4240   21.9162 C   0  0  0  0  0  0
  -23.6282   -8.2258   22.0723 C   0  0  0  0  0  0
  -22.4254   -8.0268   21.3524 C   0  0  0  0  0  0
  -21.9887   -9.0239   20.4625 C   0  0  0  0  0  0
  -22.7201  -10.2138   20.3039 C   0  0  0  0  0  0
  -21.6847   -6.0719   22.5274 C   0  0  0  0  0  0
  -21.4008   -6.5622   23.8207 C   0  0  0  0  0  0
  -21.3676   -5.6782   24.9171 C   0  0  0  0  0  0
  -21.6051   -4.3040   24.7228 C   0  0  0  0  0  0
  -21.8817   -3.8127   23.4352 C   0  0  0  0  0  0
  -21.9194   -4.6950   22.3398 C   0  0  0  0  0  0
  -22.7829  -13.5254   21.1888 C   0  0  0  0  0  0
  -22.1659   -4.2123   21.0986 F   0  0  0  0  0  0
  -21.5633   -3.4536   25.7748 F   0  0  0  0  0  0
  -30.0277  -13.3336   20.4599 N   0  0  0  0  0  0
  -26.2972  -12.9372   20.3300 N   0  0  0  0  0  0
  -25.9272  -11.6528   20.5680 N   0  0  0  0  0  0
  -22.0447  -12.8228   22.0432 N   0  0  0  0  0  0
  -25.4300  -15.1906   20.4109 N   0  0  0  0  0  0
  -31.7885  -14.7314   20.0805 O   0  0  0  0  0  0
  -21.6634   -6.8858   21.4228 O   0  0  0  0  0  0
  -22.3530  -14.5571   20.6756 O   0  0  0  0  0  0
  -24.6170  -31.8651   23.2024 C   0  0  0  0  0  0
  -25.9039  -32.4806   23.8338 C   0  0  1  0  0  0
  -27.2488  -27.3916   20.1110 C   0  0  0  0  0  0
  -25.5913  -33.8599   24.2291 N   0  0  0  0  0  0
  -23.4049  -30.4866   21.5447 C   0  0  2  0  0  0
  -24.8522  -28.9369   20.1209 C   0  0  0  0  0  0
  -22.7395  -29.4659   22.4982 C   0  0  0  0  0  0
  -18.0280  -28.1372   22.8519 C   0  0  0  0  0  0
  -24.1485  -36.7314   23.2641 C   0  0  0  0  0  0
  -25.9354  -30.8219   21.3568 C   0  0  0  0  0  0
  -26.0139  -29.4499   20.7078 C   0  0  0  0  0  0
  -27.2070  -28.6868   20.6918 C   0  0  0  0  0  0
  -26.0548  -26.8929   19.5400 C   0  0  0  0  0  0
  -24.8695  -27.6587   19.5356 C   0  0  0  0  0  0
  -23.6140  -29.8054   20.1643 C   0  0  0  0  0  0
  -25.4106  -36.3100   24.0332 C   0  0  1  0  0  0
  -20.5897  -28.3643   23.1334 C   0  0  2  0  0  0
  -20.6762  -26.9353   22.5486 C   0  0  0  0  0  0
  -19.5725  -26.6295   21.5279 C   0  0  0  0  0  0
  -18.1905  -26.7891   22.1670 C   0  0  0  0  0  0
  -19.1555  -28.8833   23.2885 C   0  0  0  0  0  0
  -18.9503  -30.1455   23.8843 C   0  0  0  0  0  0
  -17.6514  -30.6634   24.0471 C   0  0  0  0  0  0
  -25.9043  -34.9468   23.5111 C   0  0  0  0  0  0
  -16.5382  -29.9139   23.6283 C   0  0  0  0  0  0
  -16.7280  -28.6495   23.0424 C   0  0  0  0  0  0
  -26.4462  -31.6598   25.0682 C   0  0  0  0  0  0
  -25.3726  -31.3685   26.1432 C   0  0  0  0  0  0
  -27.0260  -30.3026   24.6055 C   0  0  0  0  0  0
  -27.6027  -32.4334   25.7471 C   0  0  0  0  0  0
  -27.5573  -37.1804   24.8467 C   0  0  0  0  0  0
  -21.4145  -29.2972   22.3660 N   0  0  0  0  0  0
  -26.4290  -37.3787   23.9404 N   0  0  0  0  0  0
  -24.6718  -31.0723   22.0934 N   0  0  0  0  0  0
  -23.4126  -28.8279   23.3121 O   0  0  0  0  0  0
  -28.4567  -26.7006   20.1499 O   0  0  0  0  0  0
  -26.5612  -34.8935   22.4666 O   0  0  0  0  0  0
  -23.5353  -32.1425   23.7394 O   0  0  0  0  0  0
  -28.1164  -21.4120   20.4071 C   0  0  0  0  0  0
  -27.7599  -20.4024   19.4643 C   0  0  0  0  0  0
  -28.9335  -20.7220   21.2872 C   0  0  0  0  0  0
  -26.7953  -20.4580   18.3079 C   0  0  0  0  0  0
  -29.5277  -21.2555   22.5507 C   0  0  0  0  0  0
  -28.3953  -25.1797   18.1289 C   0  0  0  0  0  0
  -30.8820  -18.4079   22.3171 C   0  0  0  0  0  0
  -28.5112  -17.6114   22.4686 C   0  0  0  0  0  0
  -27.5284  -22.8497   20.4439 C   0  0  0  0  0  0
  -28.4838  -24.1050   20.5650 C   0  0  0  0  0  0
  -29.9663  -16.9714   20.4792 C   0  0  0  0  0  0
  -28.7247  -25.3641   19.6273 C   0  0  2  0  0  0
  -29.5999  -18.1251   21.5051 C   0  0  0  0  0  0
  -28.3273  -19.2383   19.7285 N   0  0  0  0  0  0
  -29.0614  -19.3790   20.8538 N   0  0  0  0  0  0
  -29.9011  -15.5692   20.9809 N   0  0  0  0  0  0
  -31.4724  -12.4566   19.1472 H   0  0  0  0  0  0
  -30.3445  -11.3348   19.8499 H   0  0  0  0  0  0
  -29.7620  -11.7882   17.4507 H   0  0  0  0  0  0
  -29.6670  -13.5031   17.7754 H   0  0  0  0  0  0
  -27.8419  -11.3078   18.8140 H   0  0  0  0  0  0
  -27.3809  -12.6364   17.7848 H   0  0  0  0  0  0
  -27.6901  -14.2606   19.5615 H   0  0  0  0  0  0
  -28.6700  -11.9898   21.3589 H   0  0  0  0  0  0
  -28.4407  -13.6376   21.8664 H   0  0  0  0  0  0
  -25.2726   -9.5724   22.4742 H   0  0  0  0  0  0
  -23.9998   -7.4642   22.7433 H   0  0  0  0  0  0
  -21.0827   -8.8765   19.8914 H   0  0  0  0  0  0
  -22.3656  -10.9676   19.6139 H   0  0  0  0  0  0
  -21.1980   -7.6131   23.9701 H   0  0  0  0  0  0
  -21.1506   -6.0511   25.9078 H   0  0  0  0  0  0
  -22.0579   -2.7589   23.2866 H   0  0  0  0  0  0
  -22.4036  -11.9931   22.4923 H   0  0  0  0  0  0
  -21.1020  -13.1208   22.2504 H   0  0  0  0  0  0
  -24.6693  -15.8528   20.5172 H   0  0  0  0  0  0
  -26.2899  -15.6319   20.1081 H   0  0  0  0  0  0
  -26.7116  -32.5508   23.1107 H   0  0  0  0  0  0
  -25.0021  -33.9750   25.0415 H   0  0  0  0  0  0
  -22.6963  -31.3040   21.3939 H   0  0  0  0  0  0
  -23.3749  -35.9649   23.3321 H   0  0  0  0  0  0
  -24.3588  -36.8904   22.2056 H   0  0  0  0  0  0
  -23.7247  -37.6522   23.6651 H   0  0  0  0  0  0
  -26.0454  -31.5829   20.5831 H   0  0  0  0  0  0
  -26.8247  -30.8836   21.9707 H   0  0  0  0  0  0
  -28.1049  -29.0880   21.1435 H   0  0  0  0  0  0
  -25.9982  -25.9026   19.1223 H   0  0  0  0  0  0
  -23.9688  -27.2466   19.1014 H   0  0  0  0  0  0
  -23.7199  -30.5731   19.3959 H   0  0  0  0  0  0
  -22.7403  -29.2161   19.8762 H   0  0  0  0  0  0
  -25.1293  -36.1956   25.0830 H   0  0  0  0  0  0
  -20.9980  -28.3183   24.1469 H   0  0  0  0  0  0
  -21.6621  -26.7350   22.1288 H   0  0  0  0  0  0
  -20.5645  -26.2282   23.3721 H   0  0  0  0  0  0
  -19.6696  -27.3030   20.6754 H   0  0  0  0  0  0
  -19.6876  -25.6143   21.1392 H   0  0  0  0  0  0
  -17.4152  -26.6636   21.4089 H   0  0  0  0  0  0
  -18.0310  -26.0050   22.9096 H   0  0  0  0  0  0
  -19.8008  -30.7271   24.2149 H   0  0  0  0  0  0
  -17.5103  -31.6375   24.4947 H   0  0  0  0  0  0
  -15.5393  -30.3099   23.7519 H   0  0  0  0  0  0
  -15.8642  -28.0807   22.7256 H   0  0  0  0  0  0
  -24.5940  -30.6999   25.7754 H   0  0  0  0  0  0
  -24.8873  -32.2820   26.4876 H   0  0  0  0  0  0
  -25.8109  -30.8857   27.0176 H   0  0  0  0  0  0
  -26.2755  -29.6837   24.1113 H   0  0  0  0  0  0
  -27.4017  -29.7248   25.4511 H   0  0  0  0  0  0
  -27.8631  -30.4345   23.9190 H   0  0  0  0  0  0
  -27.2626  -33.3635   26.2052 H   0  0  0  0  0  0
  -28.3843  -32.6894   25.0306 H   0  0  0  0  0  0
  -28.0690  -31.8441   26.5380 H   0  0  0  0  0  0
  -28.2598  -38.0091   24.7502 H   0  0  0  0  0  0
  -28.1061  -36.2623   24.6314 H   0  0  0  0  0  0
  -27.2298  -37.1480   25.8872 H   0  0  0  0  0  0
  -20.9291  -29.8499   21.6713 H   0  0  0  0  0  0
  -26.0185  -38.2865   24.1394 H   0  0  0  0  0  0
  -25.9210  -19.8383   18.5074 H   0  0  0  0  0  0
  -27.2547  -20.0833   17.3931 H   0  0  0  0  0  0
  -26.4272  -21.4630   18.1048 H   0  0  0  0  0  0
  -29.2851  -22.3106   22.6777 H   0  0  0  0  0  0
  -30.6129  -21.1893   22.5445 H   0  0  0  0  0  0
  -29.1420  -20.7268   23.4203 H   0  0  0  0  0  0
  -29.0027  -24.3844   17.6960 H   0  0  0  0  0  0
  -28.6097  -26.0855   17.5615 H   0  0  0  0  0  0
  -27.3618  -24.8987   17.9496 H   0  0  0  0  0  0
  -31.3577  -17.4767   22.6244 H   0  0  0  0  0  0
  -30.6733  -18.9605   23.2325 H   0  0  0  0  0  0
  -31.6111  -18.9714   21.7341 H   0  0  0  0  0  0
  -28.1715  -18.3996   23.1396 H   0  0  0  0  0  0
  -28.8665  -16.7886   23.0918 H   0  0  0  0  0  0
  -27.6393  -17.2592   21.9163 H   0  0  0  0  0  0
  -26.8241  -22.8798   21.2797 H   0  0  0  0  0  0
  -26.8858  -22.9930   19.5755 H   0  0  0  0  0  0
  -27.5176  -24.6133   20.5933 H   0  0  0  0  0  0
  -29.0487  -23.5790   19.7988 H   0  0  0  0  0  0
  -30.9327  -17.1800   20.0150 H   0  0  0  0  0  0
  -29.2635  -16.9625   19.6477 H   0  0  0  0  0  0
  -29.8170  -25.4432   19.6084 H   0  0  0  0  0  0
  -29.0258  -15.3044   21.4073 H   0  0  0  0  0  0
  1 25  1  0  0  0
  1 30  2  0  0  0
  1 86  1  0  0  0
  2  3  1  0  0  0
  2 25  1  0  0  0
  2 87  1  0  0  0
  2 88  1  0  0  0
  3  4  1  0  0  0
  3 89  1  0  0  0
  3 90  1  0  0  0
  4  5  1  0  0  0
  4 91  1  0  0  0
  4 92  1  0  0  0
  5  6  1  0  0  0
  5 26  1  0  0  0
  5 93  1  0  0  0
  6 25  1  0  0  0
  6 94  1  0  0  0
  6 95  1  0  0  0
  7  8  2  0  0  0
  7 26  1  0  0  0
  7 29  1  0  0  0
  8  9  1  0  0  0
  8 22  1  0  0  0
  9 10  1  0  0  0
  9 27  2  0  0  0
 10 11  2  0  0  0
 10 15  1  0  0  0
 11 12  1  0  0  0
 11 96  1  0  0  0
 12 13  2  0  0  0
 12 97  1  0  0  0
 13 14  1  0  0  0
 13 31  1  0  0  0
 14 15  2  0  0  0
 14 98  1  0  0  0
 15 99  1  0  0  0
 16 17  2  0  0  0
 16 21  1  0  0  0
 16 31  1  0  0  0
 17 18  1  0  0  0
 17100  1  0  0  0
 18 19  2  0  0  0
 18101  1  0  0  0
 19 20  1  0  0  0
 19 24  1  0  0  0
 20 21  2  0  0  0
 20102  1  0  0  0
 21 23  1  0  0  0
 22 28  1  0  0  0
 22 32  2  0  0  0
 26 27  1  0  0  0
 28103  1  0  0  0
 28104  1  0  0  0
 29105  1  0  0  0
 29106  1  0  0  0
 33 34  1  0  0  0
 33 66  1  0  0  0
 33 70  2  0  0  0
 34 36  1  0  0  0
 34 59  1  0  0  0
 34107  1  0  0  0
 35 44  2  0  0  0
 35 45  1  0  0  0
 35 68  1  0  0  0
 36 56  1  0  0  0
 36108  1  0  0  0
 37 39  1  0  0  0
 37 47  1  0  0  0
 37 66  1  0  0  0
 37109  1  0  0  0
 38 43  2  0  0  0
 38 46  1  0  0  0
 38 47  1  0  0  0
 39 64  1  0  0  0
 39 67  2  0  0  0
 40 52  1  0  0  0
 40 53  2  0  0  0
 40 58  1  0  0  0
 41110  1  0  0  0
 41111  1  0  0  0
 41112  1  0  0  0
 41 48  1  0  0  0
 42 43  1  0  0  0
 42 66  1  0  0  0
 42113  1  0  0  0
 42114  1  0  0  0
 43 44  1  0  0  0
 44115  1  0  0  0
 45 46  2  0  0  0
 45116  1  0  0  0
 46117  1  0  0  0
 47118  1  0  0  0
 47119  1  0  0  0
 48 56  1  0  0  0
 48 65  1  0  0  0
 48120  1  0  0  0
 49 50  1  0  0  0
 49 53  1  0  0  0
 49 64  1  0  0  0
 49121  1  0  0  0
 50 51  1  0  0  0
 50122  1  0  0  0
 50123  1  0  0  0
 51 52  1  0  0  0
 51124  1  0  0  0
 51125  1  0  0  0
 52126  1  0  0  0
 52127  1  0  0  0
 53 54  1  0  0  0
 54 55  2  0  0  0
 54128  1  0  0  0
 55 57  1  0  0  0
 55129  1  0  0  0
 56 69  2  0  0  0
 57 58  2  0  0  0
 57130  1  0  0  0
 58131  1  0  0  0
 59 60  1  0  0  0
 59 61  1  0  0  0
 59 62  1  0  0  0
 60132  1  0  0  0
 60133  1  0  0  0
 60134  1  0  0  0
 61135  1  0  0  0
 61136  1  0  0  0
 61137  1  0  0  0
 62138  1  0  0  0
 62139  1  0  0  0
 62140  1  0  0  0
 63 65  1  0  0  0
 63141  1  0  0  0
 63142  1  0  0  0
 63143  1  0  0  0
 64144  1  0  0  0
 65145  1  0  0  0
 68 82  1  0  0  0
 71 72  1  0  0  0
 71 73  2  0  0  0
 71 79  1  0  0  0
 72 74  1  0  0  0
 72 84  2  0  0  0
 73 75  1  0  0  0
 73 85  1  0  0  0
 74146  1  0  0  0
 74147  1  0  0  0
 74148  1  0  0  0
 75149  1  0  0  0
 75150  1  0  0  0
 75151  1  0  0  0
 76152  1  0  0  0
 76153  1  0  0  0
 76154  1  0  0  0
 76 82  1  0  0  0
 77155  1  0  0  0
 77156  1  0  0  0
 77157  1  0  0  0
 77 83  1  0  0  0
 78 83  1  0  0  0
 78158  1  0  0  0
 78159  1  0  0  0
 78160  1  0  0  0
 79 80  1  0  0  0
 79161  1  0  0  0
 79162  1  0  0  0
 80 82  1  0  0  0
 80163  1  0  0  0
 80164  1  0  0  0
 81 83  1  0  0  0
 81 86  1  0  0  0
 81165  1  0  0  0
 81166  1  0  0  0
 82167  1  0  0  0
 83 85  1  0  0  0
 84 85  1  0  0  0
 86168  1  0  0  0
M  ISO  4   1 100  68 101  82 101  86 100
M  END
> <chiral flag>
0

> <version>
0

> <s_m_source_file>
/data/baiqing/PycharmProjects/Reinvent-master-3.2/result/LINK_invent/BTK/process_docking_weight1_custom_sum_contain_oxygen_bond_distance_aromatic_linkinvent_7_9_3/rearranged_h_0078.sdf

> <i_m_source_file_index>
51

> <r_mmod_Potential_Energy-OPLS-2005>
205.728775024414

> <r_mmod_Stretch_Energy-OPLS-2005>
64.3784713745117

> <r_mmod_Bend_Energy-OPLS-2005>
393.565887451172

> <r_mmod_Torsional_Energy-OPLS-2005>
256.144897460938

> <r_mmod_Improper_Torsional_Energy-OPLS-2005>
8.58255290985107

> <r_mmod_Van_der_Waal_Energy-OPLS-2005>
140.117401123047

> <r_mmod_Electrostatic_Energy-OPLS-2005>
-475.617736816406

> <r_mmod_Solvation_Energy-OPLS-2005>
-202.899124145508

> <b_mmod_Minimization_Converged-OPLS-2005>
0

> <r_mmod_RMS_Derivative-OPLS-2005>
4.83238554000854

$$$$
51
                    3D
 Structure written by MMmdl.
164172  0  0  1  0            999 V2000
  -29.8935  -16.8977   20.3726 C   0  0  0  0  0  0
  -30.3374  -14.0387   19.3840 C   0  0  0  0  0  0
  -29.6119  -13.0399   18.3658 C   0  0  0  0  0  0
  -28.3027  -12.4341   18.8945 C   0  0  0  0  0  0
  -27.6002  -13.4900   19.7519 C   0  0  2  0  0  0
  -28.5697  -14.3268   20.7003 C   0  0  0  0  0  0
  -25.2447  -13.8561   20.5970 C   0  0  0  0  0  0
  -24.1916  -13.0518   20.9356 C   0  0  0  0  0  0
  -24.6778  -11.7090   20.8642 C   0  0  0  0  0  0
  -23.9394  -10.4353   21.0256 C   0  0  0  0  0  0
  -24.3813   -9.4246   21.9126 C   0  0  0  0  0  0
  -23.6376   -8.2296   22.0703 C   0  0  0  0  0  0
  -22.4338   -8.0345   21.3535 C   0  0  0  0  0  0
  -22.0084   -9.0340   20.4623 C   0  0  0  0  0  0
  -22.7464  -10.2190   20.2993 C   0  0  0  0  0  0
  -21.6875   -6.0773   22.5285 C   0  0  0  0  0  0
  -21.3984   -6.5652   23.8219 C   0  0  0  0  0  0
  -21.3639   -5.6793   24.9196 C   0  0  0  0  0  0
  -21.6065   -4.3059   24.7251 C   0  0  0  0  0  0
  -21.8802   -3.8167   23.4357 C   0  0  0  0  0  0
  -21.9200   -4.6991   22.3429 C   0  0  0  0  0  0
  -22.7785  -13.5095   21.1852 C   0  0  0  0  0  0
  -22.1687   -4.2146   21.1011 F   0  0  0  0  0  0
  -21.5645   -3.4543   25.7769 F   0  0  0  0  0  0
  -29.5211  -15.3389   19.9317 N   0  0  0  0  0  0
  -26.3165  -13.0299   20.3339 N   0  0  0  0  0  0
  -25.9822  -11.7154   20.5464 N   0  0  0  0  0  0
  -22.0421  -12.8133   22.0426 N   0  0  0  0  0  0
  -25.3785  -15.2302   20.4356 N   0  0  0  0  0  0
  -30.5793  -16.0463   21.0919 O   0  0  0  0  0  0
  -21.6643   -6.8961   21.4252 O   0  0  0  0  0  0
  -22.3408  -14.5353   20.6644 O   0  0  0  0  0  0
  -24.7662  -31.6922   23.0787 C   0  0  0  0  0  0
  -25.9816  -32.3948   23.7646 C   0  0  1  0  0  0
  -27.2952  -25.8508   20.2861 C   0  0  0  0  0  0
  -25.6018  -33.7799   24.1422 N   0  0  0  0  0  0
  -23.6273  -30.2527   21.4528 C   0  0  2  0  0  0
  -25.0957  -28.4004   20.1499 C   0  0  0  0  0  0
  -22.8123  -29.3743   22.4441 C   0  0  0  0  0  0
  -18.0411  -28.1471   22.8419 C   0  0  0  0  0  0
  -24.1502  -36.6919   23.2678 C   0  0  0  0  0  0
  -26.2334  -30.1410   21.4786 C   0  0  0  0  0  0
  -26.2944  -28.6100   20.8421 C   0  0  0  0  0  0
  -27.3310  -27.3957   20.8542 C   0  0  0  0  0  0
  -26.0575  -26.0755   19.5304 C   0  0  0  0  0  0
  -25.0670  -27.1617   19.4699 C   0  0  0  0  0  0
  -23.9260  -29.4549   20.1317 C   0  0  0  0  0  0
  -25.4178  -36.2564   24.0208 C   0  0  1  0  0  0
  -20.6077  -28.3851   23.0973 C   0  0  2  0  0  0
  -20.6802  -26.9424   22.5416 C   0  0  0  0  0  0
  -19.5786  -26.6338   21.5221 C   0  0  0  0  0  0
  -18.1977  -26.7976   22.1615 C   0  0  0  0  0  0
  -19.1691  -28.9015   23.2659 C   0  0  0  0  0  0
  -18.9584  -30.1584   23.8732 C   0  0  0  0  0  0
  -17.6553  -30.6631   24.0540 C   0  0  0  0  0  0
  -25.9204  -34.8976   23.4735 C   0  0  0  0  0  0
  -16.5445  -29.9083   23.6378 C   0  0  0  0  0  0
  -16.7387  -28.6515   23.0392 C   0  0  0  0  0  0
  -26.4737  -31.6368   25.0620 C   0  0  0  0  0  0
  -25.3569  -31.3918   26.1073 C   0  0  0  0  0  0
  -27.0818  -30.2635   24.7140 C   0  0  0  0  0  0
  -27.6014  -32.4441   25.7494 C   0  0  0  0  0  0
  -27.5529  -37.1599   24.8460 C   0  0  0  0  0  0
  -21.4688  -29.2926   22.3187 N   0  0  0  0  0  0
  -26.4223  -37.3428   23.9406 N   0  0  0  0  0  0
  -24.9103  -30.7505   22.0543 N   0  0  0  0  0  0
  -23.4142  -28.7535   23.3201 O   0  0  0  0  0  0
  -28.1865  -24.2644   20.3323 O   0  0  0  0  0  0
  -26.5969  -34.8731   22.4444 O   0  0  0  0  0  0
  -23.6519  -32.0373   23.5224 O   0  0  0  0  0  0
  -30.4914  -19.1868   21.4097 C   0  0  0  0  0  0
  -31.9905  -17.9466   20.8606 C   0  0  0  0  0  0
  -31.8249  -16.9609   19.0372 C   0  0  0  0  0  0
  -29.0522  -19.8774   20.2556 C   0  0  0  0  0  0
  -30.0293  -17.2939   18.0322 C   0  0  0  0  0  0
  -29.8353  -16.8035   16.6203 C   0  0  0  0  0  0
  -32.6482  -17.4723   23.2746 C   0  0  0  0  0  0
  -34.2825  -16.3090   18.8535 C   0  0  0  0  0  0
  -33.1252  -17.6231   21.8223 C   0  0  0  0  0  0
  -28.2013  -22.0491   20.2375 C   0  0  0  0  0  0
  -33.2341  -18.5563   18.0559 C   0  0  0  0  0  0
  -32.1446  -19.5138   18.7181 C   0  0  0  0  0  0
  -33.0641  -17.0193   18.2245 C   0  0  2  0  0  0
  -28.7405  -18.5951   18.8214 N   0  0  0  0  0  0
  -30.8448  -18.8928   19.2523 N   0  0  0  0  0  0
  -31.1840  -14.4407   18.8327 H   0  0  0  0  0  0
  -30.8293  -13.4759   20.1817 H   0  0  0  0  0  0
  -30.3017  -12.2506   18.0559 H   0  0  0  0  0  0
  -29.3805  -13.5985   17.4651 H   0  0  0  0  0  0
  -28.5472  -11.5760   19.5137 H   0  0  0  0  0  0
  -27.6737  -12.0649   18.0829 H   0  0  0  0  0  0
  -27.2957  -14.2175   18.9964 H   0  0  0  0  0  0
  -29.0869  -13.6827   21.4177 H   0  0  0  0  0  0
  -27.9487  -14.9625   21.3358 H   0  0  0  0  0  0
  -25.2893   -9.5677   22.4804 H   0  0  0  0  0  0
  -23.9992   -7.4729   22.7477 H   0  0  0  0  0  0
  -21.0973   -8.8869   19.9001 H   0  0  0  0  0  0
  -22.3849  -10.9723   19.6132 H   0  0  0  0  0  0
  -21.1906   -7.6137   23.9723 H   0  0  0  0  0  0
  -21.1494   -6.0533   25.9104 H   0  0  0  0  0  0
  -22.0599   -2.7597   23.2870 H   0  0  0  0  0  0
  -22.3962  -11.9865   22.4939 H   0  0  0  0  0  0
  -21.0968  -13.1123   22.2444 H   0  0  0  0  0  0
  -24.6074  -15.8786   20.5442 H   0  0  0  0  0  0
  -26.2343  -15.6759   20.1227 H   0  0  0  0  0  0
  -26.8001  -32.4260   23.0415 H   0  0  0  0  0  0
  -24.9899  -33.8705   24.9406 H   0  0  0  0  0  0
  -23.0077  -31.1099   21.1842 H   0  0  0  0  0  0
  -23.3797  -35.9214   23.3184 H   0  0  0  0  0  0
  -24.3542  -36.8789   22.2129 H   0  0  0  0  0  0
  -23.7255  -37.6005   23.6940 H   0  0  0  0  0  0
  -26.5317  -30.8129   20.6725 H   0  0  0  0  0  0
  -27.0525  -30.2247   22.1765 H   0  0  0  0  0  0
  -28.2137  -27.6073   21.4405 H   0  0  0  0  0  0
  -25.7717  -25.2064   18.9543 H   0  0  0  0  0  0
  -24.1901  -26.9603   18.8623 H   0  0  0  0  0  0
  -24.1573  -30.1722   19.3440 H   0  0  0  0  0  0
  -23.0169  -28.9476   19.7993 H   0  0  0  0  0  0
  -25.1441  -36.1156   25.0691 H   0  0  0  0  0  0
  -21.0159  -28.3564   24.1108 H   0  0  0  0  0  0
  -20.5580  -26.2503   23.3769 H   0  0  0  0  0  0
  -21.6648  -26.7209   22.1301 H   0  0  0  0  0  0
  -19.6907  -25.6206   21.1373 H   0  0  0  0  0  0
  -19.6768  -27.3053   20.6682 H   0  0  0  0  0  0
  -17.4257  -26.6766   21.4025 H   0  0  0  0  0  0
  -18.0332  -26.0165   22.9054 H   0  0  0  0  0  0
  -19.8063  -30.7452   24.2005 H   0  0  0  0  0  0
  -17.5112  -31.6300   24.5159 H   0  0  0  0  0  0
  -15.5448  -30.2938   23.7794 H   0  0  0  0  0  0
  -15.8790  -28.0793   22.7161 H   0  0  0  0  0  0
  -24.5783  -30.7295   25.7270 H   0  0  0  0  0  0
  -24.8783  -32.3242   26.4069 H   0  0  0  0  0  0
  -25.7533  -30.9277   27.0120 H   0  0  0  0  0  0
  -26.3665  -29.5943   24.2381 H   0  0  0  0  0  0
  -27.4158  -29.7455   25.6138 H   0  0  0  0  0  0
  -27.9660  -30.3588   24.0845 H   0  0  0  0  0  0
  -27.2420  -33.3877   26.1594 H   0  0  0  0  0  0
  -28.4061  -32.6798   25.0518 H   0  0  0  0  0  0
  -28.0426  -31.8917   26.5799 H   0  0  0  0  0  0
  -28.2446  -37.9984   24.7513 H   0  0  0  0  0  0
  -28.1128  -36.2496   24.6267 H   0  0  0  0  0  0
  -27.2249  -37.1159   25.8862 H   0  0  0  0  0  0
  -21.0160  -29.8401   21.5989 H   0  0  0  0  0  0
  -25.9951  -38.2420   24.1453 H   0  0  0  0  0  0
  -30.6531  -19.7200   22.3342 H   0  0  0  0  0  0
  -30.5465  -17.3181   15.9733 H   0  0  0  0  0  0
  -28.8333  -16.9958   16.2469 H   0  0  0  0  0  0
  -30.0585  -15.7377   16.5614 H   0  0  0  0  0  0
  -33.4334  -17.0232   23.8835 H   0  0  0  0  0  0
  -31.7812  -16.8146   23.3278 H   0  0  0  0  0  0
  -32.3723  -18.4319   23.7202 H   0  0  0  0  0  0
  -34.0390  -15.3026   19.2009 H   0  0  0  0  0  0
  -34.6920  -16.8572   19.6951 H   0  0  0  0  0  0
  -35.0942  -16.2307   18.1296 H   0  0  0  0  0  0
  -33.9177  -18.3593   21.7480 H   0  0  0  0  0  0
  -33.5432  -16.6646   21.5148 H   0  0  0  0  0  0
  -27.4241  -21.8862   20.9867 H   0  0  0  0  0  0
  -27.6717  -21.9603   19.2843 H   0  0  0  0  0  0
  -34.2131  -18.8518   18.4310 H   0  0  0  0  0  0
  -33.2650  -18.7738   16.9870 H   0  0  0  0  0  0
  -31.8732  -20.2821   17.9936 H   0  0  0  0  0  0
  -32.6113  -20.0695   19.5296 H   0  0  0  0  0  0
  -32.8656  -16.5582   17.2608 H   0  0  0  0  0  0
  -29.9873  -19.2103   18.7903 H   0  0  0  0  0  0
  1 25  1  0  0  0
  1 30  2  0  0  0
  1 85  1  0  0  0
  2  3  1  0  0  0
  2 25  1  0  0  0
  2 86  1  0  0  0
  2 87  1  0  0  0
  3  4  1  0  0  0
  3 88  1  0  0  0
  3 89  1  0  0  0
  4  5  1  0  0  0
  4 90  1  0  0  0
  4 91  1  0  0  0
  5  6  1  0  0  0
  5 26  1  0  0  0
  5 92  1  0  0  0
  6 25  1  0  0  0
  6 93  1  0  0  0
  6 94  1  0  0  0
  7  8  2  0  0  0
  7 26  1  0  0  0
  7 29  1  0  0  0
  8  9  1  0  0  0
  8 22  1  0  0  0
  9 10  1  0  0  0
  9 27  2  0  0  0
 10 11  2  0  0  0
 10 15  1  0  0  0
 11 12  1  0  0  0
 11 95  1  0  0  0
 12 13  2  0  0  0
 12 96  1  0  0  0
 13 14  1  0  0  0
 13 31  1  0  0  0
 14 15  2  0  0  0
 14 97  1  0  0  0
 15 98  1  0  0  0
 16 17  2  0  0  0
 16 21  1  0  0  0
 16 31  1  0  0  0
 17 18  1  0  0  0
 17 99  1  0  0  0
 18 19  2  0  0  0
 18100  1  0  0  0
 19 20  1  0  0  0
 19 24  1  0  0  0
 20 21  2  0  0  0
 20101  1  0  0  0
 21 23  1  0  0  0
 22 28  1  0  0  0
 22 32  2  0  0  0
 26 27  1  0  0  0
 28102  1  0  0  0
 28103  1  0  0  0
 29104  1  0  0  0
 29105  1  0  0  0
 33 34  1  0  0  0
 33 66  1  0  0  0
 33 70  2  0  0  0
 34 36  1  0  0  0
 34 59  1  0  0  0
 34106  1  0  0  0
 35 44  2  0  0  0
 35 45  1  0  0  0
 35 68  1  0  0  0
 36 56  1  0  0  0
 36107  1  0  0  0
 37 39  1  0  0  0
 37 47  1  0  0  0
 37 66  1  0  0  0
 37108  1  0  0  0
 38 43  2  0  0  0
 38 46  1  0  0  0
 38 47  1  0  0  0
 39 64  1  0  0  0
 39 67  2  0  0  0
 40 52  1  0  0  0
 40 53  2  0  0  0
 40 58  1  0  0  0
 41109  1  0  0  0
 41110  1  0  0  0
 41111  1  0  0  0
 41 48  1  0  0  0
 42 43  1  0  0  0
 42 66  1  0  0  0
 42112  1  0  0  0
 42113  1  0  0  0
 43 44  1  0  0  0
 44114  1  0  0  0
 45 46  2  0  0  0
 45115  1  0  0  0
 46116  1  0  0  0
 47117  1  0  0  0
 47118  1  0  0  0
 48 56  1  0  0  0
 48 65  1  0  0  0
 48119  1  0  0  0
 49 50  1  0  0  0
 49 53  1  0  0  0
 49 64  1  0  0  0
 49120  1  0  0  0
 50 51  1  0  0  0
 50121  1  0  0  0
 50122  1  0  0  0
 51 52  1  0  0  0
 51123  1  0  0  0
 51124  1  0  0  0
 52125  1  0  0  0
 52126  1  0  0  0
 53 54  1  0  0  0
 54 55  2  0  0  0
 54127  1  0  0  0
 55 57  1  0  0  0
 55128  1  0  0  0
 56 69  2  0  0  0
 57 58  2  0  0  0
 57129  1  0  0  0
 58130  1  0  0  0
 59 60  1  0  0  0
 59 61  1  0  0  0
 59 62  1  0  0  0
 60131  1  0  0  0
 60132  1  0  0  0
 60133  1  0  0  0
 61134  1  0  0  0
 61135  1  0  0  0
 61136  1  0  0  0
 62137  1  0  0  0
 62138  1  0  0  0
 62139  1  0  0  0
 63 65  1  0  0  0
 63140  1  0  0  0
 63141  1  0  0  0
 63142  1  0  0  0
 64143  1  0  0  0
 65144  1  0  0  0
 68 80  1  0  0  0
 71 72  2  0  0  0
 71 74  1  0  0  0
 71145  1  0  0  0
 72 73  1  0  0  0
 72 79  1  0  0  0
 73 75  2  0  0  0
 73 83  1  0  0  0
 74 80  1  0  0  0
 74 84  2  0  0  0
 75 76  1  0  0  0
 75 84  1  0  0  0
 76146  1  0  0  0
 76147  1  0  0  0
 76148  1  0  0  0
 77 79  1  0  0  0
 77149  1  0  0  0
 77150  1  0  0  0
 77151  1  0  0  0
 78152  1  0  0  0
 78153  1  0  0  0
 78154  1  0  0  0
 78 83  1  0  0  0
 79155  1  0  0  0
 79156  1  0  0  0
 80157  1  0  0  0
 80158  1  0  0  0
 81 82  1  0  0  0
 81 83  1  0  0  0
 81159  1  0  0  0
 81160  1  0  0  0
 82 85  1  0  0  0
 82161  1  0  0  0
 82162  1  0  0  0
 83163  1  0  0  0
 85164  1  0  0  0
M  ISO  4   1 100  68 101  80 101  85 100
M  END
> <chiral flag>
0

> <version>
0

> <s_m_source_file>
/data/baiqing/PycharmProjects/Reinvent-master-3.2/result/LINK_invent/BTK/process_docking_weight1_custom_sum_contain_oxygen_bond_distance_aromatic_linkinvent_7_9_3/rearranged_h_0078.sdf

> <i_m_source_file_index>
52

> <r_mmod_Potential_Energy-OPLS-2005>
18236.681640625

> <r_mmod_Stretch_Energy-OPLS-2005>
10326.927734375

> <r_mmod_Bend_Energy-OPLS-2005>
1311.3798828125

> <r_mmod_Torsional_Energy-OPLS-2005>
446.435424804688

> <r_mmod_Improper_Torsional_Energy-OPLS-2005>
114.972579956055

> <r_mmod_Van_der_Waal_Energy-OPLS-2005>
3005.09643554688

> <r_mmod_Electrostatic_Energy-OPLS-2005>
-509.517242431641

> <r_mmod_Solvation_Energy-OPLS-2005>
-208.140869140625

> <b_mmod_Minimization_Converged-OPLS-2005>
0

> <r_mmod_RMS_Derivative-OPLS-2005>
16.1373252868652

$$$$
52
                    3D
 Structure written by MMmdl.
163171  0  0  1  0            999 V2000
  -30.5981  -14.7172   20.5009 C   0  0  0  0  0  0
  -30.4361  -12.4491   19.4601 C   0  0  0  0  0  0
  -29.5146  -12.5222   18.2227 C   0  0  0  0  0  0
  -28.0336  -12.3498   18.6239 C   0  0  0  0  0  0
  -27.6417  -13.2251   19.8461 C   0  0  2  0  0  0
  -28.6817  -13.1247   20.9793 C   0  0  0  0  0  0
  -25.2526  -13.8177   20.5631 C   0  0  0  0  0  0
  -24.1807  -13.0440   20.9163 C   0  0  0  0  0  0
  -24.6373  -11.6912   20.8706 C   0  0  0  0  0  0
  -23.9047  -10.4303   21.0381 C   0  0  0  0  0  0
  -24.3609   -9.4221   21.9148 C   0  0  0  0  0  0
  -23.6308   -8.2243   22.0722 C   0  0  0  0  0  0
  -22.4287   -8.0274   21.3521 C   0  0  0  0  0  0
  -21.9921   -9.0225   20.4614 C   0  0  0  0  0  0
  -22.7221  -10.2121   20.3020 C   0  0  0  0  0  0
  -21.6857   -6.0738   22.5274 C   0  0  0  0  0  0
  -21.4005   -6.5631   23.8198 C   0  0  0  0  0  0
  -21.3654   -5.6778   24.9155 C   0  0  0  0  0  0
  -21.6055   -4.3048   24.7202 C   0  0  0  0  0  0
  -21.8817   -3.8146   23.4321 C   0  0  0  0  0  0
  -21.9183   -4.6969   22.3386 C   0  0  0  0  0  0
  -22.7818  -13.5228   21.1822 C   0  0  0  0  0  0
  -22.1659   -4.2149   21.0969 F   0  0  0  0  0  0
  -21.5640   -3.4531   25.7718 F   0  0  0  0  0  0
  -29.9823  -13.4909   20.4076 N   0  0  0  0  0  0
  -26.2930  -12.9362   20.3181 N   0  0  0  0  0  0
  -25.9299  -11.6513   20.5655 N   0  0  0  0  0  0
  -22.0465  -12.8216   22.0389 N   0  0  0  0  0  0
  -25.4282  -15.1894   20.4065 N   0  0  0  0  0  0
  -31.7854  -14.8418   20.1908 O   0  0  0  0  0  0
  -21.6644   -6.8885   21.4237 O   0  0  0  0  0  0
  -22.3496  -14.5513   20.6656 O   0  0  0  0  0  0
  -24.6312  -31.8573   23.1967 C   0  0  0  0  0  0
  -25.9147  -32.4757   23.8312 C   0  0  1  0  0  0
  -27.2103  -27.2560   20.1378 C   0  0  0  0  0  0
  -25.5944  -33.8554   24.2236 N   0  0  0  0  0  0
  -23.4255  -30.4809   21.5413 C   0  0  2  0  0  0
  -24.8715  -28.9310   20.1044 C   0  0  0  0  0  0
  -22.7505  -29.4615   22.4903 C   0  0  0  0  0  0
  -18.0292  -28.1390   22.8475 C   0  0  0  0  0  0
  -24.1493  -36.7287   23.2642 C   0  0  0  0  0  0
  -25.9709  -30.7693   21.3793 C   0  0  0  0  0  0
  -26.0399  -29.3912   20.7236 C   0  0  0  0  0  0
  -27.2079  -28.5630   20.7349 C   0  0  0  0  0  0
  -26.0252  -26.8794   19.4630 C   0  0  0  0  0  0
  -24.8716  -27.6857   19.4617 C   0  0  0  0  0  0
  -23.6424  -29.8181   20.1552 C   0  0  0  0  0  0
  -25.4117  -36.3066   24.0325 C   0  0  1  0  0  0
  -20.5896  -28.3705   23.1274 C   0  0  2  0  0  0
  -20.6783  -26.9425   22.5414 C   0  0  0  0  0  0
  -19.5755  -26.6386   21.5215 C   0  0  0  0  0  0
  -18.1927  -26.7935   22.1620 C   0  0  0  0  0  0
  -19.1541  -28.8862   23.2867 C   0  0  0  0  0  0
  -18.9468  -30.1462   23.8875 C   0  0  0  0  0  0
  -17.6464  -30.6596   24.0553 C   0  0  0  0  0  0
  -25.9063  -34.9440   23.5081 C   0  0  0  0  0  0
  -16.5355  -29.9088   23.6333 C   0  0  0  0  0  0
  -16.7273  -28.6514   23.0341 C   0  0  0  0  0  0
  -26.4490  -31.6586   25.0710 C   0  0  0  0  0  0
  -25.3698  -31.3773   26.1424 C   0  0  0  0  0  0
  -27.0346  -30.2996   24.6222 C   0  0  0  0  0  0
  -27.6032  -32.4334   25.7501 C   0  0  0  0  0  0
  -27.5576  -37.1803   24.8461 C   0  0  0  0  0  0
  -21.4213  -29.3049   22.3666 N   0  0  0  0  0  0
  -26.4285  -37.3769   23.9409 N   0  0  0  0  0  0
  -24.6942  -31.0551   22.0945 N   0  0  0  0  0  0
  -23.4223  -28.8162   23.2995 O   0  0  0  0  0  0
  -28.3051  -26.3640   20.2538 O   0  0  0  0  0  0
  -26.5629  -34.8927   22.4646 O   0  0  0  0  0  0
  -23.5466  -32.1384   23.7284 O   0  0  0  0  0  0
  -29.5136  -21.6942   22.8787 C   0  0  0  0  0  0
  -29.7325  -20.6523   23.7298 C   0  0  0  0  0  0
  -29.4104  -19.8036   21.6661 C   0  0  0  0  0  0
  -29.9770  -20.6317   25.2032 C   0  0  0  0  0  0
  -29.2622  -18.9106   19.2505 C   0  0  0  0  0  0
  -28.8722  -24.7939   18.5076 C   0  0  0  0  0  0
  -28.8233  -23.7816   20.8784 C   0  0  0  0  0  0
  -28.8583  -22.1861   20.5026 C   0  0  0  0  0  0
  -30.2316  -17.2710   21.0359 C   0  0  0  0  0  0
  -29.2454  -18.5389   20.7372 C   0  0  1  0  0  0
  -28.2193  -24.9024   19.8887 C   0  0  1  0  0  0
  -29.2541  -21.1985   21.6165 N   0  0  0  0  0  0
  -29.6488  -19.5333   22.9589 N   0  3  0  0  0  0
  -29.8117  -15.8245   20.7752 N   0  0  0  0  0  0
  -31.4781  -12.5874   19.1661 H   0  0  0  0  0  0
  -30.3858  -11.4620   19.9217 H   0  0  0  0  0  0
  -29.8028  -11.7656   17.4920 H   0  0  0  0  0  0
  -29.6449  -13.4861   17.7271 H   0  0  0  0  0  0
  -27.8685  -11.2972   18.8519 H   0  0  0  0  0  0
  -27.3884  -12.5771   17.7742 H   0  0  0  0  0  0
  -27.6487  -14.2545   19.4872 H   0  0  0  0  0  0
  -28.7100  -12.1144   21.3890 H   0  0  0  0  0  0
  -28.4134  -13.7785   21.8114 H   0  0  0  0  0  0
  -25.2767   -9.5696   22.4697 H   0  0  0  0  0  0
  -24.0032   -7.4619   22.7415 H   0  0  0  0  0  0
  -21.0862   -8.8722   19.8891 H   0  0  0  0  0  0
  -22.3690  -10.9638   19.6108 H   0  0  0  0  0  0
  -21.2006   -7.6142   23.9693 H   0  0  0  0  0  0
  -21.1485   -6.0513   25.9050 H   0  0  0  0  0  0
  -22.0616   -2.7611   23.2800 H   0  0  0  0  0  0
  -22.4141  -11.9959   22.4899 H   0  0  0  0  0  0
  -21.1011  -13.1127   22.2454 H   0  0  0  0  0  0
  -24.6669  -15.8511   20.5059 H   0  0  0  0  0  0
  -26.2711  -15.6123   20.0401 H   0  0  0  0  0  0
  -26.7215  -32.5414   23.1060 H   0  0  0  0  0  0
  -25.0091  -33.9675   25.0382 H   0  0  0  0  0  0
  -22.7208  -31.3031   21.3983 H   0  0  0  0  0  0
  -23.3753  -35.9623   23.3298 H   0  0  0  0  0  0
  -24.3590  -36.8919   22.2062 H   0  0  0  0  0  0
  -23.7259  -37.6490   23.6671 H   0  0  0  0  0  0
  -26.1117  -31.5289   20.6083 H   0  0  0  0  0  0
  -26.8477  -30.8175   22.0134 H   0  0  0  0  0  0
  -28.0947  -28.9034   21.2517 H   0  0  0  0  0  0
  -25.9447  -25.9428   18.9359 H   0  0  0  0  0  0
  -23.9806  -27.3376   18.9577 H   0  0  0  0  0  0
  -23.7666  -30.5941   19.3988 H   0  0  0  0  0  0
  -22.7594  -29.2528   19.8520 H   0  0  0  0  0  0
  -25.1302  -36.1897   25.0815 H   0  0  0  0  0  0
  -20.9964  -28.3279   24.1404 H   0  0  0  0  0  0
  -20.5694  -26.2308   23.3620 H   0  0  0  0  0  0
  -21.6650  -26.7466   22.1201 H   0  0  0  0  0  0
  -19.6918  -25.6292   21.1253 H   0  0  0  0  0  0
  -19.6687  -27.3186   20.6735 H   0  0  0  0  0  0
  -17.4206  -26.6675   21.4013 H   0  0  0  0  0  0
  -18.0324  -26.0088   22.9023 H   0  0  0  0  0  0
  -19.7944  -30.7275   24.2239 H   0  0  0  0  0  0
  -17.5030  -31.6273   24.5166 H   0  0  0  0  0  0
  -15.5355  -30.2977   23.7692 H   0  0  0  0  0  0
  -15.8680  -28.0841   22.7043 H   0  0  0  0  0  0
  -24.5851  -30.7142   25.7756 H   0  0  0  0  0  0
  -24.8904  -32.2961   26.4810 H   0  0  0  0  0  0
  -25.7983  -30.8968   27.0224 H   0  0  0  0  0  0
  -26.2936  -29.6742   24.1215 H   0  0  0  0  0  0
  -27.3984  -29.7270   25.4765 H   0  0  0  0  0  0
  -27.8831  -30.4265   23.9495 H   0  0  0  0  0  0
  -27.2610  -33.3636   26.2052 H   0  0  0  0  0  0
  -28.3853  -32.6891   25.0341 H   0  0  0  0  0  0
  -28.0675  -31.8474   26.5445 H   0  0  0  0  0  0
  -28.2587  -38.0104   24.7507 H   0  0  0  0  0  0
  -28.1070  -36.2634   24.6269 H   0  0  0  0  0  0
  -27.2298  -37.1444   25.8865 H   0  0  0  0  0  0
  -20.9405  -29.8775   21.6871 H   0  0  0  0  0  0
  -26.0158  -38.2847   24.1376 H   0  0  0  0  0  0
  -29.4936  -22.7456   23.1220 H   0  0  0  0  0  0
  -29.0852  -20.9771   25.7265 H   0  0  0  0  0  0
  -30.8045  -21.2954   25.4529 H   0  0  0  0  0  0
  -30.2159  -19.6276   25.5528 H   0  0  0  0  0  0
  -28.4754  -19.6271   19.0129 H   0  0  0  0  0  0
  -29.1035  -18.0285   18.6299 H   0  0  0  0  0  0
  -30.2173  -19.3529   18.9653 H   0  0  0  0  0  0
  -28.7998  -23.7817   18.1092 H   0  0  0  0  0  0
  -29.9288  -25.0542   18.5645 H   0  0  0  0  0  0
  -28.3942  -25.4659   17.7939 H   0  0  0  0  0  0
  -29.8375  -24.0823   21.1456 H   0  0  0  0  0  0
  -28.2300  -23.8888   21.7866 H   0  0  0  0  0  0
  -29.5553  -22.0235   19.6801 H   0  0  0  0  0  0
  -27.8750  -21.8795   20.1454 H   0  0  0  0  0  0
  -30.4813  -17.2689   22.0965 H   0  0  0  0  0  0
  -31.1840  -17.4586   20.5383 H   0  0  0  0  0  0
  -28.2341  -18.2011   20.9671 H   0  0  0  0  0  0
  -27.1817  -24.5964   19.8002 H   0  0  0  0  0  0
  -29.7324  -18.5903   23.3228 H   0  0  0  0  0  0
  -28.8371  -15.6156   20.9325 H   0  0  0  0  0  0
  1 25  1  0  0  0
  1 30  2  0  0  0
  1 84  1  0  0  0
  2  3  1  0  0  0
  2 25  1  0  0  0
  2 85  1  0  0  0
  2 86  1  0  0  0
  3  4  1  0  0  0
  3 87  1  0  0  0
  3 88  1  0  0  0
  4  5  1  0  0  0
  4 89  1  0  0  0
  4 90  1  0  0  0
  5  6  1  0  0  0
  5 26  1  0  0  0
  5 91  1  0  0  0
  6 25  1  0  0  0
  6 92  1  0  0  0
  6 93  1  0  0  0
  7  8  2  0  0  0
  7 26  1  0  0  0
  7 29  1  0  0  0
  8  9  1  0  0  0
  8 22  1  0  0  0
  9 10  1  0  0  0
  9 27  2  0  0  0
 10 11  2  0  0  0
 10 15  1  0  0  0
 11 12  1  0  0  0
 11 94  1  0  0  0
 12 13  2  0  0  0
 12 95  1  0  0  0
 13 14  1  0  0  0
 13 31  1  0  0  0
 14 15  2  0  0  0
 14 96  1  0  0  0
 15 97  1  0  0  0
 16 17  2  0  0  0
 16 21  1  0  0  0
 16 31  1  0  0  0
 17 18  1  0  0  0
 17 98  1  0  0  0
 18 19  2  0  0  0
 18 99  1  0  0  0
 19 20  1  0  0  0
 19 24  1  0  0  0
 20 21  2  0  0  0
 20100  1  0  0  0
 21 23  1  0  0  0
 22 28  1  0  0  0
 22 32  2  0  0  0
 26 27  1  0  0  0
 28101  1  0  0  0
 28102  1  0  0  0
 29103  1  0  0  0
 29104  1  0  0  0
 33 34  1  0  0  0
 33 66  1  0  0  0
 33 70  2  0  0  0
 34 36  1  0  0  0
 34 59  1  0  0  0
 34105  1  0  0  0
 35 44  2  0  0  0
 35 45  1  0  0  0
 35 68  1  0  0  0
 36 56  1  0  0  0
 36106  1  0  0  0
 37 39  1  0  0  0
 37 47  1  0  0  0
 37 66  1  0  0  0
 37107  1  0  0  0
 38 43  2  0  0  0
 38 46  1  0  0  0
 38 47  1  0  0  0
 39 64  1  0  0  0
 39 67  2  0  0  0
 40 52  1  0  0  0
 40 53  2  0  0  0
 40 58  1  0  0  0
 41108  1  0  0  0
 41109  1  0  0  0
 41110  1  0  0  0
 41 48  1  0  0  0
 42 43  1  0  0  0
 42 66  1  0  0  0
 42111  1  0  0  0
 42112  1  0  0  0
 43 44  1  0  0  0
 44113  1  0  0  0
 45 46  2  0  0  0
 45114  1  0  0  0
 46115  1  0  0  0
 47116  1  0  0  0
 47117  1  0  0  0
 48 56  1  0  0  0
 48 65  1  0  0  0
 48118  1  0  0  0
 49 50  1  0  0  0
 49 53  1  0  0  0
 49 64  1  0  0  0
 49119  1  0  0  0
 50 51  1  0  0  0
 50120  1  0  0  0
 50121  1  0  0  0
 51 52  1  0  0  0
 51122  1  0  0  0
 51123  1  0  0  0
 52124  1  0  0  0
 52125  1  0  0  0
 53 54  1  0  0  0
 54 55  2  0  0  0
 54126  1  0  0  0
 55 57  1  0  0  0
 55127  1  0  0  0
 56 69  2  0  0  0
 57 58  2  0  0  0
 57128  1  0  0  0
 58129  1  0  0  0
 59 60  1  0  0  0
 59 61  1  0  0  0
 59 62  1  0  0  0
 60130  1  0  0  0
 60131  1  0  0  0
 60132  1  0  0  0
 61133  1  0  0  0
 61134  1  0  0  0
 61135  1  0  0  0
 62136  1  0  0  0
 62137  1  0  0  0
 62138  1  0  0  0
 63 65  1  0  0  0
 63139  1  0  0  0
 63140  1  0  0  0
 63141  1  0  0  0
 64142  1  0  0  0
 65143  1  0  0  0
 68 81  1  0  0  0
 71 72  2  0  0  0
 71 82  1  0  0  0
 71144  1  0  0  0
 72 74  1  0  0  0
 72 83  1  0  0  0
 73 80  1  0  0  0
 73 82  1  0  0  0
 73 83  2  0  0  0
 74145  1  0  0  0
 74146  1  0  0  0
 74147  1  0  0  0
 75148  1  0  0  0
 75149  1  0  0  0
 75150  1  0  0  0
 75 80  1  0  0  0
 76151  1  0  0  0
 76152  1  0  0  0
 76153  1  0  0  0
 76 81  1  0  0  0
 77 78  1  0  0  0
 77 81  1  0  0  0
 77154  1  0  0  0
 77155  1  0  0  0
 78 82  1  0  0  0
 78156  1  0  0  0
 78157  1  0  0  0
 79 80  1  0  0  0
 79 84  1  0  0  0
 79158  1  0  0  0
 79159  1  0  0  0
 80160  1  0  0  0
 81161  1  0  0  0
 83162  1  0  0  0
 84163  1  0  0  0
M  CHG  1  83   1
M  ISO  4   1 100  68 101  81 101  84 100
M  END
> <chiral flag>
0

> <version>
0

> <s_m_source_file>
/data/baiqing/PycharmProjects/Reinvent-master-3.2/result/LINK_invent/BTK/process_docking_weight1_custom_sum_contain_oxygen_bond_distance_aromatic_linkinvent_7_9_3/rearranged_h_0078.sdf

> <i_m_source_file_index>
53

> <r_mmod_Potential_Energy-OPLS-2005>
136.323776245117

> <r_mmod_Stretch_Energy-OPLS-2005>
132.21501159668

> <r_mmod_Bend_Energy-OPLS-2005>
198.847015380859

> <r_mmod_Torsional_Energy-OPLS-2005>
237.815536499023

> <r_mmod_Improper_Torsional_Energy-OPLS-2005>
4.42433452606201

> <r_mmod_Van_der_Waal_Energy-OPLS-2005>
119.552360534668

> <r_mmod_Electrostatic_Energy-OPLS-2005>
-214.959732055664

> <r_mmod_Solvation_Energy-OPLS-2005>
-424.695739746094

> <b_mmod_Minimization_Converged-OPLS-2005>
0

> <r_mmod_RMS_Derivative-OPLS-2005>
2.75719261169434

$$$$
53
                    3D
 Structure written by MMmdl.
163171  0  0  1  0            999 V2000
  -30.6327  -14.5609   20.5447 C   0  0  0  0  0  0
  -30.4379  -12.3474   19.4474 C   0  0  0  0  0  0
  -29.5112  -12.5256   18.2230 C   0  0  0  0  0  0
  -28.0282  -12.3780   18.6228 C   0  0  0  0  0  0
  -27.6628  -13.2122   19.8802 C   0  0  2  0  0  0
  -28.7026  -12.9997   21.0053 C   0  0  0  0  0  0
  -25.2576  -13.8154   20.5680 C   0  0  0  0  0  0
  -24.1832  -13.0425   20.9179 C   0  0  0  0  0  0
  -24.6392  -11.6897   20.8724 C   0  0  0  0  0  0
  -23.9066  -10.4285   21.0393 C   0  0  0  0  0  0
  -24.3619   -9.4203   21.9174 C   0  0  0  0  0  0
  -23.6294   -8.2241   22.0750 C   0  0  0  0  0  0
  -22.4273   -8.0279   21.3546 C   0  0  0  0  0  0
  -21.9904   -9.0249   20.4644 C   0  0  0  0  0  0
  -22.7233  -10.2128   20.3047 C   0  0  0  0  0  0
  -21.6854   -6.0739   22.5284 C   0  0  0  0  0  0
  -21.4014   -6.5642   23.8218 C   0  0  0  0  0  0
  -21.3661   -5.6790   24.9179 C   0  0  0  0  0  0
  -21.6048   -4.3053   24.7228 C   0  0  0  0  0  0
  -21.8817   -3.8149   23.4348 C   0  0  0  0  0  0
  -21.9188   -4.6967   22.3406 C   0  0  0  0  0  0
  -22.7852  -13.5219   21.1851 C   0  0  0  0  0  0
  -22.1655   -4.2161   21.0981 F   0  0  0  0  0  0
  -21.5629   -3.4528   25.7736 F   0  0  0  0  0  0
  -30.0327  -13.3353   20.4659 N   0  0  0  0  0  0
  -26.3023  -12.9338   20.3364 N   0  0  0  0  0  0
  -25.9326  -11.6495   20.5756 N   0  0  0  0  0  0
  -22.0486  -12.8232   22.0408 N   0  0  0  0  0  0
  -25.4290  -15.1883   20.4115 N   0  0  0  0  0  0
  -31.7414  -14.7896   20.0540 O   0  0  0  0  0  0
  -21.6641   -6.8879   21.4245 O   0  0  0  0  0  0
  -22.3544  -14.5515   20.6674 O   0  0  0  0  0  0
  -24.6173  -31.8626   23.2026 C   0  0  0  0  0  0
  -25.9058  -32.4797   23.8330 C   0  0  1  0  0  0
  -27.2477  -27.3979   20.0816 C   0  0  0  0  0  0
  -25.5883  -33.8594   24.2259 N   0  0  0  0  0  0
  -23.4088  -30.4832   21.5445 C   0  0  2  0  0  0
  -24.8555  -28.9362   20.1140 C   0  0  0  0  0  0
  -22.7430  -29.4625   22.4954 C   0  0  0  0  0  0
  -18.0270  -28.1407   22.8452 C   0  0  0  0  0  0
  -24.1494  -36.7322   23.2636 C   0  0  0  0  0  0
  -25.9414  -30.8123   21.3624 C   0  0  0  0  0  0
  -26.0162  -29.4435   20.7081 C   0  0  0  0  0  0
  -27.2097  -28.6822   20.6872 C   0  0  0  0  0  0
  -26.0625  -26.9079   19.4874 C   0  0  0  0  0  0
  -24.8750  -27.6692   19.5026 C   0  0  0  0  0  0
  -23.6185  -29.8083   20.1625 C   0  0  0  0  0  0
  -25.4122  -36.3108   24.0321 C   0  0  1  0  0  0
  -20.5861  -28.3686   23.1308 C   0  0  2  0  0  0
  -20.6774  -26.9411   22.5434 C   0  0  0  0  0  0
  -19.5757  -26.6392   21.5226 C   0  0  0  0  0  0
  -18.1922  -26.7948   22.1606 C   0  0  0  0  0  0
  -19.1517  -28.8857   23.2874 C   0  0  0  0  0  0
  -18.9454  -30.1457   23.8896 C   0  0  0  0  0  0
  -17.6457  -30.6596   24.0560 C   0  0  0  0  0  0
  -25.9046  -34.9465   23.5105 C   0  0  0  0  0  0
  -16.5341  -29.9106   23.6330 C   0  0  0  0  0  0
  -16.7255  -28.6535   23.0321 C   0  0  0  0  0  0
  -26.4462  -31.6604   25.0697 C   0  0  0  0  0  0
  -25.3711  -31.3766   26.1448 C   0  0  0  0  0  0
  -27.0279  -30.3021   24.6134 C   0  0  0  0  0  0
  -27.6037  -32.4333   25.7446 C   0  0  0  0  0  0
  -27.5594  -37.1809   24.8456 C   0  0  0  0  0  0
  -21.4152  -29.3039   22.3712 N   0  0  0  0  0  0
  -26.4307  -37.3798   23.9402 N   0  0  0  0  0  0
  -24.6747  -31.0692   22.0941 N   0  0  0  0  0  0
  -23.4186  -28.8184   23.3032 O   0  0  0  0  0  0
  -28.4408  -26.6883   20.0987 O   0  0  0  0  0  0
  -26.5642  -34.8925   22.4684 O   0  0  0  0  0  0
  -23.5370  -32.1393   23.7405 O   0  0  0  0  0  0
  -28.1498  -20.3544   23.1890 C   0  0  0  0  0  0
  -28.0171  -21.5447   22.4508 C   0  0  0  0  0  0
  -28.6939  -21.5753   21.1916 C   0  0  0  0  0  0
  -29.4542  -19.3809   21.5885 C   0  0  0  0  0  0
  -28.0939  -23.4932   24.0703 C   0  0  0  0  0  0
  -25.9116  -22.2501   23.7880 C   0  0  0  0  0  0
  -28.7827  -22.7770   20.1875 C   0  0  0  0  0  0
  -30.3396  -18.1479   21.2369 C   0  0  0  0  0  0
  -28.1844  -24.1988   20.4961 C   0  0  0  0  0  0
  -29.6514  -16.9479   20.4933 C   0  0  0  0  0  0
  -28.5801  -25.3584   19.5348 C   0  0  0  0  0  0
  -27.2170  -22.6890   23.0951 C   0  0  0  0  0  0
  -28.8450  -19.2926   22.7590 N   0  0  0  0  0  0
  -29.3953  -20.4660   20.7936 N   0  0  0  0  0  0
  -29.8360  -15.5555   21.0139 N   0  0  0  0  0  0
  -31.4823  -12.4655   19.1543 H   0  0  0  0  0  0
  -30.3519  -11.3342   19.8464 H   0  0  0  0  0  0
  -29.7642  -11.8016   17.4479 H   0  0  0  0  0  0
  -29.6728  -13.5112   17.7821 H   0  0  0  0  0  0
  -27.8340  -11.3195   18.8050 H   0  0  0  0  0  0
  -27.3878  -12.6661   17.7889 H   0  0  0  0  0  0
  -27.6998  -14.2611   19.5840 H   0  0  0  0  0  0
  -28.6896  -11.9593   21.3314 H   0  0  0  0  0  0
  -28.4530  -13.5841   21.8927 H   0  0  0  0  0  0
  -25.2767   -9.5675   22.4750 H   0  0  0  0  0  0
  -24.0006   -7.4627   22.7452 H   0  0  0  0  0  0
  -21.0842   -8.8747   19.8956 H   0  0  0  0  0  0
  -22.3673  -10.9660   19.6155 H   0  0  0  0  0  0
  -21.2004   -7.6150   23.9725 H   0  0  0  0  0  0
  -21.1492   -6.0523   25.9083 H   0  0  0  0  0  0
  -22.0597   -2.7615   23.2840 H   0  0  0  0  0  0
  -22.4102  -11.9912   22.4841 H   0  0  0  0  0  0
  -21.1094  -13.1264   22.2579 H   0  0  0  0  0  0
  -24.6613  -15.8418   20.5198 H   0  0  0  0  0  0
  -26.2817  -15.6286   20.0899 H   0  0  0  0  0  0
  -26.7112  -32.5464   23.1062 H   0  0  0  0  0  0
  -24.9994  -33.9747   25.0379 H   0  0  0  0  0  0
  -22.6994  -31.3006   21.4004 H   0  0  0  0  0  0
  -23.3756  -35.9653   23.3307 H   0  0  0  0  0  0
  -24.3586  -36.8960   22.2053 H   0  0  0  0  0  0
  -23.7253  -37.6524   23.6664 H   0  0  0  0  0  0
  -26.0725  -31.5735   20.5937 H   0  0  0  0  0  0
  -26.8242  -30.8582   21.9900 H   0  0  0  0  0  0
  -28.1073  -29.0773   21.1433 H   0  0  0  0  0  0
  -26.0356  -25.9402   19.0079 H   0  0  0  0  0  0
  -23.9809  -27.2728   19.0411 H   0  0  0  0  0  0
  -23.7283  -30.5801   19.3998 H   0  0  0  0  0  0
  -22.7418  -29.2312   19.8650 H   0  0  0  0  0  0
  -25.1309  -36.1965   25.0819 H   0  0  0  0  0  0
  -20.9923  -28.3262   24.1440 H   0  0  0  0  0  0
  -20.5712  -26.2275   23.3619 H   0  0  0  0  0  0
  -21.6639  -26.7478   22.1202 H   0  0  0  0  0  0
  -19.6928  -25.6318   21.1233 H   0  0  0  0  0  0
  -19.6727  -27.3213   20.6769 H   0  0  0  0  0  0
  -17.4209  -26.6664   21.3998 H   0  0  0  0  0  0
  -18.0306  -26.0122   22.9031 H   0  0  0  0  0  0
  -19.7934  -30.7258   24.2267 H   0  0  0  0  0  0
  -17.5024  -31.6269   24.5185 H   0  0  0  0  0  0
  -15.5348  -30.3012   23.7685 H   0  0  0  0  0  0
  -15.8644  -28.0876   22.7028 H   0  0  0  0  0  0
  -24.5795  -30.7228   25.7773 H   0  0  0  0  0  0
  -24.9004  -32.2957   26.4940 H   0  0  0  0  0  0
  -25.8013  -30.8850   27.0178 H   0  0  0  0  0  0
  -26.2825  -29.6785   24.1178 H   0  0  0  0  0  0
  -27.4010  -29.7276   25.4625 H   0  0  0  0  0  0
  -27.8683  -30.4324   23.9314 H   0  0  0  0  0  0
  -27.2651  -33.3618   26.2048 H   0  0  0  0  0  0
  -28.3802  -32.6927   25.0242 H   0  0  0  0  0  0
  -28.0741  -31.8446   26.5333 H   0  0  0  0  0  0
  -28.2620  -38.0101   24.7518 H   0  0  0  0  0  0
  -28.1086  -36.2639   24.6259 H   0  0  0  0  0  0
  -27.2313  -37.1445   25.8859 H   0  0  0  0  0  0
  -20.9333  -29.8754   21.6910 H   0  0  0  0  0  0
  -26.0199  -38.2881   24.1388 H   0  0  0  0  0  0
  -27.7182  -20.2502   24.1721 H   0  0  0  0  0  0
  -29.0197  -23.8340   23.6074 H   0  0  0  0  0  0
  -28.3716  -22.8968   24.9394 H   0  0  0  0  0  0
  -27.5696  -24.3782   24.4339 H   0  0  0  0  0  0
  -25.2454  -21.7312   23.0987 H   0  0  0  0  0  0
  -25.3653  -23.1239   24.1481 H   0  0  0  0  0  0
  -26.0708  -21.6088   24.6540 H   0  0  0  0  0  0
  -28.3627  -22.4385   19.2396 H   0  0  0  0  0  0
  -29.8462  -22.9146   19.9936 H   0  0  0  0  0  0
  -30.7900  -17.7894   22.1634 H   0  0  0  0  0  0
  -31.1814  -18.4981   20.6395 H   0  0  0  0  0  0
  -28.5039  -24.5053   21.4888 H   0  0  0  0  0  0
  -27.0966  -24.1431   20.4775 H   0  0  0  0  0  0
  -29.9152  -16.9839   19.4355 H   0  0  0  0  0  0
  -28.5759  -17.1262   20.5191 H   0  0  0  0  0  0
  -28.0811  -25.2641   18.5703 H   0  0  0  0  0  0
  -29.6415  -25.2582   19.3075 H   0  0  0  0  0  0
  -26.8365  -23.3454   22.3329 H   0  0  0  0  0  0
  -29.0255  -15.1971   21.4979 H   0  0  0  0  0  0
  1 25  1  0  0  0
  1 30  2  0  0  0
  1 85  1  0  0  0
  2  3  1  0  0  0
  2 25  1  0  0  0
  2 86  1  0  0  0
  2 87  1  0  0  0
  3  4  1  0  0  0
  3 88  1  0  0  0
  3 89  1  0  0  0
  4  5  1  0  0  0
  4 90  1  0  0  0
  4 91  1  0  0  0
  5  6  1  0  0  0
  5 26  1  0  0  0
  5 92  1  0  0  0
  6 25  1  0  0  0
  6 93  1  0  0  0
  6 94  1  0  0  0
  7  8  2  0  0  0
  7 26  1  0  0  0
  7 29  1  0  0  0
  8  9  1  0  0  0
  8 22  1  0  0  0
  9 10  1  0  0  0
  9 27  2  0  0  0
 10 11  2  0  0  0
 10 15  1  0  0  0
 11 12  1  0  0  0
 11 95  1  0  0  0
 12 13  2  0  0  0
 12 96  1  0  0  0
 13 14  1  0  0  0
 13 31  1  0  0  0
 14 15  2  0  0  0
 14 97  1  0  0  0
 15 98  1  0  0  0
 16 17  2  0  0  0
 16 21  1  0  0  0
 16 31  1  0  0  0
 17 18  1  0  0  0
 17 99  1  0  0  0
 18 19  2  0  0  0
 18100  1  0  0  0
 19 20  1  0  0  0
 19 24  1  0  0  0
 20 21  2  0  0  0
 20101  1  0  0  0
 21 23  1  0  0  0
 22 28  1  0  0  0
 22 32  2  0  0  0
 26 27  1  0  0  0
 28102  1  0  0  0
 28103  1  0  0  0
 29104  1  0  0  0
 29105  1  0  0  0
 33 34  1  0  0  0
 33 66  1  0  0  0
 33 70  2  0  0  0
 34 36  1  0  0  0
 34 59  1  0  0  0
 34106  1  0  0  0
 35 44  2  0  0  0
 35 45  1  0  0  0
 35 68  1  0  0  0
 36 56  1  0  0  0
 36107  1  0  0  0
 37 39  1  0  0  0
 37 47  1  0  0  0
 37 66  1  0  0  0
 37108  1  0  0  0
 38 43  2  0  0  0
 38 46  1  0  0  0
 38 47  1  0  0  0
 39 64  1  0  0  0
 39 67  2  0  0  0
 40 52  1  0  0  0
 40 53  2  0  0  0
 40 58  1  0  0  0
 41109  1  0  0  0
 41110  1  0  0  0
 41111  1  0  0  0
 41 48  1  0  0  0
 42 43  1  0  0  0
 42 66  1  0  0  0
 42112  1  0  0  0
 42113  1  0  0  0
 43 44  1  0  0  0
 44114  1  0  0  0
 45 46  2  0  0  0
 45115  1  0  0  0
 46116  1  0  0  0
 47117  1  0  0  0
 47118  1  0  0  0
 48 56  1  0  0  0
 48 65  1  0  0  0
 48119  1  0  0  0
 49 50  1  0  0  0
 49 53  1  0  0  0
 49 64  1  0  0  0
 49120  1  0  0  0
 50 51  1  0  0  0
 50121  1  0  0  0
 50122  1  0  0  0
 51 52  1  0  0  0
 51123  1  0  0  0
 51124  1  0  0  0
 52125  1  0  0  0
 52126  1  0  0  0
 53 54  1  0  0  0
 54 55  2  0  0  0
 54127  1  0  0  0
 55 57  1  0  0  0
 55128  1  0  0  0
 56 69  2  0  0  0
 57 58  2  0  0  0
 57129  1  0  0  0
 58130  1  0  0  0
 59 60  1  0  0  0
 59 61  1  0  0  0
 59 62  1  0  0  0
 60131  1  0  0  0
 60132  1  0  0  0
 60133  1  0  0  0
 61134  1  0  0  0
 61135  1  0  0  0
 61136  1  0  0  0
 62137  1  0  0  0
 62138  1  0  0  0
 62139  1  0  0  0
 63 65  1  0  0  0
 63140  1  0  0  0
 63141  1  0  0  0
 63142  1  0  0  0
 64143  1  0  0  0
 65144  1  0  0  0
 68 81  1  0  0  0
 71 72  2  0  0  0
 71 83  1  0  0  0
 71145  1  0  0  0
 72 73  1  0  0  0
 72 82  1  0  0  0
 73 77  1  0  0  0
 73 84  2  0  0  0
 74 78  1  0  0  0
 74 83  2  0  0  0
 74 84  1  0  0  0
 75146  1  0  0  0
 75147  1  0  0  0
 75148  1  0  0  0
 75 82  1  0  0  0
 76 82  1  0  0  0
 76149  1  0  0  0
 76150  1  0  0  0
 76151  1  0  0  0
 77 79  1  0  0  0
 77152  1  0  0  0
 77153  1  0  0  0
 78 80  1  0  0  0
 78154  1  0  0  0
 78155  1  0  0  0
 79 81  1  0  0  0
 79156  1  0  0  0
 79157  1  0  0  0
 80 85  1  0  0  0
 80158  1  0  0  0
 80159  1  0  0  0
 81160  1  0  0  0
 81161  1  0  0  0
 82162  1  0  0  0
 85163  1  0  0  0
M  ISO  4   1 100  68 101  81 101  85 100
M  END
> <chiral flag>
0

> <version>
0

> <s_m_source_file>
/data/baiqing/PycharmProjects/Reinvent-master-3.2/result/LINK_invent/BTK/process_docking_weight1_custom_sum_contain_oxygen_bond_distance_aromatic_linkinvent_7_9_3/rearranged_h_0078.sdf

> <i_m_source_file_index>
54

> <r_mmod_Potential_Energy-OPLS-2005>
-331.967987060547

> <r_mmod_Stretch_Energy-OPLS-2005>
59.0504455566406

> <r_mmod_Bend_Energy-OPLS-2005>
157.941131591797

> <r_mmod_Torsional_Energy-OPLS-2005>
210.193313598633

> <r_mmod_Improper_Torsional_Energy-OPLS-2005>
6.88750982284546

> <r_mmod_Van_der_Waal_Energy-OPLS-2005>
158.285797119141

> <r_mmod_Electrostatic_Energy-OPLS-2005>
-717.064208984375

> <r_mmod_Solvation_Energy-OPLS-2005>
-230.355346679688

> <b_mmod_Minimization_Converged-OPLS-2005>
0

> <r_mmod_RMS_Derivative-OPLS-2005>
2.49572277069092

$$$$
54
                    3D
 Structure written by MMmdl.
166174  0  0  1  0            999 V2000
  -30.6908  -14.5462   20.4778 C   0  0  0  0  0  0
  -30.4135  -12.3214   19.4439 C   0  0  0  0  0  0
  -29.4997  -12.5025   18.2151 C   0  0  0  0  0  0
  -28.0200  -12.3635   18.6202 C   0  0  0  0  0  0
  -27.6575  -13.2243   19.8629 C   0  0  2  0  0  0
  -28.7009  -13.0760   20.9923 C   0  0  0  0  0  0
  -25.2607  -13.8216   20.5764 C   0  0  0  0  0  0
  -24.1863  -13.0474   20.9245 C   0  0  0  0  0  0
  -24.6453  -11.6953   20.8759 C   0  0  0  0  0  0
  -23.9124  -10.4348   21.0406 C   0  0  0  0  0  0
  -24.3671   -9.4271   21.9185 C   0  0  0  0  0  0
  -23.6355   -8.2290   22.0757 C   0  0  0  0  0  0
  -22.4335   -8.0329   21.3526 C   0  0  0  0  0  0
  -21.9967   -9.0309   20.4645 C   0  0  0  0  0  0
  -22.7293  -10.2181   20.3055 C   0  0  0  0  0  0
  -21.6871   -6.0792   22.5302 C   0  0  0  0  0  0
  -21.4025   -6.5684   23.8246 C   0  0  0  0  0  0
  -21.3662   -5.6795   24.9183 C   0  0  0  0  0  0
  -21.6024   -4.3073   24.7219 C   0  0  0  0  0  0
  -21.8821   -3.8192   23.4337 C   0  0  0  0  0  0
  -21.9212   -4.7033   22.3395 C   0  0  0  0  0  0
  -22.7867  -13.5261   21.1868 C   0  0  0  0  0  0
  -22.1664   -4.2224   21.0963 F   0  0  0  0  0  0
  -21.5614   -3.4530   25.7732 F   0  0  0  0  0  0
  -30.0286  -13.3536   20.4260 N   0  0  0  0  0  0
  -26.3044  -12.9413   20.3344 N   0  0  0  0  0  0
  -25.9381  -11.6573   20.5778 N   0  0  0  0  0  0
  -22.0472  -12.8276   22.0397 N   0  0  0  0  0  0
  -25.4336  -15.1944   20.4309 N   0  0  0  0  0  0
  -31.8573  -14.6635   20.0989 O   0  0  0  0  0  0
  -21.6667   -6.8944   21.4258 O   0  0  0  0  0  0
  -22.3582  -14.5563   20.6713 O   0  0  0  0  0  0
  -24.6171  -31.8665   23.1994 C   0  0  0  0  0  0
  -25.9055  -32.4805   23.8302 C   0  0  1  0  0  0
  -27.2573  -27.4113   20.0921 C   0  0  0  0  0  0
  -25.5891  -33.8598   24.2271 N   0  0  0  0  0  0
  -23.4032  -30.4817   21.5460 C   0  0  2  0  0  0
  -24.8530  -28.9369   20.1106 C   0  0  0  0  0  0
  -22.7409  -29.4640   22.5044 C   0  0  0  0  0  0
  -18.0267  -28.1405   22.8530 C   0  0  0  0  0  0
  -24.1494  -36.7291   23.2652 C   0  0  0  0  0  0
  -25.9308  -30.8220   21.3495 C   0  0  0  0  0  0
  -26.0103  -29.4494   20.7087 C   0  0  0  0  0  0
  -27.2050  -28.6903   20.7016 C   0  0  0  0  0  0
  -26.0751  -26.9119   19.4980 C   0  0  0  0  0  0
  -24.8821  -27.6664   19.5059 C   0  0  0  0  0  0
  -23.6106  -29.8022   20.1641 C   0  0  0  0  0  0
  -25.4110  -36.3080   24.0347 C   0  0  1  0  0  0
  -20.5849  -28.3667   23.1391 C   0  0  2  0  0  0
  -20.6779  -26.9422   22.5461 C   0  0  0  0  0  0
  -19.5757  -26.6403   21.5275 C   0  0  0  0  0  0
  -18.1912  -26.7963   22.1636 C   0  0  0  0  0  0
  -19.1504  -28.8858   23.2946 C   0  0  0  0  0  0
  -18.9447  -30.1466   23.8956 C   0  0  0  0  0  0
  -17.6436  -30.6624   24.0586 C   0  0  0  0  0  0
  -25.9047  -34.9452   23.5107 C   0  0  0  0  0  0
  -16.5333  -29.9132   23.6328 C   0  0  0  0  0  0
  -16.7225  -28.6539   23.0357 C   0  0  0  0  0  0
  -26.4459  -31.6575   25.0623 C   0  0  0  0  0  0
  -25.3716  -31.3707   26.1373 C   0  0  0  0  0  0
  -27.0270  -30.3033   24.5952 C   0  0  0  0  0  0
  -27.6061  -32.4254   25.7378 C   0  0  0  0  0  0
  -27.5584  -37.1798   24.8471 C   0  0  0  0  0  0
  -21.4150  -29.3027   22.3796 N   0  0  0  0  0  0
  -26.4300  -37.3763   23.9407 N   0  0  0  0  0  0
  -24.6702  -31.0710   22.0917 N   0  0  0  0  0  0
  -23.4191  -28.8252   23.3130 O   0  0  0  0  0  0
  -28.4671  -26.7255   20.1316 O   0  0  0  0  0  0
  -26.5622  -34.8940   22.4678 O   0  0  0  0  0  0
  -23.5359  -32.1452   23.7372 O   0  0  0  0  0  0
  -30.3025  -22.9242   18.6773 C   0  0  0  0  0  0
  -30.7141  -21.6917   18.1482 C   0  0  0  0  0  0
  -29.3712  -22.9150   19.7286 C   0  0  0  0  0  0
  -29.3427  -20.5753   19.6031 C   0  0  0  0  0  0
  -31.7508  -21.6351   17.0464 C   0  0  0  0  0  0
  -27.2829  -19.4922   20.6318 C   0  0  0  0  0  0
  -30.0312  -24.5837   21.4762 C   0  0  0  0  0  0
  -27.5935  -24.0205   21.2169 C   0  0  0  0  0  0
  -29.5270  -18.2205   20.8824 C   0  0  0  0  0  0
  -30.2220  -17.0149   20.1454 C   0  0  0  0  0  0
  -28.7081  -25.4511   19.4776 C   0  0  0  0  0  0
  -28.6783  -19.2317   20.0138 C   0  0  2  0  0  0
  -28.9276  -24.2290   20.4591 C   0  0  0  0  0  0
  -30.2112  -20.5231   18.5951 N   0  0  0  0  0  0
  -28.9676  -21.7104   20.2193 N   0  0  0  0  0  0
  -29.9330  -15.6518   20.6966 N   0  0  0  0  0  0
  -31.4610  -12.3929   19.1489 H   0  0  0  0  0  0
  -30.2806  -11.3244   19.8696 H   0  0  0  0  0  0
  -29.7471  -11.7724   17.4429 H   0  0  0  0  0  0
  -29.6682  -13.4844   17.7713 H   0  0  0  0  0  0
  -27.8314  -11.3097   18.8266 H   0  0  0  0  0  0
  -27.3740  -12.6211   17.7831 H   0  0  0  0  0  0
  -27.6753  -14.2643   19.5327 H   0  0  0  0  0  0
  -28.6820  -12.0674   21.4071 H   0  0  0  0  0  0
  -28.4736  -13.7468   21.8220 H   0  0  0  0  0  0
  -25.2782   -9.5751   22.4805 H   0  0  0  0  0  0
  -24.0082   -7.4656   22.7435 H   0  0  0  0  0  0
  -21.0911   -8.8847   19.8925 H   0  0  0  0  0  0
  -22.3756  -10.9757   19.6209 H   0  0  0  0  0  0
  -21.2004   -7.6183   23.9797 H   0  0  0  0  0  0
  -21.1462   -6.0496   25.9088 H   0  0  0  0  0  0
  -22.0597   -2.7677   23.2807 H   0  0  0  0  0  0
  -22.4065  -11.9924   22.4770 H   0  0  0  0  0  0
  -21.1083  -13.1336   22.2529 H   0  0  0  0  0  0
  -24.6747  -15.8504   20.5799 H   0  0  0  0  0  0
  -26.2932  -15.6526   20.1568 H   0  0  0  0  0  0
  -26.7132  -32.5513   23.1070 H   0  0  0  0  0  0
  -25.0006  -33.9708   25.0398 H   0  0  0  0  0  0
  -22.6914  -31.2971   21.4036 H   0  0  0  0  0  0
  -23.3764  -35.9610   23.3268 H   0  0  0  0  0  0
  -24.3623  -36.8942   22.2080 H   0  0  0  0  0  0
  -23.7249  -37.6477   23.6708 H   0  0  0  0  0  0
  -26.0232  -31.5764   20.5666 H   0  0  0  0  0  0
  -26.8295  -30.8988   21.9500 H   0  0  0  0  0  0
  -28.0937  -29.0839   21.1744 H   0  0  0  0  0  0
  -26.0435  -25.9343   19.0401 H   0  0  0  0  0  0
  -23.9923  -27.2527   19.0504 H   0  0  0  0  0  0
  -23.7113  -30.5731   19.4017 H   0  0  0  0  0  0
  -22.7340  -29.2169   19.8771 H   0  0  0  0  0  0
  -25.1311  -36.1912   25.0844 H   0  0  0  0  0  0
  -20.9904  -28.3239   24.1524 H   0  0  0  0  0  0
  -20.5781  -26.2263   23.3630 H   0  0  0  0  0  0
  -21.6639  -26.7563   22.1189 H   0  0  0  0  0  0
  -19.6928  -25.6335   21.1258 H   0  0  0  0  0  0
  -19.6708  -27.3264   20.6861 H   0  0  0  0  0  0
  -17.4209  -26.6759   21.3995 H   0  0  0  0  0  0
  -18.0251  -26.0107   22.9022 H   0  0  0  0  0  0
  -19.7915  -30.7279   24.2342 H   0  0  0  0  0  0
  -17.4996  -31.6313   24.5172 H   0  0  0  0  0  0
  -15.5332  -30.3051   23.7653 H   0  0  0  0  0  0
  -15.8615  -28.0880   22.7051 H   0  0  0  0  0  0
  -24.5801  -30.7183   25.7668 H   0  0  0  0  0  0
  -24.9018  -32.2880   26.4914 H   0  0  0  0  0  0
  -25.8019  -30.8732   27.0072 H   0  0  0  0  0  0
  -26.2783  -29.6764   24.1086 H   0  0  0  0  0  0
  -27.4192  -29.7284   25.4357 H   0  0  0  0  0  0
  -27.8538  -30.4382   23.8972 H   0  0  0  0  0  0
  -27.2747  -33.3591   26.1916 H   0  0  0  0  0  0
  -28.3875  -32.6714   25.0179 H   0  0  0  0  0  0
  -28.0699  -31.8364   26.5295 H   0  0  0  0  0  0
  -28.2594  -38.0094   24.7467 H   0  0  0  0  0  0
  -28.1071  -36.2617   24.6330 H   0  0  0  0  0  0
  -27.2303  -37.1485   25.8876 H   0  0  0  0  0  0
  -20.9338  -29.8668   21.6939 H   0  0  0  0  0  0
  -26.0170  -38.2836   24.1378 H   0  0  0  0  0  0
  -30.7358  -23.8424   18.3068 H   0  0  0  0  0  0
  -32.6036  -22.2589   17.3145 H   0  0  0  0  0  0
  -31.3327  -22.0059   16.1090 H   0  0  0  0  0  0
  -32.1174  -20.6192   16.8775 H   0  0  0  0  0  0
  -26.6475  -20.0273   19.9253 H   0  0  0  0  0  0
  -27.3474  -20.1063   21.5316 H   0  0  0  0  0  0
  -26.7667  -18.5716   20.8988 H   0  0  0  0  0  0
  -30.2231  -23.7567   22.1587 H   0  0  0  0  0  0
  -29.7643  -25.4478   22.0826 H   0  0  0  0  0  0
  -30.9751  -24.8066   20.9729 H   0  0  0  0  0  0
  -27.6636  -23.2236   21.9575 H   0  0  0  0  0  0
  -26.7821  -23.7641   20.5348 H   0  0  0  0  0  0
  -27.2903  -24.9206   21.7545 H   0  0  0  0  0  0
  -30.2640  -18.7846   21.4569 H   0  0  0  0  0  0
  -28.8713  -17.7963   21.6432 H   0  0  0  0  0  0
  -31.3006  -17.2026   20.1358 H   0  0  0  0  0  0
  -29.9356  -16.9897   19.0910 H   0  0  0  0  0  0
  -27.9785  -25.2209   18.7035 H   0  0  0  0  0  0
  -29.6322  -25.6244   18.9212 H   0  0  0  0  0  0
  -28.4491  -18.7151   19.0809 H   0  0  0  0  0  0
  -28.9957  -15.4746   21.0278 H   0  0  0  0  0  0
  1 25  1  0  0  0
  1 30  2  0  0  0
  1 86  1  0  0  0
  2  3  1  0  0  0
  2 25  1  0  0  0
  2 87  1  0  0  0
  2 88  1  0  0  0
  3  4  1  0  0  0
  3 89  1  0  0  0
  3 90  1  0  0  0
  4  5  1  0  0  0
  4 91  1  0  0  0
  4 92  1  0  0  0
  5  6  1  0  0  0
  5 26  1  0  0  0
  5 93  1  0  0  0
  6 25  1  0  0  0
  6 94  1  0  0  0
  6 95  1  0  0  0
  7  8  2  0  0  0
  7 26  1  0  0  0
  7 29  1  0  0  0
  8  9  1  0  0  0
  8 22  1  0  0  0
  9 10  1  0  0  0
  9 27  2  0  0  0
 10 11  2  0  0  0
 10 15  1  0  0  0
 11 12  1  0  0  0
 11 96  1  0  0  0
 12 13  2  0  0  0
 12 97  1  0  0  0
 13 14  1  0  0  0
 13 31  1  0  0  0
 14 15  2  0  0  0
 14 98  1  0  0  0
 15 99  1  0  0  0
 16 17  2  0  0  0
 16 21  1  0  0  0
 16 31  1  0  0  0
 17 18  1  0  0  0
 17100  1  0  0  0
 18 19  2  0  0  0
 18101  1  0  0  0
 19 20  1  0  0  0
 19 24  1  0  0  0
 20 21  2  0  0  0
 20102  1  0  0  0
 21 23  1  0  0  0
 22 28  1  0  0  0
 22 32  2  0  0  0
 26 27  1  0  0  0
 28103  1  0  0  0
 28104  1  0  0  0
 29105  1  0  0  0
 29106  1  0  0  0
 33 34  1  0  0  0
 33 66  1  0  0  0
 33 70  2  0  0  0
 34 36  1  0  0  0
 34 59  1  0  0  0
 34107  1  0  0  0
 35 44  2  0  0  0
 35 45  1  0  0  0
 35 68  1  0  0  0
 36 56  1  0  0  0
 36108  1  0  0  0
 37 39  1  0  0  0
 37 47  1  0  0  0
 37 66  1  0  0  0
 37109  1  0  0  0
 38 43  2  0  0  0
 38 46  1  0  0  0
 38 47  1  0  0  0
 39 64  1  0  0  0
 39 67  2  0  0  0
 40 52  1  0  0  0
 40 53  2  0  0  0
 40 58  1  0  0  0
 41110  1  0  0  0
 41111  1  0  0  0
 41112  1  0  0  0
 41 48  1  0  0  0
 42 43  1  0  0  0
 42 66  1  0  0  0
 42113  1  0  0  0
 42114  1  0  0  0
 43 44  1  0  0  0
 44115  1  0  0  0
 45 46  2  0  0  0
 45116  1  0  0  0
 46117  1  0  0  0
 47118  1  0  0  0
 47119  1  0  0  0
 48 56  1  0  0  0
 48 65  1  0  0  0
 48120  1  0  0  0
 49 50  1  0  0  0
 49 53  1  0  0  0
 49 64  1  0  0  0
 49121  1  0  0  0
 50 51  1  0  0  0
 50122  1  0  0  0
 50123  1  0  0  0
 51 52  1  0  0  0
 51124  1  0  0  0
 51125  1  0  0  0
 52126  1  0  0  0
 52127  1  0  0  0
 53 54  1  0  0  0
 54 55  2  0  0  0
 54128  1  0  0  0
 55 57  1  0  0  0
 55129  1  0  0  0
 56 69  2  0  0  0
 57 58  2  0  0  0
 57130  1  0  0  0
 58131  1  0  0  0
 59 60  1  0  0  0
 59 61  1  0  0  0
 59 62  1  0  0  0
 60132  1  0  0  0
 60133  1  0  0  0
 60134  1  0  0  0
 61135  1  0  0  0
 61136  1  0  0  0
 61137  1  0  0  0
 62138  1  0  0  0
 62139  1  0  0  0
 62140  1  0  0  0
 63 65  1  0  0  0
 63141  1  0  0  0
 63142  1  0  0  0
 63143  1  0  0  0
 64144  1  0  0  0
 65145  1  0  0  0
 68 81  1  0  0  0
 71 72  2  0  0  0
 71 73  1  0  0  0
 71146  1  0  0  0
 72 75  1  0  0  0
 72 84  1  0  0  0
 73 83  1  0  0  0
 73 85  2  0  0  0
 74 82  1  0  0  0
 74 84  2  0  0  0
 74 85  1  0  0  0
 75147  1  0  0  0
 75148  1  0  0  0
 75149  1  0  0  0
 76150  1  0  0  0
 76151  1  0  0  0
 76152  1  0  0  0
 76 82  1  0  0  0
 77153  1  0  0  0
 77154  1  0  0  0
 77155  1  0  0  0
 77 83  1  0  0  0
 78 83  1  0  0  0
 78156  1  0  0  0
 78157  1  0  0  0
 78158  1  0  0  0
 79 80  1  0  0  0
 79 82  1  0  0  0
 79159  1  0  0  0
 79160  1  0  0  0
 80 86  1  0  0  0
 80161  1  0  0  0
 80162  1  0  0  0
 81 83  1  0  0  0
 81163  1  0  0  0
 81164  1  0  0  0
 82165  1  0  0  0
 86166  1  0  0  0
M  ISO  4   1 100  68 101  81 101  86 100
M  END
> <chiral flag>
0

> <version>
0

> <s_m_source_file>
/data/baiqing/PycharmProjects/Reinvent-master-3.2/result/LINK_invent/BTK/process_docking_weight1_custom_sum_contain_oxygen_bond_distance_aromatic_linkinvent_7_9_3/rearranged_h_0078.sdf

> <i_m_source_file_index>
55

> <r_mmod_Potential_Energy-OPLS-2005>
-440.681579589844

> <r_mmod_Stretch_Energy-OPLS-2005>
58.5038795471191

> <r_mmod_Bend_Energy-OPLS-2005>
137.792495727539

> <r_mmod_Torsional_Energy-OPLS-2005>
224.492141723633

> <r_mmod_Improper_Torsional_Energy-OPLS-2005>
8.05344867706299

> <r_mmod_Van_der_Waal_Energy-OPLS-2005>
156.473968505859

> <r_mmod_Electrostatic_Energy-OPLS-2005>
-827.254150390625

> <r_mmod_Solvation_Energy-OPLS-2005>
-222.415802001953

> <b_mmod_Minimization_Converged-OPLS-2005>
0

> <r_mmod_RMS_Derivative-OPLS-2005>
5.4941930770874

$$$$
55
                    3D
 Structure written by MMmdl.
166174  0  0  1  0            999 V2000
  -30.7116  -14.5516   20.5317 C   0  0  0  0  0  0
  -30.4190  -12.3502   19.4451 C   0  0  0  0  0  0
  -29.4989  -12.4891   18.2152 C   0  0  0  0  0  0
  -28.0250  -12.3352   18.6400 C   0  0  0  0  0  0
  -27.6529  -13.2190   19.8631 C   0  0  2  0  0  0
  -28.7004  -13.0781   20.9930 C   0  0  0  0  0  0
  -25.2522  -13.8161   20.5697 C   0  0  0  0  0  0
  -24.1806  -13.0442   20.9212 C   0  0  0  0  0  0
  -24.6378  -11.6907   20.8740 C   0  0  0  0  0  0
  -23.9048  -10.4300   21.0413 C   0  0  0  0  0  0
  -24.3612   -9.4200   21.9162 C   0  0  0  0  0  0
  -23.6278   -8.2245   22.0730 C   0  0  0  0  0  0
  -22.4253   -8.0290   21.3529 C   0  0  0  0  0  0
  -21.9894   -9.0267   20.4630 C   0  0  0  0  0  0
  -22.7232  -10.2139   20.3056 C   0  0  0  0  0  0
  -21.6830   -6.0743   22.5260 C   0  0  0  0  0  0
  -21.4020   -6.5643   23.8200 C   0  0  0  0  0  0
  -21.3661   -5.6771   24.9142 C   0  0  0  0  0  0
  -21.6041   -4.3035   24.7179 C   0  0  0  0  0  0
  -21.8816   -3.8157   23.4295 C   0  0  0  0  0  0
  -21.9177   -4.6979   22.3368 C   0  0  0  0  0  0
  -22.7816  -13.5232   21.1847 C   0  0  0  0  0  0
  -22.1640   -4.2183   21.0927 F   0  0  0  0  0  0
  -21.5626   -3.4503   25.7688 F   0  0  0  0  0  0
  -30.0173  -13.3817   20.4188 N   0  0  0  0  0  0
  -26.2976  -12.9388   20.3340 N   0  0  0  0  0  0
  -25.9324  -11.6539   20.5797 N   0  0  0  0  0  0
  -22.0428  -12.8275   22.0414 N   0  0  0  0  0  0
  -25.4248  -15.1881   20.4107 N   0  0  0  0  0  0
  -31.8577  -14.6428   20.0902 O   0  0  0  0  0  0
  -21.6605   -6.8902   21.4235 O   0  0  0  0  0  0
  -22.3527  -14.5544   20.6642 O   0  0  0  0  0  0
  -24.6219  -31.8642   23.2054 C   0  0  0  0  0  0
  -25.9099  -32.4810   23.8362 C   0  0  1  0  0  0
  -27.2536  -27.3796   20.0840 C   0  0  0  0  0  0
  -25.5944  -33.8608   24.2325 N   0  0  0  0  0  0
  -23.4160  -30.4882   21.5412 C   0  0  2  0  0  0
  -24.8672  -28.9422   20.1203 C   0  0  0  0  0  0
  -22.7456  -29.4680   22.4911 C   0  0  0  0  0  0
  -18.0308  -28.1401   22.8502 C   0  0  0  0  0  0
  -24.1478  -36.7281   23.2641 C   0  0  0  0  0  0
  -25.9522  -30.8076   21.3728 C   0  0  0  0  0  0
  -26.0320  -29.4378   20.7186 C   0  0  0  0  0  0
  -27.2245  -28.6640   20.6984 C   0  0  0  0  0  0
  -26.0535  -26.9121   19.4938 C   0  0  0  0  0  0
  -24.8735  -27.6796   19.5098 C   0  0  0  0  0  0
  -23.6347  -29.8171   20.1591 C   0  0  0  0  0  0
  -25.4105  -36.3088   24.0341 C   0  0  1  0  0  0
  -20.5905  -28.3723   23.1264 C   0  0  2  0  0  0
  -20.6789  -26.9450   22.5386 C   0  0  0  0  0  0
  -19.5764  -26.6412   21.5193 C   0  0  0  0  0  0
  -18.1956  -26.7950   22.1625 C   0  0  0  0  0  0
  -19.1560  -28.8871   23.2896 C   0  0  0  0  0  0
  -18.9486  -30.1456   23.8932 C   0  0  0  0  0  0
  -17.6492  -30.6610   24.0572 C   0  0  0  0  0  0
  -25.9045  -34.9458   23.5120 C   0  0  0  0  0  0
  -16.5386  -29.9117   23.6324 C   0  0  0  0  0  0
  -16.7301  -28.6520   23.0377 C   0  0  0  0  0  0
  -26.4537  -31.6597   25.0695 C   0  0  0  0  0  0
  -25.3785  -31.3724   26.1440 C   0  0  0  0  0  0
  -27.0397  -30.3026   24.6121 C   0  0  0  0  0  0
  -27.6107  -32.4321   25.7474 C   0  0  0  0  0  0
  -27.5580  -37.1805   24.8474 C   0  0  0  0  0  0
  -21.4179  -29.3079   22.3646 N   0  0  0  0  0  0
  -26.4285  -37.3770   23.9409 N   0  0  0  0  0  0
  -24.6807  -31.0689   22.0979 N   0  0  0  0  0  0
  -23.4193  -28.8221   23.2990 O   0  0  0  0  0  0
  -28.4327  -26.6286   20.0515 O   0  0  0  0  0  0
  -26.5578  -34.8915   22.4671 O   0  0  0  0  0  0
  -23.5387  -32.1431   23.7420 O   0  0  0  0  0  0
  -30.1463  -19.2529   20.1129 C   0  0  0  0  0  0
  -29.8532  -18.2492   21.0248 C   0  0  0  0  0  0
  -28.4919  -20.0054   21.3705 C   0  0  0  0  0  0
  -27.4766  -20.8728   22.0441 C   0  0  0  0  0  0
  -32.2738  -24.5401   19.9559 C   0  0  0  0  0  0
  -32.1018  -17.1984   21.2562 C   0  0  0  0  0  0
  -30.9118  -25.1736   20.3054 C   0  0  0  0  0  0
  -29.6377  -22.9322   20.5437 C   0  0  0  0  0  0
  -29.3103  -21.6748   19.6661 C   0  0  0  0  0  0
  -28.3422  -25.1729   19.9715 C   0  0  0  0  0  0
  -30.5876  -16.9700   21.4566 C   0  0  2  0  0  0
  -29.6863  -24.3499   19.8398 C   0  0  1  0  0  0
  -29.3274  -20.3421   20.3703 N   0  0  0  0  0  0
  -28.7818  -18.7419   21.7254 N   0  3  0  0  0  0
  -30.0533  -15.6334   21.0328 N   0  0  0  0  0  0
  -31.4651  -12.4367   19.1460 H   0  0  0  0  0  0
  -30.3171  -11.3622   19.8984 H   0  0  0  0  0  0
  -29.7599  -11.7359   17.4702 H   0  0  0  0  0  0
  -29.6513  -13.4569   17.7359 H   0  0  0  0  0  0
  -27.8714  -11.2869   18.8953 H   0  0  0  0  0  0
  -27.3604  -12.5423   17.8013 H   0  0  0  0  0  0
  -27.6692  -14.2525   19.5187 H   0  0  0  0  0  0
  -28.6973  -12.0628   21.3948 H   0  0  0  0  0  0
  -28.4605  -13.7273   21.8354 H   0  0  0  0  0  0
  -25.2759   -9.5639   22.4717 H   0  0  0  0  0  0
  -23.9950   -7.4628   22.7460 H   0  0  0  0  0  0
  -21.0814   -8.8836   19.8939 H   0  0  0  0  0  0
  -22.3719  -10.9694   19.6174 H   0  0  0  0  0  0
  -21.2050   -7.6154   23.9730 H   0  0  0  0  0  0
  -21.1472   -6.0475   25.9043 H   0  0  0  0  0  0
  -22.0607   -2.7635   23.2749 H   0  0  0  0  0  0
  -22.4003  -12.0005   22.4961 H   0  0  0  0  0  0
  -21.1048  -13.1369   22.2571 H   0  0  0  0  0  0
  -24.6503  -15.8368   20.4993 H   0  0  0  0  0  0
  -26.2621  -15.6225   20.0480 H   0  0  0  0  0  0
  -26.7180  -32.5538   23.1130 H   0  0  0  0  0  0
  -25.0134  -33.9755   25.0509 H   0  0  0  0  0  0
  -22.7077  -31.3053   21.3928 H   0  0  0  0  0  0
  -23.3724  -35.9629   23.3337 H   0  0  0  0  0  0
  -24.3553  -36.8852   22.2040 H   0  0  0  0  0  0
  -23.7247  -37.6511   23.6622 H   0  0  0  0  0  0
  -26.0733  -31.5707   20.6028 H   0  0  0  0  0  0
  -26.8324  -30.8624   21.9993 H   0  0  0  0  0  0
  -28.1210  -29.0427   21.1686 H   0  0  0  0  0  0
  -25.9942  -25.9559   18.9971 H   0  0  0  0  0  0
  -23.9782  -27.2883   19.0459 H   0  0  0  0  0  0
  -23.7595  -30.5836   19.3920 H   0  0  0  0  0  0
  -22.7581  -29.2386   19.8617 H   0  0  0  0  0  0
  -25.1285  -36.1918   25.0826 H   0  0  0  0  0  0
  -21.0033  -28.3295   24.1372 H   0  0  0  0  0  0
  -20.5635  -26.2362   23.3601 H   0  0  0  0  0  0
  -21.6668  -26.7462   22.1210 H   0  0  0  0  0  0
  -19.6894  -25.6311   21.1252 H   0  0  0  0  0  0
  -19.6663  -27.3189   20.6689 H   0  0  0  0  0  0
  -17.4210  -26.6707   21.4037 H   0  0  0  0  0  0
  -18.0368  -26.0084   22.9011 H   0  0  0  0  0  0
  -19.7955  -30.7252   24.2347 H   0  0  0  0  0  0
  -17.5056  -31.6296   24.5158 H   0  0  0  0  0  0
  -15.5389  -30.3037   23.7602 H   0  0  0  0  0  0
  -15.8711  -28.0820   22.7118 H   0  0  0  0  0  0
  -24.5898  -30.7170   25.7737 H   0  0  0  0  0  0
  -24.9077  -32.2911   26.4939 H   0  0  0  0  0  0
  -25.8109  -30.8801   27.0164 H   0  0  0  0  0  0
  -26.2966  -29.6743   24.1193 H   0  0  0  0  0  0
  -27.4178  -29.7308   25.4614 H   0  0  0  0  0  0
  -27.8799  -30.4337   23.9292 H   0  0  0  0  0  0
  -27.2708  -33.3554   26.2185 H   0  0  0  0  0  0
  -28.3864  -32.7004   25.0282 H   0  0  0  0  0  0
  -28.0867  -31.8374   26.5292 H   0  0  0  0  0  0
  -28.2627  -38.0082   24.7509 H   0  0  0  0  0  0
  -28.1053  -36.2616   24.6308 H   0  0  0  0  0  0
  -27.2310  -37.1479   25.8887 H   0  0  0  0  0  0
  -20.9343  -29.8820   21.6885 H   0  0  0  0  0  0
  -26.0164  -38.2845   24.1395 H   0  0  0  0  0  0
  -30.9234  -19.2970   19.3623 H   0  0  0  0  0  0
  -27.0605  -21.5813   21.3316 H   0  0  0  0  0  0
  -27.9818  -21.4093   22.8495 H   0  0  0  0  0  0
  -26.6884  -20.2481   22.4608 H   0  0  0  0  0  0
  -33.0938  -25.1766   20.2843 H   0  0  0  0  0  0
  -32.3835  -24.4012   18.8809 H   0  0  0  0  0  0
  -32.4285  -23.5712   20.4261 H   0  0  0  0  0  0
  -32.4269  -18.1059   21.7676 H   0  0  0  0  0  0
  -32.3552  -17.3018   20.2009 H   0  0  0  0  0  0
  -32.6985  -16.3871   21.6741 H   0  0  0  0  0  0
  -30.8924  -26.1582   19.8358 H   0  0  0  0  0  0
  -30.8512  -25.3621   21.3778 H   0  0  0  0  0  0
  -30.5877  -22.7141   21.0201 H   0  0  0  0  0  0
  -28.9520  -22.9908   21.3858 H   0  0  0  0  0  0
  -30.0270  -21.6102   18.8448 H   0  0  0  0  0  0
  -28.3334  -21.7925   19.2012 H   0  0  0  0  0  0
  -27.7974  -24.8444   20.8570 H   0  0  0  0  0  0
  -27.7466  -24.8721   19.1094 H   0  0  0  0  0  0
  -30.4661  -16.9367   22.5407 H   0  0  0  0  0  0
  -29.8511  -24.1814   18.7731 H   0  0  0  0  0  0
  -28.3070  -18.2429   22.4675 H   0  0  0  0  0  0
  -29.0875  -15.4651   21.2704 H   0  0  0  0  0  0
  1 25  1  0  0  0
  1 30  2  0  0  0
  1 85  1  0  0  0
  2  3  1  0  0  0
  2 25  1  0  0  0
  2 86  1  0  0  0
  2 87  1  0  0  0
  3  4  1  0  0  0
  3 88  1  0  0  0
  3 89  1  0  0  0
  4  5  1  0  0  0
  4 90  1  0  0  0
  4 91  1  0  0  0
  5  6  1  0  0  0
  5 26  1  0  0  0
  5 92  1  0  0  0
  6 25  1  0  0  0
  6 93  1  0  0  0
  6 94  1  0  0  0
  7  8  2  0  0  0
  7 26  1  0  0  0
  7 29  1  0  0  0
  8  9  1  0  0  0
  8 22  1  0  0  0
  9 10  1  0  0  0
  9 27  2  0  0  0
 10 11  2  0  0  0
 10 15  1  0  0  0
 11 12  1  0  0  0
 11 95  1  0  0  0
 12 13  2  0  0  0
 12 96  1  0  0  0
 13 14  1  0  0  0
 13 31  1  0  0  0
 14 15  2  0  0  0
 14 97  1  0  0  0
 15 98  1  0  0  0
 16 17  2  0  0  0
 16 21  1  0  0  0
 16 31  1  0  0  0
 17 18  1  0  0  0
 17 99  1  0  0  0
 18 19  2  0  0  0
 18100  1  0  0  0
 19 20  1  0  0  0
 19 24  1  0  0  0
 20 21  2  0  0  0
 20101  1  0  0  0
 21 23  1  0  0  0
 22 28  1  0  0  0
 22 32  2  0  0  0
 26 27  1  0  0  0
 28102  1  0  0  0
 28103  1  0  0  0
 29104  1  0  0  0
 29105  1  0  0  0
 33 34  1  0  0  0
 33 66  1  0  0  0
 33 70  2  0  0  0
 34 36  1  0  0  0
 34 59  1  0  0  0
 34106  1  0  0  0
 35 44  2  0  0  0
 35 45  1  0  0  0
 35 68  1  0  0  0
 36 56  1  0  0  0
 36107  1  0  0  0
 37 39  1  0  0  0
 37 47  1  0  0  0
 37 66  1  0  0  0
 37108  1  0  0  0
 38 43  2  0  0  0
 38 46  1  0  0  0
 38 47  1  0  0  0
 39 64  1  0  0  0
 39 67  2  0  0  0
 40 52  1  0  0  0
 40 53  2  0  0  0
 40 58  1  0  0  0
 41109  1  0  0  0
 41110  1  0  0  0
 41111  1  0  0  0
 41 48  1  0  0  0
 42 43  1  0  0  0
 42 66  1  0  0  0
 42112  1  0  0  0
 42113  1  0  0  0
 43 44  1  0  0  0
 44114  1  0  0  0
 45 46  2  0  0  0
 45115  1  0  0  0
 46116  1  0  0  0
 47117  1  0  0  0
 47118  1  0  0  0
 48 56  1  0  0  0
 48 65  1  0  0  0
 48119  1  0  0  0
 49 50  1  0  0  0
 49 53  1  0  0  0
 49 64  1  0  0  0
 49120  1  0  0  0
 50 51  1  0  0  0
 50121  1  0  0  0
 50122  1  0  0  0
 51 52  1  0  0  0
 51123  1  0  0  0
 51124  1  0  0  0
 52125  1  0  0  0
 52126  1  0  0  0
 53 54  1  0  0  0
 54 55  2  0  0  0
 54127  1  0  0  0
 55 57  1  0  0  0
 55128  1  0  0  0
 56 69  2  0  0  0
 57 58  2  0  0  0
 57129  1  0  0  0
 58130  1  0  0  0
 59 60  1  0  0  0
 59 61  1  0  0  0
 59 62  1  0  0  0
 60131  1  0  0  0
 60132  1  0  0  0
 60133  1  0  0  0
 61134  1  0  0  0
 61135  1  0  0  0
 61136  1  0  0  0
 62137  1  0  0  0
 62138  1  0  0  0
 62139  1  0  0  0
 63 65  1  0  0  0
 63140  1  0  0  0
 63141  1  0  0  0
 63142  1  0  0  0
 64143  1  0  0  0
 65144  1  0  0  0
 68 80  1  0  0  0
 71 72  2  0  0  0
 71 83  1  0  0  0
 71145  1  0  0  0
 72 81  1  0  0  0
 72 84  1  0  0  0
 73 74  1  0  0  0
 73 83  1  0  0  0
 73 84  2  0  0  0
 74146  1  0  0  0
 74147  1  0  0  0
 74148  1  0  0  0
 75 77  1  0  0  0
 75149  1  0  0  0
 75150  1  0  0  0
 75151  1  0  0  0
 76152  1  0  0  0
 76153  1  0  0  0
 76154  1  0  0  0
 76 81  1  0  0  0
 77155  1  0  0  0
 77156  1  0  0  0
 77 82  1  0  0  0
 78 79  1  0  0  0
 78 82  1  0  0  0
 78157  1  0  0  0
 78158  1  0  0  0
 79 83  1  0  0  0
 79159  1  0  0  0
 79160  1  0  0  0
 80 82  1  0  0  0
 80161  1  0  0  0
 80162  1  0  0  0
 81 85  1  0  0  0
 81163  1  0  0  0
 82164  1  0  0  0
 84165  1  0  0  0
 85166  1  0  0  0
M  CHG  1  84   1
M  ISO  4   1 100  68 101  80 101  85 100
M  END
> <chiral flag>
0

> <version>
0

> <s_m_source_file>
/data/baiqing/PycharmProjects/Reinvent-master-3.2/result/LINK_invent/BTK/process_docking_weight1_custom_sum_contain_oxygen_bond_distance_aromatic_linkinvent_7_9_3/rearranged_h_0078.sdf

> <i_m_source_file_index>
56

> <r_mmod_Potential_Energy-OPLS-2005>
-102.034881591797

> <r_mmod_Stretch_Energy-OPLS-2005>
59.9829177856445

> <r_mmod_Bend_Energy-OPLS-2005>
133.572845458984

> <r_mmod_Torsional_Energy-OPLS-2005>
243.080169677734

> <r_mmod_Improper_Torsional_Energy-OPLS-2005>
4.13853073120117

> <r_mmod_Van_der_Waal_Energy-OPLS-2005>
137.744873046875

> <r_mmod_Electrostatic_Energy-OPLS-2005>
-281.525299072266

> <r_mmod_Solvation_Energy-OPLS-2005>
-424.700134277344

> <b_mmod_Minimization_Converged-OPLS-2005>
0

> <r_mmod_RMS_Derivative-OPLS-2005>
5.06284093856812

$$$$
56
                    3D
 Structure written by MMmdl.
162170  0  0  1  0            999 V2000
  -30.6866  -14.4367   20.5601 C   0  0  0  0  0  0
  -30.4273  -12.2739   19.4281 C   0  0  0  0  0  0
  -29.5004  -12.4646   18.2097 C   0  0  0  0  0  0
  -28.0161  -12.3495   18.6206 C   0  0  0  0  0  0
  -27.6603  -13.1836   19.8822 C   0  0  2  0  0  0
  -28.7008  -12.9522   21.0012 C   0  0  0  0  0  0
  -25.2581  -13.8112   20.5689 C   0  0  0  0  0  0
  -24.1801  -13.0423   20.9164 C   0  0  0  0  0  0
  -24.6323  -11.6877   20.8713 C   0  0  0  0  0  0
  -23.9001  -10.4278   21.0392 C   0  0  0  0  0  0
  -24.3582   -9.4211   21.9170 C   0  0  0  0  0  0
  -23.6281   -8.2236   22.0744 C   0  0  0  0  0  0
  -22.4268   -8.0262   21.3537 C   0  0  0  0  0  0
  -21.9876   -9.0230   20.4644 C   0  0  0  0  0  0
  -22.7178  -10.2122   20.3044 C   0  0  0  0  0  0
  -21.6862   -6.0718   22.5268 C   0  0  0  0  0  0
  -21.4018   -6.5623   23.8199 C   0  0  0  0  0  0
  -21.3650   -5.6780   24.9164 C   0  0  0  0  0  0
  -21.6035   -4.3044   24.7220 C   0  0  0  0  0  0
  -21.8824   -3.8135   23.4345 C   0  0  0  0  0  0
  -21.9200   -4.6947   22.3396 C   0  0  0  0  0  0
  -22.7826  -13.5232   21.1839 C   0  0  0  0  0  0
  -22.1673   -4.2128   21.0981 F   0  0  0  0  0  0
  -21.5629   -3.4530   25.7737 F   0  0  0  0  0  0
  -30.0361  -13.2513   20.4514 N   0  0  0  0  0  0
  -26.2993  -12.9223   20.3385 N   0  0  0  0  0  0
  -25.9246  -11.6410   20.5757 N   0  0  0  0  0  0
  -22.0485  -12.8236   22.0416 N   0  0  0  0  0  0
  -25.4326  -15.1836   20.4153 N   0  0  0  0  0  0
  -31.8307  -14.6337   20.1441 O   0  0  0  0  0  0
  -21.6648   -6.8858   21.4231 O   0  0  0  0  0  0
  -22.3506  -14.5541   20.6699 O   0  0  0  0  0  0
  -24.6055  -31.8744   23.2168 C   0  0  0  0  0  0
  -25.8977  -32.4872   23.8434 C   0  0  1  0  0  0
  -27.2443  -27.5074   20.0968 C   0  0  0  0  0  0
  -25.5857  -33.8669   24.2374 N   0  0  0  0  0  0
  -23.3897  -30.4968   21.5573 C   0  0  2  0  0  0
  -24.8375  -28.9694   20.1205 C   0  0  0  0  0  0
  -22.7355  -29.4687   22.5057 C   0  0  0  0  0  0
  -18.0257  -28.1389   22.8501 C   0  0  0  0  0  0
  -24.1482  -36.7323   23.2635 C   0  0  0  0  0  0
  -25.9089  -30.8663   21.3554 C   0  0  0  0  0  0
  -25.9913  -29.5040   20.7072 C   0  0  0  0  0  0
  -27.1968  -28.7807   20.6893 C   0  0  0  0  0  0
  -26.0739  -26.9623   19.5185 C   0  0  0  0  0  0
  -24.8703  -27.6957   19.5246 C   0  0  0  0  0  0
  -23.5939  -29.8265   20.1715 C   0  0  0  0  0  0
  -25.4102  -36.3149   24.0344 C   0  0  1  0  0  0
  -20.5834  -28.3652   23.1364 C   0  0  2  0  0  0
  -20.6757  -26.9407   22.5436 C   0  0  0  0  0  0
  -19.5736  -26.6404   21.5226 C   0  0  0  0  0  0
  -18.1906  -26.7941   22.1625 C   0  0  0  0  0  0
  -19.1500  -28.8839   23.2931 C   0  0  0  0  0  0
  -18.9437  -30.1444   23.8940 C   0  0  0  0  0  0
  -17.6439  -30.6600   24.0572 C   0  0  0  0  0  0
  -25.9009  -34.9506   23.5158 C   0  0  0  0  0  0
  -16.5334  -29.9105   23.6321 C   0  0  0  0  0  0
  -16.7246  -28.6521   23.0351 C   0  0  0  0  0  0
  -26.4446  -31.6628   25.0723 C   0  0  0  0  0  0
  -25.3743  -31.3707   26.1491 C   0  0  0  0  0  0
  -27.0261  -30.3086   24.6036 C   0  0  0  0  0  0
  -27.6047  -32.4331   25.7460 C   0  0  0  0  0  0
  -27.5589  -37.1816   24.8462 C   0  0  0  0  0  0
  -21.4095  -29.3017   22.3778 N   0  0  0  0  0  0
  -26.4298  -37.3821   23.9414 N   0  0  0  0  0  0
  -24.6536  -31.0905   22.1041 N   0  0  0  0  0  0
  -23.4161  -28.8240   23.3077 O   0  0  0  0  0  0
  -28.4541  -26.8653   20.0813 O   0  0  0  0  0  0
  -26.5572  -34.8931   22.4717 O   0  0  0  0  0  0
  -23.5265  -32.1464   23.7612 O   0  0  0  0  0  0
  -29.7701  -19.8928   18.6702 C   0  0  0  0  0  0
  -27.7803  -20.2863   19.4598 C   0  0  0  0  0  0
  -29.2489  -18.7375   19.2093 C   0  0  0  0  0  0
  -31.0957  -17.2804   18.3825 C   0  0  0  0  0  0
  -28.7582  -16.4557   18.4866 C   0  0  0  0  0  0
  -28.7242  -23.1751   19.6306 C   0  0  0  0  0  0
  -28.7029  -24.6462   19.2434 C   0  0  0  0  0  0
  -28.8771  -22.2562   18.4184 C   0  0  0  0  0  0
  -30.0829  -16.8764   20.6895 C   0  0  0  0  0  0
  -28.4573  -25.5105   20.4751 C   0  0  0  0  0  0
  -29.7967  -17.3299   19.2156 C   0  0  0  0  0  0
  -27.9831  -19.0076   19.7353 N   0  0  0  0  0  0
  -28.8069  -20.8769   18.8371 N   0  0  0  0  0  0
  -29.8977  -15.4442   20.9479 N   0  0  0  0  0  0
  -31.4716  -12.3818   19.1307 H   0  0  0  0  0  0
  -30.3337  -11.2635   19.8268 H   0  0  0  0  0  0
  -29.7330  -11.7181   17.4491 H   0  0  0  0  0  0
  -29.6955  -13.4273   17.7414 H   0  0  0  0  0  0
  -27.8169  -11.2958   18.8186 H   0  0  0  0  0  0
  -27.3711  -12.6272   17.7854 H   0  0  0  0  0  0
  -27.6989  -14.2285   19.5978 H   0  0  0  0  0  0
  -28.6637  -11.9153   21.3379 H   0  0  0  0  0  0
  -28.4656  -13.5468   21.8852 H   0  0  0  0  0  0
  -25.2727   -9.5715   22.4742 H   0  0  0  0  0  0
  -24.0008   -7.4631   22.7458 H   0  0  0  0  0  0
  -21.0802   -8.8733   19.8951 H   0  0  0  0  0  0
  -22.3616  -10.9669   19.6162 H   0  0  0  0  0  0
  -21.2014   -7.6138   23.9688 H   0  0  0  0  0  0
  -21.1466   -6.0522   25.9061 H   0  0  0  0  0  0
  -22.0615   -2.7599   23.2852 H   0  0  0  0  0  0
  -22.4126  -11.9918   22.4826 H   0  0  0  0  0  0
  -21.1101  -13.1240   22.2631 H   0  0  0  0  0  0
  -24.6651  -15.8367   20.5267 H   0  0  0  0  0  0
  -26.2872  -15.6324   20.1125 H   0  0  0  0  0  0
  -26.7060  -32.5629   23.1220 H   0  0  0  0  0  0
  -25.0040  -33.9852   25.0543 H   0  0  0  0  0  0
  -22.6746  -31.3108   21.4222 H   0  0  0  0  0  0
  -23.3755  -35.9644   23.3312 H   0  0  0  0  0  0
  -24.3593  -36.8917   22.2049 H   0  0  0  0  0  0
  -23.7194  -37.6515   23.6636 H   0  0  0  0  0  0
  -25.9998  -31.6354   20.5868 H   0  0  0  0  0  0
  -26.8028  -30.9290   21.9643 H   0  0  0  0  0  0
  -28.0919  -29.1947   21.1342 H   0  0  0  0  0  0
  -26.0866  -25.9888   19.0528 H   0  0  0  0  0  0
  -23.9822  -27.2785   19.0714 H   0  0  0  0  0  0
  -23.6926  -30.6001   19.4085 H   0  0  0  0  0  0
  -22.7219  -29.2383   19.8818 H   0  0  0  0  0  0
  -25.1280  -36.2035   25.0835 H   0  0  0  0  0  0
  -20.9908  -28.3215   24.1493 H   0  0  0  0  0  0
  -20.5688  -26.2252   23.3609 H   0  0  0  0  0  0
  -21.6631  -26.7493   22.1219 H   0  0  0  0  0  0
  -19.6898  -25.6321   21.1238 H   0  0  0  0  0  0
  -19.6684  -27.3235   20.6776 H   0  0  0  0  0  0
  -17.4188  -26.6696   21.4019 H   0  0  0  0  0  0
  -18.0299  -26.0086   22.9020 H   0  0  0  0  0  0
  -19.7914  -30.7243   24.2343 H   0  0  0  0  0  0
  -17.5002  -31.6285   24.5163 H   0  0  0  0  0  0
  -15.5333  -30.3027   23.7636 H   0  0  0  0  0  0
  -15.8639  -28.0853   22.7061 H   0  0  0  0  0  0
  -24.5911  -30.7057   25.7835 H   0  0  0  0  0  0
  -24.8935  -32.2855   26.4967 H   0  0  0  0  0  0
  -25.8113  -30.8860   27.0229 H   0  0  0  0  0  0
  -26.2782  -29.6852   24.1118 H   0  0  0  0  0  0
  -27.4092  -29.7305   25.4453 H   0  0  0  0  0  0
  -27.8588  -30.4433   23.9125 H   0  0  0  0  0  0
  -27.2697  -33.3615   26.2097 H   0  0  0  0  0  0
  -28.3811  -32.6924   25.0251 H   0  0  0  0  0  0
  -28.0770  -31.8418   26.5313 H   0  0  0  0  0  0
  -28.2621  -38.0107   24.7538 H   0  0  0  0  0  0
  -28.1074  -36.2643   24.6271 H   0  0  0  0  0  0
  -27.2316  -37.1445   25.8866 H   0  0  0  0  0  0
  -20.9251  -29.8700   21.6980 H   0  0  0  0  0  0
  -26.0202  -38.2902   24.1434 H   0  0  0  0  0  0
  -30.7109  -20.0848   18.1712 H   0  0  0  0  0  0
  -26.8710  -20.8079   19.7225 H   0  0  0  0  0  0
  -30.9313  -17.6602   17.3735 H   0  0  0  0  0  0
  -31.4757  -16.2670   18.2712 H   0  0  0  0  0  0
  -31.8871  -17.8811   18.8311 H   0  0  0  0  0  0
  -28.5286  -16.8629   17.5012 H   0  0  0  0  0  0
  -27.8195  -16.4103   19.0377 H   0  0  0  0  0  0
  -29.1180  -15.4444   18.3303 H   0  0  0  0  0  0
  -27.7994  -22.9445   20.1602 H   0  0  0  0  0  0
  -29.5343  -22.9882   20.3373 H   0  0  0  0  0  0
  -27.9235  -24.8188   18.5005 H   0  0  0  0  0  0
  -29.6471  -24.9249   18.7737 H   0  0  0  0  0  0
  -29.8276  -22.4371   17.9140 H   0  0  0  0  0  0
  -28.0835  -22.4331   17.6898 H   0  0  0  0  0  0
  -29.3816  -17.3720   21.3622 H   0  0  0  0  0  0
  -31.0701  -17.2072   21.0163 H   0  0  0  0  0  0
  -29.2706  -25.3750   21.1884 H   0  0  0  0  0  0
  -27.5420  -25.2218   20.9963 H   0  0  0  0  0  0
  -28.9908  -15.1757   21.2972 H   0  0  0  0  0  0
  1 25  1  0  0  0
  1 30  2  0  0  0
  1 84  1  0  0  0
  2  3  1  0  0  0
  2 25  1  0  0  0
  2 85  1  0  0  0
  2 86  1  0  0  0
  3  4  1  0  0  0
  3 87  1  0  0  0
  3 88  1  0  0  0
  4  5  1  0  0  0
  4 89  1  0  0  0
  4 90  1  0  0  0
  5  6  1  0  0  0
  5 26  1  0  0  0
  5 91  1  0  0  0
  6 25  1  0  0  0
  6 92  1  0  0  0
  6 93  1  0  0  0
  7  8  2  0  0  0
  7 26  1  0  0  0
  7 29  1  0  0  0
  8  9  1  0  0  0
  8 22  1  0  0  0
  9 10  1  0  0  0
  9 27  2  0  0  0
 10 11  2  0  0  0
 10 15  1  0  0  0
 11 12  1  0  0  0
 11 94  1  0  0  0
 12 13  2  0  0  0
 12 95  1  0  0  0
 13 14  1  0  0  0
 13 31  1  0  0  0
 14 15  2  0  0  0
 14 96  1  0  0  0
 15 97  1  0  0  0
 16 17  2  0  0  0
 16 21  1  0  0  0
 16 31  1  0  0  0
 17 18  1  0  0  0
 17 98  1  0  0  0
 18 19  2  0  0  0
 18 99  1  0  0  0
 19 20  1  0  0  0
 19 24  1  0  0  0
 20 21  2  0  0  0
 20100  1  0  0  0
 21 23  1  0  0  0
 22 28  1  0  0  0
 22 32  2  0  0  0
 26 27  1  0  0  0
 28101  1  0  0  0
 28102  1  0  0  0
 29103  1  0  0  0
 29104  1  0  0  0
 33 34  1  0  0  0
 33 66  1  0  0  0
 33 70  2  0  0  0
 34 36  1  0  0  0
 34 59  1  0  0  0
 34105  1  0  0  0
 35 44  2  0  0  0
 35 45  1  0  0  0
 35 68  1  0  0  0
 36 56  1  0  0  0
 36106  1  0  0  0
 37 39  1  0  0  0
 37 47  1  0  0  0
 37 66  1  0  0  0
 37107  1  0  0  0
 38 43  2  0  0  0
 38 46  1  0  0  0
 38 47  1  0  0  0
 39 64  1  0  0  0
 39 67  2  0  0  0
 40 52  1  0  0  0
 40 53  2  0  0  0
 40 58  1  0  0  0
 41108  1  0  0  0
 41109  1  0  0  0
 41110  1  0  0  0
 41 48  1  0  0  0
 42 43  1  0  0  0
 42 66  1  0  0  0
 42111  1  0  0  0
 42112  1  0  0  0
 43 44  1  0  0  0
 44113  1  0  0  0
 45 46  2  0  0  0
 45114  1  0  0  0
 46115  1  0  0  0
 47116  1  0  0  0
 47117  1  0  0  0
 48 56  1  0  0  0
 48 65  1  0  0  0
 48118  1  0  0  0
 49 50  1  0  0  0
 49 53  1  0  0  0
 49 64  1  0  0  0
 49119  1  0  0  0
 50 51  1  0  0  0
 50120  1  0  0  0
 50121  1  0  0  0
 51 52  1  0  0  0
 51122  1  0  0  0
 51123  1  0  0  0
 52124  1  0  0  0
 52125  1  0  0  0
 53 54  1  0  0  0
 54 55  2  0  0  0
 54126  1  0  0  0
 55 57  1  0  0  0
 55127  1  0  0  0
 56 69  2  0  0  0
 57 58  2  0  0  0
 57128  1  0  0  0
 58129  1  0  0  0
 59 60  1  0  0  0
 59 61  1  0  0  0
 59 62  1  0  0  0
 60130  1  0  0  0
 60131  1  0  0  0
 60132  1  0  0  0
 61133  1  0  0  0
 61134  1  0  0  0
 61135  1  0  0  0
 62136  1  0  0  0
 62137  1  0  0  0
 62138  1  0  0  0
 63 65  1  0  0  0
 63139  1  0  0  0
 63140  1  0  0  0
 63141  1  0  0  0
 64142  1  0  0  0
 65143  1  0  0  0
 68 80  1  0  0  0
 71 73  2  0  0  0
 71 83  1  0  0  0
 71144  1  0  0  0
 72 82  2  0  0  0
 72 83  1  0  0  0
 72145  1  0  0  0
 73 81  1  0  0  0
 73 82  1  0  0  0
 74146  1  0  0  0
 74147  1  0  0  0
 74148  1  0  0  0
 74 81  1  0  0  0
 75 81  1  0  0  0
 75149  1  0  0  0
 75150  1  0  0  0
 75151  1  0  0  0
 76 77  1  0  0  0
 76 78  1  0  0  0
 76152  1  0  0  0
 76153  1  0  0  0
 77 80  1  0  0  0
 77154  1  0  0  0
 77155  1  0  0  0
 78 83  1  0  0  0
 78156  1  0  0  0
 78157  1  0  0  0
 79 81  1  0  0  0
 79 84  1  0  0  0
 79158  1  0  0  0
 79159  1  0  0  0
 80160  1  0  0  0
 80161  1  0  0  0
 84162  1  0  0  0
M  ISO  4   1 100  68 101  80 101  84 100
M  END
> <chiral flag>
0

> <version>
0

> <s_m_source_file>
/data/baiqing/PycharmProjects/Reinvent-master-3.2/result/LINK_invent/BTK/process_docking_weight1_custom_sum_contain_oxygen_bond_distance_aromatic_linkinvent_7_9_3/rearranged_h_0078.sdf

> <i_m_source_file_index>
57

> <r_mmod_Potential_Energy-OPLS-2005>
-127.958290100098

> <r_mmod_Stretch_Energy-OPLS-2005>
31.085428237915

> <r_mmod_Bend_Energy-OPLS-2005>
105.89054107666

> <r_mmod_Torsional_Energy-OPLS-2005>
230.902908325195

> <r_mmod_Improper_Torsional_Energy-OPLS-2005>
5.70896148681641

> <r_mmod_Van_der_Waal_Energy-OPLS-2005>
137.414031982422

> <r_mmod_Electrostatic_Energy-OPLS-2005>
-442.732360839844

> <r_mmod_Solvation_Energy-OPLS-2005>
-209.003005981445

> <b_mmod_Minimization_Converged-OPLS-2005>
0

> <r_mmod_RMS_Derivative-OPLS-2005>
2.11580848693848

$$$$
57
                    3D
 Structure written by MMmdl.
171179  0  0  1  0            999 V2000
  -30.6584  -14.4925   20.5454 C   0  0  0  0  0  0
  -30.4171  -12.3114   19.4294 C   0  0  0  0  0  0
  -29.4891  -12.5133   18.2135 C   0  0  0  0  0  0
  -28.0107  -12.3716   18.6228 C   0  0  0  0  0  0
  -27.6561  -13.2075   19.8820 C   0  0  2  0  0  0
  -28.6942  -12.9887   21.0061 C   0  0  0  0  0  0
  -25.2578  -13.8152   20.5849 C   0  0  0  0  0  0
  -24.1815  -13.0416   20.9220 C   0  0  0  0  0  0
  -24.6363  -11.6885   20.8738 C   0  0  0  0  0  0
  -23.9053  -10.4279   21.0409 C   0  0  0  0  0  0
  -24.3605   -9.4190   21.9199 C   0  0  0  0  0  0
  -23.6275   -8.2241   22.0778 C   0  0  0  0  0  0
  -22.4265   -8.0287   21.3549 C   0  0  0  0  0  0
  -21.9906   -9.0249   20.4645 C   0  0  0  0  0  0
  -22.7237  -10.2129   20.3042 C   0  0  0  0  0  0
  -21.6849   -6.0745   22.5278 C   0  0  0  0  0  0
  -21.4005   -6.5639   23.8211 C   0  0  0  0  0  0
  -21.3665   -5.6784   24.9176 C   0  0  0  0  0  0
  -21.6046   -4.3059   24.7220 C   0  0  0  0  0  0
  -21.8825   -3.8145   23.4341 C   0  0  0  0  0  0
  -21.9185   -4.6961   22.3398 C   0  0  0  0  0  0
  -22.7841  -13.5226   21.1883 C   0  0  0  0  0  0
  -22.1660   -4.2152   21.0973 F   0  0  0  0  0  0
  -21.5635   -3.4535   25.7731 F   0  0  0  0  0  0
  -30.0230  -13.2931   20.4524 N   0  0  0  0  0  0
  -26.2987  -12.9327   20.3401 N   0  0  0  0  0  0
  -25.9282  -11.6480   20.5741 N   0  0  0  0  0  0
  -22.0486  -12.8162   22.0394 N   0  0  0  0  0  0
  -25.4297  -15.1876   20.4596 N   0  0  0  0  0  0
  -31.7980  -14.6771   20.1089 O   0  0  0  0  0  0
  -21.6621   -6.8888   21.4244 O   0  0  0  0  0  0
  -22.3530  -14.5558   20.6775 O   0  0  0  0  0  0
  -24.6159  -31.8672   23.2122 C   0  0  0  0  0  0
  -25.9043  -32.4812   23.8414 C   0  0  1  0  0  0
  -27.2219  -27.4200   20.1024 C   0  0  0  0  0  0
  -25.5927  -33.8620   24.2355 N   0  0  0  0  0  0
  -23.3992  -30.4937   21.5551 C   0  0  2  0  0  0
  -24.8395  -28.9577   20.1219 C   0  0  0  0  0  0
  -22.7366  -29.4685   22.5010 C   0  0  0  0  0  0
  -18.0249  -28.1349   22.8517 C   0  0  0  0  0  0
  -24.1496  -36.7297   23.2645 C   0  0  0  0  0  0
  -25.9287  -30.8316   21.3643 C   0  0  0  0  0  0
  -26.0022  -29.4646   20.7131 C   0  0  0  0  0  0
  -27.1949  -28.7053   20.6954 C   0  0  0  0  0  0
  -26.0303  -26.9225   19.5215 C   0  0  0  0  0  0
  -24.8488  -27.6856   19.5273 C   0  0  0  0  0  0
  -23.6032  -29.8267   20.1702 C   0  0  0  0  0  0
  -25.4118  -36.3114   24.0344 C   0  0  1  0  0  0
  -20.5835  -28.3661   23.1333 C   0  0  2  0  0  0
  -20.6753  -26.9403   22.5444 C   0  0  0  0  0  0
  -19.5732  -26.6376   21.5238 C   0  0  0  0  0  0
  -18.1898  -26.7907   22.1623 C   0  0  0  0  0  0
  -19.1499  -28.8815   23.2906 C   0  0  0  0  0  0
  -18.9438  -30.1429   23.8888 C   0  0  0  0  0  0
  -17.6447  -30.6573   24.0563 C   0  0  0  0  0  0
  -25.9041  -34.9476   23.5139 C   0  0  0  0  0  0
  -16.5328  -29.9074   23.6348 C   0  0  0  0  0  0
  -16.7248  -28.6491   23.0379 C   0  0  0  0  0  0
  -26.4497  -31.6568   25.0726 C   0  0  0  0  0  0
  -25.3787  -31.3574   26.1476 C   0  0  0  0  0  0
  -27.0442  -30.3061   24.6086 C   0  0  0  0  0  0
  -27.6027  -32.4317   25.7497 C   0  0  0  0  0  0
  -27.5589  -37.1809   24.8471 C   0  0  0  0  0  0
  -21.4096  -29.3031   22.3729 N   0  0  0  0  0  0
  -26.4296  -37.3802   23.9422 N   0  0  0  0  0  0
  -24.6661  -31.0773   22.1024 N   0  0  0  0  0  0
  -23.4124  -28.8233   23.3067 O   0  0  0  0  0  0
  -28.4091  -26.7099   20.1207 O   0  0  0  0  0  0
  -26.5569  -34.8916   22.4678 O   0  0  0  0  0  0
  -23.5354  -32.1447   23.7508 O   0  0  0  0  0  0
  -26.9239  -20.2769   18.6176 C   0  0  0  0  0  0
  -26.7747  -18.8868   18.3533 C   0  0  0  0  0  0
  -27.4705  -20.3613   19.8732 C   0  0  0  0  0  0
  -27.2415  -17.4375   16.3607 C   0  0  0  0  0  0
  -25.5032  -19.2379   16.2059 C   0  0  0  0  0  0
  -25.0535  -17.2213   17.6036 C   0  0  0  0  0  0
  -27.7316  -21.6088   20.6986 C   0  0  0  0  0  0
  -28.0807  -22.8641   19.8485 C   0  0  0  0  0  0
  -28.0444  -24.2512   20.5466 C   0  0  0  0  0  0
  -29.6367  -17.9961   21.5807 C   0  0  0  0  0  0
  -28.1598  -18.4890   21.5600 C   0  0  0  0  0  0
  -30.1096  -16.9333   20.5497 C   0  0  0  0  0  0
  -28.4718  -25.3842   19.5711 C   0  0  0  0  0  0
  -26.1531  -18.1984   17.1429 C   0  0  0  0  0  0
  -27.2616  -18.1629   19.3509 N   0  0  0  0  0  0
  -27.6799  -19.0422   20.2901 N   0  0  0  0  0  0
  -29.8772  -15.5256   20.9303 N   0  0  0  0  0  0
  -31.4610  -12.4169   19.1270 H   0  0  0  0  0  0
  -30.3201  -11.2986   19.8238 H   0  0  0  0  0  0
  -29.7302  -11.7941   17.4303 H   0  0  0  0  0  0
  -29.6530  -13.5009   17.7806 H   0  0  0  0  0  0
  -27.8198  -11.3157   18.8125 H   0  0  0  0  0  0
  -27.3612  -12.6520   17.7933 H   0  0  0  0  0  0
  -27.6964  -14.2562   19.5868 H   0  0  0  0  0  0
  -28.6678  -11.9557   21.3564 H   0  0  0  0  0  0
  -28.4624  -13.6002   21.8798 H   0  0  0  0  0  0
  -25.2756   -9.5667   22.4756 H   0  0  0  0  0  0
  -23.9989   -7.4636   22.7495 H   0  0  0  0  0  0
  -21.0860   -8.8767   19.8920 H   0  0  0  0  0  0
  -22.3723  -10.9671   19.6133 H   0  0  0  0  0  0
  -21.1992   -7.6149   23.9713 H   0  0  0  0  0  0
  -21.1494   -6.0520   25.9076 H   0  0  0  0  0  0
  -22.0594   -2.7604   23.2835 H   0  0  0  0  0  0
  -22.4094  -11.9760   22.4666 H   0  0  0  0  0  0
  -21.1114  -13.1168   22.2673 H   0  0  0  0  0  0
  -24.6568  -15.8316   20.5798 H   0  0  0  0  0  0
  -26.2689  -15.6504   20.1303 H   0  0  0  0  0  0
  -26.7094  -32.5545   23.1154 H   0  0  0  0  0  0
  -25.0177  -33.9788   25.0573 H   0  0  0  0  0  0
  -22.6908  -31.3124   21.4175 H   0  0  0  0  0  0
  -23.3797  -35.9591   23.3299 H   0  0  0  0  0  0
  -24.3566  -36.8952   22.2062 H   0  0  0  0  0  0
  -23.7220  -37.6478   23.6677 H   0  0  0  0  0  0
  -26.0367  -31.5952   20.5925 H   0  0  0  0  0  0
  -26.8173  -30.8855   21.9820 H   0  0  0  0  0  0
  -28.0944  -29.0997   21.1463 H   0  0  0  0  0  0
  -25.9744  -25.9442   19.0717 H   0  0  0  0  0  0
  -23.9468  -27.2834   19.0866 H   0  0  0  0  0  0
  -23.7028  -30.5991   19.4065 H   0  0  0  0  0  0
  -22.7276  -29.2429   19.8861 H   0  0  0  0  0  0
  -25.1291  -36.1993   25.0840 H   0  0  0  0  0  0
  -20.9897  -28.3254   24.1462 H   0  0  0  0  0  0
  -20.5701  -26.2266   23.3612 H   0  0  0  0  0  0
  -21.6631  -26.7463   22.1234 H   0  0  0  0  0  0
  -19.6908  -25.6303   21.1230 H   0  0  0  0  0  0
  -19.6666  -27.3198   20.6776 H   0  0  0  0  0  0
  -17.4194  -26.6700   21.3984 H   0  0  0  0  0  0
  -18.0239  -26.0002   22.8960 H   0  0  0  0  0  0
  -19.7924  -30.7248   24.2232 H   0  0  0  0  0  0
  -17.5020  -31.6247   24.5197 H   0  0  0  0  0  0
  -15.5336  -30.2984   23.7679 H   0  0  0  0  0  0
  -15.8646  -28.0812   22.7098 H   0  0  0  0  0  0
  -24.5981  -30.6902   25.7802 H   0  0  0  0  0  0
  -24.8935  -32.2688   26.4975 H   0  0  0  0  0  0
  -25.8191  -30.8719   27.0203 H   0  0  0  0  0  0
  -26.3040  -29.6656   24.1285 H   0  0  0  0  0  0
  -27.4473  -29.7409   25.4500 H   0  0  0  0  0  0
  -27.8706  -30.4462   23.9110 H   0  0  0  0  0  0
  -27.2645  -33.3647   26.2005 H   0  0  0  0  0  0
  -28.3873  -32.6832   25.0349 H   0  0  0  0  0  0
  -28.0653  -31.8503   26.5483 H   0  0  0  0  0  0
  -28.2586  -38.0135   24.7596 H   0  0  0  0  0  0
  -28.1140  -36.2669   24.6267 H   0  0  0  0  0  0
  -27.2281  -37.1424   25.8867 H   0  0  0  0  0  0
  -20.9230  -29.8771   21.6983 H   0  0  0  0  0  0
  -26.0206  -38.2887   24.1458 H   0  0  0  0  0  0
  -26.6196  -21.1002   17.9849 H   0  0  0  0  0  0
  -28.0065  -18.1199   15.9885 H   0  0  0  0  0  0
  -26.8285  -16.9069   15.5021 H   0  0  0  0  0  0
  -27.7396  -16.6987   16.9902 H   0  0  0  0  0  0
  -26.2397  -19.9407   15.8161 H   0  0  0  0  0  0
  -24.7356  -19.8154   16.7226 H   0  0  0  0  0  0
  -25.0264  -18.7621   15.3482 H   0  0  0  0  0  0
  -25.4855  -16.4006   18.1714 H   0  0  0  0  0  0
  -24.5150  -16.7735   16.7681 H   0  0  0  0  0  0
  -24.3223  -17.7168   18.2444 H   0  0  0  0  0  0
  -28.5277  -21.4285   21.4206 H   0  0  0  0  0  0
  -26.8387  -21.8174   21.2900 H   0  0  0  0  0  0
  -27.3816  -22.9288   19.0170 H   0  0  0  0  0  0
  -29.0632  -22.7079   19.4028 H   0  0  0  0  0  0
  -28.7003  -24.2561   21.4177 H   0  0  0  0  0  0
  -27.0410  -24.4474   20.9243 H   0  0  0  0  0  0
  -29.8750  -17.6395   22.5836 H   0  0  0  0  0  0
  -30.2618  -18.8802   21.4454 H   0  0  0  0  0  0
  -28.0229  -19.2473   22.3321 H   0  0  0  0  0  0
  -27.4983  -17.6696   21.8441 H   0  0  0  0  0  0
  -31.1814  -17.0872   20.4059 H   0  0  0  0  0  0
  -29.6640  -17.1109   19.5703 H   0  0  0  0  0  0
  -27.9384  -25.3169   18.6236 H   0  0  0  0  0  0
  -29.5130  -25.2204   19.2973 H   0  0  0  0  0  0
  -28.9542  -15.2848   21.2617 H   0  0  0  0  0  0
  1 25  1  0  0  0
  1 30  2  0  0  0
  1 87  1  0  0  0
  2  3  1  0  0  0
  2 25  1  0  0  0
  2 88  1  0  0  0
  2 89  1  0  0  0
  3  4  1  0  0  0
  3 90  1  0  0  0
  3 91  1  0  0  0
  4  5  1  0  0  0
  4 92  1  0  0  0
  4 93  1  0  0  0
  5  6  1  0  0  0
  5 26  1  0  0  0
  5 94  1  0  0  0
  6 25  1  0  0  0
  6 95  1  0  0  0
  6 96  1  0  0  0
  7  8  2  0  0  0
  7 26  1  0  0  0
  7 29  1  0  0  0
  8  9  1  0  0  0
  8 22  1  0  0  0
  9 10  1  0  0  0
  9 27  2  0  0  0
 10 11  2  0  0  0
 10 15  1  0  0  0
 11 12  1  0  0  0
 11 97  1  0  0  0
 12 13  2  0  0  0
 12 98  1  0  0  0
 13 14  1  0  0  0
 13 31  1  0  0  0
 14 15  2  0  0  0
 14 99  1  0  0  0
 15100  1  0  0  0
 16 17  2  0  0  0
 16 21  1  0  0  0
 16 31  1  0  0  0
 17 18  1  0  0  0
 17101  1  0  0  0
 18 19  2  0  0  0
 18102  1  0  0  0
 19 20  1  0  0  0
 19 24  1  0  0  0
 20 21  2  0  0  0
 20103  1  0  0  0
 21 23  1  0  0  0
 22 28  1  0  0  0
 22 32  2  0  0  0
 26 27  1  0  0  0
 28104  1  0  0  0
 28105  1  0  0  0
 29106  1  0  0  0
 29107  1  0  0  0
 33 34  1  0  0  0
 33 66  1  0  0  0
 33 70  2  0  0  0
 34 36  1  0  0  0
 34 59  1  0  0  0
 34108  1  0  0  0
 35 44  2  0  0  0
 35 45  1  0  0  0
 35 68  1  0  0  0
 36 56  1  0  0  0
 36109  1  0  0  0
 37 39  1  0  0  0
 37 47  1  0  0  0
 37 66  1  0  0  0
 37110  1  0  0  0
 38 43  2  0  0  0
 38 46  1  0  0  0
 38 47  1  0  0  0
 39 64  1  0  0  0
 39 67  2  0  0  0
 40 52  1  0  0  0
 40 53  2  0  0  0
 40 58  1  0  0  0
 41111  1  0  0  0
 41112  1  0  0  0
 41113  1  0  0  0
 41 48  1  0  0  0
 42 43  1  0  0  0
 42 66  1  0  0  0
 42114  1  0  0  0
 42115  1  0  0  0
 43 44  1  0  0  0
 44116  1  0  0  0
 45 46  2  0  0  0
 45117  1  0  0  0
 46118  1  0  0  0
 47119  1  0  0  0
 47120  1  0  0  0
 48 56  1  0  0  0
 48 65  1  0  0  0
 48121  1  0  0  0
 49 50  1  0  0  0
 49 53  1  0  0  0
 49 64  1  0  0  0
 49122  1  0  0  0
 50 51  1  0  0  0
 50123  1  0  0  0
 50124  1  0  0  0
 51 52  1  0  0  0
 51125  1  0  0  0
 51126  1  0  0  0
 52127  1  0  0  0
 52128  1  0  0  0
 53 54  1  0  0  0
 54 55  2  0  0  0
 54129  1  0  0  0
 55 57  1  0  0  0
 55130  1  0  0  0
 56 69  2  0  0  0
 57 58  2  0  0  0
 57131  1  0  0  0
 58132  1  0  0  0
 59 60  1  0  0  0
 59 61  1  0  0  0
 59 62  1  0  0  0
 60133  1  0  0  0
 60134  1  0  0  0
 60135  1  0  0  0
 61136  1  0  0  0
 61137  1  0  0  0
 61138  1  0  0  0
 62139  1  0  0  0
 62140  1  0  0  0
 62141  1  0  0  0
 63 65  1  0  0  0
 63142  1  0  0  0
 63143  1  0  0  0
 63144  1  0  0  0
 64145  1  0  0  0
 65146  1  0  0  0
 68 83  1  0  0  0
 71 72  1  0  0  0
 71 73  2  0  0  0
 71147  1  0  0  0
 72 84  1  0  0  0
 72 85  2  0  0  0
 73 77  1  0  0  0
 73 86  1  0  0  0
 74148  1  0  0  0
 74149  1  0  0  0
 74150  1  0  0  0
 74 84  1  0  0  0
 75 84  1  0  0  0
 75151  1  0  0  0
 75152  1  0  0  0
 75153  1  0  0  0
 76 84  1  0  0  0
 76154  1  0  0  0
 76155  1  0  0  0
 76156  1  0  0  0
 77 78  1  0  0  0
 77157  1  0  0  0
 77158  1  0  0  0
 78 79  1  0  0  0
 78159  1  0  0  0
 78160  1  0  0  0
 79 83  1  0  0  0
 79161  1  0  0  0
 79162  1  0  0  0
 80 81  1  0  0  0
 80 82  1  0  0  0
 80163  1  0  0  0
 80164  1  0  0  0
 81 86  1  0  0  0
 81165  1  0  0  0
 81166  1  0  0  0
 82 87  1  0  0  0
 82167  1  0  0  0
 82168  1  0  0  0
 83169  1  0  0  0
 83170  1  0  0  0
 85 86  1  0  0  0
 87171  1  0  0  0
M  ISO  4   1 100  68 101  83 101  87 100
M  END
> <chiral flag>
0

> <version>
0

> <s_m_source_file>
/data/baiqing/PycharmProjects/Reinvent-master-3.2/result/LINK_invent/BTK/process_docking_weight1_custom_sum_contain_oxygen_bond_distance_aromatic_linkinvent_7_9_3/rearranged_h_0078.sdf

> <i_m_source_file_index>
58

> <r_mmod_Potential_Energy-OPLS-2005>
-140.003524780273

> <r_mmod_Stretch_Energy-OPLS-2005>
39.6852836608887

> <r_mmod_Bend_Energy-OPLS-2005>
118.110176086426

> <r_mmod_Torsional_Energy-OPLS-2005>
204.678176879883

> <r_mmod_Improper_Torsional_Energy-OPLS-2005>
6.52910089492798

> <r_mmod_Van_der_Waal_Energy-OPLS-2005>
123.275741577148

> <r_mmod_Electrostatic_Energy-OPLS-2005>
-455.050415039062

> <r_mmod_Solvation_Energy-OPLS-2005>
-192.587005615234

> <b_mmod_Minimization_Converged-OPLS-2005>
0

> <r_mmod_RMS_Derivative-OPLS-2005>
3.48769211769104

$$$$
58
                    3D
 Structure written by MMmdl.
159167  0  0  1  0            999 V2000
  -30.7723  -14.3635   20.6831 C   0  0  0  0  0  0
  -30.4150  -12.2960   19.3880 C   0  0  0  0  0  0
  -29.4763  -12.5251   18.1896 C   0  0  0  0  0  0
  -28.0032  -12.3662   18.6106 C   0  0  0  0  0  0
  -27.6609  -13.1959   19.8745 C   0  0  2  0  0  0
  -28.7027  -12.9483   20.9884 C   0  0  0  0  0  0
  -25.2576  -13.8131   20.5668 C   0  0  0  0  0  0
  -24.1813  -13.0430   20.9168 C   0  0  0  0  0  0
  -24.6359  -11.6891   20.8751 C   0  0  0  0  0  0
  -23.9022  -10.4289   21.0425 C   0  0  0  0  0  0
  -24.3588   -9.4206   21.9199 C   0  0  0  0  0  0
  -23.6280   -8.2229   22.0753 C   0  0  0  0  0  0
  -22.4267   -8.0265   21.3530 C   0  0  0  0  0  0
  -21.9889   -9.0240   20.4638 C   0  0  0  0  0  0
  -22.7200  -10.2130   20.3060 C   0  0  0  0  0  0
  -21.6839   -6.0732   22.5279 C   0  0  0  0  0  0
  -21.4005   -6.5640   23.8217 C   0  0  0  0  0  0
  -21.3659   -5.6794   24.9176 C   0  0  0  0  0  0
  -21.6050   -4.3058   24.7226 C   0  0  0  0  0  0
  -21.8817   -3.8146   23.4352 C   0  0  0  0  0  0
  -21.9184   -4.6962   22.3405 C   0  0  0  0  0  0
  -22.7835  -13.5234   21.1855 C   0  0  0  0  0  0
  -22.1663   -4.2153   21.0984 F   0  0  0  0  0  0
  -21.5637   -3.4541   25.7740 F   0  0  0  0  0  0
  -30.0438  -13.2414   20.4502 N   0  0  0  0  0  0
  -26.3007  -12.9284   20.3374 N   0  0  0  0  0  0
  -25.9277  -11.6454   20.5767 N   0  0  0  0  0  0
  -22.0484  -12.8227   22.0423 N   0  0  0  0  0  0
  -25.4331  -15.1854   20.4106 N   0  0  0  0  0  0
  -31.8208  -14.6324   20.0933 O   0  0  0  0  0  0
  -21.6632   -6.8866   21.4230 O   0  0  0  0  0  0
  -22.3533  -14.5555   20.6725 O   0  0  0  0  0  0
  -24.6114  -31.8719   23.2134 C   0  0  0  0  0  0
  -25.9026  -32.4834   23.8422 C   0  0  1  0  0  0
  -27.2414  -27.4681   20.0702 C   0  0  0  0  0  0
  -25.5892  -33.8630   24.2350 N   0  0  0  0  0  0
  -23.3961  -30.4971   21.5545 C   0  0  2  0  0  0
  -24.8390  -28.9633   20.1199 C   0  0  0  0  0  0
  -22.7392  -29.4695   22.5025 C   0  0  0  0  0  0
  -18.0280  -28.1350   22.8555 C   0  0  0  0  0  0
  -24.1488  -36.7322   23.2640 C   0  0  0  0  0  0
  -25.9227  -30.8440   21.3624 C   0  0  0  0  0  0
  -25.9977  -29.4793   20.7115 C   0  0  0  0  0  0
  -27.1962  -28.7364   20.6872 C   0  0  0  0  0  0
  -26.0590  -26.9558   19.4850 C   0  0  0  0  0  0
  -24.8628  -27.6973   19.5101 C   0  0  0  0  0  0
  -23.6010  -29.8289   20.1697 C   0  0  0  0  0  0
  -25.4105  -36.3122   24.0349 C   0  0  1  0  0  0
  -20.5867  -28.3630   23.1341 C   0  0  2  0  0  0
  -20.6817  -26.9400   22.5342 C   0  0  0  0  0  0
  -19.5708  -26.6389   21.5222 C   0  0  0  0  0  0
  -18.1931  -26.7881   22.1738 C   0  0  0  0  0  0
  -19.1531  -28.8807   23.2944 C   0  0  0  0  0  0
  -18.9466  -30.1444   23.8889 C   0  0  0  0  0  0
  -17.6460  -30.6565   24.0563 C   0  0  0  0  0  0
  -25.9029  -34.9485   23.5145 C   0  0  0  0  0  0
  -16.5349  -29.9057   23.6359 C   0  0  0  0  0  0
  -16.7273  -28.6479   23.0386 C   0  0  0  0  0  0
  -26.4453  -31.6594   25.0740 C   0  0  0  0  0  0
  -25.3722  -31.3674   26.1493 C   0  0  0  0  0  0
  -27.0295  -30.3051   24.6079 C   0  0  0  0  0  0
  -27.6038  -32.4305   25.7483 C   0  0  0  0  0  0
  -27.5586  -37.1816   24.8469 C   0  0  0  0  0  0
  -21.4110  -29.3059   22.3803 N   0  0  0  0  0  0
  -26.4300  -37.3799   23.9414 N   0  0  0  0  0  0
  -24.6615  -31.0859   22.1014 N   0  0  0  0  0  0
  -23.4190  -28.8244   23.3049 O   0  0  0  0  0  0
  -28.4526  -26.8087   20.0597 O   0  0  0  0  0  0
  -26.5585  -34.8933   22.4702 O   0  0  0  0  0  0
  -23.5315  -32.1455   23.7552 O   0  0  0  0  0  0
  -29.1423  -19.9410   21.4398 C   0  0  0  0  0  0
  -28.0497  -20.6087   20.9609 C   0  0  0  0  0  0
  -27.3593  -19.6234   20.1981 C   0  0  0  0  0  0
  -26.0833  -19.7781   19.4227 C   0  0  0  0  0  0
  -27.6635  -22.0423   21.2062 C   0  0  0  0  0  0
  -28.2641  -23.0073   20.1725 C   0  0  0  0  0  0
  -28.0003  -24.4700   20.5624 C   0  0  0  0  0  0
  -30.0113  -17.5570   21.2481 C   0  0  0  0  0  0
  -29.3523  -16.1790   21.4730 C   0  0  0  0  0  0
  -28.5458  -25.4840   19.5447 C   0  0  0  0  0  0
  -27.9786  -18.4509   20.2150 N   0  0  0  0  0  0
  -29.0594  -18.6341   21.0095 N   0  0  0  0  0  0
  -30.3578  -15.1356   21.6910 N   0  0  0  0  0  0
  -31.4559  -12.4012   19.0783 H   0  0  0  0  0  0
  -30.3245  -11.2737   19.7587 H   0  0  0  0  0  0
  -29.7121  -11.8257   17.3872 H   0  0  0  0  0  0
  -29.6344  -13.5255   17.7833 H   0  0  0  0  0  0
  -27.8188  -11.3079   18.7994 H   0  0  0  0  0  0
  -27.3457  -12.6454   17.7876 H   0  0  0  0  0  0
  -27.7079  -14.2430   19.5832 H   0  0  0  0  0  0
  -28.6704  -11.9065   21.3088 H   0  0  0  0  0  0
  -28.4555  -13.5297   21.8764 H   0  0  0  0  0  0
  -25.2730   -9.5694   22.4772 H   0  0  0  0  0  0
  -24.0011   -7.4609   22.7454 H   0  0  0  0  0  0
  -21.0831   -8.8744   19.8928 H   0  0  0  0  0  0
  -22.3659  -10.9678   19.6176 H   0  0  0  0  0  0
  -21.1998   -7.6149   23.9727 H   0  0  0  0  0  0
  -21.1487   -6.0521   25.9088 H   0  0  0  0  0  0
  -22.0599   -2.7610   23.2844 H   0  0  0  0  0  0
  -22.4100  -11.9864   22.4767 H   0  0  0  0  0  0
  -21.1104  -13.1251   22.2678 H   0  0  0  0  0  0
  -24.6762  -15.8486   20.5281 H   0  0  0  0  0  0
  -26.2992  -15.6255   20.1257 H   0  0  0  0  0  0
  -26.7095  -32.5559   23.1188 H   0  0  0  0  0  0
  -25.0052  -33.9784   25.0503 H   0  0  0  0  0  0
  -22.6812  -31.3107   21.4176 H   0  0  0  0  0  0
  -23.3749  -35.9658   23.3315 H   0  0  0  0  0  0
  -24.3575  -36.8919   22.2050 H   0  0  0  0  0  0
  -23.7239  -37.6535   23.6637 H   0  0  0  0  0  0
  -26.0329  -31.6132   20.5962 H   0  0  0  0  0  0
  -26.8092  -30.8943   21.9828 H   0  0  0  0  0  0
  -28.0933  -29.1401   21.1355 H   0  0  0  0  0  0
  -26.0370  -25.9938   18.9959 H   0  0  0  0  0  0
  -23.9707  -27.2942   19.0504 H   0  0  0  0  0  0
  -23.7069  -30.6039   19.4090 H   0  0  0  0  0  0
  -22.7238  -29.2495   19.8755 H   0  0  0  0  0  0
  -25.1278  -36.1992   25.0842 H   0  0  0  0  0  0
  -20.9955  -28.3117   24.1459 H   0  0  0  0  0  0
  -20.5901  -26.2176   23.3476 H   0  0  0  0  0  0
  -21.6652  -26.7578   22.0982 H   0  0  0  0  0  0
  -19.6547  -27.3231   20.6769 H   0  0  0  0  0  0
  -19.6843  -25.6337   21.1146 H   0  0  0  0  0  0
  -17.4124  -26.6521   21.4239 H   0  0  0  0  0  0
  -18.0407  -26.0080   22.9211 H   0  0  0  0  0  0
  -19.7932  -30.7297   24.2204 H   0  0  0  0  0  0
  -17.5017  -31.6263   24.5110 H   0  0  0  0  0  0
  -15.5351  -30.2971   23.7656 H   0  0  0  0  0  0
  -15.8682  -28.0814   22.7047 H   0  0  0  0  0  0
  -24.5891  -30.7019   25.7835 H   0  0  0  0  0  0
  -24.8915  -32.2821   26.4976 H   0  0  0  0  0  0
  -25.8089  -30.8822   27.0230 H   0  0  0  0  0  0
  -26.2849  -29.6804   24.1129 H   0  0  0  0  0  0
  -27.4095  -29.7278   25.4519 H   0  0  0  0  0  0
  -27.8663  -30.4410   23.9220 H   0  0  0  0  0  0
  -27.2665  -33.3593   26.2090 H   0  0  0  0  0  0
  -28.3814  -32.6867   25.0277 H   0  0  0  0  0  0
  -28.0736  -31.8404   26.5359 H   0  0  0  0  0  0
  -28.2612  -38.0106   24.7507 H   0  0  0  0  0  0
  -28.1070  -36.2634   24.6303 H   0  0  0  0  0  0
  -27.2301  -37.1483   25.8872 H   0  0  0  0  0  0
  -20.9218  -29.8781   21.7065 H   0  0  0  0  0  0
  -26.0197  -38.2889   24.1382 H   0  0  0  0  0  0
  -29.9598  -20.2858   22.0572 H   0  0  0  0  0  0
  -25.6267  -18.8143   19.1999 H   0  0  0  0  0  0
  -26.2625  -20.2915   18.4776 H   0  0  0  0  0  0
  -25.3489  -20.3602   19.9774 H   0  0  0  0  0  0
  -27.9891  -22.3468   22.2016 H   0  0  0  0  0  0
  -26.5780  -22.1530   21.2069 H   0  0  0  0  0  0
  -27.8519  -22.8019   19.1833 H   0  0  0  0  0  0
  -29.3406  -22.8452   20.0991 H   0  0  0  0  0  0
  -28.4618  -24.6670   21.5312 H   0  0  0  0  0  0
  -26.9301  -24.6202   20.7046 H   0  0  0  0  0  0
  -30.6976  -17.5241   20.4007 H   0  0  0  0  0  0
  -30.6089  -17.8245   22.1220 H   0  0  0  0  0  0
  -28.7263  -15.9321   20.6155 H   0  0  0  0  0  0
  -28.6849  -16.2168   22.3341 H   0  0  0  0  0  0
  -29.6053  -25.2873   19.3748 H   0  0  0  0  0  0
  -28.0686  -25.3879   18.5694 H   0  0  0  0  0  0
  -31.1400  -15.4983   22.2160 H   0  0  0  0  0  0
  1 25  1  0  0  0
  1 30  2  0  0  0
  1 83  1  0  0  0
  2  3  1  0  0  0
  2 25  1  0  0  0
  2 84  1  0  0  0
  2 85  1  0  0  0
  3  4  1  0  0  0
  3 86  1  0  0  0
  3 87  1  0  0  0
  4  5  1  0  0  0
  4 88  1  0  0  0
  4 89  1  0  0  0
  5  6  1  0  0  0
  5 26  1  0  0  0
  5 90  1  0  0  0
  6 25  1  0  0  0
  6 91  1  0  0  0
  6 92  1  0  0  0
  7  8  2  0  0  0
  7 26  1  0  0  0
  7 29  1  0  0  0
  8  9  1  0  0  0
  8 22  1  0  0  0
  9 10  1  0  0  0
  9 27  2  0  0  0
 10 11  2  0  0  0
 10 15  1  0  0  0
 11 12  1  0  0  0
 11 93  1  0  0  0
 12 13  2  0  0  0
 12 94  1  0  0  0
 13 14  1  0  0  0
 13 31  1  0  0  0
 14 15  2  0  0  0
 14 95  1  0  0  0
 15 96  1  0  0  0
 16 17  2  0  0  0
 16 21  1  0  0  0
 16 31  1  0  0  0
 17 18  1  0  0  0
 17 97  1  0  0  0
 18 19  2  0  0  0
 18 98  1  0  0  0
 19 20  1  0  0  0
 19 24  1  0  0  0
 20 21  2  0  0  0
 20 99  1  0  0  0
 21 23  1  0  0  0
 22 28  1  0  0  0
 22 32  2  0  0  0
 26 27  1  0  0  0
 28100  1  0  0  0
 28101  1  0  0  0
 29102  1  0  0  0
 29103  1  0  0  0
 33 34  1  0  0  0
 33 66  1  0  0  0
 33 70  2  0  0  0
 34 36  1  0  0  0
 34 59  1  0  0  0
 34104  1  0  0  0
 35 44  2  0  0  0
 35 45  1  0  0  0
 35 68  1  0  0  0
 36 56  1  0  0  0
 36105  1  0  0  0
 37 39  1  0  0  0
 37 47  1  0  0  0
 37 66  1  0  0  0
 37106  1  0  0  0
 38 43  2  0  0  0
 38 46  1  0  0  0
 38 47  1  0  0  0
 39 64  1  0  0  0
 39 67  2  0  0  0
 40 52  1  0  0  0
 40 53  2  0  0  0
 40 58  1  0  0  0
 41107  1  0  0  0
 41108  1  0  0  0
 41109  1  0  0  0
 41 48  1  0  0  0
 42 43  1  0  0  0
 42 66  1  0  0  0
 42110  1  0  0  0
 42111  1  0  0  0
 43 44  1  0  0  0
 44112  1  0  0  0
 45 46  2  0  0  0
 45113  1  0  0  0
 46114  1  0  0  0
 47115  1  0  0  0
 47116  1  0  0  0
 48 56  1  0  0  0
 48 65  1  0  0  0
 48117  1  0  0  0
 49 50  1  0  0  0
 49 53  1  0  0  0
 49 64  1  0  0  0
 49118  1  0  0  0
 50 51  1  0  0  0
 50119  1  0  0  0
 50120  1  0  0  0
 51 52  1  0  0  0
 51121  1  0  0  0
 51122  1  0  0  0
 52123  1  0  0  0
 52124  1  0  0  0
 53 54  1  0  0  0
 54 55  2  0  0  0
 54125  1  0  0  0
 55 57  1  0  0  0
 55126  1  0  0  0
 56 69  2  0  0  0
 57 58  2  0  0  0
 57127  1  0  0  0
 58128  1  0  0  0
 59 60  1  0  0  0
 59 61  1  0  0  0
 59 62  1  0  0  0
 60129  1  0  0  0
 60130  1  0  0  0
 60131  1  0  0  0
 61132  1  0  0  0
 61133  1  0  0  0
 61134  1  0  0  0
 62135  1  0  0  0
 62136  1  0  0  0
 62137  1  0  0  0
 63 65  1  0  0  0
 63138  1  0  0  0
 63139  1  0  0  0
 63140  1  0  0  0
 64141  1  0  0  0
 65142  1  0  0  0
 68 80  1  0  0  0
 71 72  2  0  0  0
 71 82  1  0  0  0
 71143  1  0  0  0
 72 73  1  0  0  0
 72 75  1  0  0  0
 73 74  1  0  0  0
 73 81  2  0  0  0
 74144  1  0  0  0
 74145  1  0  0  0
 74146  1  0  0  0
 75 76  1  0  0  0
 75147  1  0  0  0
 75148  1  0  0  0
 76 77  1  0  0  0
 76149  1  0  0  0
 76150  1  0  0  0
 77 80  1  0  0  0
 77151  1  0  0  0
 77152  1  0  0  0
 78 79  1  0  0  0
 78 82  1  0  0  0
 78153  1  0  0  0
 78154  1  0  0  0
 79 83  1  0  0  0
 79155  1  0  0  0
 79156  1  0  0  0
 80157  1  0  0  0
 80158  1  0  0  0
 81 82  1  0  0  0
 83159  1  0  0  0
M  ISO  4   1 100  68 101  80 101  83 100
M  END
> <chiral flag>
0

> <version>
0

> <s_m_source_file>
/data/baiqing/PycharmProjects/Reinvent-master-3.2/result/LINK_invent/BTK/process_docking_weight1_custom_sum_contain_oxygen_bond_distance_aromatic_linkinvent_7_9_3/rearranged_h_0078.sdf

> <i_m_source_file_index>
59

> <r_mmod_Potential_Energy-OPLS-2005>
-99.3492889404297

> <r_mmod_Stretch_Energy-OPLS-2005>
30.0498332977295

> <r_mmod_Bend_Energy-OPLS-2005>
99.7300033569336

> <r_mmod_Torsional_Energy-OPLS-2005>
248.545776367188

> <r_mmod_Improper_Torsional_Energy-OPLS-2005>
7.09808540344238

> <r_mmod_Van_der_Waal_Energy-OPLS-2005>
125.831840515137

> <r_mmod_Electrostatic_Energy-OPLS-2005>
-408.575836181641

> <r_mmod_Solvation_Energy-OPLS-2005>
-210.432098388672

> <b_mmod_Minimization_Converged-OPLS-2005>
0

> <r_mmod_RMS_Derivative-OPLS-2005>
2.51480627059937

$$$$
59
                    3D
 Structure written by MMmdl.
153161  0  0  1  0            999 V2000
  -30.6211  -14.7802   20.5305 C   0  0  0  0  0  0
  -30.4336  -12.4779   19.4979 C   0  0  0  0  0  0
  -29.5340  -12.4361   18.2360 C   0  0  0  0  0  0
  -28.0591  -12.8218   18.4962 C   0  0  0  0  0  0
  -27.7065  -12.7475   19.9811 C   0  0  2  0  0  0
  -28.7010  -13.2336   21.0354 C   0  0  0  0  0  0
  -25.3062  -13.7487   20.5447 C   0  0  0  0  0  0
  -24.1827  -13.0372   20.9032 C   0  0  0  0  0  0
  -24.5704  -11.6690   20.8819 C   0  0  0  0  0  0
  -23.8394  -10.4246   21.0616 C   0  0  0  0  0  0
  -24.3199   -9.4211   21.9278 C   0  0  0  0  0  0
  -23.6109   -8.2133   22.0749 C   0  0  0  0  0  0
  -22.4108   -8.0117   21.3513 C   0  0  0  0  0  0
  -21.9622   -9.0030   20.4612 C   0  0  0  0  0  0
  -22.6692  -10.2046   20.3160 C   0  0  0  0  0  0
  -21.6781   -6.0657   22.5272 C   0  0  0  0  0  0
  -21.3961   -6.5601   23.8196 C   0  0  0  0  0  0
  -21.3657   -5.6770   24.9181 C   0  0  0  0  0  0
  -21.6070   -4.3030   24.7221 C   0  0  0  0  0  0
  -21.8834   -3.8094   23.4347 C   0  0  0  0  0  0
  -21.9185   -4.6902   22.3403 C   0  0  0  0  0  0
  -22.7993  -13.5568   21.1831 C   0  0  0  0  0  0
  -22.1667   -4.2103   21.0975 F   0  0  0  0  0  0
  -21.5651   -3.4512   25.7736 F   0  0  0  0  0  0
  -29.9881  -13.5605   20.4108 N   0  0  0  0  0  0
  -26.2985  -12.7821   20.3545 N   0  0  0  0  0  0
  -25.8290  -11.5491   20.5737 N   0  0  0  0  0  0
  -22.0577  -12.8565   22.0355 N   0  0  0  0  0  0
  -25.5494  -15.1055   20.3711 N   0  0  0  0  0  0
  -31.7722  -14.8953   20.1040 O   0  0  0  0  0  0
  -21.6566   -6.8697   21.4186 O   0  0  0  0  0  0
  -22.3804  -14.5989   20.6875 O   0  0  0  0  0  0
  -24.6277  -31.8577   23.2006 C   0  0  0  0  0  0
  -25.9123  -32.4767   23.8343 C   0  0  1  0  0  0
  -27.2342  -27.2942   20.1179 C   0  0  0  0  0  0
  -25.5934  -33.8569   24.2256 N   0  0  0  0  0  0
  -23.4209  -30.4801   21.5435 C   0  0  2  0  0  0
  -24.8725  -28.9286   20.1145 C   0  0  0  0  0  0
  -22.7480  -29.4607   22.4923 C   0  0  0  0  0  0
  -18.0285  -28.1385   22.8487 C   0  0  0  0  0  0
  -24.1484  -36.7302   23.2640 C   0  0  0  0  0  0
  -25.9636  -30.7791   21.3756 C   0  0  0  0  0  0
  -26.0428  -29.4032   20.7207 C   0  0  0  0  0  0
  -27.2248  -28.5973   20.7133 C   0  0  0  0  0  0
  -26.0376  -26.8794   19.4886 C   0  0  0  0  0  0
  -24.8738  -27.6725   19.4911 C   0  0  0  0  0  0
  -23.6409  -29.8126   20.1607 C   0  0  0  0  0  0
  -25.4109  -36.3063   24.0315 C   0  0  1  0  0  0
  -20.5885  -28.3689   23.1282 C   0  0  2  0  0  0
  -20.6768  -26.9408   22.5415 C   0  0  0  0  0  0
  -19.5750  -26.6374   21.5215 C   0  0  0  0  0  0
  -18.1927  -26.7928   22.1627 C   0  0  0  0  0  0
  -19.1536  -28.8853   23.2884 C   0  0  0  0  0  0
  -18.9470  -30.1456   23.8891 C   0  0  0  0  0  0
  -17.6472  -30.6588   24.0561 C   0  0  0  0  0  0
  -25.9055  -34.9438   23.5087 C   0  0  0  0  0  0
  -16.5356  -29.9090   23.6334 C   0  0  0  0  0  0
  -16.7273  -28.6509   23.0348 C   0  0  0  0  0  0
  -26.4495  -31.6593   25.0727 C   0  0  0  0  0  0
  -25.3729  -31.3762   26.1458 C   0  0  0  0  0  0
  -27.0351  -30.3015   24.6198 C   0  0  0  0  0  0
  -27.6029  -32.4339   25.7530 C   0  0  0  0  0  0
  -27.5562  -37.1823   24.8462 C   0  0  0  0  0  0
  -21.4187  -29.3047   22.3686 N   0  0  0  0  0  0
  -26.4283  -37.3764   23.9393 N   0  0  0  0  0  0
  -24.6887  -31.0562   22.0960 N   0  0  0  0  0  0
  -23.4199  -28.8152   23.3005 O   0  0  0  0  0  0
  -28.3551  -26.4346   20.1521 O   0  0  0  0  0  0
  -26.5619  -34.8907   22.4644 O   0  0  0  0  0  0
  -23.5446  -32.1371   23.7337 O   0  0  0  0  0  0
  -29.3457  -18.6040   20.2922 C   0  0  0  0  0  0
  -30.1733  -17.5718   20.7473 C   0  0  0  0  0  0
  -29.8688  -15.9635   22.6745 C   0  0  0  0  0  0
  -29.1610  -22.3861   20.6948 C   0  0  0  0  0  0
  -29.3763  -23.9376   20.2712 C   0  0  0  0  0  0
  -29.8097  -21.2157   19.8095 C   0  0  0  0  0  0
  -28.1433  -24.9543   20.1044 C   0  0  0  0  0  0
  -29.8508  -16.0661   21.1355 C   0  0  2  0  0  0
  -31.3805  -18.2140   21.0634 N   0  0  0  0  0  0
  -31.3145  -19.5035   20.8185 N   0  0  0  0  0  0
  -30.0749  -19.8129   20.3476 N   0  0  0  0  0  0
  -31.4862  -12.5709   19.2232 H   0  0  0  0  0  0
  -30.3535  -11.5251   20.0240 H   0  0  0  0  0  0
  -29.5770  -11.4191   17.8437 H   0  0  0  0  0  0
  -29.9468  -13.0652   17.4503 H   0  0  0  0  0  0
  -27.3988  -12.1925   17.8953 H   0  0  0  0  0  0
  -27.8970  -13.8460   18.1593 H   0  0  0  0  0  0
  -27.9639  -11.6854   20.0727 H   0  0  0  0  0  0
  -28.8581  -12.4554   21.7825 H   0  0  0  0  0  0
  -28.2486  -14.0483   21.5886 H   0  0  0  0  0  0
  -25.2377   -9.5847   22.4750 H   0  0  0  0  0  0
  -24.0020   -7.4581   22.7425 H   0  0  0  0  0  0
  -21.0604   -8.8408   19.8837 H   0  0  0  0  0  0
  -22.3138  -10.9610   19.6302 H   0  0  0  0  0  0
  -21.1908   -7.6101   23.9668 H   0  0  0  0  0  0
  -21.1497   -6.0522   25.9081 H   0  0  0  0  0  0
  -22.0625   -2.7547   23.2874 H   0  0  0  0  0  0
  -22.4030  -12.0171   22.4755 H   0  0  0  0  0  0
  -21.1224  -13.1706   22.2515 H   0  0  0  0  0  0
  -24.8211  -15.8042   20.4465 H   0  0  0  0  0  0
  -26.4221  -15.4720   20.0132 H   0  0  0  0  0  0
  -26.7188  -32.5420   23.1096 H   0  0  0  0  0  0
  -25.0084  -33.9714   25.0397 H   0  0  0  0  0  0
  -22.7152  -31.2996   21.3995 H   0  0  0  0  0  0
  -23.3718  -35.9670   23.3326 H   0  0  0  0  0  0
  -24.3562  -36.8909   22.2050 H   0  0  0  0  0  0
  -23.7292  -37.6527   23.6664 H   0  0  0  0  0  0
  -26.0948  -31.5363   20.6014 H   0  0  0  0  0  0
  -26.8428  -30.8338   22.0045 H   0  0  0  0  0  0
  -28.1184  -28.9570   21.2049 H   0  0  0  0  0  0
  -25.9702  -25.9262   18.9885 H   0  0  0  0  0  0
  -23.9783  -27.3005   19.0117 H   0  0  0  0  0  0
  -23.7673  -30.5866   19.4034 H   0  0  0  0  0  0
  -22.7589  -29.2485   19.8513 H   0  0  0  0  0  0
  -25.1307  -36.1905   25.0814 H   0  0  0  0  0  0
  -20.9986  -28.3261   24.1405 H   0  0  0  0  0  0
  -20.5657  -26.2303   23.3623 H   0  0  0  0  0  0
  -21.6641  -26.7428   22.1224 H   0  0  0  0  0  0
  -19.6911  -25.6283   21.1261 H   0  0  0  0  0  0
  -19.6686  -27.3170   20.6735 H   0  0  0  0  0  0
  -17.4201  -26.6666   21.4027 H   0  0  0  0  0  0
  -18.0333  -26.0063   22.9018 H   0  0  0  0  0  0
  -19.7937  -30.7274   24.2249 H   0  0  0  0  0  0
  -17.5023  -31.6269   24.5173 H   0  0  0  0  0  0
  -15.5357  -30.2997   23.7658 H   0  0  0  0  0  0
  -15.8666  -28.0832   22.7063 H   0  0  0  0  0  0
  -24.5896  -30.7111   25.7812 H   0  0  0  0  0  0
  -24.8938  -32.2946   26.4857 H   0  0  0  0  0  0
  -25.8054  -30.8973   27.0252 H   0  0  0  0  0  0
  -26.2944  -29.6773   24.1185 H   0  0  0  0  0  0
  -27.4007  -29.7264   25.4717 H   0  0  0  0  0  0
  -27.8824  -30.4296   23.9459 H   0  0  0  0  0  0
  -27.2605  -33.3626   26.2105 H   0  0  0  0  0  0
  -28.3868  -32.6920   25.0403 H   0  0  0  0  0  0
  -28.0660  -31.8470   26.5474 H   0  0  0  0  0  0
  -28.2603  -38.0091   24.7444 H   0  0  0  0  0  0
  -28.1033  -36.2623   24.6366 H   0  0  0  0  0  0
  -27.2277  -37.1564   25.8865 H   0  0  0  0  0  0
  -20.9355  -29.8813   21.6933 H   0  0  0  0  0  0
  -26.0151  -38.2838   24.1370 H   0  0  0  0  0  0
  -28.3184  -18.5836   19.9499 H   0  0  0  0  0  0
  -29.1883  -16.6905   23.1179 H   0  0  0  0  0  0
  -30.8687  -16.1566   23.0636 H   0  0  0  0  0  0
  -29.5774  -14.9795   23.0361 H   0  0  0  0  0  0
  -28.0955  -22.1853   20.8102 H   0  0  0  0  0  0
  -29.5673  -22.2794   21.7001 H   0  0  0  0  0  0
  -29.9466  -23.9716   19.3435 H   0  0  0  0  0  0
  -30.0448  -24.3770   21.0127 H   0  0  0  0  0  0
  -30.7720  -21.5884   19.4611 H   0  0  0  0  0  0
  -29.2170  -21.1120   18.9002 H   0  0  0  0  0  0
  -27.3918  -24.7126   20.8574 H   0  0  0  0  0  0
  -27.6988  -24.7067   19.1410 H   0  0  0  0  0  0
  -28.8146  -15.9310   20.8323 H   0  0  0  0  0  0
  1 25  1  0  0  0
  1 30  2  0  0  0
  1 78  1  0  0  0
  2  3  1  0  0  0
  2 25  1  0  0  0
  2 82  1  0  0  0
  2 83  1  0  0  0
  3  4  1  0  0  0
  3 84  1  0  0  0
  3 85  1  0  0  0
  4  5  1  0  0  0
  4 86  1  0  0  0
  4 87  1  0  0  0
  5  6  1  0  0  0
  5 26  1  0  0  0
  5 88  1  0  0  0
  6 25  1  0  0  0
  6 89  1  0  0  0
  6 90  1  0  0  0
  7  8  2  0  0  0
  7 26  1  0  0  0
  7 29  1  0  0  0
  8  9  1  0  0  0
  8 22  1  0  0  0
  9 10  1  0  0  0
  9 27  2  0  0  0
 10 11  2  0  0  0
 10 15  1  0  0  0
 11 12  1  0  0  0
 11 91  1  0  0  0
 12 13  2  0  0  0
 12 92  1  0  0  0
 13 14  1  0  0  0
 13 31  1  0  0  0
 14 15  2  0  0  0
 14 93  1  0  0  0
 15 94  1  0  0  0
 16 17  2  0  0  0
 16 21  1  0  0  0
 16 31  1  0  0  0
 17 18  1  0  0  0
 17 95  1  0  0  0
 18 19  2  0  0  0
 18 96  1  0  0  0
 19 20  1  0  0  0
 19 24  1  0  0  0
 20 21  2  0  0  0
 20 97  1  0  0  0
 21 23  1  0  0  0
 22 28  1  0  0  0
 22 32  2  0  0  0
 26 27  1  0  0  0
 28 98  1  0  0  0
 28 99  1  0  0  0
 29100  1  0  0  0
 29101  1  0  0  0
 33 34  1  0  0  0
 33 66  1  0  0  0
 33 70  2  0  0  0
 34 36  1  0  0  0
 34 59  1  0  0  0
 34102  1  0  0  0
 35 44  2  0  0  0
 35 45  1  0  0  0
 35 68  1  0  0  0
 36 56  1  0  0  0
 36103  1  0  0  0
 37 39  1  0  0  0
 37 47  1  0  0  0
 37 66  1  0  0  0
 37104  1  0  0  0
 38 43  2  0  0  0
 38 46  1  0  0  0
 38 47  1  0  0  0
 39 64  1  0  0  0
 39 67  2  0  0  0
 40 52  1  0  0  0
 40 53  2  0  0  0
 40 58  1  0  0  0
 41105  1  0  0  0
 41106  1  0  0  0
 41107  1  0  0  0
 41 48  1  0  0  0
 42 43  1  0  0  0
 42 66  1  0  0  0
 42108  1  0  0  0
 42109  1  0  0  0
 43 44  1  0  0  0
 44110  1  0  0  0
 45 46  2  0  0  0
 45111  1  0  0  0
 46112  1  0  0  0
 47113  1  0  0  0
 47114  1  0  0  0
 48 56  1  0  0  0
 48 65  1  0  0  0
 48115  1  0  0  0
 49 50  1  0  0  0
 49 53  1  0  0  0
 49 64  1  0  0  0
 49116  1  0  0  0
 50 51  1  0  0  0
 50117  1  0  0  0
 50118  1  0  0  0
 51 52  1  0  0  0
 51119  1  0  0  0
 51120  1  0  0  0
 52121  1  0  0  0
 52122  1  0  0  0
 53 54  1  0  0  0
 54 55  2  0  0  0
 54123  1  0  0  0
 55 57  1  0  0  0
 55124  1  0  0  0
 56 69  2  0  0  0
 57 58  2  0  0  0
 57125  1  0  0  0
 58126  1  0  0  0
 59 60  1  0  0  0
 59 61  1  0  0  0
 59 62  1  0  0  0
 60127  1  0  0  0
 60128  1  0  0  0
 60129  1  0  0  0
 61130  1  0  0  0
 61131  1  0  0  0
 61132  1  0  0  0
 62133  1  0  0  0
 62134  1  0  0  0
 62135  1  0  0  0
 63 65  1  0  0  0
 63136  1  0  0  0
 63137  1  0  0  0
 63138  1  0  0  0
 64139  1  0  0  0
 65140  1  0  0  0
 68 77  1  0  0  0
 71 72  2  0  0  0
 71 81  1  0  0  0
 71141  1  0  0  0
 72 78  1  0  0  0
 72 79  1  0  0  0
 73142  1  0  0  0
 73143  1  0  0  0
 73144  1  0  0  0
 73 78  1  0  0  0
 74 75  1  0  0  0
 74 76  1  0  0  0
 74145  1  0  0  0
 74146  1  0  0  0
 75 77  1  0  0  0
 75147  1  0  0  0
 75148  1  0  0  0
 76 81  1  0  0  0
 76149  1  0  0  0
 76150  1  0  0  0
 77151  1  0  0  0
 77152  1  0  0  0
 78153  1  0  0  0
 79 80  2  0  0  0
 80 81  1  0  0  0
M  ISO  4   1 100  68 101  77 101  78 100
M  END
> <chiral flag>
0

> <version>
0

> <s_m_source_file>
/data/baiqing/PycharmProjects/Reinvent-master-3.2/result/LINK_invent/BTK/process_docking_weight1_custom_sum_contain_oxygen_bond_distance_aromatic_linkinvent_7_9_3/rearranged_h_0078.sdf

> <i_m_source_file_index>
60

> <r_mmod_Potential_Energy-OPLS-2005>
357.653503417969

> <r_mmod_Stretch_Energy-OPLS-2005>
111.908172607422

> <r_mmod_Bend_Energy-OPLS-2005>
224.868865966797

> <r_mmod_Torsional_Energy-OPLS-2005>
229.784973144531

> <r_mmod_Improper_Torsional_Energy-OPLS-2005>
3.66516184806824

> <r_mmod_Van_der_Waal_Energy-OPLS-2005>
130.598724365234

> <r_mmod_Electrostatic_Energy-OPLS-2005>
-259.912353515625

> <r_mmod_Solvation_Energy-OPLS-2005>
-221.246032714844

> <b_mmod_Minimization_Converged-OPLS-2005>
0

> <r_mmod_RMS_Derivative-OPLS-2005>
5.23107147216797

$$$$
60
                    3D
 Structure written by MMmdl.
162170  0  0  1  0            999 V2000
  -30.6463  -14.7084   20.6009 C   0  0  0  0  0  0
  -30.4396  -12.4664   19.4569 C   0  0  0  0  0  0
  -29.5058  -12.5771   18.2316 C   0  0  0  0  0  0
  -28.0320  -12.3920   18.6438 C   0  0  0  0  0  0
  -27.6601  -13.2337   19.8956 C   0  0  2  0  0  0
  -28.7224  -13.0452   21.0091 C   0  0  0  0  0  0
  -25.2378  -13.8107   20.5369 C   0  0  0  0  0  0
  -24.1757  -13.0371   20.9114 C   0  0  0  0  0  0
  -24.6421  -11.6881   20.8787 C   0  0  0  0  0  0
  -23.9099  -10.4262   21.0439 C   0  0  0  0  0  0
  -24.3629   -9.4171   21.9216 C   0  0  0  0  0  0
  -23.6289   -8.2217   22.0772 C   0  0  0  0  0  0
  -22.4274   -8.0271   21.3550 C   0  0  0  0  0  0
  -21.9929   -9.0250   20.4654 C   0  0  0  0  0  0
  -22.7277  -10.2120   20.3071 C   0  0  0  0  0  0
  -21.6844   -6.0730   22.5280 C   0  0  0  0  0  0
  -21.4005   -6.5636   23.8213 C   0  0  0  0  0  0
  -21.3657   -5.6789   24.9178 C   0  0  0  0  0  0
  -21.6042   -4.3054   24.7227 C   0  0  0  0  0  0
  -21.8813   -3.8143   23.4349 C   0  0  0  0  0  0
  -21.9191   -4.6959   22.3403 C   0  0  0  0  0  0
  -22.7782  -13.5164   21.1798 C   0  0  0  0  0  0
  -22.1660   -4.2148   21.0979 F   0  0  0  0  0  0
  -21.5632   -3.4534   25.7740 F   0  0  0  0  0  0
  -30.0122  -13.4796   20.4618 N   0  0  0  0  0  0
  -26.3016  -12.9416   20.3487 N   0  0  0  0  0  0
  -25.9402  -11.6550   20.5953 N   0  0  0  0  0  0
  -22.0446  -12.8184   22.0400 N   0  0  0  0  0  0
  -25.3680  -15.1755   20.3143 N   0  0  0  0  0  0
  -31.7113  -14.8432   19.9817 O   0  0  0  0  0  0
  -21.6630   -6.8872   21.4241 O   0  0  0  0  0  0
  -22.3455  -14.5480   20.6679 O   0  0  0  0  0  0
  -24.6286  -31.8565   23.2005 C   0  0  0  0  0  0
  -25.9122  -32.4756   23.8346 C   0  0  1  0  0  0
  -27.2169  -27.2772   20.1358 C   0  0  0  0  0  0
  -25.5932  -33.8565   24.2266 N   0  0  0  0  0  0
  -23.4253  -30.4794   21.5428 C   0  0  2  0  0  0
  -24.8728  -28.9273   20.1126 C   0  0  0  0  0  0
  -22.7501  -29.4592   22.4923 C   0  0  0  0  0  0
  -18.0293  -28.1381   22.8474 C   0  0  0  0  0  0
  -24.1486  -36.7271   23.2647 C   0  0  0  0  0  0
  -25.9699  -30.7721   21.3810 C   0  0  0  0  0  0
  -26.0420  -29.3969   20.7243 C   0  0  0  0  0  0
  -27.2189  -28.5835   20.7244 C   0  0  0  0  0  0
  -26.0305  -26.8730   19.4873 C   0  0  0  0  0  0
  -24.8699  -27.6724   19.4836 C   0  0  0  0  0  0
  -23.6439  -29.8138   20.1584 C   0  0  0  0  0  0
  -25.4110  -36.3065   24.0332 C   0  0  1  0  0  0
  -20.5891  -28.3685   23.1275 C   0  0  2  0  0  0
  -20.6786  -26.9407   22.5406 C   0  0  0  0  0  0
  -19.5763  -26.6368   21.5215 C   0  0  0  0  0  0
  -18.1936  -26.7918   22.1612 C   0  0  0  0  0  0
  -19.1544  -28.8851   23.2869 C   0  0  0  0  0  0
  -18.9468  -30.1452   23.8886 C   0  0  0  0  0  0
  -17.6472  -30.6586   24.0556 C   0  0  0  0  0  0
  -25.9054  -34.9437   23.5092 C   0  0  0  0  0  0
  -16.5365  -29.9078   23.6336 C   0  0  0  0  0  0
  -16.7282  -28.6499   23.0346 C   0  0  0  0  0  0
  -26.4501  -31.6594   25.0750 C   0  0  0  0  0  0
  -25.3724  -31.3731   26.1472 C   0  0  0  0  0  0
  -27.0376  -30.3020   24.6236 C   0  0  0  0  0  0
  -27.6053  -32.4353   25.7504 C   0  0  0  0  0  0
  -27.5570  -37.1784   24.8471 C   0  0  0  0  0  0
  -21.4210  -29.3039   22.3671 N   0  0  0  0  0  0
  -26.4278  -37.3765   23.9420 N   0  0  0  0  0  0
  -24.6929  -31.0543   22.0973 N   0  0  0  0  0  0
  -23.4214  -28.8138   23.3016 O   0  0  0  0  0  0
  -28.3153  -26.3929   20.1608 O   0  0  0  0  0  0
  -26.5627  -34.8910   22.4662 O   0  0  0  0  0  0
  -23.5439  -32.1383   23.7312 O   0  0  0  0  0  0
  -26.9375  -18.0901   21.2088 C   0  0  0  0  0  0
  -27.3949  -19.2489   20.5777 C   0  0  0  0  0  0
  -27.8336  -17.0955   21.6289 C   0  0  0  0  0  0
  -28.7862  -19.4672   20.4873 C   0  0  0  0  0  0
  -29.2040  -17.1491   21.2257 C   0  0  0  0  0  0
  -26.3453  -20.2088   20.0367 C   0  0  0  0  0  0
  -27.2477  -16.0641   22.5820 C   0  0  0  0  0  0
  -31.5374  -16.5937   22.1150 C   0  0  0  0  0  0
  -29.3171  -20.9111   20.0530 C   0  0  0  0  0  0
  -28.7403  -22.2739   20.7409 C   0  0  0  0  0  0
  -28.9395  -23.7363   20.0690 C   0  0  0  0  0  0
  -28.0857  -24.9876   20.6297 C   0  0  0  0  0  0
  -30.2381  -15.9405   21.5926 C   0  0  2  0  0  0
  -29.6445  -18.3857   20.7204 N   0  0  0  0  0  0
  -29.8380  -15.3537   22.7202 F   0  0  0  0  0  0
  -31.4791  -12.5869   19.1494 H   0  0  0  0  0  0
  -30.3898  -11.4608   19.8774 H   0  0  0  0  0  0
  -29.7809  -11.8462   17.4711 H   0  0  0  0  0  0
  -29.6325  -13.5589   17.7717 H   0  0  0  0  0  0
  -27.8748  -11.3334   18.8533 H   0  0  0  0  0  0
  -27.3725  -12.6400   17.8111 H   0  0  0  0  0  0
  -27.6829  -14.2807   19.5928 H   0  0  0  0  0  0
  -28.7684  -11.9913   21.2902 H   0  0  0  0  0  0
  -28.5000  -13.5433   21.9420 H   0  0  0  0  0  0
  -25.2763   -9.5644   22.4811 H   0  0  0  0  0  0
  -23.9986   -7.4605   22.7501 H   0  0  0  0  0  0
  -21.0860   -8.8783   19.8952 H   0  0  0  0  0  0
  -22.3748  -10.9665   19.6182 H   0  0  0  0  0  0
  -21.1986   -7.6141   23.9717 H   0  0  0  0  0  0
  -21.1486   -6.0519   25.9082 H   0  0  0  0  0  0
  -22.0591   -2.7603   23.2849 H   0  0  0  0  0  0
  -22.4053  -11.9842   22.4794 H   0  0  0  0  0  0
  -21.1074  -13.1233   22.2611 H   0  0  0  0  0  0
  -24.5726  -15.8002   20.3802 H   0  0  0  0  0  0
  -26.2211  -15.6421   20.0342 H   0  0  0  0  0  0
  -26.7191  -32.5416   23.1091 H   0  0  0  0  0  0
  -25.0125  -33.9716   25.0439 H   0  0  0  0  0  0
  -22.7207  -31.3009   21.3963 H   0  0  0  0  0  0
  -23.3760  -35.9593   23.3307 H   0  0  0  0  0  0
  -24.3572  -36.8886   22.2062 H   0  0  0  0  0  0
  -23.7220  -37.6460   23.6679 H   0  0  0  0  0  0
  -26.1135  -31.5330   20.6133 H   0  0  0  0  0  0
  -26.8456  -30.8152   22.0174 H   0  0  0  0  0  0
  -28.1132  -28.9359   21.2188 H   0  0  0  0  0  0
  -25.9870  -25.9177   18.9844 H   0  0  0  0  0  0
  -23.9750  -27.3112   18.9975 H   0  0  0  0  0  0
  -23.7719  -30.5913   19.4044 H   0  0  0  0  0  0
  -22.7631  -29.2492   19.8474 H   0  0  0  0  0  0
  -25.1279  -36.1908   25.0820 H   0  0  0  0  0  0
  -20.9975  -28.3254   24.1400 H   0  0  0  0  0  0
  -20.5681  -26.2301   23.3610 H   0  0  0  0  0  0
  -21.6650  -26.7431   22.1195 H   0  0  0  0  0  0
  -19.6930  -25.6277   21.1249 H   0  0  0  0  0  0
  -19.6699  -27.3181   20.6744 H   0  0  0  0  0  0
  -17.4207  -26.6675   21.4011 H   0  0  0  0  0  0
  -18.0325  -26.0057   22.8995 H   0  0  0  0  0  0
  -19.7952  -30.7261   24.2251 H   0  0  0  0  0  0
  -17.5032  -31.6267   24.5154 H   0  0  0  0  0  0
  -15.5366  -30.2973   23.7678 H   0  0  0  0  0  0
  -15.8676  -28.0820   22.7069 H   0  0  0  0  0  0
  -24.5919  -30.7049   25.7804 H   0  0  0  0  0  0
  -24.8905  -32.2901   26.4881 H   0  0  0  0  0  0
  -25.8042  -30.8931   27.0264 H   0  0  0  0  0  0
  -26.2974  -29.6740   24.1267 H   0  0  0  0  0  0
  -27.4084  -29.7300   25.4752 H   0  0  0  0  0  0
  -27.8822  -30.4320   23.9466 H   0  0  0  0  0  0
  -27.2669  -33.3671   26.2041 H   0  0  0  0  0  0
  -28.3869  -32.6874   25.0330 H   0  0  0  0  0  0
  -28.0717  -31.8513   26.5450 H   0  0  0  0  0  0
  -28.2578  -38.0091   24.7524 H   0  0  0  0  0  0
  -28.1066  -36.2617   24.6274 H   0  0  0  0  0  0
  -27.2297  -37.1400   25.8876 H   0  0  0  0  0  0
  -20.9420  -29.8781   21.6876 H   0  0  0  0  0  0
  -26.0154  -38.2827   24.1443 H   0  0  0  0  0  0
  -25.8796  -17.9880   21.4103 H   0  0  0  0  0  0
  -25.5085  -19.6520   19.6130 H   0  0  0  0  0  0
  -26.7351  -20.8339   19.2339 H   0  0  0  0  0  0
  -25.9425  -20.8419   20.8275 H   0  0  0  0  0  0
  -26.2132  -16.2973   22.8367 H   0  0  0  0  0  0
  -27.7839  -16.0394   23.5307 H   0  0  0  0  0  0
  -27.2277  -15.0808   22.1423 H   0  0  0  0  0  0
  -31.3326  -17.2689   22.9458 H   0  0  0  0  0  0
  -32.0268  -17.1745   21.3329 H   0  0  0  0  0  0
  -32.2520  -15.8499   22.4688 H   0  0  0  0  0  0
  -29.1391  -20.9803   18.9804 H   0  0  0  0  0  0
  -30.4027  -20.9106   20.1547 H   0  0  0  0  0  0
  -29.1259  -22.3135   21.7601 H   0  0  0  0  0  0
  -27.6701  -22.1838   20.8821 H   0  0  0  0  0  0
  -28.7256  -23.6523   19.0036 H   0  0  0  0  0  0
  -29.9967  -23.9936   20.1319 H   0  0  0  0  0  0
  -28.2349  -25.0211   21.7097 H   0  0  0  0  0  0
  -27.0357  -24.7188   20.5195 H   0  0  0  0  0  0
  1 25  1  0  0  0
  1 30  2  0  0  0
  1 83  1  0  0  0
  2  3  1  0  0  0
  2 25  1  0  0  0
  2 86  1  0  0  0
  2 87  1  0  0  0
  3  4  1  0  0  0
  3 88  1  0  0  0
  3 89  1  0  0  0
  4  5  1  0  0  0
  4 90  1  0  0  0
  4 91  1  0  0  0
  5  6  1  0  0  0
  5 26  1  0  0  0
  5 92  1  0  0  0
  6 25  1  0  0  0
  6 93  1  0  0  0
  6 94  1  0  0  0
  7  8  2  0  0  0
  7 26  1  0  0  0
  7 29  1  0  0  0
  8  9  1  0  0  0
  8 22  1  0  0  0
  9 10  1  0  0  0
  9 27  2  0  0  0
 10 11  2  0  0  0
 10 15  1  0  0  0
 11 12  1  0  0  0
 11 95  1  0  0  0
 12 13  2  0  0  0
 12 96  1  0  0  0
 13 14  1  0  0  0
 13 31  1  0  0  0
 14 15  2  0  0  0
 14 97  1  0  0  0
 15 98  1  0  0  0
 16 17  2  0  0  0
 16 21  1  0  0  0
 16 31  1  0  0  0
 17 18  1  0  0  0
 17 99  1  0  0  0
 18 19  2  0  0  0
 18100  1  0  0  0
 19 20  1  0  0  0
 19 24  1  0  0  0
 20 21  2  0  0  0
 20101  1  0  0  0
 21 23  1  0  0  0
 22 28  1  0  0  0
 22 32  2  0  0  0
 26 27  1  0  0  0
 28102  1  0  0  0
 28103  1  0  0  0
 29104  1  0  0  0
 29105  1  0  0  0
 33 34  1  0  0  0
 33 66  1  0  0  0
 33 70  2  0  0  0
 34 36  1  0  0  0
 34 59  1  0  0  0
 34106  1  0  0  0
 35 44  2  0  0  0
 35 45  1  0  0  0
 35 68  1  0  0  0
 36 56  1  0  0  0
 36107  1  0  0  0
 37 39  1  0  0  0
 37 47  1  0  0  0
 37 66  1  0  0  0
 37108  1  0  0  0
 38 43  2  0  0  0
 38 46  1  0  0  0
 38 47  1  0  0  0
 39 64  1  0  0  0
 39 67  2  0  0  0
 40 52  1  0  0  0
 40 53  2  0  0  0
 40 58  1  0  0  0
 41109  1  0  0  0
 41110  1  0  0  0
 41111  1  0  0  0
 41 48  1  0  0  0
 42 43  1  0  0  0
 42 66  1  0  0  0
 42112  1  0  0  0
 42113  1  0  0  0
 43 44  1  0  0  0
 44114  1  0  0  0
 45 46  2  0  0  0
 45115  1  0  0  0
 46116  1  0  0  0
 47117  1  0  0  0
 47118  1  0  0  0
 48 56  1  0  0  0
 48 65  1  0  0  0
 48119  1  0  0  0
 49 50  1  0  0  0
 49 53  1  0  0  0
 49 64  1  0  0  0
 49120  1  0  0  0
 50 51  1  0  0  0
 50121  1  0  0  0
 50122  1  0  0  0
 51 52  1  0  0  0
 51123  1  0  0  0
 51124  1  0  0  0
 52125  1  0  0  0
 52126  1  0  0  0
 53 54  1  0  0  0
 54 55  2  0  0  0
 54127  1  0  0  0
 55 57  1  0  0  0
 55128  1  0  0  0
 56 69  2  0  0  0
 57 58  2  0  0  0
 57129  1  0  0  0
 58130  1  0  0  0
 59 60  1  0  0  0
 59 61  1  0  0  0
 59 62  1  0  0  0
 60131  1  0  0  0
 60132  1  0  0  0
 60133  1  0  0  0
 61134  1  0  0  0
 61135  1  0  0  0
 61136  1  0  0  0
 62137  1  0  0  0
 62138  1  0  0  0
 62139  1  0  0  0
 63 65  1  0  0  0
 63140  1  0  0  0
 63141  1  0  0  0
 63142  1  0  0  0
 64143  1  0  0  0
 65144  1  0  0  0
 68 82  1  0  0  0
 71 72  2  0  0  0
 71 73  1  0  0  0
 71145  1  0  0  0
 72 74  1  0  0  0
 72 76  1  0  0  0
 73 75  2  0  0  0
 73 77  1  0  0  0
 74 79  1  0  0  0
 74 84  2  0  0  0
 75 83  1  0  0  0
 75 84  1  0  0  0
 76146  1  0  0  0
 76147  1  0  0  0
 76148  1  0  0  0
 77149  1  0  0  0
 77150  1  0  0  0
 77151  1  0  0  0
 78152  1  0  0  0
 78153  1  0  0  0
 78154  1  0  0  0
 78 83  1  0  0  0
 79 80  1  0  0  0
 79155  1  0  0  0
 79156  1  0  0  0
 80 81  1  0  0  0
 80157  1  0  0  0
 80158  1  0  0  0
 81 82  1  0  0  0
 81159  1  0  0  0
 81160  1  0  0  0
 82161  1  0  0  0
 82162  1  0  0  0
 83 85  1  0  0  0
M  ISO  4   1 100  68 101  82 101  83 100
M  END
> <chiral flag>
0

> <version>
0

> <s_m_source_file>
/data/baiqing/PycharmProjects/Reinvent-master-3.2/result/LINK_invent/BTK/process_docking_weight1_custom_sum_contain_oxygen_bond_distance_aromatic_linkinvent_7_9_3/rearranged_h_0078.sdf

> <i_m_source_file_index>
61

> <r_mmod_Potential_Energy-OPLS-2005>
265.708190917969

> <r_mmod_Stretch_Energy-OPLS-2005>
151.929550170898

> <r_mmod_Bend_Energy-OPLS-2005>
212.577606201172

> <r_mmod_Torsional_Energy-OPLS-2005>
209.324066162109

> <r_mmod_Improper_Torsional_Energy-OPLS-2005>
4.37976932525635

> <r_mmod_Van_der_Waal_Energy-OPLS-2005>
160.659912109375

> <r_mmod_Electrostatic_Energy-OPLS-2005>
-353.687805175781

> <r_mmod_Solvation_Energy-OPLS-2005>
-188.151947021484

> <b_mmod_Minimization_Converged-OPLS-2005>
0

> <r_mmod_RMS_Derivative-OPLS-2005>
1.82431709766388

$$$$
61
                    3D
 Structure written by MMmdl.
156164  0  0  1  0            999 V2000
  -30.5566  -14.9287   20.4339 C   0  0  0  0  0  0
  -30.4355  -12.5686   19.5044 C   0  0  0  0  0  0
  -29.5231  -12.5289   18.2563 C   0  0  0  0  0  0
  -28.0528  -12.3184   18.6643 C   0  0  0  0  0  0
  -27.6279  -13.2485   19.8294 C   0  0  2  0  0  0
  -28.6652  -13.2685   20.9675 C   0  0  0  0  0  0
  -25.2466  -13.8219   20.5696 C   0  0  0  0  0  0
  -24.1782  -13.0441   20.9213 C   0  0  0  0  0  0
  -24.6397  -11.6926   20.8735 C   0  0  0  0  0  0
  -23.9082  -10.4295   21.0400 C   0  0  0  0  0  0
  -24.3630   -9.4211   21.9180 C   0  0  0  0  0  0
  -23.6301   -8.2247   22.0754 C   0  0  0  0  0  0
  -22.4282   -8.0284   21.3545 C   0  0  0  0  0  0
  -21.9919   -9.0257   20.4646 C   0  0  0  0  0  0
  -22.7251  -10.2134   20.3053 C   0  0  0  0  0  0
  -21.6856   -6.0738   22.5280 C   0  0  0  0  0  0
  -21.4017   -6.5641   23.8213 C   0  0  0  0  0  0
  -21.3660   -5.6793   24.9175 C   0  0  0  0  0  0
  -21.6044   -4.3056   24.7225 C   0  0  0  0  0  0
  -21.8819   -3.8148   23.4346 C   0  0  0  0  0  0
  -21.9194   -4.6965   22.3403 C   0  0  0  0  0  0
  -22.7804  -13.5211   21.1882 C   0  0  0  0  0  0
  -22.1662   -4.2150   21.0980 F   0  0  0  0  0  0
  -21.5628   -3.4539   25.7738 F   0  0  0  0  0  0
  -29.9532  -13.6704   20.3884 N   0  0  0  0  0  0
  -26.2876  -12.9449   20.3181 N   0  0  0  0  0  0
  -25.9324  -11.6578   20.5694 N   0  0  0  0  0  0
  -22.0460  -12.8194   22.0438 N   0  0  0  0  0  0
  -25.4151  -15.1950   20.4162 N   0  0  0  0  0  0
  -31.7622  -14.9238   20.1569 O   0  0  0  0  0  0
  -21.6644   -6.8882   21.4242 O   0  0  0  0  0  0
  -22.3482  -14.5515   20.6730 O   0  0  0  0  0  0
  -24.6415  -31.8453   23.1882 C   0  0  0  0  0  0
  -25.9194  -32.4701   23.8270 C   0  0  1  0  0  0
  -27.2172  -27.1538   20.1607 C   0  0  0  0  0  0
  -25.5948  -33.8506   24.2191 N   0  0  0  0  0  0
  -23.4440  -30.4636   21.5337 C   0  0  2  0  0  0
  -24.8929  -28.8859   20.1164 C   0  0  0  0  0  0
  -22.7554  -29.4555   22.4873 C   0  0  0  0  0  0
  -18.0302  -28.1395   22.8479 C   0  0  0  0  0  0
  -24.1490  -36.7257   23.2643 C   0  0  0  0  0  0
  -25.9976  -30.7260   21.3819 C   0  0  0  0  0  0
  -26.0700  -29.3362   20.7289 C   0  0  0  0  0  0
  -27.2373  -28.4879   20.7279 C   0  0  0  0  0  0
  -26.0155  -26.7911   19.5203 C   0  0  0  0  0  0
  -24.8766  -27.6258   19.4966 C   0  0  0  0  0  0
  -23.6697  -29.7881   20.1547 C   0  0  0  0  0  0
  -25.4122  -36.3035   24.0317 C   0  0  1  0  0  0
  -20.5913  -28.3718   23.1244 C   0  0  2  0  0  0
  -20.6786  -26.9424   22.5406 C   0  0  0  0  0  0
  -19.5760  -26.6383   21.5213 C   0  0  0  0  0  0
  -18.1941  -26.7934   22.1625 C   0  0  0  0  0  0
  -19.1558  -28.8875   23.2853 C   0  0  0  0  0  0
  -18.9475  -30.1472   23.8878 C   0  0  0  0  0  0
  -17.6472  -30.6592   24.0560 C   0  0  0  0  0  0
  -25.9071  -34.9411   23.5063 C   0  0  0  0  0  0
  -16.5364  -29.9086   23.6335 C   0  0  0  0  0  0
  -16.7287  -28.6504   23.0356 C   0  0  0  0  0  0
  -26.4523  -31.6565   25.0706 C   0  0  0  0  0  0
  -25.3713  -31.3747   26.1405 C   0  0  0  0  0  0
  -27.0389  -30.2966   24.6271 C   0  0  0  0  0  0
  -27.6051  -32.4331   25.7496 C   0  0  0  0  0  0
  -27.5574  -37.1785   24.8467 C   0  0  0  0  0  0
  -21.4249  -29.3047   22.3619 N   0  0  0  0  0  0
  -26.4285  -37.3747   23.9409 N   0  0  0  0  0  0
  -24.7141  -31.0326   22.0903 N   0  0  0  0  0  0
  -23.4205  -28.8109   23.3021 O   0  0  0  0  0  0
  -28.2883  -26.1992   20.1573 O   0  0  0  0  0  0
  -26.5657  -34.8909   22.4641 O   0  0  0  0  0  0
  -23.5539  -32.1319   23.7117 O   0  0  0  0  0  0
  -31.1048  -19.7414   19.3834 C   0  0  0  0  0  0
  -30.0084  -19.2461   20.0431 C   0  0  0  0  0  0
  -31.3971  -21.1377   18.9252 C   0  0  0  0  0  0
  -29.6059  -16.6048   22.2066 C   0  0  0  0  0  0
  -28.7895  -20.2409   20.4028 C   0  0  0  0  0  0
  -28.9040  -21.8775   20.8316 C   0  0  0  0  0  0
  -28.6200  -23.2937   19.9663 C   0  0  0  0  0  0
  -28.1103  -24.7426   20.6564 C   0  0  0  0  0  0
  -29.7859  -16.4068   20.6913 C   0  0  1  0  0  0
  -32.0082  -18.7347   19.1094 N   0  0  0  0  0  0
  -31.5548  -17.6133   19.5416 N   0  0  0  0  0  0
  -30.3400  -17.7802   20.1294 N   0  0  0  0  0  0
  -31.4734  -12.7032   19.1972 H   0  0  0  0  0  0
  -30.4086  -11.6142   20.0327 H   0  0  0  0  0  0
  -29.8415  -11.7356   17.5789 H   0  0  0  0  0  0
  -29.6208  -13.4638   17.7021 H   0  0  0  0  0  0
  -27.9420  -11.2762   18.9659 H   0  0  0  0  0  0
  -27.3951  -12.4584   17.8056 H   0  0  0  0  0  0
  -27.5941  -14.2525   19.4062 H   0  0  0  0  0  0
  -28.7409  -12.2910   21.4460 H   0  0  0  0  0  0
  -28.3500  -13.9627   21.7442 H   0  0  0  0  0  0
  -25.2775   -9.5687   22.4755 H   0  0  0  0  0  0
  -24.0009   -7.4640   22.7474 H   0  0  0  0  0  0
  -21.0850   -8.8778   19.8953 H   0  0  0  0  0  0
  -22.3709  -10.9673   19.6161 H   0  0  0  0  0  0
  -21.2011   -7.6150   23.9717 H   0  0  0  0  0  0
  -21.1482   -6.0524   25.9078 H   0  0  0  0  0  0
  -22.0597   -2.7610   23.2846 H   0  0  0  0  0  0
  -22.4088  -11.9859   22.4823 H   0  0  0  0  0  0
  -21.1075  -13.1207   22.2649 H   0  0  0  0  0  0
  -24.6495  -15.8488   20.5390 H   0  0  0  0  0  0
  -26.2669  -15.6394   20.0993 H   0  0  0  0  0  0
  -26.7260  -32.5316   23.1002 H   0  0  0  0  0  0
  -25.0077  -33.9622   25.0326 H   0  0  0  0  0  0
  -22.7459  -31.2886   21.3777 H   0  0  0  0  0  0
  -23.3757  -35.9583   23.3294 H   0  0  0  0  0  0
  -24.3573  -36.8899   22.2059 H   0  0  0  0  0  0
  -23.7241  -37.6449   23.6687 H   0  0  0  0  0  0
  -26.1477  -31.4788   20.6070 H   0  0  0  0  0  0
  -26.8701  -30.7795   22.0215 H   0  0  0  0  0  0
  -28.1412  -28.8332   21.2097 H   0  0  0  0  0  0
  -25.9481  -25.8233   19.0435 H   0  0  0  0  0  0
  -23.9774  -27.2755   19.0086 H   0  0  0  0  0  0
  -23.8067  -30.5599   19.3964 H   0  0  0  0  0  0
  -22.7847  -29.2291   19.8454 H   0  0  0  0  0  0
  -25.1311  -36.1860   25.0809 H   0  0  0  0  0  0
  -21.0005  -28.3304   24.1364 H   0  0  0  0  0  0
  -20.5679  -26.2331   23.3623 H   0  0  0  0  0  0
  -21.6653  -26.7431   22.1205 H   0  0  0  0  0  0
  -19.6921  -25.6288   21.1255 H   0  0  0  0  0  0
  -19.6696  -27.3183   20.6735 H   0  0  0  0  0  0
  -17.4211  -26.6679   21.4028 H   0  0  0  0  0  0
  -18.0340  -26.0080   22.9027 H   0  0  0  0  0  0
  -19.7951  -30.7293   24.2239 H   0  0  0  0  0  0
  -17.5025  -31.6270   24.5165 H   0  0  0  0  0  0
  -15.5363  -30.2982   23.7670 H   0  0  0  0  0  0
  -15.8687  -28.0816   22.7082 H   0  0  0  0  0  0
  -24.5899  -30.7088   25.7726 H   0  0  0  0  0  0
  -24.8895  -32.2928   26.4778 H   0  0  0  0  0  0
  -25.8002  -30.8956   27.0215 H   0  0  0  0  0  0
  -26.3001  -29.6688   24.1278 H   0  0  0  0  0  0
  -27.4014  -29.7264   25.4835 H   0  0  0  0  0  0
  -27.8901  -30.4212   23.9574 H   0  0  0  0  0  0
  -27.2640  -33.3647   26.2023 H   0  0  0  0  0  0
  -28.3892  -32.6866   25.0348 H   0  0  0  0  0  0
  -28.0688  -31.8490   26.5457 H   0  0  0  0  0  0
  -28.2587  -38.0086   24.7511 H   0  0  0  0  0  0
  -28.1074  -36.2616   24.6296 H   0  0  0  0  0  0
  -27.2291  -37.1435   25.8869 H   0  0  0  0  0  0
  -20.9458  -29.8752   21.6793 H   0  0  0  0  0  0
  -26.0151  -38.2815   24.1413 H   0  0  0  0  0  0
  -32.2604  -21.1727   18.2601 H   0  0  0  0  0  0
  -30.5545  -21.5568   18.3760 H   0  0  0  0  0  0
  -31.6130  -21.7952   19.7667 H   0  0  0  0  0  0
  -28.8705  -17.3831   22.4105 H   0  0  0  0  0  0
  -30.5449  -16.9093   22.6697 H   0  0  0  0  0  0
  -29.2733  -15.7020   22.7150 H   0  0  0  0  0  0
  -28.2660  -19.7603   21.2300 H   0  0  0  0  0  0
  -28.0723  -20.1838   19.5837 H   0  0  0  0  0  0
  -29.8292  -22.0074   21.3931 H   0  0  0  0  0  0
  -28.1445  -21.9561   21.6103 H   0  0  0  0  0  0
  -29.5424  -23.5149   19.4300 H   0  0  0  0  0  0
  -27.9017  -23.0561   19.1814 H   0  0  0  0  0  0
  -27.0562  -24.6119   20.9029 H   0  0  0  0  0  0
  -28.5956  -24.7675   21.6322 H   0  0  0  0  0  0
  -28.7965  -16.2867   20.2516 H   0  0  0  0  0  0
  1 25  1  0  0  0
  1 30  2  0  0  0
  1 79  1  0  0  0
  2  3  1  0  0  0
  2 25  1  0  0  0
  2 83  1  0  0  0
  2 84  1  0  0  0
  3  4  1  0  0  0
  3 85  1  0  0  0
  3 86  1  0  0  0
  4  5  1  0  0  0
  4 87  1  0  0  0
  4 88  1  0  0  0
  5  6  1  0  0  0
  5 26  1  0  0  0
  5 89  1  0  0  0
  6 25  1  0  0  0
  6 90  1  0  0  0
  6 91  1  0  0  0
  7  8  2  0  0  0
  7 26  1  0  0  0
  7 29  1  0  0  0
  8  9  1  0  0  0
  8 22  1  0  0  0
  9 10  1  0  0  0
  9 27  2  0  0  0
 10 11  2  0  0  0
 10 15  1  0  0  0
 11 12  1  0  0  0
 11 92  1  0  0  0
 12 13  2  0  0  0
 12 93  1  0  0  0
 13 14  1  0  0  0
 13 31  1  0  0  0
 14 15  2  0  0  0
 14 94  1  0  0  0
 15 95  1  0  0  0
 16 17  2  0  0  0
 16 21  1  0  0  0
 16 31  1  0  0  0
 17 18  1  0  0  0
 17 96  1  0  0  0
 18 19  2  0  0  0
 18 97  1  0  0  0
 19 20  1  0  0  0
 19 24  1  0  0  0
 20 21  2  0  0  0
 20 98  1  0  0  0
 21 23  1  0  0  0
 22 28  1  0  0  0
 22 32  2  0  0  0
 26 27  1  0  0  0
 28 99  1  0  0  0
 28100  1  0  0  0
 29101  1  0  0  0
 29102  1  0  0  0
 33 34  1  0  0  0
 33 66  1  0  0  0
 33 70  2  0  0  0
 34 36  1  0  0  0
 34 59  1  0  0  0
 34103  1  0  0  0
 35 44  2  0  0  0
 35 45  1  0  0  0
 35 68  1  0  0  0
 36 56  1  0  0  0
 36104  1  0  0  0
 37 39  1  0  0  0
 37 47  1  0  0  0
 37 66  1  0  0  0
 37105  1  0  0  0
 38 43  2  0  0  0
 38 46  1  0  0  0
 38 47  1  0  0  0
 39 64  1  0  0  0
 39 67  2  0  0  0
 40 52  1  0  0  0
 40 53  2  0  0  0
 40 58  1  0  0  0
 41106  1  0  0  0
 41107  1  0  0  0
 41108  1  0  0  0
 41 48  1  0  0  0
 42 43  1  0  0  0
 42 66  1  0  0  0
 42109  1  0  0  0
 42110  1  0  0  0
 43 44  1  0  0  0
 44111  1  0  0  0
 45 46  2  0  0  0
 45112  1  0  0  0
 46113  1  0  0  0
 47114  1  0  0  0
 47115  1  0  0  0
 48 56  1  0  0  0
 48 65  1  0  0  0
 48116  1  0  0  0
 49 50  1  0  0  0
 49 53  1  0  0  0
 49 64  1  0  0  0
 49117  1  0  0  0
 50 51  1  0  0  0
 50118  1  0  0  0
 50119  1  0  0  0
 51 52  1  0  0  0
 51120  1  0  0  0
 51121  1  0  0  0
 52122  1  0  0  0
 52123  1  0  0  0
 53 54  1  0  0  0
 54 55  2  0  0  0
 54124  1  0  0  0
 55 57  1  0  0  0
 55125  1  0  0  0
 56 69  2  0  0  0
 57 58  2  0  0  0
 57126  1  0  0  0
 58127  1  0  0  0
 59 60  1  0  0  0
 59 61  1  0  0  0
 59 62  1  0  0  0
 60128  1  0  0  0
 60129  1  0  0  0
 60130  1  0  0  0
 61131  1  0  0  0
 61132  1  0  0  0
 61133  1  0  0  0
 62134  1  0  0  0
 62135  1  0  0  0
 62136  1  0  0  0
 63 65  1  0  0  0
 63137  1  0  0  0
 63138  1  0  0  0
 63139  1  0  0  0
 64140  1  0  0  0
 65141  1  0  0  0
 68 78  1  0  0  0
 71 72  2  0  0  0
 71 73  1  0  0  0
 71 80  1  0  0  0
 72 75  1  0  0  0
 72 82  1  0  0  0
 73142  1  0  0  0
 73143  1  0  0  0
 73144  1  0  0  0
 74145  1  0  0  0
 74146  1  0  0  0
 74147  1  0  0  0
 74 79  1  0  0  0
 75 76  1  0  0  0
 75148  1  0  0  0
 75149  1  0  0  0
 76 77  1  0  0  0
 76150  1  0  0  0
 76151  1  0  0  0
 77 78  1  0  0  0
 77152  1  0  0  0
 77153  1  0  0  0
 78154  1  0  0  0
 78155  1  0  0  0
 79 82  1  0  0  0
 79156  1  0  0  0
 80 81  2  0  0  0
 81 82  1  0  0  0
M  ISO  4   1 100  68 101  78 101  79 100
M  END
> <chiral flag>
0

> <version>
0

> <s_m_source_file>
/data/baiqing/PycharmProjects/Reinvent-master-3.2/result/LINK_invent/BTK/process_docking_weight1_custom_sum_contain_oxygen_bond_distance_aromatic_linkinvent_7_9_3/rearranged_h_0078.sdf

> <i_m_source_file_index>
62

> <r_mmod_Potential_Energy-OPLS-2005>
589.662353515625

> <r_mmod_Stretch_Energy-OPLS-2005>
279.679016113281

> <r_mmod_Bend_Energy-OPLS-2005>
307.295166015625

> <r_mmod_Torsional_Energy-OPLS-2005>
238.663162231445

> <r_mmod_Improper_Torsional_Energy-OPLS-2005>
2.72409868240356

> <r_mmod_Van_der_Waal_Energy-OPLS-2005>
112.67845916748

> <r_mmod_Electrostatic_Energy-OPLS-2005>
-310.217376708984

> <r_mmod_Solvation_Energy-OPLS-2005>
-210.40705871582

> <b_mmod_Minimization_Converged-OPLS-2005>
0

> <r_mmod_RMS_Derivative-OPLS-2005>
0.131406754255295

$$$$
62
                    3D
 Structure written by MMmdl.
158166  0  0  1  0            999 V2000
  -30.6804  -14.5325   20.5453 C   0  0  0  0  0  0
  -30.4266  -12.3360   19.4390 C   0  0  0  0  0  0
  -29.5007  -12.5001   18.2157 C   0  0  0  0  0  0
  -28.0221  -12.3546   18.6271 C   0  0  0  0  0  0
  -27.6580  -13.2111   19.8697 C   0  0  2  0  0  0
  -28.7000  -13.0301   20.9964 C   0  0  0  0  0  0
  -25.2576  -13.8161   20.5679 C   0  0  0  0  0  0
  -24.1834  -13.0438   20.9175 C   0  0  0  0  0  0
  -24.6391  -11.6906   20.8733 C   0  0  0  0  0  0
  -23.9058  -10.4296   21.0405 C   0  0  0  0  0  0
  -24.3614   -9.4212   21.9180 C   0  0  0  0  0  0
  -23.6296   -8.2245   22.0750 C   0  0  0  0  0  0
  -22.4279   -8.0280   21.3540 C   0  0  0  0  0  0
  -21.9912   -9.0251   20.4637 C   0  0  0  0  0  0
  -22.7234  -10.2133   20.3051 C   0  0  0  0  0  0
  -21.6856   -6.0738   22.5281 C   0  0  0  0  0  0
  -21.4013   -6.5640   23.8214 C   0  0  0  0  0  0
  -21.3658   -5.6791   24.9176 C   0  0  0  0  0  0
  -21.6052   -4.3056   24.7228 C   0  0  0  0  0  0
  -21.8818   -3.8149   23.4348 C   0  0  0  0  0  0
  -21.9192   -4.6965   22.3404 C   0  0  0  0  0  0
  -22.7857  -13.5231   21.1849 C   0  0  0  0  0  0
  -22.1659   -4.2151   21.0983 F   0  0  0  0  0  0
  -21.5633   -3.4538   25.7741 F   0  0  0  0  0  0
  -30.0237  -13.3425   20.4367 N   0  0  0  0  0  0
  -26.3009  -12.9336   20.3337 N   0  0  0  0  0  0
  -25.9318  -11.6496   20.5762 N   0  0  0  0  0  0
  -22.0498  -12.8217   22.0397 N   0  0  0  0  0  0
  -25.4306  -15.1880   20.4100 N   0  0  0  0  0  0
  -31.8283  -14.6930   20.1227 O   0  0  0  0  0  0
  -21.6641   -6.8878   21.4242 O   0  0  0  0  0  0
  -22.3545  -14.5547   20.6711 O   0  0  0  0  0  0
  -24.6215  -31.8657   23.2079 C   0  0  0  0  0  0
  -25.9088  -32.4808   23.8388 C   0  0  1  0  0  0
  -27.2201  -27.3727   20.0996 C   0  0  0  0  0  0
  -25.5924  -33.8607   24.2318 N   0  0  0  0  0  0
  -23.4109  -30.4926   21.5510 C   0  0  2  0  0  0
  -24.8542  -28.9604   20.1102 C   0  0  0  0  0  0
  -22.7446  -29.4658   22.4964 C   0  0  0  0  0  0
  -18.0284  -28.1377   22.8488 C   0  0  0  0  0  0
  -24.1489  -36.7308   23.2638 C   0  0  0  0  0  0
  -25.9492  -30.8123   21.3720 C   0  0  0  0  0  0
  -26.0221  -29.4455   20.7122 C   0  0  0  0  0  0
  -27.2085  -28.6620   20.7008 C   0  0  0  0  0  0
  -26.0276  -26.9334   19.4727 C   0  0  0  0  0  0
  -24.8561  -27.7068   19.4843 C   0  0  0  0  0  0
  -23.6204  -29.8338   20.1636 C   0  0  0  0  0  0
  -25.4112  -36.3103   24.0335 C   0  0  1  0  0  0
  -20.5879  -28.3680   23.1295 C   0  0  2  0  0  0
  -20.6775  -26.9413   22.5409 C   0  0  0  0  0  0
  -19.5749  -26.6386   21.5211 C   0  0  0  0  0  0
  -18.1928  -26.7921   22.1623 C   0  0  0  0  0  0
  -19.1534  -28.8846   23.2888 C   0  0  0  0  0  0
  -18.9457  -30.1448   23.8904 C   0  0  0  0  0  0
  -17.6458  -30.6583   24.0564 C   0  0  0  0  0  0
  -25.9045  -34.9468   23.5123 C   0  0  0  0  0  0
  -16.5351  -29.9085   23.6325 C   0  0  0  0  0  0
  -16.7271  -28.6500   23.0349 C   0  0  0  0  0  0
  -26.4487  -31.6595   25.0733 C   0  0  0  0  0  0
  -25.3732  -31.3715   26.1466 C   0  0  0  0  0  0
  -27.0327  -30.3027   24.6150 C   0  0  0  0  0  0
  -27.6054  -32.4319   25.7501 C   0  0  0  0  0  0
  -27.5583  -37.1811   24.8465 C   0  0  0  0  0  0
  -21.4168  -29.3044   22.3701 N   0  0  0  0  0  0
  -26.4296  -37.3789   23.9406 N   0  0  0  0  0  0
  -24.6793  -31.0716   22.1009 N   0  0  0  0  0  0
  -23.4197  -28.8192   23.3017 O   0  0  0  0  0  0
  -28.3505  -26.5539   20.1489 O   0  0  0  0  0  0
  -26.5608  -34.8925   22.4685 O   0  0  0  0  0  0
  -23.5392  -32.1439   23.7436 O   0  0  0  0  0  0
  -30.5399  -21.7755   18.5194 C   0  0  0  0  0  0
  -30.1385  -20.3604   20.0173 C   0  0  0  0  0  0
  -30.4322  -22.9340   17.5792 C   0  0  0  0  0  0
  -29.5660  -19.5647   21.1775 C   0  0  0  0  0  0
  -29.2234  -18.0507   20.9069 C   0  0  0  0  0  0
  -29.2396  -24.1091   20.3551 C   0  0  0  0  0  0
  -28.8014  -22.5991   20.1865 C   0  0  0  0  0  0
  -30.3856  -17.0079   21.0270 C   0  0  0  0  0  0
  -28.1186  -25.1240   19.9602 C   0  0  0  0  0  0
  -31.3657  -20.7542   18.2793 N   0  0  0  0  0  0
  -31.1190  -19.8423   19.2675 N   0  0  0  0  0  0
  -29.7992  -21.6407   19.6473 N   0  0  0  0  0  0
  -29.9482  -15.5866   20.9804 N   0  0  0  0  0  0
  -31.4717  -12.4384   19.1403 H   0  0  0  0  0  0
  -30.3357  -11.3332   19.8597 H   0  0  0  0  0  0
  -29.7502  -11.7629   17.4515 H   0  0  0  0  0  0
  -29.6609  -13.4785   17.7597 H   0  0  0  0  0  0
  -27.8413  -11.3003   18.8406 H   0  0  0  0  0  0
  -27.3717  -12.6097   17.7899 H   0  0  0  0  0  0
  -27.6901  -14.2527   19.5496 H   0  0  0  0  0  0
  -28.6888  -12.0035   21.3657 H   0  0  0  0  0  0
  -28.4599  -13.6555   21.8571 H   0  0  0  0  0  0
  -25.2759   -9.5693   22.4752 H   0  0  0  0  0  0
  -24.0007   -7.4639   22.7468 H   0  0  0  0  0  0
  -21.0847   -8.8771   19.8937 H   0  0  0  0  0  0
  -22.3695  -10.9674   19.6163 H   0  0  0  0  0  0
  -21.2002   -7.6149   23.9719 H   0  0  0  0  0  0
  -21.1482   -6.0522   25.9079 H   0  0  0  0  0  0
  -22.0598   -2.7611   23.2851 H   0  0  0  0  0  0
  -22.4116  -11.9877   22.4781 H   0  0  0  0  0  0
  -21.1114  -13.1236   22.2598 H   0  0  0  0  0  0
  -24.6656  -15.8450   20.5201 H   0  0  0  0  0  0
  -26.2834  -15.6255   20.0847 H   0  0  0  0  0  0
  -26.7158  -32.5496   23.1145 H   0  0  0  0  0  0
  -25.0079  -33.9762   25.0467 H   0  0  0  0  0  0
  -22.7017  -31.3118   21.4142 H   0  0  0  0  0  0
  -23.3748  -35.9645   23.3308 H   0  0  0  0  0  0
  -24.3582  -36.8916   22.2050 H   0  0  0  0  0  0
  -23.7246  -37.6517   23.6647 H   0  0  0  0  0  0
  -26.0757  -31.5789   20.6060 H   0  0  0  0  0  0
  -26.8324  -30.8582   21.9979 H   0  0  0  0  0  0
  -28.1049  -29.0298   21.1803 H   0  0  0  0  0  0
  -25.9637  -25.9806   18.9698 H   0  0  0  0  0  0
  -23.9620  -27.3298   19.0073 H   0  0  0  0  0  0
  -23.7335  -30.6136   19.4096 H   0  0  0  0  0  0
  -22.7411  -29.2608   19.8629 H   0  0  0  0  0  0
  -25.1287  -36.1967   25.0828 H   0  0  0  0  0  0
  -20.9972  -28.3252   24.1413 H   0  0  0  0  0  0
  -20.5681  -26.2292   23.3602 H   0  0  0  0  0  0
  -21.6644  -26.7450   22.1199 H   0  0  0  0  0  0
  -19.6915  -25.6299   21.1233 H   0  0  0  0  0  0
  -19.6683  -27.3201   20.6741 H   0  0  0  0  0  0
  -17.4200  -26.6671   21.4025 H   0  0  0  0  0  0
  -18.0331  -26.0063   22.9016 H   0  0  0  0  0  0
  -19.7933  -30.7260   24.2277 H   0  0  0  0  0  0
  -17.5014  -31.6259   24.5166 H   0  0  0  0  0  0
  -15.5352  -30.2988   23.7639 H   0  0  0  0  0  0
  -15.8671  -28.0818   22.7060 H   0  0  0  0  0  0
  -24.5903  -30.7069   25.7796 H   0  0  0  0  0  0
  -24.8926  -32.2876   26.4908 H   0  0  0  0  0  0
  -25.8065  -30.8881   27.0231 H   0  0  0  0  0  0
  -26.2893  -29.6784   24.1178 H   0  0  0  0  0  0
  -27.4053  -29.7268   25.4631 H   0  0  0  0  0  0
  -27.8747  -30.4332   23.9348 H   0  0  0  0  0  0
  -27.2669  -33.3612   26.2094 H   0  0  0  0  0  0
  -28.3854  -32.6891   25.0323 H   0  0  0  0  0  0
  -28.0734  -31.8435   26.5403 H   0  0  0  0  0  0
  -28.2603  -38.0106   24.7509 H   0  0  0  0  0  0
  -28.1077  -36.2637   24.6292 H   0  0  0  0  0  0
  -27.2301  -37.1463   25.8869 H   0  0  0  0  0  0
  -20.9335  -29.8780   21.6930 H   0  0  0  0  0  0
  -26.0185  -38.2871   24.1390 H   0  0  0  0  0  0
  -30.6661  -22.6127   16.5641 H   0  0  0  0  0  0
  -31.1386  -23.7159   17.8555 H   0  0  0  0  0  0
  -29.4223  -23.3429   17.5708 H   0  0  0  0  0  0
  -28.6459  -20.0538   21.4932 H   0  0  0  0  0  0
  -30.2482  -19.6474   22.0239 H   0  0  0  0  0  0
  -28.7255  -17.9558   19.9412 H   0  0  0  0  0  0
  -28.4745  -17.7665   21.6473 H   0  0  0  0  0  0
  -30.1380  -24.3377   19.7884 H   0  0  0  0  0  0
  -29.5178  -24.2733   21.3965 H   0  0  0  0  0  0
  -27.9394  -22.5466   19.5205 H   0  0  0  0  0  0
  -28.4429  -22.2352   21.1481 H   0  0  0  0  0  0
  -30.9145  -17.1612   21.9689 H   0  0  0  0  0  0
  -31.1147  -17.1946   20.2371 H   0  0  0  0  0  0
  -27.2321  -24.8341   20.5274 H   0  0  0  0  0  0
  -27.8931  -24.9575   18.9059 H   0  0  0  0  0  0
  -29.0081  -15.3792   21.2840 H   0  0  0  0  0  0
  1 25  1  0  0  0
  1 30  2  0  0  0
  1 83  1  0  0  0
  2  3  1  0  0  0
  2 25  1  0  0  0
  2 84  1  0  0  0
  2 85  1  0  0  0
  3  4  1  0  0  0
  3 86  1  0  0  0
  3 87  1  0  0  0
  4  5  1  0  0  0
  4 88  1  0  0  0
  4 89  1  0  0  0
  5  6  1  0  0  0
  5 26  1  0  0  0
  5 90  1  0  0  0
  6 25  1  0  0  0
  6 91  1  0  0  0
  6 92  1  0  0  0
  7  8  2  0  0  0
  7 26  1  0  0  0
  7 29  1  0  0  0
  8  9  1  0  0  0
  8 22  1  0  0  0
  9 10  1  0  0  0
  9 27  2  0  0  0
 10 11  2  0  0  0
 10 15  1  0  0  0
 11 12  1  0  0  0
 11 93  1  0  0  0
 12 13  2  0  0  0
 12 94  1  0  0  0
 13 14  1  0  0  0
 13 31  1  0  0  0
 14 15  2  0  0  0
 14 95  1  0  0  0
 15 96  1  0  0  0
 16 17  2  0  0  0
 16 21  1  0  0  0
 16 31  1  0  0  0
 17 18  1  0  0  0
 17 97  1  0  0  0
 18 19  2  0  0  0
 18 98  1  0  0  0
 19 20  1  0  0  0
 19 24  1  0  0  0
 20 21  2  0  0  0
 20 99  1  0  0  0
 21 23  1  0  0  0
 22 28  1  0  0  0
 22 32  2  0  0  0
 26 27  1  0  0  0
 28100  1  0  0  0
 28101  1  0  0  0
 29102  1  0  0  0
 29103  1  0  0  0
 33 34  1  0  0  0
 33 66  1  0  0  0
 33 70  2  0  0  0
 34 36  1  0  0  0
 34 59  1  0  0  0
 34104  1  0  0  0
 35 44  2  0  0  0
 35 45  1  0  0  0
 35 68  1  0  0  0
 36 56  1  0  0  0
 36105  1  0  0  0
 37 39  1  0  0  0
 37 47  1  0  0  0
 37 66  1  0  0  0
 37106  1  0  0  0
 38 43  2  0  0  0
 38 46  1  0  0  0
 38 47  1  0  0  0
 39 64  1  0  0  0
 39 67  2  0  0  0
 40 52  1  0  0  0
 40 53  2  0  0  0
 40 58  1  0  0  0
 41107  1  0  0  0
 41108  1  0  0  0
 41109  1  0  0  0
 41 48  1  0  0  0
 42 43  1  0  0  0
 42 66  1  0  0  0
 42110  1  0  0  0
 42111  1  0  0  0
 43 44  1  0  0  0
 44112  1  0  0  0
 45 46  2  0  0  0
 45113  1  0  0  0
 46114  1  0  0  0
 47115  1  0  0  0
 47116  1  0  0  0
 48 56  1  0  0  0
 48 65  1  0  0  0
 48117  1  0  0  0
 49 50  1  0  0  0
 49 53  1  0  0  0
 49 64  1  0  0  0
 49118  1  0  0  0
 50 51  1  0  0  0
 50119  1  0  0  0
 50120  1  0  0  0
 51 52  1  0  0  0
 51121  1  0  0  0
 51122  1  0  0  0
 52123  1  0  0  0
 52124  1  0  0  0
 53 54  1  0  0  0
 54 55  2  0  0  0
 54125  1  0  0  0
 55 57  1  0  0  0
 55126  1  0  0  0
 56 69  2  0  0  0
 57 58  2  0  0  0
 57127  1  0  0  0
 58128  1  0  0  0
 59 60  1  0  0  0
 59 61  1  0  0  0
 59 62  1  0  0  0
 60129  1  0  0  0
 60130  1  0  0  0
 60131  1  0  0  0
 61132  1  0  0  0
 61133  1  0  0  0
 61134  1  0  0  0
 62135  1  0  0  0
 62136  1  0  0  0
 62137  1  0  0  0
 63 65  1  0  0  0
 63138  1  0  0  0
 63139  1  0  0  0
 63140  1  0  0  0
 64141  1  0  0  0
 65142  1  0  0  0
 68 79  1  0  0  0
 71 73  1  0  0  0
 71 80  2  0  0  0
 71 82  1  0  0  0
 72 74  1  0  0  0
 72 81  2  0  0  0
 72 82  1  0  0  0
 73143  1  0  0  0
 73144  1  0  0  0
 73145  1  0  0  0
 74 75  1  0  0  0
 74146  1  0  0  0
 74147  1  0  0  0
 75 78  1  0  0  0
 75148  1  0  0  0
 75149  1  0  0  0
 76 77  1  0  0  0
 76 79  1  0  0  0
 76150  1  0  0  0
 76151  1  0  0  0
 77 82  1  0  0  0
 77152  1  0  0  0
 77153  1  0  0  0
 78 83  1  0  0  0
 78154  1  0  0  0
 78155  1  0  0  0
 79156  1  0  0  0
 79157  1  0  0  0
 80 81  1  0  0  0
 83158  1  0  0  0
M  ISO  4   1 100  68 101  79 101  83 100
M  END
> <chiral flag>
0

> <version>
0

> <s_m_source_file>
/data/baiqing/PycharmProjects/Reinvent-master-3.2/result/LINK_invent/BTK/process_docking_weight1_custom_sum_contain_oxygen_bond_distance_aromatic_linkinvent_7_9_3/rearranged_h_0078.sdf

> <i_m_source_file_index>
63

> <r_mmod_Potential_Energy-OPLS-2005>
-79.3762435913086

> <r_mmod_Stretch_Energy-OPLS-2005>
54.1762542724609

> <r_mmod_Bend_Energy-OPLS-2005>
124.614311218262

> <r_mmod_Torsional_Energy-OPLS-2005>
220.630035400391

> <r_mmod_Improper_Torsional_Energy-OPLS-2005>
4.48954343795776

> <r_mmod_Van_der_Waal_Energy-OPLS-2005>
132.893188476562

> <r_mmod_Electrostatic_Energy-OPLS-2005>
-388.944671630859

> <r_mmod_Solvation_Energy-OPLS-2005>
-253.274551391602

> <b_mmod_Minimization_Converged-OPLS-2005>
0

> <r_mmod_RMS_Derivative-OPLS-2005>
0.817347943782806

$$$$
63
                    3D
 Structure written by MMmdl.
164171  0  0  1  0            999 V2000
  -30.6773  -14.5377   20.5381 C   0  0  0  0  0  0
  -30.4321  -12.3464   19.4156 C   0  0  0  0  0  0
  -29.4938  -12.4973   18.2005 C   0  0  0  0  0  0
  -28.0180  -12.3521   18.6199 C   0  0  0  0  0  0
  -27.6571  -13.2090   19.8628 C   0  0  2  0  0  0
  -28.7052  -13.0291   20.9830 C   0  0  0  0  0  0
  -25.2602  -13.8165   20.5696 C   0  0  0  0  0  0
  -24.1824  -13.0434   20.9115 C   0  0  0  0  0  0
  -24.6370  -11.6891   20.8652 C   0  0  0  0  0  0
  -23.9036  -10.4292   21.0334 C   0  0  0  0  0  0
  -24.3626   -9.4218   21.9100 C   0  0  0  0  0  0
  -23.6288   -8.2262   22.0734 C   0  0  0  0  0  0
  -22.4258   -8.0294   21.3551 C   0  0  0  0  0  0
  -21.9875   -9.0269   20.4661 C   0  0  0  0  0  0
  -22.7194  -10.2133   20.3018 C   0  0  0  0  0  0
  -21.6829   -6.0755   22.5287 C   0  0  0  0  0  0
  -21.4014   -6.5675   23.8218 C   0  0  0  0  0  0
  -21.3664   -5.6827   24.9184 C   0  0  0  0  0  0
  -21.6061   -4.3099   24.7238 C   0  0  0  0  0  0
  -21.8810   -3.8177   23.4364 C   0  0  0  0  0  0
  -21.9161   -4.6991   22.3407 C   0  0  0  0  0  0
  -22.7854  -13.5246   21.1796 C   0  0  0  0  0  0
  -22.1666   -4.2178   21.0989 F   0  0  0  0  0  0
  -21.5601   -3.4582   25.7755 F   0  0  0  0  0  0
  -30.0240  -13.3493   20.4122 N   0  0  0  0  0  0
  -26.3014  -12.9312   20.3309 N   0  0  0  0  0  0
  -25.9298  -11.6470   20.5692 N   0  0  0  0  0  0
  -22.0444  -12.8191   22.0266 N   0  0  0  0  0  0
  -25.4398  -15.1887   20.4253 N   0  0  0  0  0  0
  -31.8379  -14.7032   20.1523 O   0  0  0  0  0  0
  -21.6629   -6.8888   21.4242 O   0  0  0  0  0  0
  -22.3596  -14.5634   20.6752 O   0  0  0  0  0  0
  -24.6199  -31.8627   23.2054 C   0  0  0  0  0  0
  -25.9056  -32.4808   23.8381 C   0  0  1  0  0  0
  -27.2245  -27.3847   20.1015 C   0  0  0  0  0  0
  -25.5877  -33.8614   24.2314 N   0  0  0  0  0  0
  -23.4109  -30.4839   21.5498 C   0  0  2  0  0  0
  -24.8564  -28.9411   20.1171 C   0  0  0  0  0  0
  -22.7447  -29.4610   22.4997 C   0  0  0  0  0  0
  -18.0280  -28.1376   22.8499 C   0  0  0  0  0  0
  -24.1484  -36.7325   23.2642 C   0  0  0  0  0  0
  -25.9449  -30.8129   21.3645 C   0  0  0  0  0  0
  -26.0214  -29.4427   20.7134 C   0  0  0  0  0  0
  -27.2127  -28.6729   20.6982 C   0  0  0  0  0  0
  -26.0451  -26.9086   19.4967 C   0  0  0  0  0  0
  -24.8648  -27.6761   19.5046 C   0  0  0  0  0  0
  -23.6219  -29.8151   20.1661 C   0  0  0  0  0  0
  -25.4104  -36.3112   24.0338 C   0  0  1  0  0  0
  -20.5870  -28.3658   23.1326 C   0  0  2  0  0  0
  -20.6767  -26.9391   22.5425 C   0  0  0  0  0  0
  -19.5742  -26.6380   21.5226 C   0  0  0  0  0  0
  -18.1925  -26.7919   22.1642 C   0  0  0  0  0  0
  -19.1527  -28.8840   23.2907 C   0  0  0  0  0  0
  -18.9444  -30.1449   23.8911 C   0  0  0  0  0  0
  -17.6440  -30.6578   24.0565 C   0  0  0  0  0  0
  -25.9033  -34.9472   23.5135 C   0  0  0  0  0  0
  -16.5338  -29.9072   23.6323 C   0  0  0  0  0  0
  -16.7265  -28.6493   23.0346 C   0  0  0  0  0  0
  -26.4454  -31.6604   25.0732 C   0  0  0  0  0  0
  -25.3714  -31.3730   26.1487 C   0  0  0  0  0  0
  -27.0307  -30.3055   24.6128 C   0  0  0  0  0  0
  -27.6032  -32.4342   25.7482 C   0  0  0  0  0  0
  -27.5576  -37.1820   24.8458 C   0  0  0  0  0  0
  -21.4168  -29.3024   22.3742 N   0  0  0  0  0  0
  -26.4286  -37.3794   23.9402 N   0  0  0  0  0  0
  -24.6777  -31.0689   22.0977 N   0  0  0  0  0  0
  -23.4194  -28.8153   23.3058 O   0  0  0  0  0  0
  -28.3568  -26.5888   20.0915 O   0  0  0  0  0  0
  -26.5619  -34.8918   22.4717 O   0  0  0  0  0  0
  -23.5372  -32.1397   23.7408 O   0  0  0  0  0  0
  -28.1255  -21.2966   20.2623 C   0  0  0  0  0  0
  -26.8973  -21.1575   19.3718 C   0  0  0  0  0  0
  -27.1996  -22.7158   22.1040 C   0  0  0  0  0  0
  -27.7750  -18.3311   21.3457 C   0  0  0  0  0  0
  -28.3699  -18.5127   18.8906 C   0  0  0  0  0  0
  -30.2111  -18.1774   20.5586 C   0  0  0  0  0  0
  -28.1853  -23.9851   20.0519 C   0  0  0  0  0  0
  -30.4021  -16.9001   21.4640 C   0  0  0  0  0  0
  -28.2650  -25.3446   20.8393 C   0  0  0  0  0  0
  -28.2405  -22.6874   20.9606 C   0  0  2  0  0  0
  -28.8066  -18.8691   20.3325 C   0  0  0  0  0  0
  -28.9527  -20.3418   20.5646 N   0  0  0  0  0  0
  -29.9310  -15.5733   20.9913 N   0  0  0  0  0  0
  -31.4719  -12.4640   19.1036 H   0  0  0  0  0  0
  -30.3643  -11.3438   19.8410 H   0  0  0  0  0  0
  -29.7390  -11.7541   17.4414 H   0  0  0  0  0  0
  -29.6466  -13.4721   17.7342 H   0  0  0  0  0  0
  -27.8416  -11.2986   18.8369 H   0  0  0  0  0  0
  -27.3654  -12.6044   17.7835 H   0  0  0  0  0  0
  -27.6882  -14.2500   19.5408 H   0  0  0  0  0  0
  -28.6953  -12.0048   21.3561 H   0  0  0  0  0  0
  -28.4641  -13.6561   21.8434 H   0  0  0  0  0  0
  -25.2806   -9.5692   22.4586 H   0  0  0  0  0  0
  -24.0020   -7.4662   22.7444 H   0  0  0  0  0  0
  -21.0797   -8.8778   19.9007 H   0  0  0  0  0  0
  -22.3624  -10.9662   19.6111 H   0  0  0  0  0  0
  -21.2050   -7.6191   23.9748 H   0  0  0  0  0  0
  -21.1501   -6.0562   25.9075 H   0  0  0  0  0  0
  -22.0592   -2.7647   23.2851 H   0  0  0  0  0  0
  -21.1122  -13.1314   22.2641 H   0  0  0  0  0  0
  -22.3980  -11.9710   22.4465 H   0  0  0  0  0  0
  -24.6944  -15.8521   20.6046 H   0  0  0  0  0  0
  -26.2992  -15.6318   20.1283 H   0  0  0  0  0  0
  -26.7144  -32.5498   23.1157 H   0  0  0  0  0  0
  -24.9976  -33.9782   25.0427 H   0  0  0  0  0  0
  -22.7022  -31.3024   21.4086 H   0  0  0  0  0  0
  -23.3731  -35.9671   23.3307 H   0  0  0  0  0  0
  -24.3584  -36.8944   22.2056 H   0  0  0  0  0  0
  -23.7247  -37.6539   23.6659 H   0  0  0  0  0  0
  -26.0611  -31.5714   20.5888 H   0  0  0  0  0  0
  -26.8338  -30.8724   21.9822 H   0  0  0  0  0  0
  -28.1128  -29.0518   21.1629 H   0  0  0  0  0  0
  -26.0375  -25.9404   19.0158 H   0  0  0  0  0  0
  -23.9708  -27.2863   19.0389 H   0  0  0  0  0  0
  -23.7345  -30.5890   19.4058 H   0  0  0  0  0  0
  -22.7448  -29.2370   19.8701 H   0  0  0  0  0  0
  -25.1285  -36.1973   25.0828 H   0  0  0  0  0  0
  -20.9968  -28.3203   24.1439 H   0  0  0  0  0  0
  -20.5675  -26.2257   23.3610 H   0  0  0  0  0  0
  -21.6637  -26.7428   22.1213 H   0  0  0  0  0  0
  -19.6889  -25.6293   21.1240 H   0  0  0  0  0  0
  -19.6673  -27.3207   20.6767 H   0  0  0  0  0  0
  -17.4193  -26.6678   21.4039 H   0  0  0  0  0  0
  -18.0313  -26.0063   22.9039 H   0  0  0  0  0  0
  -19.7919  -30.7276   24.2278 H   0  0  0  0  0  0
  -17.4986  -31.6257   24.5169 H   0  0  0  0  0  0
  -15.5336  -30.2974   23.7632 H   0  0  0  0  0  0
  -15.8675  -28.0818   22.7039 H   0  0  0  0  0  0
  -24.5866  -30.7101   25.7823 H   0  0  0  0  0  0
  -24.8916  -32.2890   26.4944 H   0  0  0  0  0  0
  -25.8030  -30.8883   27.0253 H   0  0  0  0  0  0
  -26.2873  -29.6821   24.1138 H   0  0  0  0  0  0
  -27.4059  -29.7275   25.4584 H   0  0  0  0  0  0
  -27.8701  -30.4415   23.9308 H   0  0  0  0  0  0
  -27.2651  -33.3632   26.2093 H   0  0  0  0  0  0
  -28.3779  -32.6940   25.0256 H   0  0  0  0  0  0
  -28.0774  -31.8465   26.5354 H   0  0  0  0  0  0
  -28.2602  -38.0110   24.7502 H   0  0  0  0  0  0
  -28.1061  -36.2645   24.6279 H   0  0  0  0  0  0
  -27.2306  -37.1478   25.8865 H   0  0  0  0  0  0
  -20.9332  -29.8745   21.6968 H   0  0  0  0  0  0
  -26.0170  -38.2872   24.1391 H   0  0  0  0  0  0
  -26.2907  -22.0611   19.3711 H   0  0  0  0  0  0
  -26.2468  -20.3549   19.7154 H   0  0  0  0  0  0
  -27.1937  -20.9688   18.3400 H   0  0  0  0  0  0
  -27.2857  -21.8324   22.7398 H   0  0  0  0  0  0
  -26.1754  -22.7409   21.7294 H   0  0  0  0  0  0
  -27.3379  -23.5693   22.7624 H   0  0  0  0  0  0
  -26.7800  -18.7403   21.1841 H   0  0  0  0  0  0
  -28.0555  -18.5757   22.3711 H   0  0  0  0  0  0
  -27.6799  -17.2485   21.2788 H   0  0  0  0  0  0
  -28.5564  -17.4594   18.6806 H   0  0  0  0  0  0
  -28.9136  -19.0861   18.1363 H   0  0  0  0  0  0
  -27.3027  -18.6446   18.7191 H   0  0  0  0  0  0
  -30.6933  -17.9943   19.5979 H   0  0  0  0  0  0
  -30.8603  -18.9241   21.0198 H   0  0  0  0  0  0
  -29.0136  -23.9465   19.3442 H   0  0  0  0  0  0
  -27.2833  -23.9931   19.4423 H   0  0  0  0  0  0
  -29.9500  -17.0794   22.4389 H   0  0  0  0  0  0
  -31.4666  -16.8147   21.6843 H   0  0  0  0  0  0
  -29.1480  -25.3125   21.4782 H   0  0  0  0  0  0
  -27.4185  -25.4067   21.5251 H   0  0  0  0  0  0
  -29.2204  -22.7089   21.4420 H   0  0  0  0  0  0
  -28.9727  -15.3409   21.2030 H   0  0  0  0  0  0
  1 25  1  0  0  0
  1 30  2  0  0  0
  1 83  1  0  0  0
  2  3  1  0  0  0
  2 25  1  0  0  0
  2 84  1  0  0  0
  2 85  1  0  0  0
  3  4  1  0  0  0
  3 86  1  0  0  0
  3 87  1  0  0  0
  4  5  1  0  0  0
  4 88  1  0  0  0
  4 89  1  0  0  0
  5  6  1  0  0  0
  5 26  1  0  0  0
  5 90  1  0  0  0
  6 25  1  0  0  0
  6 91  1  0  0  0
  6 92  1  0  0  0
  7  8  2  0  0  0
  7 26  1  0  0  0
  7 29  1  0  0  0
  8  9  1  0  0  0
  8 22  1  0  0  0
  9 10  1  0  0  0
  9 27  2  0  0  0
 10 11  2  0  0  0
 10 15  1  0  0  0
 11 12  1  0  0  0
 11 93  1  0  0  0
 12 13  2  0  0  0
 12 94  1  0  0  0
 13 14  1  0  0  0
 13 31  1  0  0  0
 14 15  2  0  0  0
 14 95  1  0  0  0
 15 96  1  0  0  0
 16 17  2  0  0  0
 16 21  1  0  0  0
 16 31  1  0  0  0
 17 18  1  0  0  0
 17 97  1  0  0  0
 18 19  2  0  0  0
 18 98  1  0  0  0
 19 20  1  0  0  0
 19 24  1  0  0  0
 20 21  2  0  0  0
 20 99  1  0  0  0
 21 23  1  0  0  0
 22 28  1  0  0  0
 22 32  2  0  0  0
 26 27  1  0  0  0
 28100  1  0  0  0
 28101  1  0  0  0
 29102  1  0  0  0
 29103  1  0  0  0
 33 34  1  0  0  0
 33 66  1  0  0  0
 33 70  2  0  0  0
 34 36  1  0  0  0
 34 59  1  0  0  0
 34104  1  0  0  0
 35 44  2  0  0  0
 35 45  1  0  0  0
 35 68  1  0  0  0
 36 56  1  0  0  0
 36105  1  0  0  0
 37 39  1  0  0  0
 37 47  1  0  0  0
 37 66  1  0  0  0
 37106  1  0  0  0
 38 43  2  0  0  0
 38 46  1  0  0  0
 38 47  1  0  0  0
 39 64  1  0  0  0
 39 67  2  0  0  0
 40 52  1  0  0  0
 40 53  2  0  0  0
 40 58  1  0  0  0
 41107  1  0  0  0
 41108  1  0  0  0
 41109  1  0  0  0
 41 48  1  0  0  0
 42 43  1  0  0  0
 42 66  1  0  0  0
 42110  1  0  0  0
 42111  1  0  0  0
 43 44  1  0  0  0
 44112  1  0  0  0
 45 46  2  0  0  0
 45113  1  0  0  0
 46114  1  0  0  0
 47115  1  0  0  0
 47116  1  0  0  0
 48 56  1  0  0  0
 48 65  1  0  0  0
 48117  1  0  0  0
 49 50  1  0  0  0
 49 53  1  0  0  0
 49 64  1  0  0  0
 49118  1  0  0  0
 50 51  1  0  0  0
 50119  1  0  0  0
 50120  1  0  0  0
 51 52  1  0  0  0
 51121  1  0  0  0
 51122  1  0  0  0
 52123  1  0  0  0
 52124  1  0  0  0
 53 54  1  0  0  0
 54 55  2  0  0  0
 54125  1  0  0  0
 55 57  1  0  0  0
 55126  1  0  0  0
 56 69  2  0  0  0
 57 58  2  0  0  0
 57127  1  0  0  0
 58128  1  0  0  0
 59 60  1  0  0  0
 59 61  1  0  0  0
 59 62  1  0  0  0
 60129  1  0  0  0
 60130  1  0  0  0
 60131  1  0  0  0
 61132  1  0  0  0
 61133  1  0  0  0
 61134  1  0  0  0
 62135  1  0  0  0
 62136  1  0  0  0
 62137  1  0  0  0
 63 65  1  0  0  0
 63138  1  0  0  0
 63139  1  0  0  0
 63140  1  0  0  0
 64141  1  0  0  0
 65142  1  0  0  0
 68 79  1  0  0  0
 71 72  1  0  0  0
 71 80  1  0  0  0
 71 82  2  0  0  0
 72143  1  0  0  0
 72144  1  0  0  0
 72145  1  0  0  0
 73146  1  0  0  0
 73147  1  0  0  0
 73148  1  0  0  0
 73 80  1  0  0  0
 74149  1  0  0  0
 74150  1  0  0  0
 74151  1  0  0  0
 74 81  1  0  0  0
 75 81  1  0  0  0
 75152  1  0  0  0
 75153  1  0  0  0
 75154  1  0  0  0
 76 78  1  0  0  0
 76 81  1  0  0  0
 76155  1  0  0  0
 76156  1  0  0  0
 77 79  1  0  0  0
 77 80  1  0  0  0
 77157  1  0  0  0
 77158  1  0  0  0
 78 83  1  0  0  0
 78159  1  0  0  0
 78160  1  0  0  0
 79161  1  0  0  0
 79162  1  0  0  0
 80163  1  0  0  0
 81 82  1  0  0  0
 83164  1  0  0  0
M  ISO  4   1 100  68 101  79 101  83 100
M  END
> <chiral flag>
0

> <version>
0

> <s_m_source_file>
/data/baiqing/PycharmProjects/Reinvent-master-3.2/result/LINK_invent/BTK/process_docking_weight1_custom_sum_contain_oxygen_bond_distance_aromatic_linkinvent_7_9_3/rearranged_h_0078.sdf

> <i_m_source_file_index>
64

> <r_mmod_Potential_Energy-OPLS-2005>
4.33276081085205

> <r_mmod_Stretch_Energy-OPLS-2005>
60.4349327087402

> <r_mmod_Bend_Energy-OPLS-2005>
151.679504394531

> <r_mmod_Torsional_Energy-OPLS-2005>
256.574890136719

> <r_mmod_Improper_Torsional_Energy-OPLS-2005>
4.32692670822144

> <r_mmod_Van_der_Waal_Energy-OPLS-2005>
137.055801391602

> <r_mmod_Electrostatic_Energy-OPLS-2005>
-427.072204589844

> <r_mmod_Solvation_Energy-OPLS-2005>
-202.845123291016

> <b_mmod_Minimization_Converged-OPLS-2005>
0

> <r_mmod_RMS_Derivative-OPLS-2005>
3.21680879592896

$$$$
64
                    3D
 Structure written by MMmdl.
163171  0  0  1  0            999 V2000
  -30.5809  -14.7447   20.4770 C   0  0  0  0  0  0
  -30.4233  -12.4514   19.4458 C   0  0  0  0  0  0
  -29.4980  -12.4451   18.2123 C   0  0  0  0  0  0
  -28.0219  -12.2960   18.6264 C   0  0  0  0  0  0
  -27.6248  -13.2186   19.8083 C   0  0  2  0  0  0
  -28.6646  -13.1681   20.9490 C   0  0  0  0  0  0
  -25.2465  -13.8162   20.5679 C   0  0  0  0  0  0
  -24.1797  -13.0419   20.9272 C   0  0  0  0  0  0
  -24.6418  -11.6914   20.8766 C   0  0  0  0  0  0
  -23.9064  -10.4274   21.0436 C   0  0  0  0  0  0
  -24.3632   -9.4161   21.9181 C   0  0  0  0  0  0
  -23.6301   -8.2209   22.0767 C   0  0  0  0  0  0
  -22.4234   -8.0290   21.3549 C   0  0  0  0  0  0
  -21.9925   -9.0270   20.4582 C   0  0  0  0  0  0
  -22.7325  -10.2115   20.2987 C   0  0  0  0  0  0
  -21.6796   -6.0751   22.5305 C   0  0  0  0  0  0
  -21.4062   -6.5644   23.8226 C   0  0  0  0  0  0
  -21.3613   -5.6795   24.9214 C   0  0  0  0  0  0
  -21.5992   -4.3034   24.7260 C   0  0  0  0  0  0
  -21.8817   -3.8164   23.4360 C   0  0  0  0  0  0
  -21.9213   -4.7026   22.3442 C   0  0  0  0  0  0
  -22.7837  -13.5158   21.1993 C   0  0  0  0  0  0
  -22.1608   -4.2182   21.1022 F   0  0  0  0  0  0
  -21.5596   -3.4554   25.7751 F   0  0  0  0  0  0
  -29.9573  -13.5259   20.3574 N   0  0  0  0  0  0
  -26.2845  -12.9399   20.3072 N   0  0  0  0  0  0
  -25.9282  -11.6518   20.5577 N   0  0  0  0  0  0
  -22.0460  -12.8106   22.0457 N   0  0  0  0  0  0
  -25.4141  -15.1942   20.4181 N   0  0  0  0  0  0
  -31.7869  -14.8607   20.2490 O   0  0  0  0  0  0
  -21.6597   -6.8930   21.4221 O   0  0  0  0  0  0
  -22.3522  -14.5538   20.6893 O   0  0  0  0  0  0
  -24.6335  -31.8518   23.1817 C   0  0  0  0  0  0
  -25.9120  -32.4718   23.8292 C   0  0  1  0  0  0
  -27.2687  -27.2526   20.0889 C   0  0  0  0  0  0
  -25.5976  -33.8516   24.2216 N   0  0  0  0  0  0
  -23.4346  -30.4600   21.5183 C   0  0  2  0  0  0
  -24.8845  -28.8769   20.1141 C   0  0  0  0  0  0
  -22.7454  -29.4615   22.4772 C   0  0  0  0  0  0
  -18.0275  -28.1838   22.8456 C   0  0  0  0  0  0
  -24.1573  -36.7342   23.2630 C   0  0  0  0  0  0
  -25.9772  -30.7515   21.3566 C   0  0  0  0  0  0
  -26.0548  -29.3654   20.7113 C   0  0  0  0  0  0
  -27.2373  -28.5557   20.6938 C   0  0  0  0  0  0
  -26.0619  -26.8122   19.5003 C   0  0  0  0  0  0
  -24.8910  -27.6071   19.5107 C   0  0  0  0  0  0
  -23.6579  -29.7657   20.1446 C   0  0  0  0  0  0
  -25.4169  -36.3025   24.0330 C   0  0  1  0  0  0
  -20.5868  -28.4102   23.1486 C   0  0  2  0  0  0
  -20.6410  -26.9467   22.6707 C   0  0  0  0  0  0
  -19.5966  -26.6373   21.5934 C   0  0  0  0  0  0
  -18.1828  -26.8520   22.1373 C   0  0  0  0  0  0
  -19.1510  -28.9344   23.2884 C   0  0  0  0  0  0
  -18.9331  -30.1750   23.9139 C   0  0  0  0  0  0
  -17.6284  -30.6701   24.0969 C   0  0  0  0  0  0
  -25.9099  -34.9370   23.5073 C   0  0  0  0  0  0
  -16.5153  -29.9252   23.6591 C   0  0  0  0  0  0
  -16.7125  -28.6763   23.0469 C   0  0  0  0  0  0
  -26.4424  -31.6539   25.0693 C   0  0  0  0  0  0
  -25.3614  -31.3723   26.1391 C   0  0  0  0  0  0
  -27.0262  -30.2974   24.6155 C   0  0  0  0  0  0
  -27.6009  -32.4233   25.7437 C   0  0  0  0  0  0
  -27.5622  -37.1815   24.8440 C   0  0  0  0  0  0
  -21.4274  -29.2617   22.3042 N   0  0  0  0  0  0
  -26.4340  -37.3731   23.9386 N   0  0  0  0  0  0
  -24.7036  -31.0424   22.0772 N   0  0  0  0  0  0
  -23.3929  -28.8664   23.3457 O   0  0  0  0  0  0
  -28.4358  -26.4481   20.1308 O   0  0  0  0  0  0
  -26.5615  -34.8819   22.4609 O   0  0  0  0  0  0
  -23.5476  -32.1245   23.7094 O   0  0  0  0  0  0
  -27.0898  -20.9770   20.2301 C   0  0  0  0  0  0
  -28.4410  -21.0240   20.0294 C   0  0  0  0  0  0
  -28.1968  -20.1305   21.9674 C   0  0  0  0  0  0
  -27.8801  -20.8933   24.3960 C   0  0  0  0  0  0
  -27.5823  -17.8330   20.1056 C   0  0  0  0  0  0
  -29.1326  -22.3323   19.5243 C   0  0  0  0  0  0
  -28.4955  -19.8404   23.4263 C   0  0  0  0  0  0
  -28.4389  -23.7092   20.0528 C   0  0  0  0  0  0
  -29.9858  -17.3098   21.0482 C   0  0  0  0  0  0
  -28.6813  -25.1602   19.3890 C   0  0  0  0  0  0
  -29.0228  -18.4211   20.3293 C   0  0  2  0  0  0
  -28.9013  -19.9230   20.8216 N   0  0  0  0  0  0
  -27.0133  -20.6168   21.5467 N   0  3  0  0  0  0
  -29.7542  -15.8479   20.6423 N   0  0  0  0  0  0
  -31.4645  -12.5937   19.1520 H   0  0  0  0  0  0
  -30.3783  -11.4847   19.9443 H   0  0  0  0  0  0
  -29.7738  -11.6372   17.5315 H   0  0  0  0  0  0
  -29.6230  -13.3733   17.6622 H   0  0  0  0  0  0
  -27.8646  -11.2535   18.9129 H   0  0  0  0  0  0
  -27.3759  -12.4649   17.7643 H   0  0  0  0  0  0
  -27.6118  -14.2269   19.3926 H   0  0  0  0  0  0
  -28.7136  -12.1784   21.4016 H   0  0  0  0  0  0
  -28.4028  -13.8706   21.7466 H   0  0  0  0  0  0
  -25.2857   -9.5593   22.4706 H   0  0  0  0  0  0
  -23.9952   -7.4622   22.7557 H   0  0  0  0  0  0
  -21.0838   -8.8864   19.8932 H   0  0  0  0  0  0
  -22.3910  -10.9636   19.5997 H   0  0  0  0  0  0
  -21.2060   -7.6181   23.9800 H   0  0  0  0  0  0
  -21.1367   -6.0497   25.9092 H   0  0  0  0  0  0
  -22.0650   -2.7657   23.2895 H   0  0  0  0  0  0
  -22.3969  -11.9576   22.4610 H   0  0  0  0  0  0
  -21.1026  -13.1056   22.2643 H   0  0  0  0  0  0
  -24.6460  -15.8458   20.5432 H   0  0  0  0  0  0
  -26.2604  -15.6467   20.1066 H   0  0  0  0  0  0
  -26.7148  -32.5368   23.1050 H   0  0  0  0  0  0
  -25.0112  -33.9620   25.0315 H   0  0  0  0  0  0
  -22.7359  -31.2819   21.3471 H   0  0  0  0  0  0
  -23.3749  -35.9783   23.3245 H   0  0  0  0  0  0
  -24.3665  -36.8976   22.2049 H   0  0  0  0  0  0
  -23.7357  -37.6583   23.6615 H   0  0  0  0  0  0
  -26.0912  -31.4798   20.5584 H   0  0  0  0  0  0
  -26.8687  -30.8240   21.9768 H   0  0  0  0  0  0
  -28.1377  -28.9205   21.1665 H   0  0  0  0  0  0
  -26.0072  -25.8313   19.0485 H   0  0  0  0  0  0
  -23.9873  -27.2126   19.0680 H   0  0  0  0  0  0
  -23.7947  -30.5292   19.3750 H   0  0  0  0  0  0
  -22.7727  -29.1927   19.8451 H   0  0  0  0  0  0
  -25.1319  -36.1924   25.0833 H   0  0  0  0  0  0
  -21.0038  -28.4585   24.1579 H   0  0  0  0  0  0
  -20.4011  -26.3090   23.5279 H   0  0  0  0  0  0
  -21.6512  -26.6735   22.3624 H   0  0  0  0  0  0
  -19.7677  -27.2823   20.7318 H   0  0  0  0  0  0
  -19.6883  -25.6127   21.2383 H   0  0  0  0  0  0
  -17.8944  -26.0626   22.8264 H   0  0  0  0  0  0
  -17.4849  -26.8054   21.3063 H   0  0  0  0  0  0
  -19.7699  -30.7498   24.2970 H   0  0  0  0  0  0
  -17.4698  -31.6106   24.6013 H   0  0  0  0  0  0
  -15.5132  -30.3165   23.7911 H   0  0  0  0  0  0
  -15.8433  -28.1269   22.6996 H   0  0  0  0  0  0
  -24.5800  -30.7101   25.7651 H   0  0  0  0  0  0
  -24.8812  -32.2916   26.4766 H   0  0  0  0  0  0
  -25.7861  -30.8875   27.0195 H   0  0  0  0  0  0
  -26.2826  -29.6742   24.1219 H   0  0  0  0  0  0
  -27.3958  -29.7212   25.4633 H   0  0  0  0  0  0
  -27.8665  -30.4254   23.9347 H   0  0  0  0  0  0
  -27.2701  -33.3539   26.2056 H   0  0  0  0  0  0
  -28.3811  -32.6795   25.0252 H   0  0  0  0  0  0
  -28.0727  -31.8352   26.5325 H   0  0  0  0  0  0
  -28.2608  -38.0134   24.7492 H   0  0  0  0  0  0
  -28.1135  -36.2643   24.6253 H   0  0  0  0  0  0
  -27.2354  -37.1488   25.8846 H   0  0  0  0  0  0
  -20.9888  -29.6761   21.4935 H   0  0  0  0  0  0
  -26.0227  -38.2876   24.1164 H   0  0  0  0  0  0
  -26.2769  -21.5128   19.7526 H   0  0  0  0  0  0
  -28.1574  -20.7159   25.4370 H   0  0  0  0  0  0
  -26.7909  -20.8969   24.3741 H   0  0  0  0  0  0
  -28.2002  -21.9097   24.1736 H   0  0  0  0  0  0
  -27.5580  -16.9239   19.5048 H   0  0  0  0  0  0
  -26.9223  -18.5133   19.5583 H   0  0  0  0  0  0
  -27.0815  -17.6027   21.0546 H   0  0  0  0  0  0
  -29.1246  -22.3107   18.4263 H   0  0  0  0  0  0
  -30.1871  -22.3005   19.7931 H   0  0  0  0  0  0
  -29.5806  -19.7828   23.5573 H   0  0  0  0  0  0
  -28.0805  -18.8607   23.6629 H   0  0  0  0  0  0
  -28.6530  -23.7774   21.1192 H   0  0  0  0  0  0
  -27.3640  -23.5665   19.9687 H   0  0  0  0  0  0
  -29.8095  -17.3031   22.1306 H   0  0  0  0  0  0
  -31.0403  -17.5774   20.9206 H   0  0  0  0  0  0
  -28.2104  -25.2045   18.4088 H   0  0  0  0  0  0
  -29.7526  -25.1788   19.1695 H   0  0  0  0  0  0
  -29.4658  -18.5072   19.3346 H   0  0  0  0  0  0
  -26.2099  -20.7983   22.1280 H   0  0  0  0  0  0
  -28.7912  -15.6600   20.4461 H   0  0  0  0  0  0
  1 25  1  0  0  0
  1 30  2  0  0  0
  1 84  1  0  0  0
  2  3  1  0  0  0
  2 25  1  0  0  0
  2 85  1  0  0  0
  2 86  1  0  0  0
  3  4  1  0  0  0
  3 87  1  0  0  0
  3 88  1  0  0  0
  4  5  1  0  0  0
  4 89  1  0  0  0
  4 90  1  0  0  0
  5  6  1  0  0  0
  5 26  1  0  0  0
  5 91  1  0  0  0
  6 25  1  0  0  0
  6 92  1  0  0  0
  6 93  1  0  0  0
  7  8  2  0  0  0
  7 26  1  0  0  0
  7 29  1  0  0  0
  8  9  1  0  0  0
  8 22  1  0  0  0
  9 10  1  0  0  0
  9 27  2  0  0  0
 10 11  2  0  0  0
 10 15  1  0  0  0
 11 12  1  0  0  0
 11 94  1  0  0  0
 12 13  2  0  0  0
 12 95  1  0  0  0
 13 14  1  0  0  0
 13 31  1  0  0  0
 14 15  2  0  0  0
 14 96  1  0  0  0
 15 97  1  0  0  0
 16 17  2  0  0  0
 16 21  1  0  0  0
 16 31  1  0  0  0
 17 18  1  0  0  0
 17 98  1  0  0  0
 18 19  2  0  0  0
 18 99  1  0  0  0
 19 20  1  0  0  0
 19 24  1  0  0  0
 20 21  2  0  0  0
 20100  1  0  0  0
 21 23  1  0  0  0
 22 28  1  0  0  0
 22 32  2  0  0  0
 26 27  1  0  0  0
 28101  1  0  0  0
 28102  1  0  0  0
 29103  1  0  0  0
 29104  1  0  0  0
 33 34  1  0  0  0
 33 66  1  0  0  0
 33 70  2  0  0  0
 34 36  1  0  0  0
 34 59  1  0  0  0
 34105  1  0  0  0
 35 44  2  0  0  0
 35 45  1  0  0  0
 35 68  1  0  0  0
 36 56  1  0  0  0
 36106  1  0  0  0
 37 39  1  0  0  0
 37 47  1  0  0  0
 37 66  1  0  0  0
 37107  1  0  0  0
 38 43  2  0  0  0
 38 46  1  0  0  0
 38 47  1  0  0  0
 39 64  1  0  0  0
 39 67  2  0  0  0
 40 52  1  0  0  0
 40 53  2  0  0  0
 40 58  1  0  0  0
 41108  1  0  0  0
 41109  1  0  0  0
 41110  1  0  0  0
 41 48  1  0  0  0
 42 43  1  0  0  0
 42 66  1  0  0  0
 42111  1  0  0  0
 42112  1  0  0  0
 43 44  1  0  0  0
 44113  1  0  0  0
 45 46  2  0  0  0
 45114  1  0  0  0
 46115  1  0  0  0
 47116  1  0  0  0
 47117  1  0  0  0
 48 56  1  0  0  0
 48 65  1  0  0  0
 48118  1  0  0  0
 49 50  1  0  0  0
 49 53  1  0  0  0
 49 64  1  0  0  0
 49119  1  0  0  0
 50 51  1  0  0  0
 50120  1  0  0  0
 50121  1  0  0  0
 51 52  1  0  0  0
 51122  1  0  0  0
 51123  1  0  0  0
 52124  1  0  0  0
 52125  1  0  0  0
 53 54  1  0  0  0
 54 55  2  0  0  0
 54126  1  0  0  0
 55 57  1  0  0  0
 55127  1  0  0  0
 56 69  2  0  0  0
 57 58  2  0  0  0
 57128  1  0  0  0
 58129  1  0  0  0
 59 60  1  0  0  0
 59 61  1  0  0  0
 59 62  1  0  0  0
 60130  1  0  0  0
 60131  1  0  0  0
 60132  1  0  0  0
 61133  1  0  0  0
 61134  1  0  0  0
 61135  1  0  0  0
 62136  1  0  0  0
 62137  1  0  0  0
 62138  1  0  0  0
 63 65  1  0  0  0
 63139  1  0  0  0
 63140  1  0  0  0
 63141  1  0  0  0
 64142  1  0  0  0
 65143  1  0  0  0
 68 80  1  0  0  0
 71 72  2  0  0  0
 71 83  1  0  0  0
 71144  1  0  0  0
 72 76  1  0  0  0
 72 82  1  0  0  0
 73 77  1  0  0  0
 73 82  1  0  0  0
 73 83  2  0  0  0
 74 77  1  0  0  0
 74145  1  0  0  0
 74146  1  0  0  0
 74147  1  0  0  0
 75148  1  0  0  0
 75149  1  0  0  0
 75150  1  0  0  0
 75 81  1  0  0  0
 76 78  1  0  0  0
 76151  1  0  0  0
 76152  1  0  0  0
 77153  1  0  0  0
 77154  1  0  0  0
 78 80  1  0  0  0
 78155  1  0  0  0
 78156  1  0  0  0
 79 81  1  0  0  0
 79 84  1  0  0  0
 79157  1  0  0  0
 79158  1  0  0  0
 80159  1  0  0  0
 80160  1  0  0  0
 81 82  1  0  0  0
 81161  1  0  0  0
 83162  1  0  0  0
 84163  1  0  0  0
M  CHG  1  83   1
M  ISO  4   1 100  68 101  80 101  84 100
M  END
> <chiral flag>
0

> <version>
0

> <s_m_source_file>
/data/baiqing/PycharmProjects/Reinvent-master-3.2/result/LINK_invent/BTK/process_docking_weight1_custom_sum_contain_oxygen_bond_distance_aromatic_linkinvent_7_9_3/rearranged_h_0078.sdf

> <i_m_source_file_index>
65

> <r_mmod_Potential_Energy-OPLS-2005>
422.486022949219

> <r_mmod_Stretch_Energy-OPLS-2005>
149.360366821289

> <r_mmod_Bend_Energy-OPLS-2005>
223.130737304688

> <r_mmod_Torsional_Energy-OPLS-2005>
470.552459716797

> <r_mmod_Improper_Torsional_Energy-OPLS-2005>
34.1037559509277

> <r_mmod_Van_der_Waal_Energy-OPLS-2005>
108.475982666016

> <r_mmod_Electrostatic_Energy-OPLS-2005>
-224.852508544922

> <r_mmod_Solvation_Energy-OPLS-2005>
-435.311309814453

> <b_mmod_Minimization_Converged-OPLS-2005>
0

> <r_mmod_RMS_Derivative-OPLS-2005>
16.8200283050537

$$$$
65
                    3D
 Structure written by MMmdl.
163171  0  0  1  0            999 V2000
  -30.6024  -14.7017   20.4906 C   0  0  0  0  0  0
  -30.4403  -12.4289   19.4916 C   0  0  0  0  0  0
  -29.5258  -12.5214   18.2492 C   0  0  0  0  0  0
  -28.0477  -12.3473   18.6482 C   0  0  0  0  0  0
  -27.6511  -13.2255   19.8650 C   0  0  2  0  0  0
  -28.6865  -13.1131   21.0049 C   0  0  0  0  0  0
  -25.2533  -13.8212   20.5647 C   0  0  0  0  0  0
  -24.1808  -13.0477   20.9151 C   0  0  0  0  0  0
  -24.6387  -11.6958   20.8720 C   0  0  0  0  0  0
  -23.9057  -10.4342   21.0393 C   0  0  0  0  0  0
  -24.3620   -9.4268   21.9174 C   0  0  0  0  0  0
  -23.6325   -8.2294   22.0761 C   0  0  0  0  0  0
  -22.4316   -8.0310   21.3536 C   0  0  0  0  0  0
  -21.9928   -9.0268   20.4643 C   0  0  0  0  0  0
  -22.7225  -10.2163   20.3047 C   0  0  0  0  0  0
  -21.6901   -6.0769   22.5262 C   0  0  0  0  0  0
  -21.4034   -6.5657   23.8194 C   0  0  0  0  0  0
  -21.3669   -5.6794   24.9138 C   0  0  0  0  0  0
  -21.6052   -4.3059   24.7176 C   0  0  0  0  0  0
  -21.8823   -3.8168   23.4289 C   0  0  0  0  0  0
  -21.9201   -4.6989   22.3366 C   0  0  0  0  0  0
  -22.7822  -13.5277   21.1785 C   0  0  0  0  0  0
  -22.1664   -4.2193   21.0937 F   0  0  0  0  0  0
  -21.5625   -3.4536   25.7682 F   0  0  0  0  0  0
  -29.9987  -13.4663   20.4487 N   0  0  0  0  0  0
  -26.2960  -12.9403   20.3273 N   0  0  0  0  0  0
  -25.9317  -11.6561   20.5729 N   0  0  0  0  0  0
  -22.0467  -12.8286   22.0346 N   0  0  0  0  0  0
  -25.4252  -15.1926   20.4061 N   0  0  0  0  0  0
  -31.7619  -14.8402   20.0939 O   0  0  0  0  0  0
  -21.6690   -6.8906   21.4235 O   0  0  0  0  0  0
  -22.3522  -14.5578   20.6616 O   0  0  0  0  0  0
  -24.6291  -31.8571   23.2006 C   0  0  0  0  0  0
  -25.9113  -32.4772   23.8348 C   0  0  1  0  0  0
  -27.2175  -27.2875   20.1313 C   0  0  0  0  0  0
  -25.5903  -33.8579   24.2271 N   0  0  0  0  0  0
  -23.4227  -30.4808   21.5447 C   0  0  2  0  0  0
  -24.8667  -28.9287   20.1113 C   0  0  0  0  0  0
  -22.7478  -29.4621   22.4945 C   0  0  0  0  0  0
  -18.0280  -28.1388   22.8490 C   0  0  0  0  0  0
  -24.1477  -36.7297   23.2646 C   0  0  0  0  0  0
  -25.9658  -30.7784   21.3729 C   0  0  0  0  0  0
  -26.0357  -29.4021   20.7189 C   0  0  0  0  0  0
  -27.2119  -28.5909   20.7211 C   0  0  0  0  0  0
  -26.0319  -26.8838   19.4738 C   0  0  0  0  0  0
  -24.8685  -27.6741   19.4796 C   0  0  0  0  0  0
  -23.6367  -29.8115   20.1608 C   0  0  0  0  0  0
  -25.4099  -36.3093   24.0346 C   0  0  1  0  0  0
  -20.5883  -28.3688   23.1275 C   0  0  2  0  0  0
  -20.6771  -26.9410   22.5404 C   0  0  0  0  0  0
  -19.5746  -26.6383   21.5212 C   0  0  0  0  0  0
  -18.1924  -26.7927   22.1625 C   0  0  0  0  0  0
  -19.1534  -28.8852   23.2876 C   0  0  0  0  0  0
  -18.9462  -30.1452   23.8897 C   0  0  0  0  0  0
  -17.6467  -30.6597   24.0560 C   0  0  0  0  0  0
  -25.9043  -34.9460   23.5118 C   0  0  0  0  0  0
  -16.5350  -29.9098   23.6334 C   0  0  0  0  0  0
  -16.7270  -28.6506   23.0366 C   0  0  0  0  0  0
  -26.4472  -31.6583   25.0725 C   0  0  0  0  0  0
  -25.3695  -31.3743   26.1444 C   0  0  0  0  0  0
  -27.0304  -30.3007   24.6176 C   0  0  0  0  0  0
  -27.6031  -32.4313   25.7488 C   0  0  0  0  0  0
  -27.5574  -37.1806   24.8469 C   0  0  0  0  0  0
  -21.4192  -29.3045   22.3673 N   0  0  0  0  0  0
  -26.4281  -37.3784   23.9422 N   0  0  0  0  0  0
  -24.6923  -31.0562   22.0965 N   0  0  0  0  0  0
  -23.4193  -28.8183   23.3050 O   0  0  0  0  0  0
  -28.3250  -26.4216   20.2278 O   0  0  0  0  0  0
  -26.5638  -34.8935   22.4700 O   0  0  0  0  0  0
  -23.5437  -32.1372   23.7320 O   0  0  0  0  0  0
  -29.1736  -21.1820   20.9362 C   0  0  0  0  0  0
  -29.1985  -22.3927   20.1590 C   0  0  0  0  0  0
  -29.5205  -19.9223   20.3295 C   0  0  0  0  0  0
  -29.8620  -21.0933   18.3704 C   0  0  0  0  0  0
  -30.2636  -21.0526   16.9103 C   0  0  0  0  0  0
  -30.5124  -24.4269   20.9306 C   0  0  0  0  0  0
  -28.2724  -18.2818   21.8307 C   0  0  0  0  0  0
  -30.7383  -18.6115   22.1228 C   0  0  0  0  0  0
  -29.9186  -17.2114   20.1865 C   0  0  0  0  0  0
  -28.1818  -24.9548   19.9508 C   0  0  0  0  0  0
  -29.0953  -23.8772   20.7218 C   0  0  1  0  0  0
  -29.6043  -18.5168   21.0900 C   0  0  0  0  0  0
  -29.5576  -22.2903   18.8648 N   0  0  0  0  0  0
  -29.8763  -19.9331   19.0277 N   0  0  0  0  0  0
  -29.8068  -15.7954   20.7537 N   0  0  0  0  0  0
  -31.4851  -12.5536   19.2010 H   0  0  0  0  0  0
  -30.3759  -11.4428   19.9538 H   0  0  0  0  0  0
  -29.8082  -11.7645   17.5173 H   0  0  0  0  0  0
  -29.6578  -13.4900   17.7624 H   0  0  0  0  0  0
  -27.8937  -11.2935   18.8832 H   0  0  0  0  0  0
  -27.4038  -12.5717   17.7986 H   0  0  0  0  0  0
  -27.6579  -14.2560   19.5103 H   0  0  0  0  0  0
  -28.7051  -12.0963   21.4026 H   0  0  0  0  0  0
  -28.4199  -13.7593   21.8421 H   0  0  0  0  0  0
  -25.2789   -9.5802   22.4705 H   0  0  0  0  0  0
  -24.0077   -7.4720   22.7496 H   0  0  0  0  0  0
  -21.0862   -8.8748   19.8963 H   0  0  0  0  0  0
  -22.3671  -10.9668   19.6133 H   0  0  0  0  0  0
  -21.2046   -7.6170   23.9692 H   0  0  0  0  0  0
  -21.1488   -6.0523   25.9032 H   0  0  0  0  0  0
  -22.0607   -2.7637   23.2743 H   0  0  0  0  0  0
  -22.4124  -12.0023   22.4815 H   0  0  0  0  0  0
  -21.1051  -13.1277   22.2505 H   0  0  0  0  0  0
  -24.6580  -15.8481   20.5128 H   0  0  0  0  0  0
  -26.2697  -15.6277   20.0606 H   0  0  0  0  0  0
  -26.7191  -32.5424   23.1098 H   0  0  0  0  0  0
  -24.9988  -33.9708   25.0377 H   0  0  0  0  0  0
  -22.7181  -31.3030   21.4001 H   0  0  0  0  0  0
  -23.3749  -35.9618   23.3300 H   0  0  0  0  0  0
  -24.3568  -36.8921   22.2061 H   0  0  0  0  0  0
  -23.7210  -37.6499   23.6656 H   0  0  0  0  0  0
  -26.0947  -31.5362   20.5986 H   0  0  0  0  0  0
  -26.8504  -30.8313   21.9973 H   0  0  0  0  0  0
  -28.1060  -28.9455   21.2152 H   0  0  0  0  0  0
  -25.9736  -25.9368   18.9583 H   0  0  0  0  0  0
  -23.9725  -27.3097   18.9974 H   0  0  0  0  0  0
  -23.7596  -30.5873   19.4035 H   0  0  0  0  0  0
  -22.7532  -29.2447   19.8584 H   0  0  0  0  0  0
  -25.1272  -36.1955   25.0840 H   0  0  0  0  0  0
  -20.9976  -28.3272   24.1397 H   0  0  0  0  0  0
  -20.5668  -26.2311   23.3615 H   0  0  0  0  0  0
  -21.6641  -26.7433   22.1204 H   0  0  0  0  0  0
  -19.6909  -25.6295   21.1245 H   0  0  0  0  0  0
  -19.6689  -27.3189   20.6740 H   0  0  0  0  0  0
  -17.4198  -26.6668   21.4027 H   0  0  0  0  0  0
  -18.0324  -26.0063   22.9016 H   0  0  0  0  0  0
  -19.7942  -30.7253   24.2272 H   0  0  0  0  0  0
  -17.5029  -31.6284   24.5156 H   0  0  0  0  0  0
  -15.5351  -30.3006   23.7661 H   0  0  0  0  0  0
  -15.8664  -28.0826   22.7094 H   0  0  0  0  0  0
  -24.5865  -30.7086   25.7789 H   0  0  0  0  0  0
  -24.8875  -32.2909   26.4851 H   0  0  0  0  0  0
  -25.8003  -30.8944   27.0233 H   0  0  0  0  0  0
  -26.2875  -29.6780   24.1172 H   0  0  0  0  0  0
  -27.3968  -29.7243   25.4678 H   0  0  0  0  0  0
  -27.8756  -30.4308   23.9414 H   0  0  0  0  0  0
  -27.2650  -33.3624   26.2042 H   0  0  0  0  0  0
  -28.3840  -32.6850   25.0314 H   0  0  0  0  0  0
  -28.0675  -31.8442   26.5415 H   0  0  0  0  0  0
  -28.2606  -38.0093   24.7517 H   0  0  0  0  0  0
  -28.1059  -36.2628   24.6286 H   0  0  0  0  0  0
  -27.2301  -37.1448   25.8877 H   0  0  0  0  0  0
  -20.9381  -29.8765   21.6873 H   0  0  0  0  0  0
  -26.0174  -38.2869   24.1412 H   0  0  0  0  0  0
  -28.9392  -21.2211   21.9927 H   0  0  0  0  0  0
  -30.0451  -21.9966   16.4085 H   0  0  0  0  0  0
  -29.7247  -20.2636   16.3872 H   0  0  0  0  0  0
  -31.3328  -20.8651   16.8159 H   0  0  0  0  0  0
  -31.0931  -23.7463   21.5518 H   0  0  0  0  0  0
  -30.4904  -25.3912   21.4379 H   0  0  0  0  0  0
  -31.0350  -24.5498   19.9819 H   0  0  0  0  0  0
  -28.0577  -19.0896   22.5325 H   0  0  0  0  0  0
  -28.2907  -17.3619   22.4126 H   0  0  0  0  0  0
  -27.4390  -18.2113   21.1321 H   0  0  0  0  0  0
  -30.5619  -19.4180   22.8353 H   0  0  0  0  0  0
  -31.6922  -18.8076   21.6326 H   0  0  0  0  0  0
  -30.8413  -17.6844   22.6883 H   0  0  0  0  0  0
  -30.9020  -17.3326   19.7344 H   0  0  0  0  0  0
  -29.2162  -17.2352   19.3528 H   0  0  0  0  0  0
  -27.1582  -24.6327   20.1390 H   0  0  0  0  0  0
  -28.3456  -24.8353   18.8801 H   0  0  0  0  0  0
  -28.6682  -23.7852   21.7208 H   0  0  0  0  0  0
  -28.8983  -15.5657   21.1288 H   0  0  0  0  0  0
  1 25  1  0  0  0
  1 30  2  0  0  0
  1 85  1  0  0  0
  2  3  1  0  0  0
  2 25  1  0  0  0
  2 86  1  0  0  0
  2 87  1  0  0  0
  3  4  1  0  0  0
  3 88  1  0  0  0
  3 89  1  0  0  0
  4  5  1  0  0  0
  4 90  1  0  0  0
  4 91  1  0  0  0
  5  6  1  0  0  0
  5 26  1  0  0  0
  5 92  1  0  0  0
  6 25  1  0  0  0
  6 93  1  0  0  0
  6 94  1  0  0  0
  7  8  2  0  0  0
  7 26  1  0  0  0
  7 29  1  0  0  0
  8  9  1  0  0  0
  8 22  1  0  0  0
  9 10  1  0  0  0
  9 27  2  0  0  0
 10 11  2  0  0  0
 10 15  1  0  0  0
 11 12  1  0  0  0
 11 95  1  0  0  0
 12 13  2  0  0  0
 12 96  1  0  0  0
 13 14  1  0  0  0
 13 31  1  0  0  0
 14 15  2  0  0  0
 14 97  1  0  0  0
 15 98  1  0  0  0
 16 17  2  0  0  0
 16 21  1  0  0  0
 16 31  1  0  0  0
 17 18  1  0  0  0
 17 99  1  0  0  0
 18 19  2  0  0  0
 18100  1  0  0  0
 19 20  1  0  0  0
 19 24  1  0  0  0
 20 21  2  0  0  0
 20101  1  0  0  0
 21 23  1  0  0  0
 22 28  1  0  0  0
 22 32  2  0  0  0
 26 27  1  0  0  0
 28102  1  0  0  0
 28103  1  0  0  0
 29104  1  0  0  0
 29105  1  0  0  0
 33 34  1  0  0  0
 33 66  1  0  0  0
 33 70  2  0  0  0
 34 36  1  0  0  0
 34 59  1  0  0  0
 34106  1  0  0  0
 35 44  2  0  0  0
 35 45  1  0  0  0
 35 68  1  0  0  0
 36 56  1  0  0  0
 36107  1  0  0  0
 37 39  1  0  0  0
 37 47  1  0  0  0
 37 66  1  0  0  0
 37108  1  0  0  0
 38 43  2  0  0  0
 38 46  1  0  0  0
 38 47  1  0  0  0
 39 64  1  0  0  0
 39 67  2  0  0  0
 40 52  1  0  0  0
 40 53  2  0  0  0
 40 58  1  0  0  0
 41109  1  0  0  0
 41110  1  0  0  0
 41111  1  0  0  0
 41 48  1  0  0  0
 42 43  1  0  0  0
 42 66  1  0  0  0
 42112  1  0  0  0
 42113  1  0  0  0
 43 44  1  0  0  0
 44114  1  0  0  0
 45 46  2  0  0  0
 45115  1  0  0  0
 46116  1  0  0  0
 47117  1  0  0  0
 47118  1  0  0  0
 48 56  1  0  0  0
 48 65  1  0  0  0
 48119  1  0  0  0
 49 50  1  0  0  0
 49 53  1  0  0  0
 49 64  1  0  0  0
 49120  1  0  0  0
 50 51  1  0  0  0
 50121  1  0  0  0
 50122  1  0  0  0
 51 52  1  0  0  0
 51123  1  0  0  0
 51124  1  0  0  0
 52125  1  0  0  0
 52126  1  0  0  0
 53 54  1  0  0  0
 54 55  2  0  0  0
 54127  1  0  0  0
 55 57  1  0  0  0
 55128  1  0  0  0
 56 69  2  0  0  0
 57 58  2  0  0  0
 57129  1  0  0  0
 58130  1  0  0  0
 59 60  1  0  0  0
 59 61  1  0  0  0
 59 62  1  0  0  0
 60131  1  0  0  0
 60132  1  0  0  0
 60133  1  0  0  0
 61134  1  0  0  0
 61135  1  0  0  0
 61136  1  0  0  0
 62137  1  0  0  0
 62138  1  0  0  0
 62139  1  0  0  0
 63 65  1  0  0  0
 63140  1  0  0  0
 63141  1  0  0  0
 63142  1  0  0  0
 64143  1  0  0  0
 65144  1  0  0  0
 68 80  1  0  0  0
 71 72  2  0  0  0
 71 73  1  0  0  0
 71145  1  0  0  0
 72 81  1  0  0  0
 72 83  1  0  0  0
 73 82  1  0  0  0
 73 84  2  0  0  0
 74 75  1  0  0  0
 74 83  2  0  0  0
 74 84  1  0  0  0
 75146  1  0  0  0
 75147  1  0  0  0
 75148  1  0  0  0
 76149  1  0  0  0
 76150  1  0  0  0
 76151  1  0  0  0
 76 81  1  0  0  0
 77152  1  0  0  0
 77153  1  0  0  0
 77154  1  0  0  0
 77 82  1  0  0  0
 78 82  1  0  0  0
 78155  1  0  0  0
 78156  1  0  0  0
 78157  1  0  0  0
 79 82  1  0  0  0
 79 85  1  0  0  0
 79158  1  0  0  0
 79159  1  0  0  0
 80 81  1  0  0  0
 80160  1  0  0  0
 80161  1  0  0  0
 81162  1  0  0  0
 85163  1  0  0  0
M  ISO  4   1 100  68 101  80 101  85 100
M  END
> <chiral flag>
0

> <version>
0

> <s_m_source_file>
/data/baiqing/PycharmProjects/Reinvent-master-3.2/result/LINK_invent/BTK/process_docking_weight1_custom_sum_contain_oxygen_bond_distance_aromatic_linkinvent_7_9_3/rearranged_h_0078.sdf

> <i_m_source_file_index>
66

> <r_mmod_Potential_Energy-OPLS-2005>
-356.290893554688

> <r_mmod_Stretch_Energy-OPLS-2005>
106.10391998291

> <r_mmod_Bend_Energy-OPLS-2005>
156.650390625

> <r_mmod_Torsional_Energy-OPLS-2005>
219.829040527344

> <r_mmod_Improper_Torsional_Energy-OPLS-2005>
7.92464637756348

> <r_mmod_Van_der_Waal_Energy-OPLS-2005>
146.988250732422

> <r_mmod_Electrostatic_Energy-OPLS-2005>
-838.971130371094

> <r_mmod_Solvation_Energy-OPLS-2005>
-223.895965576172

> <b_mmod_Minimization_Converged-OPLS-2005>
0

> <r_mmod_RMS_Derivative-OPLS-2005>
3.65585398674011

$$$$
66
                    3D
 Structure written by MMmdl.
163171  0  0  1  0            999 V2000
  -30.6521  -14.5677   20.5300 C   0  0  0  0  0  0
  -30.4503  -12.3682   19.4070 C   0  0  0  0  0  0
  -29.5062  -12.5392   18.2002 C   0  0  0  0  0  0
  -28.0230  -12.4155   18.6098 C   0  0  0  0  0  0
  -27.6673  -13.2348   19.8781 C   0  0  2  0  0  0
  -28.7198  -13.0189   20.9911 C   0  0  0  0  0  0
  -25.2642  -13.8255   20.5720 C   0  0  0  0  0  0
  -24.1925  -13.0461   20.9245 C   0  0  0  0  0  0
  -24.6544  -11.6967   20.8813 C   0  0  0  0  0  0
  -23.9231  -10.4303   21.0455 C   0  0  0  0  0  0
  -24.3757   -9.4180   21.9196 C   0  0  0  0  0  0
  -23.6381   -8.2234   22.0752 C   0  0  0  0  0  0
  -22.4334   -8.0320   21.3572 C   0  0  0  0  0  0
  -22.0033   -9.0324   20.4664 C   0  0  0  0  0  0
  -22.7433  -10.2167   20.3080 C   0  0  0  0  0  0
  -21.6840   -6.0778   22.5304 C   0  0  0  0  0  0
  -21.3973   -6.5653   23.8245 C   0  0  0  0  0  0
  -21.3669   -5.6794   24.9210 C   0  0  0  0  0  0
  -21.6059   -4.3052   24.7233 C   0  0  0  0  0  0
  -21.8831   -3.8171   23.4332 C   0  0  0  0  0  0
  -21.9192   -4.7010   22.3406 C   0  0  0  0  0  0
  -22.7940  -13.5228   21.1868 C   0  0  0  0  0  0
  -22.1668   -4.2211   21.0986 F   0  0  0  0  0  0
  -21.5647   -3.4520   25.7715 F   0  0  0  0  0  0
  -30.0427  -13.3481   20.4278 N   0  0  0  0  0  0
  -26.3097  -12.9470   20.3399 N   0  0  0  0  0  0
  -25.9460  -11.6611   20.5802 N   0  0  0  0  0  0
  -22.0549  -12.8224   22.0425 N   0  0  0  0  0  0
  -25.4319  -15.1974   20.4131 N   0  0  0  0  0  0
  -31.7926  -14.7791   20.1121 O   0  0  0  0  0  0
  -21.6655   -6.8940   21.4274 O   0  0  0  0  0  0
  -22.3615  -14.5493   20.6679 O   0  0  0  0  0  0
  -24.6188  -31.8634   23.2061 C   0  0  0  0  0  0
  -25.9086  -32.4763   23.8332 C   0  0  1  0  0  0
  -27.2094  -27.3450   20.1230 C   0  0  0  0  0  0
  -25.5946  -33.8562   24.2273 N   0  0  0  0  0  0
  -23.4064  -30.4901   21.5492 C   0  0  2  0  0  0
  -24.8492  -28.9459   20.1076 C   0  0  0  0  0  0
  -22.7407  -29.4654   22.4975 C   0  0  0  0  0  0
  -18.0275  -28.1372   22.8490 C   0  0  0  0  0  0
  -24.1493  -36.7239   23.2633 C   0  0  0  0  0  0
  -25.9449  -30.7964   21.3754 C   0  0  0  0  0  0
  -26.0139  -29.4269   20.7176 C   0  0  0  0  0  0
  -27.1978  -28.6379   20.7199 C   0  0  0  0  0  0
  -26.0374  -26.9175   19.4655 C   0  0  0  0  0  0
  -24.8601  -27.6945   19.4708 C   0  0  0  0  0  0
  -23.6139  -29.8252   20.1622 C   0  0  0  0  0  0
  -25.4123  -36.3057   24.0327 C   0  0  1  0  0  0
  -20.5874  -28.3678   23.1295 C   0  0  2  0  0  0
  -20.6781  -26.9409   22.5430 C   0  0  0  0  0  0
  -19.5773  -26.6379   21.5222 C   0  0  0  0  0  0
  -18.1934  -26.7924   22.1595 C   0  0  0  0  0  0
  -19.1525  -28.8843   23.2883 C   0  0  0  0  0  0
  -18.9449  -30.1455   23.8888 C   0  0  0  0  0  0
  -17.6458  -30.6578   24.0563 C   0  0  0  0  0  0
  -25.9063  -34.9441   23.5087 C   0  0  0  0  0  0
  -16.5352  -29.9066   23.6350 C   0  0  0  0  0  0
  -16.7265  -28.6479   23.0369 C   0  0  0  0  0  0
  -26.4485  -31.6541   25.0662 C   0  0  0  0  0  0
  -25.3726  -31.3698   26.1390 C   0  0  0  0  0  0
  -27.0303  -30.2954   24.6103 C   0  0  0  0  0  0
  -27.6057  -32.4276   25.7393 C   0  0  0  0  0  0
  -27.5581  -37.1767   24.8470 C   0  0  0  0  0  0
  -21.4144  -29.3003   22.3661 N   0  0  0  0  0  0
  -26.4297  -37.3755   23.9428 N   0  0  0  0  0  0
  -24.6749  -31.0670   22.0994 N   0  0  0  0  0  0
  -23.4150  -28.8235   23.3074 O   0  0  0  0  0  0
  -28.3460  -26.5337   20.1446 O   0  0  0  0  0  0
  -26.5614  -34.8922   22.4649 O   0  0  0  0  0  0
  -23.5380  -32.1422   23.7425 O   0  0  0  0  0  0
  -30.5730  -22.4425   21.7844 C   0  0  0  0  0  0
  -31.3888  -21.4924   22.3483 C   0  0  0  0  0  0
  -30.1269  -20.5028   20.7762 C   0  0  0  0  0  0
  -32.3981  -21.5913   23.4548 C   0  0  0  0  0  0
  -26.9749  -24.7070   21.3380 C   0  0  0  0  0  0
  -29.4938  -19.4038   19.9241 C   0  0  0  0  0  0
  -30.0679  -17.9270   19.8731 C   0  0  0  0  0  0
  -28.8578  -24.0570   19.6970 C   0  0  0  0  0  0
  -28.7388  -22.5004   20.0155 C   0  0  0  0  0  0
  -29.9763  -17.0266   21.1485 C   0  0  0  0  0  0
  -28.3062  -25.1549   20.6887 C   0  0  1  0  0  0
  -29.8154  -21.8334   20.8159 N   0  0  0  0  0  0
  -31.0862  -20.3197   21.6967 N   0  3  0  0  0  0
  -29.8330  -15.5580   20.9615 N   0  0  0  0  0  0
  -31.4827  -12.5196   19.0834 H   0  0  0  0  0  0
  -30.4008  -11.3484   19.7896 H   0  0  0  0  0  0
  -29.7324  -11.8028   17.4288 H   0  0  0  0  0  0
  -29.6883  -13.5128   17.7447 H   0  0  0  0  0  0
  -27.8132  -11.3615   18.7787 H   0  0  0  0  0  0
  -27.3872  -12.7237   17.7808 H   0  0  0  0  0  0
  -27.6962  -14.2881   19.5968 H   0  0  0  0  0  0
  -28.7141  -11.9886   21.3436 H   0  0  0  0  0  0
  -28.4841  -13.6258   21.8667 H   0  0  0  0  0  0
  -25.2914   -9.5572   22.4795 H   0  0  0  0  0  0
  -24.0070   -7.4585   22.7435 H   0  0  0  0  0  0
  -21.0959   -8.8914   19.8969 H   0  0  0  0  0  0
  -22.3960  -10.9733   19.6177 H   0  0  0  0  0  0
  -21.1911   -7.6143   23.9770 H   0  0  0  0  0  0
  -21.1491   -6.0501   25.9118 H   0  0  0  0  0  0
  -22.0594   -2.7638   23.2819 H   0  0  0  0  0  0
  -22.4104  -11.9881   22.4857 H   0  0  0  0  0  0
  -21.1140  -13.1245   22.2530 H   0  0  0  0  0  0
  -24.6696  -15.8551   20.5346 H   0  0  0  0  0  0
  -26.2733  -15.6354   20.0600 H   0  0  0  0  0  0
  -26.7133  -32.5402   23.1049 H   0  0  0  0  0  0
  -25.0112  -33.9739   25.0436 H   0  0  0  0  0  0
  -22.6986  -31.3120   21.4185 H   0  0  0  0  0  0
  -23.3780  -35.9540   23.3290 H   0  0  0  0  0  0
  -24.3585  -36.8843   22.2041 H   0  0  0  0  0  0
  -23.7224  -37.6444   23.6640 H   0  0  0  0  0  0
  -26.0878  -31.5653   20.6149 H   0  0  0  0  0  0
  -26.8225  -30.8310   22.0079 H   0  0  0  0  0  0
  -28.0903  -29.0027   21.2073 H   0  0  0  0  0  0
  -26.0187  -25.9655   18.9546 H   0  0  0  0  0  0
  -23.9718  -27.3280   18.9751 H   0  0  0  0  0  0
  -23.7193  -30.6039   19.4076 H   0  0  0  0  0  0
  -22.7299  -29.2563   19.8682 H   0  0  0  0  0  0
  -25.1321  -36.1880   25.0817 H   0  0  0  0  0  0
  -20.9982  -28.3264   24.1414 H   0  0  0  0  0  0
  -20.5707  -26.2283   23.3623 H   0  0  0  0  0  0
  -21.6652  -26.7462   22.1234 H   0  0  0  0  0  0
  -19.6949  -25.6295   21.1229 H   0  0  0  0  0  0
  -19.6735  -27.3207   20.6774 H   0  0  0  0  0  0
  -17.4250  -26.6728   21.3946 H   0  0  0  0  0  0
  -18.0291  -26.0046   22.8948 H   0  0  0  0  0  0
  -19.7939  -30.7275   24.2234 H   0  0  0  0  0  0
  -17.5016  -31.6267   24.5160 H   0  0  0  0  0  0
  -15.5348  -30.2955   23.7711 H   0  0  0  0  0  0
  -15.8654  -28.0792   22.7100 H   0  0  0  0  0  0
  -24.5989  -30.6910   25.7786 H   0  0  0  0  0  0
  -24.8771  -32.2835   26.4670 H   0  0  0  0  0  0
  -25.8057  -30.9042   27.0244 H   0  0  0  0  0  0
  -26.2845  -29.6692   24.1168 H   0  0  0  0  0  0
  -27.4063  -29.7217   25.4589 H   0  0  0  0  0  0
  -27.8702  -30.4245   23.9267 H   0  0  0  0  0  0
  -27.2701  -33.3606   26.1943 H   0  0  0  0  0  0
  -28.3837  -32.6785   25.0166 H   0  0  0  0  0  0
  -28.0744  -31.8397   26.5299 H   0  0  0  0  0  0
  -28.2629  -38.0043   24.7525 H   0  0  0  0  0  0
  -28.1062  -36.2578   24.6296 H   0  0  0  0  0  0
  -27.2298  -37.1409   25.8877 H   0  0  0  0  0  0
  -20.9326  -29.8588   21.6756 H   0  0  0  0  0  0
  -26.0155  -38.2819   24.1469 H   0  0  0  0  0  0
  -30.4730  -23.4931   22.0146 H   0  0  0  0  0  0
  -31.9022  -21.5739   24.4259 H   0  0  0  0  0  0
  -32.9690  -22.5198   23.3768 H   0  0  0  0  0  0
  -33.0999  -20.7578   23.4319 H   0  0  0  0  0  0
  -27.1081  -23.7862   21.9049 H   0  0  0  0  0  0
  -26.2101  -24.4938   20.5932 H   0  0  0  0  0  0
  -26.5837  -25.4491   22.0362 H   0  0  0  0  0  0
  -29.5276  -19.8014   18.9099 H   0  0  0  0  0  0
  -28.4426  -19.3881   20.2094 H   0  0  0  0  0  0
  -31.0934  -17.9386   19.5066 H   0  0  0  0  0  0
  -29.5056  -17.4185   19.0873 H   0  0  0  0  0  0
  -28.3128  -24.2103   18.7654 H   0  0  0  0  0  0
  -29.8942  -24.2880   19.4473 H   0  0  0  0  0  0
  -28.7169  -21.9804   19.0590 H   0  0  0  0  0  0
  -27.7878  -22.2501   20.4827 H   0  0  0  0  0  0
  -29.0536  -17.3180   21.6509 H   0  0  0  0  0  0
  -30.7917  -17.2243   21.8435 H   0  0  0  0  0  0
  -29.0150  -25.2030   21.5166 H   0  0  0  0  0  0
  -31.5103  -19.4251   21.9082 H   0  0  0  0  0  0
  -28.9367  -15.2077   21.2706 H   0  0  0  0  0  0
  1 25  1  0  0  0
  1 30  2  0  0  0
  1 84  1  0  0  0
  2  3  1  0  0  0
  2 25  1  0  0  0
  2 85  1  0  0  0
  2 86  1  0  0  0
  3  4  1  0  0  0
  3 87  1  0  0  0
  3 88  1  0  0  0
  4  5  1  0  0  0
  4 89  1  0  0  0
  4 90  1  0  0  0
  5  6  1  0  0  0
  5 26  1  0  0  0
  5 91  1  0  0  0
  6 25  1  0  0  0
  6 92  1  0  0  0
  6 93  1  0  0  0
  7  8  2  0  0  0
  7 26  1  0  0  0
  7 29  1  0  0  0
  8  9  1  0  0  0
  8 22  1  0  0  0
  9 10  1  0  0  0
  9 27  2  0  0  0
 10 11  2  0  0  0
 10 15  1  0  0  0
 11 12  1  0  0  0
 11 94  1  0  0  0
 12 13  2  0  0  0
 12 95  1  0  0  0
 13 14  1  0  0  0
 13 31  1  0  0  0
 14 15  2  0  0  0
 14 96  1  0  0  0
 15 97  1  0  0  0
 16 17  2  0  0  0
 16 21  1  0  0  0
 16 31  1  0  0  0
 17 18  1  0  0  0
 17 98  1  0  0  0
 18 19  2  0  0  0
 18 99  1  0  0  0
 19 20  1  0  0  0
 19 24  1  0  0  0
 20 21  2  0  0  0
 20100  1  0  0  0
 21 23  1  0  0  0
 22 28  1  0  0  0
 22 32  2  0  0  0
 26 27  1  0  0  0
 28101  1  0  0  0
 28102  1  0  0  0
 29103  1  0  0  0
 29104  1  0  0  0
 33 34  1  0  0  0
 33 66  1  0  0  0
 33 70  2  0  0  0
 34 36  1  0  0  0
 34 59  1  0  0  0
 34105  1  0  0  0
 35 44  2  0  0  0
 35 45  1  0  0  0
 35 68  1  0  0  0
 36 56  1  0  0  0
 36106  1  0  0  0
 37 39  1  0  0  0
 37 47  1  0  0  0
 37 66  1  0  0  0
 37107  1  0  0  0
 38 43  2  0  0  0
 38 46  1  0  0  0
 38 47  1  0  0  0
 39 64  1  0  0  0
 39 67  2  0  0  0
 40 52  1  0  0  0
 40 53  2  0  0  0
 40 58  1  0  0  0
 41108  1  0  0  0
 41109  1  0  0  0
 41110  1  0  0  0
 41 48  1  0  0  0
 42 43  1  0  0  0
 42 66  1  0  0  0
 42111  1  0  0  0
 42112  1  0  0  0
 43 44  1  0  0  0
 44113  1  0  0  0
 45 46  2  0  0  0
 45114  1  0  0  0
 46115  1  0  0  0
 47116  1  0  0  0
 47117  1  0  0  0
 48 56  1  0  0  0
 48 65  1  0  0  0
 48118  1  0  0  0
 49 50  1  0  0  0
 49 53  1  0  0  0
 49 64  1  0  0  0
 49119  1  0  0  0
 50 51  1  0  0  0
 50120  1  0  0  0
 50121  1  0  0  0
 51 52  1  0  0  0
 51122  1  0  0  0
 51123  1  0  0  0
 52124  1  0  0  0
 52125  1  0  0  0
 53 54  1  0  0  0
 54 55  2  0  0  0
 54126  1  0  0  0
 55 57  1  0  0  0
 55127  1  0  0  0
 56 69  2  0  0  0
 57 58  2  0  0  0
 57128  1  0  0  0
 58129  1  0  0  0
 59 60  1  0  0  0
 59 61  1  0  0  0
 59 62  1  0  0  0
 60130  1  0  0  0
 60131  1  0  0  0
 60132  1  0  0  0
 61133  1  0  0  0
 61134  1  0  0  0
 61135  1  0  0  0
 62136  1  0  0  0
 62137  1  0  0  0
 62138  1  0  0  0
 63 65  1  0  0  0
 63139  1  0  0  0
 63140  1  0  0  0
 63141  1  0  0  0
 64142  1  0  0  0
 65143  1  0  0  0
 68 81  1  0  0  0
 71 72  2  0  0  0
 71 82  1  0  0  0
 71144  1  0  0  0
 72 74  1  0  0  0
 72 83  1  0  0  0
 73 76  1  0  0  0
 73 82  1  0  0  0
 73 83  2  0  0  0
 74145  1  0  0  0
 74146  1  0  0  0
 74147  1  0  0  0
 75148  1  0  0  0
 75149  1  0  0  0
 75150  1  0  0  0
 75 81  1  0  0  0
 76 77  1  0  0  0
 76151  1  0  0  0
 76152  1  0  0  0
 77 80  1  0  0  0
 77153  1  0  0  0
 77154  1  0  0  0
 78 79  1  0  0  0
 78 81  1  0  0  0
 78155  1  0  0  0
 78156  1  0  0  0
 79 82  1  0  0  0
 79157  1  0  0  0
 79158  1  0  0  0
 80 84  1  0  0  0
 80159  1  0  0  0
 80160  1  0  0  0
 81161  1  0  0  0
 83162  1  0  0  0
 84163  1  0  0  0
M  CHG  1  83   1
M  ISO  4   1 100  68 101  81 101  84 100
M  END
> <chiral flag>
0

> <version>
0

> <s_m_source_file>
/data/baiqing/PycharmProjects/Reinvent-master-3.2/result/LINK_invent/BTK/process_docking_weight1_custom_sum_contain_oxygen_bond_distance_aromatic_linkinvent_7_9_3/rearranged_h_0078.sdf

> <i_m_source_file_index>
67

> <r_mmod_Potential_Energy-OPLS-2005>
-10.951247215271

> <r_mmod_Stretch_Energy-OPLS-2005>
63.3321075439453

> <r_mmod_Bend_Energy-OPLS-2005>
155.04931640625

> <r_mmod_Torsional_Energy-OPLS-2005>
248.111907958984

> <r_mmod_Improper_Torsional_Energy-OPLS-2005>
4.54129076004028

> <r_mmod_Van_der_Waal_Energy-OPLS-2005>
120.019897460938

> <r_mmod_Electrostatic_Energy-OPLS-2005>
-218.163360595703

> <r_mmod_Solvation_Energy-OPLS-2005>
-415.962219238281

> <b_mmod_Minimization_Converged-OPLS-2005>
0

> <r_mmod_RMS_Derivative-OPLS-2005>
6.04400825500488

$$$$
67
                    3D
 Structure written by MMmdl.
174182  0  0  1  0            999 V2000
  -30.7935  -14.6779   20.4475 C   0  0  0  0  0  0
  -30.3814  -12.4223   19.4819 C   0  0  0  0  0  0
  -29.4870  -12.4912   18.2322 C   0  0  0  0  0  0
  -28.0097  -12.3624   18.6305 C   0  0  0  0  0  0
  -27.6237  -13.2744   19.8262 C   0  0  2  0  0  0
  -28.6769  -13.2901   20.9592 C   0  0  0  0  0  0
  -25.2403  -13.8348   20.5718 C   0  0  0  0  0  0
  -24.1772  -13.0522   20.9189 C   0  0  0  0  0  0
  -24.6398  -11.6990   20.8713 C   0  0  0  0  0  0
  -23.9052  -10.4362   21.0299 C   0  0  0  0  0  0
  -24.3594   -9.4274   21.9086 C   0  0  0  0  0  0
  -23.6272   -8.2319   22.0684 C   0  0  0  0  0  0
  -22.4250   -8.0316   21.3493 C   0  0  0  0  0  0
  -21.9871   -9.0257   20.4566 C   0  0  0  0  0  0
  -22.7220  -10.2136   20.2956 C   0  0  0  0  0  0
  -21.6865   -6.0713   22.5257 C   0  0  0  0  0  0
  -21.4065   -6.5599   23.8200 C   0  0  0  0  0  0
  -21.3677   -5.6729   24.9149 C   0  0  0  0  0  0
  -21.6029   -4.2989   24.7181 C   0  0  0  0  0  0
  -21.8850   -3.8099   23.4298 C   0  0  0  0  0  0
  -21.9223   -4.6945   22.3359 C   0  0  0  0  0  0
  -22.7768  -13.5190   21.1825 C   0  0  0  0  0  0
  -22.1661   -4.2135   21.0939 F   0  0  0  0  0  0
  -21.5571   -3.4469   25.7686 F   0  0  0  0  0  0
  -29.9959  -13.5522   20.3733 N   0  0  0  0  0  0
  -26.2874  -12.9652   20.3222 N   0  0  0  0  0  0
  -25.9343  -11.6733   20.5646 N   0  0  0  0  0  0
  -22.0408  -12.8209   22.0367 N   0  0  0  0  0  0
  -25.4015  -15.2114   20.4192 N   0  0  0  0  0  0
  -31.9937  -14.4904   20.2519 O   0  0  0  0  0  0
  -21.6660   -6.8882   21.4230 O   0  0  0  0  0  0
  -22.3422  -14.5500   20.6652 O   0  0  0  0  0  0
  -24.6284  -31.8599   23.2036 C   0  0  0  0  0  0
  -25.9127  -32.4781   23.8364 C   0  0  1  0  0  0
  -27.2017  -27.3142   20.0972 C   0  0  0  0  0  0
  -25.5907  -33.8577   24.2247 N   0  0  0  0  0  0
  -23.4138  -30.4881   21.5528 C   0  0  2  0  0  0
  -24.8492  -28.9443   20.1019 C   0  0  0  0  0  0
  -22.7476  -29.4643   22.5000 C   0  0  0  0  0  0
  -18.0348  -28.1398   22.8496 C   0  0  0  0  0  0
  -24.1453  -36.7337   23.2641 C   0  0  0  0  0  0
  -25.9549  -30.7818   21.3691 C   0  0  0  0  0  0
  -26.0202  -29.4069   20.7163 C   0  0  0  0  0  0
  -27.2018  -28.6063   20.7081 C   0  0  0  0  0  0
  -26.0210  -26.9206   19.4281 C   0  0  0  0  0  0
  -24.8535  -27.7044   19.4462 C   0  0  0  0  0  0
  -23.6114  -29.8219   20.1657 C   0  0  0  0  0  0
  -25.4084  -36.3106   24.0329 C   0  0  1  0  0  0
  -20.5939  -28.3666   23.1264 C   0  0  2  0  0  0
  -20.6817  -26.9400   22.5364 C   0  0  0  0  0  0
  -19.5779  -26.6363   21.5188 C   0  0  0  0  0  0
  -18.1977  -26.7956   22.1609 C   0  0  0  0  0  0
  -19.1605  -28.8844   23.2898 C   0  0  0  0  0  0
  -18.9534  -30.1440   23.8950 C   0  0  0  0  0  0
  -17.6541  -30.6573   24.0657 C   0  0  0  0  0  0
  -25.9042  -34.9468   23.5092 C   0  0  0  0  0  0
  -16.5427  -29.9105   23.6367 C   0  0  0  0  0  0
  -16.7345  -28.6548   23.0345 C   0  0  0  0  0  0
  -26.4463  -31.6628   25.0768 C   0  0  0  0  0  0
  -25.3686  -31.3809   26.1496 C   0  0  0  0  0  0
  -27.0265  -30.3037   24.6250 C   0  0  0  0  0  0
  -27.6013  -32.4371   25.7551 C   0  0  0  0  0  0
  -27.5569  -37.1834   24.8450 C   0  0  0  0  0  0
  -21.4201  -29.3062   22.3706 N   0  0  0  0  0  0
  -26.4265  -37.3807   23.9424 N   0  0  0  0  0  0
  -24.6869  -31.0591   22.0987 N   0  0  0  0  0  0
  -23.4200  -28.8158   23.3044 O   0  0  0  0  0  0
  -28.2917  -26.4278   20.1363 O   0  0  0  0  0  0
  -26.5605  -34.8952   22.4662 O   0  0  0  0  0  0
  -23.5463  -32.1381   23.7383 O   0  0  0  0  0  0
  -29.1281  -19.7797   21.1266 C   0  0  0  0  0  0
  -28.5424  -21.0105   20.6127 C   0  0  0  0  0  0
  -27.6012  -20.8111   19.5668 C   0  0  0  0  0  0
  -28.8416  -18.4838   20.5378 C   0  0  0  0  0  0
  -27.5324  -19.5466   18.9394 C   0  0  0  0  0  0
  -26.7997  -19.3014   17.6362 C   0  0  0  0  0  0
  -24.0664  -22.2443   18.7366 C   0  0  0  0  0  0
  -29.1381  -16.8693   22.5648 C   0  0  0  0  0  0
  -31.6773  -17.0263   20.9405 C   0  0  0  0  0  0
  -30.4404  -16.5613   18.8461 C   0  0  0  0  0  0
  -28.7999  -22.4571   21.2266 C   0  0  0  0  0  0
  -26.5922  -21.8775   19.1615 C   0  0  0  0  0  0
  -25.1368  -21.4579   19.4963 C   0  0  0  0  0  0
  -28.9742  -23.8020   20.3330 C   0  0  0  0  0  0
  -27.9977  -25.0525   20.6259 C   0  0  0  0  0  0
  -29.1985  -17.0073   21.0401 C   0  0  2  0  0  0
  -30.4461  -16.2625   20.3627 C   0  0  0  0  0  0
  -28.1053  -18.4399   19.4203 N   0  0  0  0  0  0
  -31.4229  -12.4500   19.1614 H   0  0  0  0  0  0
  -30.2530  -11.4645   19.9900 H   0  0  0  0  0  0
  -29.7456  -11.7010   17.5264 H   0  0  0  0  0  0
  -29.6612  -13.4301   17.7083 H   0  0  0  0  0  0
  -27.8473  -11.3153   18.8791 H   0  0  0  0  0  0
  -27.3608  -12.5763   17.7779 H   0  0  0  0  0  0
  -27.5873  -14.2845   19.4124 H   0  0  0  0  0  0
  -28.6903  -12.3362   21.4924 H   0  0  0  0  0  0
  -28.4267  -14.0581   21.6908 H   0  0  0  0  0  0
  -25.2722   -9.5786   22.4657 H   0  0  0  0  0  0
  -23.9984   -7.4702   22.7396 H   0  0  0  0  0  0
  -21.0784   -8.8744   19.8861 H   0  0  0  0  0  0
  -22.3603  -10.9637   19.6061 H   0  0  0  0  0  0
  -21.2104   -7.6092   23.9761 H   0  0  0  0  0  0
  -21.1445   -6.0378   25.9066 H   0  0  0  0  0  0
  -22.0628   -2.7566   23.2747 H   0  0  0  0  0  0
  -22.4046  -11.9996   22.4981 H   0  0  0  0  0  0
  -21.1016  -13.1276   22.2512 H   0  0  0  0  0  0
  -24.6132  -15.8435   20.5018 H   0  0  0  0  0  0
  -26.2453  -15.6728   20.1048 H   0  0  0  0  0  0
  -26.7210  -32.5406   23.1132 H   0  0  0  0  0  0
  -25.0033  -33.9678   25.0378 H   0  0  0  0  0  0
  -22.7112  -31.3120   21.4233 H   0  0  0  0  0  0
  -23.3710  -35.9673   23.3259 H   0  0  0  0  0  0
  -24.3533  -36.8970   22.2053 H   0  0  0  0  0  0
  -23.7181  -37.6533   23.6672 H   0  0  0  0  0  0
  -26.0779  -31.5288   20.5837 H   0  0  0  0  0  0
  -26.8435  -30.8418   21.9830 H   0  0  0  0  0  0
  -28.0948  -28.9608   21.2018 H   0  0  0  0  0  0
  -25.9844  -25.9935   18.8734 H   0  0  0  0  0  0
  -23.9660  -27.3579   18.9336 H   0  0  0  0  0  0
  -23.6973  -30.5942   19.4021 H   0  0  0  0  0  0
  -22.7316  -29.2379   19.8872 H   0  0  0  0  0  0
  -25.1260  -36.1975   25.0824 H   0  0  0  0  0  0
  -21.0111  -28.3195   24.1360 H   0  0  0  0  0  0
  -20.5788  -26.2254   23.3532 H   0  0  0  0  0  0
  -21.6673  -26.7426   22.1107 H   0  0  0  0  0  0
  -19.6866  -25.6250   21.1256 H   0  0  0  0  0  0
  -19.6701  -27.3113   20.6674 H   0  0  0  0  0  0
  -17.4241  -26.6764   21.3996 H   0  0  0  0  0  0
  -18.0326  -26.0096   22.8990 H   0  0  0  0  0  0
  -19.8017  -30.7229   24.2311 H   0  0  0  0  0  0
  -17.5121  -31.6231   24.5313 H   0  0  0  0  0  0
  -15.5438  -30.3009   23.7723 H   0  0  0  0  0  0
  -15.8742  -28.0881   22.7014 H   0  0  0  0  0  0
  -24.5867  -30.7132   25.7846 H   0  0  0  0  0  0
  -24.8896  -32.2995   26.4905 H   0  0  0  0  0  0
  -25.8014  -30.9016   27.0286 H   0  0  0  0  0  0
  -26.2823  -29.6873   24.1200 H   0  0  0  0  0  0
  -27.3809  -29.7239   25.4782 H   0  0  0  0  0  0
  -27.8767  -30.4262   23.9541 H   0  0  0  0  0  0
  -27.2621  -33.3694   26.2083 H   0  0  0  0  0  0
  -28.3890  -32.6886   25.0438 H   0  0  0  0  0  0
  -28.0628  -31.8541   26.5523 H   0  0  0  0  0  0
  -28.2608  -38.0122   24.7534 H   0  0  0  0  0  0
  -28.1061  -36.2668   24.6247 H   0  0  0  0  0  0
  -27.2303  -37.1438   25.8855 H   0  0  0  0  0  0
  -20.9353  -29.8880   21.7006 H   0  0  0  0  0  0
  -26.0143  -38.2887   24.1444 H   0  0  0  0  0  0
  -29.7561  -19.8162   22.0029 H   0  0  0  0  0  0
  -25.9195  -19.9167   17.5014 H   0  0  0  0  0  0
  -26.4917  -18.2584   17.5547 H   0  0  0  0  0  0
  -27.4750  -19.5180   16.8141 H   0  0  0  0  0  0
  -23.0653  -21.9180   19.0267 H   0  0  0  0  0  0
  -24.1522  -22.0946   17.6575 H   0  0  0  0  0  0
  -24.1468  -23.3111   18.9503 H   0  0  0  0  0  0
  -28.1285  -17.0745   22.9233 H   0  0  0  0  0  0
  -29.8261  -17.5454   23.0689 H   0  0  0  0  0  0
  -29.3903  -15.8535   22.8665 H   0  0  0  0  0  0
  -31.4729  -18.0877   21.0771 H   0  0  0  0  0  0
  -32.5461  -16.9755   20.2805 H   0  0  0  0  0  0
  -31.9914  -16.6342   21.9105 H   0  0  0  0  0  0
  -30.5623  -17.6284   18.6516 H   0  0  0  0  0  0
  -29.4968  -16.2399   18.4072 H   0  0  0  0  0  0
  -31.2449  -16.0589   18.3011 H   0  0  0  0  0  0
  -29.7040  -22.3768   21.8329 H   0  0  0  0  0  0
  -27.9969  -22.6360   21.9448 H   0  0  0  0  0  0
  -26.7543  -22.1280   18.1131 H   0  0  0  0  0  0
  -26.7622  -22.7867   19.7069 H   0  0  0  0  0  0
  -24.9664  -20.4049   19.2859 H   0  0  0  0  0  0
  -24.9657  -21.5410   20.5706 H   0  0  0  0  0  0
  -28.9679  -23.5594   19.2672 H   0  0  0  0  0  0
  -29.9936  -24.1569   20.4997 H   0  0  0  0  0  0
  -27.9025  -25.1603   21.7078 H   0  0  0  0  0  0
  -26.9944  -24.7644   20.3080 H   0  0  0  0  0  0
  -28.3465  -16.4146   20.7046 H   0  0  0  0  0  0
  1 25  1  0  0  0
  1 30  2  0  0  0
  1 87  1  0  0  0
  2  3  1  0  0  0
  2 25  1  0  0  0
  2 89  1  0  0  0
  2 90  1  0  0  0
  3  4  1  0  0  0
  3 91  1  0  0  0
  3 92  1  0  0  0
  4  5  1  0  0  0
  4 93  1  0  0  0
  4 94  1  0  0  0
  5  6  1  0  0  0
  5 26  1  0  0  0
  5 95  1  0  0  0
  6 25  1  0  0  0
  6 96  1  0  0  0
  6 97  1  0  0  0
  7  8  2  0  0  0
  7 26  1  0  0  0
  7 29  1  0  0  0
  8  9  1  0  0  0
  8 22  1  0  0  0
  9 10  1  0  0  0
  9 27  2  0  0  0
 10 11  2  0  0  0
 10 15  1  0  0  0
 11 12  1  0  0  0
 11 98  1  0  0  0
 12 13  2  0  0  0
 12 99  1  0  0  0
 13 14  1  0  0  0
 13 31  1  0  0  0
 14 15  2  0  0  0
 14100  1  0  0  0
 15101  1  0  0  0
 16 17  2  0  0  0
 16 21  1  0  0  0
 16 31  1  0  0  0
 17 18  1  0  0  0
 17102  1  0  0  0
 18 19  2  0  0  0
 18103  1  0  0  0
 19 20  1  0  0  0
 19 24  1  0  0  0
 20 21  2  0  0  0
 20104  1  0  0  0
 21 23  1  0  0  0
 22 28  1  0  0  0
 22 32  2  0  0  0
 26 27  1  0  0  0
 28105  1  0  0  0
 28106  1  0  0  0
 29107  1  0  0  0
 29108  1  0  0  0
 33 34  1  0  0  0
 33 66  1  0  0  0
 33 70  2  0  0  0
 34 36  1  0  0  0
 34 59  1  0  0  0
 34109  1  0  0  0
 35 44  2  0  0  0
 35 45  1  0  0  0
 35 68  1  0  0  0
 36 56  1  0  0  0
 36110  1  0  0  0
 37 39  1  0  0  0
 37 47  1  0  0  0
 37 66  1  0  0  0
 37111  1  0  0  0
 38 43  2  0  0  0
 38 46  1  0  0  0
 38 47  1  0  0  0
 39 64  1  0  0  0
 39 67  2  0  0  0
 40 52  1  0  0  0
 40 53  2  0  0  0
 40 58  1  0  0  0
 41112  1  0  0  0
 41113  1  0  0  0
 41114  1  0  0  0
 41 48  1  0  0  0
 42 43  1  0  0  0
 42 66  1  0  0  0
 42115  1  0  0  0
 42116  1  0  0  0
 43 44  1  0  0  0
 44117  1  0  0  0
 45 46  2  0  0  0
 45118  1  0  0  0
 46119  1  0  0  0
 47120  1  0  0  0
 47121  1  0  0  0
 48 56  1  0  0  0
 48 65  1  0  0  0
 48122  1  0  0  0
 49 50  1  0  0  0
 49 53  1  0  0  0
 49 64  1  0  0  0
 49123  1  0  0  0
 50 51  1  0  0  0
 50124  1  0  0  0
 50125  1  0  0  0
 51 52  1  0  0  0
 51126  1  0  0  0
 51127  1  0  0  0
 52128  1  0  0  0
 52129  1  0  0  0
 53 54  1  0  0  0
 54 55  2  0  0  0
 54130  1  0  0  0
 55 57  1  0  0  0
 55131  1  0  0  0
 56 69  2  0  0  0
 57 58  2  0  0  0
 57132  1  0  0  0
 58133  1  0  0  0
 59 60  1  0  0  0
 59 61  1  0  0  0
 59 62  1  0  0  0
 60134  1  0  0  0
 60135  1  0  0  0
 60136  1  0  0  0
 61137  1  0  0  0
 61138  1  0  0  0
 61139  1  0  0  0
 62140  1  0  0  0
 62141  1  0  0  0
 62142  1  0  0  0
 63 65  1  0  0  0
 63143  1  0  0  0
 63144  1  0  0  0
 63145  1  0  0  0
 64146  1  0  0  0
 65147  1  0  0  0
 68 85  1  0  0  0
 71 72  2  0  0  0
 71 74  1  0  0  0
 71148  1  0  0  0
 72 73  1  0  0  0
 72 81  1  0  0  0
 73 75  2  0  0  0
 73 82  1  0  0  0
 74 86  1  0  0  0
 74 88  2  0  0  0
 75 76  1  0  0  0
 75 88  1  0  0  0
 76149  1  0  0  0
 76150  1  0  0  0
 76151  1  0  0  0
 77 83  1  0  0  0
 77152  1  0  0  0
 77153  1  0  0  0
 77154  1  0  0  0
 78155  1  0  0  0
 78156  1  0  0  0
 78157  1  0  0  0
 78 86  1  0  0  0
 79158  1  0  0  0
 79159  1  0  0  0
 79160  1  0  0  0
 79 87  1  0  0  0
 80 87  1  0  0  0
 80161  1  0  0  0
 80162  1  0  0  0
 80163  1  0  0  0
 81 84  1  0  0  0
 81164  1  0  0  0
 81165  1  0  0  0
 82 83  1  0  0  0
 82166  1  0  0  0
 82167  1  0  0  0
 83168  1  0  0  0
 83169  1  0  0  0
 84 85  1  0  0  0
 84170  1  0  0  0
 84171  1  0  0  0
 85172  1  0  0  0
 85173  1  0  0  0
 86 87  1  0  0  0
 86174  1  0  0  0
M  ISO  4   1 100  68 101  85 101  87 100
M  END
> <chiral flag>
0

> <version>
0

> <s_m_source_file>
/data/baiqing/PycharmProjects/Reinvent-master-3.2/result/LINK_invent/BTK/process_docking_weight1_custom_sum_contain_oxygen_bond_distance_aromatic_linkinvent_7_9_3/rearranged_h_0078.sdf

> <i_m_source_file_index>
68

> <r_mmod_Potential_Energy-OPLS-2005>
183.107437133789

> <r_mmod_Stretch_Energy-OPLS-2005>
122.338470458984

> <r_mmod_Bend_Energy-OPLS-2005>
234.660171508789

> <r_mmod_Torsional_Energy-OPLS-2005>
254.189254760742

> <r_mmod_Improper_Torsional_Energy-OPLS-2005>
10.3777961730957

> <r_mmod_Van_der_Waal_Energy-OPLS-2005>
164.111709594727

> <r_mmod_Electrostatic_Energy-OPLS-2005>
-506.576202392578

> <r_mmod_Solvation_Energy-OPLS-2005>
-182.574996948242

> <b_mmod_Minimization_Converged-OPLS-2005>
0

> <r_mmod_RMS_Derivative-OPLS-2005>
8.37559986114502

$$$$
68
                    3D
 Structure written by MMmdl.
166174  0  0  1  0            999 V2000
  -30.6534  -14.5569   20.5122 C   0  0  0  0  0  0
  -30.4287  -12.3399   19.4485 C   0  0  0  0  0  0
  -29.5034  -12.4986   18.2220 C   0  0  0  0  0  0
  -28.0240  -12.3508   18.6304 C   0  0  0  0  0  0
  -27.6565  -13.2101   19.8700 C   0  0  2  0  0  0
  -28.6981  -13.0361   20.9999 C   0  0  0  0  0  0
  -25.2564  -13.8163   20.5680 C   0  0  0  0  0  0
  -24.1823  -13.0438   20.9186 C   0  0  0  0  0  0
  -24.6380  -11.6905   20.8736 C   0  0  0  0  0  0
  -23.9046  -10.4292   21.0402 C   0  0  0  0  0  0
  -24.3601   -9.4212   21.9182 C   0  0  0  0  0  0
  -23.6284   -8.2243   22.0752 C   0  0  0  0  0  0
  -22.4268   -8.0276   21.3542 C   0  0  0  0  0  0
  -21.9897   -9.0247   20.4645 C   0  0  0  0  0  0
  -22.7217  -10.2131   20.3054 C   0  0  0  0  0  0
  -21.6853   -6.0731   22.5278 C   0  0  0  0  0  0
  -21.4014   -6.5637   23.8209 C   0  0  0  0  0  0
  -21.3660   -5.6791   24.9174 C   0  0  0  0  0  0
  -21.6044   -4.3054   24.7225 C   0  0  0  0  0  0
  -21.8820   -3.8143   23.4348 C   0  0  0  0  0  0
  -21.9193   -4.6959   22.3403 C   0  0  0  0  0  0
  -22.7846  -13.5235   21.1851 C   0  0  0  0  0  0
  -22.1662   -4.2144   21.0980 F   0  0  0  0  0  0
  -21.5629   -3.4539   25.7739 F   0  0  0  0  0  0
  -30.0235  -13.3482   20.4439 N   0  0  0  0  0  0
  -26.2993  -12.9334   20.3338 N   0  0  0  0  0  0
  -25.9308  -11.6494   20.5761 N   0  0  0  0  0  0
  -22.0483  -12.8233   22.0408 N   0  0  0  0  0  0
  -25.4287  -15.1883   20.4093 N   0  0  0  0  0  0
  -31.8020  -14.7244   20.0941 O   0  0  0  0  0  0
  -21.6638   -6.8870   21.4237 O   0  0  0  0  0  0
  -22.3537  -14.5546   20.6701 O   0  0  0  0  0  0
  -24.6185  -31.8637   23.2049 C   0  0  0  0  0  0
  -25.9055  -32.4798   23.8365 C   0  0  1  0  0  0
  -27.2346  -27.3829   20.1038 C   0  0  0  0  0  0
  -25.5899  -33.8600   24.2300 N   0  0  0  0  0  0
  -23.4085  -30.4848   21.5475 C   0  0  2  0  0  0
  -24.8530  -28.9405   20.1141 C   0  0  0  0  0  0
  -22.7430  -29.4629   22.4983 C   0  0  0  0  0  0
  -18.0274  -28.1375   22.8496 C   0  0  0  0  0  0
  -24.1483  -36.7305   23.2642 C   0  0  0  0  0  0
  -25.9408  -30.8127   21.3643 C   0  0  0  0  0  0
  -26.0147  -29.4426   20.7114 C   0  0  0  0  0  0
  -27.2040  -28.6723   20.6985 C   0  0  0  0  0  0
  -26.0488  -26.9039   19.5015 C   0  0  0  0  0  0
  -24.8677  -27.6734   19.5052 C   0  0  0  0  0  0
  -23.6179  -29.8143   20.1630 C   0  0  0  0  0  0
  -25.4106  -36.3103   24.0340 C   0  0  1  0  0  0
  -20.5866  -28.3666   23.1315 C   0  0  2  0  0  0
  -20.6766  -26.9402   22.5418 C   0  0  0  0  0  0
  -19.5744  -26.6384   21.5216 C   0  0  0  0  0  0
  -18.1921  -26.7920   22.1626 C   0  0  0  0  0  0
  -19.1524  -28.8838   23.2899 C   0  0  0  0  0  0
  -18.9453  -30.1443   23.8913 C   0  0  0  0  0  0
  -17.6455  -30.6585   24.0563 C   0  0  0  0  0  0
  -25.9040  -34.9467   23.5123 C   0  0  0  0  0  0
  -16.5346  -29.9087   23.6324 C   0  0  0  0  0  0
  -16.7263  -28.6499   23.0355 C   0  0  0  0  0  0
  -26.4471  -31.6587   25.0710 C   0  0  0  0  0  0
  -25.3728  -31.3695   26.1455 C   0  0  0  0  0  0
  -27.0305  -30.3026   24.6101 C   0  0  0  0  0  0
  -27.6047  -32.4310   25.7470 C   0  0  0  0  0  0
  -27.5577  -37.1807   24.8470 C   0  0  0  0  0  0
  -21.4154  -29.3024   22.3722 N   0  0  0  0  0  0
  -26.4292  -37.3791   23.9410 N   0  0  0  0  0  0
  -24.6746  -31.0695   22.0971 N   0  0  0  0  0  0
  -23.4182  -28.8186   23.3050 O   0  0  0  0  0  0
  -28.4186  -26.6556   20.1417 O   0  0  0  0  0  0
  -26.5613  -34.8928   22.4692 O   0  0  0  0  0  0
  -23.5367  -32.1409   23.7421 O   0  0  0  0  0  0
  -30.0183  -22.5225   23.1841 C   0  0  0  0  0  0
  -30.1665  -21.4555   24.0246 C   0  0  0  0  0  0
  -29.6732  -20.6897   21.9772 C   0  0  0  0  0  0
  -30.5307  -21.3833   25.4717 C   0  0  0  0  0  0
  -26.8919  -23.5290   20.7131 C   0  0  0  0  0  0
  -28.2914  -24.8696   22.2512 C   0  0  0  0  0  0
  -29.5821  -19.6194   20.8905 C   0  0  0  0  0  0
  -29.6584  -18.1238   21.4070 C   0  0  0  0  0  0
  -29.3621  -22.9551   20.7643 C   0  0  0  0  0  0
  -30.0234  -17.0196   20.3611 C   0  0  0  0  0  0
  -28.5121  -25.2503   19.7623 C   0  0  0  0  0  0
  -28.2936  -24.1485   20.8838 C   0  0  0  0  0  0
  -29.6188  -22.0582   21.9487 N   0  0  0  0  0  0
  -29.9372  -20.3572   23.2488 N   0  3  0  0  0  0
  -29.8638  -15.6148   20.8332 N   0  0  0  0  0  0
  -31.4736  -12.4455   19.1510 H   0  0  0  0  0  0
  -30.3397  -11.3382   19.8718 H   0  0  0  0  0  0
  -29.7566  -11.7592   17.4609 H   0  0  0  0  0  0
  -29.6623  -13.4760   17.7636 H   0  0  0  0  0  0
  -27.8457  -11.2967   18.8454 H   0  0  0  0  0  0
  -27.3743  -12.6021   17.7910 H   0  0  0  0  0  0
  -27.6855  -14.2498   19.5440 H   0  0  0  0  0  0
  -28.6865  -12.0122   21.3760 H   0  0  0  0  0  0
  -28.4564  -13.6687   21.8555 H   0  0  0  0  0  0
  -25.2746   -9.5695   22.4756 H   0  0  0  0  0  0
  -23.9998   -7.4637   22.7472 H   0  0  0  0  0  0
  -21.0828   -8.8758   19.8953 H   0  0  0  0  0  0
  -22.3667  -10.9667   19.6164 H   0  0  0  0  0  0
  -21.2005   -7.6146   23.9711 H   0  0  0  0  0  0
  -21.1482   -6.0523   25.9076 H   0  0  0  0  0  0
  -22.0598   -2.7605   23.2849 H   0  0  0  0  0  0
  -22.4093  -11.9894   22.4801 H   0  0  0  0  0  0
  -21.1100  -13.1261   22.2606 H   0  0  0  0  0  0
  -24.6599  -15.8418   20.5125 H   0  0  0  0  0  0
  -26.2772  -15.6267   20.0743 H   0  0  0  0  0  0
  -26.7122  -32.5483   23.1120 H   0  0  0  0  0  0
  -25.0047  -33.9755   25.0446 H   0  0  0  0  0  0
  -22.6991  -31.3026   21.4064 H   0  0  0  0  0  0
  -23.3746  -35.9636   23.3317 H   0  0  0  0  0  0
  -24.3577  -36.8907   22.2054 H   0  0  0  0  0  0
  -23.7229  -37.6511   23.6648 H   0  0  0  0  0  0
  -26.0595  -31.5759   20.5936 H   0  0  0  0  0  0
  -26.8269  -30.8657   21.9850 H   0  0  0  0  0  0
  -28.1016  -29.0582   21.1616 H   0  0  0  0  0  0
  -26.0094  -25.9356   19.0276 H   0  0  0  0  0  0
  -23.9738  -27.2808   19.0401 H   0  0  0  0  0  0
  -23.7297  -30.5883   19.4029 H   0  0  0  0  0  0
  -22.7396  -29.2380   19.8673 H   0  0  0  0  0  0
  -25.1280  -36.1973   25.0832 H   0  0  0  0  0  0
  -20.9952  -28.3233   24.1437 H   0  0  0  0  0  0
  -20.5671  -26.2276   23.3608 H   0  0  0  0  0  0
  -21.6637  -26.7444   22.1210 H   0  0  0  0  0  0
  -19.6910  -25.6300   21.1236 H   0  0  0  0  0  0
  -19.6683  -27.3207   20.6755 H   0  0  0  0  0  0
  -17.4193  -26.6674   21.4025 H   0  0  0  0  0  0
  -18.0318  -26.0058   22.9018 H   0  0  0  0  0  0
  -19.7931  -30.7250   24.2294 H   0  0  0  0  0  0
  -17.5013  -31.6269   24.5157 H   0  0  0  0  0  0
  -15.5347  -30.2998   23.7633 H   0  0  0  0  0  0
  -15.8662  -28.0817   22.7072 H   0  0  0  0  0  0
  -24.5910  -30.7033   25.7788 H   0  0  0  0  0  0
  -24.8912  -32.2849   26.4899 H   0  0  0  0  0  0
  -25.8080  -30.8865   27.0215 H   0  0  0  0  0  0
  -26.2853  -29.6786   24.1157 H   0  0  0  0  0  0
  -27.4075  -29.7260   25.4558 H   0  0  0  0  0  0
  -27.8686  -30.4341   23.9255 H   0  0  0  0  0  0
  -27.2668  -33.3605   26.2062 H   0  0  0  0  0  0
  -28.3843  -32.6877   25.0286 H   0  0  0  0  0  0
  -28.0732  -31.8428   26.5371 H   0  0  0  0  0  0
  -28.2610  -38.0091   24.7512 H   0  0  0  0  0  0
  -28.1058  -36.2626   24.6305 H   0  0  0  0  0  0
  -27.2302  -37.1471   25.8877 H   0  0  0  0  0  0
  -20.9328  -29.8732   21.6926 H   0  0  0  0  0  0
  -26.0184  -38.2871   24.1404 H   0  0  0  0  0  0
  -30.1694  -23.5688   23.3995 H   0  0  0  0  0  0
  -29.6820  -21.6813   26.0870 H   0  0  0  0  0  0
  -31.3624  -22.0547   25.6855 H   0  0  0  0  0  0
  -30.8253  -20.3727   25.7543 H   0  0  0  0  0  0
  -26.6974  -22.7718   21.4732 H   0  0  0  0  0  0
  -26.7809  -23.0480   19.7403 H   0  0  0  0  0  0
  -26.1057  -24.2800   20.7966 H   0  0  0  0  0  0
  -28.0229  -24.2063   23.0725 H   0  0  0  0  0  0
  -27.5453  -25.6637   22.2796 H   0  0  0  0  0  0
  -29.2538  -25.3372   22.4611 H   0  0  0  0  0  0
  -30.4084  -19.8257   20.2101 H   0  0  0  0  0  0
  -28.6570  -19.7957   20.3415 H   0  0  0  0  0  0
  -28.7131  -17.8759   21.8914 H   0  0  0  0  0  0
  -30.4217  -18.0479   22.1814 H   0  0  0  0  0  0
  -30.3377  -23.3841   20.5339 H   0  0  0  0  0  0
  -29.1213  -22.3217   19.9099 H   0  0  0  0  0  0
  -31.0410  -17.1896   20.0041 H   0  0  0  0  0  0
  -29.3810  -17.1356   19.4871 H   0  0  0  0  0  0
  -29.5424  -25.1649   19.4187 H   0  0  0  0  0  0
  -27.9377  -25.0286   18.8633 H   0  0  0  0  0  0
  -30.0130  -19.3998   23.5727 H   0  0  0  0  0  0
  -28.9505  -15.3674   21.1843 H   0  0  0  0  0  0
  1 25  1  0  0  0
  1 30  2  0  0  0
  1 85  1  0  0  0
  2  3  1  0  0  0
  2 25  1  0  0  0
  2 86  1  0  0  0
  2 87  1  0  0  0
  3  4  1  0  0  0
  3 88  1  0  0  0
  3 89  1  0  0  0
  4  5  1  0  0  0
  4 90  1  0  0  0
  4 91  1  0  0  0
  5  6  1  0  0  0
  5 26  1  0  0  0
  5 92  1  0  0  0
  6 25  1  0  0  0
  6 93  1  0  0  0
  6 94  1  0  0  0
  7  8  2  0  0  0
  7 26  1  0  0  0
  7 29  1  0  0  0
  8  9  1  0  0  0
  8 22  1  0  0  0
  9 10  1  0  0  0
  9 27  2  0  0  0
 10 11  2  0  0  0
 10 15  1  0  0  0
 11 12  1  0  0  0
 11 95  1  0  0  0
 12 13  2  0  0  0
 12 96  1  0  0  0
 13 14  1  0  0  0
 13 31  1  0  0  0
 14 15  2  0  0  0
 14 97  1  0  0  0
 15 98  1  0  0  0
 16 17  2  0  0  0
 16 21  1  0  0  0
 16 31  1  0  0  0
 17 18  1  0  0  0
 17 99  1  0  0  0
 18 19  2  0  0  0
 18100  1  0  0  0
 19 20  1  0  0  0
 19 24  1  0  0  0
 20 21  2  0  0  0
 20101  1  0  0  0
 21 23  1  0  0  0
 22 28  1  0  0  0
 22 32  2  0  0  0
 26 27  1  0  0  0
 28102  1  0  0  0
 28103  1  0  0  0
 29104  1  0  0  0
 29105  1  0  0  0
 33 34  1  0  0  0
 33 66  1  0  0  0
 33 70  2  0  0  0
 34 36  1  0  0  0
 34 59  1  0  0  0
 34106  1  0  0  0
 35 44  2  0  0  0
 35 45  1  0  0  0
 35 68  1  0  0  0
 36 56  1  0  0  0
 36107  1  0  0  0
 37 39  1  0  0  0
 37 47  1  0  0  0
 37 66  1  0  0  0
 37108  1  0  0  0
 38 43  2  0  0  0
 38 46  1  0  0  0
 38 47  1  0  0  0
 39 64  1  0  0  0
 39 67  2  0  0  0
 40 52  1  0  0  0
 40 53  2  0  0  0
 40 58  1  0  0  0
 41109  1  0  0  0
 41110  1  0  0  0
 41111  1  0  0  0
 41 48  1  0  0  0
 42 43  1  0  0  0
 42 66  1  0  0  0
 42112  1  0  0  0
 42113  1  0  0  0
 43 44  1  0  0  0
 44114  1  0  0  0
 45 46  2  0  0  0
 45115  1  0  0  0
 46116  1  0  0  0
 47117  1  0  0  0
 47118  1  0  0  0
 48 56  1  0  0  0
 48 65  1  0  0  0
 48119  1  0  0  0
 49 50  1  0  0  0
 49 53  1  0  0  0
 49 64  1  0  0  0
 49120  1  0  0  0
 50 51  1  0  0  0
 50121  1  0  0  0
 50122  1  0  0  0
 51 52  1  0  0  0
 51123  1  0  0  0
 51124  1  0  0  0
 52125  1  0  0  0
 52126  1  0  0  0
 53 54  1  0  0  0
 54 55  2  0  0  0
 54127  1  0  0  0
 55 57  1  0  0  0
 55128  1  0  0  0
 56 69  2  0  0  0
 57 58  2  0  0  0
 57129  1  0  0  0
 58130  1  0  0  0
 59 60  1  0  0  0
 59 61  1  0  0  0
 59 62  1  0  0  0
 60131  1  0  0  0
 60132  1  0  0  0
 60133  1  0  0  0
 61134  1  0  0  0
 61135  1  0  0  0
 61136  1  0  0  0
 62137  1  0  0  0
 62138  1  0  0  0
 62139  1  0  0  0
 63 65  1  0  0  0
 63140  1  0  0  0
 63141  1  0  0  0
 63142  1  0  0  0
 64143  1  0  0  0
 65144  1  0  0  0
 68 81  1  0  0  0
 71 72  2  0  0  0
 71 83  1  0  0  0
 71145  1  0  0  0
 72 74  1  0  0  0
 72 84  1  0  0  0
 73 77  1  0  0  0
 73 83  1  0  0  0
 73 84  2  0  0  0
 74146  1  0  0  0
 74147  1  0  0  0
 74148  1  0  0  0
 75149  1  0  0  0
 75150  1  0  0  0
 75151  1  0  0  0
 75 82  1  0  0  0
 76 82  1  0  0  0
 76152  1  0  0  0
 76153  1  0  0  0
 76154  1  0  0  0
 77 78  1  0  0  0
 77155  1  0  0  0
 77156  1  0  0  0
 78 80  1  0  0  0
 78157  1  0  0  0
 78158  1  0  0  0
 79 82  1  0  0  0
 79 83  1  0  0  0
 79159  1  0  0  0
 79160  1  0  0  0
 80 85  1  0  0  0
 80161  1  0  0  0
 80162  1  0  0  0
 81 82  1  0  0  0
 81163  1  0  0  0
 81164  1  0  0  0
 84165  1  0  0  0
 85166  1  0  0  0
M  CHG  1  84   1
M  ISO  4   1 100  68 101  81 101  85 100
M  END
> <chiral flag>
0

> <version>
0

> <s_m_source_file>
/data/baiqing/PycharmProjects/Reinvent-master-3.2/result/LINK_invent/BTK/process_docking_weight1_custom_sum_contain_oxygen_bond_distance_aromatic_linkinvent_7_9_3/rearranged_h_0078.sdf

> <i_m_source_file_index>
69

> <r_mmod_Potential_Energy-OPLS-2005>
-16.0864105224609

> <r_mmod_Stretch_Energy-OPLS-2005>
62.7004356384277

> <r_mmod_Bend_Energy-OPLS-2005>
143.055145263672

> <r_mmod_Torsional_Energy-OPLS-2005>
234.323913574219

> <r_mmod_Improper_Torsional_Energy-OPLS-2005>
7.66420650482178

> <r_mmod_Van_der_Waal_Energy-OPLS-2005>
129.826934814453

> <r_mmod_Electrostatic_Energy-OPLS-2005>
-205.27717590332

> <r_mmod_Solvation_Energy-OPLS-2005>
-412.980102539062

> <b_mmod_Minimization_Converged-OPLS-2005>
0

> <r_mmod_RMS_Derivative-OPLS-2005>
0.720248639583588

$$$$
69
                    3D
 Structure written by MMmdl.
164172  0  0  1  0            999 V2000
  -30.6234  -14.1838   20.9911 C   0  0  0  0  0  0
  -30.7230  -12.4277   19.1508 C   0  0  0  0  0  0
  -29.6738  -12.5700   17.9637 C   0  0  0  0  0  0
  -28.1498  -12.5485   18.3372 C   0  0  0  0  0  0
  -28.0479  -13.3294   19.6474 C   0  0  2  0  0  0
  -28.9321  -12.5445   20.6197 C   0  0  0  0  0  0
  -25.9998  -14.3601   20.2824 C   0  0  0  0  0  0
  -24.3469  -13.7345   21.0947 C   0  0  0  0  0  0
  -24.1550  -12.4014   21.4389 C   0  0  0  0  0  0
  -23.8014  -10.8282   21.1489 C   0  0  0  0  0  0
  -24.1956   -9.7914   22.0856 C   0  0  0  0  0  0
  -23.6279   -8.4753   22.1570 C   0  0  0  0  0  0
  -22.4995   -8.1483   21.3722 C   0  0  0  0  0  0
  -22.0966   -9.1211   20.4369 C   0  0  0  0  0  0
  -22.7454  -10.3842   20.3109 C   0  0  0  0  0  0
  -21.7507   -6.1111   22.5159 C   0  0  0  0  0  0
  -21.4435   -6.5904   23.8088 C   0  0  0  0  0  0
  -21.3827   -5.7042   24.9070 C   0  0  0  0  0  0
  -21.5989   -4.3265   24.7151 C   0  0  0  0  0  0
  -21.8763   -3.8335   23.4292 C   0  0  0  0  0  0
  -21.9413   -4.7199   22.3337 C   0  0  0  0  0  0
  -22.7352  -14.1347   21.3825 C   0  0  0  0  0  0
  -22.1828   -4.2313   21.0935 F   0  0  0  0  0  0
  -21.5501   -3.4713   25.7628 F   0  0  0  0  0  0
  -30.2379  -13.0254   20.4240 N   0  0  0  0  0  0
  -26.7060  -13.8177   20.1440 N   0  0  0  0  0  0
  -24.9924  -13.5446   20.9199 N   0  0  0  0  0  0
  -22.0217  -13.4034   22.2808 N   0  0  0  0  0  0
  -26.6826  -15.4466   19.5587 N   0  0  0  0  0  0
  -31.5581  -14.8305   20.4862 O   0  0  0  0  0  0
  -21.7982   -6.9453   21.4120 O   0  0  0  0  0  0
  -22.1154  -14.9476   20.7244 O   0  0  0  0  0  0
  -24.7143  -31.7583   23.1385 C   0  0  0  0  0  0
  -25.9640  -32.4201   23.7924 C   0  0  1  0  0  0
  -26.5522  -26.0685   20.3762 C   0  0  0  0  0  0
  -25.6092  -33.8066   24.1745 N   0  0  0  0  0  0
  -23.5261  -30.3931   21.5031 C   0  0  2  0  0  0
  -24.8743  -28.6518   20.0864 C   0  0  0  0  0  0
  -22.7824  -29.4180   22.4570 C   0  0  0  0  0  0
  -18.0359  -28.1430   22.8462 C   0  0  0  0  0  0
  -24.1507  -36.7031   23.2664 C   0  0  0  0  0  0
  -26.1071  -30.2531   21.5029 C   0  0  0  0  0  0
  -26.0268  -28.7744   20.8559 C   0  0  0  0  0  0
  -26.8698  -27.5010   20.9709 C   0  0  0  0  0  0
  -25.5778  -26.3463   19.4031 C   0  0  0  0  0  0
  -24.7526  -27.5014   19.2983 C   0  0  0  0  0  0
  -23.7720  -29.7257   20.1193 C   0  0  0  0  0  0
  -25.4189  -36.2757   24.0248 C   0  0  1  0  0  0
  -20.5988  -28.3774   23.1137 C   0  0  2  0  0  0
  -20.6785  -26.9412   22.5419 C   0  0  0  0  0  0
  -19.5743  -26.6346   21.5248 C   0  0  0  0  0  0
  -18.1944  -26.7964   22.1647 C   0  0  0  0  0  0
  -19.1624  -28.8942   23.2766 C   0  0  0  0  0  0
  -18.9514  -30.1530   23.8800 C   0  0  0  0  0  0
  -17.6490  -30.6596   24.0552 C   0  0  0  0  0  0
  -25.9208  -34.9150   23.4876 C   0  0  0  0  0  0
  -16.5393  -29.9048   23.6351 C   0  0  0  0  0  0
  -16.7334  -28.6478   23.0363 C   0  0  0  0  0  0
  -26.4666  -31.6499   25.0783 C   0  0  0  0  0  0
  -25.3584  -31.3953   26.1293 C   0  0  0  0  0  0
  -27.0679  -30.2776   24.7174 C   0  0  0  0  0  0
  -27.6060  -32.4502   25.7521 C   0  0  0  0  0  0
  -27.5567  -37.1687   24.8463 C   0  0  0  0  0  0
  -21.4449  -29.2986   22.3395 N   0  0  0  0  0  0
  -26.4278  -37.3564   23.9398 N   0  0  0  0  0  0
  -24.8199  -30.8622   22.0872 N   0  0  0  0  0  0
  -23.4231  -28.7753   23.2935 O   0  0  0  0  0  0
  -26.8948  -24.4489   20.5788 O   0  0  0  0  0  0
  -26.5878  -34.8791   22.4521 O   0  0  0  0  0  0
  -23.6137  -32.0912   23.6186 O   0  0  0  0  0  0
  -25.0509  -12.6806   18.9131 C   0  0  0  0  0  0
  -24.2730  -14.8170   19.0184 C   0  0  0  0  0  0
  -26.2441  -11.7508   20.6704 C   0  0  0  0  0  0
  -24.7790  -16.1720   20.8001 C   0  0  0  0  0  0
  -26.6138  -13.2574   22.3752 C   0  0  0  0  0  0
  -26.2434   -9.3576   19.5657 C   0  0  0  0  0  0
  -29.4142  -14.8244   24.4670 C   0  0  0  0  0  0
  -26.7750  -10.2854   20.6871 C   0  0  0  0  0  0
  -24.9863  -18.3045   20.5388 C   0  0  0  0  0  0
  -27.7590  -13.1630   23.4304 C   0  0  0  0  0  0
  -25.9018  -20.3668   20.8727 C   0  0  0  0  0  0
  -26.0864  -22.5888   20.3909 C   0  0  0  0  0  0
  -29.2366  -13.8779   23.2659 C   0  0  1  0  0  0
  -25.8428  -15.2162   22.3300 N   0  0  0  0  0  0
  -29.8247  -14.6042   22.0482 N   0  0  0  0  0  0
  -31.6795  -12.8695   18.8610 H   0  0  0  0  0  0
  -30.9565  -11.3680   19.3024 H   0  0  0  0  0  0
  -29.8755  -11.8013   17.2097 H   0  0  0  0  0  0
  -29.8792  -13.5289   17.4670 H   0  0  0  0  0  0
  -27.7769  -11.5235   18.4304 H   0  0  0  0  0  0
  -27.5606  -13.0354   17.5539 H   0  0  0  0  0  0
  -28.5983  -14.2370   19.3828 H   0  0  0  0  0  0
  -29.0172  -11.5516   20.2281 H   0  0  0  0  0  0
  -28.6793  -12.1944   21.5887 H   0  0  0  0  0  0
  -24.9019  -10.0555   22.8660 H   0  0  0  0  0  0
  -23.9938   -7.7558   22.8825 H   0  0  0  0  0  0
  -21.2480   -8.9215   19.8000 H   0  0  0  0  0  0
  -22.3202  -11.0933   19.6361 H   0  0  0  0  0  0
  -21.2627   -7.6434   23.9675 H   0  0  0  0  0  0
  -21.1553   -6.0784   25.8962 H   0  0  0  0  0  0
  -22.0186   -2.7773   23.2782 H   0  0  0  0  0  0
  -22.4890  -12.7354   22.8838 H   0  0  0  0  0  0
  -21.0370  -13.5806   22.3804 H   0  0  0  0  0  0
  -27.0453  -16.1613   20.1936 H   0  0  0  0  0  0
  -25.8496  -15.7829   19.0687 H   0  0  0  0  0  0
  -26.7679  -32.4412   23.0533 H   0  0  0  0  0  0
  -25.0024  -33.8985   24.9760 H   0  0  0  0  0  0
  -22.8764  -31.2549   21.3374 H   0  0  0  0  0  0
  -23.3820  -35.9303   23.3234 H   0  0  0  0  0  0
  -24.3539  -36.8820   22.2095 H   0  0  0  0  0  0
  -23.7207  -37.6146   23.6828 H   0  0  0  0  0  0
  -26.4429  -30.9220   20.7084 H   0  0  0  0  0  0
  -26.9367  -30.2514   22.1963 H   0  0  0  0  0  0
  -27.6944  -27.5559   21.6641 H   0  0  0  0  0  0
  -25.2764  -25.5042   18.7950 H   0  0  0  0  0  0
  -23.9138  -27.4461   18.6173 H   0  0  0  0  0  0
  -24.0549  -30.4997   19.4052 H   0  0  0  0  0  0
  -22.8440  -29.2899   19.7419 H   0  0  0  0  0  0
  -25.1410  -36.1455   25.0727 H   0  0  0  0  0  0
  -21.0065  -28.3396   24.1270 H   0  0  0  0  0  0
  -20.5657  -26.2392   23.3686 H   0  0  0  0  0  0
  -21.6630  -26.7292   22.1229 H   0  0  0  0  0  0
  -19.6842  -25.6226   21.1322 H   0  0  0  0  0  0
  -19.6681  -27.3126   20.6751 H   0  0  0  0  0  0
  -17.4219  -26.6773   21.4036 H   0  0  0  0  0  0
  -18.0255  -26.0136   22.9054 H   0  0  0  0  0  0
  -19.7986  -30.7388   24.2113 H   0  0  0  0  0  0
  -17.5024  -31.6264   24.5181 H   0  0  0  0  0  0
  -15.5382  -30.2905   23.7713 H   0  0  0  0  0  0
  -15.8753  -28.0757   22.7092 H   0  0  0  0  0  0
  -24.5825  -30.7284   25.7512 H   0  0  0  0  0  0
  -24.8700  -32.3201   26.4374 H   0  0  0  0  0  0
  -25.7599  -30.9276   27.0294 H   0  0  0  0  0  0
  -26.3366  -29.6129   24.2585 H   0  0  0  0  0  0
  -27.4220  -29.7578   25.6096 H   0  0  0  0  0  0
  -27.9357  -30.3766   24.0659 H   0  0  0  0  0  0
  -27.2615  -33.3977   26.1663 H   0  0  0  0  0  0
  -28.4005  -32.6810   25.0415 H   0  0  0  0  0  0
  -28.0588  -31.8958   26.5745 H   0  0  0  0  0  0
  -28.2542  -38.0022   24.7537 H   0  0  0  0  0  0
  -28.1111  -36.2548   24.6285 H   0  0  0  0  0  0
  -27.2260  -37.1304   25.8854 H   0  0  0  0  0  0
  -20.9807  -29.8640   21.6427 H   0  0  0  0  0  0
  -26.0078  -38.2596   24.1404 H   0  0  0  0  0  0
  -24.8381  -12.0692   18.0399 H   0  0  0  0  0  0
  -23.8458  -15.2585   18.1320 H   0  0  0  0  0  0
  -26.8300   -8.4204   19.5775 H   0  0  0  0  0  0
  -26.3460   -9.8031   18.5663 H   0  0  0  0  0  0
  -25.1828   -9.0864   19.6978 H   0  0  0  0  0  0
  -29.1336  -14.3125   25.3950 H   0  0  0  0  0  0
  -28.7745  -15.7097   24.3519 H   0  0  0  0  0  0
  -30.4515  -15.1562   24.5892 H   0  0  0  0  0  0
  -26.5768   -9.8543   21.6635 H   0  0  0  0  0  0
  -27.8444  -10.1636   20.6888 H   0  0  0  0  0  0
  -23.9047  -18.5565   20.5917 H   0  0  0  0  0  0
  -25.1994  -18.2608   19.4506 H   0  0  0  0  0  0
  -27.9072  -12.1040   23.6534 H   0  0  0  0  0  0
  -27.3148  -13.4834   24.3737 H   0  0  0  0  0  0
  -26.9771  -20.1133   20.8666 H   0  0  0  0  0  0
  -25.6739  -20.4577   21.9497 H   0  0  0  0  0  0
  -25.0316  -22.8829   20.4853 H   0  0  0  0  0  0
  -26.2395  -22.5151   19.3023 H   0  0  0  0  0  0
  -29.9398  -13.0637   23.4547 H   0  0  0  0  0  0
  -30.0173  -15.5740   22.2590 H   0  0  0  0  0  0
  1 25  1  0  0  0
  1 30  2  0  0  0
  1 85  1  0  0  0
  2  3  1  0  0  0
  2 25  1  0  0  0
  2 86  1  0  0  0
  2 87  1  0  0  0
  3  4  1  0  0  0
  3 88  1  0  0  0
  3 89  1  0  0  0
  4  5  1  0  0  0
  4 90  1  0  0  0
  4 91  1  0  0  0
  5  6  1  0  0  0
  5 26  1  0  0  0
  5 92  1  0  0  0
  6 25  1  0  0  0
  6 93  1  0  0  0
  6 94  1  0  0  0
  7  8  2  0  0  0
  7 26  1  0  0  0
  7 29  1  0  0  0
  8  9  1  0  0  0
  8 22  1  0  0  0
  9 10  1  0  0  0
  9 27  2  0  0  0
 10 11  2  0  0  0
 10 15  1  0  0  0
 11 12  1  0  0  0
 11 95  1  0  0  0
 12 13  2  0  0  0
 12 96  1  0  0  0
 13 14  1  0  0  0
 13 31  1  0  0  0
 14 15  2  0  0  0
 14 97  1  0  0  0
 15 98  1  0  0  0
 16 17  2  0  0  0
 16 21  1  0  0  0
 16 31  1  0  0  0
 17 18  1  0  0  0
 17 99  1  0  0  0
 18 19  2  0  0  0
 18100  1  0  0  0
 19 20  1  0  0  0
 19 24  1  0  0  0
 20 21  2  0  0  0
 20101  1  0  0  0
 21 23  1  0  0  0
 22 28  1  0  0  0
 22 32  2  0  0  0
 26 27  1  0  0  0
 28102  1  0  0  0
 28103  1  0  0  0
 29104  1  0  0  0
 29105  1  0  0  0
 33 34  1  0  0  0
 33 66  1  0  0  0
 33 70  2  0  0  0
 34 36  1  0  0  0
 34 59  1  0  0  0
 34106  1  0  0  0
 35 44  2  0  0  0
 35 45  1  0  0  0
 35 68  1  0  0  0
 36 56  1  0  0  0
 36107  1  0  0  0
 37 39  1  0  0  0
 37 47  1  0  0  0
 37 66  1  0  0  0
 37108  1  0  0  0
 38 43  2  0  0  0
 38 46  1  0  0  0
 38 47  1  0  0  0
 39 64  1  0  0  0
 39 67  2  0  0  0
 40 52  1  0  0  0
 40 53  2  0  0  0
 40 58  1  0  0  0
 41109  1  0  0  0
 41110  1  0  0  0
 41111  1  0  0  0
 41 48  1  0  0  0
 42 43  1  0  0  0
 42 66  1  0  0  0
 42112  1  0  0  0
 42113  1  0  0  0
 43 44  1  0  0  0
 44114  1  0  0  0
 45 46  2  0  0  0
 45115  1  0  0  0
 46116  1  0  0  0
 47117  1  0  0  0
 47118  1  0  0  0
 48 56  1  0  0  0
 48 65  1  0  0  0
 48119  1  0  0  0
 49 50  1  0  0  0
 49 53  1  0  0  0
 49 64  1  0  0  0
 49120  1  0  0  0
 50 51  1  0  0  0
 50121  1  0  0  0
 50122  1  0  0  0
 51 52  1  0  0  0
 51123  1  0  0  0
 51124  1  0  0  0
 52125  1  0  0  0
 52126  1  0  0  0
 53 54  1  0  0  0
 54 55  2  0  0  0
 54127  1  0  0  0
 55 57  1  0  0  0
 55128  1  0  0  0
 56 69  2  0  0  0
 57 58  2  0  0  0
 57129  1  0  0  0
 58130  1  0  0  0
 59 60  1  0  0  0
 59 61  1  0  0  0
 59 62  1  0  0  0
 60131  1  0  0  0
 60132  1  0  0  0
 60133  1  0  0  0
 61134  1  0  0  0
 61135  1  0  0  0
 61136  1  0  0  0
 62137  1  0  0  0
 62138  1  0  0  0
 62139  1  0  0  0
 63 65  1  0  0  0
 63140  1  0  0  0
 63141  1  0  0  0
 63142  1  0  0  0
 64143  1  0  0  0
 65144  1  0  0  0
 68 82  1  0  0  0
 71 72  2  0  0  0
 71 73  1  0  0  0
 71145  1  0  0  0
 72 74  1  0  0  0
 72146  1  0  0  0
 73 75  2  0  0  0
 73 78  1  0  0  0
 74 79  1  0  0  0
 74 84  2  0  0  0
 75 80  1  0  0  0
 75 84  1  0  0  0
 76 78  1  0  0  0
 76147  1  0  0  0
 76148  1  0  0  0
 76149  1  0  0  0
 77150  1  0  0  0
 77151  1  0  0  0
 77152  1  0  0  0
 77 83  1  0  0  0
 78153  1  0  0  0
 78154  1  0  0  0
 79 81  1  0  0  0
 79155  1  0  0  0
 79156  1  0  0  0
 80 83  1  0  0  0
 80157  1  0  0  0
 80158  1  0  0  0
 81 82  1  0  0  0
 81159  1  0  0  0
 81160  1  0  0  0
 82161  1  0  0  0
 82162  1  0  0  0
 83 85  1  0  0  0
 83163  1  0  0  0
 85164  1  0  0  0
M  ISO  4   1 100  68 101  82 101  85 100
M  END
> <chiral flag>
0

> <version>
0

> <s_m_source_file>
/data/baiqing/PycharmProjects/Reinvent-master-3.2/result/LINK_invent/BTK/process_docking_weight1_custom_sum_contain_oxygen_bond_distance_aromatic_linkinvent_7_9_3/rearranged_h_0078.sdf

> <i_m_source_file_index>
70

> <r_mmod_Potential_Energy-OPLS-2005>
22984.89453125

> <r_mmod_Stretch_Energy-OPLS-2005>
13311.8408203125

> <r_mmod_Bend_Energy-OPLS-2005>
2626.70166015625

> <r_mmod_Torsional_Energy-OPLS-2005>
457.181671142578

> <r_mmod_Improper_Torsional_Energy-OPLS-2005>
49.1439399719238

> <r_mmod_Van_der_Waal_Energy-OPLS-2005>
4377.705078125

> <r_mmod_Electrostatic_Energy-OPLS-2005>
-396.747894287109

> <r_mmod_Solvation_Energy-OPLS-2005>
-235.15119934082

> <b_mmod_Minimization_Converged-OPLS-2005>
0

> <r_mmod_RMS_Derivative-OPLS-2005>
28.5698089599609

$$$$
70
                    3D
 Structure written by MMmdl.
172180  0  0  1  0            999 V2000
  -30.6615  -14.5436   20.5435 C   0  0  0  0  0  0
  -30.4288  -12.3510   19.4122 C   0  0  0  0  0  0
  -29.4887  -12.5017   18.1992 C   0  0  0  0  0  0
  -28.0124  -12.3540   18.6209 C   0  0  0  0  0  0
  -27.6531  -13.2080   19.8663 C   0  0  2  0  0  0
  -28.7019  -13.0202   20.9812 C   0  0  0  0  0  0
  -25.2580  -13.8174   20.5678 C   0  0  0  0  0  0
  -24.1837  -13.0450   20.9197 C   0  0  0  0  0  0
  -24.6391  -11.6918   20.8768 C   0  0  0  0  0  0
  -23.9056  -10.4298   21.0420 C   0  0  0  0  0  0
  -24.3612   -9.4198   21.9183 C   0  0  0  0  0  0
  -23.6288   -8.2237   22.0742 C   0  0  0  0  0  0
  -22.4267   -8.0283   21.3536 C   0  0  0  0  0  0
  -21.9909   -9.0252   20.4642 C   0  0  0  0  0  0
  -22.7228  -10.2137   20.3054 C   0  0  0  0  0  0
  -21.6853   -6.0730   22.5268 C   0  0  0  0  0  0
  -21.4018   -6.5636   23.8198 C   0  0  0  0  0  0
  -21.3656   -5.6786   24.9163 C   0  0  0  0  0  0
  -21.6047   -4.3050   24.7208 C   0  0  0  0  0  0
  -21.8821   -3.8142   23.4333 C   0  0  0  0  0  0
  -21.9197   -4.6967   22.3391 C   0  0  0  0  0  0
  -22.7863  -13.5258   21.1864 C   0  0  0  0  0  0
  -22.1667   -4.2152   21.0967 F   0  0  0  0  0  0
  -21.5626   -3.4532   25.7723 F   0  0  0  0  0  0
  -30.0121  -13.3537   20.4032 N   0  0  0  0  0  0
  -26.2992  -12.9326   20.3350 N   0  0  0  0  0  0
  -25.9310  -11.6489   20.5775 N   0  0  0  0  0  0
  -22.0521  -12.8228   22.0423 N   0  0  0  0  0  0
  -25.4388  -15.1870   20.4034 N   0  0  0  0  0  0
  -31.8418  -14.6886   20.2231 O   0  0  0  0  0  0
  -21.6631   -6.8878   21.4229 O   0  0  0  0  0  0
  -22.3541  -14.5549   20.6710 O   0  0  0  0  0  0
  -24.6155  -31.8632   23.2120 C   0  0  0  0  0  0
  -25.9026  -32.4809   23.8402 C   0  0  1  0  0  0
  -27.2226  -27.4009   20.1049 C   0  0  0  0  0  0
  -25.5866  -33.8608   24.2329 N   0  0  0  0  0  0
  -23.4062  -30.4879   21.5537 C   0  0  2  0  0  0
  -24.8516  -28.9558   20.1102 C   0  0  0  0  0  0
  -22.7432  -29.4610   22.4986 C   0  0  0  0  0  0
  -18.0271  -28.1347   22.8484 C   0  0  0  0  0  0
  -24.1496  -36.7329   23.2648 C   0  0  0  0  0  0
  -25.9391  -30.8247   21.3655 C   0  0  0  0  0  0
  -26.0159  -29.4563   20.7101 C   0  0  0  0  0  0
  -27.2075  -28.6862   20.7037 C   0  0  0  0  0  0
  -26.0453  -26.9290   19.4877 C   0  0  0  0  0  0
  -24.8629  -27.6915   19.4961 C   0  0  0  0  0  0
  -23.6142  -29.8272   20.1645 C   0  0  0  0  0  0
  -25.4122  -36.3121   24.0336 C   0  0  1  0  0  0
  -20.5881  -28.3623   23.1336 C   0  0  2  0  0  0
  -20.6771  -26.9338   22.5463 C   0  0  0  0  0  0
  -19.5752  -26.6352   21.5237 C   0  0  0  0  0  0
  -18.1908  -26.7894   22.1617 C   0  0  0  0  0  0
  -19.1528  -28.8793   23.2889 C   0  0  0  0  0  0
  -18.9454  -30.1412   23.8874 C   0  0  0  0  0  0
  -17.6453  -30.6547   24.0548 C   0  0  0  0  0  0
  -25.9039  -34.9462   23.5145 C   0  0  0  0  0  0
  -16.5338  -29.9051   23.6327 C   0  0  0  0  0  0
  -16.7257  -28.6482   23.0333 C   0  0  0  0  0  0
  -26.4442  -31.6592   25.0734 C   0  0  0  0  0  0
  -25.3701  -31.3693   26.1487 C   0  0  0  0  0  0
  -27.0275  -30.3033   24.6111 C   0  0  0  0  0  0
  -27.6030  -32.4307   25.7483 C   0  0  0  0  0  0
  -27.5589  -37.1808   24.8461 C   0  0  0  0  0  0
  -21.4162  -29.2976   22.3729 N   0  0  0  0  0  0
  -26.4322  -37.3794   23.9382 N   0  0  0  0  0  0
  -24.6722  -31.0743   22.1007 N   0  0  0  0  0  0
  -23.4185  -28.8132   23.3022 O   0  0  0  0  0  0
  -28.3462  -26.5929   20.1218 O   0  0  0  0  0  0
  -26.5645  -34.8900   22.4734 O   0  0  0  0  0  0
  -23.5345  -32.1397   23.7496 O   0  0  0  0  0  0
  -29.3723  -21.0306   19.4090 C   0  0  0  0  0  0
  -29.9033  -19.7258   19.5095 C   0  0  0  0  0  0
  -28.8891  -21.3900   20.6268 C   0  0  0  0  0  0
  -29.8563  -19.2901   20.8124 C   0  0  0  0  0  0
  -31.6383  -18.6761   22.4891 C   0  0  0  0  0  0
  -31.8470  -17.7897   20.2509 C   0  0  0  0  0  0
  -26.9154  -20.7996   22.7944 C   0  0  0  0  0  0
  -29.1737  -20.9816   23.9072 C   0  0  0  0  0  0
  -28.1310  -18.7844   23.3792 C   0  0  0  0  0  0
  -28.2806  -22.7552   20.9866 C   0  0  0  0  0  0
  -28.6251  -24.0271   20.1376 C   0  0  0  0  0  0
  -30.2113  -16.7069   21.8222 C   0  0  0  0  0  0
  -28.1823  -25.3472   20.8510 C   0  0  0  0  0  0
  -30.7804  -18.1185   21.3313 C   0  0  0  0  0  0
  -28.3570  -20.2061   22.8479 C   0  0  0  0  0  0
  -29.0002  -20.2458   21.4832 N   0  0  0  0  0  0
  -29.8773  -15.5885   20.9082 N   0  0  0  0  0  0
  -31.4677  -12.4761   19.1030 H   0  0  0  0  0  0
  -30.3619  -11.3475   19.8335 H   0  0  0  0  0  0
  -29.7357  -11.7645   17.4341 H   0  0  0  0  0  0
  -29.6386  -13.4796   17.7392 H   0  0  0  0  0  0
  -27.8329  -11.2995   18.8318 H   0  0  0  0  0  0
  -27.3546  -12.6110   17.7895 H   0  0  0  0  0  0
  -27.6872  -14.2498   19.5496 H   0  0  0  0  0  0
  -28.7009  -11.9864   21.3299 H   0  0  0  0  0  0
  -28.4662  -13.6273   21.8581 H   0  0  0  0  0  0
  -25.2766   -9.5669   22.4747 H   0  0  0  0  0  0
  -24.0004   -7.4617   22.7449 H   0  0  0  0  0  0
  -21.0842   -8.8765   19.8936 H   0  0  0  0  0  0
  -22.3691  -10.9675   19.6158 H   0  0  0  0  0  0
  -21.2010   -7.6145   23.9709 H   0  0  0  0  0  0
  -21.1482   -6.0512   25.9067 H   0  0  0  0  0  0
  -22.0612   -2.7610   23.2819 H   0  0  0  0  0  0
  -22.4134  -11.9867   22.4752 H   0  0  0  0  0  0
  -21.1139  -13.1232   22.2666 H   0  0  0  0  0  0
  -24.6829  -15.8568   20.5013 H   0  0  0  0  0  0
  -26.2868  -15.6037   20.0410 H   0  0  0  0  0  0
  -26.7079  -32.5504   23.1163 H   0  0  0  0  0  0
  -24.9946  -33.9791   25.0425 H   0  0  0  0  0  0
  -22.6940  -31.3046   21.4170 H   0  0  0  0  0  0
  -23.3746  -35.9667   23.3325 H   0  0  0  0  0  0
  -24.3607  -36.8946   22.2066 H   0  0  0  0  0  0
  -23.7239  -37.6522   23.6663 H   0  0  0  0  0  0
  -26.0634  -31.5940   20.6012 H   0  0  0  0  0  0
  -26.8233  -30.8741   21.9894 H   0  0  0  0  0  0
  -28.1023  -29.0605   21.1808 H   0  0  0  0  0  0
  -26.0416  -25.9603   19.0092 H   0  0  0  0  0  0
  -23.9678  -27.3026   19.0292 H   0  0  0  0  0  0
  -23.7130  -30.6093   19.4103 H   0  0  0  0  0  0
  -22.7366  -29.2503   19.8704 H   0  0  0  0  0  0
  -25.1283  -36.2022   25.0825 H   0  0  0  0  0  0
  -20.9959  -28.3178   24.1467 H   0  0  0  0  0  0
  -20.5707  -26.2167   23.3622 H   0  0  0  0  0  0
  -21.6624  -26.7407   22.1199 H   0  0  0  0  0  0
  -19.6926  -25.6282   21.1211 H   0  0  0  0  0  0
  -19.6735  -27.3216   20.6798 H   0  0  0  0  0  0
  -17.4206  -26.6666   21.3988 H   0  0  0  0  0  0
  -18.0254  -26.0049   22.9018 H   0  0  0  0  0  0
  -19.7944  -30.7230   24.2228 H   0  0  0  0  0  0
  -17.5014  -31.6234   24.5144 H   0  0  0  0  0  0
  -15.5327  -30.2915   23.7690 H   0  0  0  0  0  0
  -15.8668  -28.0794   22.7021 H   0  0  0  0  0  0
  -24.5909  -30.6990   25.7857 H   0  0  0  0  0  0
  -24.8836  -32.2835   26.4891 H   0  0  0  0  0  0
  -25.8052  -30.8928   27.0282 H   0  0  0  0  0  0
  -26.2832  -29.6793   24.1144 H   0  0  0  0  0  0
  -27.4052  -29.7261   25.4560 H   0  0  0  0  0  0
  -27.8656  -30.4375   23.9249 H   0  0  0  0  0  0
  -27.2672  -33.3633   26.2039 H   0  0  0  0  0  0
  -28.3816  -32.6839   25.0268 H   0  0  0  0  0  0
  -28.0686  -31.8432   26.5399 H   0  0  0  0  0  0
  -28.2598  -38.0110   24.7501 H   0  0  0  0  0  0
  -28.1090  -36.2641   24.6291 H   0  0  0  0  0  0
  -27.2314  -37.1453   25.8868 H   0  0  0  0  0  0
  -20.9293  -29.8714   21.6998 H   0  0  0  0  0  0
  -26.0225  -38.2871   24.1377 H   0  0  0  0  0  0
  -29.3801  -21.6560   18.5264 H   0  0  0  0  0  0
  -30.4015  -19.2200   18.6955 H   0  0  0  0  0  0
  -32.0494  -19.6567   22.2408 H   0  0  0  0  0  0
  -32.4829  -18.0231   22.7223 H   0  0  0  0  0  0
  -31.0860  -18.7709   23.4140 H   0  0  0  0  0  0
  -32.3904  -18.6819   19.9323 H   0  0  0  0  0  0
  -31.4107  -17.3296   19.3640 H   0  0  0  0  0  0
  -32.6054  -17.0992   20.6227 H   0  0  0  0  0  0
  -26.2522  -20.4040   23.5639 H   0  0  0  0  0  0
  -26.4272  -20.5990   21.8395 H   0  0  0  0  0  0
  -26.8970  -21.8722   22.9797 H   0  0  0  0  0  0
  -28.6305  -21.0183   24.8530 H   0  0  0  0  0  0
  -29.3796  -22.0101   23.6274 H   0  0  0  0  0  0
  -30.1337  -20.5208   24.1181 H   0  0  0  0  0  0
  -27.4718  -18.7758   24.2477 H   0  0  0  0  0  0
  -29.0445  -18.3429   23.7561 H   0  0  0  0  0  0
  -27.6642  -18.1468   22.6298 H   0  0  0  0  0  0
  -28.5395  -23.0086   22.0081 H   0  0  0  0  0  0
  -27.1945  -22.6675   20.9542 H   0  0  0  0  0  0
  -29.6994  -24.0740   19.9595 H   0  0  0  0  0  0
  -28.1433  -23.9605   19.1614 H   0  0  0  0  0  0
  -29.3284  -16.8003   22.4336 H   0  0  0  0  0  0
  -30.9438  -16.2742   22.5081 H   0  0  0  0  0  0
  -28.7665  -25.4475   21.7667 H   0  0  0  0  0  0
  -27.1524  -25.2206   21.1901 H   0  0  0  0  0  0
  -28.8956  -15.3622   20.9069 H   0  0  0  0  0  0
  1 25  1  0  0  0
  1 30  2  0  0  0
  1 87  1  0  0  0
  2  3  1  0  0  0
  2 25  1  0  0  0
  2 88  1  0  0  0
  2 89  1  0  0  0
  3  4  1  0  0  0
  3 90  1  0  0  0
  3 91  1  0  0  0
  4  5  1  0  0  0
  4 92  1  0  0  0
  4 93  1  0  0  0
  5  6  1  0  0  0
  5 26  1  0  0  0
  5 94  1  0  0  0
  6 25  1  0  0  0
  6 95  1  0  0  0
  6 96  1  0  0  0
  7  8  2  0  0  0
  7 26  1  0  0  0
  7 29  1  0  0  0
  8  9  1  0  0  0
  8 22  1  0  0  0
  9 10  1  0  0  0
  9 27  2  0  0  0
 10 11  2  0  0  0
 10 15  1  0  0  0
 11 12  1  0  0  0
 11 97  1  0  0  0
 12 13  2  0  0  0
 12 98  1  0  0  0
 13 14  1  0  0  0
 13 31  1  0  0  0
 14 15  2  0  0  0
 14 99  1  0  0  0
 15100  1  0  0  0
 16 17  2  0  0  0
 16 21  1  0  0  0
 16 31  1  0  0  0
 17 18  1  0  0  0
 17101  1  0  0  0
 18 19  2  0  0  0
 18102  1  0  0  0
 19 20  1  0  0  0
 19 24  1  0  0  0
 20 21  2  0  0  0
 20103  1  0  0  0
 21 23  1  0  0  0
 22 28  1  0  0  0
 22 32  2  0  0  0
 26 27  1  0  0  0
 28104  1  0  0  0
 28105  1  0  0  0
 29106  1  0  0  0
 29107  1  0  0  0
 33 34  1  0  0  0
 33 66  1  0  0  0
 33 70  2  0  0  0
 34 36  1  0  0  0
 34 59  1  0  0  0
 34108  1  0  0  0
 35 44  2  0  0  0
 35 45  1  0  0  0
 35 68  1  0  0  0
 36 56  1  0  0  0
 36109  1  0  0  0
 37 39  1  0  0  0
 37 47  1  0  0  0
 37 66  1  0  0  0
 37110  1  0  0  0
 38 43  2  0  0  0
 38 46  1  0  0  0
 38 47  1  0  0  0
 39 64  1  0  0  0
 39 67  2  0  0  0
 40 52  1  0  0  0
 40 53  2  0  0  0
 40 58  1  0  0  0
 41111  1  0  0  0
 41112  1  0  0  0
 41113  1  0  0  0
 41 48  1  0  0  0
 42 43  1  0  0  0
 42 66  1  0  0  0
 42114  1  0  0  0
 42115  1  0  0  0
 43 44  1  0  0  0
 44116  1  0  0  0
 45 46  2  0  0  0
 45117  1  0  0  0
 46118  1  0  0  0
 47119  1  0  0  0
 47120  1  0  0  0
 48 56  1  0  0  0
 48 65  1  0  0  0
 48121  1  0  0  0
 49 50  1  0  0  0
 49 53  1  0  0  0
 49 64  1  0  0  0
 49122  1  0  0  0
 50 51  1  0  0  0
 50123  1  0  0  0
 50124  1  0  0  0
 51 52  1  0  0  0
 51125  1  0  0  0
 51126  1  0  0  0
 52127  1  0  0  0
 52128  1  0  0  0
 53 54  1  0  0  0
 54 55  2  0  0  0
 54129  1  0  0  0
 55 57  1  0  0  0
 55130  1  0  0  0
 56 69  2  0  0  0
 57 58  2  0  0  0
 57131  1  0  0  0
 58132  1  0  0  0
 59 60  1  0  0  0
 59 61  1  0  0  0
 59 62  1  0  0  0
 60133  1  0  0  0
 60134  1  0  0  0
 60135  1  0  0  0
 61136  1  0  0  0
 61137  1  0  0  0
 61138  1  0  0  0
 62139  1  0  0  0
 62140  1  0  0  0
 62141  1  0  0  0
 63 65  1  0  0  0
 63142  1  0  0  0
 63143  1  0  0  0
 63144  1  0  0  0
 64145  1  0  0  0
 65146  1  0  0  0
 68 83  1  0  0  0
 71 72  1  0  0  0
 71 73  2  0  0  0
 71147  1  0  0  0
 72 74  2  0  0  0
 72148  1  0  0  0
 73 80  1  0  0  0
 73 86  1  0  0  0
 74 84  1  0  0  0
 74 86  1  0  0  0
 75149  1  0  0  0
 75150  1  0  0  0
 75151  1  0  0  0
 75 84  1  0  0  0
 76 84  1  0  0  0
 76152  1  0  0  0
 76153  1  0  0  0
 76154  1  0  0  0
 77155  1  0  0  0
 77156  1  0  0  0
 77157  1  0  0  0
 77 85  1  0  0  0
 78 85  1  0  0  0
 78158  1  0  0  0
 78159  1  0  0  0
 78160  1  0  0  0
 79 85  1  0  0  0
 79161  1  0  0  0
 79162  1  0  0  0
 79163  1  0  0  0
 80 81  1  0  0  0
 80164  1  0  0  0
 80165  1  0  0  0
 81 83  1  0  0  0
 81166  1  0  0  0
 81167  1  0  0  0
 82 84  1  0  0  0
 82 87  1  0  0  0
 82168  1  0  0  0
 82169  1  0  0  0
 83170  1  0  0  0
 83171  1  0  0  0
 85 86  1  0  0  0
 87172  1  0  0  0
M  ISO  4   1 100  68 101  83 101  87 100
M  END
> <chiral flag>
0

> <version>
0

> <s_m_source_file>
/data/baiqing/PycharmProjects/Reinvent-master-3.2/result/LINK_invent/BTK/process_docking_weight1_custom_sum_contain_oxygen_bond_distance_aromatic_linkinvent_7_9_3/rearranged_h_0078.sdf

> <i_m_source_file_index>
71

> <r_mmod_Potential_Energy-OPLS-2005>
104.848289489746

> <r_mmod_Stretch_Energy-OPLS-2005>
79.4433364868164

> <r_mmod_Bend_Energy-OPLS-2005>
189.624923706055

> <r_mmod_Torsional_Energy-OPLS-2005>
335.699005126953

> <r_mmod_Improper_Torsional_Energy-OPLS-2005>
6.74567556381226

> <r_mmod_Van_der_Waal_Energy-OPLS-2005>
159.542877197266

> <r_mmod_Electrostatic_Energy-OPLS-2005>
-498.416900634766

> <r_mmod_Solvation_Energy-OPLS-2005>
-193.503494262695

> <b_mmod_Minimization_Converged-OPLS-2005>
0

> <r_mmod_RMS_Derivative-OPLS-2005>
3.8411180973053

$$$$
71
                    3D
 Structure written by MMmdl.
153161  0  0  1  0            999 V2000
  -30.5186  -14.9612   20.4136 C   0  0  0  0  0  0
  -30.4404  -12.5932   19.5062 C   0  0  0  0  0  0
  -29.5254  -12.5429   18.2595 C   0  0  0  0  0  0
  -28.0570  -12.3261   18.6696 C   0  0  0  0  0  0
  -27.6319  -13.2490   19.8419 C   0  0  2  0  0  0
  -28.6713  -13.2702   20.9829 C   0  0  0  0  0  0
  -25.2459  -13.8223   20.5666 C   0  0  0  0  0  0
  -24.1785  -13.0446   20.9214 C   0  0  0  0  0  0
  -24.6398  -11.6930   20.8726 C   0  0  0  0  0  0
  -23.9079  -10.4302   21.0392 C   0  0  0  0  0  0
  -24.3628   -9.4215   21.9170 C   0  0  0  0  0  0
  -23.6301   -8.2257   22.0746 C   0  0  0  0  0  0
  -22.4283   -8.0288   21.3543 C   0  0  0  0  0  0
  -21.9912   -9.0256   20.4644 C   0  0  0  0  0  0
  -22.7240  -10.2134   20.3053 C   0  0  0  0  0  0
  -21.6865   -6.0730   22.5270 C   0  0  0  0  0  0
  -21.4023   -6.5634   23.8197 C   0  0  0  0  0  0
  -21.3668   -5.6788   24.9163 C   0  0  0  0  0  0
  -21.6052   -4.3052   24.7214 C   0  0  0  0  0  0
  -21.8825   -3.8141   23.4335 C   0  0  0  0  0  0
  -21.9202   -4.6959   22.3389 C   0  0  0  0  0  0
  -22.7808  -13.5212   21.1870 C   0  0  0  0  0  0
  -22.1666   -4.2142   21.0968 F   0  0  0  0  0  0
  -21.5627   -3.4533   25.7729 F   0  0  0  0  0  0
  -29.9468  -13.6880   20.3908 N   0  0  0  0  0  0
  -26.2897  -12.9453   20.3231 N   0  0  0  0  0  0
  -25.9335  -11.6579   20.5716 N   0  0  0  0  0  0
  -22.0472  -12.8202   22.0440 N   0  0  0  0  0  0
  -25.4126  -15.1950   20.4034 N   0  0  0  0  0  0
  -31.7133  -15.0424   20.1079 O   0  0  0  0  0  0
  -21.6657   -6.8875   21.4235 O   0  0  0  0  0  0
  -22.3475  -14.5504   20.6700 O   0  0  0  0  0  0
  -24.6449  -31.8428   23.1874 C   0  0  0  0  0  0
  -25.9214  -32.4685   23.8269 C   0  0  1  0  0  0
  -27.2133  -27.1110   20.1523 C   0  0  0  0  0  0
  -25.5958  -33.8495   24.2180 N   0  0  0  0  0  0
  -23.4500  -30.4616   21.5324 C   0  0  2  0  0  0
  -24.9002  -28.8874   20.1066 C   0  0  0  0  0  0
  -22.7578  -29.4542   22.4850 C   0  0  0  0  0  0
  -18.0303  -28.1408   22.8487 C   0  0  0  0  0  0
  -24.1492  -36.7248   23.2641 C   0  0  0  0  0  0
  -26.0072  -30.7064   21.3941 C   0  0  0  0  0  0
  -26.0758  -29.3169   20.7335 C   0  0  0  0  0  0
  -27.2294  -28.4425   20.7429 C   0  0  0  0  0  0
  -26.0178  -26.8016   19.4645 C   0  0  0  0  0  0
  -24.8863  -27.6455   19.4562 C   0  0  0  0  0  0
  -23.6785  -29.7921   20.1515 C   0  0  0  0  0  0
  -25.4127  -36.3025   24.0313 C   0  0  1  0  0  0
  -20.5921  -28.3740   23.1240 C   0  0  2  0  0  0
  -20.6795  -26.9444   22.5415 C   0  0  0  0  0  0
  -19.5765  -26.6389   21.5230 C   0  0  0  0  0  0
  -18.1945  -26.7948   22.1634 C   0  0  0  0  0  0
  -19.1561  -28.8891   23.2855 C   0  0  0  0  0  0
  -18.9474  -30.1483   23.8891 C   0  0  0  0  0  0
  -17.6468  -30.6606   24.0565 C   0  0  0  0  0  0
  -25.9085  -34.9401   23.5058 C   0  0  0  0  0  0
  -16.5359  -29.9099   23.6339 C   0  0  0  0  0  0
  -16.7283  -28.6511   23.0371 C   0  0  0  0  0  0
  -26.4526  -31.6563   25.0724 C   0  0  0  0  0  0
  -25.3689  -31.3772   26.1404 C   0  0  0  0  0  0
  -27.0390  -30.2944   24.6344 C   0  0  0  0  0  0
  -27.6050  -32.4336   25.7511 C   0  0  0  0  0  0
  -27.5578  -37.1782   24.8459 C   0  0  0  0  0  0
  -21.4269  -29.3054   22.3599 N   0  0  0  0  0  0
  -26.4284  -37.3741   23.9408 N   0  0  0  0  0  0
  -24.7200  -31.0263   22.0925 N   0  0  0  0  0  0
  -23.4211  -28.8099   23.3013 O   0  0  0  0  0  0
  -28.2604  -26.1147   20.2672 O   0  0  0  0  0  0
  -26.5671  -34.8894   22.4639 O   0  0  0  0  0  0
  -23.5563  -32.1313   23.7077 O   0  0  0  0  0  0
  -28.7464  -18.4371   22.3639 C   0  0  0  0  0  0
  -28.2482  -20.5081   22.2725 C   0  0  0  0  0  0
  -29.1729  -18.8409   21.1165 C   0  0  0  0  0  0
  -29.4741  -17.8630   18.7412 C   0  0  0  0  0  0
  -28.7205  -23.2255   20.6920 C   0  0  0  0  0  0
  -28.8501  -21.6064   20.1279 C   0  0  0  0  0  0
  -28.1452  -24.5975   19.8710 C   0  0  0  0  0  0
  -29.8702  -17.6758   20.2107 C   0  0  2  0  0  0
  -28.1673  -19.4657   23.0798 N   0  0  0  0  0  0
  -28.8336  -20.3276   21.0719 N   0  0  0  0  0  0
  -29.7094  -16.1265   20.5635 N   0  0  0  0  0  0
  -31.4750  -12.7511   19.2007 H   0  0  0  0  0  0
  -30.4266  -11.6375   20.0321 H   0  0  0  0  0  0
  -29.8455  -11.7483   17.5840 H   0  0  0  0  0  0
  -29.6174  -13.4768   17.7020 H   0  0  0  0  0  0
  -27.9486  -11.2814   18.9623 H   0  0  0  0  0  0
  -27.3984  -12.4727   17.8122 H   0  0  0  0  0  0
  -27.5960  -14.2545   19.4212 H   0  0  0  0  0  0
  -28.7619  -12.2908   21.4542 H   0  0  0  0  0  0
  -28.3665  -13.9657   21.7666 H   0  0  0  0  0  0
  -25.2770   -9.5694   22.4750 H   0  0  0  0  0  0
  -24.0010   -7.4650   22.7468 H   0  0  0  0  0  0
  -21.0841   -8.8781   19.8951 H   0  0  0  0  0  0
  -22.3692  -10.9677   19.6179 H   0  0  0  0  0  0
  -21.2016   -7.6141   23.9694 H   0  0  0  0  0  0
  -21.1487   -6.0519   25.9061 H   0  0  0  0  0  0
  -22.0600   -2.7604   23.2836 H   0  0  0  0  0  0
  -22.4085  -11.9868   22.4848 H   0  0  0  0  0  0
  -21.1084  -13.1221   22.2648 H   0  0  0  0  0  0
  -24.6392  -15.8438   20.5006 H   0  0  0  0  0  0
  -26.2429  -15.6290   20.0230 H   0  0  0  0  0  0
  -26.7275  -32.5278   23.0992 H   0  0  0  0  0  0
  -25.0055  -33.9613   25.0291 H   0  0  0  0  0  0
  -22.7528  -31.2881   21.3769 H   0  0  0  0  0  0
  -23.3767  -35.9566   23.3282 H   0  0  0  0  0  0
  -24.3573  -36.8906   22.2059 H   0  0  0  0  0  0
  -23.7233  -37.6428   23.6695 H   0  0  0  0  0  0
  -26.1715  -31.4634   20.6262 H   0  0  0  0  0  0
  -26.8741  -30.7530   22.0415 H   0  0  0  0  0  0
  -28.1199  -28.7638   21.2637 H   0  0  0  0  0  0
  -25.9104  -25.8684   18.9363 H   0  0  0  0  0  0
  -23.9917  -27.3211   18.9422 H   0  0  0  0  0  0
  -23.8164  -30.5663   19.3966 H   0  0  0  0  0  0
  -22.7935  -29.2347   19.8398 H   0  0  0  0  0  0
  -25.1319  -36.1848   25.0804 H   0  0  0  0  0  0
  -21.0005  -28.3333   24.1365 H   0  0  0  0  0  0
  -20.5712  -26.2356   23.3638 H   0  0  0  0  0  0
  -21.6656  -26.7467   22.1198 H   0  0  0  0  0  0
  -19.6934  -25.6293   21.1286 H   0  0  0  0  0  0
  -19.6705  -27.3180   20.6746 H   0  0  0  0  0  0
  -17.4222  -26.6701   21.4028 H   0  0  0  0  0  0
  -18.0330  -26.0091   22.9027 H   0  0  0  0  0  0
  -19.7944  -30.7301   24.2270 H   0  0  0  0  0  0
  -17.5018  -31.6291   24.5159 H   0  0  0  0  0  0
  -15.5360  -30.3002   23.7667 H   0  0  0  0  0  0
  -15.8679  -28.0818   22.7115 H   0  0  0  0  0  0
  -24.5875  -30.7124   25.7704 H   0  0  0  0  0  0
  -24.8880  -32.2966   26.4748 H   0  0  0  0  0  0
  -25.7948  -30.8980   27.0230 H   0  0  0  0  0  0
  -26.3015  -29.6663   24.1335 H   0  0  0  0  0  0
  -27.3948  -29.7251   25.4943 H   0  0  0  0  0  0
  -27.8949  -30.4145   23.9702 H   0  0  0  0  0  0
  -27.2632  -33.3646   26.2039 H   0  0  0  0  0  0
  -28.3886  -32.6886   25.0364 H   0  0  0  0  0  0
  -28.0694  -31.8503   26.5470 H   0  0  0  0  0  0
  -28.2576  -38.0095   24.7525 H   0  0  0  0  0  0
  -28.1100  -36.2632   24.6268 H   0  0  0  0  0  0
  -27.2304  -37.1397   25.8861 H   0  0  0  0  0  0
  -20.9490  -29.8731   21.6742 H   0  0  0  0  0  0
  -26.0155  -38.2807   24.1415 H   0  0  0  0  0  0
  -28.8086  -17.4509   22.8052 H   0  0  0  0  0  0
  -27.8298  -21.4476   22.5947 H   0  0  0  0  0  0
  -29.7482  -18.8569   18.3868 H   0  0  0  0  0  0
  -28.3987  -17.7521   18.6062 H   0  0  0  0  0  0
  -29.9697  -17.1347   18.0986 H   0  0  0  0  0  0
  -29.7159  -23.4829   21.0538 H   0  0  0  0  0  0
  -28.1096  -23.2182   21.5901 H   0  0  0  0  0  0
  -29.7427  -21.5355   19.5065 H   0  0  0  0  0  0
  -28.0238  -21.4552   19.4339 H   0  0  0  0  0  0
  -27.0939  -24.3693   19.7159 H   0  0  0  0  0  0
  -28.5814  -24.5546   18.8722 H   0  0  0  0  0  0
  -30.9453  -17.8503   20.2696 H   0  0  0  0  0  0
  -28.7648  -15.8858   20.8218 H   0  0  0  0  0  0
  1 25  1  0  0  0
  1 30  2  0  0  0
  1 81  1  0  0  0
  2  3  1  0  0  0
  2 25  1  0  0  0
  2 82  1  0  0  0
  2 83  1  0  0  0
  3  4  1  0  0  0
  3 84  1  0  0  0
  3 85  1  0  0  0
  4  5  1  0  0  0
  4 86  1  0  0  0
  4 87  1  0  0  0
  5  6  1  0  0  0
  5 26  1  0  0  0
  5 88  1  0  0  0
  6 25  1  0  0  0
  6 89  1  0  0  0
  6 90  1  0  0  0
  7  8  2  0  0  0
  7 26  1  0  0  0
  7 29  1  0  0  0
  8  9  1  0  0  0
  8 22  1  0  0  0
  9 10  1  0  0  0
  9 27  2  0  0  0
 10 11  2  0  0  0
 10 15  1  0  0  0
 11 12  1  0  0  0
 11 91  1  0  0  0
 12 13  2  0  0  0
 12 92  1  0  0  0
 13 14  1  0  0  0
 13 31  1  0  0  0
 14 15  2  0  0  0
 14 93  1  0  0  0
 15 94  1  0  0  0
 16 17  2  0  0  0
 16 21  1  0  0  0
 16 31  1  0  0  0
 17 18  1  0  0  0
 17 95  1  0  0  0
 18 19  2  0  0  0
 18 96  1  0  0  0
 19 20  1  0  0  0
 19 24  1  0  0  0
 20 21  2  0  0  0
 20 97  1  0  0  0
 21 23  1  0  0  0
 22 28  1  0  0  0
 22 32  2  0  0  0
 26 27  1  0  0  0
 28 98  1  0  0  0
 28 99  1  0  0  0
 29100  1  0  0  0
 29101  1  0  0  0
 33 34  1  0  0  0
 33 66  1  0  0  0
 33 70  2  0  0  0
 34 36  1  0  0  0
 34 59  1  0  0  0
 34102  1  0  0  0
 35 44  2  0  0  0
 35 45  1  0  0  0
 35 68  1  0  0  0
 36 56  1  0  0  0
 36103  1  0  0  0
 37 39  1  0  0  0
 37 47  1  0  0  0
 37 66  1  0  0  0
 37104  1  0  0  0
 38 43  2  0  0  0
 38 46  1  0  0  0
 38 47  1  0  0  0
 39 64  1  0  0  0
 39 67  2  0  0  0
 40 52  1  0  0  0
 40 53  2  0  0  0
 40 58  1  0  0  0
 41105  1  0  0  0
 41106  1  0  0  0
 41107  1  0  0  0
 41 48  1  0  0  0
 42 43  1  0  0  0
 42 66  1  0  0  0
 42108  1  0  0  0
 42109  1  0  0  0
 43 44  1  0  0  0
 44110  1  0  0  0
 45 46  2  0  0  0
 45111  1  0  0  0
 46112  1  0  0  0
 47113  1  0  0  0
 47114  1  0  0  0
 48 56  1  0  0  0
 48 65  1  0  0  0
 48115  1  0  0  0
 49 50  1  0  0  0
 49 53  1  0  0  0
 49 64  1  0  0  0
 49116  1  0  0  0
 50 51  1  0  0  0
 50117  1  0  0  0
 50118  1  0  0  0
 51 52  1  0  0  0
 51119  1  0  0  0
 51120  1  0  0  0
 52121  1  0  0  0
 52122  1  0  0  0
 53 54  1  0  0  0
 54 55  2  0  0  0
 54123  1  0  0  0
 55 57  1  0  0  0
 55124  1  0  0  0
 56 69  2  0  0  0
 57 58  2  0  0  0
 57125  1  0  0  0
 58126  1  0  0  0
 59 60  1  0  0  0
 59 61  1  0  0  0
 59 62  1  0  0  0
 60127  1  0  0  0
 60128  1  0  0  0
 60129  1  0  0  0
 61130  1  0  0  0
 61131  1  0  0  0
 61132  1  0  0  0
 62133  1  0  0  0
 62134  1  0  0  0
 62135  1  0  0  0
 63 65  1  0  0  0
 63136  1  0  0  0
 63137  1  0  0  0
 63138  1  0  0  0
 64139  1  0  0  0
 65140  1  0  0  0
 68 77  1  0  0  0
 71 73  2  0  0  0
 71 79  1  0  0  0
 71141  1  0  0  0
 72 79  2  0  0  0
 72 80  1  0  0  0
 72142  1  0  0  0
 73 78  1  0  0  0
 73 80  1  0  0  0
 74143  1  0  0  0
 74144  1  0  0  0
 74145  1  0  0  0
 74 78  1  0  0  0
 75 76  1  0  0  0
 75 77  1  0  0  0
 75146  1  0  0  0
 75147  1  0  0  0
 76 80  1  0  0  0
 76148  1  0  0  0
 76149  1  0  0  0
 77150  1  0  0  0
 77151  1  0  0  0
 78 81  1  0  0  0
 78152  1  0  0  0
 81153  1  0  0  0
M  ISO  4   1 100  68 101  77 101  81 100
M  END
> <chiral flag>
0

> <version>
0

> <s_m_source_file>
/data/baiqing/PycharmProjects/Reinvent-master-3.2/result/LINK_invent/BTK/process_docking_weight1_custom_sum_contain_oxygen_bond_distance_aromatic_linkinvent_7_9_3/rearranged_h_0078.sdf

> <i_m_source_file_index>
72

> <r_mmod_Potential_Energy-OPLS-2005>
589.152893066406

> <r_mmod_Stretch_Energy-OPLS-2005>
314.368133544922

> <r_mmod_Bend_Energy-OPLS-2005>
318.603607177734

> <r_mmod_Torsional_Energy-OPLS-2005>
218.148315429688

> <r_mmod_Improper_Torsional_Energy-OPLS-2005>
5.65669536590576

> <r_mmod_Van_der_Waal_Energy-OPLS-2005>
111.586151123047

> <r_mmod_Electrostatic_Energy-OPLS-2005>
-359.997375488281

> <r_mmod_Solvation_Energy-OPLS-2005>
-228.487487792969

> <b_mmod_Minimization_Converged-OPLS-2005>
0

> <r_mmod_RMS_Derivative-OPLS-2005>
2.05469727516174

$$$$
72
                    3D
 Structure written by MMmdl.
162170  0  0  1  0            999 V2000
  -30.6886  -14.5494   20.5207 C   0  0  0  0  0  0
  -30.4238  -12.3332   19.4708 C   0  0  0  0  0  0
  -29.5123  -12.5067   18.2348 C   0  0  0  0  0  0
  -28.0283  -12.3724   18.6318 C   0  0  0  0  0  0
  -27.6585  -13.2247   19.8760 C   0  0  2  0  0  0
  -28.7002  -13.0647   21.0128 C   0  0  0  0  0  0
  -25.2503  -13.8221   20.5655 C   0  0  0  0  0  0
  -24.1781  -13.0465   20.9133 C   0  0  0  0  0  0
  -24.6386  -11.6945   20.8712 C   0  0  0  0  0  0
  -23.9061  -10.4306   21.0409 C   0  0  0  0  0  0
  -24.3619   -9.4224   21.9190 C   0  0  0  0  0  0
  -23.6273   -8.2277   22.0774 C   0  0  0  0  0  0
  -22.4253   -8.0303   21.3581 C   0  0  0  0  0  0
  -21.9889   -9.0280   20.4680 C   0  0  0  0  0  0
  -22.7233  -10.2156   20.3070 C   0  0  0  0  0  0
  -21.6841   -6.0723   22.5278 C   0  0  0  0  0  0
  -21.4022   -6.5630   23.8216 C   0  0  0  0  0  0
  -21.3676   -5.6792   24.9172 C   0  0  0  0  0  0
  -21.6037   -4.3056   24.7212 C   0  0  0  0  0  0
  -21.8804   -3.8138   23.4325 C   0  0  0  0  0  0
  -21.9171   -4.6960   22.3393 C   0  0  0  0  0  0
  -22.7779  -13.5258   21.1790 C   0  0  0  0  0  0
  -22.1635   -4.2142   21.0961 F   0  0  0  0  0  0
  -21.5634   -3.4542   25.7732 F   0  0  0  0  0  0
  -30.0316  -13.3570   20.4584 N   0  0  0  0  0  0
  -26.2991  -12.9431   20.3360 N   0  0  0  0  0  0
  -25.9335  -11.6579   20.5787 N   0  0  0  0  0  0
  -22.0410  -12.8299   22.0383 N   0  0  0  0  0  0
  -25.4143  -15.1944   20.4083 N   0  0  0  0  0  0
  -31.8312  -14.6904   20.0754 O   0  0  0  0  0  0
  -21.6641   -6.8896   21.4251 O   0  0  0  0  0  0
  -22.3471  -14.5569   20.6635 O   0  0  0  0  0  0
  -24.6208  -31.8638   23.2064 C   0  0  0  0  0  0
  -25.9063  -32.4789   23.8379 C   0  0  1  0  0  0
  -27.2205  -27.3723   20.0982 C   0  0  0  0  0  0
  -25.5884  -33.8595   24.2285 N   0  0  0  0  0  0
  -23.4096  -30.4882   21.5501 C   0  0  2  0  0  0
  -24.8497  -28.9494   20.1119 C   0  0  0  0  0  0
  -22.7436  -29.4637   22.4993 C   0  0  0  0  0  0
  -18.0269  -28.1380   22.8492 C   0  0  0  0  0  0
  -24.1472  -36.7318   23.2636 C   0  0  0  0  0  0
  -25.9422  -30.8099   21.3658 C   0  0  0  0  0  0
  -26.0144  -29.4397   20.7146 C   0  0  0  0  0  0
  -27.1984  -28.6578   20.7040 C   0  0  0  0  0  0
  -26.0358  -26.9270   19.4627 C   0  0  0  0  0  0
  -24.8570  -27.6956   19.4858 C   0  0  0  0  0  0
  -23.6170  -29.8238   20.1650 C   0  0  0  0  0  0
  -25.4090  -36.3094   24.0326 C   0  0  1  0  0  0
  -20.5861  -28.3668   23.1301 C   0  0  2  0  0  0
  -20.6747  -26.9405   22.5418 C   0  0  0  0  0  0
  -19.5727  -26.6391   21.5211 C   0  0  0  0  0  0
  -18.1909  -26.7932   22.1620 C   0  0  0  0  0  0
  -19.1532  -28.8844   23.2889 C   0  0  0  0  0  0
  -18.9462  -30.1446   23.8919 C   0  0  0  0  0  0
  -17.6473  -30.6575   24.0578 C   0  0  0  0  0  0
  -25.9032  -34.9457   23.5105 C   0  0  0  0  0  0
  -16.5359  -29.9083   23.6337 C   0  0  0  0  0  0
  -16.7265  -28.6495   23.0366 C   0  0  0  0  0  0
  -26.4465  -31.6593   25.0736 C   0  0  0  0  0  0
  -25.3722  -31.3749   26.1484 C   0  0  0  0  0  0
  -27.0284  -30.3021   24.6137 C   0  0  0  0  0  0
  -27.6041  -32.4326   25.7499 C   0  0  0  0  0  0
  -27.5563  -37.1799   24.8454 C   0  0  0  0  0  0
  -21.4160  -29.3020   22.3702 N   0  0  0  0  0  0
  -26.4267  -37.3787   23.9415 N   0  0  0  0  0  0
  -24.6764  -31.0697   22.0978 N   0  0  0  0  0  0
  -23.4179  -28.8209   23.3075 O   0  0  0  0  0  0
  -28.3853  -26.6095   20.1509 O   0  0  0  0  0  0
  -26.5628  -34.8921   22.4688 O   0  0  0  0  0  0
  -23.5386  -32.1414   23.7416 O   0  0  0  0  0  0
  -30.1843  -20.8252   21.1697 C   0  0  0  0  0  0
  -29.9240  -21.7827   20.2076 C   0  0  0  0  0  0
  -29.3811  -20.9978   19.1463 C   0  0  0  0  0  0
  -28.9319  -21.4556   17.7846 C   0  0  0  0  0  0
  -31.6098  -23.5770   20.7839 C   0  0  0  0  0  0
  -30.8156  -18.1372   22.5290 C   0  0  0  0  0  0
  -29.1475  -24.2664   20.7779 C   0  0  0  0  0  0
  -30.1507  -17.0139   20.3411 C   0  0  0  0  0  0
  -28.3910  -25.2012   19.7731 C   0  0  0  0  0  0
  -30.2270  -23.2980   20.1696 C   0  0  2  0  0  0
  -29.8552  -18.2070   21.3237 C   0  0  2  0  0  0
  -29.3124  -19.7039   19.4414 N   0  0  0  0  0  0
  -29.8501  -19.5577   20.6764 N   0  0  0  0  0  0
  -29.9492  -15.6303   20.8727 N   0  0  0  0  0  0
  -31.4765  -12.4066   19.1901 H   0  0  0  0  0  0
  -30.3030  -11.3397   19.9035 H   0  0  0  0  0  0
  -29.7696  -11.7718   17.4714 H   0  0  0  0  0  0
  -29.6838  -13.4883   17.7859 H   0  0  0  0  0  0
  -27.8330  -11.3171   18.8348 H   0  0  0  0  0  0
  -27.3923  -12.6443   17.7854 H   0  0  0  0  0  0
  -27.6861  -14.2643   19.5517 H   0  0  0  0  0  0
  -28.6743  -12.0521   21.4207 H   0  0  0  0  0  0
  -28.4615  -13.7236   21.8479 H   0  0  0  0  0  0
  -25.2777   -9.5657   22.4744 H   0  0  0  0  0  0
  -23.9961   -7.4649   22.7481 H   0  0  0  0  0  0
  -21.0808   -8.8792   19.8978 H   0  0  0  0  0  0
  -22.3706  -10.9676   19.6148 H   0  0  0  0  0  0
  -21.2058   -7.6147   23.9711 H   0  0  0  0  0  0
  -21.1520   -6.0532   25.9082 H   0  0  0  0  0  0
  -22.0575   -2.7596   23.2826 H   0  0  0  0  0  0
  -22.3996  -12.0036   22.4925 H   0  0  0  0  0  0
  -21.1037  -13.1397   22.2550 H   0  0  0  0  0  0
  -24.6427  -15.8430   20.5174 H   0  0  0  0  0  0
  -26.2624  -15.6404   20.0824 H   0  0  0  0  0  0
  -26.7137  -32.5484   23.1155 H   0  0  0  0  0  0
  -24.9965  -33.9741   25.0381 H   0  0  0  0  0  0
  -22.6995  -31.3056   21.4112 H   0  0  0  0  0  0
  -23.3711  -35.9673   23.3301 H   0  0  0  0  0  0
  -24.3576  -36.8942   22.2052 H   0  0  0  0  0  0
  -23.7240  -37.6523   23.6671 H   0  0  0  0  0  0
  -26.0536  -31.5702   20.5920 H   0  0  0  0  0  0
  -26.8297  -30.8706   21.9828 H   0  0  0  0  0  0
  -28.0950  -29.0300   21.1797 H   0  0  0  0  0  0
  -25.9799  -25.9935   18.9277 H   0  0  0  0  0  0
  -23.9634  -27.3171   19.0072 H   0  0  0  0  0  0
  -23.7262  -30.5959   19.4027 H   0  0  0  0  0  0
  -22.7388  -29.2448   19.8759 H   0  0  0  0  0  0
  -25.1259  -36.1950   25.0813 H   0  0  0  0  0  0
  -20.9934  -28.3240   24.1429 H   0  0  0  0  0  0
  -20.5618  -26.2298   23.3613 H   0  0  0  0  0  0
  -21.6627  -26.7430   22.1237 H   0  0  0  0  0  0
  -19.6888  -25.6302   21.1239 H   0  0  0  0  0  0
  -19.6653  -27.3208   20.6747 H   0  0  0  0  0  0
  -17.4170  -26.6689   21.4023 H   0  0  0  0  0  0
  -18.0308  -26.0064   22.9007 H   0  0  0  0  0  0
  -19.7937  -30.7265   24.2297 H   0  0  0  0  0  0
  -17.5024  -31.6257   24.5169 H   0  0  0  0  0  0
  -15.5372  -30.3014   23.7634 H   0  0  0  0  0  0
  -15.8646  -28.0829   22.7095 H   0  0  0  0  0  0
  -24.5874  -30.7101   25.7848 H   0  0  0  0  0  0
  -24.8934  -32.2926   26.4918 H   0  0  0  0  0  0
  -25.8056  -30.8936   27.0259 H   0  0  0  0  0  0
  -26.2823  -29.6805   24.1157 H   0  0  0  0  0  0
  -27.3992  -29.7245   25.4616 H   0  0  0  0  0  0
  -27.8702  -30.4322   23.9332 H   0  0  0  0  0  0
  -27.2643  -33.3622   26.2089 H   0  0  0  0  0  0
  -28.3843  -32.6884   25.0318 H   0  0  0  0  0  0
  -28.0715  -31.8442   26.5408 H   0  0  0  0  0  0
  -28.2583  -38.0092   24.7490 H   0  0  0  0  0  0
  -28.1053  -36.2624   24.6274 H   0  0  0  0  0  0
  -27.2303  -37.1450   25.8864 H   0  0  0  0  0  0
  -20.9336  -29.8747   21.6921 H   0  0  0  0  0  0
  -26.0146  -38.2858   24.1432 H   0  0  0  0  0  0
  -30.6135  -20.9448   22.1530 H   0  0  0  0  0  0
  -27.9502  -21.9247   17.8334 H   0  0  0  0  0  0
  -28.8756  -20.6285   17.0749 H   0  0  0  0  0  0
  -29.6203  -22.1870   17.3658 H   0  0  0  0  0  0
  -32.3862  -22.9955   20.2865 H   0  0  0  0  0  0
  -31.6463  -23.3309   21.8458 H   0  0  0  0  0  0
  -31.8804  -24.6291   20.6778 H   0  0  0  0  0  0
  -30.7080  -17.1874   23.0523 H   0  0  0  0  0  0
  -30.6147  -18.9150   23.2642 H   0  0  0  0  0  0
  -31.8586  -18.2184   22.2166 H   0  0  0  0  0  0
  -28.4299  -23.7073   21.3825 H   0  0  0  0  0  0
  -29.6330  -24.9245   21.4993 H   0  0  0  0  0  0
  -31.1584  -17.1351   19.9374 H   0  0  0  0  0  0
  -29.4833  -17.0926   19.4816 H   0  0  0  0  0  0
  -27.4041  -24.7605   19.6655 H   0  0  0  0  0  0
  -28.8440  -25.1451   18.7835 H   0  0  0  0  0  0
  -30.3435  -23.5877   19.1249 H   0  0  0  0  0  0
  -28.8428  -18.0714   21.7101 H   0  0  0  0  0  0
  -29.0435  -15.4316   21.2710 H   0  0  0  0  0  0
  1 25  1  0  0  0
  1 30  2  0  0  0
  1 84  1  0  0  0
  2  3  1  0  0  0
  2 25  1  0  0  0
  2 85  1  0  0  0
  2 86  1  0  0  0
  3  4  1  0  0  0
  3 87  1  0  0  0
  3 88  1  0  0  0
  4  5  1  0  0  0
  4 89  1  0  0  0
  4 90  1  0  0  0
  5  6  1  0  0  0
  5 26  1  0  0  0
  5 91  1  0  0  0
  6 25  1  0  0  0
  6 92  1  0  0  0
  6 93  1  0  0  0
  7  8  2  0  0  0
  7 26  1  0  0  0
  7 29  1  0  0  0
  8  9  1  0  0  0
  8 22  1  0  0  0
  9 10  1  0  0  0
  9 27  2  0  0  0
 10 11  2  0  0  0
 10 15  1  0  0  0
 11 12  1  0  0  0
 11 94  1  0  0  0
 12 13  2  0  0  0
 12 95  1  0  0  0
 13 14  1  0  0  0
 13 31  1  0  0  0
 14 15  2  0  0  0
 14 96  1  0  0  0
 15 97  1  0  0  0
 16 17  2  0  0  0
 16 21  1  0  0  0
 16 31  1  0  0  0
 17 18  1  0  0  0
 17 98  1  0  0  0
 18 19  2  0  0  0
 18 99  1  0  0  0
 19 20  1  0  0  0
 19 24  1  0  0  0
 20 21  2  0  0  0
 20100  1  0  0  0
 21 23  1  0  0  0
 22 28  1  0  0  0
 22 32  2  0  0  0
 26 27  1  0  0  0
 28101  1  0  0  0
 28102  1  0  0  0
 29103  1  0  0  0
 29104  1  0  0  0
 33 34  1  0  0  0
 33 66  1  0  0  0
 33 70  2  0  0  0
 34 36  1  0  0  0
 34 59  1  0  0  0
 34105  1  0  0  0
 35 44  2  0  0  0
 35 45  1  0  0  0
 35 68  1  0  0  0
 36 56  1  0  0  0
 36106  1  0  0  0
 37 39  1  0  0  0
 37 47  1  0  0  0
 37 66  1  0  0  0
 37107  1  0  0  0
 38 43  2  0  0  0
 38 46  1  0  0  0
 38 47  1  0  0  0
 39 64  1  0  0  0
 39 67  2  0  0  0
 40 52  1  0  0  0
 40 53  2  0  0  0
 40 58  1  0  0  0
 41108  1  0  0  0
 41109  1  0  0  0
 41110  1  0  0  0
 41 48  1  0  0  0
 42 43  1  0  0  0
 42 66  1  0  0  0
 42111  1  0  0  0
 42112  1  0  0  0
 43 44  1  0  0  0
 44113  1  0  0  0
 45 46  2  0  0  0
 45114  1  0  0  0
 46115  1  0  0  0
 47116  1  0  0  0
 47117  1  0  0  0
 48 56  1  0  0  0
 48 65  1  0  0  0
 48118  1  0  0  0
 49 50  1  0  0  0
 49 53  1  0  0  0
 49 64  1  0  0  0
 49119  1  0  0  0
 50 51  1  0  0  0
 50120  1  0  0  0
 50121  1  0  0  0
 51 52  1  0  0  0
 51122  1  0  0  0
 51123  1  0  0  0
 52124  1  0  0  0
 52125  1  0  0  0
 53 54  1  0  0  0
 54 55  2  0  0  0
 54126  1  0  0  0
 55 57  1  0  0  0
 55127  1  0  0  0
 56 69  2  0  0  0
 57 58  2  0  0  0
 57128  1  0  0  0
 58129  1  0  0  0
 59 60  1  0  0  0
 59 61  1  0  0  0
 59 62  1  0  0  0
 60130  1  0  0  0
 60131  1  0  0  0
 60132  1  0  0  0
 61133  1  0  0  0
 61134  1  0  0  0
 61135  1  0  0  0
 62136  1  0  0  0
 62137  1  0  0  0
 62138  1  0  0  0
 63 65  1  0  0  0
 63139  1  0  0  0
 63140  1  0  0  0
 63141  1  0  0  0
 64142  1  0  0  0
 65143  1  0  0  0
 68 79  1  0  0  0
 71 72  2  0  0  0
 71 83  1  0  0  0
 71144  1  0  0  0
 72 73  1  0  0  0
 72 80  1  0  0  0
 73 74  1  0  0  0
 73 82  2  0  0  0
 74145  1  0  0  0
 74146  1  0  0  0
 74147  1  0  0  0
 75148  1  0  0  0
 75149  1  0  0  0
 75150  1  0  0  0
 75 80  1  0  0  0
 76151  1  0  0  0
 76152  1  0  0  0
 76153  1  0  0  0
 76 81  1  0  0  0
 77 79  1  0  0  0
 77 80  1  0  0  0
 77154  1  0  0  0
 77155  1  0  0  0
 78 81  1  0  0  0
 78 84  1  0  0  0
 78156  1  0  0  0
 78157  1  0  0  0
 79158  1  0  0  0
 79159  1  0  0  0
 80160  1  0  0  0
 81 83  1  0  0  0
 81161  1  0  0  0
 82 83  1  0  0  0
 84162  1  0  0  0
M  ISO  4   1 100  68 101  79 101  84 100
M  END
> <chiral flag>
0

> <version>
0

> <s_m_source_file>
/data/baiqing/PycharmProjects/Reinvent-master-3.2/result/LINK_invent/BTK/process_docking_weight1_custom_sum_contain_oxygen_bond_distance_aromatic_linkinvent_7_9_3/rearranged_h_0078.sdf

> <i_m_source_file_index>
73

> <r_mmod_Potential_Energy-OPLS-2005>
-39.3622093200684

> <r_mmod_Stretch_Energy-OPLS-2005>
54.3914527893066

> <r_mmod_Bend_Energy-OPLS-2005>
121.910232543945

> <r_mmod_Torsional_Energy-OPLS-2005>
254.432220458984

> <r_mmod_Improper_Torsional_Energy-OPLS-2005>
7.302659034729

> <r_mmod_Van_der_Waal_Energy-OPLS-2005>
129.787033081055

> <r_mmod_Electrostatic_Energy-OPLS-2005>
-419.392272949219

> <r_mmod_Solvation_Energy-OPLS-2005>
-214.393768310547

> <b_mmod_Minimization_Converged-OPLS-2005>
0

> <r_mmod_RMS_Derivative-OPLS-2005>
4.55188608169556

$$$$
73
                    3D
 Structure written by MMmdl.
193201  0  0  1  0            999 V2000
  -30.8039  -14.3253   20.7272 C   0  0  0  0  0  0
  -30.4087  -12.2943   19.3840 C   0  0  0  0  0  0
  -29.4746  -12.5373   18.1868 C   0  0  0  0  0  0
  -28.0038  -12.3793   18.6090 C   0  0  0  0  0  0
  -27.6635  -13.2044   19.8777 C   0  0  2  0  0  0
  -28.7012  -12.9587   20.9950 C   0  0  0  0  0  0
  -25.2589  -13.8161   20.5672 C   0  0  0  0  0  0
  -24.1832  -13.0443   20.9168 C   0  0  0  0  0  0
  -24.6383  -11.6907   20.8717 C   0  0  0  0  0  0
  -23.9050  -10.4298   21.0402 C   0  0  0  0  0  0
  -24.3603   -9.4214   21.9179 C   0  0  0  0  0  0
  -23.6285   -8.2245   22.0751 C   0  0  0  0  0  0
  -22.4267   -8.0279   21.3545 C   0  0  0  0  0  0
  -21.9899   -9.0249   20.4643 C   0  0  0  0  0  0
  -22.7220  -10.2133   20.3047 C   0  0  0  0  0  0
  -21.6853   -6.0734   22.5275 C   0  0  0  0  0  0
  -21.4018   -6.5637   23.8210 C   0  0  0  0  0  0
  -21.3656   -5.6790   24.9172 C   0  0  0  0  0  0
  -21.6045   -4.3053   24.7223 C   0  0  0  0  0  0
  -21.8818   -3.8142   23.4345 C   0  0  0  0  0  0
  -21.9195   -4.6960   22.3399 C   0  0  0  0  0  0
  -22.7860  -13.5250   21.1844 C   0  0  0  0  0  0
  -22.1661   -4.2144   21.0979 F   0  0  0  0  0  0
  -21.5631   -3.4530   25.7738 F   0  0  0  0  0  0
  -30.0481  -13.2318   20.4583 N   0  0  0  0  0  0
  -26.3029  -12.9328   20.3372 N   0  0  0  0  0  0
  -25.9306  -11.6485   20.5752 N   0  0  0  0  0  0
  -22.0505  -12.8238   22.0396 N   0  0  0  0  0  0
  -25.4328  -15.1874   20.4089 N   0  0  0  0  0  0
  -31.7744  -14.6680   20.0448 O   0  0  0  0  0  0
  -21.6639   -6.8870   21.4237 O   0  0  0  0  0  0
  -22.3558  -14.5566   20.6708 O   0  0  0  0  0  0
  -24.6162  -31.8707   23.2130 C   0  0  0  0  0  0
  -25.9064  -32.4839   23.8414 C   0  0  1  0  0  0
  -27.2177  -27.4269   20.1001 C   0  0  0  0  0  0
  -25.5940  -33.8640   24.2353 N   0  0  0  0  0  0
  -23.4021  -30.4989   21.5541 C   0  0  2  0  0  0
  -24.8431  -28.9688   20.1189 C   0  0  0  0  0  0
  -22.7411  -29.4708   22.5011 C   0  0  0  0  0  0
  -18.0277  -28.1390   22.8496 C   0  0  0  0  0  0
  -24.1493  -36.7307   23.2644 C   0  0  0  0  0  0
  -25.9338  -30.8314   21.3716 C   0  0  0  0  0  0
  -26.0030  -29.4634   20.7267 C   0  0  0  0  0  0
  -27.1911  -28.6943   20.7259 C   0  0  0  0  0  0
  -26.0510  -26.9804   19.4408 C   0  0  0  0  0  0
  -24.8618  -27.7238   19.4745 C   0  0  0  0  0  0
  -23.6069  -29.8347   20.1673 C   0  0  0  0  0  0
  -25.4110  -36.3126   24.0340 C   0  0  1  0  0  0
  -20.5868  -28.3676   23.1321 C   0  0  2  0  0  0
  -20.6768  -26.9415   22.5419 C   0  0  0  0  0  0
  -19.5745  -26.6391   21.5222 C   0  0  0  0  0  0
  -18.1920  -26.7945   22.1621 C   0  0  0  0  0  0
  -19.1525  -28.8848   23.2906 C   0  0  0  0  0  0
  -18.9455  -30.1452   23.8912 C   0  0  0  0  0  0
  -17.6454  -30.6596   24.0569 C   0  0  0  0  0  0
  -25.9037  -34.9488   23.5132 C   0  0  0  0  0  0
  -16.5346  -29.9095   23.6336 C   0  0  0  0  0  0
  -16.7259  -28.6519   23.0350 C   0  0  0  0  0  0
  -26.4472  -31.6613   25.0745 C   0  0  0  0  0  0
  -25.3717  -31.3710   26.1480 C   0  0  0  0  0  0
  -27.0325  -30.3079   24.6111 C   0  0  0  0  0  0
  -27.6062  -32.4326   25.7489 C   0  0  0  0  0  0
  -27.5570  -37.1808   24.8466 C   0  0  0  0  0  0
  -21.4146  -29.3058   22.3742 N   0  0  0  0  0  0
  -26.4287  -37.3816   23.9411 N   0  0  0  0  0  0
  -24.6689  -31.0817   22.1025 N   0  0  0  0  0  0
  -23.4194  -28.8243   23.3038 O   0  0  0  0  0  0
  -28.3853  -26.6914   20.0691 O   0  0  0  0  0  0
  -26.5582  -34.8937   22.4684 O   0  0  0  0  0  0
  -23.5363  -32.1462   23.7523 O   0  0  0  0  0  0
  -28.9866  -19.5943   22.8369 C   0  0  0  0  0  0
  -29.2210  -19.0122   24.0526 C   0  0  0  0  0  0
  -27.2595  -20.0993   24.1522 C   0  0  0  0  0  0
  -29.4831  -16.3023   25.9987 C   0  0  0  0  0  0
  -24.7927  -19.6565   24.2096 C   0  0  0  0  0  0
  -25.6256  -22.0266   24.4474 C   0  0  0  0  0  0
  -25.9543  -20.3930   26.2867 C   0  0  0  0  0  0
  -29.2044  -22.4019   19.5281 C   0  0  0  0  0  0
  -26.7463  -22.1127   19.1190 C   0  0  0  0  0  0
  -32.5554  -16.1877   24.8392 C   0  0  0  0  0  0
  -31.0138  -14.2607   24.5662 C   0  0  0  0  0  0
  -30.3642  -18.1762   24.5328 C   0  0  0  0  0  0
  -27.6358  -22.3618   21.5211 C   0  0  0  0  0  0
  -27.5550  -24.3191   19.8447 C   0  0  0  0  0  0
  -27.1636  -20.8996   21.7500 C   0  0  0  0  0  0
  -31.4353  -15.8128   22.6117 C   0  0  0  0  0  0
  -28.3789  -25.3623   20.6378 C   0  0  0  0  0  0
  -30.0390  -16.6544   24.5989 C   0  0  1  0  0  0
  -25.9313  -20.5456   24.7463 C   0  0  0  0  0  0
  -27.7994  -22.7954   20.0305 C   0  0  0  0  0  0
  -31.2408  -15.7407   24.1569 C   0  0  0  0  0  0
  -27.7765  -20.2356   22.9095 N   0  0  0  0  0  0
  -28.1446  -19.3519   24.8272 N   0  3  0  0  0  0
  -30.5227  -14.9242   21.8897 N   0  0  0  0  0  0
  -31.4517  -12.3919   19.0765 H   0  0  0  0  0  0
  -30.3045  -11.2695   19.7430 H   0  0  0  0  0  0
  -29.7084  -11.8448   17.3769 H   0  0  0  0  0  0
  -29.6374  -13.5400   17.7890 H   0  0  0  0  0  0
  -27.8214  -11.3201   18.7939 H   0  0  0  0  0  0
  -27.3429  -12.6616   17.7886 H   0  0  0  0  0  0
  -27.7195  -14.2576   19.5998 H   0  0  0  0  0  0
  -28.6572  -11.9218   21.3309 H   0  0  0  0  0  0
  -28.4441  -13.5593   21.8685 H   0  0  0  0  0  0
  -25.2751   -9.5698   22.4747 H   0  0  0  0  0  0
  -23.9996   -7.4643   22.7474 H   0  0  0  0  0  0
  -21.0824   -8.8756   19.8952 H   0  0  0  0  0  0
  -22.3672  -10.9662   19.6147 H   0  0  0  0  0  0
  -21.2004   -7.6146   23.9711 H   0  0  0  0  0  0
  -21.1483   -6.0523   25.9078 H   0  0  0  0  0  0
  -22.0599   -2.7604   23.2844 H   0  0  0  0  0  0
  -22.4101  -11.9874   22.4746 H   0  0  0  0  0  0
  -21.1130  -13.1277   22.2619 H   0  0  0  0  0  0
  -24.6680  -15.8452   20.5144 H   0  0  0  0  0  0
  -26.2938  -15.6247   20.1047 H   0  0  0  0  0  0
  -26.7160  -32.5558   23.1199 H   0  0  0  0  0  0
  -25.0168  -33.9794   25.0556 H   0  0  0  0  0  0
  -22.6933  -31.3184   21.4176 H   0  0  0  0  0  0
  -23.3770  -35.9629   23.3320 H   0  0  0  0  0  0
  -24.3613  -36.8891   22.2062 H   0  0  0  0  0  0
  -23.7221  -37.6500   23.6648 H   0  0  0  0  0  0
  -26.0468  -31.5919   20.5977 H   0  0  0  0  0  0
  -26.8235  -30.8858   21.9859 H   0  0  0  0  0  0
  -28.0856  -29.0665   21.2052 H   0  0  0  0  0  0
  -26.0391  -26.0803   18.8515 H   0  0  0  0  0  0
  -23.9813  -27.3497   18.9702 H   0  0  0  0  0  0
  -23.7148  -30.6100   19.4087 H   0  0  0  0  0  0
  -22.7302  -29.2550   19.8706 H   0  0  0  0  0  0
  -25.1290  -36.1984   25.0831 H   0  0  0  0  0  0
  -20.9938  -28.3233   24.1445 H   0  0  0  0  0  0
  -20.5703  -26.2281   23.3608 H   0  0  0  0  0  0
  -21.6638  -26.7492   22.1185 H   0  0  0  0  0  0
  -19.6915  -25.6304   21.1244 H   0  0  0  0  0  0
  -19.6683  -27.3211   20.6765 H   0  0  0  0  0  0
  -17.4192  -26.6711   21.4013 H   0  0  0  0  0  0
  -18.0299  -26.0072   22.9001 H   0  0  0  0  0  0
  -19.7928  -30.7262   24.2285 H   0  0  0  0  0  0
  -17.5014  -31.6277   24.5169 H   0  0  0  0  0  0
  -15.5348  -30.3000   23.7673 H   0  0  0  0  0  0
  -15.8657  -28.0849   22.7062 H   0  0  0  0  0  0
  -24.5928  -30.7012   25.7812 H   0  0  0  0  0  0
  -24.8859  -32.2857   26.4896 H   0  0  0  0  0  0
  -25.8048  -30.8916   27.0270 H   0  0  0  0  0  0
  -26.2880  -29.6830   24.1177 H   0  0  0  0  0  0
  -27.4137  -29.7321   25.4550 H   0  0  0  0  0  0
  -27.8689  -30.4447   23.9254 H   0  0  0  0  0  0
  -27.2723  -33.3659   26.2049 H   0  0  0  0  0  0
  -28.3870  -32.6831   25.0287 H   0  0  0  0  0  0
  -28.0744  -31.8457   26.5405 H   0  0  0  0  0  0
  -28.2598  -38.0099   24.7527 H   0  0  0  0  0  0
  -28.1045  -36.2629   24.6271 H   0  0  0  0  0  0
  -27.2286  -37.1406   25.8867 H   0  0  0  0  0  0
  -20.9310  -29.8786   21.6965 H   0  0  0  0  0  0
  -26.0172  -38.2892   24.1420 H   0  0  0  0  0  0
  -29.5730  -19.5771   21.9274 H   0  0  0  0  0  0
  -28.6632  -16.9618   26.2801 H   0  0  0  0  0  0
  -30.2475  -16.3867   26.7715 H   0  0  0  0  0  0
  -29.0804  -15.2904   26.0377 H   0  0  0  0  0  0
  -24.6725  -19.7360   23.1304 H   0  0  0  0  0  0
  -23.8352  -19.9260   24.6577 H   0  0  0  0  0  0
  -24.9732  -18.6046   24.4359 H   0  0  0  0  0  0
  -25.3902  -22.2029   23.4016 H   0  0  0  0  0  0
  -26.4623  -22.6701   24.7221 H   0  0  0  0  0  0
  -24.7545  -22.3691   25.0080 H   0  0  0  0  0  0
  -26.0726  -19.3535   26.5958 H   0  0  0  0  0  0
  -25.0234  -20.7433   26.7348 H   0  0  0  0  0  0
  -26.7616  -20.9723   26.7373 H   0  0  0  0  0  0
  -29.3481  -21.3207   19.5447 H   0  0  0  0  0  0
  -29.9938  -22.8345   20.1424 H   0  0  0  0  0  0
  -29.3736  -22.7345   18.5030 H   0  0  0  0  0  0
  -26.9184  -21.0458   18.9825 H   0  0  0  0  0  0
  -26.7532  -22.5352   18.1137 H   0  0  0  0  0  0
  -25.7368  -22.2366   19.5135 H   0  0  0  0  0  0
  -33.3637  -15.4869   24.6277 H   0  0  0  0  0  0
  -32.4550  -16.2372   25.9232 H   0  0  0  0  0  0
  -32.9043  -17.1611   24.4957 H   0  0  0  0  0  0
  -31.7668  -13.6084   24.1215 H   0  0  0  0  0  0
  -30.0365  -13.8877   24.2566 H   0  0  0  0  0  0
  -31.0819  -14.1206   25.6456 H   0  0  0  0  0  0
  -30.7000  -18.5444   25.5033 H   0  0  0  0  0  0
  -31.1876  -18.3753   23.8501 H   0  0  0  0  0  0
  -28.5774  -22.5313   22.0467 H   0  0  0  0  0  0
  -26.9274  -23.0270   22.0127 H   0  0  0  0  0  0
  -27.6723  -24.5510   18.7850 H   0  0  0  0  0  0
  -26.5064  -24.4798   20.0919 H   0  0  0  0  0  0
  -27.4425  -20.2709   20.9070 H   0  0  0  0  0  0
  -26.0797  -20.8322   21.8091 H   0  0  0  0  0  0
  -32.4622  -15.5299   22.3698 H   0  0  0  0  0  0
  -31.3113  -16.8260   22.2286 H   0  0  0  0  0  0
  -29.4201  -25.0433   20.6737 H   0  0  0  0  0  0
  -28.0390  -25.4049   21.6732 H   0  0  0  0  0  0
  -29.2331  -16.4607   23.8887 H   0  0  0  0  0  0
  -28.0161  -19.0807   25.7936 H   0  0  0  0  0  0
  -29.7268  -14.5698   22.3979 H   0  0  0  0  0  0
  1 25  1  0  0  0
  1 30  2  0  0  0
  1 94  1  0  0  0
  2  3  1  0  0  0
  2 25  1  0  0  0
  2 95  1  0  0  0
  2 96  1  0  0  0
  3  4  1  0  0  0
  3 97  1  0  0  0
  3 98  1  0  0  0
  4  5  1  0  0  0
  4 99  1  0  0  0
  4100  1  0  0  0
  5  6  1  0  0  0
  5 26  1  0  0  0
  5101  1  0  0  0
  6 25  1  0  0  0
  6102  1  0  0  0
  6103  1  0  0  0
  7  8  2  0  0  0
  7 26  1  0  0  0
  7 29  1  0  0  0
  8  9  1  0  0  0
  8 22  1  0  0  0
  9 10  1  0  0  0
  9 27  2  0  0  0
 10 11  2  0  0  0
 10 15  1  0  0  0
 11 12  1  0  0  0
 11104  1  0  0  0
 12 13  2  0  0  0
 12105  1  0  0  0
 13 14  1  0  0  0
 13 31  1  0  0  0
 14 15  2  0  0  0
 14106  1  0  0  0
 15107  1  0  0  0
 16 17  2  0  0  0
 16 21  1  0  0  0
 16 31  1  0  0  0
 17 18  1  0  0  0
 17108  1  0  0  0
 18 19  2  0  0  0
 18109  1  0  0  0
 19 20  1  0  0  0
 19 24  1  0  0  0
 20 21  2  0  0  0
 20110  1  0  0  0
 21 23  1  0  0  0
 22 28  1  0  0  0
 22 32  2  0  0  0
 26 27  1  0  0  0
 28111  1  0  0  0
 28112  1  0  0  0
 29113  1  0  0  0
 29114  1  0  0  0
 33 34  1  0  0  0
 33 66  1  0  0  0
 33 70  2  0  0  0
 34 36  1  0  0  0
 34 59  1  0  0  0
 34115  1  0  0  0
 35 44  2  0  0  0
 35 45  1  0  0  0
 35 68  1  0  0  0
 36 56  1  0  0  0
 36116  1  0  0  0
 37 39  1  0  0  0
 37 47  1  0  0  0
 37 66  1  0  0  0
 37117  1  0  0  0
 38 43  2  0  0  0
 38 46  1  0  0  0
 38 47  1  0  0  0
 39 64  1  0  0  0
 39 67  2  0  0  0
 40 52  1  0  0  0
 40 53  2  0  0  0
 40 58  1  0  0  0
 41118  1  0  0  0
 41119  1  0  0  0
 41120  1  0  0  0
 41 48  1  0  0  0
 42 43  1  0  0  0
 42 66  1  0  0  0
 42121  1  0  0  0
 42122  1  0  0  0
 43 44  1  0  0  0
 44123  1  0  0  0
 45 46  2  0  0  0
 45124  1  0  0  0
 46125  1  0  0  0
 47126  1  0  0  0
 47127  1  0  0  0
 48 56  1  0  0  0
 48 65  1  0  0  0
 48128  1  0  0  0
 49 50  1  0  0  0
 49 53  1  0  0  0
 49 64  1  0  0  0
 49129  1  0  0  0
 50 51  1  0  0  0
 50130  1  0  0  0
 50131  1  0  0  0
 51 52  1  0  0  0
 51132  1  0  0  0
 51133  1  0  0  0
 52134  1  0  0  0
 52135  1  0  0  0
 53 54  1  0  0  0
 54 55  2  0  0  0
 54136  1  0  0  0
 55 57  1  0  0  0
 55137  1  0  0  0
 56 69  2  0  0  0
 57 58  2  0  0  0
 57138  1  0  0  0
 58139  1  0  0  0
 59 60  1  0  0  0
 59 61  1  0  0  0
 59 62  1  0  0  0
 60140  1  0  0  0
 60141  1  0  0  0
 60142  1  0  0  0
 61143  1  0  0  0
 61144  1  0  0  0
 61145  1  0  0  0
 62146  1  0  0  0
 62147  1  0  0  0
 62148  1  0  0  0
 63 65  1  0  0  0
 63149  1  0  0  0
 63150  1  0  0  0
 63151  1  0  0  0
 64152  1  0  0  0
 65153  1  0  0  0
 68 87  1  0  0  0
 71 72  2  0  0  0
 71 92  1  0  0  0
 71154  1  0  0  0
 72 82  1  0  0  0
 72 93  1  0  0  0
 73 89  1  0  0  0
 73 92  1  0  0  0
 73 93  2  0  0  0
 74155  1  0  0  0
 74156  1  0  0  0
 74157  1  0  0  0
 74 88  1  0  0  0
 75158  1  0  0  0
 75159  1  0  0  0
 75160  1  0  0  0
 75 89  1  0  0  0
 76 89  1  0  0  0
 76161  1  0  0  0
 76162  1  0  0  0
 76163  1  0  0  0
 77 89  1  0  0  0
 77164  1  0  0  0
 77165  1  0  0  0
 77166  1  0  0  0
 78167  1  0  0  0
 78168  1  0  0  0
 78169  1  0  0  0
 78 90  1  0  0  0
 79 90  1  0  0  0
 79170  1  0  0  0
 79171  1  0  0  0
 79172  1  0  0  0
 80173  1  0  0  0
 80174  1  0  0  0
 80175  1  0  0  0
 80 91  1  0  0  0
 81 91  1  0  0  0
 81176  1  0  0  0
 81177  1  0  0  0
 81178  1  0  0  0
 82 88  1  0  0  0
 82179  1  0  0  0
 82180  1  0  0  0
 83 85  1  0  0  0
 83 90  1  0  0  0
 83181  1  0  0  0
 83182  1  0  0  0
 84 87  1  0  0  0
 84 90  1  0  0  0
 84183  1  0  0  0
 84184  1  0  0  0
 85 92  1  0  0  0
 85185  1  0  0  0
 85186  1  0  0  0
 86 91  1  0  0  0
 86 94  1  0  0  0
 86187  1  0  0  0
 86188  1  0  0  0
 87189  1  0  0  0
 87190  1  0  0  0
 88 91  1  0  0  0
 88191  1  0  0  0
 93192  1  0  0  0
 94193  1  0  0  0
M  CHG  1  93   1
M  ISO  4   1 100  68 101  87 101  94 100
M  END
> <chiral flag>
0

> <version>
0

> <s_m_source_file>
/data/baiqing/PycharmProjects/Reinvent-master-3.2/result/LINK_invent/BTK/process_docking_weight1_custom_sum_contain_oxygen_bond_distance_aromatic_linkinvent_7_9_3/rearranged_h_0078.sdf

> <i_m_source_file_index>
74

> <r_mmod_Potential_Energy-OPLS-2005>
15.2502346038818

> <r_mmod_Stretch_Energy-OPLS-2005>
42.9854850769043

> <r_mmod_Bend_Energy-OPLS-2005>
133.237564086914

> <r_mmod_Torsional_Energy-OPLS-2005>
310.839019775391

> <r_mmod_Improper_Torsional_Energy-OPLS-2005>
4.08310031890869

> <r_mmod_Van_der_Waal_Energy-OPLS-2005>
151.778366088867

> <r_mmod_Electrostatic_Energy-OPLS-2005>
-255.516342163086

> <r_mmod_Solvation_Energy-OPLS-2005>
-381.851135253906

> <b_mmod_Minimization_Converged-OPLS-2005>
0

> <r_mmod_RMS_Derivative-OPLS-2005>
2.01263737678528

$$$$
74
                    3D
 Structure written by MMmdl.
163171  0  0  1  0            999 V2000
  -29.4913  -13.8349   21.5015 C   0  0  0  0  0  0
  -30.3946  -12.4237   19.4643 C   0  0  0  0  0  0
  -29.8016  -12.6071   18.0185 C   0  0  0  0  0  0
  -28.2934  -12.2934   17.9148 C   0  0  0  0  0  0
  -27.6923  -12.9369   19.1002 C   0  0  2  0  0  0
  -28.1970  -12.3327   20.3495 C   0  0  0  0  0  0
  -25.6351  -14.0857   19.4079 C   0  0  0  0  0  0
  -24.6130  -13.7568   20.1964 C   0  0  0  0  0  0
  -24.5682  -12.3957   20.0393 C   0  0  0  0  0  0
  -23.7834  -11.5759   20.7268 C   0  0  0  0  0  0
  -23.8625  -10.4525   23.4184 C   0  0  0  0  0  0
  -23.0241   -8.9782   23.2545 C   0  0  0  0  0  0
  -22.3140   -8.4110   21.8475 C   0  0  0  0  0  0
  -22.2174   -9.1674   20.4232 C   0  0  0  0  0  0
  -22.8318  -10.5311   19.8327 C   0  0  0  0  0  0
  -21.7353   -6.1512   22.6643 C   0  0  0  0  0  0
  -21.3629   -6.5538   23.9432 C   0  0  0  0  0  0
  -21.2931   -5.6084   24.9934 C   0  0  0  0  0  0
  -21.5849   -4.2764   24.7306 C   0  0  0  0  0  0
  -21.8891   -3.8350   23.4349 C   0  0  0  0  0  0
  -21.9542   -4.7907   22.3675 C   0  0  0  0  0  0
  -23.8317  -14.7974   20.9081 C   0  0  0  0  0  0
  -22.2116   -4.3331   21.1190 F   0  0  0  0  0  0
  -21.4973   -3.3686   25.7450 F   0  0  0  0  0  0
  -29.4728  -12.8634   20.5431 N   0  0  0  0  0  0
  -26.2840  -12.9323   19.1579 N   0  0  0  0  0  0
  -25.6275  -11.8288   19.5068 N   0  0  0  0  0  0
  -24.2697  -14.8902   22.2460 N   0  0  0  0  0  0
  -26.1520  -15.2874   19.0563 N   0  0  0  0  0  0
  -30.5438  -14.5404   21.3657 O   0  0  0  0  0  0
  -21.7999   -7.1411   21.6695 O   0  0  0  0  0  0
  -23.2321  -15.6867   20.2516 O   0  0  0  0  0  0
  -24.6970  -31.7419   23.1607 C   0  0  0  0  0  0
  -25.9567  -32.3921   23.8037 C   0  0  1  0  0  0
  -25.9998  -25.9283   20.7582 C   0  0  0  0  0  0
  -25.6148  -33.7849   24.1866 N   0  0  0  0  0  0
  -23.5049  -30.3890   21.5090 C   0  0  2  0  0  0
  -24.8339  -28.6607   20.0815 C   0  0  0  0  0  0
  -22.7645  -29.3993   22.4560 C   0  0  0  0  0  0
  -18.0349  -28.1322   22.8578 C   0  0  0  0  0  0
  -24.1511  -36.6791   23.2672 C   0  0  0  0  0  0
  -26.0416  -30.1771   21.5636 C   0  0  0  0  0  0
  -25.8741  -28.6917   20.9892 C   0  0  0  0  0  0
  -26.4843  -27.3285   21.3082 C   0  0  0  0  0  0
  -25.3936  -26.2926   19.5348 C   0  0  0  0  0  0
  -24.7308  -27.5232   19.2652 C   0  0  0  0  0  0
  -23.7636  -29.7575   20.1001 C   0  0  0  0  0  0
  -25.4120  -36.2495   24.0345 C   0  0  1  0  0  0
  -20.5933  -28.3620   23.1192 C   0  0  2  0  0  0
  -20.6721  -26.9285   22.5405 C   0  0  0  0  0  0
  -19.5630  -26.6336   21.5261 C   0  0  0  0  0  0
  -18.1885  -26.7857   22.1756 C   0  0  0  0  0  0
  -19.1614  -28.8836   23.2856 C   0  0  0  0  0  0
  -18.9514  -30.1443   23.8871 C   0  0  0  0  0  0
  -17.6490  -30.6538   24.0554 C   0  0  0  0  0  0
  -25.9209  -34.8926   23.4923 C   0  0  0  0  0  0
  -16.5384  -29.9033   23.6303 C   0  0  0  0  0  0
  -16.7335  -28.6423   23.0400 C   0  0  0  0  0  0
  -26.4688  -31.6133   25.0800 C   0  0  0  0  0  0
  -25.3774  -31.3345   26.1414 C   0  0  0  0  0  0
  -27.0651  -30.2447   24.6949 C   0  0  0  0  0  0
  -27.6097  -32.4090   25.7518 C   0  0  0  0  0  0
  -27.5590  -37.1415   24.8469 C   0  0  0  0  0  0
  -21.4317  -29.2828   22.3445 N   0  0  0  0  0  0
  -26.4114  -37.3413   23.9657 N   0  0  0  0  0  0
  -24.7888  -30.8394   22.1157 N   0  0  0  0  0  0
  -23.4035  -28.7656   23.3024 O   0  0  0  0  0  0
  -25.9504  -24.2763   21.1379 O   0  0  0  0  0  0
  -26.5834  -34.8610   22.4523 O   0  0  0  0  0  0
  -23.5993  -32.1003   23.6271 O   0  0  0  0  0  0
  -25.6418  -10.8407   21.9819 C   0  0  0  0  0  0
  -25.0913  -12.3474   22.6137 C   0  0  0  0  0  0
  -22.3068  -11.0844   22.1405 C   0  0  0  0  0  0
  -20.7508  -10.9388   21.9931 C   0  0  0  0  0  0
  -23.7922  -19.7986   20.3279 C   0  0  0  0  0  0
  -26.6575  -13.3974   22.9637 C   0  0  0  0  0  0
  -21.9072  -16.6420   22.6523 C   0  0  0  0  0  0
  -22.9758  -18.5966   22.6911 C   0  0  0  0  0  0
  -21.9696  -14.3869   22.9206 C   0  0  0  0  0  0
  -24.7066  -22.6273   21.6655 C   0  0  0  0  0  0
  -23.9889  -20.3886   21.7566 C   0  0  2  0  0  0
  -23.1255  -12.6309   22.7025 N   0  0  0  0  0  0
  -24.3689   -9.7135   21.5184 N   0  3  0  0  0  0
  -28.3956  -13.6147   22.5744 N   0  0  0  0  0  0
  -31.3845  -12.8595   19.5649 H   0  0  0  0  0  0
  -30.5343  -11.3552   19.5943 H   0  0  0  0  0  0
  -30.3759  -12.0181   17.2948 H   0  0  0  0  0  0
  -29.9621  -13.6376   17.6745 H   0  0  0  0  0  0
  -28.1087  -11.2173   17.8588 H   0  0  0  0  0  0
  -27.9180  -12.7434   16.9777 H   0  0  0  0  0  0
  -28.0532  -13.9589   18.9988 H   0  0  0  0  0  0
  -28.1023  -11.2455   20.4107 H   0  0  0  0  0  0
  -27.3826  -12.6859   20.9253 H   0  0  0  0  0  0
  -24.3988  -10.7555   24.3139 H   0  0  0  0  0  0
  -23.0470   -8.3723   24.1424 H   0  0  0  0  0  0
  -21.6398   -8.6051   19.6912 H   0  0  0  0  0  0
  -22.6774  -10.7062   18.7858 H   0  0  0  0  0  0
  -21.1217   -7.5697   24.1774 H   0  0  0  0  0  0
  -21.0161   -5.9314   25.9834 H   0  0  0  0  0  0
  -22.0768   -2.7955   23.2432 H   0  0  0  0  0  0
  -24.4917  -14.1845   22.9987 H   0  0  0  0  0  0
  -24.6764  -15.7429   22.7061 H   0  0  0  0  0  0
  -25.7816  -16.1525   19.3713 H   0  0  0  0  0  0
  -26.8337  -15.4539   18.2760 H   0  0  0  0  0  0
  -26.7601  -32.4132   23.0628 H   0  0  0  0  0  0
  -25.0227  -33.8843   24.9995 H   0  0  0  0  0  0
  -22.8512  -31.2507   21.3521 H   0  0  0  0  0  0
  -23.3896  -35.8973   23.2885 H   0  0  0  0  0  0
  -24.3780  -36.8875   22.2207 H   0  0  0  0  0  0
  -23.7114  -37.5736   23.7064 H   0  0  0  0  0  0
  -26.3557  -30.7958   20.7244 H   0  0  0  0  0  0
  -26.8910  -30.1797   22.2188 H   0  0  0  0  0  0
  -27.1220  -27.2694   22.1783 H   0  0  0  0  0  0
  -25.0846  -25.4701   18.8978 H   0  0  0  0  0  0
  -24.0362  -27.5471   18.4298 H   0  0  0  0  0  0
  -24.0787  -30.5250   19.3957 H   0  0  0  0  0  0
  -22.8381  -29.3455   19.6960 H   0  0  0  0  0  0
  -25.1276  -36.1003   25.0815 H   0  0  0  0  0  0
  -21.0088  -28.3187   24.1281 H   0  0  0  0  0  0
  -20.5629  -26.2185   23.3621 H   0  0  0  0  0  0
  -21.6533  -26.7169   22.1125 H   0  0  0  0  0  0
  -19.6662  -25.6302   21.1140 H   0  0  0  0  0  0
  -19.6461  -27.3284   20.6902 H   0  0  0  0  0  0
  -17.4088  -26.6720   21.4207 H   0  0  0  0  0  0
  -18.0222  -26.0009   22.9155 H   0  0  0  0  0  0
  -19.7991  -30.7289   24.2192 H   0  0  0  0  0  0
  -17.5019  -31.6230   24.5113 H   0  0  0  0  0  0
  -15.5355  -30.2864   23.7618 H   0  0  0  0  0  0
  -15.8770  -28.0684   22.7079 H   0  0  0  0  0  0
  -24.5899  -30.6803   25.7632 H   0  0  0  0  0  0
  -24.9040  -32.2467   26.5020 H   0  0  0  0  0  0
  -25.7985  -30.8247   27.0100 H   0  0  0  0  0  0
  -26.3139  -29.5708   24.2774 H   0  0  0  0  0  0
  -27.4748  -29.7240   25.5607 H   0  0  0  0  0  0
  -27.8993  -30.3454   24.0022 H   0  0  0  0  0  0
  -27.2528  -33.3286   26.2134 H   0  0  0  0  0  0
  -28.3791  -32.6802   25.0290 H   0  0  0  0  0  0
  -28.0949  -31.8284   26.5364 H   0  0  0  0  0  0
  -28.1999  -38.0228   24.8112 H   0  0  0  0  0  0
  -28.1623  -36.2831   24.5443 H   0  0  0  0  0  0
  -27.2514  -36.9959   25.8849 H   0  0  0  0  0  0
  -20.9655  -29.8568   21.6564 H   0  0  0  0  0  0
  -25.9729  -38.2246   24.2121 H   0  0  0  0  0  0
  -26.6580  -10.5208   21.8809 H   0  0  0  0  0  0
  -20.1799  -11.4922   22.7496 H   0  0  0  0  0  0
  -20.4349   -9.8913   22.0454 H   0  0  0  0  0  0
  -20.4728  -11.3234   21.0009 H   0  0  0  0  0  0
  -23.3177  -18.8040   20.4276 H   0  0  0  0  0  0
  -24.6869  -19.6584   19.6918 H   0  0  0  0  0  0
  -23.0892  -20.4517   19.8161 H   0  0  0  0  0  0
  -26.5941  -13.4261   24.0706 H   0  0  0  0  0  0
  -26.5444  -14.4567   22.7518 H   0  0  0  0  0  0
  -21.0122  -16.8497   21.9039 H   0  0  0  0  0  0
  -21.0980  -16.8585   23.4545 H   0  0  0  0  0  0
  -23.7895  -18.1937   23.2982 H   0  0  0  0  0  0
  -22.4164  -19.0777   23.5191 H   0  0  0  0  0  0
  -21.2677  -14.2330   22.0880 H   0  0  0  0  0  0
  -21.1584  -14.0323   23.6225 H   0  0  0  0  0  0
  -24.9260  -22.6787   22.7371 H   0  0  0  0  0  0
  -23.7125  -23.1005   21.6173 H   0  0  0  0  0  0
  -24.9102  -19.9884   22.1593 H   0  0  0  0  0  0
  -24.4341   -8.8695   20.9470 H   0  0  0  0  0  0
  -28.8980  -13.7335   23.4685 H   0  0  0  0  0  0
  1 25  1  0  0  0
  1 30  2  0  0  0
  1 84  1  0  0  0
  2  3  1  0  0  0
  2 25  1  0  0  0
  2 85  1  0  0  0
  2 86  1  0  0  0
  3  4  1  0  0  0
  3 87  1  0  0  0
  3 88  1  0  0  0
  4  5  1  0  0  0
  4 89  1  0  0  0
  4 90  1  0  0  0
  5  6  1  0  0  0
  5 26  1  0  0  0
  5 91  1  0  0  0
  6 25  1  0  0  0
  6 92  1  0  0  0
  6 93  1  0  0  0
  7  8  2  0  0  0
  7 26  1  0  0  0
  7 29  1  0  0  0
  8  9  1  0  0  0
  8 22  1  0  0  0
  9 10  1  0  0  0
  9 27  2  0  0  0
 10 11  2  0  0  0
 10 15  1  0  0  0
 11 12  1  0  0  0
 11 94  1  0  0  0
 12 13  2  0  0  0
 12 95  1  0  0  0
 13 14  1  0  0  0
 13 31  1  0  0  0
 14 15  2  0  0  0
 14 96  1  0  0  0
 15 97  1  0  0  0
 16 17  2  0  0  0
 16 21  1  0  0  0
 16 31  1  0  0  0
 17 18  1  0  0  0
 17 98  1  0  0  0
 18 19  2  0  0  0
 18 99  1  0  0  0
 19 20  1  0  0  0
 19 24  1  0  0  0
 20 21  2  0  0  0
 20100  1  0  0  0
 21 23  1  0  0  0
 22 28  1  0  0  0
 22 32  2  0  0  0
 26 27  1  0  0  0
 28101  1  0  0  0
 28102  1  0  0  0
 29103  1  0  0  0
 29104  1  0  0  0
 33 34  1  0  0  0
 33 66  1  0  0  0
 33 70  2  0  0  0
 34 36  1  0  0  0
 34 59  1  0  0  0
 34105  1  0  0  0
 35 44  2  0  0  0
 35 45  1  0  0  0
 35 68  1  0  0  0
 36 56  1  0  0  0
 36106  1  0  0  0
 37 39  1  0  0  0
 37 47  1  0  0  0
 37 66  1  0  0  0
 37107  1  0  0  0
 38 43  2  0  0  0
 38 46  1  0  0  0
 38 47  1  0  0  0
 39 64  1  0  0  0
 39 67  2  0  0  0
 40 52  1  0  0  0
 40 53  2  0  0  0
 40 58  1  0  0  0
 41108  1  0  0  0
 41109  1  0  0  0
 41110  1  0  0  0
 41 48  1  0  0  0
 42 43  1  0  0  0
 42 66  1  0  0  0
 42111  1  0  0  0
 42112  1  0  0  0
 43 44  1  0  0  0
 44113  1  0  0  0
 45 46  2  0  0  0
 45114  1  0  0  0
 46115  1  0  0  0
 47116  1  0  0  0
 47117  1  0  0  0
 48 56  1  0  0  0
 48 65  1  0  0  0
 48118  1  0  0  0
 49 50  1  0  0  0
 49 53  1  0  0  0
 49 64  1  0  0  0
 49119  1  0  0  0
 50 51  1  0  0  0
 50120  1  0  0  0
 50121  1  0  0  0
 51 52  1  0  0  0
 51122  1  0  0  0
 51123  1  0  0  0
 52124  1  0  0  0
 52125  1  0  0  0
 53 54  1  0  0  0
 54 55  2  0  0  0
 54126  1  0  0  0
 55 57  1  0  0  0
 55127  1  0  0  0
 56 69  2  0  0  0
 57 58  2  0  0  0
 57128  1  0  0  0
 58129  1  0  0  0
 59 60  1  0  0  0
 59 61  1  0  0  0
 59 62  1  0  0  0
 60130  1  0  0  0
 60131  1  0  0  0
 60132  1  0  0  0
 61133  1  0  0  0
 61134  1  0  0  0
 61135  1  0  0  0
 62136  1  0  0  0
 62137  1  0  0  0
 62138  1  0  0  0
 63 65  1  0  0  0
 63139  1  0  0  0
 63140  1  0  0  0
 63141  1  0  0  0
 64142  1  0  0  0
 65143  1  0  0  0
 68 80  1  0  0  0
 71 72  2  0  0  0
 71 83  1  0  0  0
 71144  1  0  0  0
 72 76  1  0  0  0
 72 82  1  0  0  0
 73 74  1  0  0  0
 73 82  1  0  0  0
 73 83  2  0  0  0
 74145  1  0  0  0
 74146  1  0  0  0
 74147  1  0  0  0
 75148  1  0  0  0
 75149  1  0  0  0
 75150  1  0  0  0
 75 81  1  0  0  0
 76 84  1  0  0  0
 76151  1  0  0  0
 76152  1  0  0  0
 77 78  1  0  0  0
 77 79  1  0  0  0
 77153  1  0  0  0
 77154  1  0  0  0
 78 81  1  0  0  0
 78155  1  0  0  0
 78156  1  0  0  0
 79 82  1  0  0  0
 79157  1  0  0  0
 79158  1  0  0  0
 80 81  1  0  0  0
 80159  1  0  0  0
 80160  1  0  0  0
 81161  1  0  0  0
 83162  1  0  0  0
 84163  1  0  0  0
M  CHG  1  83   1
M  ISO  4   1 100  68 101  80 101  84 100
M  END
> <chiral flag>
0

> <version>
0

> <s_m_source_file>
/data/baiqing/PycharmProjects/Reinvent-master-3.2/result/LINK_invent/BTK/process_docking_weight1_custom_sum_contain_oxygen_bond_distance_aromatic_linkinvent_7_9_3/rearranged_h_0078.sdf

> <i_m_source_file_index>
75

> <r_mmod_Potential_Energy-OPLS-2005>
27266.525390625

> <r_mmod_Stretch_Energy-OPLS-2005>
14957.986328125

> <r_mmod_Bend_Energy-OPLS-2005>
1783.376953125

> <r_mmod_Torsional_Energy-OPLS-2005>
527.904541015625

> <r_mmod_Improper_Torsional_Energy-OPLS-2005>
43.5909729003906

> <r_mmod_Van_der_Waal_Energy-OPLS-2005>
4231.458984375

> <r_mmod_Electrostatic_Energy-OPLS-2005>
-260.788330078125

> <r_mmod_Solvation_Energy-OPLS-2005>
-407.750396728516

> <b_mmod_Minimization_Converged-OPLS-2005>
0

> <r_mmod_RMS_Derivative-OPLS-2005>
99.9990005493164

$$$$
75
                    3D
 Structure written by MMmdl.
167175  0  0  1  0            999 V2000
  -30.6958  -14.4600   20.5783 C   0  0  0  0  0  0
  -30.4249  -12.3055   19.4131 C   0  0  0  0  0  0
  -29.4900  -12.4944   18.2003 C   0  0  0  0  0  0
  -28.0110  -12.3649   18.6164 C   0  0  0  0  0  0
  -27.6616  -13.2002   19.8761 C   0  0  2  0  0  0
  -28.7033  -12.9730   20.9941 C   0  0  0  0  0  0
  -25.2598  -13.8147   20.5688 C   0  0  0  0  0  0
  -24.1827  -13.0460   20.9170 C   0  0  0  0  0  0
  -24.6344  -11.6916   20.8707 C   0  0  0  0  0  0
  -23.8992  -10.4316   21.0376 C   0  0  0  0  0  0
  -24.3572   -9.4243   21.9156 C   0  0  0  0  0  0
  -23.6293   -8.2255   22.0731 C   0  0  0  0  0  0
  -22.4274   -8.0273   21.3527 C   0  0  0  0  0  0
  -21.9880   -9.0227   20.4616 C   0  0  0  0  0  0
  -22.7162  -10.2138   20.3030 C   0  0  0  0  0  0
  -21.6859   -6.0724   22.5270 C   0  0  0  0  0  0
  -21.4005   -6.5625   23.8199 C   0  0  0  0  0  0
  -21.3668   -5.6785   24.9165 C   0  0  0  0  0  0
  -21.6053   -4.3051   24.7214 C   0  0  0  0  0  0
  -21.8827   -3.8135   23.4335 C   0  0  0  0  0  0
  -21.9201   -4.6951   22.3395 C   0  0  0  0  0  0
  -22.7854  -13.5258   21.1878 C   0  0  0  0  0  0
  -22.1670   -4.2136   21.0977 F   0  0  0  0  0  0
  -21.5652   -3.4536   25.7727 F   0  0  0  0  0  0
  -30.0327  -13.2821   20.4401 N   0  0  0  0  0  0
  -26.3015  -12.9299   20.3372 N   0  0  0  0  0  0
  -25.9265  -11.6465   20.5731 N   0  0  0  0  0  0
  -22.0499  -12.8214   22.0411 N   0  0  0  0  0  0
  -25.4396  -15.1864   20.4096 N   0  0  0  0  0  0
  -31.8193  -14.6583   20.1070 O   0  0  0  0  0  0
  -21.6656   -6.8859   21.4231 O   0  0  0  0  0  0
  -22.3538  -14.5594   20.6778 O   0  0  0  0  0  0
  -24.6115  -31.8696   23.2122 C   0  0  0  0  0  0
  -25.9040  -32.4812   23.8383 C   0  0  1  0  0  0
  -27.2246  -27.4495   20.0990 C   0  0  0  0  0  0
  -25.5920  -33.8611   24.2327 N   0  0  0  0  0  0
  -23.3958  -30.4956   21.5499 C   0  0  2  0  0  0
  -24.8428  -28.9667   20.1099 C   0  0  0  0  0  0
  -22.7387  -29.4668   22.4973 C   0  0  0  0  0  0
  -18.0278  -28.1366   22.8508 C   0  0  0  0  0  0
  -24.1492  -36.7294   23.2631 C   0  0  0  0  0  0
  -25.9206  -30.8421   21.3599 C   0  0  0  0  0  0
  -25.9988  -29.4752   20.7164 C   0  0  0  0  0  0
  -27.1917  -28.7191   20.7195 C   0  0  0  0  0  0
  -26.0645  -26.9645   19.4657 C   0  0  0  0  0  0
  -24.8679  -27.7074   19.4860 C   0  0  0  0  0  0
  -23.6018  -29.8294   20.1634 C   0  0  0  0  0  0
  -25.4110  -36.3093   24.0328 C   0  0  1  0  0  0
  -20.5868  -28.3642   23.1330 C   0  0  2  0  0  0
  -20.6761  -26.9377   22.5423 C   0  0  0  0  0  0
  -19.5736  -26.6382   21.5219 C   0  0  0  0  0  0
  -18.1912  -26.7924   22.1629 C   0  0  0  0  0  0
  -19.1526  -28.8820   23.2916 C   0  0  0  0  0  0
  -18.9468  -30.1444   23.8904 C   0  0  0  0  0  0
  -17.6473  -30.6576   24.0569 C   0  0  0  0  0  0
  -25.9048  -34.9465   23.5119 C   0  0  0  0  0  0
  -16.5360  -29.9082   23.6334 C   0  0  0  0  0  0
  -16.7273  -28.6500   23.0350 C   0  0  0  0  0  0
  -26.4491  -31.6577   25.0689 C   0  0  0  0  0  0
  -25.3782  -31.3666   26.1458 C   0  0  0  0  0  0
  -27.0304  -30.3026   24.5999 C   0  0  0  0  0  0
  -27.6079  -32.4282   25.7459 C   0  0  0  0  0  0
  -27.5570  -37.1787   24.8467 C   0  0  0  0  0  0
  -21.4121  -29.3025   22.3729 N   0  0  0  0  0  0
  -26.4287  -37.3776   23.9412 N   0  0  0  0  0  0
  -24.6606  -31.0841   22.0998 N   0  0  0  0  0  0
  -23.4184  -28.8200   23.2983 O   0  0  0  0  0  0
  -28.3614  -26.6759   20.0627 O   0  0  0  0  0  0
  -26.5597  -34.8916   22.4674 O   0  0  0  0  0  0
  -23.5339  -32.1435   23.7563 O   0  0  0  0  0  0
  -29.9954  -21.4956   18.5687 C   0  0  0  0  0  0
  -29.8799  -20.0729   20.1061 C   0  0  0  0  0  0
  -29.7951  -22.6994   17.7088 C   0  0  0  0  0  0
  -27.0559  -24.5615   21.8029 C   0  0  0  0  0  0
  -29.2244  -24.4653   23.0425 C   0  0  0  0  0  0
  -29.5845  -19.3524   21.4056 C   0  0  0  0  0  0
  -29.2048  -17.8474   21.2756 C   0  0  0  0  0  0
  -29.1943  -23.8211   20.5922 C   0  0  0  0  0  0
  -28.8014  -22.3165   20.6971 C   0  0  0  0  0  0
  -30.4044  -16.8691   21.1875 C   0  0  0  0  0  0
  -28.8808  -26.2605   21.3322 C   0  0  0  0  0  0
  -28.5806  -24.7664   21.6719 C   0  0  0  0  0  0
  -30.6381  -20.4171   18.1111 N   0  0  0  0  0  0
  -30.5782  -19.4955   19.1200 N   0  0  0  0  0  0
  -29.5449  -21.3686   19.8445 N   0  0  0  0  0  0
  -29.9875  -15.4589   21.1339 N   0  0  0  0  0  0
  -31.4667  -12.4176   19.1056 H   0  0  0  0  0  0
  -30.3411  -11.2938   19.8128 H   0  0  0  0  0  0
  -29.7232  -11.7602   17.4284 H   0  0  0  0  0  0
  -29.6610  -13.4730   17.7489 H   0  0  0  0  0  0
  -27.8113  -11.3100   18.8073 H   0  0  0  0  0  0
  -27.3633  -12.6489   17.7871 H   0  0  0  0  0  0
  -27.7115  -14.2485   19.5823 H   0  0  0  0  0  0
  -28.6800  -11.9341   21.3273 H   0  0  0  0  0  0
  -28.4643  -13.5639   21.8797 H   0  0  0  0  0  0
  -25.2709   -9.5767   22.4722 H   0  0  0  0  0  0
  -24.0034   -7.4647   22.7439 H   0  0  0  0  0  0
  -21.0818   -8.8691   19.8908 H   0  0  0  0  0  0
  -22.3568  -10.9666   19.6145 H   0  0  0  0  0  0
  -21.1973   -7.6128   23.9690 H   0  0  0  0  0  0
  -21.1493   -6.0517   25.9072 H   0  0  0  0  0  0
  -22.0601   -2.7591   23.2834 H   0  0  0  0  0  0
  -22.4117  -11.9868   22.4792 H   0  0  0  0  0  0
  -21.1106  -13.1207   22.2623 H   0  0  0  0  0  0
  -24.6889  -15.8572   20.5304 H   0  0  0  0  0  0
  -26.2978  -15.6091   20.0815 H   0  0  0  0  0  0
  -26.7094  -32.5521   23.1140 H   0  0  0  0  0  0
  -25.0131  -33.9772   25.0512 H   0  0  0  0  0  0
  -22.6836  -31.3124   21.4138 H   0  0  0  0  0  0
  -23.3745  -35.9628   23.3308 H   0  0  0  0  0  0
  -24.3590  -36.8903   22.2042 H   0  0  0  0  0  0
  -23.7269  -37.6502   23.6661 H   0  0  0  0  0  0
  -26.0264  -31.6059   20.5873 H   0  0  0  0  0  0
  -26.8129  -30.8996   21.9699 H   0  0  0  0  0  0
  -28.0832  -29.1096   21.1885 H   0  0  0  0  0  0
  -26.0797  -26.0038   18.9717 H   0  0  0  0  0  0
  -23.9794  -27.3134   19.0118 H   0  0  0  0  0  0
  -23.7014  -30.6049   19.4037 H   0  0  0  0  0  0
  -22.7258  -29.2460   19.8697 H   0  0  0  0  0  0
  -25.1286  -36.1945   25.0819 H   0  0  0  0  0  0
  -20.9976  -28.3203   24.1449 H   0  0  0  0  0  0
  -20.5660  -26.2238   23.3602 H   0  0  0  0  0  0
  -21.6622  -26.7423   22.1202 H   0  0  0  0  0  0
  -19.6890  -25.6301   21.1227 H   0  0  0  0  0  0
  -19.6678  -27.3208   20.6770 H   0  0  0  0  0  0
  -17.4188  -26.6713   21.4026 H   0  0  0  0  0  0
  -18.0293  -26.0055   22.9013 H   0  0  0  0  0  0
  -19.7942  -30.7262   24.2250 H   0  0  0  0  0  0
  -17.5030  -31.6256   24.5164 H   0  0  0  0  0  0
  -15.5355  -30.2978   23.7660 H   0  0  0  0  0  0
  -15.8684  -28.0824   22.7050 H   0  0  0  0  0  0
  -24.5979  -30.6977   25.7825 H   0  0  0  0  0  0
  -24.8933  -32.2803   26.4902 H   0  0  0  0  0  0
  -25.8164  -30.8873   27.0220 H   0  0  0  0  0  0
  -26.2800  -29.6774   24.1144 H   0  0  0  0  0  0
  -27.4211  -29.7264   25.4395 H   0  0  0  0  0  0
  -27.8575  -30.4349   23.9020 H   0  0  0  0  0  0
  -27.2719  -33.3595   26.2030 H   0  0  0  0  0  0
  -28.3903  -32.6819   25.0295 H   0  0  0  0  0  0
  -28.0722  -31.8393   26.5377 H   0  0  0  0  0  0
  -28.2590  -38.0080   24.7515 H   0  0  0  0  0  0
  -28.1065  -36.2619   24.6305 H   0  0  0  0  0  0
  -27.2285  -37.1430   25.8864 H   0  0  0  0  0  0
  -20.9275  -29.8753   21.6963 H   0  0  0  0  0  0
  -26.0171  -38.2839   24.1447 H   0  0  0  0  0  0
  -30.0402  -22.4652   16.6717 H   0  0  0  0  0  0
  -30.4403  -23.5151   18.0352 H   0  0  0  0  0  0
  -28.7543  -23.0189   17.7343 H   0  0  0  0  0  0
  -26.8108  -23.6144   22.2850 H   0  0  0  0  0  0
  -26.5594  -24.5610   20.8333 H   0  0  0  0  0  0
  -26.6039  -25.3513   22.4051 H   0  0  0  0  0  0
  -28.9361  -23.4864   23.4274 H   0  0  0  0  0  0
  -28.9297  -25.1996   23.7927 H   0  0  0  0  0  0
  -30.3132  -24.4890   22.9827 H   0  0  0  0  0  0
  -28.7416  -19.8462   21.8864 H   0  0  0  0  0  0
  -30.4267  -19.4815   22.0849 H   0  0  0  0  0  0
  -28.5243  -17.7108   20.4331 H   0  0  0  0  0  0
  -28.6322  -17.5758   22.1639 H   0  0  0  0  0  0
  -28.8839  -24.2076   19.6245 H   0  0  0  0  0  0
  -30.2824  -23.9113   20.6124 H   0  0  0  0  0  0
  -27.7421  -22.1946   20.4755 H   0  0  0  0  0  0
  -28.9369  -22.0062   21.7307 H   0  0  0  0  0  0
  -31.0579  -16.9994   22.0512 H   0  0  0  0  0  0
  -31.0031  -17.1039   20.3056 H   0  0  0  0  0  0
  -29.9590  -26.4180   21.3129 H   0  0  0  0  0  0
  -28.5181  -26.8970   22.1424 H   0  0  0  0  0  0
  -29.0715  -15.2232   21.4884 H   0  0  0  0  0  0
  1 25  1  0  0  0
  1 30  2  0  0  0
  1 86  1  0  0  0
  2  3  1  0  0  0
  2 25  1  0  0  0
  2 87  1  0  0  0
  2 88  1  0  0  0
  3  4  1  0  0  0
  3 89  1  0  0  0
  3 90  1  0  0  0
  4  5  1  0  0  0
  4 91  1  0  0  0
  4 92  1  0  0  0
  5  6  1  0  0  0
  5 26  1  0  0  0
  5 93  1  0  0  0
  6 25  1  0  0  0
  6 94  1  0  0  0
  6 95  1  0  0  0
  7  8  2  0  0  0
  7 26  1  0  0  0
  7 29  1  0  0  0
  8  9  1  0  0  0
  8 22  1  0  0  0
  9 10  1  0  0  0
  9 27  2  0  0  0
 10 11  2  0  0  0
 10 15  1  0  0  0
 11 12  1  0  0  0
 11 96  1  0  0  0
 12 13  2  0  0  0
 12 97  1  0  0  0
 13 14  1  0  0  0
 13 31  1  0  0  0
 14 15  2  0  0  0
 14 98  1  0  0  0
 15 99  1  0  0  0
 16 17  2  0  0  0
 16 21  1  0  0  0
 16 31  1  0  0  0
 17 18  1  0  0  0
 17100  1  0  0  0
 18 19  2  0  0  0
 18101  1  0  0  0
 19 20  1  0  0  0
 19 24  1  0  0  0
 20 21  2  0  0  0
 20102  1  0  0  0
 21 23  1  0  0  0
 22 28  1  0  0  0
 22 32  2  0  0  0
 26 27  1  0  0  0
 28103  1  0  0  0
 28104  1  0  0  0
 29105  1  0  0  0
 29106  1  0  0  0
 33 34  1  0  0  0
 33 66  1  0  0  0
 33 70  2  0  0  0
 34 36  1  0  0  0
 34 59  1  0  0  0
 34107  1  0  0  0
 35 44  2  0  0  0
 35 45  1  0  0  0
 35 68  1  0  0  0
 36 56  1  0  0  0
 36108  1  0  0  0
 37 39  1  0  0  0
 37 47  1  0  0  0
 37 66  1  0  0  0
 37109  1  0  0  0
 38 43  2  0  0  0
 38 46  1  0  0  0
 38 47  1  0  0  0
 39 64  1  0  0  0
 39 67  2  0  0  0
 40 52  1  0  0  0
 40 53  2  0  0  0
 40 58  1  0  0  0
 41110  1  0  0  0
 41111  1  0  0  0
 41112  1  0  0  0
 41 48  1  0  0  0
 42 43  1  0  0  0
 42 66  1  0  0  0
 42113  1  0  0  0
 42114  1  0  0  0
 43 44  1  0  0  0
 44115  1  0  0  0
 45 46  2  0  0  0
 45116  1  0  0  0
 46117  1  0  0  0
 47118  1  0  0  0
 47119  1  0  0  0
 48 56  1  0  0  0
 48 65  1  0  0  0
 48120  1  0  0  0
 49 50  1  0  0  0
 49 53  1  0  0  0
 49 64  1  0  0  0
 49121  1  0  0  0
 50 51  1  0  0  0
 50122  1  0  0  0
 50123  1  0  0  0
 51 52  1  0  0  0
 51124  1  0  0  0
 51125  1  0  0  0
 52126  1  0  0  0
 52127  1  0  0  0
 53 54  1  0  0  0
 54 55  2  0  0  0
 54128  1  0  0  0
 55 57  1  0  0  0
 55129  1  0  0  0
 56 69  2  0  0  0
 57 58  2  0  0  0
 57130  1  0  0  0
 58131  1  0  0  0
 59 60  1  0  0  0
 59 61  1  0  0  0
 59 62  1  0  0  0
 60132  1  0  0  0
 60133  1  0  0  0
 60134  1  0  0  0
 61135  1  0  0  0
 61136  1  0  0  0
 61137  1  0  0  0
 62138  1  0  0  0
 62139  1  0  0  0
 62140  1  0  0  0
 63 65  1  0  0  0
 63141  1  0  0  0
 63142  1  0  0  0
 63143  1  0  0  0
 64144  1  0  0  0
 65145  1  0  0  0
 68 81  1  0  0  0
 71 73  1  0  0  0
 71 83  2  0  0  0
 71 85  1  0  0  0
 72 76  1  0  0  0
 72 84  2  0  0  0
 72 85  1  0  0  0
 73146  1  0  0  0
 73147  1  0  0  0
 73148  1  0  0  0
 74149  1  0  0  0
 74150  1  0  0  0
 74151  1  0  0  0
 74 82  1  0  0  0
 75 82  1  0  0  0
 75152  1  0  0  0
 75153  1  0  0  0
 75154  1  0  0  0
 76 77  1  0  0  0
 76155  1  0  0  0
 76156  1  0  0  0
 77 80  1  0  0  0
 77157  1  0  0  0
 77158  1  0  0  0
 78 79  1  0  0  0
 78 82  1  0  0  0
 78159  1  0  0  0
 78160  1  0  0  0
 79 85  1  0  0  0
 79161  1  0  0  0
 79162  1  0  0  0
 80 86  1  0  0  0
 80163  1  0  0  0
 80164  1  0  0  0
 81 82  1  0  0  0
 81165  1  0  0  0
 81166  1  0  0  0
 83 84  1  0  0  0
 86167  1  0  0  0
M  ISO  4   1 100  68 101  81 101  86 100
M  END
> <chiral flag>
0

> <version>
0

> <s_m_source_file>
/data/baiqing/PycharmProjects/Reinvent-master-3.2/result/LINK_invent/BTK/process_docking_weight1_custom_sum_contain_oxygen_bond_distance_aromatic_linkinvent_7_9_3/rearranged_h_0078.sdf

> <i_m_source_file_index>
76

> <r_mmod_Potential_Energy-OPLS-2005>
-98.9276351928711

> <r_mmod_Stretch_Energy-OPLS-2005>
39.2561645507812

> <r_mmod_Bend_Energy-OPLS-2005>
113.76863861084

> <r_mmod_Torsional_Energy-OPLS-2005>
243.022689819336

> <r_mmod_Improper_Torsional_Energy-OPLS-2005>
3.70161247253418

> <r_mmod_Van_der_Waal_Energy-OPLS-2005>
130.715698242188

> <r_mmod_Electrostatic_Energy-OPLS-2005>
-400.430847167969

> <r_mmod_Solvation_Energy-OPLS-2005>
-240.188232421875

> <b_mmod_Minimization_Converged-OPLS-2005>
0

> <r_mmod_RMS_Derivative-OPLS-2005>
3.07585978507996

$$$$
76
                    3D
 Structure written by MMmdl.
165173  0  0  1  0            999 V2000
  -30.7596  -14.4223   20.6721 C   0  0  0  0  0  0
  -30.4202  -12.3053   19.4384 C   0  0  0  0  0  0
  -29.5014  -12.5069   18.2199 C   0  0  0  0  0  0
  -28.0240  -12.3549   18.6311 C   0  0  0  0  0  0
  -27.6649  -13.2007   19.8802 C   0  0  2  0  0  0
  -28.6993  -12.9729   21.0075 C   0  0  0  0  0  0
  -25.2552  -13.8121   20.5668 C   0  0  0  0  0  0
  -24.1804  -13.0386   20.9154 C   0  0  0  0  0  0
  -24.6380  -11.6881   20.8715 C   0  0  0  0  0  0
  -23.9035  -10.4273   21.0376 C   0  0  0  0  0  0
  -24.3592   -9.4193   21.9154 C   0  0  0  0  0  0
  -23.6274   -8.2228   22.0725 C   0  0  0  0  0  0
  -22.4248   -8.0266   21.3529 C   0  0  0  0  0  0
  -21.9884   -9.0236   20.4628 C   0  0  0  0  0  0
  -22.7205  -10.2117   20.3024 C   0  0  0  0  0  0
  -21.6849   -6.0705   22.5276 C   0  0  0  0  0  0
  -21.4006   -6.5605   23.8213 C   0  0  0  0  0  0
  -21.3656   -5.6760   24.9173 C   0  0  0  0  0  0
  -21.6042   -4.3017   24.7236 C   0  0  0  0  0  0
  -21.8810   -3.8114   23.4351 C   0  0  0  0  0  0
  -21.9204   -4.6937   22.3413 C   0  0  0  0  0  0
  -22.7821  -13.5202   21.1868 C   0  0  0  0  0  0
  -22.1670   -4.2111   21.0989 F   0  0  0  0  0  0
  -21.5644   -3.4514   25.7755 F   0  0  0  0  0  0
  -30.0381  -13.2817   20.4757 N   0  0  0  0  0  0
  -26.3029  -12.9316   20.3384 N   0  0  0  0  0  0
  -25.9303  -11.6458   20.5744 N   0  0  0  0  0  0
  -22.0475  -12.8184   22.0440 N   0  0  0  0  0  0
  -25.4108  -15.1847   20.4106 N   0  0  0  0  0  0
  -31.8144  -14.6489   20.0790 O   0  0  0  0  0  0
  -21.6616   -6.8861   21.4238 O   0  0  0  0  0  0
  -22.3478  -14.5509   20.6732 O   0  0  0  0  0  0
  -24.6104  -31.8699   23.2128 C   0  0  0  0  0  0
  -25.9013  -32.4842   23.8409 C   0  0  1  0  0  0
  -27.2428  -27.4651   20.0828 C   0  0  0  0  0  0
  -25.5876  -33.8641   24.2329 N   0  0  0  0  0  0
  -23.3992  -30.4911   21.5548 C   0  0  2  0  0  0
  -24.8472  -28.9601   20.1212 C   0  0  0  0  0  0
  -22.7397  -29.4640   22.5018 C   0  0  0  0  0  0
  -18.0271  -28.1331   22.8478 C   0  0  0  0  0  0
  -24.1477  -36.7337   23.2642 C   0  0  0  0  0  0
  -25.9244  -30.8425   21.3642 C   0  0  0  0  0  0
  -26.0042  -29.4733   20.7227 C   0  0  0  0  0  0
  -27.2034  -28.7276   20.7120 C   0  0  0  0  0  0
  -26.0751  -26.9684   19.4650 C   0  0  0  0  0  0
  -24.8730  -27.7010   19.4960 C   0  0  0  0  0  0
  -23.6076  -29.8251   20.1691 C   0  0  0  0  0  0
  -25.4100  -36.3134   24.0337 C   0  0  1  0  0  0
  -20.5841  -28.3642   23.1336 C   0  0  2  0  0  0
  -20.6774  -26.9369   22.5481 C   0  0  0  0  0  0
  -19.5781  -26.6343   21.5242 C   0  0  0  0  0  0
  -18.1934  -26.7895   22.1587 C   0  0  0  0  0  0
  -19.1501  -28.8807   23.2899 C   0  0  0  0  0  0
  -18.9437  -30.1414   23.8884 C   0  0  0  0  0  0
  -17.6439  -30.6566   24.0496 C   0  0  0  0  0  0
  -25.9027  -34.9495   23.5134 C   0  0  0  0  0  0
  -16.5340  -29.9040   23.6261 C   0  0  0  0  0  0
  -16.7255  -28.6432   23.0339 C   0  0  0  0  0  0
  -26.4447  -31.6616   25.0704 C   0  0  0  0  0  0
  -25.3712  -31.3718   26.1447 C   0  0  0  0  0  0
  -27.0264  -30.3063   24.6051 C   0  0  0  0  0  0
  -27.6026  -32.4315   25.7469 C   0  0  0  0  0  0
  -27.5577  -37.1834   24.8473 C   0  0  0  0  0  0
  -21.4113  -29.3057   22.3785 N   0  0  0  0  0  0
  -26.4298  -37.3803   23.9405 N   0  0  0  0  0  0
  -24.6626  -31.0814   22.1029 N   0  0  0  0  0  0
  -23.4191  -28.8140   23.3007 O   0  0  0  0  0  0
  -28.4282  -26.7781   19.9748 O   0  0  0  0  0  0
  -26.5590  -34.8953   22.4700 O   0  0  0  0  0  0
  -23.5299  -32.1435   23.7547 O   0  0  0  0  0  0
  -28.1197  -19.7596   22.1121 C   0  0  0  0  0  0
  -26.7835  -20.0725   22.1004 C   0  0  0  0  0  0
  -26.1613  -18.8487   21.7199 C   0  0  0  0  0  0
  -24.6963  -18.5465   21.5800 C   0  0  0  0  0  0
  -30.1817  -17.9987   20.3437 C   0  0  0  0  0  0
  -26.0394  -21.3446   22.4742 C   0  0  0  0  0  0
  -26.6946  -22.7316   22.1909 C   0  0  0  0  0  0
  -27.9898  -23.2616   21.5091 C   0  0  0  0  0  0
  -27.6723  -24.5219   20.6748 C   0  0  0  0  0  0
  -29.1879  -16.0729   21.7186 C   0  0  0  0  0  0
  -28.6503  -25.6968   20.8791 C   0  0  0  0  0  0
  -29.4615  -17.6067   21.6425 C   0  0  2  0  0  0
  -27.0356  -17.8838   21.5002 N   0  0  0  0  0  0
  -28.2446  -18.4181   21.7776 N   0  0  0  0  0  0
  -30.4022  -15.2395   21.6773 N   0  0  0  0  0  0
  -31.4683  -12.3856   19.1460 H   0  0  0  0  0  0
  -30.3047  -11.2915   19.8245 H   0  0  0  0  0  0
  -29.7453  -11.7782   17.4464 H   0  0  0  0  0  0
  -29.6734  -13.4908   17.7833 H   0  0  0  0  0  0
  -27.8537  -11.3008   18.8475 H   0  0  0  0  0  0
  -27.3681  -12.6010   17.7971 H   0  0  0  0  0  0
  -27.7071  -14.2440   19.5734 H   0  0  0  0  0  0
  -28.6715  -11.9327   21.3320 H   0  0  0  0  0  0
  -28.4461  -13.5458   21.8971 H   0  0  0  0  0  0
  -25.2731   -9.5657   22.4730 H   0  0  0  0  0  0
  -23.9969   -7.4591   22.7410 H   0  0  0  0  0  0
  -21.0820   -8.8733   19.8929 H   0  0  0  0  0  0
  -22.3643  -10.9640   19.6129 H   0  0  0  0  0  0
  -21.1961   -7.6106   23.9704 H   0  0  0  0  0  0
  -21.1503   -6.0493   25.9080 H   0  0  0  0  0  0
  -22.0600   -2.7576   23.2872 H   0  0  0  0  0  0
  -22.4078  -11.9858   22.4864 H   0  0  0  0  0  0
  -21.1074  -13.1173   22.2610 H   0  0  0  0  0  0
  -24.6285  -15.8101   20.5596 H   0  0  0  0  0  0
  -26.2868  -15.6827   20.3001 H   0  0  0  0  0  0
  -26.7060  -32.5565   23.1184 H   0  0  0  0  0  0
  -24.9988  -33.9802   25.0442 H   0  0  0  0  0  0
  -22.6851  -31.3049   21.4188 H   0  0  0  0  0  0
  -23.3721  -35.9686   23.3329 H   0  0  0  0  0  0
  -24.3572  -36.8920   22.2048 H   0  0  0  0  0  0
  -23.7255  -37.6569   23.6625 H   0  0  0  0  0  0
  -26.0256  -31.5997   20.5851 H   0  0  0  0  0  0
  -26.8160  -30.9054   21.9752 H   0  0  0  0  0  0
  -28.1009  -29.1261   21.1627 H   0  0  0  0  0  0
  -26.0959  -26.0270   18.9353 H   0  0  0  0  0  0
  -23.9880  -27.3079   19.0128 H   0  0  0  0  0  0
  -23.7117  -30.6003   19.4089 H   0  0  0  0  0  0
  -22.7324  -29.2423   19.8739 H   0  0  0  0  0  0
  -25.1277  -36.2012   25.0823 H   0  0  0  0  0  0
  -20.9906  -28.3281   24.1476 H   0  0  0  0  0  0
  -21.6660  -26.7368   22.1346 H   0  0  0  0  0  0
  -20.5634  -26.2235   23.3667 H   0  0  0  0  0  0
  -19.6936  -25.6243   21.1297 H   0  0  0  0  0  0
  -19.6751  -27.3152   20.6762 H   0  0  0  0  0  0
  -17.4269  -26.6711   21.3922 H   0  0  0  0  0  0
  -18.0241  -25.9980   22.8908 H   0  0  0  0  0  0
  -19.7922  -30.7234   24.2241 H   0  0  0  0  0  0
  -17.4972  -31.6277   24.5071 H   0  0  0  0  0  0
  -15.5333  -30.2926   23.7477 H   0  0  0  0  0  0
  -15.8672  -28.0737   22.7072 H   0  0  0  0  0  0
  -24.5866  -30.7099   25.7787 H   0  0  0  0  0  0
  -24.8913  -32.2859   26.4931 H   0  0  0  0  0  0
  -25.8040  -30.8853   27.0193 H   0  0  0  0  0  0
  -26.2799  -29.6853   24.1076 H   0  0  0  0  0  0
  -27.4023  -29.7274   25.4500 H   0  0  0  0  0  0
  -27.8630  -30.4402   23.9191 H   0  0  0  0  0  0
  -27.2653  -33.3594   26.2115 H   0  0  0  0  0  0
  -28.3806  -32.6920   25.0275 H   0  0  0  0  0  0
  -28.0727  -31.8388   26.5338 H   0  0  0  0  0  0
  -28.2629  -38.0099   24.7475 H   0  0  0  0  0  0
  -28.1036  -36.2630   24.6337 H   0  0  0  0  0  0
  -27.2291  -37.1538   25.8880 H   0  0  0  0  0  0
  -20.9241  -29.8860   21.7088 H   0  0  0  0  0  0
  -26.0193  -38.2888   24.1386 H   0  0  0  0  0  0
  -28.9821  -20.3662   22.3475 H   0  0  0  0  0  0
  -24.4769  -17.4992   21.7897 H   0  0  0  0  0  0
  -24.3439  -18.7669   20.5716 H   0  0  0  0  0  0
  -24.1010  -19.1300   22.2793 H   0  0  0  0  0  0
  -29.5706  -17.7418   19.4780 H   0  0  0  0  0  0
  -30.3666  -19.0734   20.3098 H   0  0  0  0  0  0
  -31.1463  -17.5016   20.2416 H   0  0  0  0  0  0
  -25.7689  -21.2967   23.5305 H   0  0  0  0  0  0
  -25.0591  -21.3358   21.9863 H   0  0  0  0  0  0
  -26.4633  -22.4468   21.1592 H   0  0  0  0  0  0
  -27.4003  -22.3380   22.9227 H   0  0  0  0  0  0
  -28.4695  -22.5074   20.8790 H   0  0  0  0  0  0
  -28.7517  -23.5437   22.2430 H   0  0  0  0  0  0
  -26.6742  -24.8655   20.9429 H   0  0  0  0  0  0
  -27.6230  -24.2572   19.6182 H   0  0  0  0  0  0
  -28.5190  -15.7923   20.9081 H   0  0  0  0  0  0
  -28.6568  -15.8504   22.6457 H   0  0  0  0  0  0
  -29.6713  -25.3468   20.7151 H   0  0  0  0  0  0
  -28.6142  -26.0612   21.9077 H   0  0  0  0  0  0
  -30.1037  -17.8705   22.4862 H   0  0  0  0  0  0
  -31.2052  -15.7484   22.0192 H   0  0  0  0  0  0
  1 25  1  0  0  0
  1 30  2  0  0  0
  1 85  1  0  0  0
  2  3  1  0  0  0
  2 25  1  0  0  0
  2 86  1  0  0  0
  2 87  1  0  0  0
  3  4  1  0  0  0
  3 88  1  0  0  0
  3 89  1  0  0  0
  4  5  1  0  0  0
  4 90  1  0  0  0
  4 91  1  0  0  0
  5  6  1  0  0  0
  5 26  1  0  0  0
  5 92  1  0  0  0
  6 25  1  0  0  0
  6 93  1  0  0  0
  6 94  1  0  0  0
  7  8  2  0  0  0
  7 26  1  0  0  0
  7 29  1  0  0  0
  8  9  1  0  0  0
  8 22  1  0  0  0
  9 10  1  0  0  0
  9 27  2  0  0  0
 10 11  2  0  0  0
 10 15  1  0  0  0
 11 12  1  0  0  0
 11 95  1  0  0  0
 12 13  2  0  0  0
 12 96  1  0  0  0
 13 14  1  0  0  0
 13 31  1  0  0  0
 14 15  2  0  0  0
 14 97  1  0  0  0
 15 98  1  0  0  0
 16 17  2  0  0  0
 16 21  1  0  0  0
 16 31  1  0  0  0
 17 18  1  0  0  0
 17 99  1  0  0  0
 18 19  2  0  0  0
 18100  1  0  0  0
 19 20  1  0  0  0
 19 24  1  0  0  0
 20 21  2  0  0  0
 20101  1  0  0  0
 21 23  1  0  0  0
 22 28  1  0  0  0
 22 32  2  0  0  0
 26 27  1  0  0  0
 28102  1  0  0  0
 28103  1  0  0  0
 29104  1  0  0  0
 29105  1  0  0  0
 33 34  1  0  0  0
 33 66  1  0  0  0
 33 70  2  0  0  0
 34 36  1  0  0  0
 34 59  1  0  0  0
 34106  1  0  0  0
 35 44  2  0  0  0
 35 45  1  0  0  0
 35 68  1  0  0  0
 36 56  1  0  0  0
 36107  1  0  0  0
 37 39  1  0  0  0
 37 47  1  0  0  0
 37 66  1  0  0  0
 37108  1  0  0  0
 38 43  2  0  0  0
 38 46  1  0  0  0
 38 47  1  0  0  0
 39 64  1  0  0  0
 39 67  2  0  0  0
 40 52  1  0  0  0
 40 53  2  0  0  0
 40 58  1  0  0  0
 41109  1  0  0  0
 41110  1  0  0  0
 41111  1  0  0  0
 41 48  1  0  0  0
 42 43  1  0  0  0
 42 66  1  0  0  0
 42112  1  0  0  0
 42113  1  0  0  0
 43 44  1  0  0  0
 44114  1  0  0  0
 45 46  2  0  0  0
 45115  1  0  0  0
 46116  1  0  0  0
 47117  1  0  0  0
 47118  1  0  0  0
 48 56  1  0  0  0
 48 65  1  0  0  0
 48119  1  0  0  0
 49 50  1  0  0  0
 49 53  1  0  0  0
 49 64  1  0  0  0
 49120  1  0  0  0
 50 51  1  0  0  0
 50121  1  0  0  0
 50122  1  0  0  0
 51 52  1  0  0  0
 51123  1  0  0  0
 51124  1  0  0  0
 52125  1  0  0  0
 52126  1  0  0  0
 53 54  1  0  0  0
 54 55  2  0  0  0
 54127  1  0  0  0
 55 57  1  0  0  0
 55128  1  0  0  0
 56 69  2  0  0  0
 57 58  2  0  0  0
 57129  1  0  0  0
 58130  1  0  0  0
 59 60  1  0  0  0
 59 61  1  0  0  0
 59 62  1  0  0  0
 60131  1  0  0  0
 60132  1  0  0  0
 60133  1  0  0  0
 61134  1  0  0  0
 61135  1  0  0  0
 61136  1  0  0  0
 62137  1  0  0  0
 62138  1  0  0  0
 62139  1  0  0  0
 63 65  1  0  0  0
 63140  1  0  0  0
 63141  1  0  0  0
 63142  1  0  0  0
 64143  1  0  0  0
 65144  1  0  0  0
 68 81  1  0  0  0
 71 72  2  0  0  0
 71 84  1  0  0  0
 71145  1  0  0  0
 72 73  1  0  0  0
 72 76  1  0  0  0
 73 74  1  0  0  0
 73 83  2  0  0  0
 74146  1  0  0  0
 74147  1  0  0  0
 74148  1  0  0  0
 75149  1  0  0  0
 75150  1  0  0  0
 75151  1  0  0  0
 75 82  1  0  0  0
 76 77  1  0  0  0
 76152  1  0  0  0
 76153  1  0  0  0
 77 78  1  0  0  0
 77154  1  0  0  0
 77155  1  0  0  0
 78 79  1  0  0  0
 78156  1  0  0  0
 78157  1  0  0  0
 79 81  1  0  0  0
 79158  1  0  0  0
 79159  1  0  0  0
 80 82  1  0  0  0
 80 85  1  0  0  0
 80160  1  0  0  0
 80161  1  0  0  0
 81162  1  0  0  0
 81163  1  0  0  0
 82 84  1  0  0  0
 82164  1  0  0  0
 83 84  1  0  0  0
 85165  1  0  0  0
M  ISO  4   1 100  68 101  81 101  85 100
M  END
> <chiral flag>
0

> <version>
0

> <s_m_source_file>
/data/baiqing/PycharmProjects/Reinvent-master-3.2/result/LINK_invent/BTK/process_docking_weight1_custom_sum_contain_oxygen_bond_distance_aromatic_linkinvent_7_9_3/rearranged_h_0078.sdf

> <i_m_source_file_index>
77

> <r_mmod_Potential_Energy-OPLS-2005>
209.530075073242

> <r_mmod_Stretch_Energy-OPLS-2005>
35.6152496337891

> <r_mmod_Bend_Energy-OPLS-2005>
346.385772705078

> <r_mmod_Torsional_Energy-OPLS-2005>
304.530181884766

> <r_mmod_Improper_Torsional_Energy-OPLS-2005>
8.26965141296387

> <r_mmod_Van_der_Waal_Energy-OPLS-2005>
136.386779785156

> <r_mmod_Electrostatic_Energy-OPLS-2005>
-434.354034423828

> <r_mmod_Solvation_Energy-OPLS-2005>
-196.241149902344

> <b_mmod_Minimization_Converged-OPLS-2005>
0

> <r_mmod_RMS_Derivative-OPLS-2005>
4.39391231536865

$$$$
77
                    3D
 Structure written by MMmdl.
152160  0  0  1  0            999 V2000
  -30.5224  -14.9914   20.4183 C   0  0  0  0  0  0
  -30.4409  -12.6201   19.4927 C   0  0  0  0  0  0
  -29.5210  -12.5349   18.2527 C   0  0  0  0  0  0
  -28.0553  -12.3136   18.6732 C   0  0  0  0  0  0
  -27.6252  -13.2508   19.8318 C   0  0  2  0  0  0
  -28.6686  -13.2956   20.9667 C   0  0  0  0  0  0
  -25.2447  -13.8215   20.5708 C   0  0  0  0  0  0
  -24.1774  -13.0433   20.9236 C   0  0  0  0  0  0
  -24.6396  -11.6922   20.8753 C   0  0  0  0  0  0
  -23.9080  -10.4292   21.0403 C   0  0  0  0  0  0
  -24.3629   -9.4206   21.9180 C   0  0  0  0  0  0
  -23.6302   -8.2242   22.0749 C   0  0  0  0  0  0
  -22.4285   -8.0280   21.3538 C   0  0  0  0  0  0
  -21.9921   -9.0255   20.4643 C   0  0  0  0  0  0
  -22.7251  -10.2133   20.3052 C   0  0  0  0  0  0
  -21.6858   -6.0738   22.5277 C   0  0  0  0  0  0
  -21.4021   -6.5641   23.8210 C   0  0  0  0  0  0
  -21.3660   -5.6791   24.9169 C   0  0  0  0  0  0
  -21.6043   -4.3054   24.7219 C   0  0  0  0  0  0
  -21.8820   -3.8147   23.4341 C   0  0  0  0  0  0
  -21.9195   -4.6965   22.3399 C   0  0  0  0  0  0
  -22.7791  -13.5199   21.1886 C   0  0  0  0  0  0
  -22.1662   -4.2152   21.0976 F   0  0  0  0  0  0
  -21.5625   -3.4537   25.7732 F   0  0  0  0  0  0
  -29.9344  -13.7249   20.3585 N   0  0  0  0  0  0
  -26.2866  -12.9451   20.3214 N   0  0  0  0  0  0
  -25.9325  -11.6579   20.5722 N   0  0  0  0  0  0
  -22.0444  -12.8188   22.0443 N   0  0  0  0  0  0
  -25.4093  -15.1946   20.4127 N   0  0  0  0  0  0
  -31.7367  -15.0398   20.1941 O   0  0  0  0  0  0
  -21.6644   -6.8880   21.4239 O   0  0  0  0  0  0
  -22.3474  -14.5499   20.6722 O   0  0  0  0  0  0
  -24.6461  -31.8405   23.1844 C   0  0  0  0  0  0
  -25.9219  -32.4675   23.8247 C   0  0  1  0  0  0
  -27.2164  -27.1044   20.1673 C   0  0  0  0  0  0
  -25.5954  -33.8482   24.2161 N   0  0  0  0  0  0
  -23.4515  -30.4576   21.5305 C   0  0  2  0  0  0
  -24.9008  -28.8721   20.1164 C   0  0  0  0  0  0
  -22.7578  -29.4531   22.4848 C   0  0  0  0  0  0
  -18.0307  -28.1397   22.8473 C   0  0  0  0  0  0
  -24.1495  -36.7251   23.2643 C   0  0  0  0  0  0
  -26.0086  -30.7055   21.3860 C   0  0  0  0  0  0
  -26.0800  -29.3113   20.7326 C   0  0  0  0  0  0
  -27.2415  -28.4464   20.7329 C   0  0  0  0  0  0
  -26.0108  -26.7669   19.5189 C   0  0  0  0  0  0
  -24.8800  -27.6142   19.4930 C   0  0  0  0  0  0
  -23.6804  -29.7806   20.1528 C   0  0  0  0  0  0
  -25.4128  -36.3018   24.0309 C   0  0  1  0  0  0
  -20.5920  -28.3727   23.1229 C   0  0  2  0  0  0
  -20.6791  -26.9427   22.5404 C   0  0  0  0  0  0
  -19.5766  -26.6379   21.5212 C   0  0  0  0  0  0
  -18.1946  -26.7934   22.1621 C   0  0  0  0  0  0
  -19.1562  -28.8879   23.2842 C   0  0  0  0  0  0
  -18.9479  -30.1475   23.8871 C   0  0  0  0  0  0
  -17.6475  -30.6592   24.0558 C   0  0  0  0  0  0
  -25.9078  -34.9396   23.5045 C   0  0  0  0  0  0
  -16.5366  -29.9084   23.6337 C   0  0  0  0  0  0
  -16.7291  -28.6503   23.0356 C   0  0  0  0  0  0
  -26.4532  -31.6559   25.0706 C   0  0  0  0  0  0
  -25.3707  -31.3761   26.1395 C   0  0  0  0  0  0
  -27.0405  -30.2949   24.6314 C   0  0  0  0  0  0
  -27.6047  -32.4338   25.7502 C   0  0  0  0  0  0
  -27.5574  -37.1783   24.8462 C   0  0  0  0  0  0
  -21.4266  -29.3050   22.3596 N   0  0  0  0  0  0
  -26.4285  -37.3735   23.9403 N   0  0  0  0  0  0
  -24.7223  -31.0234   22.0889 N   0  0  0  0  0  0
  -23.4205  -28.8085   23.3015 O   0  0  0  0  0  0
  -28.2762  -26.1197   20.1711 O   0  0  0  0  0  0
  -26.5667  -34.8901   22.4627 O   0  0  0  0  0  0
  -23.5574  -32.1290   23.7049 O   0  0  0  0  0  0
  -28.2469  -20.2893   18.5443 C   0  0  0  0  0  0
  -29.1860  -18.8243   19.7685 C   0  0  0  0  0  0
  -31.4423  -18.0924   20.7738 C   0  0  0  0  0  0
  -28.7161  -23.1855   19.8961 C   0  0  0  0  0  0
  -28.8352  -21.6095   20.5848 C   0  0  0  0  0  0
  -28.0769  -24.6134   20.5783 C   0  0  0  0  0  0
  -29.9441  -17.7565   20.7404 C   0  0  2  0  0  0
  -28.2018  -19.1657   17.8374 N   0  0  0  0  0  0
  -28.8117  -18.2318   18.6205 N   0  0  0  0  0  0
  -28.8450  -20.2520   19.7507 N   0  0  0  0  0  0
  -29.7279  -16.1762   20.5434 N   0  0  0  0  0  0
  -31.4708  -12.7925   19.1768 H   0  0  0  0  0  0
  -30.4493  -11.6747   20.0381 H   0  0  0  0  0  0
  -29.8475  -11.7312   17.5914 H   0  0  0  0  0  0
  -29.6008  -13.4578   17.6756 H   0  0  0  0  0  0
  -27.9580  -11.2738   18.9877 H   0  0  0  0  0  0
  -27.3911  -12.4360   17.8167 H   0  0  0  0  0  0
  -27.5809  -14.2493   19.3952 H   0  0  0  0  0  0
  -28.7694  -12.3224   21.4498 H   0  0  0  0  0  0
  -28.3615  -13.9976   21.7435 H   0  0  0  0  0  0
  -25.2770   -9.5686   22.4761 H   0  0  0  0  0  0
  -24.0011   -7.4634   22.7470 H   0  0  0  0  0  0
  -21.0850   -8.8773   19.8954 H   0  0  0  0  0  0
  -22.3701  -10.9672   19.6168 H   0  0  0  0  0  0
  -21.2019   -7.6149   23.9715 H   0  0  0  0  0  0
  -21.1478   -6.0520   25.9073 H   0  0  0  0  0  0
  -22.0601   -2.7611   23.2836 H   0  0  0  0  0  0
  -22.4075  -11.9866   22.4848 H   0  0  0  0  0  0
  -21.1054  -13.1200   22.2636 H   0  0  0  0  0  0
  -24.6325  -15.8387   20.5139 H   0  0  0  0  0  0
  -26.2361  -15.6335   20.0297 H   0  0  0  0  0  0
  -26.7286  -32.5272   23.0974 H   0  0  0  0  0  0
  -25.0080  -33.9591   25.0294 H   0  0  0  0  0  0
  -22.7562  -31.2843   21.3713 H   0  0  0  0  0  0
  -23.3757  -35.9581   23.3286 H   0  0  0  0  0  0
  -24.3579  -36.8906   22.2061 H   0  0  0  0  0  0
  -23.7253  -37.6441   23.6700 H   0  0  0  0  0  0
  -26.1655  -31.4566   20.6106 H   0  0  0  0  0  0
  -26.8784  -30.7594   22.0293 H   0  0  0  0  0  0
  -28.1458  -28.7839   21.2200 H   0  0  0  0  0  0
  -25.9296  -25.8037   19.0356 H   0  0  0  0  0  0
  -23.9802  -27.2736   18.9994 H   0  0  0  0  0  0
  -23.8234  -30.5517   19.3948 H   0  0  0  0  0  0
  -22.7943  -29.2252   19.8403 H   0  0  0  0  0  0
  -25.1322  -36.1836   25.0800 H   0  0  0  0  0  0
  -21.0012  -28.3321   24.1350 H   0  0  0  0  0  0
  -20.5682  -26.2343   23.3626 H   0  0  0  0  0  0
  -21.6657  -26.7429   22.1204 H   0  0  0  0  0  0
  -19.6928  -25.6281   21.1262 H   0  0  0  0  0  0
  -19.6704  -27.3171   20.6727 H   0  0  0  0  0  0
  -17.4216  -26.6675   21.4024 H   0  0  0  0  0  0
  -18.0347  -26.0082   22.9024 H   0  0  0  0  0  0
  -19.7954  -30.7297   24.2227 H   0  0  0  0  0  0
  -17.5029  -31.6269   24.5166 H   0  0  0  0  0  0
  -15.5365  -30.2978   23.7675 H   0  0  0  0  0  0
  -15.8691  -28.0814   22.7086 H   0  0  0  0  0  0
  -24.5890  -30.7107   25.7714 H   0  0  0  0  0  0
  -24.8898  -32.2950   26.4754 H   0  0  0  0  0  0
  -25.7983  -30.8975   27.0213 H   0  0  0  0  0  0
  -26.3030  -29.6660   24.1314 H   0  0  0  0  0  0
  -27.3994  -29.7266   25.4905 H   0  0  0  0  0  0
  -27.8946  -30.4170   23.9651 H   0  0  0  0  0  0
  -27.2620  -33.3655   26.2015 H   0  0  0  0  0  0
  -28.3896  -32.6874   25.0365 H   0  0  0  0  0  0
  -28.0673  -31.8510   26.5476 H   0  0  0  0  0  0
  -28.2578  -38.0092   24.7507 H   0  0  0  0  0  0
  -28.1084  -36.2618   24.6291 H   0  0  0  0  0  0
  -27.2289  -37.1430   25.8864 H   0  0  0  0  0  0
  -20.9482  -29.8759   21.6767 H   0  0  0  0  0  0
  -26.0145  -38.2798   24.1409 H   0  0  0  0  0  0
  -27.7954  -21.1835   18.1443 H   0  0  0  0  0  0
  -31.5982  -19.1352   21.0526 H   0  0  0  0  0  0
  -31.9013  -17.9411   19.7966 H   0  0  0  0  0  0
  -31.9759  -17.4793   21.4998 H   0  0  0  0  0  0
  -28.1815  -23.0955   18.9539 H   0  0  0  0  0  0
  -29.7318  -23.4357   19.5898 H   0  0  0  0  0  0
  -27.9904  -21.5137   21.2673 H   0  0  0  0  0  0
  -29.7111  -21.5896   21.2335 H   0  0  0  0  0  0
  -28.4162  -24.5995   21.6142 H   0  0  0  0  0  0
  -27.0025  -24.4493   20.6624 H   0  0  0  0  0  0
  -29.5567  -17.9606   21.7390 H   0  0  0  0  0  0
  -28.7465  -15.9478   20.5763 H   0  0  0  0  0  0
  1 25  1  0  0  0
  1 30  2  0  0  0
  1 81  1  0  0  0
  2  3  1  0  0  0
  2 25  1  0  0  0
  2 82  1  0  0  0
  2 83  1  0  0  0
  3  4  1  0  0  0
  3 84  1  0  0  0
  3 85  1  0  0  0
  4  5  1  0  0  0
  4 86  1  0  0  0
  4 87  1  0  0  0
  5  6  1  0  0  0
  5 26  1  0  0  0
  5 88  1  0  0  0
  6 25  1  0  0  0
  6 89  1  0  0  0
  6 90  1  0  0  0
  7  8  2  0  0  0
  7 26  1  0  0  0
  7 29  1  0  0  0
  8  9  1  0  0  0
  8 22  1  0  0  0
  9 10  1  0  0  0
  9 27  2  0  0  0
 10 11  2  0  0  0
 10 15  1  0  0  0
 11 12  1  0  0  0
 11 91  1  0  0  0
 12 13  2  0  0  0
 12 92  1  0  0  0
 13 14  1  0  0  0
 13 31  1  0  0  0
 14 15  2  0  0  0
 14 93  1  0  0  0
 15 94  1  0  0  0
 16 17  2  0  0  0
 16 21  1  0  0  0
 16 31  1  0  0  0
 17 18  1  0  0  0
 17 95  1  0  0  0
 18 19  2  0  0  0
 18 96  1  0  0  0
 19 20  1  0  0  0
 19 24  1  0  0  0
 20 21  2  0  0  0
 20 97  1  0  0  0
 21 23  1  0  0  0
 22 28  1  0  0  0
 22 32  2  0  0  0
 26 27  1  0  0  0
 28 98  1  0  0  0
 28 99  1  0  0  0
 29100  1  0  0  0
 29101  1  0  0  0
 33 34  1  0  0  0
 33 66  1  0  0  0
 33 70  2  0  0  0
 34 36  1  0  0  0
 34 59  1  0  0  0
 34102  1  0  0  0
 35 44  2  0  0  0
 35 45  1  0  0  0
 35 68  1  0  0  0
 36 56  1  0  0  0
 36103  1  0  0  0
 37 39  1  0  0  0
 37 47  1  0  0  0
 37 66  1  0  0  0
 37104  1  0  0  0
 38 43  2  0  0  0
 38 46  1  0  0  0
 38 47  1  0  0  0
 39 64  1  0  0  0
 39 67  2  0  0  0
 40 52  1  0  0  0
 40 53  2  0  0  0
 40 58  1  0  0  0
 41105  1  0  0  0
 41106  1  0  0  0
 41107  1  0  0  0
 41 48  1  0  0  0
 42 43  1  0  0  0
 42 66  1  0  0  0
 42108  1  0  0  0
 42109  1  0  0  0
 43 44  1  0  0  0
 44110  1  0  0  0
 45 46  2  0  0  0
 45111  1  0  0  0
 46112  1  0  0  0
 47113  1  0  0  0
 47114  1  0  0  0
 48 56  1  0  0  0
 48 65  1  0  0  0
 48115  1  0  0  0
 49 50  1  0  0  0
 49 53  1  0  0  0
 49 64  1  0  0  0
 49116  1  0  0  0
 50 51  1  0  0  0
 50117  1  0  0  0
 50118  1  0  0  0
 51 52  1  0  0  0
 51119  1  0  0  0
 51120  1  0  0  0
 52121  1  0  0  0
 52122  1  0  0  0
 53 54  1  0  0  0
 54 55  2  0  0  0
 54123  1  0  0  0
 55 57  1  0  0  0
 55124  1  0  0  0
 56 69  2  0  0  0
 57 58  2  0  0  0
 57125  1  0  0  0
 58126  1  0  0  0
 59 60  1  0  0  0
 59 61  1  0  0  0
 59 62  1  0  0  0
 60127  1  0  0  0
 60128  1  0  0  0
 60129  1  0  0  0
 61130  1  0  0  0
 61131  1  0  0  0
 61132  1  0  0  0
 62133  1  0  0  0
 62134  1  0  0  0
 62135  1  0  0  0
 63 65  1  0  0  0
 63136  1  0  0  0
 63137  1  0  0  0
 63138  1  0  0  0
 64139  1  0  0  0
 65140  1  0  0  0
 68 76  1  0  0  0
 71 78  2  0  0  0
 71 80  1  0  0  0
 71141  1  0  0  0
 72 77  1  0  0  0
 72 79  2  0  0  0
 72 80  1  0  0  0
 73142  1  0  0  0
 73143  1  0  0  0
 73144  1  0  0  0
 73 77  1  0  0  0
 74 75  1  0  0  0
 74 76  1  0  0  0
 74145  1  0  0  0
 74146  1  0  0  0
 75 80  1  0  0  0
 75147  1  0  0  0
 75148  1  0  0  0
 76149  1  0  0  0
 76150  1  0  0  0
 77 81  1  0  0  0
 77151  1  0  0  0
 78 79  1  0  0  0
 81152  1  0  0  0
M  ISO  4   1 100  68 101  76 101  81 100
M  END
> <chiral flag>
0

> <version>
0

> <s_m_source_file>
/data/baiqing/PycharmProjects/Reinvent-master-3.2/result/LINK_invent/BTK/process_docking_weight1_custom_sum_contain_oxygen_bond_distance_aromatic_linkinvent_7_9_3/rearranged_h_0078.sdf

> <i_m_source_file_index>
78

> <r_mmod_Potential_Energy-OPLS-2005>
570.534057617188

> <r_mmod_Stretch_Energy-OPLS-2005>
320.796875

> <r_mmod_Bend_Energy-OPLS-2005>
339.506500244141

> <r_mmod_Torsional_Energy-OPLS-2005>
229.720001220703

> <r_mmod_Improper_Torsional_Energy-OPLS-2005>
4.44728899002075

> <r_mmod_Van_der_Waal_Energy-OPLS-2005>
107.363876342773

> <r_mmod_Electrostatic_Energy-OPLS-2005>
-408.137939453125

> <r_mmod_Solvation_Energy-OPLS-2005>
-242.479461669922

> <b_mmod_Minimization_Converged-OPLS-2005>
0

> <r_mmod_RMS_Derivative-OPLS-2005>
0.553360462188721

$$$$
78
                    3D
 Structure written by MMmdl.
170178  0  0  1  0            999 V2000
  -30.5833  -14.8207   20.2324 C   0  0  0  0  0  0
  -30.4357  -12.4513   19.5211 C   0  0  0  0  0  0
  -29.5439  -12.3725   18.2721 C   0  0  0  0  0  0
  -28.0391  -12.3017   18.6148 C   0  0  0  0  0  0
  -27.6138  -13.2080   19.8098 C   0  0  2  0  0  0
  -28.6637  -13.2663   20.9337 C   0  0  0  0  0  0
  -25.2517  -13.7589   20.6047 C   0  0  0  0  0  0
  -24.1660  -12.9964   20.9128 C   0  0  0  0  0  0
  -24.6305  -11.6544   20.8533 C   0  0  0  0  0  0
  -23.8987  -10.4032   21.0193 C   0  0  0  0  0  0
  -24.3589   -9.4052   21.9032 C   0  0  0  0  0  0
  -23.6225   -8.2143   22.0718 C   0  0  0  0  0  0
  -22.4192   -8.0203   21.3506 C   0  0  0  0  0  0
  -21.9793   -9.0137   20.4583 C   0  0  0  0  0  0
  -22.7147  -10.1960   20.2862 C   0  0  0  0  0  0
  -21.6833   -6.0684   22.5287 C   0  0  0  0  0  0
  -21.4001   -6.5606   23.8231 C   0  0  0  0  0  0
  -21.3592   -5.6735   24.9176 C   0  0  0  0  0  0
  -21.6036   -4.3011   24.7216 C   0  0  0  0  0  0
  -21.8853   -3.8107   23.4336 C   0  0  0  0  0  0
  -21.9212   -4.6922   22.3392 C   0  0  0  0  0  0
  -22.7791  -13.5012   21.1758 C   0  0  0  0  0  0
  -22.1660   -4.2101   21.0979 F   0  0  0  0  0  0
  -21.5617   -3.4518   25.7734 F   0  0  0  0  0  0
  -29.9419  -13.6003   20.3076 N   0  0  0  0  0  0
  -26.2824  -12.8898   20.3090 N   0  0  0  0  0  0
  -25.9197  -11.6074   20.5360 N   0  0  0  0  0  0
  -22.0321  -12.8060   22.0292 N   0  0  0  0  0  0
  -25.4452  -15.1148   20.5901 N   0  0  0  0  0  0
  -31.8151  -14.7766   20.3171 O   0  0  0  0  0  0
  -21.6557   -6.8798   21.4246 O   0  0  0  0  0  0
  -22.3767  -14.5499   20.6757 O   0  0  0  0  0  0
  -24.6277  -31.8562   23.1943 C   0  0  0  0  0  0
  -25.9135  -32.4717   23.8313 C   0  0  1  0  0  0
  -27.2469  -27.3161   20.0784 C   0  0  0  0  0  0
  -25.5916  -33.8511   24.2187 N   0  0  0  0  0  0
  -23.4261  -30.4754   21.5364 C   0  0  2  0  0  0
  -24.8730  -28.9114   20.1210 C   0  0  0  0  0  0
  -22.7512  -29.4600   22.4900 C   0  0  0  0  0  0
  -18.0360  -28.1390   22.8419 C   0  0  0  0  0  0
  -24.1487  -36.7292   23.2640 C   0  0  0  0  0  0
  -25.9687  -30.7759   21.3691 C   0  0  0  0  0  0
  -26.0407  -29.4026   20.7120 C   0  0  0  0  0  0
  -27.2301  -28.6162   20.6775 C   0  0  0  0  0  0
  -26.0465  -26.8551   19.5055 C   0  0  0  0  0  0
  -24.8727  -27.6366   19.5263 C   0  0  0  0  0  0
  -23.6446  -29.7986   20.1558 C   0  0  0  0  0  0
  -25.4092  -36.3010   24.0292 C   0  0  1  0  0  0
  -20.5935  -28.3705   23.1287 C   0  0  2  0  0  0
  -20.6880  -26.9457   22.5389 C   0  0  0  0  0  0
  -19.5859  -26.6459   21.5161 C   0  0  0  0  0  0
  -18.2051  -26.7909   22.1627 C   0  0  0  0  0  0
  -19.1582  -28.8851   23.2871 C   0  0  0  0  0  0
  -18.9477  -30.1453   23.8880 C   0  0  0  0  0  0
  -17.6466  -30.6577   24.0520 C   0  0  0  0  0  0
  -25.9052  -34.9400   23.5025 C   0  0  0  0  0  0
  -16.5370  -29.9056   23.6300 C   0  0  0  0  0  0
  -16.7320  -28.6482   23.0264 C   0  0  0  0  0  0
  -26.4482  -31.6560   25.0708 C   0  0  0  0  0  0
  -25.3716  -31.3779   26.1426 C   0  0  0  0  0  0
  -27.0339  -30.2969   24.6263 C   0  0  0  0  0  0
  -27.5998  -32.4345   25.7562 C   0  0  0  0  0  0
  -27.5547  -37.1803   24.8441 C   0  0  0  0  0  0
  -21.4224  -29.3110   22.3733 N   0  0  0  0  0  0
  -26.4264  -37.3694   23.9369 N   0  0  0  0  0  0
  -24.6932  -31.0538   22.0913 N   0  0  0  0  0  0
  -23.4264  -28.8058   23.2899 O   0  0  0  0  0  0
  -28.4132  -26.5359   20.0000 O   0  0  0  0  0  0
  -26.5646  -34.8903   22.4637 O   0  0  0  0  0  0
  -23.5457  -32.1426   23.7271 O   0  0  0  0  0  0
  -27.5167  -18.9447   20.3800 C   0  0  0  0  0  0
  -26.7062  -17.8982   20.1736 C   0  0  0  0  0  0
  -28.8728  -17.2210   19.8749 C   0  0  0  0  0  0
  -25.1953  -17.9691   20.1748 C   0  0  0  0  0  0
  -28.4259  -17.1817   16.6079 C   0  0  0  0  0  0
  -29.4143  -15.0399   15.7612 C   0  0  0  0  0  0
  -29.6377  -22.6893   19.4289 C   0  0  0  0  0  0
  -28.9689  -21.2446   19.2840 C   0  0  0  0  0  0
  -28.7932  -24.0263   19.0860 C   0  0  0  0  0  0
  -30.3182  -16.0882   17.9547 C   0  0  0  0  0  0
  -29.7045  -19.8355   19.7356 C   0  0  0  0  0  0
  -28.4019  -25.0683   20.2391 C   0  0  0  0  0  0
  -30.0643  -16.2116   19.5034 C   0  0  2  0  0  0
  -29.0842  -15.8641   17.0302 C   0  0  0  0  0  0
  -28.7786  -18.6262   19.9643 N   0  0  0  0  0  0
  -27.5678  -16.8406   19.9442 N   0  3  0  0  0  0
  -31.4790  -12.5848   19.2285 H   0  0  0  0  0  0
  -30.4192  -11.5306   20.1051 H   0  0  0  0  0  0
  -29.8349  -11.5193   17.6579 H   0  0  0  0  0  0
  -29.7536  -13.2521   17.6810 H   0  0  0  0  0  0
  -27.8070  -11.2597   18.8247 H   0  0  0  0  0  0
  -27.4589  -12.5624   17.7302 H   0  0  0  0  0  0
  -27.5373  -14.2112   19.4015 H   0  0  0  0  0  0
  -28.7332  -12.3061   21.4508 H   0  0  0  0  0  0
  -28.4081  -14.0173   21.6861 H   0  0  0  0  0  0
  -25.2742   -9.5637   22.4562 H   0  0  0  0  0  0
  -23.9932   -7.4614   22.7521 H   0  0  0  0  0  0
  -21.0682   -8.8681   19.8962 H   0  0  0  0  0  0
  -22.3593  -10.9507   19.5969 H   0  0  0  0  0  0
  -21.2009   -7.6118   23.9709 H   0  0  0  0  0  0
  -21.1324   -6.0455   25.9070 H   0  0  0  0  0  0
  -22.0705   -2.7570   23.2849 H   0  0  0  0  0  0
  -22.3815  -11.9577   22.4474 H   0  0  0  0  0  0
  -21.1028  -13.1210   22.2694 H   0  0  0  0  0  0
  -24.5282  -15.5409   20.6387 H   0  0  0  0  0  0
  -25.8034  -15.2849   21.5257 H   0  0  0  0  0  0
  -26.7210  -32.5385   23.1076 H   0  0  0  0  0  0
  -24.9975  -33.9659   25.0265 H   0  0  0  0  0  0
  -22.7248  -31.2961   21.3876 H   0  0  0  0  0  0
  -23.3694  -35.9685   23.3280 H   0  0  0  0  0  0
  -24.3555  -36.8972   22.2066 H   0  0  0  0  0  0
  -23.7332  -37.6519   23.6703 H   0  0  0  0  0  0
  -26.0999  -31.5409   20.6038 H   0  0  0  0  0  0
  -26.8473  -30.8160   22.0027 H   0  0  0  0  0  0
  -28.1351  -29.0070   21.1241 H   0  0  0  0  0  0
  -26.0110  -25.8823   19.0361 H   0  0  0  0  0  0
  -23.9721  -27.2550   19.0685 H   0  0  0  0  0  0
  -23.7651  -30.5622   19.3895 H   0  0  0  0  0  0
  -22.7671  -29.2277   19.8555 H   0  0  0  0  0  0
  -25.1297  -36.1811   25.0782 H   0  0  0  0  0  0
  -20.9940  -28.3250   24.1428 H   0  0  0  0  0  0
  -20.5735  -26.2329   23.3575 H   0  0  0  0  0  0
  -21.6763  -26.7518   22.1236 H   0  0  0  0  0  0
  -19.7062  -25.6408   21.1181 H   0  0  0  0  0  0
  -19.6793  -27.3267   20.6675 H   0  0  0  0  0  0
  -17.4326  -26.6585   21.4082 H   0  0  0  0  0  0
  -18.0568  -26.0046   22.9060 H   0  0  0  0  0  0
  -19.7954  -30.7298   24.2271 H   0  0  0  0  0  0
  -17.4992  -31.6235   24.5135 H   0  0  0  0  0  0
  -15.5384  -30.2985   23.7557 H   0  0  0  0  0  0
  -15.8757  -28.0829   22.6885 H   0  0  0  0  0  0
  -24.5836  -30.7165   25.7792 H   0  0  0  0  0  0
  -24.8999  -32.3022   26.4831 H   0  0  0  0  0  0
  -25.8021  -30.8980   27.0243 H   0  0  0  0  0  0
  -26.2980  -29.6760   24.1159 H   0  0  0  0  0  0
  -27.3837  -29.7137   25.4819 H   0  0  0  0  0  0
  -27.8900  -30.4189   23.9607 H   0  0  0  0  0  0
  -27.2478  -33.3607   26.2139 H   0  0  0  0  0  0
  -28.3836  -32.7027   25.0447 H   0  0  0  0  0  0
  -28.0636  -31.8510   26.5551 H   0  0  0  0  0  0
  -28.2547  -38.0120   24.7413 H   0  0  0  0  0  0
  -28.1053  -36.2639   24.6301 H   0  0  0  0  0  0
  -27.2256  -37.1466   25.8849 H   0  0  0  0  0  0
  -20.9422  -29.8947   21.7014 H   0  0  0  0  0  0
  -26.0100  -38.2745   24.1414 H   0  0  0  0  0  0
  -27.1785  -19.9262   20.6459 H   0  0  0  0  0  0
  -24.7372  -17.4553   19.3219 H   0  0  0  0  0  0
  -24.8861  -19.0175   20.1173 H   0  0  0  0  0  0
  -24.7650  -17.5977   21.1037 H   0  0  0  0  0  0
  -27.5793  -16.9863   15.9494 H   0  0  0  0  0  0
  -29.1365  -17.8143   16.0659 H   0  0  0  0  0  0
  -28.0348  -17.7575   17.4414 H   0  0  0  0  0  0
  -28.9029  -15.4042   14.8672 H   0  0  0  0  0  0
  -29.0957  -14.0078   15.8737 H   0  0  0  0  0  0
  -30.4830  -15.0427   15.5369 H   0  0  0  0  0  0
  -30.4962  -22.6964   18.7513 H   0  0  0  0  0  0
  -30.0667  -22.8036   20.4236 H   0  0  0  0  0  0
  -28.6521  -21.1278   18.2467 H   0  0  0  0  0  0
  -28.0438  -21.4257   19.8190 H   0  0  0  0  0  0
  -27.8927  -23.7602   18.5306 H   0  0  0  0  0  0
  -29.3755  -24.5914   18.3537 H   0  0  0  0  0  0
  -30.8630  -16.9722   17.6136 H   0  0  0  0  0  0
  -31.0289  -15.2775   17.7790 H   0  0  0  0  0  0
  -30.2306  -19.9841   20.6800 H   0  0  0  0  0  0
  -30.4496  -19.5669   18.9860 H   0  0  0  0  0  0
  -29.1291  -24.9304   21.0407 H   0  0  0  0  0  0
  -27.4479  -24.7551   20.6699 H   0  0  0  0  0  0
  -30.8879  -16.8449   19.8241 H   0  0  0  0  0  0
  -28.3538  -15.2812   17.5944 H   0  0  0  0  0  0
  -27.2077  -15.8943   19.8611 H   0  0  0  0  0  0
  1 25  1  0  0  0
  1 30  2  0  0  0
  1 83  1  0  0  0
  2  3  1  0  0  0
  2 25  1  0  0  0
  2 87  1  0  0  0
  2 88  1  0  0  0
  3  4  1  0  0  0
  3 89  1  0  0  0
  3 90  1  0  0  0
  4  5  1  0  0  0
  4 91  1  0  0  0
  4 92  1  0  0  0
  5  6  1  0  0  0
  5 26  1  0  0  0
  5 93  1  0  0  0
  6 25  1  0  0  0
  6 94  1  0  0  0
  6 95  1  0  0  0
  7  8  2  0  0  0
  7 26  1  0  0  0
  7 29  1  0  0  0
  8  9  1  0  0  0
  8 22  1  0  0  0
  9 10  1  0  0  0
  9 27  2  0  0  0
 10 11  2  0  0  0
 10 15  1  0  0  0
 11 12  1  0  0  0
 11 96  1  0  0  0
 12 13  2  0  0  0
 12 97  1  0  0  0
 13 14  1  0  0  0
 13 31  1  0  0  0
 14 15  2  0  0  0
 14 98  1  0  0  0
 15 99  1  0  0  0
 16 17  2  0  0  0
 16 21  1  0  0  0
 16 31  1  0  0  0
 17 18  1  0  0  0
 17100  1  0  0  0
 18 19  2  0  0  0
 18101  1  0  0  0
 19 20  1  0  0  0
 19 24  1  0  0  0
 20 21  2  0  0  0
 20102  1  0  0  0
 21 23  1  0  0  0
 22 28  1  0  0  0
 22 32  2  0  0  0
 26 27  1  0  0  0
 28103  1  0  0  0
 28104  1  0  0  0
 29105  1  0  0  0
 29106  1  0  0  0
 33 34  1  0  0  0
 33 66  1  0  0  0
 33 70  2  0  0  0
 34 36  1  0  0  0
 34 59  1  0  0  0
 34107  1  0  0  0
 35 44  2  0  0  0
 35 45  1  0  0  0
 35 68  1  0  0  0
 36 56  1  0  0  0
 36108  1  0  0  0
 37 39  1  0  0  0
 37 47  1  0  0  0
 37 66  1  0  0  0
 37109  1  0  0  0
 38 43  2  0  0  0
 38 46  1  0  0  0
 38 47  1  0  0  0
 39 64  1  0  0  0
 39 67  2  0  0  0
 40 52  1  0  0  0
 40 53  2  0  0  0
 40 58  1  0  0  0
 41110  1  0  0  0
 41111  1  0  0  0
 41112  1  0  0  0
 41 48  1  0  0  0
 42 43  1  0  0  0
 42 66  1  0  0  0
 42113  1  0  0  0
 42114  1  0  0  0
 43 44  1  0  0  0
 44115  1  0  0  0
 45 46  2  0  0  0
 45116  1  0  0  0
 46117  1  0  0  0
 47118  1  0  0  0
 47119  1  0  0  0
 48 56  1  0  0  0
 48 65  1  0  0  0
 48120  1  0  0  0
 49 50  1  0  0  0
 49 53  1  0  0  0
 49 64  1  0  0  0
 49121  1  0  0  0
 50 51  1  0  0  0
 50122  1  0  0  0
 50123  1  0  0  0
 51 52  1  0  0  0
 51124  1  0  0  0
 51125  1  0  0  0
 52126  1  0  0  0
 52127  1  0  0  0
 53 54  1  0  0  0
 54 55  2  0  0  0
 54128  1  0  0  0
 55 57  1  0  0  0
 55129  1  0  0  0
 56 69  2  0  0  0
 57 58  2  0  0  0
 57130  1  0  0  0
 58131  1  0  0  0
 59 60  1  0  0  0
 59 61  1  0  0  0
 59 62  1  0  0  0
 60132  1  0  0  0
 60133  1  0  0  0
 60134  1  0  0  0
 61135  1  0  0  0
 61136  1  0  0  0
 61137  1  0  0  0
 62138  1  0  0  0
 62139  1  0  0  0
 62140  1  0  0  0
 63 65  1  0  0  0
 63141  1  0  0  0
 63142  1  0  0  0
 63143  1  0  0  0
 64144  1  0  0  0
 65145  1  0  0  0
 68 82  1  0  0  0
 71 72  2  0  0  0
 71 85  1  0  0  0
 71146  1  0  0  0
 72 74  1  0  0  0
 72 86  1  0  0  0
 73 83  1  0  0  0
 73 85  1  0  0  0
 73 86  2  0  0  0
 74147  1  0  0  0
 74148  1  0  0  0
 74149  1  0  0  0
 75150  1  0  0  0
 75151  1  0  0  0
 75152  1  0  0  0
 75 84  1  0  0  0
 76 84  1  0  0  0
 76153  1  0  0  0
 76154  1  0  0  0
 76155  1  0  0  0
 77 78  1  0  0  0
 77 79  1  0  0  0
 77156  1  0  0  0
 77157  1  0  0  0
 78 81  1  0  0  0
 78158  1  0  0  0
 78159  1  0  0  0
 79 82  1  0  0  0
 79160  1  0  0  0
 79161  1  0  0  0
 80 84  1  0  0  0
 80162  1  0  0  0
 80163  1  0  0  0
 80 83  1  0  0  0
 81 85  1  0  0  0
 81164  1  0  0  0
 81165  1  0  0  0
 82166  1  0  0  0
 82167  1  0  0  0
 83168  1  0  0  0
 84169  1  0  0  0
 86170  1  0  0  0
M  CHG  1  86   1
M  ISO  4   1 100  68 101  82 101  83 100
M  END
> <chiral flag>
0

> <version>
0

> <s_m_source_file>
/data/baiqing/PycharmProjects/Reinvent-master-3.2/result/LINK_invent/BTK/process_docking_weight1_custom_sum_contain_oxygen_bond_distance_aromatic_linkinvent_7_9_3/rearranged_h_0078.sdf

> <i_m_source_file_index>
79

> <r_mmod_Potential_Energy-OPLS-2005>
518.780639648438

> <r_mmod_Stretch_Energy-OPLS-2005>
153.572677612305

> <r_mmod_Bend_Energy-OPLS-2005>
294.767974853516

> <r_mmod_Torsional_Energy-OPLS-2005>
329.586273193359

> <r_mmod_Improper_Torsional_Energy-OPLS-2005>
26.0988998413086

> <r_mmod_Van_der_Waal_Energy-OPLS-2005>
135.339721679688

> <r_mmod_Electrostatic_Energy-OPLS-2005>
-166.611175537109

> <r_mmod_Solvation_Energy-OPLS-2005>
-373.845367431641

> <b_mmod_Minimization_Converged-OPLS-2005>
0

> <r_mmod_RMS_Derivative-OPLS-2005>
11.2912015914917

$$$$
79
                    3D
 Structure written by MMmdl.
159167  0  0  1  0            999 V2000
  -30.7131  -14.5061   20.4816 C   0  0  0  0  0  0
  -30.4153  -12.3060   19.4388 C   0  0  0  0  0  0
  -29.4942  -12.4845   18.2150 C   0  0  0  0  0  0
  -28.0206  -12.3405   18.6314 C   0  0  0  0  0  0
  -27.6582  -13.2102   19.8650 C   0  0  2  0  0  0
  -28.7037  -13.0655   20.9959 C   0  0  0  0  0  0
  -25.2596  -13.8164   20.5671 C   0  0  0  0  0  0
  -24.1854  -13.0440   20.9174 C   0  0  0  0  0  0
  -24.6414  -11.6903   20.8753 C   0  0  0  0  0  0
  -23.9083  -10.4285   21.0416 C   0  0  0  0  0  0
  -24.3623   -9.4198   21.9194 C   0  0  0  0  0  0
  -23.6286   -8.2247   22.0760 C   0  0  0  0  0  0
  -22.4278   -8.0284   21.3553 C   0  0  0  0  0  0
  -21.9930   -9.0262   20.4662 C   0  0  0  0  0  0
  -22.7262  -10.2132   20.3066 C   0  0  0  0  0  0
  -21.6863   -6.0720   22.5272 C   0  0  0  0  0  0
  -21.4015   -6.5625   23.8201 C   0  0  0  0  0  0
  -21.3666   -5.6784   24.9175 C   0  0  0  0  0  0
  -21.6047   -4.3041   24.7247 C   0  0  0  0  0  0
  -21.8822   -3.8131   23.4370 C   0  0  0  0  0  0
  -21.9200   -4.6943   22.3416 C   0  0  0  0  0  0
  -22.7882  -13.5244   21.1824 C   0  0  0  0  0  0
  -22.1667   -4.2119   21.0998 F   0  0  0  0  0  0
  -21.5640   -3.4533   25.7772 F   0  0  0  0  0  0
  -30.0324  -13.3297   20.4254 N   0  0  0  0  0  0
  -26.3031  -12.9335   20.3352 N   0  0  0  0  0  0
  -25.9350  -11.6491   20.5805 N   0  0  0  0  0  0
  -22.0540  -12.8224   22.0380 N   0  0  0  0  0  0
  -25.4309  -15.1881   20.4059 N   0  0  0  0  0  0
  -31.8864  -14.6070   20.1196 O   0  0  0  0  0  0
  -21.6654   -6.8869   21.4238 O   0  0  0  0  0  0
  -22.3570  -14.5555   20.6670 O   0  0  0  0  0  0
  -24.6173  -31.8682   23.2098 C   0  0  0  0  0  0
  -25.9053  -32.4828   23.8401 C   0  0  1  0  0  0
  -27.2327  -27.4297   20.0959 C   0  0  0  0  0  0
  -25.5902  -33.8623   24.2336 N   0  0  0  0  0  0
  -23.4038  -30.4905   21.5529 C   0  0  2  0  0  0
  -24.8468  -28.9493   20.1205 C   0  0  0  0  0  0
  -22.7418  -29.4655   22.5027 C   0  0  0  0  0  0
  -18.0278  -28.1359   22.8499 C   0  0  0  0  0  0
  -24.1486  -36.7328   23.2645 C   0  0  0  0  0  0
  -25.9319  -30.8306   21.3576 C   0  0  0  0  0  0
  -26.0078  -29.4618   20.7132 C   0  0  0  0  0  0
  -27.2044  -28.7096   20.6944 C   0  0  0  0  0  0
  -26.0576  -26.9289   19.4971 C   0  0  0  0  0  0
  -24.8684  -27.6814   19.5103 C   0  0  0  0  0  0
  -23.6093  -29.8183   20.1694 C   0  0  0  0  0  0
  -25.4106  -36.3114   24.0331 C   0  0  1  0  0  0
  -20.5869  -28.3646   23.1336 C   0  0  2  0  0  0
  -20.6767  -26.9385   22.5430 C   0  0  0  0  0  0
  -19.5735  -26.6371   21.5233 C   0  0  0  0  0  0
  -18.1913  -26.7908   22.1634 C   0  0  0  0  0  0
  -19.1529  -28.8815   23.2918 C   0  0  0  0  0  0
  -18.9458  -30.1422   23.8918 C   0  0  0  0  0  0
  -17.6458  -30.6571   24.0559 C   0  0  0  0  0  0
  -25.9032  -34.9471   23.5134 C   0  0  0  0  0  0
  -16.5349  -29.9066   23.6328 C   0  0  0  0  0  0
  -16.7270  -28.6482   23.0361 C   0  0  0  0  0  0
  -26.4461  -31.6611   25.0742 C   0  0  0  0  0  0
  -25.3702  -31.3709   26.1488 C   0  0  0  0  0  0
  -27.0321  -30.3074   24.6106 C   0  0  0  0  0  0
  -27.6062  -32.4317   25.7469 C   0  0  0  0  0  0
  -27.5573  -37.1817   24.8462 C   0  0  0  0  0  0
  -21.4148  -29.3028   22.3756 N   0  0  0  0  0  0
  -26.4295  -37.3797   23.9406 N   0  0  0  0  0  0
  -24.6701  -31.0774   22.0988 N   0  0  0  0  0  0
  -23.4192  -28.8208   23.3079 O   0  0  0  0  0  0
  -28.4101  -26.7185   20.0380 O   0  0  0  0  0  0
  -26.5631  -34.8908   22.4709 O   0  0  0  0  0  0
  -23.5375  -32.1434   23.7493 O   0  0  0  0  0  0
  -29.1212  -21.8096   20.0422 C   0  0  0  0  0  0
  -28.6005  -22.9123   20.7478 C   0  0  0  0  0  0
  -29.3810  -20.6273   20.7629 C   0  0  0  0  0  0
  -28.6929  -21.6792   22.6761 C   0  0  0  0  0  0
  -28.5202  -21.6228   24.1775 C   0  0  0  0  0  0
  -30.7850  -19.6990   19.0113 C   0  0  0  0  0  0
  -28.1767  -24.2078   20.0416 C   0  0  0  0  0  0
  -30.3311  -16.9354   20.0883 C   0  0  0  0  0  0
  -29.9002  -18.1850   20.9079 C   0  0  0  0  0  0
  -28.4880  -25.5140   20.8209 C   0  0  0  0  0  0
  -28.3708  -22.8210   22.0725 N   0  0  0  0  0  0
  -29.1667  -20.5873   22.0866 N   0  0  0  0  0  0
  -29.9681  -15.6183   20.6625 N   0  0  0  0  0  0
  -29.8858  -19.4548   20.1454 N   0  0  0  0  0  0
  -31.4600  -12.3812   19.1343 H   0  0  0  0  0  0
  -30.2955  -11.3079   19.8642 H   0  0  0  0  0  0
  -29.7357  -11.7471   17.4493 H   0  0  0  0  0  0
  -29.6570  -13.4651   17.7639 H   0  0  0  0  0  0
  -27.8515  -11.2873   18.8558 H   0  0  0  0  0  0
  -27.3623  -12.5791   17.7950 H   0  0  0  0  0  0
  -27.6835  -14.2473   19.5301 H   0  0  0  0  0  0
  -28.6790  -12.0629   21.4250 H   0  0  0  0  0  0
  -28.4794  -13.7515   21.8144 H   0  0  0  0  0  0
  -25.2772   -9.5645   22.4771 H   0  0  0  0  0  0
  -23.9981   -7.4631   22.7481 H   0  0  0  0  0  0
  -21.0858   -8.8778   19.8975 H   0  0  0  0  0  0
  -22.3720  -10.9665   19.6165 H   0  0  0  0  0  0
  -21.1987   -7.6127   23.9681 H   0  0  0  0  0  0
  -21.1498   -6.0531   25.9062 H   0  0  0  0  0  0
  -22.0601   -2.7591   23.2891 H   0  0  0  0  0  0
  -22.4182  -11.9869   22.4706 H   0  0  0  0  0  0
  -21.1162  -13.1222   22.2636 H   0  0  0  0  0  0
  -24.6600  -15.8401   20.5083 H   0  0  0  0  0  0
  -26.2803  -15.6297   20.0761 H   0  0  0  0  0  0
  -26.7134  -32.5533   23.1166 H   0  0  0  0  0  0
  -25.0019  -33.9787   25.0462 H   0  0  0  0  0  0
  -22.6943  -31.3090   21.4105 H   0  0  0  0  0  0
  -23.3732  -35.9682   23.3324 H   0  0  0  0  0  0
  -24.3594  -36.8949   22.2065 H   0  0  0  0  0  0
  -23.7239  -37.6531   23.6660 H   0  0  0  0  0  0
  -26.0435  -31.5850   20.5783 H   0  0  0  0  0  0
  -26.8224  -30.8919   21.9710 H   0  0  0  0  0  0
  -28.1065  -29.1075   21.1338 H   0  0  0  0  0  0
  -26.0630  -25.9697   18.9989 H   0  0  0  0  0  0
  -23.9756  -27.2880   19.0450 H   0  0  0  0  0  0
  -23.7147  -30.5901   19.4058 H   0  0  0  0  0  0
  -22.7307  -29.2394   19.8783 H   0  0  0  0  0  0
  -25.1267  -36.2007   25.0823 H   0  0  0  0  0  0
  -20.9968  -28.3202   24.1457 H   0  0  0  0  0  0
  -20.5704  -26.2239   23.3608 H   0  0  0  0  0  0
  -21.6627  -26.7445   22.1193 H   0  0  0  0  0  0
  -19.6906  -25.6303   21.1224 H   0  0  0  0  0  0
  -19.6674  -27.3209   20.6788 H   0  0  0  0  0  0
  -17.4201  -26.6709   21.4017 H   0  0  0  0  0  0
  -18.0282  -26.0026   22.9000 H   0  0  0  0  0  0
  -19.7937  -30.7237   24.2295 H   0  0  0  0  0  0
  -17.5011  -31.6254   24.5160 H   0  0  0  0  0  0
  -15.5353  -30.2974   23.7607 H   0  0  0  0  0  0
  -15.8674  -28.0783   22.7076 H   0  0  0  0  0  0
  -24.5857  -30.7087   25.7796 H   0  0  0  0  0  0
  -24.8888  -32.2855   26.4963 H   0  0  0  0  0  0
  -25.8006  -30.8830   27.0246 H   0  0  0  0  0  0
  -26.2879  -29.6815   24.1173 H   0  0  0  0  0  0
  -27.4162  -29.7325   25.4549 H   0  0  0  0  0  0
  -27.8655  -30.4442   23.9209 H   0  0  0  0  0  0
  -27.2735  -33.3630   26.2051 H   0  0  0  0  0  0
  -28.3826  -32.6879   25.0245 H   0  0  0  0  0  0
  -28.0773  -31.8441   26.5357 H   0  0  0  0  0  0
  -28.2599  -38.0116   24.7522 H   0  0  0  0  0  0
  -28.1054  -36.2643   24.6249 H   0  0  0  0  0  0
  -27.2300  -37.1428   25.8872 H   0  0  0  0  0  0
  -20.9326  -29.8728   21.6947 H   0  0  0  0  0  0
  -26.0190  -38.2882   24.1399 H   0  0  0  0  0  0
  -29.2769  -21.8738   18.9742 H   0  0  0  0  0  0
  -27.4817  -21.4162   24.4308 H   0  0  0  0  0  0
  -28.8117  -22.5658   24.6394 H   0  0  0  0  0  0
  -29.1414  -20.8393   24.6138 H   0  0  0  0  0  0
  -30.2061  -19.7945   18.0903 H   0  0  0  0  0  0
  -31.5203  -18.9106   18.8633 H   0  0  0  0  0  0
  -31.3590  -20.6189   19.1395 H   0  0  0  0  0  0
  -27.1113  -24.1375   19.8229 H   0  0  0  0  0  0
  -28.6862  -24.2478   19.0786 H   0  0  0  0  0  0
  -31.4077  -16.9992   19.9274 H   0  0  0  0  0  0
  -29.8769  -16.9729   19.0971 H   0  0  0  0  0  0
  -30.5370  -18.2930   21.7877 H   0  0  0  0  0  0
  -28.8884  -18.0258   21.2849 H   0  0  0  0  0  0
  -29.5137  -25.4614   21.1866 H   0  0  0  0  0  0
  -27.8561  -25.5867   21.7075 H   0  0  0  0  0  0
  -29.0011  -15.4763   20.9111 H   0  0  0  0  0  0
  1 25  1  0  0  0
  1 30  2  0  0  0
  1 83  1  0  0  0
  2  3  1  0  0  0
  2 25  1  0  0  0
  2 85  1  0  0  0
  2 86  1  0  0  0
  3  4  1  0  0  0
  3 87  1  0  0  0
  3 88  1  0  0  0
  4  5  1  0  0  0
  4 89  1  0  0  0
  4 90  1  0  0  0
  5  6  1  0  0  0
  5 26  1  0  0  0
  5 91  1  0  0  0
  6 25  1  0  0  0
  6 92  1  0  0  0
  6 93  1  0  0  0
  7  8  2  0  0  0
  7 26  1  0  0  0
  7 29  1  0  0  0
  8  9  1  0  0  0
  8 22  1  0  0  0
  9 10  1  0  0  0
  9 27  2  0  0  0
 10 11  2  0  0  0
 10 15  1  0  0  0
 11 12  1  0  0  0
 11 94  1  0  0  0
 12 13  2  0  0  0
 12 95  1  0  0  0
 13 14  1  0  0  0
 13 31  1  0  0  0
 14 15  2  0  0  0
 14 96  1  0  0  0
 15 97  1  0  0  0
 16 17  2  0  0  0
 16 21  1  0  0  0
 16 31  1  0  0  0
 17 18  1  0  0  0
 17 98  1  0  0  0
 18 19  2  0  0  0
 18 99  1  0  0  0
 19 20  1  0  0  0
 19 24  1  0  0  0
 20 21  2  0  0  0
 20100  1  0  0  0
 21 23  1  0  0  0
 22 28  1  0  0  0
 22 32  2  0  0  0
 26 27  1  0  0  0
 28101  1  0  0  0
 28102  1  0  0  0
 29103  1  0  0  0
 29104  1  0  0  0
 33 34  1  0  0  0
 33 66  1  0  0  0
 33 70  2  0  0  0
 34 36  1  0  0  0
 34 59  1  0  0  0
 34105  1  0  0  0
 35 44  2  0  0  0
 35 45  1  0  0  0
 35 68  1  0  0  0
 36 56  1  0  0  0
 36106  1  0  0  0
 37 39  1  0  0  0
 37 47  1  0  0  0
 37 66  1  0  0  0
 37107  1  0  0  0
 38 43  2  0  0  0
 38 46  1  0  0  0
 38 47  1  0  0  0
 39 64  1  0  0  0
 39 67  2  0  0  0
 40 52  1  0  0  0
 40 53  2  0  0  0
 40 58  1  0  0  0
 41108  1  0  0  0
 41109  1  0  0  0
 41110  1  0  0  0
 41 48  1  0  0  0
 42 43  1  0  0  0
 42 66  1  0  0  0
 42111  1  0  0  0
 42112  1  0  0  0
 43 44  1  0  0  0
 44113  1  0  0  0
 45 46  2  0  0  0
 45114  1  0  0  0
 46115  1  0  0  0
 47116  1  0  0  0
 47117  1  0  0  0
 48 56  1  0  0  0
 48 65  1  0  0  0
 48118  1  0  0  0
 49 50  1  0  0  0
 49 53  1  0  0  0
 49 64  1  0  0  0
 49119  1  0  0  0
 50 51  1  0  0  0
 50120  1  0  0  0
 50121  1  0  0  0
 51 52  1  0  0  0
 51122  1  0  0  0
 51123  1  0  0  0
 52124  1  0  0  0
 52125  1  0  0  0
 53 54  1  0  0  0
 54 55  2  0  0  0
 54126  1  0  0  0
 55 57  1  0  0  0
 55127  1  0  0  0
 56 69  2  0  0  0
 57 58  2  0  0  0
 57128  1  0  0  0
 58129  1  0  0  0
 59 60  1  0  0  0
 59 61  1  0  0  0
 59 62  1  0  0  0
 60130  1  0  0  0
 60131  1  0  0  0
 60132  1  0  0  0
 61133  1  0  0  0
 61134  1  0  0  0
 61135  1  0  0  0
 62136  1  0  0  0
 62137  1  0  0  0
 62138  1  0  0  0
 63 65  1  0  0  0
 63139  1  0  0  0
 63140  1  0  0  0
 63141  1  0  0  0
 64142  1  0  0  0
 65143  1  0  0  0
 68 80  1  0  0  0
 71 72  2  0  0  0
 71 73  1  0  0  0
 71144  1  0  0  0
 72 77  1  0  0  0
 72 81  1  0  0  0
 73 82  2  0  0  0
 73 84  1  0  0  0
 74 75  1  0  0  0
 74 81  2  0  0  0
 74 82  1  0  0  0
 75145  1  0  0  0
 75146  1  0  0  0
 75147  1  0  0  0
 76 84  1  0  0  0
 76148  1  0  0  0
 76149  1  0  0  0
 76150  1  0  0  0
 77 80  1  0  0  0
 77151  1  0  0  0
 77152  1  0  0  0
 78 79  1  0  0  0
 78 83  1  0  0  0
 78153  1  0  0  0
 78154  1  0  0  0
 79 84  1  0  0  0
 79155  1  0  0  0
 79156  1  0  0  0
 80157  1  0  0  0
 80158  1  0  0  0
 83159  1  0  0  0
M  ISO  4   1 100  68 101  80 101  83 100
M  END
> <chiral flag>
0

> <version>
0

> <s_m_source_file>
/data/baiqing/PycharmProjects/Reinvent-master-3.2/result/LINK_invent/BTK/process_docking_weight1_custom_sum_contain_oxygen_bond_distance_aromatic_linkinvent_7_9_3/rearranged_h_0078.sdf

> <i_m_source_file_index>
80

> <r_mmod_Potential_Energy-OPLS-2005>
-595.176574707031

> <r_mmod_Stretch_Energy-OPLS-2005>
38.8538360595703

> <r_mmod_Bend_Energy-OPLS-2005>
108.561531066895

> <r_mmod_Torsional_Energy-OPLS-2005>
224.636810302734

> <r_mmod_Improper_Torsional_Energy-OPLS-2005>
9.90879058837891

> <r_mmod_Van_der_Waal_Energy-OPLS-2005>
170.666625976562

> <r_mmod_Electrostatic_Energy-OPLS-2005>
-920.536987304688

> <r_mmod_Solvation_Energy-OPLS-2005>
-246.381118774414

> <b_mmod_Minimization_Converged-OPLS-2005>
0

> <r_mmod_RMS_Derivative-OPLS-2005>
3.22085499763489

$$$$
80
                    3D
 Structure written by MMmdl.
163171  0  0  1  0            999 V2000
  -30.6636  -14.7461   20.4418 C   0  0  0  0  0  0
  -30.4154  -12.4606   19.4661 C   0  0  0  0  0  0
  -29.5016  -12.5089   18.2252 C   0  0  0  0  0  0
  -28.0275  -12.3445   18.6412 C   0  0  0  0  0  0
  -27.6377  -13.2438   19.8463 C   0  0  2  0  0  0
  -28.6887  -13.2078   20.9765 C   0  0  0  0  0  0
  -25.2501  -13.8222   20.5710 C   0  0  0  0  0  0
  -24.1802  -13.0451   20.9216 C   0  0  0  0  0  0
  -24.6422  -11.6932   20.8768 C   0  0  0  0  0  0
  -23.9096  -10.4301   21.0431 C   0  0  0  0  0  0
  -24.3641   -9.4210   21.9200 C   0  0  0  0  0  0
  -23.6307   -8.2249   22.0763 C   0  0  0  0  0  0
  -22.4288   -8.0303   21.3550 C   0  0  0  0  0  0
  -21.9928   -9.0279   20.4651 C   0  0  0  0  0  0
  -22.7273  -10.2155   20.3072 C   0  0  0  0  0  0
  -21.6860   -6.0755   22.5276 C   0  0  0  0  0  0
  -21.4018   -6.5650   23.8215 C   0  0  0  0  0  0
  -21.3652   -5.6796   24.9174 C   0  0  0  0  0  0
  -21.6050   -4.3060   24.7218 C   0  0  0  0  0  0
  -21.8824   -3.8161   23.4334 C   0  0  0  0  0  0
  -21.9196   -4.6981   22.3399 C   0  0  0  0  0  0
  -22.7828  -13.5233   21.1864 C   0  0  0  0  0  0
  -22.1663   -4.2169   21.0974 F   0  0  0  0  0  0
  -21.5626   -3.4541   25.7727 F   0  0  0  0  0  0
  -29.9803  -13.5497   20.3726 N   0  0  0  0  0  0
  -26.2942  -12.9453   20.3303 N   0  0  0  0  0  0
  -25.9363  -11.6579   20.5763 N   0  0  0  0  0  0
  -22.0457  -12.8213   22.0399 N   0  0  0  0  0  0
  -25.4179  -15.1943   20.4108 N   0  0  0  0  0  0
  -31.8646  -14.7305   20.1801 O   0  0  0  0  0  0
  -21.6655   -6.8901   21.4243 O   0  0  0  0  0  0
  -22.3528  -14.5544   20.6710 O   0  0  0  0  0  0
  -24.6274  -31.8548   23.1981 C   0  0  0  0  0  0
  -25.9112  -32.4750   23.8308 C   0  0  1  0  0  0
  -27.2229  -27.2668   20.1221 C   0  0  0  0  0  0
  -25.5916  -33.8562   24.2211 N   0  0  0  0  0  0
  -23.4238  -30.4749   21.5422 C   0  0  2  0  0  0
  -24.8726  -28.9213   20.1061 C   0  0  0  0  0  0
  -22.7460  -29.4585   22.4917 C   0  0  0  0  0  0
  -18.0284  -28.1366   22.8502 C   0  0  0  0  0  0
  -24.1508  -36.7283   23.2635 C   0  0  0  0  0  0
  -25.9688  -30.7681   21.3791 C   0  0  0  0  0  0
  -26.0416  -29.3935   20.7149 C   0  0  0  0  0  0
  -27.2144  -28.5756   20.7133 C   0  0  0  0  0  0
  -26.0262  -26.8507   19.5018 C   0  0  0  0  0  0
  -24.8698  -27.6582   19.4939 C   0  0  0  0  0  0
  -23.6391  -29.8027   20.1599 C   0  0  0  0  0  0
  -25.4139  -36.3059   24.0300 C   0  0  1  0  0  0
  -20.5874  -28.3675   23.1287 C   0  0  2  0  0  0
  -20.6779  -26.9395   22.5414 C   0  0  0  0  0  0
  -19.5757  -26.6366   21.5221 C   0  0  0  0  0  0
  -18.1934  -26.7912   22.1623 C   0  0  0  0  0  0
  -19.1524  -28.8842   23.2901 C   0  0  0  0  0  0
  -18.9445  -30.1450   23.8897 C   0  0  0  0  0  0
  -17.6444  -30.6583   24.0556 C   0  0  0  0  0  0
  -25.9066  -34.9436   23.5059 C   0  0  0  0  0  0
  -16.5337  -29.9065   23.6350 C   0  0  0  0  0  0
  -16.7261  -28.6481   23.0375 C   0  0  0  0  0  0
  -26.4484  -31.6595   25.0713 C   0  0  0  0  0  0
  -25.3679  -31.3782   26.1406 C   0  0  0  0  0  0
  -27.0342  -30.2989   24.6272 C   0  0  0  0  0  0
  -27.6016  -32.4362   25.7502 C   0  0  0  0  0  0
  -27.5587  -37.1788   24.8441 C   0  0  0  0  0  0
  -21.4162  -29.3032   22.3672 N   0  0  0  0  0  0
  -26.4300  -37.3760   23.9387 N   0  0  0  0  0  0
  -24.6924  -31.0509   22.0962 N   0  0  0  0  0  0
  -23.4164  -28.8134   23.3022 O   0  0  0  0  0  0
  -28.3418  -26.4098   20.2058 O   0  0  0  0  0  0
  -26.5639  -34.8909   22.4626 O   0  0  0  0  0  0
  -23.5429  -32.1366   23.7276 O   0  0  0  0  0  0
  -29.9933  -20.0556   20.6938 C   0  0  0  0  0  0
  -29.7150  -18.7112   20.3935 C   0  0  0  0  0  0
  -28.3273  -20.1186   19.2645 C   0  0  0  0  0  0
  -25.4297  -18.8165   18.3809 C   0  0  0  0  0  0
  -31.8945  -17.5980   20.0606 C   0  0  0  0  0  0
  -27.2979  -20.5870   18.2731 C   0  0  0  0  0  0
  -26.5220  -19.4813   17.5302 C   0  0  0  0  0  0
  -28.3625  -23.6215   20.2695 C   0  0  0  0  0  0
  -29.3292  -22.4466   19.7100 C   0  0  0  0  0  0
  -28.4658  -25.0717   19.5364 C   0  0  0  0  0  0
  -30.5250  -17.3952   20.7502 C   0  0  2  0  0  0
  -29.1676  -20.9171   19.9602 N   0  0  0  0  0  0
  -28.6527  -18.8244   19.5268 N   0  3  0  0  0  0
  -29.9807  -15.9550   20.5953 N   0  0  0  0  0  0
  -31.4600  -12.5503   19.1624 H   0  0  0  0  0  0
  -30.3335  -11.4938   19.9642 H   0  0  0  0  0  0
  -29.7803  -11.7251   17.5196 H   0  0  0  0  0  0
  -29.6373  -13.4579   17.7029 H   0  0  0  0  0  0
  -27.8733  -11.2948   18.8917 H   0  0  0  0  0  0
  -27.3744  -12.5507   17.7919 H   0  0  0  0  0  0
  -27.6195  -14.2631   19.4596 H   0  0  0  0  0  0
  -28.7296  -12.2186   21.4349 H   0  0  0  0  0  0
  -28.4310  -13.9098   21.7711 H   0  0  0  0  0  0
  -25.2786   -9.5689   22.4777 H   0  0  0  0  0  0
  -24.0019   -7.4641   22.7486 H   0  0  0  0  0  0
  -21.0861   -8.8815   19.8938 H   0  0  0  0  0  0
  -22.3749  -10.9707   19.6182 H   0  0  0  0  0  0
  -21.2001   -7.6156   23.9715 H   0  0  0  0  0  0
  -21.1471   -6.0530   25.9074 H   0  0  0  0  0  0
  -22.0604   -2.7622   23.2834 H   0  0  0  0  0  0
  -22.4070  -11.9876   22.4799 H   0  0  0  0  0  0
  -21.1072  -13.1262   22.2568 H   0  0  0  0  0  0
  -24.6508  -15.8470   20.5266 H   0  0  0  0  0  0
  -26.2558  -15.6268   20.0478 H   0  0  0  0  0  0
  -26.7173  -32.5396   23.1043 H   0  0  0  0  0  0
  -25.0078  -33.9733   25.0360 H   0  0  0  0  0  0
  -22.7198  -31.2970   21.3939 H   0  0  0  0  0  0
  -23.3777  -35.9602   23.3269 H   0  0  0  0  0  0
  -24.3604  -36.8948   22.2056 H   0  0  0  0  0  0
  -23.7263  -37.6466   23.6702 H   0  0  0  0  0  0
  -26.1106  -31.5370   20.6179 H   0  0  0  0  0  0
  -26.8436  -30.8101   22.0186 H   0  0  0  0  0  0
  -28.1100  -28.9291   21.2042 H   0  0  0  0  0  0
  -25.9474  -25.8728   19.0560 H   0  0  0  0  0  0
  -23.9671  -27.2870   19.0285 H   0  0  0  0  0  0
  -23.7382  -30.5727   19.3933 H   0  0  0  0  0  0
  -22.7617  -29.2200   19.8740 H   0  0  0  0  0  0
  -25.1334  -36.1889   25.0789 H   0  0  0  0  0  0
  -20.9990  -28.3272   24.1398 H   0  0  0  0  0  0
  -20.5710  -26.2276   23.3612 H   0  0  0  0  0  0
  -21.6646  -26.7449   22.1184 H   0  0  0  0  0  0
  -19.6920  -25.6275   21.1266 H   0  0  0  0  0  0
  -19.6707  -27.3175   20.6756 H   0  0  0  0  0  0
  -17.4207  -26.6680   21.4022 H   0  0  0  0  0  0
  -18.0330  -26.0034   22.9003 H   0  0  0  0  0  0
  -19.7917  -30.7296   24.2246 H   0  0  0  0  0  0
  -17.4985  -31.6270   24.5143 H   0  0  0  0  0  0
  -15.5336  -30.2957   23.7688 H   0  0  0  0  0  0
  -15.8664  -28.0808   22.7089 H   0  0  0  0  0  0
  -24.5833  -30.7174   25.7707 H   0  0  0  0  0  0
  -24.8902  -32.2976   26.4799 H   0  0  0  0  0  0
  -25.7939  -30.8945   27.0199 H   0  0  0  0  0  0
  -26.2956  -29.6730   24.1252 H   0  0  0  0  0  0
  -27.3910  -29.7283   25.4857 H   0  0  0  0  0  0
  -27.8877  -30.4206   23.9601 H   0  0  0  0  0  0
  -27.2588  -33.3654   26.2063 H   0  0  0  0  0  0
  -28.3839  -32.6944   25.0355 H   0  0  0  0  0  0
  -28.0667  -31.8506   26.5433 H   0  0  0  0  0  0
  -28.2557  -38.0130   24.7536 H   0  0  0  0  0  0
  -28.1128  -36.2656   24.6216 H   0  0  0  0  0  0
  -27.2293  -37.1371   25.8835 H   0  0  0  0  0  0
  -20.9323  -29.8735   21.6875 H   0  0  0  0  0  0
  -26.0167  -38.2817   24.1408 H   0  0  0  0  0  0
  -30.7961  -20.4530   21.2990 H   0  0  0  0  0  0
  -24.8704  -18.0868   17.7926 H   0  0  0  0  0  0
  -24.7168  -19.5576   18.7441 H   0  0  0  0  0  0
  -25.8418  -18.3007   19.2484 H   0  0  0  0  0  0
  -32.2666  -18.6148   20.1914 H   0  0  0  0  0  0
  -31.8233  -17.4131   18.9883 H   0  0  0  0  0  0
  -32.6756  -16.9624   20.4703 H   0  0  0  0  0  0
  -27.8365  -21.1963   17.5468 H   0  0  0  0  0  0
  -26.6137  -21.2471   18.8078 H   0  0  0  0  0  0
  -26.0315  -19.9327   16.6675 H   0  0  0  0  0  0
  -27.2073  -18.7375   17.1186 H   0  0  0  0  0  0
  -28.5648  -23.7510   21.3324 H   0  0  0  0  0  0
  -27.3272  -23.2860   20.2133 H   0  0  0  0  0  0
  -30.3422  -22.6897   20.0298 H   0  0  0  0  0  0
  -29.3644  -22.5560   18.6258 H   0  0  0  0  0  0
  -27.8806  -25.0477   18.6178 H   0  0  0  0  0  0
  -29.4875  -25.1088   19.1601 H   0  0  0  0  0  0
  -30.7165  -17.4773   21.8216 H   0  0  0  0  0  0
  -28.2219  -18.0358   19.0618 H   0  0  0  0  0  0
  -28.9883  -15.8607   20.7469 H   0  0  0  0  0  0
  1 25  1  0  0  0
  1 30  2  0  0  0
  1 84  1  0  0  0
  2  3  1  0  0  0
  2 25  1  0  0  0
  2 85  1  0  0  0
  2 86  1  0  0  0
  3  4  1  0  0  0
  3 87  1  0  0  0
  3 88  1  0  0  0
  4  5  1  0  0  0
  4 89  1  0  0  0
  4 90  1  0  0  0
  5  6  1  0  0  0
  5 26  1  0  0  0
  5 91  1  0  0  0
  6 25  1  0  0  0
  6 92  1  0  0  0
  6 93  1  0  0  0
  7  8  2  0  0  0
  7 26  1  0  0  0
  7 29  1  0  0  0
  8  9  1  0  0  0
  8 22  1  0  0  0
  9 10  1  0  0  0
  9 27  2  0  0  0
 10 11  2  0  0  0
 10 15  1  0  0  0
 11 12  1  0  0  0
 11 94  1  0  0  0
 12 13  2  0  0  0
 12 95  1  0  0  0
 13 14  1  0  0  0
 13 31  1  0  0  0
 14 15  2  0  0  0
 14 96  1  0  0  0
 15 97  1  0  0  0
 16 17  2  0  0  0
 16 21  1  0  0  0
 16 31  1  0  0  0
 17 18  1  0  0  0
 17 98  1  0  0  0
 18 19  2  0  0  0
 18 99  1  0  0  0
 19 20  1  0  0  0
 19 24  1  0  0  0
 20 21  2  0  0  0
 20100  1  0  0  0
 21 23  1  0  0  0
 22 28  1  0  0  0
 22 32  2  0  0  0
 26 27  1  0  0  0
 28101  1  0  0  0
 28102  1  0  0  0
 29103  1  0  0  0
 29104  1  0  0  0
 33 34  1  0  0  0
 33 66  1  0  0  0
 33 70  2  0  0  0
 34 36  1  0  0  0
 34 59  1  0  0  0
 34105  1  0  0  0
 35 44  2  0  0  0
 35 45  1  0  0  0
 35 68  1  0  0  0
 36 56  1  0  0  0
 36106  1  0  0  0
 37 39  1  0  0  0
 37 47  1  0  0  0
 37 66  1  0  0  0
 37107  1  0  0  0
 38 43  2  0  0  0
 38 46  1  0  0  0
 38 47  1  0  0  0
 39 64  1  0  0  0
 39 67  2  0  0  0
 40 52  1  0  0  0
 40 53  2  0  0  0
 40 58  1  0  0  0
 41108  1  0  0  0
 41109  1  0  0  0
 41110  1  0  0  0
 41 48  1  0  0  0
 42 43  1  0  0  0
 42 66  1  0  0  0
 42111  1  0  0  0
 42112  1  0  0  0
 43 44  1  0  0  0
 44113  1  0  0  0
 45 46  2  0  0  0
 45114  1  0  0  0
 46115  1  0  0  0
 47116  1  0  0  0
 47117  1  0  0  0
 48 56  1  0  0  0
 48 65  1  0  0  0
 48118  1  0  0  0
 49 50  1  0  0  0
 49 53  1  0  0  0
 49 64  1  0  0  0
 49119  1  0  0  0
 50 51  1  0  0  0
 50120  1  0  0  0
 50121  1  0  0  0
 51 52  1  0  0  0
 51122  1  0  0  0
 51123  1  0  0  0
 52124  1  0  0  0
 52125  1  0  0  0
 53 54  1  0  0  0
 54 55  2  0  0  0
 54126  1  0  0  0
 55 57  1  0  0  0
 55127  1  0  0  0
 56 69  2  0  0  0
 57 58  2  0  0  0
 57128  1  0  0  0
 58129  1  0  0  0
 59 60  1  0  0  0
 59 61  1  0  0  0
 59 62  1  0  0  0
 60130  1  0  0  0
 60131  1  0  0  0
 60132  1  0  0  0
 61133  1  0  0  0
 61134  1  0  0  0
 61135  1  0  0  0
 62136  1  0  0  0
 62137  1  0  0  0
 62138  1  0  0  0
 63 65  1  0  0  0
 63139  1  0  0  0
 63140  1  0  0  0
 63141  1  0  0  0
 64142  1  0  0  0
 65143  1  0  0  0
 68 80  1  0  0  0
 71 72  2  0  0  0
 71 82  1  0  0  0
 71144  1  0  0  0
 72 81  1  0  0  0
 72 83  1  0  0  0
 73 76  1  0  0  0
 73 82  1  0  0  0
 73 83  2  0  0  0
 74 77  1  0  0  0
 74145  1  0  0  0
 74146  1  0  0  0
 74147  1  0  0  0
 75148  1  0  0  0
 75149  1  0  0  0
 75150  1  0  0  0
 75 81  1  0  0  0
 76 77  1  0  0  0
 76151  1  0  0  0
 76152  1  0  0  0
 77153  1  0  0  0
 77154  1  0  0  0
 78 79  1  0  0  0
 78 80  1  0  0  0
 78155  1  0  0  0
 78156  1  0  0  0
 79 82  1  0  0  0
 79157  1  0  0  0
 79158  1  0  0  0
 80159  1  0  0  0
 80160  1  0  0  0
 81 84  1  0  0  0
 81161  1  0  0  0
 83162  1  0  0  0
 84163  1  0  0  0
M  CHG  1  83   1
M  ISO  4   1 100  68 101  80 101  84 100
M  END
> <chiral flag>
0

> <version>
0

> <s_m_source_file>
/data/baiqing/PycharmProjects/Reinvent-master-3.2/result/LINK_invent/BTK/process_docking_weight1_custom_sum_contain_oxygen_bond_distance_aromatic_linkinvent_7_9_3/rearranged_h_0078.sdf

> <i_m_source_file_index>
81

> <r_mmod_Potential_Energy-OPLS-2005>
89.3156356811523

> <r_mmod_Stretch_Energy-OPLS-2005>
127.256332397461

> <r_mmod_Bend_Energy-OPLS-2005>
209.874084472656

> <r_mmod_Torsional_Energy-OPLS-2005>
238.024795532227

> <r_mmod_Improper_Torsional_Energy-OPLS-2005>
7.91061210632324

> <r_mmod_Van_der_Waal_Energy-OPLS-2005>
119.002395629883

> <r_mmod_Electrostatic_Energy-OPLS-2005>
-271.690093994141

> <r_mmod_Solvation_Energy-OPLS-2005>
-426.287536621094

> <b_mmod_Minimization_Converged-OPLS-2005>
0

> <r_mmod_RMS_Derivative-OPLS-2005>
2.98276329040527

$$$$
81
                    3D
 Structure written by MMmdl.
170178  0  0  1  0            999 V2000
  -30.5967  -14.8221   20.4128 C   0  0  0  0  0  0
  -30.4383  -12.5157   19.4559 C   0  0  0  0  0  0
  -29.4887  -12.4969   18.2344 C   0  0  0  0  0  0
  -28.0291  -12.3065   18.6844 C   0  0  0  0  0  0
  -27.6287  -13.2176   19.8758 C   0  0  2  0  0  0
  -28.6986  -13.1817   20.9886 C   0  0  0  0  0  0
  -25.2130  -13.7821   20.5687 C   0  0  0  0  0  0
  -24.1553  -13.0053   20.9325 C   0  0  0  0  0  0
  -24.6317  -11.6652   20.8830 C   0  0  0  0  0  0
  -23.9080  -10.4039   21.0501 C   0  0  0  0  0  0
  -24.3644   -9.3975   21.9272 C   0  0  0  0  0  0
  -23.6226   -8.2101   22.0872 C   0  0  0  0  0  0
  -22.4233   -8.0216   21.3662 C   0  0  0  0  0  0
  -21.9869   -9.0144   20.4751 C   0  0  0  0  0  0
  -22.7274  -10.1972   20.3141 C   0  0  0  0  0  0
  -21.6792   -6.0674   22.5274 C   0  0  0  0  0  0
  -21.3911   -6.5606   23.8182 C   0  0  0  0  0  0
  -21.3577   -5.6815   24.9164 C   0  0  0  0  0  0
  -21.5994   -4.3078   24.7260 C   0  0  0  0  0  0
  -21.8850   -3.8153   23.4395 C   0  0  0  0  0  0
  -21.9220   -4.6910   22.3439 C   0  0  0  0  0  0
  -22.7636  -13.4952   21.1943 C   0  0  0  0  0  0
  -22.1801   -4.2124   21.1015 F   0  0  0  0  0  0
  -21.5577   -3.4577   25.7770 F   0  0  0  0  0  0
  -29.9833  -13.5794   20.3880 N   0  0  0  0  0  0
  -26.2790  -12.9227   20.3499 N   0  0  0  0  0  0
  -25.9247  -11.6356   20.5890 N   0  0  0  0  0  0
  -22.0327  -12.8016   22.0579 N   0  0  0  0  0  0
  -25.2754  -15.1450   20.3859 N   0  0  0  0  0  0
  -31.7722  -14.8769   20.0448 O   0  0  0  0  0  0
  -21.6622   -6.8787   21.4272 O   0  0  0  0  0  0
  -22.3319  -14.5244   20.6752 O   0  0  0  0  0  0
  -24.6284  -31.8585   23.2016 C   0  0  0  0  0  0
  -25.9101  -32.4788   23.8347 C   0  0  1  0  0  0
  -27.2075  -27.2931   20.1318 C   0  0  0  0  0  0
  -25.5924  -33.8582   24.2273 N   0  0  0  0  0  0
  -23.4245  -30.4770   21.5418 C   0  0  2  0  0  0
  -24.8720  -28.9348   20.1059 C   0  0  0  0  0  0
  -22.7490  -29.4575   22.4919 C   0  0  0  0  0  0
  -18.0290  -28.1394   22.8495 C   0  0  0  0  0  0
  -24.1478  -36.7286   23.2639 C   0  0  0  0  0  0
  -25.9640  -30.7835   21.3743 C   0  0  0  0  0  0
  -26.0417  -29.4093   20.7155 C   0  0  0  0  0  0
  -27.2195  -28.6020   20.7098 C   0  0  0  0  0  0
  -26.0301  -26.8885   19.4706 C   0  0  0  0  0  0
  -24.8704  -27.6865   19.4635 C   0  0  0  0  0  0
  -23.6408  -29.8132   20.1569 C   0  0  0  0  0  0
  -25.4108  -36.3084   24.0322 C   0  0  1  0  0  0
  -20.5880  -28.3714   23.1277 C   0  0  2  0  0  0
  -20.6776  -26.9440   22.5395 C   0  0  0  0  0  0
  -19.5741  -26.6391   21.5210 C   0  0  0  0  0  0
  -18.1917  -26.7936   22.1633 C   0  0  0  0  0  0
  -19.1540  -28.8869   23.2882 C   0  0  0  0  0  0
  -18.9490  -30.1471   23.8887 C   0  0  0  0  0  0
  -17.6485  -30.6604   24.0568 C   0  0  0  0  0  0
  -25.9026  -34.9461   23.5088 C   0  0  0  0  0  0
  -16.5358  -29.9106   23.6335 C   0  0  0  0  0  0
  -16.7285  -28.6526   23.0350 C   0  0  0  0  0  0
  -26.4484  -31.6594   25.0705 C   0  0  0  0  0  0
  -25.3737  -31.3700   26.1441 C   0  0  0  0  0  0
  -27.0388  -30.3063   24.6149 C   0  0  0  0  0  0
  -27.6022  -32.4353   25.7504 C   0  0  0  0  0  0
  -27.5557  -37.1814   24.8478 C   0  0  0  0  0  0
  -21.4197  -29.3063   22.3677 N   0  0  0  0  0  0
  -26.4298  -37.3772   23.9372 N   0  0  0  0  0  0
  -24.6895  -31.0552   22.0965 N   0  0  0  0  0  0
  -23.4214  -28.8116   23.2984 O   0  0  0  0  0  0
  -28.2874  -26.4021   20.1777 O   0  0  0  0  0  0
  -26.5616  -34.8929   22.4656 O   0  0  0  0  0  0
  -23.5423  -32.1408   23.7281 O   0  0  0  0  0  0
  -29.2891  -21.2473   18.3356 C   0  0  0  0  0  0
  -29.7576  -20.1863   17.5705 C   0  0  0  0  0  0
  -28.9952  -21.0418   19.6901 C   0  0  0  0  0  0
  -29.4898  -18.7379   19.3801 C   0  0  0  0  0  0
  -30.0264  -20.3785   16.0734 C   0  0  0  0  0  0
  -30.1496  -24.0575   19.6404 C   0  0  0  0  0  0
  -29.0792  -16.4386   18.3200 C   0  0  0  0  0  0
  -27.6574  -17.2634   20.1391 C   0  0  0  0  0  0
  -28.4913  -22.2767   20.5404 C   0  0  0  0  0  0
  -30.8663  -17.1263   21.6713 C   0  0  0  0  0  0
  -28.0251  -25.0175   20.6733 C   0  0  0  0  0  0
  -29.9101  -16.2555   20.7995 C   0  0  1  0  0  0
  -28.6595  -23.7616   19.9121 C   0  0  1  0  0  0
  -29.1257  -17.1932   19.6883 C   0  0  0  0  0  0
  -29.9005  -18.9656   18.1196 N   0  0  0  0  0  0
  -29.0942  -19.7573   20.2072 N   0  0  0  0  0  0
  -30.1651  -18.0564   22.5981 N   0  3  0  0  0  0
  -31.4568  -12.6791   19.1010 H   0  0  0  0  0  0
  -30.4548  -11.5439   19.9517 H   0  0  0  0  0  0
  -29.7761  -11.6888   17.5555 H   0  0  0  0  0  0
  -29.5839  -13.4192   17.6598 H   0  0  0  0  0  0
  -27.9320  -11.2682   19.0001 H   0  0  0  0  0  0
  -27.3434  -12.4410   17.8502 H   0  0  0  0  0  0
  -27.5801  -14.2296   19.5037 H   0  0  0  0  0  0
  -28.7923  -12.1751   21.3990 H   0  0  0  0  0  0
  -28.4284  -13.8235   21.8277 H   0  0  0  0  0  0
  -25.2819   -9.5333   22.4819 H   0  0  0  0  0  0
  -23.9829   -7.4446   22.7600 H   0  0  0  0  0  0
  -21.0785   -8.8668   19.9042 H   0  0  0  0  0  0
  -22.3787  -10.9518   19.6236 H   0  0  0  0  0  0
  -21.1891   -7.6114   23.9606 H   0  0  0  0  0  0
  -21.1393   -6.0603   25.9020 H   0  0  0  0  0  0
  -22.0746   -2.7627   23.2887 H   0  0  0  0  0  0
  -22.4158  -11.9876   22.5166 H   0  0  0  0  0  0
  -21.0918  -13.0940   22.2747 H   0  0  0  0  0  0
  -24.3899  -15.6390   20.4116 H   0  0  0  0  0  0
  -26.0005  -15.6479   19.8937 H   0  0  0  0  0  0
  -26.7151  -32.5473   23.1079 H   0  0  0  0  0  0
  -25.0078  -33.9728   25.0429 H   0  0  0  0  0  0
  -22.7212  -31.2982   21.3904 H   0  0  0  0  0  0
  -23.3784  -35.9577   23.3301 H   0  0  0  0  0  0
  -24.3544  -36.8948   22.2056 H   0  0  0  0  0  0
  -23.7213  -37.6456   23.6708 H   0  0  0  0  0  0
  -26.0842  -31.5448   20.6022 H   0  0  0  0  0  0
  -26.8455  -30.8400   21.9990 H   0  0  0  0  0  0
  -28.1165  -28.9594   21.1974 H   0  0  0  0  0  0
  -25.9987  -25.9322   18.9644 H   0  0  0  0  0  0
  -23.9796  -27.3288   18.9609 H   0  0  0  0  0  0
  -23.7598  -30.5902   19.4001 H   0  0  0  0  0  0
  -22.7663  -29.2333   19.8588 H   0  0  0  0  0  0
  -25.1277  -36.1927   25.0821 H   0  0  0  0  0  0
  -20.9950  -28.3293   24.1411 H   0  0  0  0  0  0
  -20.5688  -26.2323   23.3604 H   0  0  0  0  0  0
  -21.6640  -26.7442   22.1176 H   0  0  0  0  0  0
  -19.6894  -25.6299   21.1268 H   0  0  0  0  0  0
  -19.6667  -27.3189   20.6734 H   0  0  0  0  0  0
  -17.4168  -26.6718   21.4047 H   0  0  0  0  0  0
  -18.0301  -26.0056   22.9008 H   0  0  0  0  0  0
  -19.7952  -30.7291   24.2259 H   0  0  0  0  0  0
  -17.5039  -31.6272   24.5206 H   0  0  0  0  0  0
  -15.5373  -30.3019   23.7646 H   0  0  0  0  0  0
  -15.8687  -28.0853   22.7049 H   0  0  0  0  0  0
  -24.5830  -30.7172   25.7721 H   0  0  0  0  0  0
  -24.9032  -32.2871   26.5003 H   0  0  0  0  0  0
  -25.8033  -30.8715   27.0145 H   0  0  0  0  0  0
  -26.2975  -29.6769   24.1221 H   0  0  0  0  0  0
  -27.4196  -29.7332   25.4607 H   0  0  0  0  0  0
  -27.8776  -30.4407   23.9322 H   0  0  0  0  0  0
  -27.2623  -33.3687   26.2015 H   0  0  0  0  0  0
  -28.3880  -32.6887   25.0371 H   0  0  0  0  0  0
  -28.0659  -31.8535   26.5489 H   0  0  0  0  0  0
  -28.2599  -38.0084   24.7469 H   0  0  0  0  0  0
  -28.1033  -36.2608   24.6388 H   0  0  0  0  0  0
  -27.2247  -37.1549   25.8881 H   0  0  0  0  0  0
  -20.9385  -29.8862   21.6940 H   0  0  0  0  0  0
  -26.0191  -38.2853   24.1363 H   0  0  0  0  0  0
  -29.1833  -22.2137   17.8651 H   0  0  0  0  0  0
  -29.4231  -21.2038   15.6840 H   0  0  0  0  0  0
  -29.7405  -19.5109   15.4752 H   0  0  0  0  0  0
  -31.0678  -20.6336   15.8560 H   0  0  0  0  0  0
  -30.6867  -23.2053   19.2237 H   0  0  0  0  0  0
  -30.6566  -24.3122   20.5678 H   0  0  0  0  0  0
  -30.2759  -24.8832   18.9422 H   0  0  0  0  0  0
  -28.3930  -16.9153   17.6189 H   0  0  0  0  0  0
  -28.7541  -15.4126   18.3856 H   0  0  0  0  0  0
  -30.0640  -16.4172   17.8562 H   0  0  0  0  0  0
  -27.5130  -17.8048   21.0745 H   0  0  0  0  0  0
  -27.3248  -16.2608   20.3224 H   0  0  0  0  0  0
  -27.0088  -17.7351   19.3980 H   0  0  0  0  0  0
  -28.9708  -22.2432   21.5229 H   0  0  0  0  0  0
  -27.4323  -22.1016   20.7341 H   0  0  0  0  0  0
  -31.5483  -17.6947   21.0333 H   0  0  0  0  0  0
  -31.4957  -16.4846   22.2867 H   0  0  0  0  0  0
  -28.3995  -24.9925   21.6968 H   0  0  0  0  0  0
  -26.9534  -24.8468   20.7812 H   0  0  0  0  0  0
  -29.1540  -15.9255   21.5083 H   0  0  0  0  0  0
  -28.1174  -23.7283   18.9668 H   0  0  0  0  0  0
  -29.6116  -18.7384   22.0965 H   0  0  0  0  0  0
  -30.8260  -18.5720   23.1556 H   0  0  0  0  0  0
  -29.5717  -17.5622   23.2400 H   0  0  0  0  0  0
  1 25  1  0  0  0
  1 30  2  0  0  0
  1 82  1  0  0  0
  2  3  1  0  0  0
  2 25  1  0  0  0
  2 88  1  0  0  0
  2 89  1  0  0  0
  3  4  1  0  0  0
  3 90  1  0  0  0
  3 91  1  0  0  0
  4  5  1  0  0  0
  4 92  1  0  0  0
  4 93  1  0  0  0
  5  6  1  0  0  0
  5 26  1  0  0  0
  5 94  1  0  0  0
  6 25  1  0  0  0
  6 95  1  0  0  0
  6 96  1  0  0  0
  7  8  2  0  0  0
  7 26  1  0  0  0
  7 29  1  0  0  0
  8  9  1  0  0  0
  8 22  1  0  0  0
  9 10  1  0  0  0
  9 27  2  0  0  0
 10 11  2  0  0  0
 10 15  1  0  0  0
 11 12  1  0  0  0
 11 97  1  0  0  0
 12 13  2  0  0  0
 12 98  1  0  0  0
 13 14  1  0  0  0
 13 31  1  0  0  0
 14 15  2  0  0  0
 14 99  1  0  0  0
 15100  1  0  0  0
 16 17  2  0  0  0
 16 21  1  0  0  0
 16 31  1  0  0  0
 17 18  1  0  0  0
 17101  1  0  0  0
 18 19  2  0  0  0
 18102  1  0  0  0
 19 20  1  0  0  0
 19 24  1  0  0  0
 20 21  2  0  0  0
 20103  1  0  0  0
 21 23  1  0  0  0
 22 28  1  0  0  0
 22 32  2  0  0  0
 26 27  1  0  0  0
 28104  1  0  0  0
 28105  1  0  0  0
 29106  1  0  0  0
 29107  1  0  0  0
 33 34  1  0  0  0
 33 66  1  0  0  0
 33 70  2  0  0  0
 34 36  1  0  0  0
 34 59  1  0  0  0
 34108  1  0  0  0
 35 44  2  0  0  0
 35 45  1  0  0  0
 35 68  1  0  0  0
 36 56  1  0  0  0
 36109  1  0  0  0
 37 39  1  0  0  0
 37 47  1  0  0  0
 37 66  1  0  0  0
 37110  1  0  0  0
 38 43  2  0  0  0
 38 46  1  0  0  0
 38 47  1  0  0  0
 39 64  1  0  0  0
 39 67  2  0  0  0
 40 52  1  0  0  0
 40 53  2  0  0  0
 40 58  1  0  0  0
 41111  1  0  0  0
 41112  1  0  0  0
 41113  1  0  0  0
 41 48  1  0  0  0
 42 43  1  0  0  0
 42 66  1  0  0  0
 42114  1  0  0  0
 42115  1  0  0  0
 43 44  1  0  0  0
 44116  1  0  0  0
 45 46  2  0  0  0
 45117  1  0  0  0
 46118  1  0  0  0
 47119  1  0  0  0
 47120  1  0  0  0
 48 56  1  0  0  0
 48 65  1  0  0  0
 48121  1  0  0  0
 49 50  1  0  0  0
 49 53  1  0  0  0
 49 64  1  0  0  0
 49122  1  0  0  0
 50 51  1  0  0  0
 50123  1  0  0  0
 50124  1  0  0  0
 51 52  1  0  0  0
 51125  1  0  0  0
 51126  1  0  0  0
 52127  1  0  0  0
 52128  1  0  0  0
 53 54  1  0  0  0
 54 55  2  0  0  0
 54129  1  0  0  0
 55 57  1  0  0  0
 55130  1  0  0  0
 56 69  2  0  0  0
 57 58  2  0  0  0
 57131  1  0  0  0
 58132  1  0  0  0
 59 60  1  0  0  0
 59 61  1  0  0  0
 59 62  1  0  0  0
 60133  1  0  0  0
 60134  1  0  0  0
 60135  1  0  0  0
 61136  1  0  0  0
 61137  1  0  0  0
 61138  1  0  0  0
 62139  1  0  0  0
 62140  1  0  0  0
 62141  1  0  0  0
 63 65  1  0  0  0
 63142  1  0  0  0
 63143  1  0  0  0
 63144  1  0  0  0
 64145  1  0  0  0
 65146  1  0  0  0
 68 81  1  0  0  0
 71 72  2  0  0  0
 71 73  1  0  0  0
 71147  1  0  0  0
 72 75  1  0  0  0
 72 85  1  0  0  0
 73 79  1  0  0  0
 73 86  2  0  0  0
 74 84  1  0  0  0
 74 85  2  0  0  0
 74 86  1  0  0  0
 75148  1  0  0  0
 75149  1  0  0  0
 75150  1  0  0  0
 76151  1  0  0  0
 76152  1  0  0  0
 76153  1  0  0  0
 76 83  1  0  0  0
 77154  1  0  0  0
 77155  1  0  0  0
 77156  1  0  0  0
 77 84  1  0  0  0
 78 84  1  0  0  0
 78157  1  0  0  0
 78158  1  0  0  0
 78159  1  0  0  0
 79 83  1  0  0  0
 79160  1  0  0  0
 79161  1  0  0  0
 80 87  1  0  0  0
 80162  1  0  0  0
 80163  1  0  0  0
 80 82  1  0  0  0
 81 83  1  0  0  0
 81164  1  0  0  0
 81165  1  0  0  0
 82 84  1  0  0  0
 82166  1  0  0  0
 83167  1  0  0  0
 87168  1  0  0  0
 87169  1  0  0  0
 87170  1  0  0  0
M  CHG  1  87   1
M  ISO  4   1 100  68 101  81 101  82 100
M  END
> <chiral flag>
0

> <version>
0

> <s_m_source_file>
/data/baiqing/PycharmProjects/Reinvent-master-3.2/result/LINK_invent/BTK/process_docking_weight1_custom_sum_contain_oxygen_bond_distance_aromatic_linkinvent_7_9_3/rearranged_h_0078.sdf

> <i_m_source_file_index>
82

> <r_mmod_Potential_Energy-OPLS-2005>
-435.942352294922

> <r_mmod_Stretch_Energy-OPLS-2005>
136.126937866211

> <r_mmod_Bend_Energy-OPLS-2005>
202.539184570312

> <r_mmod_Torsional_Energy-OPLS-2005>
222.775146484375

> <r_mmod_Improper_Torsional_Energy-OPLS-2005>
6.82861328125

> <r_mmod_Van_der_Waal_Energy-OPLS-2005>
182.263336181641

> <r_mmod_Electrostatic_Energy-OPLS-2005>
-832.181213378906

> <r_mmod_Solvation_Energy-OPLS-2005>
-455.362182617188

> <b_mmod_Minimization_Converged-OPLS-2005>
0

> <r_mmod_RMS_Derivative-OPLS-2005>
8.55008602142334

$$$$
82
                    3D
 Structure written by MMmdl.
163171  0  0  1  0            999 V2000
  -30.7025  -14.4522   20.6048 C   0  0  0  0  0  0
  -30.4228  -12.3070   19.4098 C   0  0  0  0  0  0
  -29.4911  -12.5222   18.1998 C   0  0  0  0  0  0
  -28.0120  -12.3815   18.6127 C   0  0  0  0  0  0
  -27.6649  -13.2063   19.8820 C   0  0  2  0  0  0
  -28.7081  -12.9547   20.9931 C   0  0  0  0  0  0
  -25.2596  -13.8159   20.5697 C   0  0  0  0  0  0
  -24.1843  -13.0438   20.9185 C   0  0  0  0  0  0
  -24.6396  -11.6904   20.8736 C   0  0  0  0  0  0
  -23.9066  -10.4285   21.0397 C   0  0  0  0  0  0
  -24.3624   -9.4204   21.9178 C   0  0  0  0  0  0
  -23.6302   -8.2240   22.0749 C   0  0  0  0  0  0
  -22.4277   -8.0283   21.3547 C   0  0  0  0  0  0
  -21.9914   -9.0254   20.4642 C   0  0  0  0  0  0
  -22.7242  -10.2130   20.3045 C   0  0  0  0  0  0
  -21.6858   -6.0742   22.5286 C   0  0  0  0  0  0
  -21.4014   -6.5642   23.8221 C   0  0  0  0  0  0
  -21.3656   -5.6793   24.9181 C   0  0  0  0  0  0
  -21.6047   -4.3057   24.7233 C   0  0  0  0  0  0
  -21.8820   -3.8153   23.4354 C   0  0  0  0  0  0
  -21.9194   -4.6970   22.3410 C   0  0  0  0  0  0
  -22.7864  -13.5234   21.1850 C   0  0  0  0  0  0
  -22.1661   -4.2157   21.0989 F   0  0  0  0  0  0
  -21.5628   -3.4536   25.7742 F   0  0  0  0  0  0
  -30.0348  -13.2760   20.4471 N   0  0  0  0  0  0
  -26.3044  -12.9335   20.3410 N   0  0  0  0  0  0
  -25.9324  -11.6493   20.5775 N   0  0  0  0  0  0
  -22.0504  -12.8215   22.0401 N   0  0  0  0  0  0
  -25.4331  -15.1875   20.4103 N   0  0  0  0  0  0
  -31.8059  -14.6408   20.0826 O   0  0  0  0  0  0
  -21.6648   -6.8876   21.4243 O   0  0  0  0  0  0
  -22.3546  -14.5538   20.6695 O   0  0  0  0  0  0
  -24.6144  -31.8682   23.2111 C   0  0  0  0  0  0
  -25.9042  -32.4818   23.8396 C   0  0  1  0  0  0
  -27.2346  -27.4366   20.0795 C   0  0  0  0  0  0
  -25.5900  -33.8617   24.2326 N   0  0  0  0  0  0
  -23.4010  -30.4936   21.5523 C   0  0  2  0  0  0
  -24.8440  -28.9590   20.1152 C   0  0  0  0  0  0
  -22.7401  -29.4665   22.4999 C   0  0  0  0  0  0
  -18.0267  -28.1374   22.8495 C   0  0  0  0  0  0
  -24.1489  -36.7320   23.2638 C   0  0  0  0  0  0
  -25.9303  -30.8308   21.3651 C   0  0  0  0  0  0
  -26.0041  -29.4645   20.7139 C   0  0  0  0  0  0
  -27.1971  -28.7061   20.7017 C   0  0  0  0  0  0
  -26.0483  -26.9428   19.4846 C   0  0  0  0  0  0
  -24.8596  -27.6948   19.5041 C   0  0  0  0  0  0
  -23.6078  -29.8275   20.1658 C   0  0  0  0  0  0
  -25.4107  -36.3111   24.0340 C   0  0  1  0  0  0
  -20.5858  -28.3659   23.1319 C   0  0  2  0  0  0
  -20.6761  -26.9399   22.5417 C   0  0  0  0  0  0
  -19.5738  -26.6383   21.5214 C   0  0  0  0  0  0
  -18.1913  -26.7923   22.1622 C   0  0  0  0  0  0
  -19.1516  -28.8833   23.2906 C   0  0  0  0  0  0
  -18.9451  -30.1441   23.8915 C   0  0  0  0  0  0
  -17.6452  -30.6588   24.0562 C   0  0  0  0  0  0
  -25.9030  -34.9472   23.5131 C   0  0  0  0  0  0
  -16.5345  -29.9090   23.6323 C   0  0  0  0  0  0
  -16.7255  -28.6501   23.0348 C   0  0  0  0  0  0
  -26.4467  -31.6598   25.0725 C   0  0  0  0  0  0
  -25.3737  -31.3704   26.1477 C   0  0  0  0  0  0
  -27.0298  -30.3039   24.6107 C   0  0  0  0  0  0
  -27.6042  -32.4311   25.7494 C   0  0  0  0  0  0
  -27.5580  -37.1816   24.8463 C   0  0  0  0  0  0
  -21.4130  -29.3030   22.3730 N   0  0  0  0  0  0
  -26.4293  -37.3796   23.9407 N   0  0  0  0  0  0
  -24.6671  -31.0784   22.1011 N   0  0  0  0  0  0
  -23.4175  -28.8212   23.3041 O   0  0  0  0  0  0
  -28.4210  -26.7254   20.0845 O   0  0  0  0  0  0
  -26.5598  -34.8923   22.4692 O   0  0  0  0  0  0
  -23.5338  -32.1441   23.7506 O   0  0  0  0  0  0
  -33.0313  -20.3018   20.5677 C   0  0  0  0  0  0
  -32.3078  -21.3308   19.9479 C   0  0  0  0  0  0
  -30.9003  -21.2444   20.0155 C   0  0  0  0  0  0
  -31.1010  -19.2481   21.1198 C   0  0  0  0  0  0
  -33.0529  -22.4576   19.2465 C   0  0  0  0  0  0
  -31.0405  -26.0099   19.5423 C   0  0  0  0  0  0
  -29.9934  -22.3390   19.4427 C   0  0  0  0  0  0
  -30.0752  -15.6364   21.3878 C   0  0  0  0  0  0
  -30.0958  -23.7085   20.1771 C   0  0  0  0  0  0
  -30.2618  -17.0249   20.7035 C   0  0  0  0  0  0
  -28.5328  -25.5759   19.2350 C   0  0  0  0  0  0
  -29.9535  -24.9570   19.2569 C   0  0  1  0  0  0
  -32.4173  -19.2655   21.1644 N   0  0  0  0  0  0
  -30.3060  -20.1716   20.5911 N   0  0  0  0  0  0
  -30.5263  -18.1170   21.6467 N   0  0  0  0  0  0
  -31.4658  -12.4090   19.1065 H   0  0  0  0  0  0
  -30.3262  -11.2895   19.7918 H   0  0  0  0  0  0
  -29.7281  -11.8095   17.4093 H   0  0  0  0  0  0
  -29.6629  -13.5146   17.7787 H   0  0  0  0  0  0
  -27.8180  -11.3235   18.7927 H   0  0  0  0  0  0
  -27.3608  -12.6713   17.7869 H   0  0  0  0  0  0
  -27.7184  -14.2594   19.6061 H   0  0  0  0  0  0
  -28.6860  -11.9055   21.2892 H   0  0  0  0  0  0
  -28.4715  -13.5015   21.9048 H   0  0  0  0  0  0
  -25.2769   -9.5691   22.4751 H   0  0  0  0  0  0
  -24.0027   -7.4628   22.7460 H   0  0  0  0  0  0
  -21.0849   -8.8772   19.8938 H   0  0  0  0  0  0
  -22.3706  -10.9675   19.6153 H   0  0  0  0  0  0
  -21.2000   -7.6148   23.9729 H   0  0  0  0  0  0
  -21.1475   -6.0520   25.9084 H   0  0  0  0  0  0
  -22.0598   -2.7617   23.2860 H   0  0  0  0  0  0
  -22.4128  -11.9886   22.4804 H   0  0  0  0  0  0
  -21.1114  -13.1227   22.2579 H   0  0  0  0  0  0
  -24.6704  -15.8473   20.5200 H   0  0  0  0  0  0
  -26.2949  -15.6272   20.1109 H   0  0  0  0  0  0
  -26.7119  -32.5528   23.1165 H   0  0  0  0  0  0
  -25.0055  -33.9778   25.0474 H   0  0  0  0  0  0
  -22.6895  -31.3107   21.4149 H   0  0  0  0  0  0
  -23.3742  -35.9660   23.3305 H   0  0  0  0  0  0
  -24.3585  -36.8927   22.2051 H   0  0  0  0  0  0
  -23.7245  -37.6530   23.6646 H   0  0  0  0  0  0
  -26.0440  -31.5956   20.5951 H   0  0  0  0  0  0
  -26.8177  -30.8829   21.9837 H   0  0  0  0  0  0
  -28.0927  -29.0946   21.1666 H   0  0  0  0  0  0
  -26.0106  -25.9771   19.0041 H   0  0  0  0  0  0
  -23.9655  -27.2966   19.0449 H   0  0  0  0  0  0
  -23.7159  -30.6031   19.4069 H   0  0  0  0  0  0
  -22.7304  -29.2494   19.8702 H   0  0  0  0  0  0
  -25.1283  -36.1981   25.0835 H   0  0  0  0  0  0
  -20.9946  -28.3225   24.1440 H   0  0  0  0  0  0
  -20.5666  -26.2269   23.3603 H   0  0  0  0  0  0
  -21.6635  -26.7448   22.1210 H   0  0  0  0  0  0
  -19.6902  -25.6298   21.1233 H   0  0  0  0  0  0
  -19.6682  -27.3201   20.6753 H   0  0  0  0  0  0
  -17.4190  -26.6672   21.4019 H   0  0  0  0  0  0
  -18.0318  -26.0062   22.9017 H   0  0  0  0  0  0
  -19.7928  -30.7248   24.2295 H   0  0  0  0  0  0
  -17.5009  -31.6272   24.5160 H   0  0  0  0  0  0
  -15.5345  -30.2997   23.7638 H   0  0  0  0  0  0
  -15.8654  -28.0828   22.7052 H   0  0  0  0  0  0
  -24.5909  -30.7050   25.7824 H   0  0  0  0  0  0
  -24.8930  -32.2857   26.4939 H   0  0  0  0  0  0
  -25.8094  -30.8871   27.0229 H   0  0  0  0  0  0
  -26.2846  -29.6803   24.1154 H   0  0  0  0  0  0
  -27.4061  -29.7275   25.4569 H   0  0  0  0  0  0
  -27.8683  -30.4360   23.9261 H   0  0  0  0  0  0
  -27.2664  -33.3600   26.2101 H   0  0  0  0  0  0
  -28.3843  -32.6884   25.0318 H   0  0  0  0  0  0
  -28.0718  -31.8412   26.5387 H   0  0  0  0  0  0
  -28.2607  -38.0106   24.7505 H   0  0  0  0  0  0
  -28.1069  -36.2639   24.6295 H   0  0  0  0  0  0
  -27.2298  -37.1474   25.8866 H   0  0  0  0  0  0
  -20.9286  -29.8761   21.6965 H   0  0  0  0  0  0
  -26.0184  -38.2877   24.1398 H   0  0  0  0  0  0
  -34.1114  -20.3002   20.5766 H   0  0  0  0  0  0
  -34.0244  -22.1112   18.8913 H   0  0  0  0  0  0
  -33.2293  -23.2896   19.9285 H   0  0  0  0  0  0
  -32.5092  -22.8280   18.3777 H   0  0  0  0  0  0
  -32.0390  -25.5974   19.3912 H   0  0  0  0  0  0
  -30.9857  -26.3747   20.5685 H   0  0  0  0  0  0
  -30.9403  -26.8706   18.8799 H   0  0  0  0  0  0
  -28.9555  -22.0044   19.4506 H   0  0  0  0  0  0
  -30.2489  -22.4364   18.3882 H   0  0  0  0  0  0
  -29.0115  -15.5053   21.5690 H   0  0  0  0  0  0
  -30.5523  -15.6268   22.3675 H   0  0  0  0  0  0
  -31.0712  -23.7602   20.6584 H   0  0  0  0  0  0
  -29.3899  -23.7454   21.0071 H   0  0  0  0  0  0
  -29.3695  -17.2711   20.1259 H   0  0  0  0  0  0
  -31.0800  -16.9966   19.9814 H   0  0  0  0  0  0
  -27.8025  -24.8131   19.5086 H   0  0  0  0  0  0
  -28.3050  -25.8840   18.2127 H   0  0  0  0  0  0
  -30.1471  -24.6272   18.2359 H   0  0  0  0  0  0
  -31.1332  -17.7601   22.3741 H   0  0  0  0  0  0
  1 25  1  0  0  0
  1 30  2  0  0  0
  1 78  1  0  0  0
  2  3  1  0  0  0
  2 25  1  0  0  0
  2 86  1  0  0  0
  2 87  1  0  0  0
  3  4  1  0  0  0
  3 88  1  0  0  0
  3 89  1  0  0  0
  4  5  1  0  0  0
  4 90  1  0  0  0
  4 91  1  0  0  0
  5  6  1  0  0  0
  5 26  1  0  0  0
  5 92  1  0  0  0
  6 25  1  0  0  0
  6 93  1  0  0  0
  6 94  1  0  0  0
  7  8  2  0  0  0
  7 26  1  0  0  0
  7 29  1  0  0  0
  8  9  1  0  0  0
  8 22  1  0  0  0
  9 10  1  0  0  0
  9 27  2  0  0  0
 10 11  2  0  0  0
 10 15  1  0  0  0
 11 12  1  0  0  0
 11 95  1  0  0  0
 12 13  2  0  0  0
 12 96  1  0  0  0
 13 14  1  0  0  0
 13 31  1  0  0  0
 14 15  2  0  0  0
 14 97  1  0  0  0
 15 98  1  0  0  0
 16 17  2  0  0  0
 16 21  1  0  0  0
 16 31  1  0  0  0
 17 18  1  0  0  0
 17 99  1  0  0  0
 18 19  2  0  0  0
 18100  1  0  0  0
 19 20  1  0  0  0
 19 24  1  0  0  0
 20 21  2  0  0  0
 20101  1  0  0  0
 21 23  1  0  0  0
 22 28  1  0  0  0
 22 32  2  0  0  0
 26 27  1  0  0  0
 28102  1  0  0  0
 28103  1  0  0  0
 29104  1  0  0  0
 29105  1  0  0  0
 33 34  1  0  0  0
 33 66  1  0  0  0
 33 70  2  0  0  0
 34 36  1  0  0  0
 34 59  1  0  0  0
 34106  1  0  0  0
 35 44  2  0  0  0
 35 45  1  0  0  0
 35 68  1  0  0  0
 36 56  1  0  0  0
 36107  1  0  0  0
 37 39  1  0  0  0
 37 47  1  0  0  0
 37 66  1  0  0  0
 37108  1  0  0  0
 38 43  2  0  0  0
 38 46  1  0  0  0
 38 47  1  0  0  0
 39 64  1  0  0  0
 39 67  2  0  0  0
 40 52  1  0  0  0
 40 53  2  0  0  0
 40 58  1  0  0  0
 41109  1  0  0  0
 41110  1  0  0  0
 41111  1  0  0  0
 41 48  1  0  0  0
 42 43  1  0  0  0
 42 66  1  0  0  0
 42112  1  0  0  0
 42113  1  0  0  0
 43 44  1  0  0  0
 44114  1  0  0  0
 45 46  2  0  0  0
 45115  1  0  0  0
 46116  1  0  0  0
 47117  1  0  0  0
 47118  1  0  0  0
 48 56  1  0  0  0
 48 65  1  0  0  0
 48119  1  0  0  0
 49 50  1  0  0  0
 49 53  1  0  0  0
 49 64  1  0  0  0
 49120  1  0  0  0
 50 51  1  0  0  0
 50121  1  0  0  0
 50122  1  0  0  0
 51 52  1  0  0  0
 51123  1  0  0  0
 51124  1  0  0  0
 52125  1  0  0  0
 52126  1  0  0  0
 53 54  1  0  0  0
 54 55  2  0  0  0
 54127  1  0  0  0
 55 57  1  0  0  0
 55128  1  0  0  0
 56 69  2  0  0  0
 57 58  2  0  0  0
 57129  1  0  0  0
 58130  1  0  0  0
 59 60  1  0  0  0
 59 61  1  0  0  0
 59 62  1  0  0  0
 60131  1  0  0  0
 60132  1  0  0  0
 60133  1  0  0  0
 61134  1  0  0  0
 61135  1  0  0  0
 61136  1  0  0  0
 62137  1  0  0  0
 62138  1  0  0  0
 62139  1  0  0  0
 63 65  1  0  0  0
 63140  1  0  0  0
 63141  1  0  0  0
 63142  1  0  0  0
 64143  1  0  0  0
 65144  1  0  0  0
 68 81  1  0  0  0
 71 72  2  0  0  0
 71 83  1  0  0  0
 71145  1  0  0  0
 72 73  1  0  0  0
 72 75  1  0  0  0
 73 77  1  0  0  0
 73 84  2  0  0  0
 74 83  2  0  0  0
 74 84  1  0  0  0
 74 85  1  0  0  0
 75146  1  0  0  0
 75147  1  0  0  0
 75148  1  0  0  0
 76149  1  0  0  0
 76150  1  0  0  0
 76151  1  0  0  0
 76 82  1  0  0  0
 77 79  1  0  0  0
 77152  1  0  0  0
 77153  1  0  0  0
 78 80  1  0  0  0
 78154  1  0  0  0
 78155  1  0  0  0
 79 82  1  0  0  0
 79156  1  0  0  0
 79157  1  0  0  0
 80 85  1  0  0  0
 80158  1  0  0  0
 80159  1  0  0  0
 81 82  1  0  0  0
 81160  1  0  0  0
 81161  1  0  0  0
 82162  1  0  0  0
 85163  1  0  0  0
M  ISO  4   1 100  68 101  78 100  81 101
M  END
> <chiral flag>
0

> <version>
0

> <s_m_source_file>
/data/baiqing/PycharmProjects/Reinvent-master-3.2/result/LINK_invent/BTK/process_docking_weight1_custom_sum_contain_oxygen_bond_distance_aromatic_linkinvent_7_9_3/rearranged_h_0078.sdf

> <i_m_source_file_index>
83

> <r_mmod_Potential_Energy-OPLS-2005>
-502.525970458984

> <r_mmod_Stretch_Energy-OPLS-2005>
37.7657699584961

> <r_mmod_Bend_Energy-OPLS-2005>
105.959915161133

> <r_mmod_Torsional_Energy-OPLS-2005>
209.138809204102

> <r_mmod_Improper_Torsional_Energy-OPLS-2005>
8.14065456390381

> <r_mmod_Van_der_Waal_Energy-OPLS-2005>
168.481185913086

> <r_mmod_Electrostatic_Energy-OPLS-2005>
-811.989135742188

> <r_mmod_Solvation_Energy-OPLS-2005>
-230.647903442383

> <b_mmod_Minimization_Converged-OPLS-2005>
0

> <r_mmod_RMS_Derivative-OPLS-2005>
1.09261786937714

$$$$
83
                    3D
 Structure written by MMmdl.
158166  0  0  1  0            999 V2000
  -30.5557  -14.9506   20.4310 C   0  0  0  0  0  0
  -30.4363  -12.5802   19.5404 C   0  0  0  0  0  0
  -29.5348  -12.5340   18.2849 C   0  0  0  0  0  0
  -28.0657  -12.3081   18.6894 C   0  0  0  0  0  0
  -27.6318  -13.2466   19.8467 C   0  0  2  0  0  0
  -28.6640  -13.2932   20.9980 C   0  0  0  0  0  0
  -25.2473  -13.8221   20.5727 C   0  0  0  0  0  0
  -24.1769  -13.0444   20.9219 C   0  0  0  0  0  0
  -24.6381  -11.6917   20.8758 C   0  0  0  0  0  0
  -23.9059  -10.4305   21.0404 C   0  0  0  0  0  0
  -24.3616   -9.4212   21.9189 C   0  0  0  0  0  0
  -23.6290   -8.2250   22.0748 C   0  0  0  0  0  0
  -22.4273   -8.0298   21.3544 C   0  0  0  0  0  0
  -21.9920   -9.0263   20.4637 C   0  0  0  0  0  0
  -22.7232  -10.2145   20.3044 C   0  0  0  0  0  0
  -21.6843   -6.0755   22.5299 C   0  0  0  0  0  0
  -21.4012   -6.5653   23.8238 C   0  0  0  0  0  0
  -21.3648   -5.6798   24.9202 C   0  0  0  0  0  0
  -21.6045   -4.3061   24.7240 C   0  0  0  0  0  0
  -21.8810   -3.8152   23.4355 C   0  0  0  0  0  0
  -21.9180   -4.6987   22.3416 C   0  0  0  0  0  0
  -22.7779  -13.5201   21.1882 C   0  0  0  0  0  0
  -22.1636   -4.2165   21.0994 F   0  0  0  0  0  0
  -21.5618   -3.4544   25.7748 F   0  0  0  0  0  0
  -29.9546  -13.6893   20.4186 N   0  0  0  0  0  0
  -26.2877  -12.9432   20.3270 N   0  0  0  0  0  0
  -25.9324  -11.6555   20.5767 N   0  0  0  0  0  0
  -22.0425  -12.8207   22.0455 N   0  0  0  0  0  0
  -25.4187  -15.1973   20.4189 N   0  0  0  0  0  0
  -31.7492  -14.9849   20.0926 O   0  0  0  0  0  0
  -21.6618   -6.8901   21.4256 O   0  0  0  0  0  0
  -22.3464  -14.5510   20.6729 O   0  0  0  0  0  0
  -24.6431  -31.8405   23.1863 C   0  0  0  0  0  0
  -25.9187  -32.4680   23.8279 C   0  0  1  0  0  0
  -27.2117  -27.1028   20.1688 C   0  0  0  0  0  0
  -25.5914  -33.8489   24.2204 N   0  0  0  0  0  0
  -23.4483  -30.4598   21.5316 C   0  0  2  0  0  0
  -24.8982  -28.8792   20.1123 C   0  0  0  0  0  0
  -22.7573  -29.4519   22.4828 C   0  0  0  0  0  0
  -18.0310  -28.1375   22.8473 C   0  0  0  0  0  0
  -24.1485  -36.7265   23.2655 C   0  0  0  0  0  0
  -26.0065  -30.7048   21.3913 C   0  0  0  0  0  0
  -26.0760  -29.3136   20.7324 C   0  0  0  0  0  0
  -27.2345  -28.4433   20.7406 C   0  0  0  0  0  0
  -26.0080  -26.7789   19.5039 C   0  0  0  0  0  0
  -24.8779  -27.6268   19.4803 C   0  0  0  0  0  0
  -23.6773  -29.7886   20.1515 C   0  0  0  0  0  0
  -25.4115  -36.3037   24.0334 C   0  0  1  0  0  0
  -20.5927  -28.3702   23.1213 C   0  0  2  0  0  0
  -20.6772  -26.9393   22.5394 C   0  0  0  0  0  0
  -19.5750  -26.6348   21.5198 C   0  0  0  0  0  0
  -18.1939  -26.7907   22.1622 C   0  0  0  0  0  0
  -19.1573  -28.8856   23.2830 C   0  0  0  0  0  0
  -18.9489  -30.1458   23.8842 C   0  0  0  0  0  0
  -17.6489  -30.6565   24.0551 C   0  0  0  0  0  0
  -25.9062  -34.9402   23.5092 C   0  0  0  0  0  0
  -16.5375  -29.9055   23.6340 C   0  0  0  0  0  0
  -16.7302  -28.6479   23.0346 C   0  0  0  0  0  0
  -26.4533  -31.6560   25.0729 C   0  0  0  0  0  0
  -25.3730  -31.3734   26.1430 C   0  0  0  0  0  0
  -27.0456  -30.2957   24.6377 C   0  0  0  0  0  0
  -27.6052  -32.4369   25.7501 C   0  0  0  0  0  0
  -27.5576  -37.1788   24.8471 C   0  0  0  0  0  0
  -21.4266  -29.3034   22.3590 N   0  0  0  0  0  0
  -26.4289  -37.3742   23.9406 N   0  0  0  0  0  0
  -24.7188  -31.0235   22.0923 N   0  0  0  0  0  0
  -23.4206  -28.8071   23.3000 O   0  0  0  0  0  0
  -28.2577  -26.1014   20.2493 O   0  0  0  0  0  0
  -26.5665  -34.8906   22.4684 O   0  0  0  0  0  0
  -23.5535  -32.1315   23.7057 O   0  0  0  0  0  0
  -29.3328  -18.8342   20.7062 C   0  0  0  0  0  0
  -30.4892  -18.8588   18.2903 C   0  0  0  0  0  0
  -29.3171  -20.1662   20.0210 C   0  0  0  0  0  0
  -29.8776  -20.0644   18.7162 C   0  0  0  0  0  0
  -29.9194  -17.5723   20.1615 C   0  0  0  0  0  0
  -28.5057  -20.8561   16.7774 C   0  0  0  0  0  0
  -30.9991  -21.4236   16.8578 C   0  0  0  0  0  0
  -28.5444  -21.5747   20.4988 C   0  0  0  0  0  0
  -29.0070  -23.2269   20.4139 C   0  0  0  0  0  0
  -27.9693  -24.5586   20.1653 C   0  0  0  0  0  0
  -29.7177  -21.1624   17.6670 C   0  0  0  0  0  0
  -30.5252  -17.6988   18.9703 N   0  0  0  0  0  0
  -29.8284  -16.1458   20.7146 N   0  0  0  0  0  0
  -31.4780  -12.7068   19.2407 H   0  0  0  0  0  0
  -30.3976  -11.6292   20.0746 H   0  0  0  0  0  0
  -29.8694  -11.7491   17.6073 H   0  0  0  0  0  0
  -29.6234  -13.4720   17.7353 H   0  0  0  0  0  0
  -27.9660  -11.2685   19.0054 H   0  0  0  0  0  0
  -27.4096  -12.4260   17.8265 H   0  0  0  0  0  0
  -27.5912  -14.2423   19.4081 H   0  0  0  0  0  0
  -28.7392  -12.3281   21.5001 H   0  0  0  0  0  0
  -28.3508  -14.0117   21.7567 H   0  0  0  0  0  0
  -25.2774   -9.5695   22.4740 H   0  0  0  0  0  0
  -24.0003   -7.4625   22.7446 H   0  0  0  0  0  0
  -21.0855   -8.8791   19.8918 H   0  0  0  0  0  0
  -22.3704  -10.9694   19.6141 H   0  0  0  0  0  0
  -21.2013   -7.6163   23.9775 H   0  0  0  0  0  0
  -21.1472   -6.0516   25.9116 H   0  0  0  0  0  0
  -22.0593   -2.7617   23.2858 H   0  0  0  0  0  0
  -22.3999  -11.9852   22.4872 H   0  0  0  0  0  0
  -21.1044  -13.1239   22.2607 H   0  0  0  0  0  0
  -24.6559  -15.8565   20.5315 H   0  0  0  0  0  0
  -26.2801  -15.6409   20.1262 H   0  0  0  0  0  0
  -26.7237  -32.5293   23.0989 H   0  0  0  0  0  0
  -24.9967  -33.9598   25.0286 H   0  0  0  0  0  0
  -22.7512  -31.2849   21.3748 H   0  0  0  0  0  0
  -23.3747  -35.9595   23.3308 H   0  0  0  0  0  0
  -24.3554  -36.8906   22.2071 H   0  0  0  0  0  0
  -23.7249  -37.6466   23.6695 H   0  0  0  0  0  0
  -26.1700  -31.4606   20.6211 H   0  0  0  0  0  0
  -26.8727  -30.7500   22.0396 H   0  0  0  0  0  0
  -28.1327  -28.7714   21.2449 H   0  0  0  0  0  0
  -25.9035  -25.8246   19.0097 H   0  0  0  0  0  0
  -23.9777  -27.2924   18.9822 H   0  0  0  0  0  0
  -23.8189  -30.5640   19.3972 H   0  0  0  0  0  0
  -22.7902  -29.2341   19.8411 H   0  0  0  0  0  0
  -25.1297  -36.1884   25.0828 H   0  0  0  0  0  0
  -21.0028  -28.3299   24.1335 H   0  0  0  0  0  0
  -20.5611  -26.2337   23.3629 H   0  0  0  0  0  0
  -21.6643  -26.7341   22.1233 H   0  0  0  0  0  0
  -19.6904  -25.6245   21.1256 H   0  0  0  0  0  0
  -19.6682  -27.3134   20.6712 H   0  0  0  0  0  0
  -17.4198  -26.6642   21.4034 H   0  0  0  0  0  0
  -18.0346  -26.0045   22.9025 H   0  0  0  0  0  0
  -19.7971  -30.7289   24.2159 H   0  0  0  0  0  0
  -17.5042  -31.6243   24.5160 H   0  0  0  0  0  0
  -15.5370  -30.2936   23.7672 H   0  0  0  0  0  0
  -15.8711  -28.0778   22.7067 H   0  0  0  0  0  0
  -24.5861  -30.7143   25.7734 H   0  0  0  0  0  0
  -24.8982  -32.2920   26.4889 H   0  0  0  0  0  0
  -25.8009  -30.8855   27.0196 H   0  0  0  0  0  0
  -26.3117  -29.6591   24.1420 H   0  0  0  0  0  0
  -27.4083  -29.7341   25.4999 H   0  0  0  0  0  0
  -27.9010  -30.4177   23.9728 H   0  0  0  0  0  0
  -27.2603  -33.3648   26.2072 H   0  0  0  0  0  0
  -28.3846  -32.6977   25.0330 H   0  0  0  0  0  0
  -28.0761  -31.8537   26.5423 H   0  0  0  0  0  0
  -28.2605  -38.0071   24.7473 H   0  0  0  0  0  0
  -28.1058  -36.2596   24.6344 H   0  0  0  0  0  0
  -27.2286  -37.1498   25.8873 H   0  0  0  0  0  0
  -20.9448  -29.8799   21.6822 H   0  0  0  0  0  0
  -26.0169  -38.2824   24.1362 H   0  0  0  0  0  0
  -28.8420  -18.7669   21.6675 H   0  0  0  0  0  0
  -30.9092  -18.7721   17.3008 H   0  0  0  0  0  0
  -27.5968  -20.7804   17.3773 H   0  0  0  0  0  0
  -28.6207  -19.9158   16.2374 H   0  0  0  0  0  0
  -28.3452  -21.6458   16.0436 H   0  0  0  0  0  0
  -31.8297  -21.6715   17.5195 H   0  0  0  0  0  0
  -30.8638  -22.2648   16.1791 H   0  0  0  0  0  0
  -31.2979  -20.5742   16.2451 H   0  0  0  0  0  0
  -28.3000  -21.4033   21.5484 H   0  0  0  0  0  0
  -27.5742  -21.5137   20.0067 H   0  0  0  0  0  0
  -29.8175  -23.3482   19.6997 H   0  0  0  0  0  0
  -29.5244  -23.4174   21.3541 H   0  0  0  0  0  0
  -27.1121  -24.3922   20.8176 H   0  0  0  0  0  0
  -27.5793  -24.4068   19.1592 H   0  0  0  0  0  0
  -29.4821  -22.1005   18.1401 H   0  0  0  0  0  0
  -28.9799  -15.9789   21.2301 H   0  0  0  0  0  0
  1 25  1  0  0  0
  1 30  2  0  0  0
  1 83  1  0  0  0
  2  3  1  0  0  0
  2 25  1  0  0  0
  2 84  1  0  0  0
  2 85  1  0  0  0
  3  4  1  0  0  0
  3 86  1  0  0  0
  3 87  1  0  0  0
  4  5  1  0  0  0
  4 88  1  0  0  0
  4 89  1  0  0  0
  5  6  1  0  0  0
  5 26  1  0  0  0
  5 90  1  0  0  0
  6 25  1  0  0  0
  6 91  1  0  0  0
  6 92  1  0  0  0
  7  8  2  0  0  0
  7 26  1  0  0  0
  7 29  1  0  0  0
  8  9  1  0  0  0
  8 22  1  0  0  0
  9 10  1  0  0  0
  9 27  2  0  0  0
 10 11  2  0  0  0
 10 15  1  0  0  0
 11 12  1  0  0  0
 11 93  1  0  0  0
 12 13  2  0  0  0
 12 94  1  0  0  0
 13 14  1  0  0  0
 13 31  1  0  0  0
 14 15  2  0  0  0
 14 95  1  0  0  0
 15 96  1  0  0  0
 16 17  2  0  0  0
 16 21  1  0  0  0
 16 31  1  0  0  0
 17 18  1  0  0  0
 17 97  1  0  0  0
 18 19  2  0  0  0
 18 98  1  0  0  0
 19 20  1  0  0  0
 19 24  1  0  0  0
 20 21  2  0  0  0
 20 99  1  0  0  0
 21 23  1  0  0  0
 22 28  1  0  0  0
 22 32  2  0  0  0
 26 27  1  0  0  0
 28100  1  0  0  0
 28101  1  0  0  0
 29102  1  0  0  0
 29103  1  0  0  0
 33 34  1  0  0  0
 33 66  1  0  0  0
 33 70  2  0  0  0
 34 36  1  0  0  0
 34 59  1  0  0  0
 34104  1  0  0  0
 35 44  2  0  0  0
 35 45  1  0  0  0
 35 68  1  0  0  0
 36 56  1  0  0  0
 36105  1  0  0  0
 37 39  1  0  0  0
 37 47  1  0  0  0
 37 66  1  0  0  0
 37106  1  0  0  0
 38 43  2  0  0  0
 38 46  1  0  0  0
 38 47  1  0  0  0
 39 64  1  0  0  0
 39 67  2  0  0  0
 40 52  1  0  0  0
 40 53  2  0  0  0
 40 58  1  0  0  0
 41107  1  0  0  0
 41108  1  0  0  0
 41109  1  0  0  0
 41 48  1  0  0  0
 42 43  1  0  0  0
 42 66  1  0  0  0
 42110  1  0  0  0
 42111  1  0  0  0
 43 44  1  0  0  0
 44112  1  0  0  0
 45 46  2  0  0  0
 45113  1  0  0  0
 46114  1  0  0  0
 47115  1  0  0  0
 47116  1  0  0  0
 48 56  1  0  0  0
 48 65  1  0  0  0
 48117  1  0  0  0
 49 50  1  0  0  0
 49 53  1  0  0  0
 49 64  1  0  0  0
 49118  1  0  0  0
 50 51  1  0  0  0
 50119  1  0  0  0
 50120  1  0  0  0
 51 52  1  0  0  0
 51121  1  0  0  0
 51122  1  0  0  0
 52123  1  0  0  0
 52124  1  0  0  0
 53 54  1  0  0  0
 54 55  2  0  0  0
 54125  1  0  0  0
 55 57  1  0  0  0
 55126  1  0  0  0
 56 69  2  0  0  0
 57 58  2  0  0  0
 57127  1  0  0  0
 58128  1  0  0  0
 59 60  1  0  0  0
 59 61  1  0  0  0
 59 62  1  0  0  0
 60129  1  0  0  0
 60130  1  0  0  0
 60131  1  0  0  0
 61132  1  0  0  0
 61133  1  0  0  0
 61134  1  0  0  0
 62135  1  0  0  0
 62136  1  0  0  0
 62137  1  0  0  0
 63 65  1  0  0  0
 63138  1  0  0  0
 63139  1  0  0  0
 63140  1  0  0  0
 64141  1  0  0  0
 65142  1  0  0  0
 68 80  1  0  0  0
 71 73  2  0  0  0
 71 75  1  0  0  0
 71143  1  0  0  0
 72 74  2  0  0  0
 72 82  1  0  0  0
 72144  1  0  0  0
 73 74  1  0  0  0
 73 78  1  0  0  0
 74 81  1  0  0  0
 75 82  2  0  0  0
 75 83  1  0  0  0
 76145  1  0  0  0
 76146  1  0  0  0
 76147  1  0  0  0
 76 81  1  0  0  0
 77 81  1  0  0  0
 77148  1  0  0  0
 77149  1  0  0  0
 77150  1  0  0  0
 78 79  1  0  0  0
 78151  1  0  0  0
 78152  1  0  0  0
 79 80  1  0  0  0
 79153  1  0  0  0
 79154  1  0  0  0
 80155  1  0  0  0
 80156  1  0  0  0
 81157  1  0  0  0
 83158  1  0  0  0
M  ISO  4   1 100  68 101  80 101  83 100
M  END
> <chiral flag>
0

> <version>
0

> <s_m_source_file>
/data/baiqing/PycharmProjects/Reinvent-master-3.2/result/LINK_invent/BTK/process_docking_weight1_custom_sum_contain_oxygen_bond_distance_aromatic_linkinvent_7_9_3/rearranged_h_0078.sdf

> <i_m_source_file_index>
84

> <r_mmod_Potential_Energy-OPLS-2005>
444.014892578125

> <r_mmod_Stretch_Energy-OPLS-2005>
296.345764160156

> <r_mmod_Bend_Energy-OPLS-2005>
278.196411132812

> <r_mmod_Torsional_Energy-OPLS-2005>
232.565383911133

> <r_mmod_Improper_Torsional_Energy-OPLS-2005>
4.95159482955933

> <r_mmod_Van_der_Waal_Energy-OPLS-2005>
141.763931274414

> <r_mmod_Electrostatic_Energy-OPLS-2005>
-482.347778320312

> <r_mmod_Solvation_Energy-OPLS-2005>
-233.437347412109

> <b_mmod_Minimization_Converged-OPLS-2005>
0

> <r_mmod_RMS_Derivative-OPLS-2005>
3.87899780273438

$$$$
84
                    3D
 Structure written by MMmdl.
173181  0  0  1  0            999 V2000
  -30.7242  -14.4322   20.5607 C   0  0  0  0  0  0
  -30.4211  -12.2703   19.4231 C   0  0  0  0  0  0
  -29.4976  -12.4837   18.2065 C   0  0  0  0  0  0
  -28.0155  -12.3570   18.6178 C   0  0  0  0  0  0
  -27.6649  -13.1969   19.8745 C   0  0  2  0  0  0
  -28.7061  -12.9781   20.9945 C   0  0  0  0  0  0
  -25.2610  -13.8141   20.5697 C   0  0  0  0  0  0
  -24.1851  -13.0430   20.9213 C   0  0  0  0  0  0
  -24.6409  -11.6905   20.8779 C   0  0  0  0  0  0
  -23.9057  -10.4293   21.0424 C   0  0  0  0  0  0
  -24.3617   -9.4196   21.9184 C   0  0  0  0  0  0
  -23.6301   -8.2232   22.0741 C   0  0  0  0  0  0
  -22.4283   -8.0264   21.3546 C   0  0  0  0  0  0
  -21.9923   -9.0228   20.4645 C   0  0  0  0  0  0
  -22.7233  -10.2119   20.3062 C   0  0  0  0  0  0
  -21.6842   -6.0734   22.5280 C   0  0  0  0  0  0
  -21.3986   -6.5631   23.8208 C   0  0  0  0  0  0
  -21.3686   -5.6788   24.9175 C   0  0  0  0  0  0
  -21.6053   -4.3046   24.7228 C   0  0  0  0  0  0
  -21.8817   -3.8150   23.4348 C   0  0  0  0  0  0
  -21.9186   -4.6966   22.3406 C   0  0  0  0  0  0
  -22.7864  -13.5216   21.1879 C   0  0  0  0  0  0
  -22.1639   -4.2152   21.0981 F   0  0  0  0  0  0
  -21.5685   -3.4521   25.7740 F   0  0  0  0  0  0
  -30.0422  -13.2605   20.4402 N   0  0  0  0  0  0
  -26.3043  -12.9297   20.3375 N   0  0  0  0  0  0
  -25.9334  -11.6485   20.5832 N   0  0  0  0  0  0
  -22.0484  -12.8217   22.0428 N   0  0  0  0  0  0
  -25.4382  -15.1853   20.4114 N   0  0  0  0  0  0
  -31.8523  -14.6100   20.0889 O   0  0  0  0  0  0
  -21.6643   -6.8870   21.4245 O   0  0  0  0  0  0
  -22.3555  -14.5517   20.6712 O   0  0  0  0  0  0
  -24.6096  -31.8710   23.2108 C   0  0  0  0  0  0
  -25.9004  -32.4847   23.8398 C   0  0  1  0  0  0
  -27.2256  -27.4695   20.0906 C   0  0  0  0  0  0
  -25.5854  -33.8653   24.2325 N   0  0  0  0  0  0
  -23.3967  -30.4938   21.5489 C   0  0  2  0  0  0
  -24.8430  -28.9676   20.1099 C   0  0  0  0  0  0
  -22.7397  -29.4650   22.4976 C   0  0  0  0  0  0
  -18.0265  -28.1375   22.8483 C   0  0  0  0  0  0
  -24.1486  -36.7341   23.2635 C   0  0  0  0  0  0
  -25.9222  -30.8495   21.3576 C   0  0  0  0  0  0
  -26.0008  -29.4876   20.7019 C   0  0  0  0  0  0
  -27.2014  -28.7483   20.6830 C   0  0  0  0  0  0
  -26.0546  -26.9516   19.4980 C   0  0  0  0  0  0
  -24.8623  -27.7005   19.5023 C   0  0  0  0  0  0
  -23.6022  -29.8297   20.1615 C   0  0  0  0  0  0
  -25.4115  -36.3141   24.0325 C   0  0  1  0  0  0
  -20.5856  -28.3657   23.1336 C   0  0  2  0  0  0
  -20.6755  -26.9398   22.5427 C   0  0  0  0  0  0
  -19.5737  -26.6386   21.5219 C   0  0  0  0  0  0
  -18.1916  -26.7927   22.1625 C   0  0  0  0  0  0
  -19.1514  -28.8827   23.2909 C   0  0  0  0  0  0
  -18.9447  -30.1425   23.8922 C   0  0  0  0  0  0
  -17.6451  -30.6576   24.0563 C   0  0  0  0  0  0
  -25.9032  -34.9495   23.5136 C   0  0  0  0  0  0
  -16.5340  -29.9091   23.6304 C   0  0  0  0  0  0
  -16.7254  -28.6510   23.0328 C   0  0  0  0  0  0
  -26.4459  -31.6609   25.0706 C   0  0  0  0  0  0
  -25.3747  -31.3730   26.1465 C   0  0  0  0  0  0
  -27.0245  -30.3029   24.6067 C   0  0  0  0  0  0
  -27.6033  -32.4322   25.7464 C   0  0  0  0  0  0
  -27.5587  -37.1820   24.8453 C   0  0  0  0  0  0
  -21.4121  -29.3032   22.3738 N   0  0  0  0  0  0
  -26.4306  -37.3815   23.9399 N   0  0  0  0  0  0
  -24.6601  -31.0847   22.0979 N   0  0  0  0  0  0
  -23.4184  -28.8195   23.3003 O   0  0  0  0  0  0
  -28.3792  -26.7316   20.1115 O   0  0  0  0  0  0
  -26.5620  -34.8943   22.4701 O   0  0  0  0  0  0
  -23.5293  -32.1438   23.7522 O   0  0  0  0  0  0
  -29.5845  -21.0848   18.3897 C   0  0  0  0  0  0
  -29.5691  -22.4685   18.6287 C   0  0  0  0  0  0
  -30.3801  -22.9808   19.6774 C   0  0  0  0  0  0
  -30.4080  -20.2560   19.1641 C   0  0  0  0  0  0
  -31.1588  -22.0568   20.4265 C   0  0  0  0  0  0
  -29.3965  -23.6025   16.3736 C   0  0  0  0  0  0
  -33.4350  -22.9096   21.2553 C   0  0  0  0  0  0
  -29.8348  -15.8960   22.2928 C   0  0  0  0  0  0
  -28.7047  -23.3277   17.7132 C   0  0  0  0  0  0
  -30.4623  -24.4812   19.9698 C   0  0  0  0  0  0
  -30.4776  -18.7656   18.8728 C   0  0  0  0  0  0
  -32.0159  -22.4582   21.6240 C   0  0  0  0  0  0
  -29.6043  -24.9392   21.1640 C   0  0  0  0  0  0
  -30.4290  -17.8737   20.1306 C   0  0  0  0  0  0
  -29.6963  -16.5376   19.8844 C   0  0  0  0  0  0
  -28.2277  -25.4821   20.7825 C   0  0  0  0  0  0
  -31.1995  -20.7367   20.1417 N   0  0  0  0  0  0
  -29.9653  -15.4961   20.8915 N   0  0  0  0  0  0
  -31.4696  -12.3513   19.1324 H   0  0  0  0  0  0
  -30.2934  -11.2607   19.8172 H   0  0  0  0  0  0
  -29.7298  -11.7530   17.4294 H   0  0  0  0  0  0
  -29.6743  -13.4663   17.7669 H   0  0  0  0  0  0
  -27.8186  -11.3029   18.8172 H   0  0  0  0  0  0
  -27.3700  -12.6392   17.7848 H   0  0  0  0  0  0
  -27.7112  -14.2438   19.5757 H   0  0  0  0  0  0
  -28.6739  -11.9500   21.3571 H   0  0  0  0  0  0
  -28.4670  -13.6000   21.8565 H   0  0  0  0  0  0
  -25.2750   -9.5671   22.4764 H   0  0  0  0  0  0
  -24.0026   -7.4612   22.7439 H   0  0  0  0  0  0
  -21.0865   -8.8719   19.8934 H   0  0  0  0  0  0
  -22.3669  -10.9661   19.6181 H   0  0  0  0  0  0
  -21.1913   -7.6125   23.9699 H   0  0  0  0  0  0
  -21.1544   -6.0527   25.9086 H   0  0  0  0  0  0
  -22.0586   -2.7617   23.2839 H   0  0  0  0  0  0
  -22.4075  -11.9881   22.4839 H   0  0  0  0  0  0
  -21.1094  -13.1238   22.2600 H   0  0  0  0  0  0
  -24.6811  -15.8493   20.5297 H   0  0  0  0  0  0
  -26.3069  -15.6167   20.1221 H   0  0  0  0  0  0
  -26.7074  -32.5566   23.1167 H   0  0  0  0  0  0
  -24.9909  -33.9833   25.0400 H   0  0  0  0  0  0
  -22.6817  -31.3084   21.4121 H   0  0  0  0  0  0
  -23.3749  -35.9676   23.3310 H   0  0  0  0  0  0
  -24.3556  -36.8947   22.2042 H   0  0  0  0  0  0
  -23.7244  -37.6551   23.6645 H   0  0  0  0  0  0
  -26.0297  -31.6191   20.5919 H   0  0  0  0  0  0
  -26.8129  -30.9035   21.9721 H   0  0  0  0  0  0
  -28.0995  -29.1444   21.1359 H   0  0  0  0  0  0
  -26.0563  -25.9761   19.0345 H   0  0  0  0  0  0
  -23.9716  -27.2992   19.0400 H   0  0  0  0  0  0
  -23.7113  -30.6068   19.4032 H   0  0  0  0  0  0
  -22.7297  -29.2455   19.8661 H   0  0  0  0  0  0
  -25.1301  -36.2008   25.0823 H   0  0  0  0  0  0
  -20.9945  -28.3224   24.1461 H   0  0  0  0  0  0
  -20.5664  -26.2275   23.3614 H   0  0  0  0  0  0
  -21.6628  -26.7447   22.1215 H   0  0  0  0  0  0
  -19.6904  -25.6308   21.1220 H   0  0  0  0  0  0
  -19.6686  -27.3225   20.6773 H   0  0  0  0  0  0
  -17.4199  -26.6668   21.4016 H   0  0  0  0  0  0
  -18.0301  -26.0077   22.9028 H   0  0  0  0  0  0
  -19.7927  -30.7216   24.2326 H   0  0  0  0  0  0
  -17.5015  -31.6262   24.5161 H   0  0  0  0  0  0
  -15.5344  -30.3007   23.7601 H   0  0  0  0  0  0
  -15.8656  -28.0831   22.7025 H   0  0  0  0  0  0
  -24.5868  -30.7146   25.7800 H   0  0  0  0  0  0
  -24.9013  -32.2906   26.4957 H   0  0  0  0  0  0
  -25.8083  -30.8834   27.0190 H   0  0  0  0  0  0
  -26.2755  -29.6835   24.1113 H   0  0  0  0  0  0
  -27.3986  -29.7225   25.4516 H   0  0  0  0  0  0
  -27.8626  -30.4321   23.9216 H   0  0  0  0  0  0
  -27.2634  -33.3598   26.2086 H   0  0  0  0  0  0
  -28.3813  -32.6927   25.0280 H   0  0  0  0  0  0
  -28.0745  -31.8434   26.5342 H   0  0  0  0  0  0
  -28.2611  -38.0110   24.7499 H   0  0  0  0  0  0
  -28.1083  -36.2640   24.6291 H   0  0  0  0  0  0
  -27.2298  -37.1474   25.8854 H   0  0  0  0  0  0
  -20.9265  -29.8794   21.7001 H   0  0  0  0  0  0
  -26.0203  -38.2897   24.1416 H   0  0  0  0  0  0
  -28.9895  -20.6641   17.5894 H   0  0  0  0  0  0
  -30.3306  -24.1446   16.5231 H   0  0  0  0  0  0
  -28.7597  -24.2005   15.7216 H   0  0  0  0  0  0
  -29.6263  -22.6743   15.8492 H   0  0  0  0  0  0
  -34.0075  -23.1399   22.1535 H   0  0  0  0  0  0
  -33.4294  -23.8056   20.6371 H   0  0  0  0  0  0
  -33.9621  -22.1253   20.7133 H   0  0  0  0  0  0
  -30.6249  -16.5965   22.5675 H   0  0  0  0  0  0
  -29.9070  -15.0406   22.9665 H   0  0  0  0  0  0
  -28.8738  -16.3786   22.4636 H   0  0  0  0  0  0
  -28.4193  -24.2682   18.1760 H   0  0  0  0  0  0
  -27.7637  -22.8049   17.5307 H   0  0  0  0  0  0
  -30.2550  -25.0753   19.0818 H   0  0  0  0  0  0
  -31.4996  -24.7229   20.1863 H   0  0  0  0  0  0
  -31.3713  -18.5553   18.2852 H   0  0  0  0  0  0
  -29.6349  -18.5213   18.2244 H   0  0  0  0  0  0
  -32.0939  -21.5995   22.2930 H   0  0  0  0  0  0
  -31.5186  -23.2239   22.2163 H   0  0  0  0  0  0
  -30.1320  -25.7368   21.6896 H   0  0  0  0  0  0
  -29.4900  -24.1350   21.8890 H   0  0  0  0  0  0
  -29.9096  -18.4026   20.9305 H   0  0  0  0  0  0
  -31.4491  -17.7145   20.4832 H   0  0  0  0  0  0
  -29.9561  -16.1642   18.8913 H   0  0  0  0  0  0
  -28.6212  -16.7172   19.8511 H   0  0  0  0  0  0
  -27.6454  -25.6164   21.6968 H   0  0  0  0  0  0
  -27.6829  -24.7579   20.1800 H   0  0  0  0  0  0
  1 25  1  0  0  0
  1 30  2  0  0  0
  1 88  1  0  0  0
  2  3  1  0  0  0
  2 25  1  0  0  0
  2 89  1  0  0  0
  2 90  1  0  0  0
  3  4  1  0  0  0
  3 91  1  0  0  0
  3 92  1  0  0  0
  4  5  1  0  0  0
  4 93  1  0  0  0
  4 94  1  0  0  0
  5  6  1  0  0  0
  5 26  1  0  0  0
  5 95  1  0  0  0
  6 25  1  0  0  0
  6 96  1  0  0  0
  6 97  1  0  0  0
  7  8  2  0  0  0
  7 26  1  0  0  0
  7 29  1  0  0  0
  8  9  1  0  0  0
  8 22  1  0  0  0
  9 10  1  0  0  0
  9 27  2  0  0  0
 10 11  2  0  0  0
 10 15  1  0  0  0
 11 12  1  0  0  0
 11 98  1  0  0  0
 12 13  2  0  0  0
 12 99  1  0  0  0
 13 14  1  0  0  0
 13 31  1  0  0  0
 14 15  2  0  0  0
 14100  1  0  0  0
 15101  1  0  0  0
 16 17  2  0  0  0
 16 21  1  0  0  0
 16 31  1  0  0  0
 17 18  1  0  0  0
 17102  1  0  0  0
 18 19  2  0  0  0
 18103  1  0  0  0
 19 20  1  0  0  0
 19 24  1  0  0  0
 20 21  2  0  0  0
 20104  1  0  0  0
 21 23  1  0  0  0
 22 28  1  0  0  0
 22 32  2  0  0  0
 26 27  1  0  0  0
 28105  1  0  0  0
 28106  1  0  0  0
 29107  1  0  0  0
 29108  1  0  0  0
 33 34  1  0  0  0
 33 66  1  0  0  0
 33 70  2  0  0  0
 34 36  1  0  0  0
 34 59  1  0  0  0
 34109  1  0  0  0
 35 44  2  0  0  0
 35 45  1  0  0  0
 35 68  1  0  0  0
 36 56  1  0  0  0
 36110  1  0  0  0
 37 39  1  0  0  0
 37 47  1  0  0  0
 37 66  1  0  0  0
 37111  1  0  0  0
 38 43  2  0  0  0
 38 46  1  0  0  0
 38 47  1  0  0  0
 39 64  1  0  0  0
 39 67  2  0  0  0
 40 52  1  0  0  0
 40 53  2  0  0  0
 40 58  1  0  0  0
 41112  1  0  0  0
 41113  1  0  0  0
 41114  1  0  0  0
 41 48  1  0  0  0
 42 43  1  0  0  0
 42 66  1  0  0  0
 42115  1  0  0  0
 42116  1  0  0  0
 43 44  1  0  0  0
 44117  1  0  0  0
 45 46  2  0  0  0
 45118  1  0  0  0
 46119  1  0  0  0
 47120  1  0  0  0
 47121  1  0  0  0
 48 56  1  0  0  0
 48 65  1  0  0  0
 48122  1  0  0  0
 49 50  1  0  0  0
 49 53  1  0  0  0
 49 64  1  0  0  0
 49123  1  0  0  0
 50 51  1  0  0  0
 50124  1  0  0  0
 50125  1  0  0  0
 51 52  1  0  0  0
 51126  1  0  0  0
 51127  1  0  0  0
 52128  1  0  0  0
 52129  1  0  0  0
 53 54  1  0  0  0
 54 55  2  0  0  0
 54130  1  0  0  0
 55 57  1  0  0  0
 55131  1  0  0  0
 56 69  2  0  0  0
 57 58  2  0  0  0
 57132  1  0  0  0
 58133  1  0  0  0
 59 60  1  0  0  0
 59 61  1  0  0  0
 59 62  1  0  0  0
 60134  1  0  0  0
 60135  1  0  0  0
 60136  1  0  0  0
 61137  1  0  0  0
 61138  1  0  0  0
 61139  1  0  0  0
 62140  1  0  0  0
 62141  1  0  0  0
 62142  1  0  0  0
 63 65  1  0  0  0
 63143  1  0  0  0
 63144  1  0  0  0
 63145  1  0  0  0
 64146  1  0  0  0
 65147  1  0  0  0
 68 86  1  0  0  0
 71 72  2  0  0  0
 71 74  1  0  0  0
 71148  1  0  0  0
 72 73  1  0  0  0
 72 79  1  0  0  0
 73 75  2  0  0  0
 73 80  1  0  0  0
 74 81  1  0  0  0
 74 87  2  0  0  0
 75 82  1  0  0  0
 75 87  1  0  0  0
 76 79  1  0  0  0
 76149  1  0  0  0
 76150  1  0  0  0
 76151  1  0  0  0
 77 82  1  0  0  0
 77152  1  0  0  0
 77153  1  0  0  0
 77154  1  0  0  0
 78 88  1  0  0  0
 78155  1  0  0  0
 78156  1  0  0  0
 78157  1  0  0  0
 79158  1  0  0  0
 79159  1  0  0  0
 80 83  1  0  0  0
 80160  1  0  0  0
 80161  1  0  0  0
 81 84  1  0  0  0
 81162  1  0  0  0
 81163  1  0  0  0
 82164  1  0  0  0
 82165  1  0  0  0
 83 86  1  0  0  0
 83166  1  0  0  0
 83167  1  0  0  0
 84 85  1  0  0  0
 84168  1  0  0  0
 84169  1  0  0  0
 85 88  1  0  0  0
 85170  1  0  0  0
 85171  1  0  0  0
 86172  1  0  0  0
 86173  1  0  0  0
M  ISO  4   1 100  68 101  86 101  88 100
M  END
> <chiral flag>
0

> <version>
0

> <s_m_source_file>
/data/baiqing/PycharmProjects/Reinvent-master-3.2/result/LINK_invent/BTK/process_docking_weight1_custom_sum_contain_oxygen_bond_distance_aromatic_linkinvent_7_9_3/rearranged_h_0078.sdf

> <i_m_source_file_index>
85

> <r_mmod_Potential_Energy-OPLS-2005>
-46.0345153808594

> <r_mmod_Stretch_Energy-OPLS-2005>
34.7158699035645

> <r_mmod_Bend_Energy-OPLS-2005>
92.9758987426758

> <r_mmod_Torsional_Energy-OPLS-2005>
318.319702148438

> <r_mmod_Improper_Torsional_Energy-OPLS-2005>
10.8929138183594

> <r_mmod_Van_der_Waal_Energy-OPLS-2005>
154.458587646484

> <r_mmod_Electrostatic_Energy-OPLS-2005>
-469.345703125

> <r_mmod_Solvation_Energy-OPLS-2005>
-199.110076904297

> <b_mmod_Minimization_Converged-OPLS-2005>
0

> <r_mmod_RMS_Derivative-OPLS-2005>
3.46780443191528

$$$$
85
                    3D
 Structure written by MMmdl.
159167  0  0  1  0            999 V2000
  -30.6045  -14.7829   20.3757 C   0  0  0  0  0  0
  -30.4468  -12.4556   19.4704 C   0  0  0  0  0  0
  -29.5171  -12.4054   18.2367 C   0  0  0  0  0  0
  -28.0337  -12.2904   18.6542 C   0  0  0  0  0  0
  -27.6330  -13.2135   19.8387 C   0  0  2  0  0  0
  -28.6926  -13.2086   20.9604 C   0  0  0  0  0  0
  -25.2527  -13.8156   20.5730 C   0  0  0  0  0  0
  -24.1793  -13.0421   20.9231 C   0  0  0  0  0  0
  -24.6365  -11.6892   20.8791 C   0  0  0  0  0  0
  -23.9043  -10.4281   21.0432 C   0  0  0  0  0  0
  -24.3597   -9.4194   21.9199 C   0  0  0  0  0  0
  -23.6274   -8.2233   22.0758 C   0  0  0  0  0  0
  -22.4263   -8.0275   21.3543 C   0  0  0  0  0  0
  -21.9896   -9.0255   20.4656 C   0  0  0  0  0  0
  -22.7224  -10.2130   20.3074 C   0  0  0  0  0  0
  -21.6852   -6.0722   22.5279 C   0  0  0  0  0  0
  -21.4006   -6.5622   23.8214 C   0  0  0  0  0  0
  -21.3659   -5.6781   24.9178 C   0  0  0  0  0  0
  -21.6051   -4.3045   24.7230 C   0  0  0  0  0  0
  -21.8820   -3.8134   23.4353 C   0  0  0  0  0  0
  -21.9192   -4.6947   22.3406 C   0  0  0  0  0  0
  -22.7817  -13.5227   21.1875 C   0  0  0  0  0  0
  -22.1668   -4.2131   21.0988 F   0  0  0  0  0  0
  -21.5633   -3.4532   25.7745 F   0  0  0  0  0  0
  -29.9808  -13.5529   20.3444 N   0  0  0  0  0  0
  -26.2913  -12.9292   20.3316 N   0  0  0  0  0  0
  -25.9289  -11.6466   20.5816 N   0  0  0  0  0  0
  -22.0442  -12.8231   22.0433 N   0  0  0  0  0  0
  -25.4263  -15.1880   20.4169 N   0  0  0  0  0  0
  -31.8313  -14.8524   20.2568 O   0  0  0  0  0  0
  -21.6639   -6.8868   21.4236 O   0  0  0  0  0  0
  -22.3505  -14.5520   20.6700 O   0  0  0  0  0  0
  -24.6293  -31.8536   23.1978 C   0  0  0  0  0  0
  -25.9111  -32.4750   23.8324 C   0  0  1  0  0  0
  -27.2332  -27.2764   20.1375 C   0  0  0  0  0  0
  -25.5912  -33.8552   24.2247 N   0  0  0  0  0  0
  -23.4269  -30.4734   21.5403 C   0  0  2  0  0  0
  -24.8781  -28.9186   20.1127 C   0  0  0  0  0  0
  -22.7491  -29.4579   22.4911 C   0  0  0  0  0  0
  -18.0281  -28.1396   22.8476 C   0  0  0  0  0  0
  -24.1488  -36.7289   23.2641 C   0  0  0  0  0  0
  -25.9698  -30.7727   21.3729 C   0  0  0  0  0  0
  -26.0463  -29.3949   20.7200 C   0  0  0  0  0  0
  -27.2261  -28.5873   20.7180 C   0  0  0  0  0  0
  -26.0409  -26.8591   19.5043 C   0  0  0  0  0  0
  -24.8798  -27.6586   19.4933 C   0  0  0  0  0  0
  -23.6468  -29.8027   20.1579 C   0  0  0  0  0  0
  -25.4115  -36.3070   24.0320 C   0  0  1  0  0  0
  -20.5885  -28.3694   23.1274 C   0  0  2  0  0  0
  -20.6772  -26.9411   22.5414 C   0  0  0  0  0  0
  -19.5758  -26.6386   21.5211 C   0  0  0  0  0  0
  -18.1932  -26.7938   22.1615 C   0  0  0  0  0  0
  -19.1534  -28.8862   23.2873 C   0  0  0  0  0  0
  -18.9461  -30.1460   23.8898 C   0  0  0  0  0  0
  -17.6463  -30.6600   24.0564 C   0  0  0  0  0  0
  -25.9046  -34.9434   23.5087 C   0  0  0  0  0  0
  -16.5351  -29.9097   23.6342 C   0  0  0  0  0  0
  -16.7266  -28.6517   23.0354 C   0  0  0  0  0  0
  -26.4504  -31.6578   25.0703 C   0  0  0  0  0  0
  -25.3737  -31.3717   26.1425 C   0  0  0  0  0  0
  -27.0350  -30.3002   24.6169 C   0  0  0  0  0  0
  -27.6059  -32.4319   25.7483 C   0  0  0  0  0  0
  -27.5574  -37.1800   24.8465 C   0  0  0  0  0  0
  -21.4198  -29.3037   22.3658 N   0  0  0  0  0  0
  -26.4291  -37.3766   23.9403 N   0  0  0  0  0  0
  -24.6942  -31.0514   22.0939 N   0  0  0  0  0  0
  -23.4189  -28.8111   23.3006 O   0  0  0  0  0  0
  -28.3499  -26.4152   20.2054 O   0  0  0  0  0  0
  -26.5628  -34.8906   22.4660 O   0  0  0  0  0  0
  -23.5446  -32.1331   23.7288 O   0  0  0  0  0  0
  -28.5782  -21.5913   21.5916 C   0  0  0  0  0  0
  -29.2687  -22.3777   20.6131 C   0  0  0  0  0  0
  -29.8735  -21.3503   19.8793 C   0  0  0  0  0  0
  -30.7442  -21.4638   18.6662 C   0  0  0  0  0  0
  -30.6810  -24.4292   19.9034 C   0  0  0  0  0  0
  -29.3080  -16.0792   18.7985 C   0  0  0  0  0  0
  -29.9806  -18.6759   19.9507 C   0  0  0  0  0  0
  -29.8720  -17.3117   20.8465 C   0  0  0  0  0  0
  -28.1775  -24.9291   20.0851 C   0  0  0  0  0  0
  -29.3799  -23.9790   20.5849 C   0  0  1  0  0  0
  -28.7608  -20.2644   21.4882 N   0  0  0  0  0  0
  -29.5982  -20.0729   20.4445 N   0  0  0  0  0  0
  -29.8214  -15.9267   20.1660 N   0  0  0  0  0  0
  -31.4820  -12.5965   19.1528 H   0  0  0  0  0  0
  -30.4236  -11.5092   20.0124 H   0  0  0  0  0  0
  -29.7825  -11.5464   17.6189 H   0  0  0  0  0  0
  -29.6799  -13.2653   17.5917 H   0  0  0  0  0  0
  -27.8714  -11.2521   18.9439 H   0  0  0  0  0  0
  -27.3849  -12.4669   17.7956 H   0  0  0  0  0  0
  -27.5810  -14.2175   19.4346 H   0  0  0  0  0  0
  -28.7464  -12.2364   21.4530 H   0  0  0  0  0  0
  -28.4330  -13.9373   21.7307 H   0  0  0  0  0  0
  -25.2742   -9.5668   22.4774 H   0  0  0  0  0  0
  -23.9986   -7.4618   22.7469 H   0  0  0  0  0  0
  -21.0836   -8.8783   19.8956 H   0  0  0  0  0  0
  -22.3697  -10.9677   19.6188 H   0  0  0  0  0  0
  -21.1993   -7.6129   23.9710 H   0  0  0  0  0  0
  -21.1485   -6.0514   25.9079 H   0  0  0  0  0  0
  -22.0600   -2.7593   23.2872 H   0  0  0  0  0  0
  -22.4032  -11.9893   22.4831 H   0  0  0  0  0  0
  -21.1066  -13.1275   22.2623 H   0  0  0  0  0  0
  -24.6687  -15.8509   20.5443 H   0  0  0  0  0  0
  -26.2949  -15.6279   20.1397 H   0  0  0  0  0  0
  -26.7167  -32.5417   23.1063 H   0  0  0  0  0  0
  -25.0059  -33.9696   25.0392 H   0  0  0  0  0  0
  -22.7232  -31.2945   21.3921 H   0  0  0  0  0  0
  -23.3741  -35.9632   23.3310 H   0  0  0  0  0  0
  -24.3584  -36.8904   22.2056 H   0  0  0  0  0  0
  -23.7243  -37.6491   23.6666 H   0  0  0  0  0  0
  -26.0984  -31.5281   20.5965 H   0  0  0  0  0  0
  -26.8509  -30.8318   21.9998 H   0  0  0  0  0  0
  -28.1213  -28.9469   21.2057 H   0  0  0  0  0  0
  -25.9817  -25.8924   19.0260 H   0  0  0  0  0  0
  -23.9848  -27.2878   19.0132 H   0  0  0  0  0  0
  -23.7701  -30.5755   19.3986 H   0  0  0  0  0  0
  -22.7674  -29.2318   19.8556 H   0  0  0  0  0  0
  -25.1302  -36.1925   25.0814 H   0  0  0  0  0  0
  -20.9977  -28.3276   24.1396 H   0  0  0  0  0  0
  -20.5682  -26.2296   23.3610 H   0  0  0  0  0  0
  -21.6638  -26.7448   22.1205 H   0  0  0  0  0  0
  -19.6924  -25.6297   21.1244 H   0  0  0  0  0  0
  -19.6712  -27.3191   20.6738 H   0  0  0  0  0  0
  -17.4202  -26.6666   21.4020 H   0  0  0  0  0  0
  -18.0344  -26.0095   22.9029 H   0  0  0  0  0  0
  -19.7934  -30.7272   24.2277 H   0  0  0  0  0  0
  -17.5018  -31.6286   24.5153 H   0  0  0  0  0  0
  -15.5351  -30.3003   23.7676 H   0  0  0  0  0  0
  -15.8658  -28.0841   22.7077 H   0  0  0  0  0  0
  -24.5926  -30.7051   25.7754 H   0  0  0  0  0  0
  -24.8912  -32.2879   26.4843 H   0  0  0  0  0  0
  -25.8058  -30.8906   27.0207 H   0  0  0  0  0  0
  -26.2920  -29.6744   24.1208 H   0  0  0  0  0  0
  -27.4059  -29.7273   25.4681 H   0  0  0  0  0  0
  -27.8789  -30.4289   23.9383 H   0  0  0  0  0  0
  -27.2670  -33.3628   26.2048 H   0  0  0  0  0  0
  -28.3883  -32.6858   25.0317 H   0  0  0  0  0  0
  -28.0709  -31.8444   26.5411 H   0  0  0  0  0  0
  -28.2596  -38.0095   24.7506 H   0  0  0  0  0  0
  -28.1066  -36.2622   24.6308 H   0  0  0  0  0  0
  -27.2293  -37.1467   25.8869 H   0  0  0  0  0  0
  -20.9376  -29.8756   21.6862 H   0  0  0  0  0  0
  -26.0169  -38.2836   24.1418 H   0  0  0  0  0  0
  -27.9728  -21.9534   22.4109 H   0  0  0  0  0  0
  -31.7205  -21.8703   18.9299 H   0  0  0  0  0  0
  -30.2885  -22.1183   17.9241 H   0  0  0  0  0  0
  -30.9095  -20.5049   18.1778 H   0  0  0  0  0  0
  -31.5502  -23.9351   20.3386 H   0  0  0  0  0  0
  -30.8298  -25.5034   20.0181 H   0  0  0  0  0  0
  -30.6683  -24.2260   18.8341 H   0  0  0  0  0  0
  -28.3643  -16.6262   18.7977 H   0  0  0  0  0  0
  -29.1149  -15.1477   18.2839 H   0  0  0  0  0  0
  -30.0297  -16.6083   18.1749 H   0  0  0  0  0  0
  -29.4011  -18.5770   19.0363 H   0  0  0  0  0  0
  -31.0176  -18.7325   19.6174 H   0  0  0  0  0  0
  -30.6756  -17.3082   21.5830 H   0  0  0  0  0  0
  -28.9530  -17.3778   21.4288 H   0  0  0  0  0  0
  -27.2850  -24.6456   20.6450 H   0  0  0  0  0  0
  -27.9709  -24.7000   19.0392 H   0  0  0  0  0  0
  -29.5048  -24.2751   21.6272 H   0  0  0  0  0  0
  1 25  1  0  0  0
  1 30  2  0  0  0
  1 83  1  0  0  0
  2  3  1  0  0  0
  2 25  1  0  0  0
  2 84  1  0  0  0
  2 85  1  0  0  0
  3  4  1  0  0  0
  3 86  1  0  0  0
  3 87  1  0  0  0
  4  5  1  0  0  0
  4 88  1  0  0  0
  4 89  1  0  0  0
  5  6  1  0  0  0
  5 26  1  0  0  0
  5 90  1  0  0  0
  6 25  1  0  0  0
  6 91  1  0  0  0
  6 92  1  0  0  0
  7  8  2  0  0  0
  7 26  1  0  0  0
  7 29  1  0  0  0
  8  9  1  0  0  0
  8 22  1  0  0  0
  9 10  1  0  0  0
  9 27  2  0  0  0
 10 11  2  0  0  0
 10 15  1  0  0  0
 11 12  1  0  0  0
 11 93  1  0  0  0
 12 13  2  0  0  0
 12 94  1  0  0  0
 13 14  1  0  0  0
 13 31  1  0  0  0
 14 15  2  0  0  0
 14 95  1  0  0  0
 15 96  1  0  0  0
 16 17  2  0  0  0
 16 21  1  0  0  0
 16 31  1  0  0  0
 17 18  1  0  0  0
 17 97  1  0  0  0
 18 19  2  0  0  0
 18 98  1  0  0  0
 19 20  1  0  0  0
 19 24  1  0  0  0
 20 21  2  0  0  0
 20 99  1  0  0  0
 21 23  1  0  0  0
 22 28  1  0  0  0
 22 32  2  0  0  0
 26 27  1  0  0  0
 28100  1  0  0  0
 28101  1  0  0  0
 29102  1  0  0  0
 29103  1  0  0  0
 33 34  1  0  0  0
 33 66  1  0  0  0
 33 70  2  0  0  0
 34 36  1  0  0  0
 34 59  1  0  0  0
 34104  1  0  0  0
 35 44  2  0  0  0
 35 45  1  0  0  0
 35 68  1  0  0  0
 36 56  1  0  0  0
 36105  1  0  0  0
 37 39  1  0  0  0
 37 47  1  0  0  0
 37 66  1  0  0  0
 37106  1  0  0  0
 38 43  2  0  0  0
 38 46  1  0  0  0
 38 47  1  0  0  0
 39 64  1  0  0  0
 39 67  2  0  0  0
 40 52  1  0  0  0
 40 53  2  0  0  0
 40 58  1  0  0  0
 41107  1  0  0  0
 41108  1  0  0  0
 41109  1  0  0  0
 41 48  1  0  0  0
 42 43  1  0  0  0
 42 66  1  0  0  0
 42110  1  0  0  0
 42111  1  0  0  0
 43 44  1  0  0  0
 44112  1  0  0  0
 45 46  2  0  0  0
 45113  1  0  0  0
 46114  1  0  0  0
 47115  1  0  0  0
 47116  1  0  0  0
 48 56  1  0  0  0
 48 65  1  0  0  0
 48117  1  0  0  0
 49 50  1  0  0  0
 49 53  1  0  0  0
 49 64  1  0  0  0
 49118  1  0  0  0
 50 51  1  0  0  0
 50119  1  0  0  0
 50120  1  0  0  0
 51 52  1  0  0  0
 51121  1  0  0  0
 51122  1  0  0  0
 52123  1  0  0  0
 52124  1  0  0  0
 53 54  1  0  0  0
 54 55  2  0  0  0
 54125  1  0  0  0
 55 57  1  0  0  0
 55126  1  0  0  0
 56 69  2  0  0  0
 57 58  2  0  0  0
 57127  1  0  0  0
 58128  1  0  0  0
 59 60  1  0  0  0
 59 61  1  0  0  0
 59 62  1  0  0  0
 60129  1  0  0  0
 60130  1  0  0  0
 60131  1  0  0  0
 61132  1  0  0  0
 61133  1  0  0  0
 61134  1  0  0  0
 62135  1  0  0  0
 62136  1  0  0  0
 62137  1  0  0  0
 63 65  1  0  0  0
 63138  1  0  0  0
 63139  1  0  0  0
 63140  1  0  0  0
 64141  1  0  0  0
 65142  1  0  0  0
 68 79  1  0  0  0
 71 72  1  0  0  0
 71 81  2  0  0  0
 71143  1  0  0  0
 72 73  2  0  0  0
 72 80  1  0  0  0
 73 74  1  0  0  0
 73 82  1  0  0  0
 74144  1  0  0  0
 74145  1  0  0  0
 74146  1  0  0  0
 75147  1  0  0  0
 75148  1  0  0  0
 75149  1  0  0  0
 75 80  1  0  0  0
 76 83  1  0  0  0
 76150  1  0  0  0
 76151  1  0  0  0
 76152  1  0  0  0
 77 78  1  0  0  0
 77 82  1  0  0  0
 77153  1  0  0  0
 77154  1  0  0  0
 78 83  1  0  0  0
 78155  1  0  0  0
 78156  1  0  0  0
 79 80  1  0  0  0
 79157  1  0  0  0
 79158  1  0  0  0
 80159  1  0  0  0
 81 82  1  0  0  0
M  ISO  4   1 100  68 101  79 101  83 100
M  END
> <chiral flag>
0

> <version>
0

> <s_m_source_file>
/data/baiqing/PycharmProjects/Reinvent-master-3.2/result/LINK_invent/BTK/process_docking_weight1_custom_sum_contain_oxygen_bond_distance_aromatic_linkinvent_7_9_3/rearranged_h_0078.sdf

> <i_m_source_file_index>
86

> <r_mmod_Potential_Energy-OPLS-2005>
341.337951660156

> <r_mmod_Stretch_Energy-OPLS-2005>
126.287666320801

> <r_mmod_Bend_Energy-OPLS-2005>
177.485687255859

> <r_mmod_Torsional_Energy-OPLS-2005>
319.7099609375

> <r_mmod_Improper_Torsional_Energy-OPLS-2005>
12.6853675842285

> <r_mmod_Van_der_Waal_Energy-OPLS-2005>
126.301460266113

> <r_mmod_Electrostatic_Energy-OPLS-2005>
-312.604827880859

> <r_mmod_Solvation_Energy-OPLS-2005>
-208.495071411133

> <b_mmod_Minimization_Converged-OPLS-2005>
0

> <r_mmod_RMS_Derivative-OPLS-2005>
1.55201435089111

$$$$
86
                    3D
 Structure written by MMmdl.
167175  0  0  1  0            999 V2000
  -30.7262  -14.5131   20.5575 C   0  0  0  0  0  0
  -30.4199  -12.3310   19.4393 C   0  0  0  0  0  0
  -29.4996  -12.4942   18.2137 C   0  0  0  0  0  0
  -28.0207  -12.3635   18.6216 C   0  0  0  0  0  0
  -27.6559  -13.2200   19.8635 C   0  0  2  0  0  0
  -28.6990  -13.0616   20.9904 C   0  0  0  0  0  0
  -25.2569  -13.8200   20.5676 C   0  0  0  0  0  0
  -24.1840  -13.0460   20.9186 C   0  0  0  0  0  0
  -24.6410  -11.6929   20.8756 C   0  0  0  0  0  0
  -23.9066  -10.4319   21.0403 C   0  0  0  0  0  0
  -24.3623   -9.4244   21.9175 C   0  0  0  0  0  0
  -23.6308   -8.2274   22.0756 C   0  0  0  0  0  0
  -22.4292   -8.0296   21.3541 C   0  0  0  0  0  0
  -21.9915   -9.0270   20.4651 C   0  0  0  0  0  0
  -22.7242  -10.2148   20.3056 C   0  0  0  0  0  0
  -21.6872   -6.0737   22.5264 C   0  0  0  0  0  0
  -21.4024   -6.5639   23.8194 C   0  0  0  0  0  0
  -21.3663   -5.6787   24.9147 C   0  0  0  0  0  0
  -21.6039   -4.3048   24.7198 C   0  0  0  0  0  0
  -21.8821   -3.8140   23.4321 C   0  0  0  0  0  0
  -21.9207   -4.6963   22.3382 C   0  0  0  0  0  0
  -22.7857  -13.5239   21.1823 C   0  0  0  0  0  0
  -22.1671   -4.2157   21.0958 F   0  0  0  0  0  0
  -21.5640   -3.4532   25.7709 F   0  0  0  0  0  0
  -30.0221  -13.3522   20.4230 N   0  0  0  0  0  0
  -26.3003  -12.9388   20.3320 N   0  0  0  0  0  0
  -25.9343  -11.6544   20.5776 N   0  0  0  0  0  0
  -22.0498  -12.8247   22.0390 N   0  0  0  0  0  0
  -25.4285  -15.1918   20.4098 N   0  0  0  0  0  0
  -31.8864  -14.6094   20.1569 O   0  0  0  0  0  0
  -21.6657   -6.8891   21.4231 O   0  0  0  0  0  0
  -22.3537  -14.5528   20.6656 O   0  0  0  0  0  0
  -24.6166  -31.8639   23.2058 C   0  0  0  0  0  0
  -25.9051  -32.4793   23.8368 C   0  0  1  0  0  0
  -27.2398  -27.3993   20.1063 C   0  0  0  0  0  0
  -25.5892  -33.8595   24.2294 N   0  0  0  0  0  0
  -23.4054  -30.4848   21.5469 C   0  0  2  0  0  0
  -24.8533  -28.9421   20.1137 C   0  0  0  0  0  0
  -22.7414  -29.4634   22.4991 C   0  0  0  0  0  0
  -18.0278  -28.1370   22.8497 C   0  0  0  0  0  0
  -24.1488  -36.7308   23.2638 C   0  0  0  0  0  0
  -25.9362  -30.8186   21.3633 C   0  0  0  0  0  0
  -26.0116  -29.4497   20.7126 C   0  0  0  0  0  0
  -27.2018  -28.6847   20.7044 C   0  0  0  0  0  0
  -26.0571  -26.9067   19.5091 C   0  0  0  0  0  0
  -24.8721  -27.6707   19.5105 C   0  0  0  0  0  0
  -23.6149  -29.8109   20.1631 C   0  0  0  0  0  0
  -25.4110  -36.3097   24.0334 C   0  0  1  0  0  0
  -20.5855  -28.3665   23.1321 C   0  0  2  0  0  0
  -20.6760  -26.9399   22.5416 C   0  0  0  0  0  0
  -19.5740  -26.6381   21.5215 C   0  0  0  0  0  0
  -18.1923  -26.7917   22.1622 C   0  0  0  0  0  0
  -19.1516  -28.8838   23.2900 C   0  0  0  0  0  0
  -18.9449  -30.1446   23.8911 C   0  0  0  0  0  0
  -17.6454  -30.6582   24.0562 C   0  0  0  0  0  0
  -25.9052  -34.9466   23.5119 C   0  0  0  0  0  0
  -16.5345  -29.9090   23.6318 C   0  0  0  0  0  0
  -16.7262  -28.6492   23.0350 C   0  0  0  0  0  0
  -26.4473  -31.6579   25.0709 C   0  0  0  0  0  0
  -25.3734  -31.3688   26.1451 C   0  0  0  0  0  0
  -27.0299  -30.3009   24.6102 C   0  0  0  0  0  0
  -27.6049  -32.4301   25.7464 C   0  0  0  0  0  0
  -27.5580  -37.1804   24.8463 C   0  0  0  0  0  0
  -21.4135  -29.3015   22.3719 N   0  0  0  0  0  0
  -26.4294  -37.3786   23.9412 N   0  0  0  0  0  0
  -24.6710  -31.0722   22.0963 N   0  0  0  0  0  0
  -23.4175  -28.8190   23.3047 O   0  0  0  0  0  0
  -28.4293  -26.6884   20.1480 O   0  0  0  0  0  0
  -26.5617  -34.8921   22.4690 O   0  0  0  0  0  0
  -23.5351  -32.1409   23.7442 O   0  0  0  0  0  0
  -31.6386  -19.4919   18.8885 C   0  0  0  0  0  0
  -30.9234  -20.5705   19.4197 C   0  0  0  0  0  0
  -31.1901  -18.1798   19.1188 C   0  0  0  0  0  0
  -29.7724  -20.3320   20.1952 C   0  0  0  0  0  0
  -30.0541  -17.9821   19.9440 C   0  0  0  0  0  0
  -31.9429  -17.0562   18.4275 C   0  0  0  0  0  0
  -27.4850  -21.1635   20.9432 C   0  0  0  0  0  0
  -29.5574  -21.7584   22.2511 C   0  0  0  0  0  0
  -30.5725  -16.1646   22.3121 C   0  0  0  0  0  0
  -29.4150  -16.5832   20.1634 C   0  0  0  0  0  0
  -28.3445  -24.1543   20.4674 C   0  0  0  0  0  0
  -29.1017  -22.8588   19.9964 C   0  0  0  0  0  0
  -28.5902  -25.3870   19.5399 C   0  0  0  0  0  0
  -28.9844  -21.5224   20.8394 C   0  0  0  0  0  0
  -29.3908  -19.0486   20.4824 N   0  0  0  0  0  0
  -30.0803  -15.5957   21.0581 N   0  0  0  0  0  0
  -31.4665  -12.4230   19.1377 H   0  0  0  0  0  0
  -30.3176  -11.3348   19.8734 H   0  0  0  0  0  0
  -29.7466  -11.7459   17.4593 H   0  0  0  0  0  0
  -29.6715  -13.4662   17.7486 H   0  0  0  0  0  0
  -27.8282  -11.3092   18.8260 H   0  0  0  0  0  0
  -27.3772  -12.6328   17.7846 H   0  0  0  0  0  0
  -27.6774  -14.2608   19.5392 H   0  0  0  0  0  0
  -28.6822  -12.0453   21.3870 H   0  0  0  0  0  0
  -28.4626  -13.7163   21.8296 H   0  0  0  0  0  0
  -25.2783   -9.5719   22.4728 H   0  0  0  0  0  0
  -24.0032   -7.4657   22.7468 H   0  0  0  0  0  0
  -21.0855   -8.8794   19.8950 H   0  0  0  0  0  0
  -22.3722  -10.9681   19.6162 H   0  0  0  0  0  0
  -21.2017   -7.6150   23.9702 H   0  0  0  0  0  0
  -21.1490   -6.0510   25.9052 H   0  0  0  0  0  0
  -22.0606   -2.7607   23.2810 H   0  0  0  0  0  0
  -22.4124  -11.9933   22.4818 H   0  0  0  0  0  0
  -21.1099  -13.1268   22.2544 H   0  0  0  0  0  0
  -24.6655  -15.8488   20.5317 H   0  0  0  0  0  0
  -26.2847  -15.6335   20.1034 H   0  0  0  0  0  0
  -26.7115  -32.5485   23.1122 H   0  0  0  0  0  0
  -25.0023  -33.9756   25.0415 H   0  0  0  0  0  0
  -22.6959  -31.3023   21.4043 H   0  0  0  0  0  0
  -23.3754  -35.9639   23.3309 H   0  0  0  0  0  0
  -24.3579  -36.8917   22.2052 H   0  0  0  0  0  0
  -23.7250  -37.6516   23.6655 H   0  0  0  0  0  0
  -26.0544  -31.5834   20.5949 H   0  0  0  0  0  0
  -26.8218  -30.8694   21.9853 H   0  0  0  0  0  0
  -28.0960  -29.0749   21.1691 H   0  0  0  0  0  0
  -26.0215  -25.9294   19.0519 H   0  0  0  0  0  0
  -23.9782  -27.2704   19.0531 H   0  0  0  0  0  0
  -23.7205  -30.5829   19.3998 H   0  0  0  0  0  0
  -22.7393  -29.2289   19.8699 H   0  0  0  0  0  0
  -25.1293  -36.1951   25.0829 H   0  0  0  0  0  0
  -20.9942  -28.3221   24.1445 H   0  0  0  0  0  0
  -20.5670  -26.2265   23.3602 H   0  0  0  0  0  0
  -21.6635  -26.7444   22.1205 H   0  0  0  0  0  0
  -19.6907  -25.6303   21.1232 H   0  0  0  0  0  0
  -19.6684  -27.3204   20.6764 H   0  0  0  0  0  0
  -17.4190  -26.6662   21.4028 H   0  0  0  0  0  0
  -18.0323  -26.0057   22.9011 H   0  0  0  0  0  0
  -19.7925  -30.7246   24.2274 H   0  0  0  0  0  0
  -17.5014  -31.6268   24.5159 H   0  0  0  0  0  0
  -15.5340  -30.2999   23.7652 H   0  0  0  0  0  0
  -15.8647  -28.0827   22.7066 H   0  0  0  0  0  0
  -24.5919  -30.7019   25.7786 H   0  0  0  0  0  0
  -24.8911  -32.2838   26.4902 H   0  0  0  0  0  0
  -25.8087  -30.8857   27.0204 H   0  0  0  0  0  0
  -26.2835  -29.6779   24.1153 H   0  0  0  0  0  0
  -27.4041  -29.7246   25.4574 H   0  0  0  0  0  0
  -27.8692  -30.4317   23.9268 H   0  0  0  0  0  0
  -27.2676  -33.3594   26.2065 H   0  0  0  0  0  0
  -28.3844  -32.6865   25.0280 H   0  0  0  0  0  0
  -28.0733  -31.8407   26.5352 H   0  0  0  0  0  0
  -28.2600  -38.0096   24.7513 H   0  0  0  0  0  0
  -28.1067  -36.2630   24.6283 H   0  0  0  0  0  0
  -27.2291  -37.1450   25.8861 H   0  0  0  0  0  0
  -20.9310  -29.8723   21.6923 H   0  0  0  0  0  0
  -26.0176  -38.2860   24.1415 H   0  0  0  0  0  0
  -32.5159  -19.6784   18.2855 H   0  0  0  0  0  0
  -31.2922  -21.5640   19.2196 H   0  0  0  0  0  0
  -32.4085  -17.4073   17.5049 H   0  0  0  0  0  0
  -31.2921  -16.2265   18.1533 H   0  0  0  0  0  0
  -32.7461  -16.6932   19.0696 H   0  0  0  0  0  0
  -27.3244  -20.2523   21.5220 H   0  0  0  0  0  0
  -27.0470  -21.0110   19.9576 H   0  0  0  0  0  0
  -26.9175  -21.9429   21.4484 H   0  0  0  0  0  0
  -29.4966  -20.8569   22.8613 H   0  0  0  0  0  0
  -29.0254  -22.5450   22.7850 H   0  0  0  0  0  0
  -30.6094  -22.0458   22.2033 H   0  0  0  0  0  0
  -29.8762  -16.9076   22.7048 H   0  0  0  0  0  0
  -31.5396  -16.6499   22.1644 H   0  0  0  0  0  0
  -30.6977  -15.3945   23.0732 H   0  0  0  0  0  0
  -29.2655  -16.1354   19.1798 H   0  0  0  0  0  0
  -28.4054  -16.7319   20.5491 H   0  0  0  0  0  0
  -28.6727  -24.4100   21.4741 H   0  0  0  0  0  0
  -27.2720  -23.9755   20.5332 H   0  0  0  0  0  0
  -30.1509  -23.1440   19.9411 H   0  0  0  0  0  0
  -28.7981  -22.6403   18.9720 H   0  0  0  0  0  0
  -28.0439  -25.2917   18.6017 H   0  0  0  0  0  0
  -29.6385  -25.3654   19.2408 H   0  0  0  0  0  0
  1 25  1  0  0  0
  1 30  2  0  0  0
  1 86  1  0  0  0
  2  3  1  0  0  0
  2 25  1  0  0  0
  2 87  1  0  0  0
  2 88  1  0  0  0
  3  4  1  0  0  0
  3 89  1  0  0  0
  3 90  1  0  0  0
  4  5  1  0  0  0
  4 91  1  0  0  0
  4 92  1  0  0  0
  5  6  1  0  0  0
  5 26  1  0  0  0
  5 93  1  0  0  0
  6 25  1  0  0  0
  6 94  1  0  0  0
  6 95  1  0  0  0
  7  8  2  0  0  0
  7 26  1  0  0  0
  7 29  1  0  0  0
  8  9  1  0  0  0
  8 22  1  0  0  0
  9 10  1  0  0  0
  9 27  2  0  0  0
 10 11  2  0  0  0
 10 15  1  0  0  0
 11 12  1  0  0  0
 11 96  1  0  0  0
 12 13  2  0  0  0
 12 97  1  0  0  0
 13 14  1  0  0  0
 13 31  1  0  0  0
 14 15  2  0  0  0
 14 98  1  0  0  0
 15 99  1  0  0  0
 16 17  2  0  0  0
 16 21  1  0  0  0
 16 31  1  0  0  0
 17 18  1  0  0  0
 17100  1  0  0  0
 18 19  2  0  0  0
 18101  1  0  0  0
 19 20  1  0  0  0
 19 24  1  0  0  0
 20 21  2  0  0  0
 20102  1  0  0  0
 21 23  1  0  0  0
 22 28  1  0  0  0
 22 32  2  0  0  0
 26 27  1  0  0  0
 28103  1  0  0  0
 28104  1  0  0  0
 29105  1  0  0  0
 29106  1  0  0  0
 33 34  1  0  0  0
 33 66  1  0  0  0
 33 70  2  0  0  0
 34 36  1  0  0  0
 34 59  1  0  0  0
 34107  1  0  0  0
 35 44  2  0  0  0
 35 45  1  0  0  0
 35 68  1  0  0  0
 36 56  1  0  0  0
 36108  1  0  0  0
 37 39  1  0  0  0
 37 47  1  0  0  0
 37 66  1  0  0  0
 37109  1  0  0  0
 38 43  2  0  0  0
 38 46  1  0  0  0
 38 47  1  0  0  0
 39 64  1  0  0  0
 39 67  2  0  0  0
 40 52  1  0  0  0
 40 53  2  0  0  0
 40 58  1  0  0  0
 41110  1  0  0  0
 41111  1  0  0  0
 41112  1  0  0  0
 41 48  1  0  0  0
 42 43  1  0  0  0
 42 66  1  0  0  0
 42113  1  0  0  0
 42114  1  0  0  0
 43 44  1  0  0  0
 44115  1  0  0  0
 45 46  2  0  0  0
 45116  1  0  0  0
 46117  1  0  0  0
 47118  1  0  0  0
 47119  1  0  0  0
 48 56  1  0  0  0
 48 65  1  0  0  0
 48120  1  0  0  0
 49 50  1  0  0  0
 49 53  1  0  0  0
 49 64  1  0  0  0
 49121  1  0  0  0
 50 51  1  0  0  0
 50122  1  0  0  0
 50123  1  0  0  0
 51 52  1  0  0  0
 51124  1  0  0  0
 51125  1  0  0  0
 52126  1  0  0  0
 52127  1  0  0  0
 53 54  1  0  0  0
 54 55  2  0  0  0
 54128  1  0  0  0
 55 57  1  0  0  0
 55129  1  0  0  0
 56 69  2  0  0  0
 57 58  2  0  0  0
 57130  1  0  0  0
 58131  1  0  0  0
 59 60  1  0  0  0
 59 61  1  0  0  0
 59 62  1  0  0  0
 60132  1  0  0  0
 60133  1  0  0  0
 60134  1  0  0  0
 61135  1  0  0  0
 61136  1  0  0  0
 61137  1  0  0  0
 62138  1  0  0  0
 62139  1  0  0  0
 62140  1  0  0  0
 63 65  1  0  0  0
 63141  1  0  0  0
 63142  1  0  0  0
 63143  1  0  0  0
 64144  1  0  0  0
 65145  1  0  0  0
 68 83  1  0  0  0
 71 72  2  0  0  0
 71 73  1  0  0  0
 71146  1  0  0  0
 72 74  1  0  0  0
 72147  1  0  0  0
 73 75  2  0  0  0
 73 76  1  0  0  0
 74 84  1  0  0  0
 74 85  2  0  0  0
 75 80  1  0  0  0
 75 85  1  0  0  0
 76148  1  0  0  0
 76149  1  0  0  0
 76150  1  0  0  0
 77151  1  0  0  0
 77152  1  0  0  0
 77153  1  0  0  0
 77 84  1  0  0  0
 78 84  1  0  0  0
 78154  1  0  0  0
 78155  1  0  0  0
 78156  1  0  0  0
 79 86  1  0  0  0
 79157  1  0  0  0
 79158  1  0  0  0
 79159  1  0  0  0
 80 86  1  0  0  0
 80160  1  0  0  0
 80161  1  0  0  0
 81 82  1  0  0  0
 81 83  1  0  0  0
 81162  1  0  0  0
 81163  1  0  0  0
 82 84  1  0  0  0
 82164  1  0  0  0
 82165  1  0  0  0
 83166  1  0  0  0
 83167  1  0  0  0
M  ISO  4   1 100  68 101  83 101  86 100
M  END
> <chiral flag>
0

> <version>
0

> <s_m_source_file>
/data/baiqing/PycharmProjects/Reinvent-master-3.2/result/LINK_invent/BTK/process_docking_weight1_custom_sum_contain_oxygen_bond_distance_aromatic_linkinvent_7_9_3/rearranged_h_0078.sdf

> <i_m_source_file_index>
87

> <r_mmod_Potential_Energy-OPLS-2005>
-119.393486022949

> <r_mmod_Stretch_Energy-OPLS-2005>
54.6350326538086

> <r_mmod_Bend_Energy-OPLS-2005>
132.829696655273

> <r_mmod_Torsional_Energy-OPLS-2005>
269.854736328125

> <r_mmod_Improper_Torsional_Energy-OPLS-2005>
5.01962757110596

> <r_mmod_Van_der_Waal_Energy-OPLS-2005>
152.007690429688

> <r_mmod_Electrostatic_Energy-OPLS-2005>
-563.457763671875

> <r_mmod_Solvation_Energy-OPLS-2005>
-192.031784057617

> <b_mmod_Minimization_Converged-OPLS-2005>
0

> <r_mmod_RMS_Derivative-OPLS-2005>
2.84352421760559

$$$$
87
                    3D
 Structure written by MMmdl.
156164  0  0  1  0            999 V2000
  -30.5894  -14.7349   20.4642 C   0  0  0  0  0  0
  -30.4412  -12.4520   19.4574 C   0  0  0  0  0  0
  -29.5140  -12.5182   18.2239 C   0  0  0  0  0  0
  -28.0368  -12.3463   18.6336 C   0  0  0  0  0  0
  -27.6447  -13.2288   19.8489 C   0  0  2  0  0  0
  -28.6910  -13.1355   20.9803 C   0  0  0  0  0  0
  -25.2533  -13.8185   20.5670 C   0  0  0  0  0  0
  -24.1819  -13.0437   20.9198 C   0  0  0  0  0  0
  -24.6415  -11.6916   20.8730 C   0  0  0  0  0  0
  -23.9090  -10.4299   21.0398 C   0  0  0  0  0  0
  -24.3636   -9.4220   21.9182 C   0  0  0  0  0  0
  -23.6304   -8.2256   22.0766 C   0  0  0  0  0  0
  -22.4283   -8.0297   21.3555 C   0  0  0  0  0  0
  -21.9915   -9.0268   20.4657 C   0  0  0  0  0  0
  -22.7254  -10.2144   20.3057 C   0  0  0  0  0  0
  -21.6864   -6.0741   22.5281 C   0  0  0  0  0  0
  -21.4018   -6.5630   23.8220 C   0  0  0  0  0  0
  -21.3659   -5.6787   24.9180 C   0  0  0  0  0  0
  -21.6041   -4.3051   24.7231 C   0  0  0  0  0  0
  -21.8822   -3.8145   23.4352 C   0  0  0  0  0  0
  -21.9200   -4.6963   22.3405 C   0  0  0  0  0  0
  -22.7841  -13.5225   21.1852 C   0  0  0  0  0  0
  -22.1665   -4.2142   21.0987 F   0  0  0  0  0  0
  -21.5633   -3.4534   25.7748 F   0  0  0  0  0  0
  -29.9893  -13.4996   20.3978 N   0  0  0  0  0  0
  -26.2961  -12.9385   20.3255 N   0  0  0  0  0  0
  -25.9346  -11.6533   20.5716 N   0  0  0  0  0  0
  -22.0482  -12.8213   22.0401 N   0  0  0  0  0  0
  -25.4208  -15.1908   20.4083 N   0  0  0  0  0  0
  -31.7818  -14.8657   20.1713 O   0  0  0  0  0  0
  -21.6663   -6.8885   21.4241 O   0  0  0  0  0  0
  -22.3525  -14.5531   20.6696 O   0  0  0  0  0  0
  -24.6322  -31.8558   23.1998 C   0  0  0  0  0  0
  -25.9137  -32.4771   23.8350 C   0  0  1  0  0  0
  -27.2119  -27.2510   20.1303 C   0  0  0  0  0  0
  -25.5926  -33.8576   24.2270 N   0  0  0  0  0  0
  -23.4297  -30.4792   21.5438 C   0  0  2  0  0  0
  -24.8748  -28.9264   20.1121 C   0  0  0  0  0  0
  -22.7491  -29.4607   22.4900 C   0  0  0  0  0  0
  -18.0296  -28.1381   22.8486 C   0  0  0  0  0  0
  -24.1480  -36.7275   23.2638 C   0  0  0  0  0  0
  -25.9784  -30.7622   21.3859 C   0  0  0  0  0  0
  -26.0478  -29.3851   20.7260 C   0  0  0  0  0  0
  -27.2194  -28.5597   20.7239 C   0  0  0  0  0  0
  -26.0213  -26.8703   19.4718 C   0  0  0  0  0  0
  -24.8681  -27.6782   19.4732 C   0  0  0  0  0  0
  -23.6476  -29.8158   20.1600 C   0  0  0  0  0  0
  -25.4113  -36.3078   24.0322 C   0  0  1  0  0  0
  -20.5895  -28.3700   23.1261 C   0  0  2  0  0  0
  -20.6777  -26.9410   22.5404 C   0  0  0  0  0  0
  -19.5752  -26.6374   21.5209 C   0  0  0  0  0  0
  -18.1934  -26.7932   22.1617 C   0  0  0  0  0  0
  -19.1544  -28.8859   23.2879 C   0  0  0  0  0  0
  -18.9460  -30.1450   23.8908 C   0  0  0  0  0  0
  -17.6457  -30.6592   24.0551 C   0  0  0  0  0  0
  -25.9053  -34.9446   23.5104 C   0  0  0  0  0  0
  -16.5350  -29.9077   23.6338 C   0  0  0  0  0  0
  -16.7275  -28.6486   23.0381 C   0  0  0  0  0  0
  -26.4495  -31.6623   25.0762 C   0  0  0  0  0  0
  -25.3698  -31.3771   26.1467 C   0  0  0  0  0  0
  -27.0371  -30.3040   24.6298 C   0  0  0  0  0  0
  -27.6044  -32.4375   25.7542 C   0  0  0  0  0  0
  -27.5583  -37.1789   24.8449 C   0  0  0  0  0  0
  -21.4198  -29.3051   22.3644 N   0  0  0  0  0  0
  -26.4283  -37.3781   23.9420 N   0  0  0  0  0  0
  -24.6997  -31.0493   22.0994 N   0  0  0  0  0  0
  -23.4177  -28.8137   23.3003 O   0  0  0  0  0  0
  -28.3041  -26.3527   20.1615 O   0  0  0  0  0  0
  -26.5606  -34.8912   22.4662 O   0  0  0  0  0  0
  -23.5466  -32.1384   23.7273 O   0  0  0  0  0  0
  -28.5977  -21.6065   21.5458 C   0  0  0  0  0  0
  -29.3691  -21.0818   19.6053 C   0  0  0  0  0  0
  -29.0299  -22.2293   20.3304 C   0  0  0  0  0  0
  -29.4557  -23.9512   18.4735 C   0  0  0  0  0  0
  -27.8650  -17.9227   19.5774 C   0  0  0  0  0  0
  -30.0575  -17.3272   20.8366 C   0  0  0  0  0  0
  -28.0584  -24.8791   20.4006 C   0  0  0  0  0  0
  -29.1745  -23.7885   19.9763 C   0  0  1  0  0  0
  -29.2789  -18.4183   19.9235 C   0  0  2  0  0  0
  -28.6844  -20.2627   21.5524 N   0  0  0  0  0  0
  -29.1926  -19.8904   20.3495 N   0  0  0  0  0  0
  -29.7689  -15.8304   20.6701 N   0  0  0  0  0  0
  -31.4808  -12.5918   19.1554 H   0  0  0  0  0  0
  -30.3925  -11.4687   19.9290 H   0  0  0  0  0  0
  -29.7931  -11.7553   17.4952 H   0  0  0  0  0  0
  -29.6463  -13.4789   17.7229 H   0  0  0  0  0  0
  -27.8794  -11.2933   18.8704 H   0  0  0  0  0  0
  -27.3880  -12.5664   17.7842 H   0  0  0  0  0  0
  -27.6403  -14.2561   19.4829 H   0  0  0  0  0  0
  -28.7294  -12.1268   21.3945 H   0  0  0  0  0  0
  -28.4280  -13.7956   21.8089 H   0  0  0  0  0  0
  -25.2787   -9.5670   22.4750 H   0  0  0  0  0  0
  -24.0004   -7.4643   22.7476 H   0  0  0  0  0  0
  -21.0856   -8.8781   19.8953 H   0  0  0  0  0  0
  -22.3723  -10.9674   19.6156 H   0  0  0  0  0  0
  -21.2010   -7.6139   23.9704 H   0  0  0  0  0  0
  -21.1471   -6.0533   25.9083 H   0  0  0  0  0  0
  -22.0601   -2.7603   23.2866 H   0  0  0  0  0  0
  -22.4108  -11.9883   22.4795 H   0  0  0  0  0  0
  -21.1094  -13.1225   22.2592 H   0  0  0  0  0  0
  -24.6475  -15.8379   20.5144 H   0  0  0  0  0  0
  -26.2565  -15.6307   20.0493 H   0  0  0  0  0  0
  -26.7206  -32.5416   23.1095 H   0  0  0  0  0  0
  -25.0108  -33.9730   25.0438 H   0  0  0  0  0  0
  -22.7273  -31.3033   21.3996 H   0  0  0  0  0  0
  -23.3781  -35.9565   23.3255 H   0  0  0  0  0  0
  -24.3580  -36.8951   22.2063 H   0  0  0  0  0  0
  -23.7180  -37.6436   23.6694 H   0  0  0  0  0  0
  -26.1253  -31.5246   20.6200 H   0  0  0  0  0  0
  -26.8519  -30.8053   22.0258 H   0  0  0  0  0  0
  -28.1187  -28.9025   21.2174 H   0  0  0  0  0  0
  -25.9557  -25.9335   18.9401 H   0  0  0  0  0  0
  -23.9751  -27.3313   18.9721 H   0  0  0  0  0  0
  -23.7713  -30.5951   19.4079 H   0  0  0  0  0  0
  -22.7651  -29.2504   19.8547 H   0  0  0  0  0  0
  -25.1301  -36.1929   25.0812 H   0  0  0  0  0  0
  -21.0000  -28.3286   24.1374 H   0  0  0  0  0  0
  -20.5697  -26.2296   23.3609 H   0  0  0  0  0  0
  -21.6645  -26.7441   22.1184 H   0  0  0  0  0  0
  -19.6917  -25.6281   21.1258 H   0  0  0  0  0  0
  -19.6716  -27.3169   20.6730 H   0  0  0  0  0  0
  -17.4207  -26.6684   21.4016 H   0  0  0  0  0  0
  -18.0334  -26.0079   22.9017 H   0  0  0  0  0  0
  -19.7928  -30.7260   24.2295 H   0  0  0  0  0  0
  -17.5008  -31.6288   24.5115 H   0  0  0  0  0  0
  -15.5349  -30.2973   23.7666 H   0  0  0  0  0  0
  -15.8670  -28.0787   22.7127 H   0  0  0  0  0  0
  -24.5849  -30.7173   25.7752 H   0  0  0  0  0  0
  -24.8922  -32.2944   26.4916 H   0  0  0  0  0  0
  -25.7977  -30.8896   27.0236 H   0  0  0  0  0  0
  -26.2991  -29.6780   24.1274 H   0  0  0  0  0  0
  -27.3979  -29.7327   25.4862 H   0  0  0  0  0  0
  -27.8889  -30.4325   23.9620 H   0  0  0  0  0  0
  -27.2652  -33.3678   26.2113 H   0  0  0  0  0  0
  -28.3850  -32.6945   25.0369 H   0  0  0  0  0  0
  -28.0719  -31.8518   26.5470 H   0  0  0  0  0  0
  -28.2549  -38.0134   24.7578 H   0  0  0  0  0  0
  -28.1131  -36.2675   24.6185 H   0  0  0  0  0  0
  -27.2305  -37.1313   25.8844 H   0  0  0  0  0  0
  -20.9362  -29.8764   21.6856 H   0  0  0  0  0  0
  -26.0163  -38.2842   24.1485 H   0  0  0  0  0  0
  -28.2372  -22.0941   22.4413 H   0  0  0  0  0  0
  -29.7353  -21.0077   18.5893 H   0  0  0  0  0  0
  -30.3554  -23.4113   18.1750 H   0  0  0  0  0  0
  -29.6132  -24.9988   18.2145 H   0  0  0  0  0  0
  -28.6218  -23.5869   17.8721 H   0  0  0  0  0  0
  -27.8966  -16.9733   19.0431 H   0  0  0  0  0  0
  -27.3480  -18.6340   18.9328 H   0  0  0  0  0  0
  -27.2584  -17.7899   20.4730 H   0  0  0  0  0  0
  -29.8226  -17.5500   21.8781 H   0  0  0  0  0  0
  -31.1312  -17.4953   20.7448 H   0  0  0  0  0  0
  -27.8909  -24.7789   21.4744 H   0  0  0  0  0  0
  -27.1269  -24.5510   19.9483 H   0  0  0  0  0  0
  -30.0760  -24.1320   20.4834 H   0  0  0  0  0  0
  -29.8189  -18.4332   18.9751 H   0  0  0  0  0  0
  -28.8026  -15.5812   20.8166 H   0  0  0  0  0  0
  1 25  1  0  0  0
  1 30  2  0  0  0
  1 82  1  0  0  0
  2  3  1  0  0  0
  2 25  1  0  0  0
  2 83  1  0  0  0
  2 84  1  0  0  0
  3  4  1  0  0  0
  3 85  1  0  0  0
  3 86  1  0  0  0
  4  5  1  0  0  0
  4 87  1  0  0  0
  4 88  1  0  0  0
  5  6  1  0  0  0
  5 26  1  0  0  0
  5 89  1  0  0  0
  6 25  1  0  0  0
  6 90  1  0  0  0
  6 91  1  0  0  0
  7  8  2  0  0  0
  7 26  1  0  0  0
  7 29  1  0  0  0
  8  9  1  0  0  0
  8 22  1  0  0  0
  9 10  1  0  0  0
  9 27  2  0  0  0
 10 11  2  0  0  0
 10 15  1  0  0  0
 11 12  1  0  0  0
 11 92  1  0  0  0
 12 13  2  0  0  0
 12 93  1  0  0  0
 13 14  1  0  0  0
 13 31  1  0  0  0
 14 15  2  0  0  0
 14 94  1  0  0  0
 15 95  1  0  0  0
 16 17  2  0  0  0
 16 21  1  0  0  0
 16 31  1  0  0  0
 17 18  1  0  0  0
 17 96  1  0  0  0
 18 19  2  0  0  0
 18 97  1  0  0  0
 19 20  1  0  0  0
 19 24  1  0  0  0
 20 21  2  0  0  0
 20 98  1  0  0  0
 21 23  1  0  0  0
 22 28  1  0  0  0
 22 32  2  0  0  0
 26 27  1  0  0  0
 28 99  1  0  0  0
 28100  1  0  0  0
 29101  1  0  0  0
 29102  1  0  0  0
 33 34  1  0  0  0
 33 66  1  0  0  0
 33 70  2  0  0  0
 34 36  1  0  0  0
 34 59  1  0  0  0
 34103  1  0  0  0
 35 44  2  0  0  0
 35 45  1  0  0  0
 35 68  1  0  0  0
 36 56  1  0  0  0
 36104  1  0  0  0
 37 39  1  0  0  0
 37 47  1  0  0  0
 37 66  1  0  0  0
 37105  1  0  0  0
 38 43  2  0  0  0
 38 46  1  0  0  0
 38 47  1  0  0  0
 39 64  1  0  0  0
 39 67  2  0  0  0
 40 52  1  0  0  0
 40 53  2  0  0  0
 40 58  1  0  0  0
 41106  1  0  0  0
 41107  1  0  0  0
 41108  1  0  0  0
 41 48  1  0  0  0
 42 43  1  0  0  0
 42 66  1  0  0  0
 42109  1  0  0  0
 42110  1  0  0  0
 43 44  1  0  0  0
 44111  1  0  0  0
 45 46  2  0  0  0
 45112  1  0  0  0
 46113  1  0  0  0
 47114  1  0  0  0
 47115  1  0  0  0
 48 56  1  0  0  0
 48 65  1  0  0  0
 48116  1  0  0  0
 49 50  1  0  0  0
 49 53  1  0  0  0
 49 64  1  0  0  0
 49117  1  0  0  0
 50 51  1  0  0  0
 50118  1  0  0  0
 50119  1  0  0  0
 51 52  1  0  0  0
 51120  1  0  0  0
 51121  1  0  0  0
 52122  1  0  0  0
 52123  1  0  0  0
 53 54  1  0  0  0
 54 55  2  0  0  0
 54124  1  0  0  0
 55 57  1  0  0  0
 55125  1  0  0  0
 56 69  2  0  0  0
 57 58  2  0  0  0
 57126  1  0  0  0
 58127  1  0  0  0
 59 60  1  0  0  0
 59 61  1  0  0  0
 59 62  1  0  0  0
 60128  1  0  0  0
 60129  1  0  0  0
 60130  1  0  0  0
 61131  1  0  0  0
 61132  1  0  0  0
 61133  1  0  0  0
 62134  1  0  0  0
 62135  1  0  0  0
 62136  1  0  0  0
 63 65  1  0  0  0
 63137  1  0  0  0
 63138  1  0  0  0
 63139  1  0  0  0
 64140  1  0  0  0
 65141  1  0  0  0
 68 77  1  0  0  0
 71 73  1  0  0  0
 71 80  2  0  0  0
 71142  1  0  0  0
 72 73  2  0  0  0
 72 81  1  0  0  0
 72143  1  0  0  0
 73 78  1  0  0  0
 74144  1  0  0  0
 74145  1  0  0  0
 74146  1  0  0  0
 74 78  1  0  0  0
 75147  1  0  0  0
 75148  1  0  0  0
 75149  1  0  0  0
 75 79  1  0  0  0
 76 79  1  0  0  0
 76 82  1  0  0  0
 76150  1  0  0  0
 76151  1  0  0  0
 77 78  1  0  0  0
 77152  1  0  0  0
 77153  1  0  0  0
 78154  1  0  0  0
 79 81  1  0  0  0
 79155  1  0  0  0
 80 81  1  0  0  0
 82156  1  0  0  0
M  ISO  4   1 100  68 101  77 101  82 100
M  END
> <chiral flag>
0

> <version>
0

> <s_m_source_file>
/data/baiqing/PycharmProjects/Reinvent-master-3.2/result/LINK_invent/BTK/process_docking_weight1_custom_sum_contain_oxygen_bond_distance_aromatic_linkinvent_7_9_3/rearranged_h_0078.sdf

> <i_m_source_file_index>
88

> <r_mmod_Potential_Energy-OPLS-2005>
116.915382385254

> <r_mmod_Stretch_Energy-OPLS-2005>
120.692451477051

> <r_mmod_Bend_Energy-OPLS-2005>
164.538757324219

> <r_mmod_Torsional_Energy-OPLS-2005>
241.946365356445

> <r_mmod_Improper_Torsional_Energy-OPLS-2005>
5.51406908035278

> <r_mmod_Van_der_Waal_Energy-OPLS-2005>
112.020401000977

> <r_mmod_Electrostatic_Energy-OPLS-2005>
-395.151947021484

> <r_mmod_Solvation_Energy-OPLS-2005>
-218.51025390625

> <b_mmod_Minimization_Converged-OPLS-2005>
0

> <r_mmod_RMS_Derivative-OPLS-2005>
2.01419615745544

$$$$
88
                    3D
 Structure written by MMmdl.
172180  0  0  1  0            999 V2000
  -30.6876  -14.4845   20.5502 C   0  0  0  0  0  0
  -30.4308  -12.3032   19.4297 C   0  0  0  0  0  0
  -29.5062  -12.5029   18.2104 C   0  0  0  0  0  0
  -28.0226  -12.3708   18.6134 C   0  0  0  0  0  0
  -27.6659  -13.2051   19.8739 C   0  0  2  0  0  0
  -28.7067  -12.9851   20.9966 C   0  0  0  0  0  0
  -25.2636  -13.8179   20.5691 C   0  0  0  0  0  0
  -24.1871  -13.0464   20.9170 C   0  0  0  0  0  0
  -24.6397  -11.6917   20.8707 C   0  0  0  0  0  0
  -23.9043  -10.4309   21.0392 C   0  0  0  0  0  0
  -24.3596   -9.4222   21.9171 C   0  0  0  0  0  0
  -23.6280   -8.2255   22.0751 C   0  0  0  0  0  0
  -22.4257   -8.0287   21.3547 C   0  0  0  0  0  0
  -21.9885   -9.0253   20.4647 C   0  0  0  0  0  0
  -22.7212  -10.2138   20.3046 C   0  0  0  0  0  0
  -21.6858   -6.0726   22.5278 C   0  0  0  0  0  0
  -21.4016   -6.5631   23.8208 C   0  0  0  0  0  0
  -21.3667   -5.6787   24.9169 C   0  0  0  0  0  0
  -21.6043   -4.3054   24.7221 C   0  0  0  0  0  0
  -21.8821   -3.8142   23.4346 C   0  0  0  0  0  0
  -21.9195   -4.6955   22.3402 C   0  0  0  0  0  0
  -22.7894  -13.5270   21.1812 C   0  0  0  0  0  0
  -22.1664   -4.2141   21.0976 F   0  0  0  0  0  0
  -21.5619   -3.4536   25.7732 F   0  0  0  0  0  0
  -30.0392  -13.2905   20.4471 N   0  0  0  0  0  0
  -26.3049  -12.9331   20.3338 N   0  0  0  0  0  0
  -25.9321  -11.6487   20.5711 N   0  0  0  0  0  0
  -22.0498  -12.8301   22.0367 N   0  0  0  0  0  0
  -25.4389  -15.1899   20.4124 N   0  0  0  0  0  0
  -31.8113  -14.6864   20.0838 O   0  0  0  0  0  0
  -21.6642   -6.8868   21.4232 O   0  0  0  0  0  0
  -22.3585  -14.5555   20.6618 O   0  0  0  0  0  0
  -24.6163  -31.8673   23.2103 C   0  0  0  0  0  0
  -25.9046  -32.4821   23.8406 C   0  0  1  0  0  0
  -27.2361  -27.4295   20.0737 C   0  0  0  0  0  0
  -25.5905  -33.8627   24.2335 N   0  0  0  0  0  0
  -23.4028  -30.4926   21.5523 C   0  0  2  0  0  0
  -24.8465  -28.9583   20.1141 C   0  0  0  0  0  0
  -22.7414  -29.4658   22.4986 C   0  0  0  0  0  0
  -18.0271  -28.1379   22.8494 C   0  0  0  0  0  0
  -24.1484  -36.7313   23.2640 C   0  0  0  0  0  0
  -25.9334  -30.8283   21.3659 C   0  0  0  0  0  0
  -26.0080  -29.4630   20.7104 C   0  0  0  0  0  0
  -27.2005  -28.7015   20.6950 C   0  0  0  0  0  0
  -26.0426  -26.9274   19.5036 C   0  0  0  0  0  0
  -24.8572  -27.6873   19.5153 C   0  0  0  0  0  0
  -23.6111  -29.8288   20.1652 C   0  0  0  0  0  0
  -25.4106  -36.3115   24.0343 C   0  0  1  0  0  0
  -20.5862  -28.3666   23.1322 C   0  0  2  0  0  0
  -20.6761  -26.9401   22.5423 C   0  0  0  0  0  0
  -19.5743  -26.6382   21.5217 C   0  0  0  0  0  0
  -18.1914  -26.7925   22.1621 C   0  0  0  0  0  0
  -19.1515  -28.8839   23.2903 C   0  0  0  0  0  0
  -18.9446  -30.1443   23.8912 C   0  0  0  0  0  0
  -17.6448  -30.6586   24.0569 C   0  0  0  0  0  0
  -25.9037  -34.9477   23.5133 C   0  0  0  0  0  0
  -16.5338  -29.9092   23.6324 C   0  0  0  0  0  0
  -16.7258  -28.6509   23.0342 C   0  0  0  0  0  0
  -26.4473  -31.6608   25.0740 C   0  0  0  0  0  0
  -25.3742  -31.3718   26.1495 C   0  0  0  0  0  0
  -27.0309  -30.3052   24.6119 C   0  0  0  0  0  0
  -27.6041  -32.4335   25.7503 C   0  0  0  0  0  0
  -27.5579  -37.1813   24.8462 C   0  0  0  0  0  0
  -21.4134  -29.3032   22.3731 N   0  0  0  0  0  0
  -26.4294  -37.3799   23.9407 N   0  0  0  0  0  0
  -24.6693  -31.0776   22.1011 N   0  0  0  0  0  0
  -23.4182  -28.8190   23.3027 O   0  0  0  0  0  0
  -28.4153  -26.7055   20.0914 O   0  0  0  0  0  0
  -26.5587  -34.8926   22.4685 O   0  0  0  0  0  0
  -23.5349  -32.1430   23.7498 O   0  0  0  0  0  0
  -26.4837  -21.2848   20.9820 C   0  0  0  0  0  0
  -27.8446  -21.1148   20.9388 C   0  0  0  0  0  0
  -26.9776  -19.6109   22.3426 C   0  0  0  0  0  0
  -26.2879  -20.2295   25.3800 C   0  0  0  0  0  0
  -30.1779  -17.3646   23.3534 C   0  0  0  0  0  0
  -28.8650  -22.0025   20.2680 C   0  0  0  0  0  0
  -26.7557  -18.6021   23.4384 C   0  0  0  0  0  0
  -25.7749  -19.0480   24.5405 C   0  0  0  0  0  0
  -28.2999  -23.4296   19.9890 C   0  0  0  0  0  0
  -29.3306  -24.4625   19.4850 C   0  0  0  0  0  0
  -29.4454  -19.3020   21.8447 C   0  0  0  0  0  0
  -30.1814  -16.9419   20.8839 C   0  0  0  0  0  0
  -28.7262  -25.8102   19.0099 C   0  0  0  0  0  0
  -29.4897  -17.7367   22.0228 C   0  0  1  0  0  0
  -28.1079  -19.9595   21.6757 N   0  0  0  0  0  0
  -25.9910  -20.3585   21.8446 N   0  3  0  0  0  0
  -29.9371  -15.4929   21.0287 N   0  0  0  0  0  0
  -31.4762  -12.4033   19.1351 H   0  0  0  0  0  0
  -30.3295  -11.2926   19.8292 H   0  0  0  0  0  0
  -29.7495  -11.7734   17.4364 H   0  0  0  0  0  0
  -29.6844  -13.4864   17.7728 H   0  0  0  0  0  0
  -27.8217  -11.3156   18.8021 H   0  0  0  0  0  0
  -27.3844  -12.6593   17.7756 H   0  0  0  0  0  0
  -27.7095  -14.2525   19.5762 H   0  0  0  0  0  0
  -28.6823  -11.9503   21.3419 H   0  0  0  0  0  0
  -28.4680  -13.5858   21.8758 H   0  0  0  0  0  0
  -25.2731   -9.5723   22.4749 H   0  0  0  0  0  0
  -23.9998   -7.4658   22.7479 H   0  0  0  0  0  0
  -21.0817   -8.8765   19.8960 H   0  0  0  0  0  0
  -22.3652  -10.9671   19.6164 H   0  0  0  0  0  0
  -21.2012   -7.6141   23.9709 H   0  0  0  0  0  0
  -21.1482   -6.0514   25.9073 H   0  0  0  0  0  0
  -22.0591   -2.7603   23.2840 H   0  0  0  0  0  0
  -22.4059  -11.9993   22.4825 H   0  0  0  0  0  0
  -21.1102  -13.1350   22.2473 H   0  0  0  0  0  0
  -24.6639  -15.8392   20.4992 H   0  0  0  0  0  0
  -26.2765  -15.6212   20.0439 H   0  0  0  0  0  0
  -26.7111  -32.5525   23.1164 H   0  0  0  0  0  0
  -25.0092  -33.9797   25.0505 H   0  0  0  0  0  0
  -22.6922  -31.3104   21.4173 H   0  0  0  0  0  0
  -23.3744  -35.9644   23.3311 H   0  0  0  0  0  0
  -24.3578  -36.8914   22.2050 H   0  0  0  0  0  0
  -23.7236  -37.6524   23.6644 H   0  0  0  0  0  0
  -26.0503  -31.5956   20.5997 H   0  0  0  0  0  0
  -26.8205  -30.8780   21.9855 H   0  0  0  0  0  0
  -28.0990  -29.0882   21.1563 H   0  0  0  0  0  0
  -25.9936  -25.9394   19.0712 H   0  0  0  0  0  0
  -23.9578  -27.2832   19.0725 H   0  0  0  0  0  0
  -23.7217  -30.6066   19.4089 H   0  0  0  0  0  0
  -22.7321  -29.2550   19.8671 H   0  0  0  0  0  0
  -25.1279  -36.1983   25.0838 H   0  0  0  0  0  0
  -20.9960  -28.3232   24.1441 H   0  0  0  0  0  0
  -20.5667  -26.2270   23.3608 H   0  0  0  0  0  0
  -21.6633  -26.7446   22.1221 H   0  0  0  0  0  0
  -19.6902  -25.6295   21.1242 H   0  0  0  0  0  0
  -19.6686  -27.3198   20.6751 H   0  0  0  0  0  0
  -17.4193  -26.6678   21.4015 H   0  0  0  0  0  0
  -18.0302  -26.0068   22.9014 H   0  0  0  0  0  0
  -19.7924  -30.7249   24.2294 H   0  0  0  0  0  0
  -17.5009  -31.6269   24.5164 H   0  0  0  0  0  0
  -15.5342  -30.3000   23.7645 H   0  0  0  0  0  0
  -15.8655  -28.0842   22.7045 H   0  0  0  0  0  0
  -24.5899  -30.7081   25.7837 H   0  0  0  0  0  0
  -24.8957  -32.2881   26.4965 H   0  0  0  0  0  0
  -25.8104  -30.8872   27.0240 H   0  0  0  0  0  0
  -26.2860  -29.6819   24.1158 H   0  0  0  0  0  0
  -27.4063  -29.7283   25.4581 H   0  0  0  0  0  0
  -27.8701  -30.4373   23.9285 H   0  0  0  0  0  0
  -27.2649  -33.3622   26.2106 H   0  0  0  0  0  0
  -28.3841  -32.6921   25.0330 H   0  0  0  0  0  0
  -28.0723  -31.8452   26.5406 H   0  0  0  0  0  0
  -28.2601  -38.0106   24.7512 H   0  0  0  0  0  0
  -28.1070  -36.2638   24.6284 H   0  0  0  0  0  0
  -27.2298  -37.1466   25.8866 H   0  0  0  0  0  0
  -20.9282  -29.8780   21.6982 H   0  0  0  0  0  0
  -26.0181  -38.2877   24.1403 H   0  0  0  0  0  0
  -25.8477  -22.0259   20.5185 H   0  0  0  0  0  0
  -25.5492  -20.5263   26.1251 H   0  0  0  0  0  0
  -26.5047  -21.1054   24.7683 H   0  0  0  0  0  0
  -27.1995  -19.9643   25.9154 H   0  0  0  0  0  0
  -29.7970  -17.9315   24.2021 H   0  0  0  0  0  0
  -31.2499  -17.5591   23.3036 H   0  0  0  0  0  0
  -30.0517  -16.3080   23.5906 H   0  0  0  0  0  0
  -29.1869  -21.5353   19.3368 H   0  0  0  0  0  0
  -29.7437  -22.0743   20.9087 H   0  0  0  0  0  0
  -27.7120  -18.3991   23.9064 H   0  0  0  0  0  0
  -26.4058  -17.6855   22.9624 H   0  0  0  0  0  0
  -24.8019  -19.2896   24.1141 H   0  0  0  0  0  0
  -25.5998  -18.2024   25.2064 H   0  0  0  0  0  0
  -27.8482  -23.8298   20.8993 H   0  0  0  0  0  0
  -27.4956  -23.3547   19.2556 H   0  0  0  0  0  0
  -29.8595  -24.0189   18.6392 H   0  0  0  0  0  0
  -30.0903  -24.6470   20.2456 H   0  0  0  0  0  0
  -30.0529  -19.5776   20.9831 H   0  0  0  0  0  0
  -29.9130  -19.7954   22.6975 H   0  0  0  0  0  0
  -31.2530  -17.1526   20.8702 H   0  0  0  0  0  0
  -29.7915  -17.2613   19.9157 H   0  0  0  0  0  0
  -27.9126  -25.6248   18.3119 H   0  0  0  0  0  0
  -29.4789  -26.3246   18.4127 H   0  0  0  0  0  0
  -28.4734  -17.3539   22.0418 H   0  0  0  0  0  0
  -25.0181  -20.2913   22.1167 H   0  0  0  0  0  0
  -29.0365  -15.2281   21.3948 H   0  0  0  0  0  0
  1 25  1  0  0  0
  1 30  2  0  0  0
  1 87  1  0  0  0
  2  3  1  0  0  0
  2 25  1  0  0  0
  2 88  1  0  0  0
  2 89  1  0  0  0
  3  4  1  0  0  0
  3 90  1  0  0  0
  3 91  1  0  0  0
  4  5  1  0  0  0
  4 92  1  0  0  0
  4 93  1  0  0  0
  5  6  1  0  0  0
  5 26  1  0  0  0
  5 94  1  0  0  0
  6 25  1  0  0  0
  6 95  1  0  0  0
  6 96  1  0  0  0
  7  8  2  0  0  0
  7 26  1  0  0  0
  7 29  1  0  0  0
  8  9  1  0  0  0
  8 22  1  0  0  0
  9 10  1  0  0  0
  9 27  2  0  0  0
 10 11  2  0  0  0
 10 15  1  0  0  0
 11 12  1  0  0  0
 11 97  1  0  0  0
 12 13  2  0  0  0
 12 98  1  0  0  0
 13 14  1  0  0  0
 13 31  1  0  0  0
 14 15  2  0  0  0
 14 99  1  0  0  0
 15100  1  0  0  0
 16 17  2  0  0  0
 16 21  1  0  0  0
 16 31  1  0  0  0
 17 18  1  0  0  0
 17101  1  0  0  0
 18 19  2  0  0  0
 18102  1  0  0  0
 19 20  1  0  0  0
 19 24  1  0  0  0
 20 21  2  0  0  0
 20103  1  0  0  0
 21 23  1  0  0  0
 22 28  1  0  0  0
 22 32  2  0  0  0
 26 27  1  0  0  0
 28104  1  0  0  0
 28105  1  0  0  0
 29106  1  0  0  0
 29107  1  0  0  0
 33 34  1  0  0  0
 33 66  1  0  0  0
 33 70  2  0  0  0
 34 36  1  0  0  0
 34 59  1  0  0  0
 34108  1  0  0  0
 35 44  2  0  0  0
 35 45  1  0  0  0
 35 68  1  0  0  0
 36 56  1  0  0  0
 36109  1  0  0  0
 37 39  1  0  0  0
 37 47  1  0  0  0
 37 66  1  0  0  0
 37110  1  0  0  0
 38 43  2  0  0  0
 38 46  1  0  0  0
 38 47  1  0  0  0
 39 64  1  0  0  0
 39 67  2  0  0  0
 40 52  1  0  0  0
 40 53  2  0  0  0
 40 58  1  0  0  0
 41111  1  0  0  0
 41112  1  0  0  0
 41113  1  0  0  0
 41 48  1  0  0  0
 42 43  1  0  0  0
 42 66  1  0  0  0
 42114  1  0  0  0
 42115  1  0  0  0
 43 44  1  0  0  0
 44116  1  0  0  0
 45 46  2  0  0  0
 45117  1  0  0  0
 46118  1  0  0  0
 47119  1  0  0  0
 47120  1  0  0  0
 48 56  1  0  0  0
 48 65  1  0  0  0
 48121  1  0  0  0
 49 50  1  0  0  0
 49 53  1  0  0  0
 49 64  1  0  0  0
 49122  1  0  0  0
 50 51  1  0  0  0
 50123  1  0  0  0
 50124  1  0  0  0
 51 52  1  0  0  0
 51125  1  0  0  0
 51126  1  0  0  0
 52127  1  0  0  0
 52128  1  0  0  0
 53 54  1  0  0  0
 54 55  2  0  0  0
 54129  1  0  0  0
 55 57  1  0  0  0
 55130  1  0  0  0
 56 69  2  0  0  0
 57 58  2  0  0  0
 57131  1  0  0  0
 58132  1  0  0  0
 59 60  1  0  0  0
 59 61  1  0  0  0
 59 62  1  0  0  0
 60133  1  0  0  0
 60134  1  0  0  0
 60135  1  0  0  0
 61136  1  0  0  0
 61137  1  0  0  0
 61138  1  0  0  0
 62139  1  0  0  0
 62140  1  0  0  0
 62141  1  0  0  0
 63 65  1  0  0  0
 63142  1  0  0  0
 63143  1  0  0  0
 63144  1  0  0  0
 64145  1  0  0  0
 65146  1  0  0  0
 68 83  1  0  0  0
 71 72  2  0  0  0
 71 86  1  0  0  0
 71147  1  0  0  0
 72 76  1  0  0  0
 72 85  1  0  0  0
 73 77  1  0  0  0
 73 85  1  0  0  0
 73 86  2  0  0  0
 74 78  1  0  0  0
 74148  1  0  0  0
 74149  1  0  0  0
 74150  1  0  0  0
 75151  1  0  0  0
 75152  1  0  0  0
 75153  1  0  0  0
 75 84  1  0  0  0
 76 79  1  0  0  0
 76154  1  0  0  0
 76155  1  0  0  0
 77 78  1  0  0  0
 77156  1  0  0  0
 77157  1  0  0  0
 78158  1  0  0  0
 78159  1  0  0  0
 79 80  1  0  0  0
 79160  1  0  0  0
 79161  1  0  0  0
 80 83  1  0  0  0
 80162  1  0  0  0
 80163  1  0  0  0
 81 84  1  0  0  0
 81 85  1  0  0  0
 81164  1  0  0  0
 81165  1  0  0  0
 82 84  1  0  0  0
 82 87  1  0  0  0
 82166  1  0  0  0
 82167  1  0  0  0
 83168  1  0  0  0
 83169  1  0  0  0
 84170  1  0  0  0
 86171  1  0  0  0
 87172  1  0  0  0
M  CHG  1  86   1
M  ISO  4   1 100  68 101  83 101  87 100
M  END
> <chiral flag>
0

> <version>
0

> <s_m_source_file>
/data/baiqing/PycharmProjects/Reinvent-master-3.2/result/LINK_invent/BTK/process_docking_weight1_custom_sum_contain_oxygen_bond_distance_aromatic_linkinvent_7_9_3/rearranged_h_0078.sdf

> <i_m_source_file_index>
89

> <r_mmod_Potential_Energy-OPLS-2005>
-70.6681289672852

> <r_mmod_Stretch_Energy-OPLS-2005>
44.3763847351074

> <r_mmod_Bend_Energy-OPLS-2005>
114.818641662598

> <r_mmod_Torsional_Energy-OPLS-2005>
254.260284423828

> <r_mmod_Improper_Torsional_Energy-OPLS-2005>
5.58416843414307

> <r_mmod_Van_der_Waal_Energy-OPLS-2005>
130.172302246094

> <r_mmod_Electrostatic_Energy-OPLS-2005>
-217.666946411133

> <r_mmod_Solvation_Energy-OPLS-2005>
-416.035034179688

> <b_mmod_Minimization_Converged-OPLS-2005>
0

> <r_mmod_RMS_Derivative-OPLS-2005>
2.28713464736938

$$$$
89
                    3D
 Structure written by MMmdl.
160168  0  0  1  0            999 V2000
  -30.6826  -14.5597   20.4834 C   0  0  0  0  0  0
  -30.4246  -12.3331   19.4604 C   0  0  0  0  0  0
  -29.5050  -12.4827   18.2285 C   0  0  0  0  0  0
  -28.0264  -12.3384   18.6367 C   0  0  0  0  0  0
  -27.6548  -13.2126   19.8648 C   0  0  2  0  0  0
  -28.7002  -13.0714   20.9989 C   0  0  0  0  0  0
  -25.2552  -13.8179   20.5711 C   0  0  0  0  0  0
  -24.1826  -13.0450   20.9206 C   0  0  0  0  0  0
  -24.6380  -11.6905   20.8747 C   0  0  0  0  0  0
  -23.9045  -10.4298   21.0402 C   0  0  0  0  0  0
  -24.3604   -9.4217   21.9185 C   0  0  0  0  0  0
  -23.6284   -8.2245   22.0748 C   0  0  0  0  0  0
  -22.4269   -8.0281   21.3530 C   0  0  0  0  0  0
  -21.9907   -9.0253   20.4639 C   0  0  0  0  0  0
  -22.7223  -10.2135   20.3057 C   0  0  0  0  0  0
  -21.6858   -6.0734   22.5281 C   0  0  0  0  0  0
  -21.4004   -6.5640   23.8215 C   0  0  0  0  0  0
  -21.3659   -5.6789   24.9179 C   0  0  0  0  0  0
  -21.6054   -4.3053   24.7222 C   0  0  0  0  0  0
  -21.8816   -3.8148   23.4344 C   0  0  0  0  0  0
  -21.9192   -4.6963   22.3404 C   0  0  0  0  0  0
  -22.7850  -13.5222   21.1858 C   0  0  0  0  0  0
  -22.1665   -4.2148   21.0980 F   0  0  0  0  0  0
  -21.5631   -3.4542   25.7737 F   0  0  0  0  0  0
  -30.0266  -13.3637   20.4366 N   0  0  0  0  0  0
  -26.2982  -12.9348   20.3338 N   0  0  0  0  0  0
  -25.9307  -11.6506   20.5777 N   0  0  0  0  0  0
  -22.0474  -12.8234   22.0415 N   0  0  0  0  0  0
  -25.4274  -15.1890   20.4094 N   0  0  0  0  0  0
  -31.8499  -14.6778   20.1060 O   0  0  0  0  0  0
  -21.6639   -6.8873   21.4237 O   0  0  0  0  0  0
  -22.3542  -14.5550   20.6721 O   0  0  0  0  0  0
  -24.6230  -31.8629   23.2054 C   0  0  0  0  0  0
  -25.9083  -32.4792   23.8398 C   0  0  1  0  0  0
  -27.2364  -27.3740   20.1038 C   0  0  0  0  0  0
  -25.5890  -33.8593   24.2302 N   0  0  0  0  0  0
  -23.4132  -30.4896   21.5464 C   0  0  2  0  0  0
  -24.8606  -28.9491   20.1146 C   0  0  0  0  0  0
  -22.7460  -29.4647   22.4934 C   0  0  0  0  0  0
  -18.0285  -28.1377   22.8480 C   0  0  0  0  0  0
  -24.1481  -36.7291   23.2645 C   0  0  0  0  0  0
  -25.9511  -30.8065   21.3767 C   0  0  0  0  0  0
  -26.0242  -29.4406   20.7148 C   0  0  0  0  0  0
  -27.2129  -28.6640   20.7039 C   0  0  0  0  0  0
  -26.0516  -26.9233   19.4750 C   0  0  0  0  0  0
  -24.8739  -27.6916   19.4874 C   0  0  0  0  0  0
  -23.6253  -29.8243   20.1627 C   0  0  0  0  0  0
  -25.4105  -36.3088   24.0344 C   0  0  1  0  0  0
  -20.5884  -28.3685   23.1279 C   0  0  2  0  0  0
  -20.6760  -26.9412   22.5411 C   0  0  0  0  0  0
  -19.5741  -26.6376   21.5204 C   0  0  0  0  0  0
  -18.1921  -26.7913   22.1615 C   0  0  0  0  0  0
  -19.1538  -28.8846   23.2875 C   0  0  0  0  0  0
  -18.9450  -30.1441   23.8894 C   0  0  0  0  0  0
  -17.6461  -30.6581   24.0564 C   0  0  0  0  0  0
  -25.9043  -34.9456   23.5135 C   0  0  0  0  0  0
  -16.5352  -29.9080   23.6330 C   0  0  0  0  0  0
  -16.7263  -28.6502   23.0354 C   0  0  0  0  0  0
  -26.4491  -31.6588   25.0761 C   0  0  0  0  0  0
  -25.3740  -31.3693   26.1494 C   0  0  0  0  0  0
  -27.0359  -30.3029   24.6212 C   0  0  0  0  0  0
  -27.6068  -32.4336   25.7482 C   0  0  0  0  0  0
  -27.5583  -37.1807   24.8470 C   0  0  0  0  0  0
  -21.4181  -29.3036   22.3665 N   0  0  0  0  0  0
  -26.4297  -37.3780   23.9412 N   0  0  0  0  0  0
  -24.6793  -31.0707   22.0969 N   0  0  0  0  0  0
  -23.4218  -28.8220   23.3017 O   0  0  0  0  0  0
  -28.3843  -26.5811   20.1600 O   0  0  0  0  0  0
  -26.5630  -34.8911   22.4716 O   0  0  0  0  0  0
  -23.5407  -32.1379   23.7422 O   0  0  0  0  0  0
  -29.7870  -19.5305   20.3166 C   0  0  0  0  0  0
  -30.1659  -18.2327   20.6406 C   0  0  0  0  0  0
  -30.9092  -19.6411   22.2122 C   0  0  0  0  0  0
  -31.5993  -20.1180   23.4495 C   0  0  0  0  0  0
  -28.8944  -17.0026   18.8712 C   0  0  0  0  0  0
  -29.2685  -22.6994   20.4485 C   0  0  0  0  0  0
  -29.3373  -24.2605   20.6684 C   0  0  0  0  0  0
  -30.2342  -21.8837   21.3760 C   0  0  0  0  0  0
  -28.2484  -25.1397   19.9601 C   0  0  0  0  0  0
  -30.0467  -16.9139   19.8851 C   0  0  2  0  0  0
  -30.2685  -20.3839   21.2878 N   0  0  0  0  0  0
  -30.8428  -18.3587   21.8236 N   0  3  0  0  0  0
  -29.9096  -15.6580   20.6733 N   0  0  0  0  0  0
  -31.4723  -12.4194   19.1638 H   0  0  0  0  0  0
  -30.3247  -11.3415   19.8988 H   0  0  0  0  0  0
  -29.7586  -11.7326   17.4775 H   0  0  0  0  0  0
  -29.6681  -13.4543   17.7586 H   0  0  0  0  0  0
  -27.8516  -11.2874   18.8693 H   0  0  0  0  0  0
  -27.3760  -12.5725   17.7940 H   0  0  0  0  0  0
  -27.6732  -14.2458   19.5200 H   0  0  0  0  0  0
  -28.6871  -12.0612   21.4081 H   0  0  0  0  0  0
  -28.4662  -13.7366   21.8323 H   0  0  0  0  0  0
  -25.2735   -9.5714   22.4765 H   0  0  0  0  0  0
  -24.0012   -7.4637   22.7470 H   0  0  0  0  0  0
  -21.0839   -8.8747   19.8939 H   0  0  0  0  0  0
  -22.3656  -10.9672   19.6169 H   0  0  0  0  0  0
  -21.1988   -7.6143   23.9716 H   0  0  0  0  0  0
  -21.1489   -6.0520   25.9081 H   0  0  0  0  0  0
  -22.0597   -2.7606   23.2844 H   0  0  0  0  0  0
  -22.4071  -11.9888   22.4814 H   0  0  0  0  0  0
  -21.1084  -13.1255   22.2594 H   0  0  0  0  0  0
  -24.6567  -15.8407   20.5130 H   0  0  0  0  0  0
  -26.2684  -15.6263   20.0560 H   0  0  0  0  0  0
  -26.7158  -32.5478   23.1153 H   0  0  0  0  0  0
  -25.0019  -33.9733   25.0430 H   0  0  0  0  0  0
  -22.7046  -31.3089   21.4101 H   0  0  0  0  0  0
  -23.3755  -35.9621   23.3319 H   0  0  0  0  0  0
  -24.3569  -36.8898   22.2060 H   0  0  0  0  0  0
  -23.7226  -37.6498   23.6645 H   0  0  0  0  0  0
  -26.0971  -31.5760   20.6195 H   0  0  0  0  0  0
  -26.8252  -30.8392   22.0136 H   0  0  0  0  0  0
  -28.1061  -29.0421   21.1837 H   0  0  0  0  0  0
  -26.0129  -25.9699   18.9699 H   0  0  0  0  0  0
  -23.9836  -27.3088   19.0072 H   0  0  0  0  0  0
  -23.7408  -30.6014   19.4081 H   0  0  0  0  0  0
  -22.7460  -29.2536   19.8610 H   0  0  0  0  0  0
  -25.1283  -36.1974   25.0848 H   0  0  0  0  0  0
  -20.9968  -28.3262   24.1405 H   0  0  0  0  0  0
  -20.5630  -26.2313   23.3614 H   0  0  0  0  0  0
  -21.6636  -26.7415   22.1232 H   0  0  0  0  0  0
  -19.6909  -25.6283   21.1231 H   0  0  0  0  0  0
  -19.6678  -27.3187   20.6734 H   0  0  0  0  0  0
  -17.4191  -26.6660   21.4020 H   0  0  0  0  0  0
  -18.0340  -26.0058   22.9016 H   0  0  0  0  0  0
  -19.7943  -30.7258   24.2274 H   0  0  0  0  0  0
  -17.5015  -31.6263   24.5169 H   0  0  0  0  0  0
  -15.5349  -30.2987   23.7635 H   0  0  0  0  0  0
  -15.8665  -28.0800   22.7077 H   0  0  0  0  0  0
  -24.5897  -30.7070   25.7793 H   0  0  0  0  0  0
  -24.8948  -32.2846   26.4985 H   0  0  0  0  0  0
  -25.8076  -30.8803   27.0235 H   0  0  0  0  0  0
  -26.2932  -29.6732   24.1299 H   0  0  0  0  0  0
  -27.4146  -29.7329   25.4713 H   0  0  0  0  0  0
  -27.8761  -30.4336   23.9389 H   0  0  0  0  0  0
  -27.2699  -33.3634   26.2080 H   0  0  0  0  0  0
  -28.3829  -32.6918   25.0256 H   0  0  0  0  0  0
  -28.0808  -31.8475   26.5362 H   0  0  0  0  0  0
  -28.2618  -38.0084   24.7509 H   0  0  0  0  0  0
  -28.1060  -36.2630   24.6301 H   0  0  0  0  0  0
  -27.2305  -37.1464   25.8871 H   0  0  0  0  0  0
  -20.9355  -29.8758   21.6869 H   0  0  0  0  0  0
  -26.0192  -38.2880   24.1382 H   0  0  0  0  0  0
  -29.2490  -19.9066   19.4567 H   0  0  0  0  0  0
  -32.1119  -19.2780   23.9212 H   0  0  0  0  0  0
  -30.8490  -20.5143   24.1317 H   0  0  0  0  0  0
  -32.3204  -20.8895   23.1826 H   0  0  0  0  0  0
  -29.0582  -17.8103   18.1598 H   0  0  0  0  0  0
  -27.9456  -17.1925   19.3700 H   0  0  0  0  0  0
  -28.7961  -16.0841   18.2935 H   0  0  0  0  0  0
  -29.4958  -22.4776   19.4049 H   0  0  0  0  0  0
  -28.2469  -22.3596   20.6209 H   0  0  0  0  0  0
  -29.2581  -24.4503   21.7398 H   0  0  0  0  0  0
  -30.3277  -24.6144   20.3763 H   0  0  0  0  0  0
  -29.9968  -22.1294   22.4138 H   0  0  0  0  0  0
  -31.2581  -22.2228   21.2089 H   0  0  0  0  0  0
  -28.2421  -24.9453   18.8849 H   0  0  0  0  0  0
  -27.2889  -24.7923   20.3441 H   0  0  0  0  0  0
  -30.9599  -16.8457   19.2895 H   0  0  0  0  0  0
  -31.2710  -17.5907   22.3263 H   0  0  0  0  0  0
  -28.9854  -15.4782   21.0311 H   0  0  0  0  0  0
  1 25  1  0  0  0
  1 30  2  0  0  0
  1 83  1  0  0  0
  2  3  1  0  0  0
  2 25  1  0  0  0
  2 84  1  0  0  0
  2 85  1  0  0  0
  3  4  1  0  0  0
  3 86  1  0  0  0
  3 87  1  0  0  0
  4  5  1  0  0  0
  4 88  1  0  0  0
  4 89  1  0  0  0
  5  6  1  0  0  0
  5 26  1  0  0  0
  5 90  1  0  0  0
  6 25  1  0  0  0
  6 91  1  0  0  0
  6 92  1  0  0  0
  7  8  2  0  0  0
  7 26  1  0  0  0
  7 29  1  0  0  0
  8  9  1  0  0  0
  8 22  1  0  0  0
  9 10  1  0  0  0
  9 27  2  0  0  0
 10 11  2  0  0  0
 10 15  1  0  0  0
 11 12  1  0  0  0
 11 93  1  0  0  0
 12 13  2  0  0  0
 12 94  1  0  0  0
 13 14  1  0  0  0
 13 31  1  0  0  0
 14 15  2  0  0  0
 14 95  1  0  0  0
 15 96  1  0  0  0
 16 17  2  0  0  0
 16 21  1  0  0  0
 16 31  1  0  0  0
 17 18  1  0  0  0
 17 97  1  0  0  0
 18 19  2  0  0  0
 18 98  1  0  0  0
 19 20  1  0  0  0
 19 24  1  0  0  0
 20 21  2  0  0  0
 20 99  1  0  0  0
 21 23  1  0  0  0
 22 28  1  0  0  0
 22 32  2  0  0  0
 26 27  1  0  0  0
 28100  1  0  0  0
 28101  1  0  0  0
 29102  1  0  0  0
 29103  1  0  0  0
 33 34  1  0  0  0
 33 66  1  0  0  0
 33 70  2  0  0  0
 34 36  1  0  0  0
 34 59  1  0  0  0
 34104  1  0  0  0
 35 44  2  0  0  0
 35 45  1  0  0  0
 35 68  1  0  0  0
 36 56  1  0  0  0
 36105  1  0  0  0
 37 39  1  0  0  0
 37 47  1  0  0  0
 37 66  1  0  0  0
 37106  1  0  0  0
 38 43  2  0  0  0
 38 46  1  0  0  0
 38 47  1  0  0  0
 39 64  1  0  0  0
 39 67  2  0  0  0
 40 52  1  0  0  0
 40 53  2  0  0  0
 40 58  1  0  0  0
 41107  1  0  0  0
 41108  1  0  0  0
 41109  1  0  0  0
 41 48  1  0  0  0
 42 43  1  0  0  0
 42 66  1  0  0  0
 42110  1  0  0  0
 42111  1  0  0  0
 43 44  1  0  0  0
 44112  1  0  0  0
 45 46  2  0  0  0
 45113  1  0  0  0
 46114  1  0  0  0
 47115  1  0  0  0
 47116  1  0  0  0
 48 56  1  0  0  0
 48 65  1  0  0  0
 48117  1  0  0  0
 49 50  1  0  0  0
 49 53  1  0  0  0
 49 64  1  0  0  0
 49118  1  0  0  0
 50 51  1  0  0  0
 50119  1  0  0  0
 50120  1  0  0  0
 51 52  1  0  0  0
 51121  1  0  0  0
 51122  1  0  0  0
 52123  1  0  0  0
 52124  1  0  0  0
 53 54  1  0  0  0
 54 55  2  0  0  0
 54125  1  0  0  0
 55 57  1  0  0  0
 55126  1  0  0  0
 56 69  2  0  0  0
 57 58  2  0  0  0
 57127  1  0  0  0
 58128  1  0  0  0
 59 60  1  0  0  0
 59 61  1  0  0  0
 59 62  1  0  0  0
 60129  1  0  0  0
 60130  1  0  0  0
 60131  1  0  0  0
 61132  1  0  0  0
 61133  1  0  0  0
 61134  1  0  0  0
 62135  1  0  0  0
 62136  1  0  0  0
 62137  1  0  0  0
 63 65  1  0  0  0
 63138  1  0  0  0
 63139  1  0  0  0
 63140  1  0  0  0
 64141  1  0  0  0
 65142  1  0  0  0
 68 79  1  0  0  0
 71 72  2  0  0  0
 71 81  1  0  0  0
 71143  1  0  0  0
 72 80  1  0  0  0
 72 82  1  0  0  0
 73 74  1  0  0  0
 73 81  1  0  0  0
 73 82  2  0  0  0
 74144  1  0  0  0
 74145  1  0  0  0
 74146  1  0  0  0
 75147  1  0  0  0
 75148  1  0  0  0
 75149  1  0  0  0
 75 80  1  0  0  0
 76 77  1  0  0  0
 76 78  1  0  0  0
 76150  1  0  0  0
 76151  1  0  0  0
 77 79  1  0  0  0
 77152  1  0  0  0
 77153  1  0  0  0
 78 81  1  0  0  0
 78154  1  0  0  0
 78155  1  0  0  0
 79156  1  0  0  0
 79157  1  0  0  0
 80 83  1  0  0  0
 80158  1  0  0  0
 82159  1  0  0  0
 83160  1  0  0  0
M  CHG  1  82   1
M  ISO  4   1 100  68 101  79 101  83 100
M  END
> <chiral flag>
0

> <version>
0

> <s_m_source_file>
/data/baiqing/PycharmProjects/Reinvent-master-3.2/result/LINK_invent/BTK/process_docking_weight1_custom_sum_contain_oxygen_bond_distance_aromatic_linkinvent_7_9_3/rearranged_h_0078.sdf

> <i_m_source_file_index>
90

> <r_mmod_Potential_Energy-OPLS-2005>
-172.194702148438

> <r_mmod_Stretch_Energy-OPLS-2005>
52.2531356811523

> <r_mmod_Bend_Energy-OPLS-2005>
113.548301696777

> <r_mmod_Torsional_Energy-OPLS-2005>
224.288558959961

> <r_mmod_Improper_Torsional_Energy-OPLS-2005>
9.84309101104736

> <r_mmod_Van_der_Waal_Energy-OPLS-2005>
123.439193725586

> <r_mmod_Electrostatic_Energy-OPLS-2005>
-309.857147216797

> <r_mmod_Solvation_Energy-OPLS-2005>
-415.675201416016

> <b_mmod_Minimization_Converged-OPLS-2005>
0

> <r_mmod_RMS_Derivative-OPLS-2005>
3.71273970603943

$$$$
90
                    3D
 Structure written by MMmdl.
169177  0  0  1  0            999 V2000
  -30.7484  -14.4173   20.5685 C   0  0  0  0  0  0
  -30.4009  -12.2732   19.4293 C   0  0  0  0  0  0
  -29.4884  -12.4956   18.2085 C   0  0  0  0  0  0
  -28.0089  -12.3680   18.6176 C   0  0  0  0  0  0
  -27.6574  -13.2131   19.8732 C   0  0  2  0  0  0
  -28.6966  -13.0102   21.0001 C   0  0  0  0  0  0
  -25.2554  -13.8178   20.5672 C   0  0  0  0  0  0
  -24.1820  -13.0442   20.9181 C   0  0  0  0  0  0
  -24.6383  -11.6915   20.8736 C   0  0  0  0  0  0
  -23.9050  -10.4299   21.0402 C   0  0  0  0  0  0
  -24.3614   -9.4217   21.9175 C   0  0  0  0  0  0
  -23.6298   -8.2246   22.0754 C   0  0  0  0  0  0
  -22.4278   -8.0278   21.3544 C   0  0  0  0  0  0
  -21.9904   -9.0244   20.4640 C   0  0  0  0  0  0
  -22.7225  -10.2130   20.3051 C   0  0  0  0  0  0
  -21.6851   -6.0737   22.5279 C   0  0  0  0  0  0
  -21.4009   -6.5638   23.8210 C   0  0  0  0  0  0
  -21.3666   -5.6792   24.9174 C   0  0  0  0  0  0
  -21.6049   -4.3056   24.7220 C   0  0  0  0  0  0
  -21.8820   -3.8148   23.4341 C   0  0  0  0  0  0
  -21.9193   -4.6964   22.3401 C   0  0  0  0  0  0
  -22.7843  -13.5231   21.1842 C   0  0  0  0  0  0
  -22.1658   -4.2150   21.0977 F   0  0  0  0  0  0
  -21.5637   -3.4541   25.7732 F   0  0  0  0  0  0
  -30.0315  -13.2724   20.4440 N   0  0  0  0  0  0
  -26.2998  -12.9366   20.3363 N   0  0  0  0  0  0
  -25.9311  -11.6516   20.5775 N   0  0  0  0  0  0
  -22.0485  -12.8230   22.0407 N   0  0  0  0  0  0
  -25.4244  -15.1898   20.4070 N   0  0  0  0  0  0
  -31.8858  -14.5382   20.1068 O   0  0  0  0  0  0
  -21.6642   -6.8878   21.4240 O   0  0  0  0  0  0
  -22.3521  -14.5530   20.6683 O   0  0  0  0  0  0
  -24.6118  -31.8707   23.2129 C   0  0  0  0  0  0
  -25.9027  -32.4836   23.8409 C   0  0  1  0  0  0
  -27.2297  -27.4560   20.0866 C   0  0  0  0  0  0
  -25.5895  -33.8634   24.2341 N   0  0  0  0  0  0
  -23.3969  -30.4962   21.5534 C   0  0  2  0  0  0
  -24.8394  -28.9662   20.1144 C   0  0  0  0  0  0
  -22.7389  -29.4675   22.5006 C   0  0  0  0  0  0
  -18.0266  -28.1376   22.8496 C   0  0  0  0  0  0
  -24.1488  -36.7323   23.2638 C   0  0  0  0  0  0
  -25.9235  -30.8415   21.3632 C   0  0  0  0  0  0
  -25.9975  -29.4772   20.7118 C   0  0  0  0  0  0
  -27.1914  -28.7261   20.7010 C   0  0  0  0  0  0
  -26.0492  -26.9532   19.4873 C   0  0  0  0  0  0
  -24.8587  -27.7015   19.5030 C   0  0  0  0  0  0
  -23.6019  -29.8313   20.1662 C   0  0  0  0  0  0
  -25.4107  -36.3121   24.0341 C   0  0  1  0  0  0
  -20.5854  -28.3656   23.1330 C   0  0  2  0  0  0
  -20.6760  -26.9398   22.5420 C   0  0  0  0  0  0
  -19.5739  -26.6386   21.5215 C   0  0  0  0  0  0
  -18.1915  -26.7924   22.1625 C   0  0  0  0  0  0
  -19.1514  -28.8832   23.2911 C   0  0  0  0  0  0
  -18.9445  -30.1438   23.8921 C   0  0  0  0  0  0
  -17.6449  -30.6584   24.0565 C   0  0  0  0  0  0
  -25.9032  -34.9484   23.5136 C   0  0  0  0  0  0
  -16.5339  -29.9090   23.6324 C   0  0  0  0  0  0
  -16.7255  -28.6504   23.0346 C   0  0  0  0  0  0
  -26.4463  -31.6608   25.0727 C   0  0  0  0  0  0
  -25.3737  -31.3703   26.1481 C   0  0  0  0  0  0
  -27.0291  -30.3057   24.6084 C   0  0  0  0  0  0
  -27.6048  -32.4318   25.7481 C   0  0  0  0  0  0
  -27.5582  -37.1816   24.8464 C   0  0  0  0  0  0
  -21.4121  -29.3031   22.3743 N   0  0  0  0  0  0
  -26.4297  -37.3801   23.9406 N   0  0  0  0  0  0
  -24.6624  -31.0832   22.1017 N   0  0  0  0  0  0
  -23.4178  -28.8215   23.3034 O   0  0  0  0  0  0
  -28.4220  -26.7665   20.1053 O   0  0  0  0  0  0
  -26.5592  -34.8929   22.4695 O   0  0  0  0  0  0
  -23.5322  -32.1451   23.7543 O   0  0  0  0  0  0
  -28.2205  -22.4005   18.0861 C   0  0  0  0  0  0
  -27.6566  -21.1199   18.0712 C   0  0  0  0  0  0
  -29.4408  -22.5396   18.7555 C   0  0  0  0  0  0
  -29.4238  -20.2987   19.2948 C   0  0  0  0  0  0
  -26.3360  -20.8437   17.3860 C   0  0  0  0  0  0
  -31.7301  -19.4967   20.0705 C   0  0  0  0  0  0
  -29.4986  -18.7066   22.1608 C   0  0  0  0  0  0
  -28.2650  -17.5237   20.3493 C   0  0  0  0  0  0
  -30.2548  -23.8206   18.6804 C   0  0  0  0  0  0
  -29.8733  -24.8986   19.7038 C   0  0  0  0  0  0
  -30.6579  -16.8469   20.8910 C   0  0  0  0  0  0
  -28.4865  -25.5015   19.4573 C   0  0  0  0  0  0
  -30.2695  -19.0736   19.7262 C   0  0  1  0  0  0
  -29.6597  -18.0475   20.7753 C   0  0  0  0  0  0
  -28.2887  -20.0744   18.6343 N   0  0  0  0  0  0
  -29.9942  -21.5015   19.4061 N   0  0  0  0  0  0
  -30.1033  -15.4920   21.0552 N   0  0  0  0  0  0
  -31.4501  -12.3322   19.1323 H   0  0  0  0  0  0
  -30.2655  -11.2676   19.8301 H   0  0  0  0  0  0
  -29.7246  -11.7731   17.4262 H   0  0  0  0  0  0
  -29.6695  -13.4835   17.7822 H   0  0  0  0  0  0
  -27.8128  -11.3128   18.8129 H   0  0  0  0  0  0
  -27.3623  -12.6461   17.7847 H   0  0  0  0  0  0
  -27.6981  -14.2598   19.5706 H   0  0  0  0  0  0
  -28.6556  -11.9866   21.3756 H   0  0  0  0  0  0
  -28.4719  -13.6495   21.8552 H   0  0  0  0  0  0
  -25.2760   -9.5704   22.4743 H   0  0  0  0  0  0
  -24.0017   -7.4641   22.7473 H   0  0  0  0  0  0
  -21.0835   -8.8752   19.8948 H   0  0  0  0  0  0
  -22.3674  -10.9664   19.6162 H   0  0  0  0  0  0
  -21.1993   -7.6143   23.9714 H   0  0  0  0  0  0
  -21.1492   -6.0520   25.9078 H   0  0  0  0  0  0
  -22.0597   -2.7607   23.2836 H   0  0  0  0  0  0
  -22.4106  -11.9896   22.4804 H   0  0  0  0  0  0
  -21.1099  -13.1254   22.2606 H   0  0  0  0  0  0
  -24.6562  -15.8428   20.5170 H   0  0  0  0  0  0
  -26.2737  -15.6306   20.0793 H   0  0  0  0  0  0
  -26.7098  -32.5552   23.1177 H   0  0  0  0  0  0
  -25.0051  -33.9801   25.0490 H   0  0  0  0  0  0
  -22.6843  -31.3125   21.4183 H   0  0  0  0  0  0
  -23.3744  -35.9663   23.3314 H   0  0  0  0  0  0
  -24.3581  -36.8921   22.2048 H   0  0  0  0  0  0
  -23.7248  -37.6537   23.6638 H   0  0  0  0  0  0
  -26.0326  -31.6074   20.5942 H   0  0  0  0  0  0
  -26.8135  -30.8947   21.9785 H   0  0  0  0  0  0
  -28.0867  -29.1187   21.1627 H   0  0  0  0  0  0
  -26.0210  -25.9889   19.0021 H   0  0  0  0  0  0
  -23.9671  -27.3022   19.0389 H   0  0  0  0  0  0
  -23.7076  -30.6075   19.4073 H   0  0  0  0  0  0
  -22.7260  -29.2506   19.8717 H   0  0  0  0  0  0
  -25.1284  -36.1992   25.0835 H   0  0  0  0  0  0
  -20.9944  -28.3217   24.1451 H   0  0  0  0  0  0
  -20.5669  -26.2262   23.3601 H   0  0  0  0  0  0
  -21.6631  -26.7451   22.1206 H   0  0  0  0  0  0
  -19.6900  -25.6303   21.1231 H   0  0  0  0  0  0
  -19.6682  -27.3210   20.6755 H   0  0  0  0  0  0
  -17.4188  -26.6674   21.4023 H   0  0  0  0  0  0
  -18.0314  -26.0060   22.9015 H   0  0  0  0  0  0
  -19.7922  -30.7244   24.2304 H   0  0  0  0  0  0
  -17.5006  -31.6269   24.5160 H   0  0  0  0  0  0
  -15.5340  -30.3000   23.7637 H   0  0  0  0  0  0
  -15.8654  -28.0833   22.7051 H   0  0  0  0  0  0
  -24.5902  -30.7062   25.7811 H   0  0  0  0  0  0
  -24.8939  -32.2857   26.4954 H   0  0  0  0  0  0
  -25.8096  -30.8848   27.0222 H   0  0  0  0  0  0
  -26.2830  -29.6822   24.1145 H   0  0  0  0  0  0
  -27.4079  -29.7285   25.4527 H   0  0  0  0  0  0
  -27.8653  -30.4383   23.9216 H   0  0  0  0  0  0
  -27.2674  -33.3600   26.2105 H   0  0  0  0  0  0
  -28.3832  -32.6908   25.0291 H   0  0  0  0  0  0
  -28.0748  -31.8416   26.5358 H   0  0  0  0  0  0
  -28.2609  -38.0105   24.7508 H   0  0  0  0  0  0
  -28.1070  -36.2638   24.6294 H   0  0  0  0  0  0
  -27.2299  -37.1472   25.8867 H   0  0  0  0  0  0
  -20.9273  -29.8760   21.6978 H   0  0  0  0  0  0
  -26.0191  -38.2883   24.1399 H   0  0  0  0  0  0
  -27.7533  -23.2313   17.5729 H   0  0  0  0  0  0
  -26.2218  -21.4701   16.5016 H   0  0  0  0  0  0
  -25.5097  -21.0577   18.0633 H   0  0  0  0  0  0
  -26.2594  -19.8024   17.0727 H   0  0  0  0  0  0
  -32.1795  -20.0364   19.2366 H   0  0  0  0  0  0
  -32.3984  -18.6648   20.2767 H   0  0  0  0  0  0
  -31.7613  -20.1561   20.9375 H   0  0  0  0  0  0
  -29.0973  -18.0024   22.8902 H   0  0  0  0  0  0
  -28.8168  -19.5565   22.1194 H   0  0  0  0  0  0
  -30.4483  -19.0712   22.5540 H   0  0  0  0  0  0
  -27.8742  -16.7858   21.0493 H   0  0  0  0  0  0
  -28.2919  -17.0694   19.3585 H   0  0  0  0  0  0
  -27.5213  -18.3191   20.3292 H   0  0  0  0  0  0
  -30.1782  -24.2252   17.6704 H   0  0  0  0  0  0
  -31.3085  -23.5706   18.8112 H   0  0  0  0  0  0
  -30.6144  -25.6951   19.6335 H   0  0  0  0  0  0
  -29.9427  -24.5052   20.7182 H   0  0  0  0  0  0
  -31.3865  -17.0187   21.6854 H   0  0  0  0  0  0
  -31.2400  -16.8291   19.9687 H   0  0  0  0  0  0
  -27.7255  -24.8194   19.8388 H   0  0  0  0  0  0
  -28.3172  -25.6410   18.3882 H   0  0  0  0  0  0
  -30.3570  -18.5135   18.7938 H   0  0  0  0  0  0
  -29.1622  -15.3836   21.3999 H   0  0  0  0  0  0
  1 25  1  0  0  0
  1 30  2  0  0  0
  1 87  1  0  0  0
  2  3  1  0  0  0
  2 25  1  0  0  0
  2 88  1  0  0  0
  2 89  1  0  0  0
  3  4  1  0  0  0
  3 90  1  0  0  0
  3 91  1  0  0  0
  4  5  1  0  0  0
  4 92  1  0  0  0
  4 93  1  0  0  0
  5  6  1  0  0  0
  5 26  1  0  0  0
  5 94  1  0  0  0
  6 25  1  0  0  0
  6 95  1  0  0  0
  6 96  1  0  0  0
  7  8  2  0  0  0
  7 26  1  0  0  0
  7 29  1  0  0  0
  8  9  1  0  0  0
  8 22  1  0  0  0
  9 10  1  0  0  0
  9 27  2  0  0  0
 10 11  2  0  0  0
 10 15  1  0  0  0
 11 12  1  0  0  0
 11 97  1  0  0  0
 12 13  2  0  0  0
 12 98  1  0  0  0
 13 14  1  0  0  0
 13 31  1  0  0  0
 14 15  2  0  0  0
 14 99  1  0  0  0
 15100  1  0  0  0
 16 17  2  0  0  0
 16 21  1  0  0  0
 16 31  1  0  0  0
 17 18  1  0  0  0
 17101  1  0  0  0
 18 19  2  0  0  0
 18102  1  0  0  0
 19 20  1  0  0  0
 19 24  1  0  0  0
 20 21  2  0  0  0
 20103  1  0  0  0
 21 23  1  0  0  0
 22 28  1  0  0  0
 22 32  2  0  0  0
 26 27  1  0  0  0
 28104  1  0  0  0
 28105  1  0  0  0
 29106  1  0  0  0
 29107  1  0  0  0
 33 34  1  0  0  0
 33 66  1  0  0  0
 33 70  2  0  0  0
 34 36  1  0  0  0
 34 59  1  0  0  0
 34108  1  0  0  0
 35 44  2  0  0  0
 35 45  1  0  0  0
 35 68  1  0  0  0
 36 56  1  0  0  0
 36109  1  0  0  0
 37 39  1  0  0  0
 37 47  1  0  0  0
 37 66  1  0  0  0
 37110  1  0  0  0
 38 43  2  0  0  0
 38 46  1  0  0  0
 38 47  1  0  0  0
 39 64  1  0  0  0
 39 67  2  0  0  0
 40 52  1  0  0  0
 40 53  2  0  0  0
 40 58  1  0  0  0
 41111  1  0  0  0
 41112  1  0  0  0
 41113  1  0  0  0
 41 48  1  0  0  0
 42 43  1  0  0  0
 42 66  1  0  0  0
 42114  1  0  0  0
 42115  1  0  0  0
 43 44  1  0  0  0
 44116  1  0  0  0
 45 46  2  0  0  0
 45117  1  0  0  0
 46118  1  0  0  0
 47119  1  0  0  0
 47120  1  0  0  0
 48 56  1  0  0  0
 48 65  1  0  0  0
 48121  1  0  0  0
 49 50  1  0  0  0
 49 53  1  0  0  0
 49 64  1  0  0  0
 49122  1  0  0  0
 50 51  1  0  0  0
 50123  1  0  0  0
 50124  1  0  0  0
 51 52  1  0  0  0
 51125  1  0  0  0
 51126  1  0  0  0
 52127  1  0  0  0
 52128  1  0  0  0
 53 54  1  0  0  0
 54 55  2  0  0  0
 54129  1  0  0  0
 55 57  1  0  0  0
 55130  1  0  0  0
 56 69  2  0  0  0
 57 58  2  0  0  0
 57131  1  0  0  0
 58132  1  0  0  0
 59 60  1  0  0  0
 59 61  1  0  0  0
 59 62  1  0  0  0
 60133  1  0  0  0
 60134  1  0  0  0
 60135  1  0  0  0
 61136  1  0  0  0
 61137  1  0  0  0
 61138  1  0  0  0
 62139  1  0  0  0
 62140  1  0  0  0
 62141  1  0  0  0
 63 65  1  0  0  0
 63142  1  0  0  0
 63143  1  0  0  0
 63144  1  0  0  0
 64145  1  0  0  0
 65146  1  0  0  0
 68 82  1  0  0  0
 71 72  2  0  0  0
 71 73  1  0  0  0
 71147  1  0  0  0
 72 75  1  0  0  0
 72 85  1  0  0  0
 73 79  1  0  0  0
 73 86  2  0  0  0
 74 83  1  0  0  0
 74 85  2  0  0  0
 74 86  1  0  0  0
 75148  1  0  0  0
 75149  1  0  0  0
 75150  1  0  0  0
 76151  1  0  0  0
 76152  1  0  0  0
 76153  1  0  0  0
 76 83  1  0  0  0
 77154  1  0  0  0
 77155  1  0  0  0
 77156  1  0  0  0
 77 84  1  0  0  0
 78 84  1  0  0  0
 78157  1  0  0  0
 78158  1  0  0  0
 78159  1  0  0  0
 79 80  1  0  0  0
 79160  1  0  0  0
 79161  1  0  0  0
 80 82  1  0  0  0
 80162  1  0  0  0
 80163  1  0  0  0
 81 84  1  0  0  0
 81 87  1  0  0  0
 81164  1  0  0  0
 81165  1  0  0  0
 82166  1  0  0  0
 82167  1  0  0  0
 83 84  1  0  0  0
 83168  1  0  0  0
 87169  1  0  0  0
M  ISO  4   1 100  68 101  82 101  87 100
M  END
> <chiral flag>
0

> <version>
0

> <s_m_source_file>
/data/baiqing/PycharmProjects/Reinvent-master-3.2/result/LINK_invent/BTK/process_docking_weight1_custom_sum_contain_oxygen_bond_distance_aromatic_linkinvent_7_9_3/rearranged_h_0078.sdf

> <i_m_source_file_index>
91

> <r_mmod_Potential_Energy-OPLS-2005>
-452.075958251953

> <r_mmod_Stretch_Energy-OPLS-2005>
39.7463989257812

> <r_mmod_Bend_Energy-OPLS-2005>
119.312042236328

> <r_mmod_Torsional_Energy-OPLS-2005>
226.366806030273

> <r_mmod_Improper_Torsional_Energy-OPLS-2005>
5.9108738899231

> <r_mmod_Van_der_Waal_Energy-OPLS-2005>
185.685607910156

> <r_mmod_Electrostatic_Energy-OPLS-2005>
-823.554992675781

> <r_mmod_Solvation_Energy-OPLS-2005>
-218.701721191406

> <b_mmod_Minimization_Converged-OPLS-2005>
0

> <r_mmod_RMS_Derivative-OPLS-2005>
0.918059468269348

$$$$
91
                    3D
 Structure written by MMmdl.
163171  0  0  1  0            999 V2000
  -30.6881  -14.5356   20.5425 C   0  0  0  0  0  0
  -30.4149  -12.3454   19.4089 C   0  0  0  0  0  0
  -29.4771  -12.5032   18.1949 C   0  0  0  0  0  0
  -28.0107  -12.3292   18.6272 C   0  0  0  0  0  0
  -27.6505  -13.2004   19.8588 C   0  0  2  0  0  0
  -28.6989  -13.0382   20.9810 C   0  0  0  0  0  0
  -25.2562  -13.8133   20.5678 C   0  0  0  0  0  0
  -24.1820  -13.0420   20.9184 C   0  0  0  0  0  0
  -24.6372  -11.6886   20.8756 C   0  0  0  0  0  0
  -23.9042  -10.4277   21.0433 C   0  0  0  0  0  0
  -24.3594   -9.4194   21.9217 C   0  0  0  0  0  0
  -23.6274   -8.2227   22.0775 C   0  0  0  0  0  0
  -22.4263   -8.0262   21.3555 C   0  0  0  0  0  0
  -21.9907   -9.0234   20.4648 C   0  0  0  0  0  0
  -22.7232  -10.2113   20.3069 C   0  0  0  0  0  0
  -21.6839   -6.0732   22.5285 C   0  0  0  0  0  0
  -21.3996   -6.5631   23.8212 C   0  0  0  0  0  0
  -21.3659   -5.6802   24.9183 C   0  0  0  0  0  0
  -21.6048   -4.3065   24.7235 C   0  0  0  0  0  0
  -21.8816   -3.8145   23.4358 C   0  0  0  0  0  0
  -21.9182   -4.6962   22.3417 C   0  0  0  0  0  0
  -22.7844  -13.5233   21.1829 C   0  0  0  0  0  0
  -22.1655   -4.2146   21.0992 F   0  0  0  0  0  0
  -21.5643   -3.4550   25.7757 F   0  0  0  0  0  0
  -30.0191  -13.3522   20.4140 N   0  0  0  0  0  0
  -26.2980  -12.9286   20.3343 N   0  0  0  0  0  0
  -25.9291  -11.6464   20.5780 N   0  0  0  0  0  0
  -22.0452  -12.8222   22.0355 N   0  0  0  0  0  0
  -25.4269  -15.1845   20.4055 N   0  0  0  0  0  0
  -31.8192  -14.7047   20.0758 O   0  0  0  0  0  0
  -21.6627   -6.8865   21.4248 O   0  0  0  0  0  0
  -22.3559  -14.5558   20.6690 O   0  0  0  0  0  0
  -24.6199  -31.8591   23.2020 C   0  0  0  0  0  0
  -25.9067  -32.4757   23.8319 C   0  0  1  0  0  0
  -27.2261  -27.3770   20.1251 C   0  0  0  0  0  0
  -25.5904  -33.8556   24.2254 N   0  0  0  0  0  0
  -23.4070  -30.4784   21.5453 C   0  0  2  0  0  0
  -24.8546  -28.9346   20.1175 C   0  0  0  0  0  0
  -22.7435  -29.4564   22.4969 C   0  0  0  0  0  0
  -18.0256  -28.1351   22.8467 C   0  0  0  0  0  0
  -24.1468  -36.7272   23.2634 C   0  0  0  0  0  0
  -25.9377  -30.8187   21.3496 C   0  0  0  0  0  0
  -26.0179  -29.4431   20.7096 C   0  0  0  0  0  0
  -27.2114  -28.6750   20.6984 C   0  0  0  0  0  0
  -26.0469  -26.8915   19.5277 C   0  0  0  0  0  0
  -24.8668  -27.6615   19.5198 C   0  0  0  0  0  0
  -23.6169  -29.8039   20.1633 C   0  0  0  0  0  0
  -25.4091  -36.3056   24.0316 C   0  0  1  0  0  0
  -20.5844  -28.3620   23.1312 C   0  0  2  0  0  0
  -20.6749  -26.9341   22.5409 C   0  0  0  0  0  0
  -19.5739  -26.6345   21.5194 C   0  0  0  0  0  0
  -18.1907  -26.7876   22.1601 C   0  0  0  0  0  0
  -19.1507  -28.8811   23.2873 C   0  0  0  0  0  0
  -18.9443  -30.1428   23.8867 C   0  0  0  0  0  0
  -17.6455  -30.6567   24.0541 C   0  0  0  0  0  0
  -25.9047  -34.9424   23.5080 C   0  0  0  0  0  0
  -16.5341  -29.9048   23.6350 C   0  0  0  0  0  0
  -16.7244  -28.6476   23.0346 C   0  0  0  0  0  0
  -26.4506  -31.6547   25.0659 C   0  0  0  0  0  0
  -25.3765  -31.3548   26.1381 C   0  0  0  0  0  0
  -27.0419  -30.3040   24.5973 C   0  0  0  0  0  0
  -27.6051  -32.4258   25.7479 C   0  0  0  0  0  0
  -27.5529  -37.1799   24.8463 C   0  0  0  0  0  0
  -21.4150  -29.2989   22.3749 N   0  0  0  0  0  0
  -26.4254  -37.3777   23.9413 N   0  0  0  0  0  0
  -24.6737  -31.0672   22.0916 N   0  0  0  0  0  0
  -23.4202  -28.8064   23.2990 O   0  0  0  0  0  0
  -28.3773  -26.6069   20.0963 O   0  0  0  0  0  0
  -26.5634  -34.8912   22.4656 O   0  0  0  0  0  0
  -23.5380  -32.1328   23.7432 O   0  0  0  0  0  0
  -31.0941  -18.8682   19.1149 C   0  0  0  0  0  0
  -29.9489  -19.1170   19.8338 C   0  0  0  0  0  0
  -30.4610  -20.9307   18.6143 C   0  0  0  0  0  0
  -30.4129  -22.2377   17.8887 C   0  0  0  0  0  0
  -30.4548  -15.9935   22.4484 C   0  0  0  0  0  0
  -29.2123  -18.1266   20.7269 C   0  0  0  0  0  0
  -28.8104  -22.7151   20.6865 C   0  0  0  0  0  0
  -28.1917  -24.0132   20.0309 C   0  0  0  0  0  0
  -28.4714  -21.3103   20.0381 C   0  0  0  0  0  0
  -29.3169  -16.6057   20.2752 C   0  0  0  0  0  0
  -28.3844  -25.3526   20.8339 C   0  0  0  0  0  0
  -29.6178  -20.4597   19.5582 N   0  0  0  0  0  0
  -31.3675  -19.9813   18.3808 N   0  3  0  0  0  0
  -30.0160  -15.5798   21.1156 N   0  0  0  0  0  0
  -31.4566  -12.4457   19.0980 H   0  0  0  0  0  0
  -30.3247  -11.3412   19.8269 H   0  0  0  0  0  0
  -29.7243  -11.7743   17.4226 H   0  0  0  0  0  0
  -29.6093  -13.4858   17.7415 H   0  0  0  0  0  0
  -27.8610  -11.2755   18.8659 H   0  0  0  0  0  0
  -27.3368  -12.5466   17.7972 H   0  0  0  0  0  0
  -27.6714  -14.2304   19.5102 H   0  0  0  0  0  0
  -28.6955  -12.0154   21.3594 H   0  0  0  0  0  0
  -28.4568  -13.6738   21.8333 H   0  0  0  0  0  0
  -25.2731   -9.5673   22.4814 H   0  0  0  0  0  0
  -23.9975   -7.4624   22.7515 H   0  0  0  0  0  0
  -21.0851   -8.8743   19.8953 H   0  0  0  0  0  0
  -22.3705  -10.9648   19.6172 H   0  0  0  0  0  0
  -21.1966   -7.6148   23.9717 H   0  0  0  0  0  0
  -21.1496   -6.0537   25.9086 H   0  0  0  0  0  0
  -22.0591   -2.7615   23.2870 H   0  0  0  0  0  0
  -22.4031  -11.9841   22.4705 H   0  0  0  0  0  0
  -21.1060  -13.1253   22.2523 H   0  0  0  0  0  0
  -24.6568  -15.8361   20.5084 H   0  0  0  0  0  0
  -26.2780  -15.6251   20.0827 H   0  0  0  0  0  0
  -26.7122  -32.5489   23.1072 H   0  0  0  0  0  0
  -25.0100  -33.9702   25.0438 H   0  0  0  0  0  0
  -22.6941  -31.2927   21.3974 H   0  0  0  0  0  0
  -23.3728  -35.9592   23.3275 H   0  0  0  0  0  0
  -24.3562  -36.8941   22.2053 H   0  0  0  0  0  0
  -23.7230  -37.6452   23.6710 H   0  0  0  0  0  0
  -26.0325  -31.5710   20.5654 H   0  0  0  0  0  0
  -26.8335  -30.8942   21.9538 H   0  0  0  0  0  0
  -28.1144  -29.0626   21.1478 H   0  0  0  0  0  0
  -26.0387  -25.9122   19.0695 H   0  0  0  0  0  0
  -23.9712  -27.2669   19.0608 H   0  0  0  0  0  0
  -23.7196  -30.5743   19.3981 H   0  0  0  0  0  0
  -22.7422  -29.2182   19.8735 H   0  0  0  0  0  0
  -25.1260  -36.1879   25.0797 H   0  0  0  0  0  0
  -20.9914  -28.3169   24.1437 H   0  0  0  0  0  0
  -20.5664  -26.2182   23.3581 H   0  0  0  0  0  0
  -21.6627  -26.7385   22.1174 H   0  0  0  0  0  0
  -19.6928  -25.6261   21.1202 H   0  0  0  0  0  0
  -19.6719  -27.3179   20.6740 H   0  0  0  0  0  0
  -17.4171  -26.6607   21.4006 H   0  0  0  0  0  0
  -18.0332  -26.0007   22.8993 H   0  0  0  0  0  0
  -19.7935  -30.7244   24.2198 H   0  0  0  0  0  0
  -17.5014  -31.6257   24.5121 H   0  0  0  0  0  0
  -15.5356  -30.2952   23.7705 H   0  0  0  0  0  0
  -15.8622  -28.0824   22.7057 H   0  0  0  0  0  0
  -24.6015  -30.6818   25.7669 H   0  0  0  0  0  0
  -24.8868  -32.2655   26.4833 H   0  0  0  0  0  0
  -25.8129  -30.8712   27.0138 H   0  0  0  0  0  0
  -26.3019  -29.6735   24.1030 H   0  0  0  0  0  0
  -27.4319  -29.7273   25.4374 H   0  0  0  0  0  0
  -27.8723  -30.4429   23.9045 H   0  0  0  0  0  0
  -27.2701  -33.3624   26.1924 H   0  0  0  0  0  0
  -28.3988  -32.6673   25.0405 H   0  0  0  0  0  0
  -28.0551  -31.8423   26.5527 H   0  0  0  0  0  0
  -28.2485  -38.0145   24.7561 H   0  0  0  0  0  0
  -28.1086  -36.2686   24.6237 H   0  0  0  0  0  0
  -27.2260  -37.1369   25.8862 H   0  0  0  0  0  0
  -20.9315  -29.8726   21.6985 H   0  0  0  0  0  0
  -26.0091  -38.2800   24.1495 H   0  0  0  0  0  0
  -31.7056  -17.9790   19.0413 H   0  0  0  0  0  0
  -29.3802  -22.4428   17.6061 H   0  0  0  0  0  0
  -31.0173  -22.1648   16.9841 H   0  0  0  0  0  0
  -30.8061  -23.0223   18.5340 H   0  0  0  0  0  0
  -29.6198  -16.4000   23.0186 H   0  0  0  0  0  0
  -31.2437  -16.7450   22.3875 H   0  0  0  0  0  0
  -30.8442  -15.1518   23.0259 H   0  0  0  0  0  0
  -28.1546  -18.3936   20.6953 H   0  0  0  0  0  0
  -29.5142  -18.2940   21.7592 H   0  0  0  0  0  0
  -28.4634  -22.6745   21.7213 H   0  0  0  0  0  0
  -29.8908  -22.8388   20.7725 H   0  0  0  0  0  0
  -27.1232  -23.8599   19.8712 H   0  0  0  0  0  0
  -28.6183  -24.1442   19.0384 H   0  0  0  0  0  0
  -27.7976  -21.4394   19.1899 H   0  0  0  0  0  0
  -27.9138  -20.7171   20.7615 H   0  0  0  0  0  0
  -29.6303  -16.5347   19.2315 H   0  0  0  0  0  0
  -28.2898  -16.2469   20.2540 H   0  0  0  0  0  0
  -29.3688  -25.3193   21.3019 H   0  0  0  0  0  0
  -27.6731  -25.3942   21.6617 H   0  0  0  0  0  0
  -32.1341  -20.0624   17.7230 H   0  0  0  0  0  0
  1 25  1  0  0  0
  1 30  2  0  0  0
  1 84  1  0  0  0
  2  3  1  0  0  0
  2 25  1  0  0  0
  2 85  1  0  0  0
  2 86  1  0  0  0
  3  4  1  0  0  0
  3 87  1  0  0  0
  3 88  1  0  0  0
  4  5  1  0  0  0
  4 89  1  0  0  0
  4 90  1  0  0  0
  5  6  1  0  0  0
  5 26  1  0  0  0
  5 91  1  0  0  0
  6 25  1  0  0  0
  6 92  1  0  0  0
  6 93  1  0  0  0
  7  8  2  0  0  0
  7 26  1  0  0  0
  7 29  1  0  0  0
  8  9  1  0  0  0
  8 22  1  0  0  0
  9 10  1  0  0  0
  9 27  2  0  0  0
 10 11  2  0  0  0
 10 15  1  0  0  0
 11 12  1  0  0  0
 11 94  1  0  0  0
 12 13  2  0  0  0
 12 95  1  0  0  0
 13 14  1  0  0  0
 13 31  1  0  0  0
 14 15  2  0  0  0
 14 96  1  0  0  0
 15 97  1  0  0  0
 16 17  2  0  0  0
 16 21  1  0  0  0
 16 31  1  0  0  0
 17 18  1  0  0  0
 17 98  1  0  0  0
 18 19  2  0  0  0
 18 99  1  0  0  0
 19 20  1  0  0  0
 19 24  1  0  0  0
 20 21  2  0  0  0
 20100  1  0  0  0
 21 23  1  0  0  0
 22 28  1  0  0  0
 22 32  2  0  0  0
 26 27  1  0  0  0
 28101  1  0  0  0
 28102  1  0  0  0
 29103  1  0  0  0
 29104  1  0  0  0
 33 34  1  0  0  0
 33 66  1  0  0  0
 33 70  2  0  0  0
 34 36  1  0  0  0
 34 59  1  0  0  0
 34105  1  0  0  0
 35 44  2  0  0  0
 35 45  1  0  0  0
 35 68  1  0  0  0
 36 56  1  0  0  0
 36106  1  0  0  0
 37 39  1  0  0  0
 37 47  1  0  0  0
 37 66  1  0  0  0
 37107  1  0  0  0
 38 43  2  0  0  0
 38 46  1  0  0  0
 38 47  1  0  0  0
 39 64  1  0  0  0
 39 67  2  0  0  0
 40 52  1  0  0  0
 40 53  2  0  0  0
 40 58  1  0  0  0
 41108  1  0  0  0
 41109  1  0  0  0
 41110  1  0  0  0
 41 48  1  0  0  0
 42 43  1  0  0  0
 42 66  1  0  0  0
 42111  1  0  0  0
 42112  1  0  0  0
 43 44  1  0  0  0
 44113  1  0  0  0
 45 46  2  0  0  0
 45114  1  0  0  0
 46115  1  0  0  0
 47116  1  0  0  0
 47117  1  0  0  0
 48 56  1  0  0  0
 48 65  1  0  0  0
 48118  1  0  0  0
 49 50  1  0  0  0
 49 53  1  0  0  0
 49 64  1  0  0  0
 49119  1  0  0  0
 50 51  1  0  0  0
 50120  1  0  0  0
 50121  1  0  0  0
 51 52  1  0  0  0
 51122  1  0  0  0
 51123  1  0  0  0
 52124  1  0  0  0
 52125  1  0  0  0
 53 54  1  0  0  0
 54 55  2  0  0  0
 54126  1  0  0  0
 55 57  1  0  0  0
 55127  1  0  0  0
 56 69  2  0  0  0
 57 58  2  0  0  0
 57128  1  0  0  0
 58129  1  0  0  0
 59 60  1  0  0  0
 59 61  1  0  0  0
 59 62  1  0  0  0
 60130  1  0  0  0
 60131  1  0  0  0
 60132  1  0  0  0
 61133  1  0  0  0
 61134  1  0  0  0
 61135  1  0  0  0
 62136  1  0  0  0
 62137  1  0  0  0
 62138  1  0  0  0
 63 65  1  0  0  0
 63139  1  0  0  0
 63140  1  0  0  0
 63141  1  0  0  0
 64142  1  0  0  0
 65143  1  0  0  0
 68 81  1  0  0  0
 71 72  2  0  0  0
 71 83  1  0  0  0
 71144  1  0  0  0
 72 76  1  0  0  0
 72 82  1  0  0  0
 73 74  1  0  0  0
 73 82  1  0  0  0
 73 83  2  0  0  0
 74145  1  0  0  0
 74146  1  0  0  0
 74147  1  0  0  0
 75 84  1  0  0  0
 75148  1  0  0  0
 75149  1  0  0  0
 75150  1  0  0  0
 76 80  1  0  0  0
 76151  1  0  0  0
 76152  1  0  0  0
 77 78  1  0  0  0
 77 79  1  0  0  0
 77153  1  0  0  0
 77154  1  0  0  0
 78 81  1  0  0  0
 78155  1  0  0  0
 78156  1  0  0  0
 79 82  1  0  0  0
 79157  1  0  0  0
 79158  1  0  0  0
 80 84  1  0  0  0
 80159  1  0  0  0
 80160  1  0  0  0
 81161  1  0  0  0
 81162  1  0  0  0
 83163  1  0  0  0
M  CHG  1  83   1
M  ISO  4   1 100  68 101  81 101  84 100
M  END
> <chiral flag>
0

> <version>
0

> <s_m_source_file>
/data/baiqing/PycharmProjects/Reinvent-master-3.2/result/LINK_invent/BTK/process_docking_weight1_custom_sum_contain_oxygen_bond_distance_aromatic_linkinvent_7_9_3/rearranged_h_0078.sdf

> <i_m_source_file_index>
92

> <r_mmod_Potential_Energy-OPLS-2005>
145.790069580078

> <r_mmod_Stretch_Energy-OPLS-2005>
62.1041107177734

> <r_mmod_Bend_Energy-OPLS-2005>
133.441436767578

> <r_mmod_Torsional_Energy-OPLS-2005>
362.216186523438

> <r_mmod_Improper_Torsional_Energy-OPLS-2005>
4.66521453857422

> <r_mmod_Van_der_Waal_Energy-OPLS-2005>
116.192474365234

> <r_mmod_Electrostatic_Energy-OPLS-2005>
-156.412933349609

> <r_mmod_Solvation_Energy-OPLS-2005>
-398.846435546875

> <b_mmod_Minimization_Converged-OPLS-2005>
0

> <r_mmod_RMS_Derivative-OPLS-2005>
3.3837685585022

$$$$
92
                    3D
 Structure written by MMmdl.
166174  0  0  1  0            999 V2000
  -30.5860  -14.7532   20.4516 C   0  0  0  0  0  0
  -30.4383  -12.4561   19.4802 C   0  0  0  0  0  0
  -29.5143  -12.5097   18.2418 C   0  0  0  0  0  0
  -28.0398  -12.3327   18.6532 C   0  0  0  0  0  0
  -27.6458  -13.2288   19.8575 C   0  0  2  0  0  0
  -28.6891  -13.1514   20.9949 C   0  0  0  0  0  0
  -25.2536  -13.8194   20.5710 C   0  0  0  0  0  0
  -24.1817  -13.0444   20.9218 C   0  0  0  0  0  0
  -24.6405  -11.6921   20.8759 C   0  0  0  0  0  0
  -23.9080  -10.4297   21.0417 C   0  0  0  0  0  0
  -24.3625   -9.4209   21.9192 C   0  0  0  0  0  0
  -23.6298   -8.2244   22.0754 C   0  0  0  0  0  0
  -22.4279   -8.0286   21.3546 C   0  0  0  0  0  0
  -21.9922   -9.0264   20.4648 C   0  0  0  0  0  0
  -22.7254  -10.2144   20.3063 C   0  0  0  0  0  0
  -21.6852   -6.0743   22.5281 C   0  0  0  0  0  0
  -21.4011   -6.5644   23.8214 C   0  0  0  0  0  0
  -21.3657   -5.6796   24.9176 C   0  0  0  0  0  0
  -21.6044   -4.3058   24.7225 C   0  0  0  0  0  0
  -21.8819   -3.8153   23.4345 C   0  0  0  0  0  0
  -21.9193   -4.6971   22.3403 C   0  0  0  0  0  0
  -22.7840  -13.5232   21.1865 C   0  0  0  0  0  0
  -22.1662   -4.2157   21.0980 F   0  0  0  0  0  0
  -21.5629   -3.4539   25.7738 F   0  0  0  0  0  0
  -29.9925  -13.5101   20.4215 N   0  0  0  0  0  0
  -26.2959  -12.9393   20.3305 N   0  0  0  0  0  0
  -25.9337  -11.6542   20.5770 N   0  0  0  0  0  0
  -22.0477  -12.8224   22.0417 N   0  0  0  0  0  0
  -25.4244  -15.1912   20.4116 N   0  0  0  0  0  0
  -31.7562  -14.8868   20.0835 O   0  0  0  0  0  0
  -21.6638   -6.8887   21.4244 O   0  0  0  0  0  0
  -22.3534  -14.5541   20.6715 O   0  0  0  0  0  0
  -24.6296  -31.8530   23.1943 C   0  0  0  0  0  0
  -25.9124  -32.4739   23.8294 C   0  0  1  0  0  0
  -27.2298  -27.2568   20.1337 C   0  0  0  0  0  0
  -25.5916  -33.8542   24.2222 N   0  0  0  0  0  0
  -23.4272  -30.4718   21.5375 C   0  0  2  0  0  0
  -24.8756  -28.9090   20.1102 C   0  0  0  0  0  0
  -22.7491  -29.4577   22.4900 C   0  0  0  0  0  0
  -18.0293  -28.1373   22.8487 C   0  0  0  0  0  0
  -24.1489  -36.7275   23.2637 C   0  0  0  0  0  0
  -25.9704  -30.7646   21.3727 C   0  0  0  0  0  0
  -26.0429  -29.3850   20.7170 C   0  0  0  0  0  0
  -27.2181  -28.5712   20.7136 C   0  0  0  0  0  0
  -26.0345  -26.8325   19.5169 C   0  0  0  0  0  0
  -24.8759  -27.6417   19.5006 C   0  0  0  0  0  0
  -23.6464  -29.7983   20.1550 C   0  0  0  0  0  0
  -25.4123  -36.3057   24.0310 C   0  0  1  0  0  0
  -20.5892  -28.3682   23.1269 C   0  0  2  0  0  0
  -20.6783  -26.9397   22.5407 C   0  0  0  0  0  0
  -19.5761  -26.6372   21.5209 C   0  0  0  0  0  0
  -18.1939  -26.7918   22.1616 C   0  0  0  0  0  0
  -19.1546  -28.8845   23.2874 C   0  0  0  0  0  0
  -18.9470  -30.1450   23.8886 C   0  0  0  0  0  0
  -17.6471  -30.6579   24.0564 C   0  0  0  0  0  0
  -25.9061  -34.9429   23.5075 C   0  0  0  0  0  0
  -16.5362  -29.9079   23.6332 C   0  0  0  0  0  0
  -16.7281  -28.6494   23.0354 C   0  0  0  0  0  0
  -26.4494  -31.6574   25.0692 C   0  0  0  0  0  0
  -25.3705  -31.3736   26.1407 C   0  0  0  0  0  0
  -27.0357  -30.2992   24.6197 C   0  0  0  0  0  0
  -27.6043  -32.4320   25.7466 C   0  0  0  0  0  0
  -27.5578  -37.1789   24.8462 C   0  0  0  0  0  0
  -21.4199  -29.3024   22.3649 N   0  0  0  0  0  0
  -26.4294  -37.3758   23.9401 N   0  0  0  0  0  0
  -24.6949  -31.0483   22.0922 N   0  0  0  0  0  0
  -23.4186  -28.8128   23.3012 O   0  0  0  0  0  0
  -28.3735  -26.4294   20.2183 O   0  0  0  0  0  0
  -26.5636  -34.8900   22.4647 O   0  0  0  0  0  0
  -23.5447  -32.1359   23.7241 O   0  0  0  0  0  0
  -29.1845  -21.2873   21.0048 C   0  0  0  0  0  0
  -29.0123  -19.9705   20.5296 C   0  0  0  0  0  0
  -27.8394  -21.4719   19.2801 C   0  0  0  0  0  0
  -26.8485  -21.9182   18.2547 C   0  0  0  0  0  0
  -29.4892  -24.1986   17.4679 C   0  0  0  0  0  0
  -27.9800  -18.0371   21.7309 C   0  0  0  0  0  0
  -30.3214  -18.6928   22.2785 C   0  0  0  0  0  0
  -28.3718  -24.9602   18.1968 C   0  0  0  0  0  0
  -28.0704  -23.7035   20.5751 C   0  0  0  0  0  0
  -29.8936  -17.3154   20.1975 C   0  0  0  0  0  0
  -28.5552  -25.0114   19.7300 C   0  0  2  0  0  0
  -29.3147  -18.5190   21.1293 C   0  0  0  0  0  0
  -28.4276  -22.2089   20.2499 N   0  0  0  0  0  0
  -28.2121  -20.1793   19.4307 N   0  3  0  0  0  0
  -29.7736  -15.8550   20.6705 N   0  0  0  0  0  0
  -31.4788  -12.5865   19.1781 H   0  0  0  0  0  0
  -30.3886  -11.4765   19.9574 H   0  0  0  0  0  0
  -29.7980  -11.7386   17.5242 H   0  0  0  0  0  0
  -29.6402  -13.4648   17.7289 H   0  0  0  0  0  0
  -27.8961  -11.2833   18.9121 H   0  0  0  0  0  0
  -27.3834  -12.5278   17.8043 H   0  0  0  0  0  0
  -27.6435  -14.2516   19.4810 H   0  0  0  0  0  0
  -28.7255  -12.1483   21.4223 H   0  0  0  0  0  0
  -28.4226  -13.8214   21.8139 H   0  0  0  0  0  0
  -25.2768   -9.5679   22.4771 H   0  0  0  0  0  0
  -24.0006   -7.4632   22.7470 H   0  0  0  0  0  0
  -21.0854   -8.8791   19.8948 H   0  0  0  0  0  0
  -22.3720  -10.9688   19.6172 H   0  0  0  0  0  0
  -21.2001   -7.6151   23.9722 H   0  0  0  0  0  0
  -21.1478   -6.0523   25.9080 H   0  0  0  0  0  0
  -22.0600   -2.7615   23.2844 H   0  0  0  0  0  0
  -22.4091  -11.9885   22.4804 H   0  0  0  0  0  0
  -21.1093  -13.1249   22.2607 H   0  0  0  0  0  0
  -24.6549  -15.8431   20.5175 H   0  0  0  0  0  0
  -26.2647  -15.6258   20.0546 H   0  0  0  0  0  0
  -26.7186  -32.5394   23.1030 H   0  0  0  0  0  0
  -25.0060  -33.9684   25.0367 H   0  0  0  0  0  0
  -22.7246  -31.2943   21.3867 H   0  0  0  0  0  0
  -23.3753  -35.9606   23.3307 H   0  0  0  0  0  0
  -24.3580  -36.8907   22.2053 H   0  0  0  0  0  0
  -23.7246  -37.6471   23.6680 H   0  0  0  0  0  0
  -26.1081  -31.5248   20.6024 H   0  0  0  0  0  0
  -26.8475  -30.8151   22.0065 H   0  0  0  0  0  0
  -28.1150  -28.9341   21.1952 H   0  0  0  0  0  0
  -25.9677  -25.8523   19.0720 H   0  0  0  0  0  0
  -23.9764  -27.2697   19.0311 H   0  0  0  0  0  0
  -23.7720  -30.5725   19.3969 H   0  0  0  0  0  0
  -22.7655  -29.2303   19.8514 H   0  0  0  0  0  0
  -25.1313  -36.1902   25.0802 H   0  0  0  0  0  0
  -20.9985  -28.3269   24.1393 H   0  0  0  0  0  0
  -20.5681  -26.2290   23.3613 H   0  0  0  0  0  0
  -21.6655  -26.7424   22.1205 H   0  0  0  0  0  0
  -19.6925  -25.6282   21.1248 H   0  0  0  0  0  0
  -19.6709  -27.3178   20.6735 H   0  0  0  0  0  0
  -17.4213  -26.6665   21.4016 H   0  0  0  0  0  0
  -18.0339  -26.0053   22.9001 H   0  0  0  0  0  0
  -19.7948  -30.7269   24.2241 H   0  0  0  0  0  0
  -17.5031  -31.6262   24.5156 H   0  0  0  0  0  0
  -15.5363  -30.2981   23.7657 H   0  0  0  0  0  0
  -15.8681  -28.0816   22.7067 H   0  0  0  0  0  0
  -24.5884  -30.7083   25.7734 H   0  0  0  0  0  0
  -24.8883  -32.2908   26.4792 H   0  0  0  0  0  0
  -25.7995  -30.8937   27.0211 H   0  0  0  0  0  0
  -26.2947  -29.6718   24.1227 H   0  0  0  0  0  0
  -27.4055  -29.7279   25.4723 H   0  0  0  0  0  0
  -27.8813  -30.4272   23.9432 H   0  0  0  0  0  0
  -27.2656  -33.3637   26.2009 H   0  0  0  0  0  0
  -28.3866  -32.6852   25.0298 H   0  0  0  0  0  0
  -28.0696  -31.8466   26.5411 H   0  0  0  0  0  0
  -28.2582  -38.0094   24.7521 H   0  0  0  0  0  0
  -28.1082  -36.2624   24.6288 H   0  0  0  0  0  0
  -27.2292  -37.1441   25.8861 H   0  0  0  0  0  0
  -20.9379  -29.8737   21.6850 H   0  0  0  0  0  0
  -26.0170  -38.2824   24.1428 H   0  0  0  0  0  0
  -29.7064  -21.6125   21.8946 H   0  0  0  0  0  0
  -27.3840  -22.2595   17.3706 H   0  0  0  0  0  0
  -26.2260  -22.7094   18.6680 H   0  0  0  0  0  0
  -26.2140  -21.0725   17.9894 H   0  0  0  0  0  0
  -29.2933  -24.1468   16.3968 H   0  0  0  0  0  0
  -29.5974  -23.1795   17.8348 H   0  0  0  0  0  0
  -30.4491  -24.6991   17.6025 H   0  0  0  0  0  0
  -27.5726  -18.7698   22.4277 H   0  0  0  0  0  0
  -28.0897  -17.1050   22.2850 H   0  0  0  0  0  0
  -27.2305  -17.8737   20.9566 H   0  0  0  0  0  0
  -29.9470  -19.3683   23.0475 H   0  0  0  0  0  0
  -31.2649  -19.0976   21.9112 H   0  0  0  0  0  0
  -30.5423  -17.7406   22.7622 H   0  0  0  0  0  0
  -27.3959  -24.5596   17.9331 H   0  0  0  0  0  0
  -28.3729  -25.9777   17.8037 H   0  0  0  0  0  0
  -26.9835  -23.7408   20.6412 H   0  0  0  0  0  0
  -28.4060  -23.8572   21.6002 H   0  0  0  0  0  0
  -30.9337  -17.5248   19.9429 H   0  0  0  0  0  0
  -29.3604  -17.3494   19.2475 H   0  0  0  0  0  0
  -29.6363  -24.9471   19.8614 H   0  0  0  0  0  0
  -27.8562  -19.4325   18.8462 H   0  0  0  0  0  0
  -28.8591  -15.6122   21.0177 H   0  0  0  0  0  0
  1 25  1  0  0  0
  1 30  2  0  0  0
  1 85  1  0  0  0
  2  3  1  0  0  0
  2 25  1  0  0  0
  2 86  1  0  0  0
  2 87  1  0  0  0
  3  4  1  0  0  0
  3 88  1  0  0  0
  3 89  1  0  0  0
  4  5  1  0  0  0
  4 90  1  0  0  0
  4 91  1  0  0  0
  5  6  1  0  0  0
  5 26  1  0  0  0
  5 92  1  0  0  0
  6 25  1  0  0  0
  6 93  1  0  0  0
  6 94  1  0  0  0
  7  8  2  0  0  0
  7 26  1  0  0  0
  7 29  1  0  0  0
  8  9  1  0  0  0
  8 22  1  0  0  0
  9 10  1  0  0  0
  9 27  2  0  0  0
 10 11  2  0  0  0
 10 15  1  0  0  0
 11 12  1  0  0  0
 11 95  1  0  0  0
 12 13  2  0  0  0
 12 96  1  0  0  0
 13 14  1  0  0  0
 13 31  1  0  0  0
 14 15  2  0  0  0
 14 97  1  0  0  0
 15 98  1  0  0  0
 16 17  2  0  0  0
 16 21  1  0  0  0
 16 31  1  0  0  0
 17 18  1  0  0  0
 17 99  1  0  0  0
 18 19  2  0  0  0
 18100  1  0  0  0
 19 20  1  0  0  0
 19 24  1  0  0  0
 20 21  2  0  0  0
 20101  1  0  0  0
 21 23  1  0  0  0
 22 28  1  0  0  0
 22 32  2  0  0  0
 26 27  1  0  0  0
 28102  1  0  0  0
 28103  1  0  0  0
 29104  1  0  0  0
 29105  1  0  0  0
 33 34  1  0  0  0
 33 66  1  0  0  0
 33 70  2  0  0  0
 34 36  1  0  0  0
 34 59  1  0  0  0
 34106  1  0  0  0
 35 44  2  0  0  0
 35 45  1  0  0  0
 35 68  1  0  0  0
 36 56  1  0  0  0
 36107  1  0  0  0
 37 39  1  0  0  0
 37 47  1  0  0  0
 37 66  1  0  0  0
 37108  1  0  0  0
 38 43  2  0  0  0
 38 46  1  0  0  0
 38 47  1  0  0  0
 39 64  1  0  0  0
 39 67  2  0  0  0
 40 52  1  0  0  0
 40 53  2  0  0  0
 40 58  1  0  0  0
 41109  1  0  0  0
 41110  1  0  0  0
 41111  1  0  0  0
 41 48  1  0  0  0
 42 43  1  0  0  0
 42 66  1  0  0  0
 42112  1  0  0  0
 42113  1  0  0  0
 43 44  1  0  0  0
 44114  1  0  0  0
 45 46  2  0  0  0
 45115  1  0  0  0
 46116  1  0  0  0
 47117  1  0  0  0
 47118  1  0  0  0
 48 56  1  0  0  0
 48 65  1  0  0  0
 48119  1  0  0  0
 49 50  1  0  0  0
 49 53  1  0  0  0
 49 64  1  0  0  0
 49120  1  0  0  0
 50 51  1  0  0  0
 50121  1  0  0  0
 50122  1  0  0  0
 51 52  1  0  0  0
 51123  1  0  0  0
 51124  1  0  0  0
 52125  1  0  0  0
 52126  1  0  0  0
 53 54  1  0  0  0
 54 55  2  0  0  0
 54127  1  0  0  0
 55 57  1  0  0  0
 55128  1  0  0  0
 56 69  2  0  0  0
 57 58  2  0  0  0
 57129  1  0  0  0
 58130  1  0  0  0
 59 60  1  0  0  0
 59 61  1  0  0  0
 59 62  1  0  0  0
 60131  1  0  0  0
 60132  1  0  0  0
 60133  1  0  0  0
 61134  1  0  0  0
 61135  1  0  0  0
 61136  1  0  0  0
 62137  1  0  0  0
 62138  1  0  0  0
 62139  1  0  0  0
 63 65  1  0  0  0
 63140  1  0  0  0
 63141  1  0  0  0
 63142  1  0  0  0
 64143  1  0  0  0
 65144  1  0  0  0
 68 81  1  0  0  0
 71 72  2  0  0  0
 71 83  1  0  0  0
 71145  1  0  0  0
 72 82  1  0  0  0
 72 84  1  0  0  0
 73 74  1  0  0  0
 73 83  1  0  0  0
 73 84  2  0  0  0
 74146  1  0  0  0
 74147  1  0  0  0
 74148  1  0  0  0
 75 78  1  0  0  0
 75149  1  0  0  0
 75150  1  0  0  0
 75151  1  0  0  0
 76152  1  0  0  0
 76153  1  0  0  0
 76154  1  0  0  0
 76 82  1  0  0  0
 77 82  1  0  0  0
 77155  1  0  0  0
 77156  1  0  0  0
 77157  1  0  0  0
 78158  1  0  0  0
 78159  1  0  0  0
 78 81  1  0  0  0
 79 81  1  0  0  0
 79 83  1  0  0  0
 79160  1  0  0  0
 79161  1  0  0  0
 80 82  1  0  0  0
 80 85  1  0  0  0
 80162  1  0  0  0
 80163  1  0  0  0
 81164  1  0  0  0
 84165  1  0  0  0
 85166  1  0  0  0
M  CHG  1  84   1
M  ISO  4   1 100  68 101  81 101  85 100
M  END
> <chiral flag>
0

> <version>
0

> <s_m_source_file>
/data/baiqing/PycharmProjects/Reinvent-master-3.2/result/LINK_invent/BTK/process_docking_weight1_custom_sum_contain_oxygen_bond_distance_aromatic_linkinvent_7_9_3/rearranged_h_0078.sdf

> <i_m_source_file_index>
93

> <r_mmod_Potential_Energy-OPLS-2005>
85.9680099487305

> <r_mmod_Stretch_Energy-OPLS-2005>
136.785507202148

> <r_mmod_Bend_Energy-OPLS-2005>
219.063674926758

> <r_mmod_Torsional_Energy-OPLS-2005>
242.436325073242

> <r_mmod_Improper_Torsional_Energy-OPLS-2005>
9.53037166595459

> <r_mmod_Van_der_Waal_Energy-OPLS-2005>
106.221244812012

> <r_mmod_Electrostatic_Energy-OPLS-2005>
-289.603942871094

> <r_mmod_Solvation_Energy-OPLS-2005>
-423.362701416016

> <b_mmod_Minimization_Converged-OPLS-2005>
0

> <r_mmod_RMS_Derivative-OPLS-2005>
1.17978239059448

$$$$
93
                    3D
 Structure written by MMmdl.
162170  0  0  1  0            999 V2000
  -30.6969  -14.5253   20.3901 C   0  0  0  0  0  0
  -30.4117  -12.3013   19.4089 C   0  0  0  0  0  0
  -29.4755  -12.4472   18.1928 C   0  0  0  0  0  0
  -28.0019  -12.3114   18.6243 C   0  0  0  0  0  0
  -27.6454  -13.1949   19.8509 C   0  0  2  0  0  0
  -28.7130  -13.0870   20.9698 C   0  0  0  0  0  0
  -25.2543  -13.7926   20.5757 C   0  0  0  0  0  0
  -24.1818  -13.0251   20.9311 C   0  0  0  0  0  0
  -24.6451  -11.6748   20.8860 C   0  0  0  0  0  0
  -23.9153  -10.4139   21.0477 C   0  0  0  0  0  0
  -24.3655   -9.4021   21.9241 C   0  0  0  0  0  0
  -23.6271   -8.2109   22.0787 C   0  0  0  0  0  0
  -22.4241   -8.0230   21.3566 C   0  0  0  0  0  0
  -21.9957   -9.0223   20.4680 C   0  0  0  0  0  0
  -22.7367  -10.2056   20.3075 C   0  0  0  0  0  0
  -21.6797   -6.0730   22.5308 C   0  0  0  0  0  0
  -21.3967   -6.5645   23.8236 C   0  0  0  0  0  0
  -21.3678   -5.6805   24.9207 C   0  0  0  0  0  0
  -21.6051   -4.3060   24.7237 C   0  0  0  0  0  0
  -21.8797   -3.8158   23.4366 C   0  0  0  0  0  0
  -21.9156   -4.6971   22.3413 C   0  0  0  0  0  0
  -22.7843  -13.5081   21.1903 C   0  0  0  0  0  0
  -22.1603   -4.2149   21.0994 F   0  0  0  0  0  0
  -21.5638   -3.4549   25.7754 F   0  0  0  0  0  0
  -30.0188  -13.3484   20.3593 N   0  0  0  0  0  0
  -26.2986  -12.9156   20.3391 N   0  0  0  0  0  0
  -25.9350  -11.6327   20.5855 N   0  0  0  0  0  0
  -22.0460  -12.8076   22.0437 N   0  0  0  0  0  0
  -25.4087  -15.1579   20.3960 N   0  0  0  0  0  0
  -31.9300  -14.5517   20.3280 O   0  0  0  0  0  0
  -21.6560   -6.8875   21.4278 O   0  0  0  0  0  0
  -22.3560  -14.5422   20.6763 O   0  0  0  0  0  0
  -24.6189  -31.8675   23.2055 C   0  0  0  0  0  0
  -25.9081  -32.4811   23.8384 C   0  0  1  0  0  0
  -27.2340  -27.4466   20.0504 C   0  0  0  0  0  0
  -25.5903  -33.8610   24.2322 N   0  0  0  0  0  0
  -23.4026  -30.4956   21.5440 C   0  0  2  0  0  0
  -24.8398  -28.9495   20.1184 C   0  0  0  0  0  0
  -22.7423  -29.4713   22.4933 C   0  0  0  0  0  0
  -18.0291  -28.1443   22.8427 C   0  0  0  0  0  0
  -24.1492  -36.7344   23.2629 C   0  0  0  0  0  0
  -25.9318  -30.8288   21.3544 C   0  0  0  0  0  0
  -26.0018  -29.4625   20.7063 C   0  0  0  0  0  0
  -27.1983  -28.7156   20.6696 C   0  0  0  0  0  0
  -26.0393  -26.9262   19.4988 C   0  0  0  0  0  0
  -24.8501  -27.6776   19.5214 C   0  0  0  0  0  0
  -23.6090  -29.8231   20.1601 C   0  0  0  0  0  0
  -25.4106  -36.3109   24.0334 C   0  0  1  0  0  0
  -20.5860  -28.3769   23.1211 C   0  0  2  0  0  0
  -20.6773  -26.9499   22.5361 C   0  0  0  0  0  0
  -19.5771  -26.6427   21.5150 C   0  0  0  0  0  0
  -18.1953  -26.7974   22.1570 C   0  0  0  0  0  0
  -19.1532  -28.8914   23.2818 C   0  0  0  0  0  0
  -18.9478  -30.1487   23.8886 C   0  0  0  0  0  0
  -17.6487  -30.6610   24.0596 C   0  0  0  0  0  0
  -25.9039  -34.9473   23.5131 C   0  0  0  0  0  0
  -16.5378  -29.9145   23.6298 C   0  0  0  0  0  0
  -16.7283  -28.6567   23.0298 C   0  0  0  0  0  0
  -26.4514  -31.6582   25.0717 C   0  0  0  0  0  0
  -25.3789  -31.3653   26.1469 C   0  0  0  0  0  0
  -27.0343  -30.3024   24.6083 C   0  0  0  0  0  0
  -27.6091  -32.4301   25.7491 C   0  0  0  0  0  0
  -27.5588  -37.1828   24.8465 C   0  0  0  0  0  0
  -21.4152  -29.3127   22.3630 N   0  0  0  0  0  0
  -26.4296  -37.3786   23.9404 N   0  0  0  0  0  0
  -24.6701  -31.0790   22.0934 N   0  0  0  0  0  0
  -23.4195  -28.8256   23.2985 O   0  0  0  0  0  0
  -28.4505  -26.7954   19.9943 O   0  0  0  0  0  0
  -26.5600  -34.8922   22.4695 O   0  0  0  0  0  0
  -23.5369  -32.1448   23.7428 O   0  0  0  0  0  0
  -28.1366  -21.3992   23.5428 C   0  0  0  0  0  0
  -28.4137  -22.3393   22.5414 C   0  0  0  0  0  0
  -27.7140  -20.1159   23.1584 C   0  0  0  0  0  0
  -28.2508  -21.9779   21.1888 C   0  0  0  0  0  0
  -27.6101  -19.8208   21.7911 C   0  0  0  0  0  0
  -30.6651  -16.1285   18.5688 C   0  0  0  0  0  0
  -28.4900  -22.9721   20.0523 C   0  0  0  0  0  0
  -28.3683  -24.4455   20.4948 C   0  0  0  0  0  0
  -28.3860  -17.5091   19.5322 C   0  0  0  0  0  0
  -29.0383  -16.4259   20.4518 C   0  0  0  0  0  0
  -28.5662  -25.4971   19.3987 C   0  0  0  0  0  0
  -27.1076  -18.1849   20.0612 C   0  0  0  0  0  0
  -27.8731  -20.7323   20.8242 N   0  0  0  0  0  0
  -30.0318  -15.5458   19.7729 N   0  0  0  0  0  0
  -27.2067  -18.5530   21.4357 O   0  0  0  0  0  0
  -31.4552  -12.3842   19.0938 H   0  0  0  0  0  0
  -30.3086  -11.3151   19.8665 H   0  0  0  0  0  0
  -29.7068  -11.6903   17.4427 H   0  0  0  0  0  0
  -29.6336  -13.4119   17.7116 H   0  0  0  0  0  0
  -27.8227  -11.2606   18.8583 H   0  0  0  0  0  0
  -27.3405  -12.5468   17.7912 H   0  0  0  0  0  0
  -27.6411  -14.2172   19.4780 H   0  0  0  0  0  0
  -28.7163  -12.1038   21.4405 H   0  0  0  0  0  0
  -28.5296  -13.8030   21.7736 H   0  0  0  0  0  0
  -25.2812   -9.5358   22.4815 H   0  0  0  0  0  0
  -23.9932   -7.4471   22.7484 H   0  0  0  0  0  0
  -21.0891   -8.8853   19.8982 H   0  0  0  0  0  0
  -22.3948  -10.9619   19.6161 H   0  0  0  0  0  0
  -21.1943   -7.6154   23.9726 H   0  0  0  0  0  0
  -21.1542   -6.0555   25.9107 H   0  0  0  0  0  0
  -22.0563   -2.7612   23.2881 H   0  0  0  0  0  0
  -22.4037  -11.9740   22.4858 H   0  0  0  0  0  0
  -21.1101  -13.1170   22.2624 H   0  0  0  0  0  0
  -24.6047  -15.7735   20.4350 H   0  0  0  0  0  0
  -26.2168  -15.5687   19.9473 H   0  0  0  0  0  0
  -26.7167  -32.5532   23.1152 H   0  0  0  0  0  0
  -25.0087  -33.9776   25.0493 H   0  0  0  0  0  0
  -22.6930  -31.3143   21.4003 H   0  0  0  0  0  0
  -23.3712  -35.9715   23.3297 H   0  0  0  0  0  0
  -24.3575  -36.8959   22.2037 H   0  0  0  0  0  0
  -23.7301  -37.6572   23.6655 H   0  0  0  0  0  0
  -26.0405  -31.5809   20.5716 H   0  0  0  0  0  0
  -26.8237  -30.8863   21.9685 H   0  0  0  0  0  0
  -28.1071  -29.1143   21.0969 H   0  0  0  0  0  0
  -25.9946  -25.9504   19.0409 H   0  0  0  0  0  0
  -23.9528  -27.2720   19.0739 H   0  0  0  0  0  0
  -23.7335  -30.5933   19.3977 H   0  0  0  0  0  0
  -22.7295  -29.2507   19.8601 H   0  0  0  0  0  0
  -25.1273  -36.1960   25.0823 H   0  0  0  0  0  0
  -20.9964  -28.3408   24.1322 H   0  0  0  0  0  0
  -20.5591  -26.2472   23.3616 H   0  0  0  0  0  0
  -21.6670  -26.7522   22.1218 H   0  0  0  0  0  0
  -19.6957  -25.6316   21.1244 H   0  0  0  0  0  0
  -19.6668  -27.3175   20.6621 H   0  0  0  0  0  0
  -17.4203  -26.6647   21.3998 H   0  0  0  0  0  0
  -18.0418  -26.0145   22.9008 H   0  0  0  0  0  0
  -19.7968  -30.7269   24.2280 H   0  0  0  0  0  0
  -17.5071  -31.6258   24.5275 H   0  0  0  0  0  0
  -15.5389  -30.3085   23.7600 H   0  0  0  0  0  0
  -15.8683  -28.0904   22.7003 H   0  0  0  0  0  0
  -24.5947  -30.7019   25.7797 H   0  0  0  0  0  0
  -24.9010  -32.2791   26.5007 H   0  0  0  0  0  0
  -25.8149  -30.8763   27.0191 H   0  0  0  0  0  0
  -26.2862  -29.6746   24.1219 H   0  0  0  0  0  0
  -27.4192  -29.7284   25.4526 H   0  0  0  0  0  0
  -27.8672  -30.4328   23.9164 H   0  0  0  0  0  0
  -27.2700  -33.3555   26.2160 H   0  0  0  0  0  0
  -28.3865  -32.6936   25.0305 H   0  0  0  0  0  0
  -28.0831  -31.8395   26.5344 H   0  0  0  0  0  0
  -28.2606  -38.0126   24.7478 H   0  0  0  0  0  0
  -28.1082  -36.2647   24.6309 H   0  0  0  0  0  0
  -27.2316  -37.1511   25.8875 H   0  0  0  0  0  0
  -20.9368  -29.8939   21.6884 H   0  0  0  0  0  0
  -26.0178  -38.2870   24.1350 H   0  0  0  0  0  0
  -28.2502  -21.6586   24.5847 H   0  0  0  0  0  0
  -28.7461  -23.3204   22.8456 H   0  0  0  0  0  0
  -27.4806  -19.3710   23.9075 H   0  0  0  0  0  0
  -31.0995  -17.1050   18.7858 H   0  0  0  0  0  0
  -29.9534  -16.2343   17.7509 H   0  0  0  0  0  0
  -31.4713  -15.5151   18.1569 H   0  0  0  0  0  0
  -29.4758  -22.7871   19.6280 H   0  0  0  0  0  0
  -27.7763  -22.7673   19.2529 H   0  0  0  0  0  0
  -29.1228  -24.6569   21.2518 H   0  0  0  0  0  0
  -27.3961  -24.5912   20.9660 H   0  0  0  0  0  0
  -28.1139  -17.0712   18.5704 H   0  0  0  0  0  0
  -29.1112  -18.2946   19.3151 H   0  0  0  0  0  0
  -28.2524  -15.8370   20.9213 H   0  0  0  0  0  0
  -29.5375  -16.9301   21.2818 H   0  0  0  0  0  0
  -27.9200  -25.3378   18.5370 H   0  0  0  0  0  0
  -29.5795  -25.4119   19.0041 H   0  0  0  0  0  0
  -26.8100  -19.0080   19.4113 H   0  0  0  0  0  0
  -26.2796  -17.4931   19.9782 H   0  0  0  0  0  0
  1 25  1  0  0  0
  1 30  2  0  0  0
  1 84  1  0  0  0
  2  3  1  0  0  0
  2 25  1  0  0  0
  2 86  1  0  0  0
  2 87  1  0  0  0
  3  4  1  0  0  0
  3 88  1  0  0  0
  3 89  1  0  0  0
  4  5  1  0  0  0
  4 90  1  0  0  0
  4 91  1  0  0  0
  5  6  1  0  0  0
  5 26  1  0  0  0
  5 92  1  0  0  0
  6 25  1  0  0  0
  6 93  1  0  0  0
  6 94  1  0  0  0
  7  8  2  0  0  0
  7 26  1  0  0  0
  7 29  1  0  0  0
  8  9  1  0  0  0
  8 22  1  0  0  0
  9 10  1  0  0  0
  9 27  2  0  0  0
 10 11  2  0  0  0
 10 15  1  0  0  0
 11 12  1  0  0  0
 11 95  1  0  0  0
 12 13  2  0  0  0
 12 96  1  0  0  0
 13 14  1  0  0  0
 13 31  1  0  0  0
 14 15  2  0  0  0
 14 97  1  0  0  0
 15 98  1  0  0  0
 16 17  2  0  0  0
 16 21  1  0  0  0
 16 31  1  0  0  0
 17 18  1  0  0  0
 17 99  1  0  0  0
 18 19  2  0  0  0
 18100  1  0  0  0
 19 20  1  0  0  0
 19 24  1  0  0  0
 20 21  2  0  0  0
 20101  1  0  0  0
 21 23  1  0  0  0
 22 28  1  0  0  0
 22 32  2  0  0  0
 26 27  1  0  0  0
 28102  1  0  0  0
 28103  1  0  0  0
 29104  1  0  0  0
 29105  1  0  0  0
 33 34  1  0  0  0
 33 66  1  0  0  0
 33 70  2  0  0  0
 34 36  1  0  0  0
 34 59  1  0  0  0
 34106  1  0  0  0
 35 44  2  0  0  0
 35 45  1  0  0  0
 35 68  1  0  0  0
 36 56  1  0  0  0
 36107  1  0  0  0
 37 39  1  0  0  0
 37 47  1  0  0  0
 37 66  1  0  0  0
 37108  1  0  0  0
 38 43  2  0  0  0
 38 46  1  0  0  0
 38 47  1  0  0  0
 39 64  1  0  0  0
 39 67  2  0  0  0
 40 52  1  0  0  0
 40 53  2  0  0  0
 40 58  1  0  0  0
 41109  1  0  0  0
 41110  1  0  0  0
 41111  1  0  0  0
 41 48  1  0  0  0
 42 43  1  0  0  0
 42 66  1  0  0  0
 42112  1  0  0  0
 42113  1  0  0  0
 43 44  1  0  0  0
 44114  1  0  0  0
 45 46  2  0  0  0
 45115  1  0  0  0
 46116  1  0  0  0
 47117  1  0  0  0
 47118  1  0  0  0
 48 56  1  0  0  0
 48 65  1  0  0  0
 48119  1  0  0  0
 49 50  1  0  0  0
 49 53  1  0  0  0
 49 64  1  0  0  0
 49120  1  0  0  0
 50 51  1  0  0  0
 50121  1  0  0  0
 50122  1  0  0  0
 51 52  1  0  0  0
 51123  1  0  0  0
 51124  1  0  0  0
 52125  1  0  0  0
 52126  1  0  0  0
 53 54  1  0  0  0
 54 55  2  0  0  0
 54127  1  0  0  0
 55 57  1  0  0  0
 55128  1  0  0  0
 56 69  2  0  0  0
 57 58  2  0  0  0
 57129  1  0  0  0
 58130  1  0  0  0
 59 60  1  0  0  0
 59 61  1  0  0  0
 59 62  1  0  0  0
 60131  1  0  0  0
 60132  1  0  0  0
 60133  1  0  0  0
 61134  1  0  0  0
 61135  1  0  0  0
 61136  1  0  0  0
 62137  1  0  0  0
 62138  1  0  0  0
 62139  1  0  0  0
 63 65  1  0  0  0
 63140  1  0  0  0
 63141  1  0  0  0
 63142  1  0  0  0
 64143  1  0  0  0
 65144  1  0  0  0
 68 81  1  0  0  0
 71 72  2  0  0  0
 71 73  1  0  0  0
 71145  1  0  0  0
 72 74  1  0  0  0
 72146  1  0  0  0
 73 75  2  0  0  0
 73147  1  0  0  0
 74 77  1  0  0  0
 74 83  2  0  0  0
 75 83  1  0  0  0
 75 85  1  0  0  0
 76 84  1  0  0  0
 76148  1  0  0  0
 76149  1  0  0  0
 76150  1  0  0  0
 77 78  1  0  0  0
 77151  1  0  0  0
 77152  1  0  0  0
 78 81  1  0  0  0
 78153  1  0  0  0
 78154  1  0  0  0
 79 80  1  0  0  0
 79 82  1  0  0  0
 79155  1  0  0  0
 79156  1  0  0  0
 80 84  1  0  0  0
 80157  1  0  0  0
 80158  1  0  0  0
 81159  1  0  0  0
 81160  1  0  0  0
 82 85  1  0  0  0
 82161  1  0  0  0
 82162  1  0  0  0
M  ISO  4   1 100  68 101  81 101  84 100
M  END
> <chiral flag>
0

> <version>
0

> <s_m_source_file>
/data/baiqing/PycharmProjects/Reinvent-master-3.2/result/LINK_invent/BTK/process_docking_weight1_custom_sum_contain_oxygen_bond_distance_aromatic_linkinvent_7_9_3/rearranged_h_0078.sdf

> <i_m_source_file_index>
94

> <r_mmod_Potential_Energy-OPLS-2005>
-17.0271644592285

> <r_mmod_Stretch_Energy-OPLS-2005>
39.093635559082

> <r_mmod_Bend_Energy-OPLS-2005>
120.942848205566

> <r_mmod_Torsional_Energy-OPLS-2005>
278.392059326172

> <r_mmod_Improper_Torsional_Energy-OPLS-2005>
29.7223167419434

> <r_mmod_Van_der_Waal_Energy-OPLS-2005>
172.636993408203

> <r_mmod_Electrostatic_Energy-OPLS-2005>
-494.194488525391

> <r_mmod_Solvation_Energy-OPLS-2005>
-201.432083129883

> <b_mmod_Minimization_Converged-OPLS-2005>
0

> <r_mmod_RMS_Derivative-OPLS-2005>
4.75561761856079

$$$$
94
                    3D
 Structure written by MMmdl.
172180  0  0  1  0            999 V2000
  -30.7380  -14.4073   20.5751 C   0  0  0  0  0  0
  -30.4119  -12.2680   19.4164 C   0  0  0  0  0  0
  -29.4882  -12.4957   18.2027 C   0  0  0  0  0  0
  -28.0091  -12.3719   18.6151 C   0  0  0  0  0  0
  -27.6653  -13.2052   19.8787 C   0  0  2  0  0  0
  -28.7059  -12.9733   20.9988 C   0  0  0  0  0  0
  -25.2599  -13.8168   20.5680 C   0  0  0  0  0  0
  -24.1846  -13.0446   20.9195 C   0  0  0  0  0  0
  -24.6404  -11.6917   20.8760 C   0  0  0  0  0  0
  -23.9073  -10.4305   21.0425 C   0  0  0  0  0  0
  -24.3629   -9.4219   21.9198 C   0  0  0  0  0  0
  -23.6303   -8.2246   22.0756 C   0  0  0  0  0  0
  -22.4283   -8.0289   21.3546 C   0  0  0  0  0  0
  -21.9930   -9.0271   20.4648 C   0  0  0  0  0  0
  -22.7256  -10.2149   20.3067 C   0  0  0  0  0  0
  -21.6852   -6.0755   22.5292 C   0  0  0  0  0  0
  -21.4010   -6.5652   23.8230 C   0  0  0  0  0  0
  -21.3658   -5.6797   24.9186 C   0  0  0  0  0  0
  -21.6039   -4.3062   24.7225 C   0  0  0  0  0  0
  -21.8820   -3.8160   23.4344 C   0  0  0  0  0  0
  -21.9193   -4.6981   22.3406 C   0  0  0  0  0  0
  -22.7869  -13.5240   21.1854 C   0  0  0  0  0  0
  -22.1661   -4.2166   21.0985 F   0  0  0  0  0  0
  -21.5631   -3.4544   25.7739 F   0  0  0  0  0  0
  -30.0436  -13.2494   20.4462 N   0  0  0  0  0  0
  -26.3048  -12.9340   20.3389 N   0  0  0  0  0  0
  -25.9328  -11.6502   20.5780 N   0  0  0  0  0  0
  -22.0503  -12.8218   22.0403 N   0  0  0  0  0  0
  -25.4340  -15.1879   20.4082 N   0  0  0  0  0  0
  -31.8548  -14.5825   20.0809 O   0  0  0  0  0  0
  -21.6640   -6.8893   21.4249 O   0  0  0  0  0  0
  -22.3556  -14.5556   20.6723 O   0  0  0  0  0  0
  -24.6108  -31.8686   23.2138 C   0  0  0  0  0  0
  -25.9020  -32.4824   23.8415 C   0  0  1  0  0  0
  -27.2417  -27.4757   20.0932 C   0  0  0  0  0  0
  -25.5885  -33.8619   24.2349 N   0  0  0  0  0  0
  -23.3980  -30.4921   21.5510 C   0  0  2  0  0  0
  -24.8486  -28.9637   20.1130 C   0  0  0  0  0  0
  -22.7390  -29.4651   22.4988 C   0  0  0  0  0  0
  -18.0264  -28.1364   22.8480 C   0  0  0  0  0  0
  -24.1495  -36.7336   23.2637 C   0  0  0  0  0  0
  -25.9222  -30.8480   21.3617 C   0  0  0  0  0  0
  -26.0026  -29.4846   20.7112 C   0  0  0  0  0  0
  -27.2035  -28.7470   20.7028 C   0  0  0  0  0  0
  -26.0794  -26.9599   19.4868 C   0  0  0  0  0  0
  -24.8782  -27.6966   19.4998 C   0  0  0  0  0  0
  -23.6072  -29.8237   20.1648 C   0  0  0  0  0  0
  -25.4103  -36.3110   24.0337 C   0  0  1  0  0  0
  -20.5850  -28.3634   23.1321 C   0  0  2  0  0  0
  -20.6754  -26.9369   22.5421 C   0  0  0  0  0  0
  -19.5733  -26.6372   21.5211 C   0  0  0  0  0  0
  -18.1910  -26.7917   22.1611 C   0  0  0  0  0  0
  -19.1515  -28.8814   23.2908 C   0  0  0  0  0  0
  -18.9442  -30.1423   23.8904 C   0  0  0  0  0  0
  -17.6447  -30.6569   24.0551 C   0  0  0  0  0  0
  -25.9008  -34.9467   23.5133 C   0  0  0  0  0  0
  -16.5335  -29.9066   23.6320 C   0  0  0  0  0  0
  -16.7259  -28.6490   23.0334 C   0  0  0  0  0  0
  -26.4481  -31.6587   25.0715 C   0  0  0  0  0  0
  -25.3783  -31.3662   26.1491 C   0  0  0  0  0  0
  -27.0337  -30.3039   24.6066 C   0  0  0  0  0  0
  -27.6054  -32.4318   25.7475 C   0  0  0  0  0  0
  -27.5586  -37.1814   24.8459 C   0  0  0  0  0  0
  -21.4120  -29.3022   22.3743 N   0  0  0  0  0  0
  -26.4299  -37.3790   23.9399 N   0  0  0  0  0  0
  -24.6616  -31.0837   22.1011 N   0  0  0  0  0  0
  -23.4187  -28.8169   23.2996 O   0  0  0  0  0  0
  -28.3940  -26.7324   20.0438 O   0  0  0  0  0  0
  -26.5583  -34.8913   22.4697 O   0  0  0  0  0  0
  -23.5309  -32.1415   23.7560 O   0  0  0  0  0  0
  -30.1626  -22.3825   22.7319 C   0  0  0  0  0  0
  -30.2853  -21.0491   23.0336 C   0  0  0  0  0  0
  -28.1756  -21.6721   23.4182 C   0  0  0  0  0  0
  -26.7350  -21.5871   23.8114 C   0  0  0  0  0  0
  -32.0006  -19.7962   24.3655 C   0  0  0  0  0  0
  -31.7655  -16.7526   23.1743 C   0  0  0  0  0  0
  -29.3952  -17.6092   23.1390 C   0  0  0  0  0  0
  -28.8208  -24.8408   21.5448 C   0  0  0  0  0  0
  -31.2714  -18.9623   21.9574 C   0  0  0  0  0  0
  -28.2529  -24.0793   22.7915 C   0  0  0  0  0  0
  -30.4559  -16.8286   21.0108 C   0  0  0  0  0  0
  -28.9552  -26.3773   21.3119 C   0  0  0  0  0  0
  -31.4725  -20.1341   22.9637 C   0  0  1  0  0  0
  -30.7222  -17.5523   22.3582 C   0  0  0  0  0  0
  -28.8541  -22.7390   22.9578 N   0  0  0  0  0  0
  -29.0447  -20.6568   23.4579 N   0  3  0  0  0  0
  -30.0647  -15.4214   21.1314 N   0  0  0  0  0  0
  -31.4597  -12.3416   19.1180 H   0  0  0  0  0  0
  -30.2867  -11.2572   19.8082 H   0  0  0  0  0  0
  -29.7164  -11.7747   17.4168 H   0  0  0  0  0  0
  -29.6699  -13.4824   17.7741 H   0  0  0  0  0  0
  -27.8057  -11.3172   18.8017 H   0  0  0  0  0  0
  -27.3626  -12.6634   17.7876 H   0  0  0  0  0  0
  -27.7167  -14.2543   19.5866 H   0  0  0  0  0  0
  -28.6648  -11.9392   21.3449 H   0  0  0  0  0  0
  -28.4770  -13.5821   21.8741 H   0  0  0  0  0  0
  -25.2784   -9.5672   22.4772 H   0  0  0  0  0  0
  -24.0019   -7.4623   22.7463 H   0  0  0  0  0  0
  -21.0870   -8.8792   19.8941 H   0  0  0  0  0  0
  -22.3735  -10.9692   19.6171 H   0  0  0  0  0  0
  -21.2003   -7.6162   23.9733 H   0  0  0  0  0  0
  -21.1474   -6.0534   25.9090 H   0  0  0  0  0  0
  -22.0597   -2.7620   23.2847 H   0  0  0  0  0  0
  -22.4123  -11.9855   22.4753 H   0  0  0  0  0  0
  -21.1123  -13.1230   22.2620 H   0  0  0  0  0  0
  -24.6707  -15.8464   20.5201 H   0  0  0  0  0  0
  -26.2869  -15.6222   20.0787 H   0  0  0  0  0  0
  -26.7098  -32.5557   23.1194 H   0  0  0  0  0  0
  -25.0062  -33.9791   25.0515 H   0  0  0  0  0  0
  -22.6845  -31.3065   21.4122 H   0  0  0  0  0  0
  -23.3738  -35.9693   23.3307 H   0  0  0  0  0  0
  -24.3586  -36.8946   22.2054 H   0  0  0  0  0  0
  -23.7301  -37.6556   23.6656 H   0  0  0  0  0  0
  -26.0330  -31.6184   20.5968 H   0  0  0  0  0  0
  -26.8114  -30.9013   21.9780 H   0  0  0  0  0  0
  -28.0992  -29.1548   21.1506 H   0  0  0  0  0  0
  -26.1051  -25.9897   19.0091 H   0  0  0  0  0  0
  -23.9898  -27.2916   19.0341 H   0  0  0  0  0  0
  -23.7104  -30.5997   19.4052 H   0  0  0  0  0  0
  -22.7342  -29.2386   19.8709 H   0  0  0  0  0  0
  -25.1290  -36.1963   25.0833 H   0  0  0  0  0  0
  -20.9944  -28.3205   24.1437 H   0  0  0  0  0  0
  -20.5665  -26.2228   23.3606 H   0  0  0  0  0  0
  -21.6625  -26.7422   22.1202 H   0  0  0  0  0  0
  -19.6901  -25.6293   21.1227 H   0  0  0  0  0  0
  -19.6696  -27.3187   20.6750 H   0  0  0  0  0  0
  -17.4195  -26.6675   21.4001 H   0  0  0  0  0  0
  -18.0276  -26.0055   22.8994 H   0  0  0  0  0  0
  -19.7926  -30.7234   24.2273 H   0  0  0  0  0  0
  -17.5007  -31.6249   24.5150 H   0  0  0  0  0  0
  -15.5335  -30.2964   23.7659 H   0  0  0  0  0  0
  -15.8656  -28.0826   22.7029 H   0  0  0  0  0  0
  -24.5918  -30.7047   25.7843 H   0  0  0  0  0  0
  -24.9023  -32.2809   26.5022 H   0  0  0  0  0  0
  -25.8156  -30.8774   27.0205 H   0  0  0  0  0  0
  -26.2868  -29.6736   24.1217 H   0  0  0  0  0  0
  -27.4240  -29.7316   25.4496 H   0  0  0  0  0  0
  -27.8638  -30.4387   23.9125 H   0  0  0  0  0  0
  -27.2659  -33.3586   26.2109 H   0  0  0  0  0  0
  -28.3825  -32.6925   25.0279 H   0  0  0  0  0  0
  -28.0778  -31.8427   26.5345 H   0  0  0  0  0  0
  -28.2595  -38.0119   24.7475 H   0  0  0  0  0  0
  -28.1088  -36.2639   24.6306 H   0  0  0  0  0  0
  -27.2287  -37.1480   25.8859 H   0  0  0  0  0  0
  -20.9255  -29.8796   21.7024 H   0  0  0  0  0  0
  -26.0179  -38.2865   24.1389 H   0  0  0  0  0  0
  -30.9053  -23.0826   22.3722 H   0  0  0  0  0  0
  -26.1198  -21.7616   22.9286 H   0  0  0  0  0  0
  -26.5307  -22.3373   24.5754 H   0  0  0  0  0  0
  -26.5343  -20.5924   24.2092 H   0  0  0  0  0  0
  -32.2533  -20.7095   24.9052 H   0  0  0  0  0  0
  -32.9096  -19.1966   24.3099 H   0  0  0  0  0  0
  -31.2692  -19.2645   24.9711 H   0  0  0  0  0  0
  -31.9190  -17.1641   24.1689 H   0  0  0  0  0  0
  -32.7348  -16.7272   22.6747 H   0  0  0  0  0  0
  -31.4579  -15.7195   23.3319 H   0  0  0  0  0  0
  -29.5254  -18.0339   24.1334 H   0  0  0  0  0  0
  -28.9768  -16.6131   23.2873 H   0  0  0  0  0  0
  -28.6419  -18.1856   22.6002 H   0  0  0  0  0  0
  -29.6485  -25.0435   22.2254 H   0  0  0  0  0  0
  -27.7774  -25.1292   21.4330 H   0  0  0  0  0  0
  -32.2480  -18.7849   21.5025 H   0  0  0  0  0  0
  -30.6726  -19.3559   21.1332 H   0  0  0  0  0  0
  -27.1686  -23.9278   22.7450 H   0  0  0  0  0  0
  -28.4149  -24.6271   23.7246 H   0  0  0  0  0  0
  -31.3299  -16.9337   20.3653 H   0  0  0  0  0  0
  -29.6539  -17.3355   20.4716 H   0  0  0  0  0  0
  -30.0004  -26.6973   21.2599 H   0  0  0  0  0  0
  -28.5214  -26.9365   22.1466 H   0  0  0  0  0  0
  -32.2572  -20.7414   22.5081 H   0  0  0  0  0  0
  -28.8102  -19.7151   23.7478 H   0  0  0  0  0  0
  -29.1440  -15.2232   21.4923 H   0  0  0  0  0  0
  1 25  1  0  0  0
  1 30  2  0  0  0
  1 87  1  0  0  0
  2  3  1  0  0  0
  2 25  1  0  0  0
  2 88  1  0  0  0
  2 89  1  0  0  0
  3  4  1  0  0  0
  3 90  1  0  0  0
  3 91  1  0  0  0
  4  5  1  0  0  0
  4 92  1  0  0  0
  4 93  1  0  0  0
  5  6  1  0  0  0
  5 26  1  0  0  0
  5 94  1  0  0  0
  6 25  1  0  0  0
  6 95  1  0  0  0
  6 96  1  0  0  0
  7  8  2  0  0  0
  7 26  1  0  0  0
  7 29  1  0  0  0
  8  9  1  0  0  0
  8 22  1  0  0  0
  9 10  1  0  0  0
  9 27  2  0  0  0
 10 11  2  0  0  0
 10 15  1  0  0  0
 11 12  1  0  0  0
 11 97  1  0  0  0
 12 13  2  0  0  0
 12 98  1  0  0  0
 13 14  1  0  0  0
 13 31  1  0  0  0
 14 15  2  0  0  0
 14 99  1  0  0  0
 15100  1  0  0  0
 16 17  2  0  0  0
 16 21  1  0  0  0
 16 31  1  0  0  0
 17 18  1  0  0  0
 17101  1  0  0  0
 18 19  2  0  0  0
 18102  1  0  0  0
 19 20  1  0  0  0
 19 24  1  0  0  0
 20 21  2  0  0  0
 20103  1  0  0  0
 21 23  1  0  0  0
 22 28  1  0  0  0
 22 32  2  0  0  0
 26 27  1  0  0  0
 28104  1  0  0  0
 28105  1  0  0  0
 29106  1  0  0  0
 29107  1  0  0  0
 33 34  1  0  0  0
 33 66  1  0  0  0
 33 70  2  0  0  0
 34 36  1  0  0  0
 34 59  1  0  0  0
 34108  1  0  0  0
 35 44  2  0  0  0
 35 45  1  0  0  0
 35 68  1  0  0  0
 36 56  1  0  0  0
 36109  1  0  0  0
 37 39  1  0  0  0
 37 47  1  0  0  0
 37 66  1  0  0  0
 37110  1  0  0  0
 38 43  2  0  0  0
 38 46  1  0  0  0
 38 47  1  0  0  0
 39 64  1  0  0  0
 39 67  2  0  0  0
 40 52  1  0  0  0
 40 53  2  0  0  0
 40 58  1  0  0  0
 41111  1  0  0  0
 41112  1  0  0  0
 41113  1  0  0  0
 41 48  1  0  0  0
 42 43  1  0  0  0
 42 66  1  0  0  0
 42114  1  0  0  0
 42115  1  0  0  0
 43 44  1  0  0  0
 44116  1  0  0  0
 45 46  2  0  0  0
 45117  1  0  0  0
 46118  1  0  0  0
 47119  1  0  0  0
 47120  1  0  0  0
 48 56  1  0  0  0
 48 65  1  0  0  0
 48121  1  0  0  0
 49 50  1  0  0  0
 49 53  1  0  0  0
 49 64  1  0  0  0
 49122  1  0  0  0
 50 51  1  0  0  0
 50123  1  0  0  0
 50124  1  0  0  0
 51 52  1  0  0  0
 51125  1  0  0  0
 51126  1  0  0  0
 52127  1  0  0  0
 52128  1  0  0  0
 53 54  1  0  0  0
 54 55  2  0  0  0
 54129  1  0  0  0
 55 57  1  0  0  0
 55130  1  0  0  0
 56 69  2  0  0  0
 57 58  2  0  0  0
 57131  1  0  0  0
 58132  1  0  0  0
 59 60  1  0  0  0
 59 61  1  0  0  0
 59 62  1  0  0  0
 60133  1  0  0  0
 60134  1  0  0  0
 60135  1  0  0  0
 61136  1  0  0  0
 61137  1  0  0  0
 61138  1  0  0  0
 62139  1  0  0  0
 62140  1  0  0  0
 62141  1  0  0  0
 63 65  1  0  0  0
 63142  1  0  0  0
 63143  1  0  0  0
 63144  1  0  0  0
 64145  1  0  0  0
 65146  1  0  0  0
 68 82  1  0  0  0
 71 72  2  0  0  0
 71 85  1  0  0  0
 71147  1  0  0  0
 72 83  1  0  0  0
 72 86  1  0  0  0
 73 74  1  0  0  0
 73 85  1  0  0  0
 73 86  2  0  0  0
 74148  1  0  0  0
 74149  1  0  0  0
 74150  1  0  0  0
 75151  1  0  0  0
 75152  1  0  0  0
 75153  1  0  0  0
 75 83  1  0  0  0
 76154  1  0  0  0
 76155  1  0  0  0
 76156  1  0  0  0
 76 84  1  0  0  0
 77 84  1  0  0  0
 77157  1  0  0  0
 77158  1  0  0  0
 77159  1  0  0  0
 78 80  1  0  0  0
 78 82  1  0  0  0
 78160  1  0  0  0
 78161  1  0  0  0
 79 83  1  0  0  0
 79 84  1  0  0  0
 79162  1  0  0  0
 79163  1  0  0  0
 80 85  1  0  0  0
 80164  1  0  0  0
 80165  1  0  0  0
 81 84  1  0  0  0
 81 87  1  0  0  0
 81166  1  0  0  0
 81167  1  0  0  0
 82168  1  0  0  0
 82169  1  0  0  0
 83170  1  0  0  0
 86171  1  0  0  0
 87172  1  0  0  0
M  CHG  1  86   1
M  ISO  4   1 100  68 101  82 101  87 100
M  END
> <chiral flag>
0

> <version>
0

> <s_m_source_file>
/data/baiqing/PycharmProjects/Reinvent-master-3.2/result/LINK_invent/BTK/process_docking_weight1_custom_sum_contain_oxygen_bond_distance_aromatic_linkinvent_7_9_3/rearranged_h_0078.sdf

> <i_m_source_file_index>
95

> <r_mmod_Potential_Energy-OPLS-2005>
125.84693145752

> <r_mmod_Stretch_Energy-OPLS-2005>
36.7452239990234

> <r_mmod_Bend_Energy-OPLS-2005>
343.367828369141

> <r_mmod_Torsional_Energy-OPLS-2005>
270.968200683594

> <r_mmod_Improper_Torsional_Energy-OPLS-2005>
4.18207597732544

> <r_mmod_Van_der_Waal_Energy-OPLS-2005>
157.728668212891

> <r_mmod_Electrostatic_Energy-OPLS-2005>
-293.768859863281

> <r_mmod_Solvation_Energy-OPLS-2005>
-401.965942382812

> <b_mmod_Minimization_Converged-OPLS-2005>
0

> <r_mmod_RMS_Derivative-OPLS-2005>
2.31605815887451

$$$$
95
                    3D
 Structure written by MMmdl.
161169  0  0  1  0            999 V2000
  -30.5399  -14.9350   20.4163 C   0  0  0  0  0  0
  -30.4414  -12.5802   19.4800 C   0  0  0  0  0  0
  -29.5142  -12.5187   18.2451 C   0  0  0  0  0  0
  -28.0492  -12.3055   18.6723 C   0  0  0  0  0  0
  -27.6275  -13.2436   19.8326 C   0  0  2  0  0  0
  -28.6739  -13.2739   20.9644 C   0  0  0  0  0  0
  -25.2470  -13.8210   20.5725 C   0  0  0  0  0  0
  -24.1789  -13.0448   20.9252 C   0  0  0  0  0  0
  -24.6395  -11.6925   20.8770 C   0  0  0  0  0  0
  -23.9075  -10.4298   21.0422 C   0  0  0  0  0  0
  -24.3625   -9.4208   21.9195 C   0  0  0  0  0  0
  -23.6303   -8.2240   22.0755 C   0  0  0  0  0  0
  -22.4283   -8.0283   21.3547 C   0  0  0  0  0  0
  -21.9924   -9.0257   20.4646 C   0  0  0  0  0  0
  -22.7250  -10.2139   20.3065 C   0  0  0  0  0  0
  -21.6851   -6.0743   22.5277 C   0  0  0  0  0  0
  -21.4013   -6.5646   23.8210 C   0  0  0  0  0  0
  -21.3656   -5.6798   24.9174 C   0  0  0  0  0  0
  -21.6041   -4.3061   24.7224 C   0  0  0  0  0  0
  -21.8816   -3.8154   23.4344 C   0  0  0  0  0  0
  -21.9195   -4.6972   22.3400 C   0  0  0  0  0  0
  -22.7805  -13.5215   21.1896 C   0  0  0  0  0  0
  -22.1663   -4.2156   21.0978 F   0  0  0  0  0  0
  -21.5624   -3.4544   25.7734 F   0  0  0  0  0  0
  -29.9471  -13.6780   20.3551 N   0  0  0  0  0  0
  -26.2879  -12.9431   20.3236 N   0  0  0  0  0  0
  -25.9321  -11.6564   20.5747 N   0  0  0  0  0  0
  -22.0452  -12.8201   22.0440 N   0  0  0  0  0  0
  -25.4147  -15.1938   20.4126 N   0  0  0  0  0  0
  -31.7560  -15.0073   20.2133 O   0  0  0  0  0  0
  -21.6644   -6.8886   21.4237 O   0  0  0  0  0  0
  -22.3494  -14.5526   20.6743 O   0  0  0  0  0  0
  -24.6449  -31.8444   23.1870 C   0  0  0  0  0  0
  -25.9212  -32.4696   23.8268 C   0  0  1  0  0  0
  -27.2175  -27.1286   20.1489 C   0  0  0  0  0  0
  -25.5951  -33.8506   24.2184 N   0  0  0  0  0  0
  -23.4494  -30.4638   21.5346 C   0  0  2  0  0  0
  -24.8973  -28.8889   20.1136 C   0  0  0  0  0  0
  -22.7584  -29.4550   22.4862 C   0  0  0  0  0  0
  -18.0309  -28.1378   22.8458 C   0  0  0  0  0  0
  -24.1507  -36.7279   23.2638 C   0  0  0  0  0  0
  -26.0073  -30.7144   21.3890 C   0  0  0  0  0  0
  -26.0769  -29.3253   20.7297 C   0  0  0  0  0  0
  -27.2387  -28.4631   20.7274 C   0  0  0  0  0  0
  -26.0079  -26.7948   19.5003 C   0  0  0  0  0  0
  -24.8761  -27.6366   19.4836 C   0  0  0  0  0  0
  -23.6759  -29.7940   20.1546 C   0  0  0  0  0  0
  -25.4138  -36.3045   24.0307 C   0  0  1  0  0  0
  -20.5925  -28.3721   23.1217 C   0  0  2  0  0  0
  -20.6809  -26.9427   22.5388 C   0  0  0  0  0  0
  -19.5782  -26.6376   21.5200 C   0  0  0  0  0  0
  -18.1961  -26.7916   22.1605 C   0  0  0  0  0  0
  -19.1565  -28.8867   23.2827 C   0  0  0  0  0  0
  -18.9479  -30.1461   23.8856 C   0  0  0  0  0  0
  -17.6475  -30.6573   24.0549 C   0  0  0  0  0  0
  -25.9079  -34.9416   23.5058 C   0  0  0  0  0  0
  -16.5364  -29.9061   23.6331 C   0  0  0  0  0  0
  -16.7294  -28.6482   23.0345 C   0  0  0  0  0  0
  -26.4517  -31.6552   25.0708 C   0  0  0  0  0  0
  -25.3677  -31.3742   26.1379 C   0  0  0  0  0  0
  -27.0400  -30.2945   24.6322 C   0  0  0  0  0  0
  -27.6047  -32.4329   25.7474 C   0  0  0  0  0  0
  -27.5599  -37.1801   24.8456 C   0  0  0  0  0  0
  -21.4280  -29.3045   22.3597 N   0  0  0  0  0  0
  -26.4308  -37.3753   23.9392 N   0  0  0  0  0  0
  -24.7206  -31.0296   22.0910 N   0  0  0  0  0  0
  -23.4217  -28.8109   23.3030 O   0  0  0  0  0  0
  -28.2676  -26.1366   20.2106 O   0  0  0  0  0  0
  -26.5676  -34.8913   22.4643 O   0  0  0  0  0  0
  -23.5566  -32.1311   23.7087 O   0  0  0  0  0  0
  -27.0723  -21.5945   19.9780 C   0  0  0  0  0  0
  -26.3224  -20.7178   20.7852 C   0  0  0  0  0  0
  -28.4554  -21.6906   20.2238 C   0  0  0  0  0  0
  -27.0013  -20.0464   21.8265 C   0  0  0  0  0  0
  -29.0367  -20.4321   20.8085 C   0  0  0  0  0  0
  -24.8126  -20.6397   20.6293 C   0  0  0  0  0  0
  -26.2594  -19.2676   22.8965 C   0  0  0  0  0  0
  -29.8671  -19.1724   18.6727 C   0  0  0  0  0  0
  -28.9692  -23.2603   20.3042 C   0  0  0  0  0  0
  -30.0178  -17.6371   20.7895 C   0  0  0  0  0  0
  -27.9658  -24.6095   20.0741 C   0  0  0  0  0  0
  -29.2530  -18.9618   20.0617 C   0  0  1  0  0  0
  -28.3528  -20.0364   21.9061 N   0  0  0  0  0  0
  -29.7384  -16.1038   20.5019 N   0  0  0  0  0  0
  -31.4709  -12.7484   19.1598 H   0  0  0  0  0  0
  -30.4430  -11.6297   20.0156 H   0  0  0  0  0  0
  -29.8264  -11.7181   17.5734 H   0  0  0  0  0  0
  -29.5983  -13.4462   17.6773 H   0  0  0  0  0  0
  -27.9479  -11.2667   18.9884 H   0  0  0  0  0  0
  -27.3800  -12.4289   17.8196 H   0  0  0  0  0  0
  -27.5890  -14.2433   19.3995 H   0  0  0  0  0  0
  -28.7591  -12.3028   21.4523 H   0  0  0  0  0  0
  -28.3789  -13.9847   21.7380 H   0  0  0  0  0  0
  -25.2760   -9.5683   22.4786 H   0  0  0  0  0  0
  -24.0004   -7.4629   22.7473 H   0  0  0  0  0  0
  -21.0854   -8.8778   19.8953 H   0  0  0  0  0  0
  -22.3699  -10.9687   19.6186 H   0  0  0  0  0  0
  -21.2005   -7.6154   23.9713 H   0  0  0  0  0  0
  -21.1478   -6.0531   25.9074 H   0  0  0  0  0  0
  -22.0600   -2.7616   23.2841 H   0  0  0  0  0  0
  -22.4067  -11.9857   22.4816 H   0  0  0  0  0  0
  -21.1065  -13.1215   22.2645 H   0  0  0  0  0  0
  -24.6414  -15.8412   20.5181 H   0  0  0  0  0  0
  -26.2427  -15.6269   20.0266 H   0  0  0  0  0  0
  -26.7278  -32.5306   23.1000 H   0  0  0  0  0  0
  -25.0061  -33.9604   25.0308 H   0  0  0  0  0  0
  -22.7513  -31.2900   21.3821 H   0  0  0  0  0  0
  -23.3767  -35.9612   23.3269 H   0  0  0  0  0  0
  -24.3589  -36.8957   22.2061 H   0  0  0  0  0  0
  -23.7280  -37.6478   23.6691 H   0  0  0  0  0  0
  -26.1733  -31.4683   20.6180 H   0  0  0  0  0  0
  -26.8727  -30.7580   22.0379 H   0  0  0  0  0  0
  -28.1385  -28.7957   21.2246 H   0  0  0  0  0  0
  -25.8985  -25.8385   19.0135 H   0  0  0  0  0  0
  -23.9751  -27.2952   18.9933 H   0  0  0  0  0  0
  -23.8136  -30.5677   19.3978 H   0  0  0  0  0  0
  -22.7893  -29.2384   19.8441 H   0  0  0  0  0  0
  -25.1336  -36.1877   25.0800 H   0  0  0  0  0  0
  -21.0010  -28.3317   24.1337 H   0  0  0  0  0  0
  -20.5735  -26.2335   23.3610 H   0  0  0  0  0  0
  -21.6679  -26.7450   22.1183 H   0  0  0  0  0  0
  -19.6951  -25.6280   21.1256 H   0  0  0  0  0  0
  -19.6723  -27.3155   20.6709 H   0  0  0  0  0  0
  -17.4249  -26.6650   21.3991 H   0  0  0  0  0  0
  -18.0349  -26.0052   22.8994 H   0  0  0  0  0  0
  -19.7956  -30.7284   24.2218 H   0  0  0  0  0  0
  -17.5024  -31.6248   24.5158 H   0  0  0  0  0  0
  -15.5359  -30.2948   23.7687 H   0  0  0  0  0  0
  -15.8695  -28.0797   22.7076 H   0  0  0  0  0  0
  -24.5851  -30.7108   25.7662 H   0  0  0  0  0  0
  -24.8857  -32.2927   26.4737 H   0  0  0  0  0  0
  -25.7922  -30.8936   27.0201 H   0  0  0  0  0  0
  -26.3034  -29.6621   24.1352 H   0  0  0  0  0  0
  -27.4025  -29.7282   25.4911 H   0  0  0  0  0  0
  -27.8936  -30.4164   23.9651 H   0  0  0  0  0  0
  -27.2648  -33.3656   26.1979 H   0  0  0  0  0  0
  -28.3873  -32.6849   25.0298 H   0  0  0  0  0  0
  -28.0692  -31.8512   26.5441 H   0  0  0  0  0  0
  -28.2603  -38.0116   24.7529 H   0  0  0  0  0  0
  -28.1134  -36.2653   24.6271 H   0  0  0  0  0  0
  -27.2315  -37.1436   25.8860 H   0  0  0  0  0  0
  -20.9493  -29.8761   21.6774 H   0  0  0  0  0  0
  -26.0186  -38.2838   24.1349 H   0  0  0  0  0  0
  -26.5499  -22.3366   19.3921 H   0  0  0  0  0  0
  -24.4906  -21.0731   19.6817 H   0  0  0  0  0  0
  -24.3138  -21.1791   21.4337 H   0  0  0  0  0  0
  -24.4739  -19.6034   20.6484 H   0  0  0  0  0  0
  -25.5619  -19.9143   23.4303 H   0  0  0  0  0  0
  -26.9420  -18.8333   23.6274 H   0  0  0  0  0  0
  -25.6932  -18.4528   22.4469 H   0  0  0  0  0  0
  -29.2605  -19.8530   18.0745 H   0  0  0  0  0  0
  -29.9382  -18.2296   18.1301 H   0  0  0  0  0  0
  -30.8699  -19.5927   18.7474 H   0  0  0  0  0  0
  -29.7974  -23.3434   19.6007 H   0  0  0  0  0  0
  -29.4231  -23.3687   21.2892 H   0  0  0  0  0  0
  -29.7975  -17.7260   21.8528 H   0  0  0  0  0  0
  -31.0949  -17.7959   20.7321 H   0  0  0  0  0  0
  -27.1068  -24.4441   20.7258 H   0  0  0  0  0  0
  -27.5902  -24.4901   19.0584 H   0  0  0  0  0  0
  -28.2401  -18.6082   19.8613 H   0  0  0  0  0  0
  -28.7556  -15.8778   20.5172 H   0  0  0  0  0  0
  1 25  1  0  0  0
  1 30  2  0  0  0
  1 84  1  0  0  0
  2  3  1  0  0  0
  2 25  1  0  0  0
  2 85  1  0  0  0
  2 86  1  0  0  0
  3  4  1  0  0  0
  3 87  1  0  0  0
  3 88  1  0  0  0
  4  5  1  0  0  0
  4 89  1  0  0  0
  4 90  1  0  0  0
  5  6  1  0  0  0
  5 26  1  0  0  0
  5 91  1  0  0  0
  6 25  1  0  0  0
  6 92  1  0  0  0
  6 93  1  0  0  0
  7  8  2  0  0  0
  7 26  1  0  0  0
  7 29  1  0  0  0
  8  9  1  0  0  0
  8 22  1  0  0  0
  9 10  1  0  0  0
  9 27  2  0  0  0
 10 11  2  0  0  0
 10 15  1  0  0  0
 11 12  1  0  0  0
 11 94  1  0  0  0
 12 13  2  0  0  0
 12 95  1  0  0  0
 13 14  1  0  0  0
 13 31  1  0  0  0
 14 15  2  0  0  0
 14 96  1  0  0  0
 15 97  1  0  0  0
 16 17  2  0  0  0
 16 21  1  0  0  0
 16 31  1  0  0  0
 17 18  1  0  0  0
 17 98  1  0  0  0
 18 19  2  0  0  0
 18 99  1  0  0  0
 19 20  1  0  0  0
 19 24  1  0  0  0
 20 21  2  0  0  0
 20100  1  0  0  0
 21 23  1  0  0  0
 22 28  1  0  0  0
 22 32  2  0  0  0
 26 27  1  0  0  0
 28101  1  0  0  0
 28102  1  0  0  0
 29103  1  0  0  0
 29104  1  0  0  0
 33 34  1  0  0  0
 33 66  1  0  0  0
 33 70  2  0  0  0
 34 36  1  0  0  0
 34 59  1  0  0  0
 34105  1  0  0  0
 35 44  2  0  0  0
 35 45  1  0  0  0
 35 68  1  0  0  0
 36 56  1  0  0  0
 36106  1  0  0  0
 37 39  1  0  0  0
 37 47  1  0  0  0
 37 66  1  0  0  0
 37107  1  0  0  0
 38 43  2  0  0  0
 38 46  1  0  0  0
 38 47  1  0  0  0
 39 64  1  0  0  0
 39 67  2  0  0  0
 40 52  1  0  0  0
 40 53  2  0  0  0
 40 58  1  0  0  0
 41108  1  0  0  0
 41109  1  0  0  0
 41110  1  0  0  0
 41 48  1  0  0  0
 42 43  1  0  0  0
 42 66  1  0  0  0
 42111  1  0  0  0
 42112  1  0  0  0
 43 44  1  0  0  0
 44113  1  0  0  0
 45 46  2  0  0  0
 45114  1  0  0  0
 46115  1  0  0  0
 47116  1  0  0  0
 47117  1  0  0  0
 48 56  1  0  0  0
 48 65  1  0  0  0
 48118  1  0  0  0
 49 50  1  0  0  0
 49 53  1  0  0  0
 49 64  1  0  0  0
 49119  1  0  0  0
 50 51  1  0  0  0
 50120  1  0  0  0
 50121  1  0  0  0
 51 52  1  0  0  0
 51122  1  0  0  0
 51123  1  0  0  0
 52124  1  0  0  0
 52125  1  0  0  0
 53 54  1  0  0  0
 54 55  2  0  0  0
 54126  1  0  0  0
 55 57  1  0  0  0
 55127  1  0  0  0
 56 69  2  0  0  0
 57 58  2  0  0  0
 57128  1  0  0  0
 58129  1  0  0  0
 59 60  1  0  0  0
 59 61  1  0  0  0
 59 62  1  0  0  0
 60130  1  0  0  0
 60131  1  0  0  0
 60132  1  0  0  0
 61133  1  0  0  0
 61134  1  0  0  0
 61135  1  0  0  0
 62136  1  0  0  0
 62137  1  0  0  0
 62138  1  0  0  0
 63 65  1  0  0  0
 63139  1  0  0  0
 63140  1  0  0  0
 63141  1  0  0  0
 64142  1  0  0  0
 65143  1  0  0  0
 68 81  1  0  0  0
 71 72  2  0  0  0
 71 73  1  0  0  0
 71144  1  0  0  0
 72 74  1  0  0  0
 72 76  1  0  0  0
 73 75  2  0  0  0
 73 79  1  0  0  0
 74 77  1  0  0  0
 74 83  2  0  0  0
 75 82  1  0  0  0
 75 83  1  0  0  0
 76145  1  0  0  0
 76146  1  0  0  0
 76147  1  0  0  0
 77148  1  0  0  0
 77149  1  0  0  0
 77150  1  0  0  0
 78151  1  0  0  0
 78152  1  0  0  0
 78153  1  0  0  0
 78 82  1  0  0  0
 79 81  1  0  0  0
 79154  1  0  0  0
 79155  1  0  0  0
 80 82  1  0  0  0
 80 84  1  0  0  0
 80156  1  0  0  0
 80157  1  0  0  0
 81158  1  0  0  0
 81159  1  0  0  0
 82160  1  0  0  0
 84161  1  0  0  0
M  ISO  4   1 100  68 101  81 101  84 100
M  END
> <chiral flag>
0

> <version>
0

> <s_m_source_file>
/data/baiqing/PycharmProjects/Reinvent-master-3.2/result/LINK_invent/BTK/process_docking_weight1_custom_sum_contain_oxygen_bond_distance_aromatic_linkinvent_7_9_3/rearranged_h_0078.sdf

> <i_m_source_file_index>
96

> <r_mmod_Potential_Energy-OPLS-2005>
542.635986328125

> <r_mmod_Stretch_Energy-OPLS-2005>
277.390502929688

> <r_mmod_Bend_Energy-OPLS-2005>
290.842834472656

> <r_mmod_Torsional_Energy-OPLS-2005>
393.147064208984

> <r_mmod_Improper_Torsional_Energy-OPLS-2005>
26.7285308837891

> <r_mmod_Van_der_Waal_Energy-OPLS-2005>
138.518798828125

> <r_mmod_Electrostatic_Energy-OPLS-2005>
-554.062316894531

> <r_mmod_Solvation_Energy-OPLS-2005>
-223.92008972168

> <b_mmod_Minimization_Converged-OPLS-2005>
0

> <r_mmod_RMS_Derivative-OPLS-2005>
1.47809147834778

$$$$
96
                    3D
 Structure written by MMmdl.
155163  0  0  1  0            999 V2000
  -30.5650  -14.8742   20.4396 C   0  0  0  0  0  0
  -30.4412  -12.5420   19.4817 C   0  0  0  0  0  0
  -29.5170  -12.5226   18.2433 C   0  0  0  0  0  0
  -28.0484  -12.3189   18.6633 C   0  0  0  0  0  0
  -27.6351  -13.2400   19.8414 C   0  0  2  0  0  0
  -28.6809  -13.2335   20.9761 C   0  0  0  0  0  0
  -25.2489  -13.8199   20.5704 C   0  0  0  0  0  0
  -24.1796  -13.0432   20.9216 C   0  0  0  0  0  0
  -24.6404  -11.6913   20.8756 C   0  0  0  0  0  0
  -23.9084  -10.4287   21.0411 C   0  0  0  0  0  0
  -24.3631   -9.4203   21.9190 C   0  0  0  0  0  0
  -23.6300   -8.2240   22.0760 C   0  0  0  0  0  0
  -22.4280   -8.0284   21.3550 C   0  0  0  0  0  0
  -21.9922   -9.0260   20.4650 C   0  0  0  0  0  0
  -22.7257  -10.2136   20.3060 C   0  0  0  0  0  0
  -21.6855   -6.0738   22.5279 C   0  0  0  0  0  0
  -21.4015   -6.5642   23.8213 C   0  0  0  0  0  0
  -21.3658   -5.6796   24.9175 C   0  0  0  0  0  0
  -21.6045   -4.3060   24.7226 C   0  0  0  0  0  0
  -21.8819   -3.8149   23.4349 C   0  0  0  0  0  0
  -21.9194   -4.6964   22.3403 C   0  0  0  0  0  0
  -22.7819  -13.5211   21.1872 C   0  0  0  0  0  0
  -22.1663   -4.2151   21.0981 F   0  0  0  0  0  0
  -21.5627   -3.4542   25.7739 F   0  0  0  0  0  0
  -29.9638  -13.6259   20.3792 N   0  0  0  0  0  0
  -26.2913  -12.9419   20.3254 N   0  0  0  0  0  0
  -25.9334  -11.6555   20.5741 N   0  0  0  0  0  0
  -22.0472  -12.8199   22.0431 N   0  0  0  0  0  0
  -25.4154  -15.1929   20.4114 N   0  0  0  0  0  0
  -31.7687  -14.9602   20.1793 O   0  0  0  0  0  0
  -21.6642   -6.8883   21.4243 O   0  0  0  0  0  0
  -22.3500  -14.5516   20.6721 O   0  0  0  0  0  0
  -24.6399  -31.8484   23.1921 C   0  0  0  0  0  0
  -25.9185  -32.4720   23.8299 C   0  0  1  0  0  0
  -27.2141  -27.1748   20.1511 C   0  0  0  0  0  0
  -25.5949  -33.8524   24.2215 N   0  0  0  0  0  0
  -23.4420  -30.4698   21.5367 C   0  0  2  0  0  0
  -24.8926  -28.9033   20.1117 C   0  0  0  0  0  0
  -22.7545  -29.4582   22.4874 C   0  0  0  0  0  0
  -18.0304  -28.1396   22.8477 C   0  0  0  0  0  0
  -24.1491  -36.7265   23.2641 C   0  0  0  0  0  0
  -25.9961  -30.7337   21.3872 C   0  0  0  0  0  0
  -26.0695  -29.3482   20.7300 C   0  0  0  0  0  0
  -27.2362  -28.4993   20.7350 C   0  0  0  0  0  0
  -26.0195  -26.8283   19.4853 C   0  0  0  0  0  0
  -24.8774  -27.6540   19.4747 C   0  0  0  0  0  0
  -23.6675  -29.8015   20.1553 C   0  0  0  0  0  0
  -25.4123  -36.3047   24.0317 C   0  0  1  0  0  0
  -20.5912  -28.3730   23.1238 C   0  0  2  0  0  0
  -20.6795  -26.9437   22.5403 C   0  0  0  0  0  0
  -19.5771  -26.6385   21.5212 C   0  0  0  0  0  0
  -18.1951  -26.7934   22.1623 C   0  0  0  0  0  0
  -19.1559  -28.8879   23.2852 C   0  0  0  0  0  0
  -18.9473  -30.1475   23.8878 C   0  0  0  0  0  0
  -17.6469  -30.6593   24.0556 C   0  0  0  0  0  0
  -25.9070  -34.9422   23.5074 C   0  0  0  0  0  0
  -16.5363  -29.9082   23.6333 C   0  0  0  0  0  0
  -16.7288  -28.6500   23.0356 C   0  0  0  0  0  0
  -26.4518  -31.6574   25.0725 C   0  0  0  0  0  0
  -25.3710  -31.3753   26.1424 C   0  0  0  0  0  0
  -27.0380  -30.2974   24.6282 C   0  0  0  0  0  0
  -27.6052  -32.4335   25.7512 C   0  0  0  0  0  0
  -27.5578  -37.1793   24.8466 C   0  0  0  0  0  0
  -21.4240  -29.3068   22.3614 N   0  0  0  0  0  0
  -26.4291  -37.3754   23.9407 N   0  0  0  0  0  0
  -24.7120  -31.0375   22.0939 N   0  0  0  0  0  0
  -23.4200  -28.8123   23.3010 O   0  0  0  0  0  0
  -28.2415  -26.1743   20.1876 O   0  0  0  0  0  0
  -26.5650  -34.8909   22.4649 O   0  0  0  0  0  0
  -23.5527  -32.1345   23.7160 O   0  0  0  0  0  0
  -29.3768  -22.8012   19.6529 C   0  0  0  0  0  0
  -29.6912  -21.3858   19.5281 C   0  0  0  0  0  0
  -28.4220  -23.2959   20.5981 C   0  0  0  0  0  0
  -29.0942  -20.3686   20.3450 C   0  0  0  0  0  0
  -27.8952  -22.2034   21.3841 C   0  0  0  0  0  0
  -25.4029  -22.2667   21.8679 C   0  0  0  0  0  0
  -27.8712  -24.8323   20.8347 C   0  0  0  0  0  0
  -29.1254  -18.7476   20.0571 C   0  0  0  0  0  0
  -26.8186  -22.4464   22.4352 C   0  0  0  0  0  0
  -30.0808  -17.5649   20.7343 C   0  0  0  0  0  0
  -28.2094  -20.8569   21.2620 N   0  0  0  0  0  0
  -29.7705  -16.0282   20.5936 N   0  0  0  0  0  0
  -31.4764  -12.6950   19.1730 H   0  0  0  0  0  0
  -30.4208  -11.5808   19.9972 H   0  0  0  0  0  0
  -29.8219  -11.7349   17.5528 H   0  0  0  0  0  0
  -29.6153  -13.4627   17.6984 H   0  0  0  0  0  0
  -27.9345  -11.2746   18.9567 H   0  0  0  0  0  0
  -27.3853  -12.4709   17.8111 H   0  0  0  0  0  0
  -27.6092  -14.2492   19.4300 H   0  0  0  0  0  0
  -28.7516  -12.2493   21.4413 H   0  0  0  0  0  0
  -28.3953  -13.9286   21.7670 H   0  0  0  0  0  0
  -25.2777   -9.5678   22.4766 H   0  0  0  0  0  0
  -24.0007   -7.4633   22.7481 H   0  0  0  0  0  0
  -21.0853   -8.8783   19.8958 H   0  0  0  0  0  0
  -22.3718  -10.9677   19.6171 H   0  0  0  0  0  0
  -21.2009   -7.6151   23.9717 H   0  0  0  0  0  0
  -21.1479   -6.0527   25.9079 H   0  0  0  0  0  0
  -22.0599   -2.7610   23.2848 H   0  0  0  0  0  0
  -22.4094  -11.9854   22.4802 H   0  0  0  0  0  0
  -21.1092  -13.1220   22.2645 H   0  0  0  0  0  0
  -24.6421  -15.8404   20.5177 H   0  0  0  0  0  0
  -26.2514  -15.6348   20.0527 H   0  0  0  0  0  0
  -26.7254  -32.5338   23.1036 H   0  0  0  0  0  0
  -25.0081  -33.9646   25.0352 H   0  0  0  0  0  0
  -22.7433  -31.2947   21.3843 H   0  0  0  0  0  0
  -23.3756  -35.9595   23.3296 H   0  0  0  0  0  0
  -24.3578  -36.8903   22.2057 H   0  0  0  0  0  0
  -23.7242  -37.6460   23.6680 H   0  0  0  0  0  0
  -26.1481  -31.4898   20.6156 H   0  0  0  0  0  0
  -26.8680  -30.7838   22.0279 H   0  0  0  0  0  0
  -28.1333  -28.8320   21.2385 H   0  0  0  0  0  0
  -25.9512  -25.8703   18.9890 H   0  0  0  0  0  0
  -23.9807  -27.3085   18.9785 H   0  0  0  0  0  0
  -23.8016  -30.5768   19.4002 H   0  0  0  0  0  0
  -22.7832  -29.2419   19.8451 H   0  0  0  0  0  0
  -25.1310  -36.1886   25.0810 H   0  0  0  0  0  0
  -21.0009  -28.3320   24.1358 H   0  0  0  0  0  0
  -20.5690  -26.2343   23.3619 H   0  0  0  0  0  0
  -21.6664  -26.7448   22.1203 H   0  0  0  0  0  0
  -19.6940  -25.6287   21.1263 H   0  0  0  0  0  0
  -19.6706  -27.3177   20.6727 H   0  0  0  0  0  0
  -17.4223  -26.6669   21.4025 H   0  0  0  0  0  0
  -18.0353  -26.0080   22.9024 H   0  0  0  0  0  0
  -19.7947  -30.7300   24.2240 H   0  0  0  0  0  0
  -17.5022  -31.6271   24.5163 H   0  0  0  0  0  0
  -15.5361  -30.2977   23.7666 H   0  0  0  0  0  0
  -15.8690  -28.0806   22.7086 H   0  0  0  0  0  0
  -24.5893  -30.7097   25.7744 H   0  0  0  0  0  0
  -24.8892  -32.2932   26.4804 H   0  0  0  0  0  0
  -25.7998  -30.8957   27.0232 H   0  0  0  0  0  0
  -26.2990  -29.6705   24.1275 H   0  0  0  0  0  0
  -27.3991  -29.7264   25.4847 H   0  0  0  0  0  0
  -27.8902  -30.4218   23.9595 H   0  0  0  0  0  0
  -27.2642  -33.3648   26.2048 H   0  0  0  0  0  0
  -28.3887  -32.6877   25.0359 H   0  0  0  0  0  0
  -28.0693  -31.8488   26.5466 H   0  0  0  0  0  0
  -28.2592  -38.0091   24.7510 H   0  0  0  0  0  0
  -28.1077  -36.2623   24.6299 H   0  0  0  0  0  0
  -27.2295  -37.1446   25.8867 H   0  0  0  0  0  0
  -20.9441  -29.8771   21.6790 H   0  0  0  0  0  0
  -26.0162  -38.2827   24.1403 H   0  0  0  0  0  0
  -29.8526  -23.5025   18.9830 H   0  0  0  0  0  0
  -30.3697  -21.0797   18.7426 H   0  0  0  0  0  0
  -25.2600  -21.2541   21.4897 H   0  0  0  0  0  0
  -25.2107  -22.9561   21.0459 H   0  0  0  0  0  0
  -24.6500  -22.4449   22.6356 H   0  0  0  0  0  0
  -28.0850  -25.0267   21.8858 H   0  0  0  0  0  0
  -26.7878  -24.7337   20.7991 H   0  0  0  0  0  0
  -29.2495  -18.6556   18.9781 H   0  0  0  0  0  0
  -28.0978  -18.4271   20.2278 H   0  0  0  0  0  0
  -26.9207  -23.4287   22.8914 H   0  0  0  0  0  0
  -26.9632  -21.7434   23.2571 H   0  0  0  0  0  0
  -30.0888  -17.7535   21.8085 H   0  0  0  0  0  0
  -31.1088  -17.7328   20.4118 H   0  0  0  0  0  0
  -28.7943  -15.8050   20.7147 H   0  0  0  0  0  0
  1 25  1  0  0  0
  1 30  2  0  0  0
  1 82  1  0  0  0
  2  3  1  0  0  0
  2 25  1  0  0  0
  2 83  1  0  0  0
  2 84  1  0  0  0
  3  4  1  0  0  0
  3 85  1  0  0  0
  3 86  1  0  0  0
  4  5  1  0  0  0
  4 87  1  0  0  0
  4 88  1  0  0  0
  5  6  1  0  0  0
  5 26  1  0  0  0
  5 89  1  0  0  0
  6 25  1  0  0  0
  6 90  1  0  0  0
  6 91  1  0  0  0
  7  8  2  0  0  0
  7 26  1  0  0  0
  7 29  1  0  0  0
  8  9  1  0  0  0
  8 22  1  0  0  0
  9 10  1  0  0  0
  9 27  2  0  0  0
 10 11  2  0  0  0
 10 15  1  0  0  0
 11 12  1  0  0  0
 11 92  1  0  0  0
 12 13  2  0  0  0
 12 93  1  0  0  0
 13 14  1  0  0  0
 13 31  1  0  0  0
 14 15  2  0  0  0
 14 94  1  0  0  0
 15 95  1  0  0  0
 16 17  2  0  0  0
 16 21  1  0  0  0
 16 31  1  0  0  0
 17 18  1  0  0  0
 17 96  1  0  0  0
 18 19  2  0  0  0
 18 97  1  0  0  0
 19 20  1  0  0  0
 19 24  1  0  0  0
 20 21  2  0  0  0
 20 98  1  0  0  0
 21 23  1  0  0  0
 22 28  1  0  0  0
 22 32  2  0  0  0
 26 27  1  0  0  0
 28 99  1  0  0  0
 28100  1  0  0  0
 29101  1  0  0  0
 29102  1  0  0  0
 33 34  1  0  0  0
 33 66  1  0  0  0
 33 70  2  0  0  0
 34 36  1  0  0  0
 34 59  1  0  0  0
 34103  1  0  0  0
 35 44  2  0  0  0
 35 45  1  0  0  0
 35 68  1  0  0  0
 36 56  1  0  0  0
 36104  1  0  0  0
 37 39  1  0  0  0
 37 47  1  0  0  0
 37 66  1  0  0  0
 37105  1  0  0  0
 38 43  2  0  0  0
 38 46  1  0  0  0
 38 47  1  0  0  0
 39 64  1  0  0  0
 39 67  2  0  0  0
 40 52  1  0  0  0
 40 53  2  0  0  0
 40 58  1  0  0  0
 41106  1  0  0  0
 41107  1  0  0  0
 41108  1  0  0  0
 41 48  1  0  0  0
 42 43  1  0  0  0
 42 66  1  0  0  0
 42109  1  0  0  0
 42110  1  0  0  0
 43 44  1  0  0  0
 44111  1  0  0  0
 45 46  2  0  0  0
 45112  1  0  0  0
 46113  1  0  0  0
 47114  1  0  0  0
 47115  1  0  0  0
 48 56  1  0  0  0
 48 65  1  0  0  0
 48116  1  0  0  0
 49 50  1  0  0  0
 49 53  1  0  0  0
 49 64  1  0  0  0
 49117  1  0  0  0
 50 51  1  0  0  0
 50118  1  0  0  0
 50119  1  0  0  0
 51 52  1  0  0  0
 51120  1  0  0  0
 51121  1  0  0  0
 52122  1  0  0  0
 52123  1  0  0  0
 53 54  1  0  0  0
 54 55  2  0  0  0
 54124  1  0  0  0
 55 57  1  0  0  0
 55125  1  0  0  0
 56 69  2  0  0  0
 57 58  2  0  0  0
 57126  1  0  0  0
 58127  1  0  0  0
 59 60  1  0  0  0
 59 61  1  0  0  0
 59 62  1  0  0  0
 60128  1  0  0  0
 60129  1  0  0  0
 60130  1  0  0  0
 61131  1  0  0  0
 61132  1  0  0  0
 61133  1  0  0  0
 62134  1  0  0  0
 62135  1  0  0  0
 62136  1  0  0  0
 63 65  1  0  0  0
 63137  1  0  0  0
 63138  1  0  0  0
 63139  1  0  0  0
 64140  1  0  0  0
 65141  1  0  0  0
 68 77  1  0  0  0
 71 72  2  0  0  0
 71 73  1  0  0  0
 71142  1  0  0  0
 72 74  1  0  0  0
 72143  1  0  0  0
 73 75  2  0  0  0
 73 77  1  0  0  0
 74 78  1  0  0  0
 74 81  2  0  0  0
 75 79  1  0  0  0
 75 81  1  0  0  0
 76 79  1  0  0  0
 76144  1  0  0  0
 76145  1  0  0  0
 76146  1  0  0  0
 77147  1  0  0  0
 77148  1  0  0  0
 78 80  1  0  0  0
 78149  1  0  0  0
 78150  1  0  0  0
 79151  1  0  0  0
 79152  1  0  0  0
 80 82  1  0  0  0
 80153  1  0  0  0
 80154  1  0  0  0
 82155  1  0  0  0
M  ISO  4   1 100  68 101  77 101  82 100
M  END
> <chiral flag>
0

> <version>
0

> <s_m_source_file>
/data/baiqing/PycharmProjects/Reinvent-master-3.2/result/LINK_invent/BTK/process_docking_weight1_custom_sum_contain_oxygen_bond_distance_aromatic_linkinvent_7_9_3/rearranged_h_0078.sdf

> <i_m_source_file_index>
97

> <r_mmod_Potential_Energy-OPLS-2005>
261.046905517578

> <r_mmod_Stretch_Energy-OPLS-2005>
200.500701904297

> <r_mmod_Bend_Energy-OPLS-2005>
254.447647094727

> <r_mmod_Torsional_Energy-OPLS-2005>
223.786376953125

> <r_mmod_Improper_Torsional_Energy-OPLS-2005>
6.2089409828186

> <r_mmod_Van_der_Waal_Energy-OPLS-2005>
135.115264892578

> <r_mmod_Electrostatic_Energy-OPLS-2005>
-493.775177001953

> <r_mmod_Solvation_Energy-OPLS-2005>
-221.814498901367

> <b_mmod_Minimization_Converged-OPLS-2005>
0

> <r_mmod_RMS_Derivative-OPLS-2005>
0.821112394332886

$$$$
97
                    3D
 Structure written by MMmdl.
169177  0  0  1  0            999 V2000
  -30.6479  -14.5220   20.5675 C   0  0  0  0  0  0
  -30.4444  -12.3310   19.4321 C   0  0  0  0  0  0
  -29.5161  -12.5189   18.2109 C   0  0  0  0  0  0
  -28.0311  -12.3830   18.6101 C   0  0  0  0  0  0
  -27.6694  -13.2082   19.8767 C   0  0  2  0  0  0
  -28.7078  -12.9635   20.9973 C   0  0  0  0  0  0
  -25.2623  -13.8157   20.5674 C   0  0  0  0  0  0
  -24.1864  -13.0434   20.9152 C   0  0  0  0  0  0
  -24.6410  -11.6903   20.8684 C   0  0  0  0  0  0
  -23.9069  -10.4295   21.0362 C   0  0  0  0  0  0
  -24.3607   -9.4221   21.9146 C   0  0  0  0  0  0
  -23.6291   -8.2256   22.0731 C   0  0  0  0  0  0
  -22.4273   -8.0283   21.3525 C   0  0  0  0  0  0
  -21.9912   -9.0255   20.4634 C   0  0  0  0  0  0
  -22.7229  -10.2137   20.3022 C   0  0  0  0  0  0
  -21.6861   -6.0734   22.5282 C   0  0  0  0  0  0
  -21.4009   -6.5634   23.8213 C   0  0  0  0  0  0
  -21.3656   -5.6776   24.9176 C   0  0  0  0  0  0
  -21.6039   -4.3039   24.7218 C   0  0  0  0  0  0
  -21.8816   -3.8134   23.4343 C   0  0  0  0  0  0
  -21.9197   -4.6960   22.3397 C   0  0  0  0  0  0
  -22.7876  -13.5241   21.1810 C   0  0  0  0  0  0
  -22.1662   -4.2148   21.0972 F   0  0  0  0  0  0
  -21.5639   -3.4529   25.7733 F   0  0  0  0  0  0
  -30.0428  -13.3017   20.4669 N   0  0  0  0  0  0
  -26.3072  -12.9340   20.3324 N   0  0  0  0  0  0
  -25.9343  -11.6496   20.5679 N   0  0  0  0  0  0
  -22.0500  -12.8249   22.0370 N   0  0  0  0  0  0
  -25.4352  -15.1883   20.4138 N   0  0  0  0  0  0
  -31.7222  -14.7878   20.0206 O   0  0  0  0  0  0
  -21.6633   -6.8879   21.4249 O   0  0  0  0  0  0
  -22.3575  -14.5537   20.6639 O   0  0  0  0  0  0
  -24.6201  -31.8640   23.2080 C   0  0  0  0  0  0
  -25.9068  -32.4802   23.8394 C   0  0  1  0  0  0
  -27.2228  -27.3707   20.1010 C   0  0  0  0  0  0
  -25.5892  -33.8602   24.2298 N   0  0  0  0  0  0
  -23.4091  -30.4919   21.5477 C   0  0  2  0  0  0
  -24.8514  -28.9482   20.1152 C   0  0  0  0  0  0
  -22.7420  -29.4664   22.4928 C   0  0  0  0  0  0
  -18.0274  -28.1395   22.8496 C   0  0  0  0  0  0
  -24.1463  -36.7301   23.2641 C   0  0  0  0  0  0
  -25.9470  -30.8080   21.3723 C   0  0  0  0  0  0
  -26.0166  -29.4403   20.7141 C   0  0  0  0  0  0
  -27.2015  -28.6587   20.7030 C   0  0  0  0  0  0
  -26.0246  -26.8984   19.5184 C   0  0  0  0  0  0
  -24.8517  -27.6768   19.5173 C   0  0  0  0  0  0
  -23.6208  -29.8278   20.1620 C   0  0  0  0  0  0
  -25.4091  -36.3099   24.0333 C   0  0  1  0  0  0
  -20.5866  -28.3691   23.1276 C   0  0  2  0  0  0
  -20.6750  -26.9413   22.5397 C   0  0  0  0  0  0
  -19.5726  -26.6404   21.5191 C   0  0  0  0  0  0
  -18.1914  -26.7937   22.1623 C   0  0  0  0  0  0
  -19.1527  -28.8851   23.2892 C   0  0  0  0  0  0
  -18.9459  -30.1453   23.8915 C   0  0  0  0  0  0
  -17.6464  -30.6596   24.0580 C   0  0  0  0  0  0
  -25.9037  -34.9469   23.5121 C   0  0  0  0  0  0
  -16.5348  -29.9107   23.6344 C   0  0  0  0  0  0
  -16.7266  -28.6518   23.0366 C   0  0  0  0  0  0
  -26.4451  -31.6634   25.0782 C   0  0  0  0  0  0
  -25.3678  -31.3808   26.1522 C   0  0  0  0  0  0
  -27.0303  -30.3049   24.6273 C   0  0  0  0  0  0
  -27.6008  -32.4385   25.7545 C   0  0  0  0  0  0
  -27.5567  -37.1806   24.8456 C   0  0  0  0  0  0
  -21.4136  -29.3057   22.3672 N   0  0  0  0  0  0
  -26.4269  -37.3798   23.9414 N   0  0  0  0  0  0
  -24.6778  -31.0712   22.0991 N   0  0  0  0  0  0
  -23.4164  -28.8181   23.2983 O   0  0  0  0  0  0
  -28.3920  -26.6167   20.1270 O   0  0  0  0  0  0
  -26.5621  -34.8919   22.4693 O   0  0  0  0  0  0
  -23.5377  -32.1409   23.7444 O   0  0  0  0  0  0
  -28.9694  -19.8699   21.7963 C   0  0  0  0  0  0
  -29.9389  -19.4167   20.9342 C   0  0  0  0  0  0
  -29.5539  -21.6375   20.5653 C   0  0  0  0  0  0
  -31.4401  -17.8505   22.1991 C   0  0  0  0  0  0
  -30.7202  -23.8137   21.0843 C   0  0  0  0  0  0
  -32.3892  -21.4768   19.1077 C   0  0  0  0  0  0
  -30.4228  -20.6798   17.6464 C   0  0  0  0  0  0
  -28.3863  -24.0115   20.1614 C   0  0  0  0  0  0
  -29.5659  -16.8465   20.7461 C   0  0  0  0  0  0
  -28.5201  -25.3744   19.3778 C   0  0  0  0  0  0
  -30.5959  -18.0149   20.9235 C   0  0  1  0  0  0
  -29.6863  -23.1265   20.1739 C   0  0  2  0  0  0
  -31.1789  -20.5359   18.9781 C   0  0  0  0  0  0
  -30.2510  -20.5347   20.1436 N   0  0  0  0  0  0
  -28.7729  -21.2042   21.5573 N   0  3  0  0  0  0
  -29.9054  -15.4656   21.1881 N   0  0  0  0  0  0
  -31.4860  -12.4556   19.1351 H   0  0  0  0  0  0
  -30.3647  -11.3130   19.8188 H   0  0  0  0  0  0
  -29.7677  -11.7949   17.4350 H   0  0  0  0  0  0
  -29.6894  -13.5020   17.7715 H   0  0  0  0  0  0
  -27.8315  -11.3250   18.7839 H   0  0  0  0  0  0
  -27.3937  -12.6750   17.7748 H   0  0  0  0  0  0
  -27.7195  -14.2614   19.5966 H   0  0  0  0  0  0
  -28.6914  -11.9135   21.2949 H   0  0  0  0  0  0
  -28.4501  -13.5218   21.8976 H   0  0  0  0  0  0
  -25.2763   -9.5709   22.4712 H   0  0  0  0  0  0
  -23.9999   -7.4660   22.7451 H   0  0  0  0  0  0
  -21.0844   -8.8750   19.8963 H   0  0  0  0  0  0
  -22.3663  -10.9650   19.6110 H   0  0  0  0  0  0
  -21.1987   -7.6142   23.9714 H   0  0  0  0  0  0
  -21.1491   -6.0507   25.9072 H   0  0  0  0  0  0
  -22.0606   -2.7601   23.2830 H   0  0  0  0  0  0
  -22.4084  -11.9926   22.4808 H   0  0  0  0  0  0
  -21.1093  -13.1267   22.2496 H   0  0  0  0  0  0
  -24.6663  -15.8419   20.5130 H   0  0  0  0  0  0
  -26.2940  -15.6316   20.1122 H   0  0  0  0  0  0
  -26.7140  -32.5466   23.1152 H   0  0  0  0  0  0
  -24.9994  -33.9747   25.0411 H   0  0  0  0  0  0
  -22.7026  -31.3126   21.4087 H   0  0  0  0  0  0
  -23.3731  -35.9626   23.3301 H   0  0  0  0  0  0
  -24.3549  -36.8934   22.2055 H   0  0  0  0  0  0
  -23.7201  -37.6494   23.6669 H   0  0  0  0  0  0
  -26.0809  -31.5748   20.6082 H   0  0  0  0  0  0
  -26.8268  -30.8488   22.0052 H   0  0  0  0  0  0
  -28.0990  -29.0360   21.1713 H   0  0  0  0  0  0
  -25.9556  -25.9135   19.0828 H   0  0  0  0  0  0
  -23.9506  -27.2817   19.0701 H   0  0  0  0  0  0
  -23.7387  -30.6043   19.4056 H   0  0  0  0  0  0
  -22.7392  -29.2595   19.8624 H   0  0  0  0  0  0
  -25.1267  -36.1955   25.0826 H   0  0  0  0  0  0
  -20.9994  -28.3272   24.1381 H   0  0  0  0  0  0
  -20.5618  -26.2309   23.3595 H   0  0  0  0  0  0
  -21.6624  -26.7428   22.1208 H   0  0  0  0  0  0
  -19.6883  -25.6323   21.1210 H   0  0  0  0  0  0
  -19.6656  -27.3218   20.6716 H   0  0  0  0  0  0
  -17.4170  -26.6681   21.4040 H   0  0  0  0  0  0
  -18.0335  -26.0079   22.9021 H   0  0  0  0  0  0
  -19.7936  -30.7260   24.2292 H   0  0  0  0  0  0
  -17.5027  -31.6274   24.5192 H   0  0  0  0  0  0
  -15.5356  -30.3020   23.7665 H   0  0  0  0  0  0
  -15.8659  -28.0846   22.7088 H   0  0  0  0  0  0
  -24.5807  -30.7198   25.7876 H   0  0  0  0  0  0
  -24.8911  -32.2995   26.4954 H   0  0  0  0  0  0
  -25.7987  -30.8983   27.0303 H   0  0  0  0  0  0
  -26.2925  -29.6830   24.1194 H   0  0  0  0  0  0
  -27.3859  -29.7291   25.4833 H   0  0  0  0  0  0
  -27.8843  -30.4329   23.9615 H   0  0  0  0  0  0
  -27.2604  -33.3675   26.2126 H   0  0  0  0  0  0
  -28.3808  -32.6972   25.0378 H   0  0  0  0  0  0
  -28.0684  -31.8522   26.5465 H   0  0  0  0  0  0
  -28.2584  -38.0106   24.7530 H   0  0  0  0  0  0
  -28.1061  -36.2647   24.6241 H   0  0  0  0  0  0
  -27.2297  -37.1421   25.8861 H   0  0  0  0  0  0
  -20.9291  -29.8798   21.6917 H   0  0  0  0  0  0
  -26.0150  -38.2867   24.1433 H   0  0  0  0  0  0
  -28.4464  -19.3491   22.5857 H   0  0  0  0  0  0
  -30.8165  -17.8367   23.0941 H   0  0  0  0  0  0
  -32.1587  -18.6652   22.3035 H   0  0  0  0  0  0
  -32.0128  -16.9241   22.1756 H   0  0  0  0  0  0
  -31.6935  -23.3295   21.0466 H   0  0  0  0  0  0
  -30.3902  -23.7983   22.1231 H   0  0  0  0  0  0
  -30.8710  -24.8587   20.8089 H   0  0  0  0  0  0
  -33.1298  -21.2409   18.3428 H   0  0  0  0  0  0
  -32.8765  -21.3615   20.0764 H   0  0  0  0  0  0
  -32.1410  -22.5255   18.9718 H   0  0  0  0  0  0
  -31.0879  -20.4814   16.8049 H   0  0  0  0  0  0
  -29.9950  -21.6694   17.5014 H   0  0  0  0  0  0
  -29.6095  -19.9550   17.5870 H   0  0  0  0  0  0
  -27.5910  -23.4345   19.6860 H   0  0  0  0  0  0
  -28.0391  -24.1977   21.1786 H   0  0  0  0  0  0
  -29.2291  -16.8081   19.7081 H   0  0  0  0  0  0
  -28.6769  -17.0930   21.3257 H   0  0  0  0  0  0
  -27.8896  -25.3613   18.4893 H   0  0  0  0  0  0
  -29.5203  -25.4200   18.9488 H   0  0  0  0  0  0
  -31.2907  -17.9243   20.0937 H   0  0  0  0  0  0
  -30.0570  -23.1195   19.1527 H   0  0  0  0  0  0
  -31.6271  -19.5505   18.9258 H   0  0  0  0  0  0
  -28.1454  -21.7905   22.0932 H   0  0  0  0  0  0
  -29.1912  -15.0552   21.7725 H   0  0  0  0  0  0
  1 25  1  0  0  0
  1 30  2  0  0  0
  1 86  1  0  0  0
  2  3  1  0  0  0
  2 25  1  0  0  0
  2 87  1  0  0  0
  2 88  1  0  0  0
  3  4  1  0  0  0
  3 89  1  0  0  0
  3 90  1  0  0  0
  4  5  1  0  0  0
  4 91  1  0  0  0
  4 92  1  0  0  0
  5  6  1  0  0  0
  5 26  1  0  0  0
  5 93  1  0  0  0
  6 25  1  0  0  0
  6 94  1  0  0  0
  6 95  1  0  0  0
  7  8  2  0  0  0
  7 26  1  0  0  0
  7 29  1  0  0  0
  8  9  1  0  0  0
  8 22  1  0  0  0
  9 10  1  0  0  0
  9 27  2  0  0  0
 10 11  2  0  0  0
 10 15  1  0  0  0
 11 12  1  0  0  0
 11 96  1  0  0  0
 12 13  2  0  0  0
 12 97  1  0  0  0
 13 14  1  0  0  0
 13 31  1  0  0  0
 14 15  2  0  0  0
 14 98  1  0  0  0
 15 99  1  0  0  0
 16 17  2  0  0  0
 16 21  1  0  0  0
 16 31  1  0  0  0
 17 18  1  0  0  0
 17100  1  0  0  0
 18 19  2  0  0  0
 18101  1  0  0  0
 19 20  1  0  0  0
 19 24  1  0  0  0
 20 21  2  0  0  0
 20102  1  0  0  0
 21 23  1  0  0  0
 22 28  1  0  0  0
 22 32  2  0  0  0
 26 27  1  0  0  0
 28103  1  0  0  0
 28104  1  0  0  0
 29105  1  0  0  0
 29106  1  0  0  0
 33 34  1  0  0  0
 33 66  1  0  0  0
 33 70  2  0  0  0
 34 36  1  0  0  0
 34 59  1  0  0  0
 34107  1  0  0  0
 35 44  2  0  0  0
 35 45  1  0  0  0
 35 68  1  0  0  0
 36 56  1  0  0  0
 36108  1  0  0  0
 37 39  1  0  0  0
 37 47  1  0  0  0
 37 66  1  0  0  0
 37109  1  0  0  0
 38 43  2  0  0  0
 38 46  1  0  0  0
 38 47  1  0  0  0
 39 64  1  0  0  0
 39 67  2  0  0  0
 40 52  1  0  0  0
 40 53  2  0  0  0
 40 58  1  0  0  0
 41110  1  0  0  0
 41111  1  0  0  0
 41112  1  0  0  0
 41 48  1  0  0  0
 42 43  1  0  0  0
 42 66  1  0  0  0
 42113  1  0  0  0
 42114  1  0  0  0
 43 44  1  0  0  0
 44115  1  0  0  0
 45 46  2  0  0  0
 45116  1  0  0  0
 46117  1  0  0  0
 47118  1  0  0  0
 47119  1  0  0  0
 48 56  1  0  0  0
 48 65  1  0  0  0
 48120  1  0  0  0
 49 50  1  0  0  0
 49 53  1  0  0  0
 49 64  1  0  0  0
 49121  1  0  0  0
 50 51  1  0  0  0
 50122  1  0  0  0
 50123  1  0  0  0
 51 52  1  0  0  0
 51124  1  0  0  0
 51125  1  0  0  0
 52126  1  0  0  0
 52127  1  0  0  0
 53 54  1  0  0  0
 54 55  2  0  0  0
 54128  1  0  0  0
 55 57  1  0  0  0
 55129  1  0  0  0
 56 69  2  0  0  0
 57 58  2  0  0  0
 57130  1  0  0  0
 58131  1  0  0  0
 59 60  1  0  0  0
 59 61  1  0  0  0
 59 62  1  0  0  0
 60132  1  0  0  0
 60133  1  0  0  0
 60134  1  0  0  0
 61135  1  0  0  0
 61136  1  0  0  0
 61137  1  0  0  0
 62138  1  0  0  0
 62139  1  0  0  0
 62140  1  0  0  0
 63 65  1  0  0  0
 63141  1  0  0  0
 63142  1  0  0  0
 63143  1  0  0  0
 64144  1  0  0  0
 65145  1  0  0  0
 68 80  1  0  0  0
 71 72  2  0  0  0
 71 85  1  0  0  0
 71146  1  0  0  0
 72 81  1  0  0  0
 72 84  1  0  0  0
 73 82  1  0  0  0
 73 84  1  0  0  0
 73 85  2  0  0  0
 74147  1  0  0  0
 74148  1  0  0  0
 74149  1  0  0  0
 74 81  1  0  0  0
 75150  1  0  0  0
 75151  1  0  0  0
 75152  1  0  0  0
 75 82  1  0  0  0
 76153  1  0  0  0
 76154  1  0  0  0
 76155  1  0  0  0
 76 83  1  0  0  0
 77 83  1  0  0  0
 77156  1  0  0  0
 77157  1  0  0  0
 77158  1  0  0  0
 78 80  1  0  0  0
 78 82  1  0  0  0
 78159  1  0  0  0
 78160  1  0  0  0
 79 81  1  0  0  0
 79 86  1  0  0  0
 79161  1  0  0  0
 79162  1  0  0  0
 80163  1  0  0  0
 80164  1  0  0  0
 81165  1  0  0  0
 82166  1  0  0  0
 83 84  1  0  0  0
 83167  1  0  0  0
 85168  1  0  0  0
 86169  1  0  0  0
M  CHG  1  85   1
M  ISO  4   1 100  68 101  80 101  86 100
M  END
> <chiral flag>
0

> <version>
0

> <s_m_source_file>
/data/baiqing/PycharmProjects/Reinvent-master-3.2/result/LINK_invent/BTK/process_docking_weight1_custom_sum_contain_oxygen_bond_distance_aromatic_linkinvent_7_9_3/rearranged_h_0078.sdf

> <i_m_source_file_index>
98

> <r_mmod_Potential_Energy-OPLS-2005>
-19.2706871032715

> <r_mmod_Stretch_Energy-OPLS-2005>
61.2164268493652

> <r_mmod_Bend_Energy-OPLS-2005>
142.911743164062

> <r_mmod_Torsional_Energy-OPLS-2005>
284.991638183594

> <r_mmod_Improper_Torsional_Energy-OPLS-2005>
6.34700155258179

> <r_mmod_Van_der_Waal_Energy-OPLS-2005>
123.690391540527

> <r_mmod_Electrostatic_Energy-OPLS-2005>
-247.481811523438

> <r_mmod_Solvation_Energy-OPLS-2005>
-414.063537597656

> <b_mmod_Minimization_Converged-OPLS-2005>
0

> <r_mmod_RMS_Derivative-OPLS-2005>
3.1424515247345

$$$$
98
                    3D
 Structure written by MMmdl.
164172  0  0  1  0            999 V2000
  -30.7293  -14.3985   20.6731 C   0  0  0  0  0  0
  -30.4229  -12.2922   19.4060 C   0  0  0  0  0  0
  -29.4923  -12.5214   18.1987 C   0  0  0  0  0  0
  -28.0134  -12.3747   18.6109 C   0  0  0  0  0  0
  -27.6672  -13.1973   19.8832 C   0  0  2  0  0  0
  -28.7023  -12.9241   20.9980 C   0  0  0  0  0  0
  -25.2590  -13.8142   20.5653 C   0  0  0  0  0  0
  -24.1829  -13.0423   20.9172 C   0  0  0  0  0  0
  -24.6389  -11.6905   20.8727 C   0  0  0  0  0  0
  -23.9057  -10.4288   21.0383 C   0  0  0  0  0  0
  -24.3623   -9.4220   21.9166 C   0  0  0  0  0  0
  -23.6308   -8.2243   22.0760 C   0  0  0  0  0  0
  -22.4265   -8.0278   21.3567 C   0  0  0  0  0  0
  -21.9904   -9.0238   20.4649 C   0  0  0  0  0  0
  -22.7230  -10.2122   20.3050 C   0  0  0  0  0  0
  -21.6849   -6.0735   22.5291 C   0  0  0  0  0  0
  -21.4008   -6.5640   23.8223 C   0  0  0  0  0  0
  -21.3672   -5.6794   24.9186 C   0  0  0  0  0  0
  -21.6058   -4.3056   24.7234 C   0  0  0  0  0  0
  -21.8814   -3.8157   23.4346 C   0  0  0  0  0  0
  -21.9199   -4.6970   22.3410 C   0  0  0  0  0  0
  -22.7883  -13.5242   21.1864 C   0  0  0  0  0  0
  -22.1651   -4.2149   21.0987 F   0  0  0  0  0  0
  -21.5648   -3.4546   25.7746 F   0  0  0  0  0  0
  -30.0437  -13.2390   20.4678 N   0  0  0  0  0  0
  -26.3027  -12.9299   20.3377 N   0  0  0  0  0  0
  -25.9315  -11.6458   20.5769 N   0  0  0  0  0  0
  -22.0521  -12.8207   22.0404 N   0  0  0  0  0  0
  -25.4308  -15.1851   20.4061 N   0  0  0  0  0  0
  -31.7720  -14.6822   20.0775 O   0  0  0  0  0  0
  -21.6650   -6.8863   21.4242 O   0  0  0  0  0  0
  -22.3568  -14.5555   20.6743 O   0  0  0  0  0  0
  -24.6156  -31.8657   23.2085 C   0  0  0  0  0  0
  -25.9037  -32.4815   23.8399 C   0  0  1  0  0  0
  -27.2468  -27.4225   20.1178 C   0  0  0  0  0  0
  -25.5894  -33.8609   24.2337 N   0  0  0  0  0  0
  -23.4086  -30.4896   21.5443 C   0  0  2  0  0  0
  -24.8637  -28.9496   20.1173 C   0  0  0  0  0  0
  -22.7422  -29.4658   22.4928 C   0  0  0  0  0  0
  -18.0284  -28.1387   22.8496 C   0  0  0  0  0  0
  -24.1469  -36.7310   23.2641 C   0  0  0  0  0  0
  -25.9379  -30.8260   21.3691 C   0  0  0  0  0  0
  -26.0183  -29.4545   20.7288 C   0  0  0  0  0  0
  -27.2129  -28.6950   20.7355 C   0  0  0  0  0  0
  -26.0819  -26.9393   19.4876 C   0  0  0  0  0  0
  -24.8885  -27.6889   19.4955 C   0  0  0  0  0  0
  -23.6264  -29.8197   20.1595 C   0  0  0  0  0  0
  -25.4088  -36.3105   24.0349 C   0  0  1  0  0  0
  -20.5882  -28.3690   23.1288 C   0  0  2  0  0  0
  -20.6771  -26.9412   22.5407 C   0  0  0  0  0  0
  -19.5745  -26.6403   21.5207 C   0  0  0  0  0  0
  -18.1927  -26.7938   22.1614 C   0  0  0  0  0  0
  -19.1537  -28.8854   23.2903 C   0  0  0  0  0  0
  -18.9469  -30.1461   23.8910 C   0  0  0  0  0  0
  -17.6473  -30.6594   24.0586 C   0  0  0  0  0  0
  -25.9020  -34.9467   23.5140 C   0  0  0  0  0  0
  -16.5361  -29.9098   23.6337 C   0  0  0  0  0  0
  -16.7271  -28.6517   23.0348 C   0  0  0  0  0  0
  -26.4468  -31.6601   25.0738 C   0  0  0  0  0  0
  -25.3750  -31.3737   26.1517 C   0  0  0  0  0  0
  -27.0309  -30.3040   24.6125 C   0  0  0  0  0  0
  -27.6035  -32.4326   25.7518 C   0  0  0  0  0  0
  -27.5565  -37.1819   24.8464 C   0  0  0  0  0  0
  -21.4145  -29.3046   22.3675 N   0  0  0  0  0  0
  -26.4268  -37.3798   23.9425 N   0  0  0  0  0  0
  -24.6716  -31.0763   22.0983 N   0  0  0  0  0  0
  -23.4190  -28.8192   23.2971 O   0  0  0  0  0  0
  -28.3866  -26.6417   20.0926 O   0  0  0  0  0  0
  -26.5572  -34.8921   22.4693 O   0  0  0  0  0  0
  -23.5337  -32.1393   23.7477 O   0  0  0  0  0  0
  -29.5254  -21.7622   18.9249 C   0  0  0  0  0  0
  -30.0790  -20.0593   19.9887 C   0  0  0  0  0  0
  -27.6208  -23.9436   20.4378 C   0  0  0  0  0  0
  -28.2856  -24.0762   22.8306 C   0  0  0  0  0  0
  -30.6269  -19.1059   21.0318 C   0  0  0  0  0  0
  -30.1114  -17.6469   20.8522 C   0  0  0  0  0  0
  -30.1121  -23.8255   21.0782 C   0  0  0  0  0  0
  -30.3429  -22.2786   21.2670 C   0  0  0  0  0  0
  -30.6207  -16.6095   21.8867 C   0  0  0  0  0  0
  -28.7579  -26.0373   21.3459 C   0  0  0  0  0  0
  -28.7070  -24.4610   21.3967 C   0  0  0  0  0  0
  -29.3336  -20.7581   18.0684 N   0  0  0  0  0  0
  -29.7221  -19.6383   18.7619 N   0  0  0  0  0  0
  -29.9876  -21.4095   20.1387 N   0  0  0  0  0  0
  -30.1805  -15.2422   21.5648 N   0  0  0  0  0  0
  -31.4689  -12.3924   19.1084 H   0  0  0  0  0  0
  -30.3236  -11.2663   19.7677 H   0  0  0  0  0  0
  -29.7300  -11.8176   17.3999 H   0  0  0  0  0  0
  -29.6588  -13.5202   17.7921 H   0  0  0  0  0  0
  -27.8212  -11.3159   18.7911 H   0  0  0  0  0  0
  -27.3634  -12.6613   17.7838 H   0  0  0  0  0  0
  -27.7296  -14.2548   19.6229 H   0  0  0  0  0  0
  -28.6709  -11.8724   21.2856 H   0  0  0  0  0  0
  -28.4534  -13.4703   21.9084 H   0  0  0  0  0  0
  -25.2770   -9.5712   22.4724 H   0  0  0  0  0  0
  -24.0055   -7.4636   22.7474 H   0  0  0  0  0  0
  -21.0854   -8.8738   19.8944 H   0  0  0  0  0  0
  -22.3690  -10.9650   19.6150 H   0  0  0  0  0  0
  -21.1964   -7.6141   23.9718 H   0  0  0  0  0  0
  -21.1507   -6.0525   25.9090 H   0  0  0  0  0  0
  -22.0582   -2.7614   23.2850 H   0  0  0  0  0  0
  -22.4172  -11.9862   22.4735 H   0  0  0  0  0  0
  -21.1129  -13.1207   22.2616 H   0  0  0  0  0  0
  -24.6683  -15.8421   20.5301 H   0  0  0  0  0  0
  -26.2888  -15.6277   20.1013 H   0  0  0  0  0  0
  -26.7097  -32.5543   23.1170 H   0  0  0  0  0  0
  -25.0101  -33.9749   25.0527 H   0  0  0  0  0  0
  -22.7003  -31.3083   21.4012 H   0  0  0  0  0  0
  -23.3722  -35.9653   23.3305 H   0  0  0  0  0  0
  -24.3558  -36.8906   22.2050 H   0  0  0  0  0  0
  -23.7223  -37.6524   23.6633 H   0  0  0  0  0  0
  -26.0498  -31.5809   20.5904 H   0  0  0  0  0  0
  -26.8257  -30.8871   21.9858 H   0  0  0  0  0  0
  -28.1035  -29.0788   21.2129 H   0  0  0  0  0  0
  -26.0980  -25.9771   18.9947 H   0  0  0  0  0  0
  -24.0033  -27.2962   19.0148 H   0  0  0  0  0  0
  -23.7433  -30.5948   19.4004 H   0  0  0  0  0  0
  -22.7514  -29.2404   19.8550 H   0  0  0  0  0  0
  -25.1266  -36.1965   25.0842 H   0  0  0  0  0  0
  -20.9998  -28.3240   24.1400 H   0  0  0  0  0  0
  -20.5667  -26.2288   23.3608 H   0  0  0  0  0  0
  -21.6647  -26.7432   22.1217 H   0  0  0  0  0  0
  -19.6897  -25.6322   21.1211 H   0  0  0  0  0  0
  -19.6678  -27.3240   20.6767 H   0  0  0  0  0  0
  -17.4209  -26.6716   21.3997 H   0  0  0  0  0  0
  -18.0302  -26.0074   22.9002 H   0  0  0  0  0  0
  -19.7947  -30.7288   24.2255 H   0  0  0  0  0  0
  -17.5028  -31.6263   24.5196 H   0  0  0  0  0  0
  -15.5360  -30.3017   23.7654 H   0  0  0  0  0  0
  -15.8677  -28.0860   22.7034 H   0  0  0  0  0  0
  -24.5944  -30.7029   25.7916 H   0  0  0  0  0  0
  -24.8930  -32.2897   26.4919 H   0  0  0  0  0  0
  -25.8148  -30.8991   27.0300 H   0  0  0  0  0  0
  -26.2872  -29.6832   24.1114 H   0  0  0  0  0  0
  -27.4008  -29.7247   25.4594 H   0  0  0  0  0  0
  -27.8731  -30.4374   23.9339 H   0  0  0  0  0  0
  -27.2637  -33.3630   26.2088 H   0  0  0  0  0  0
  -28.3870  -32.6873   25.0368 H   0  0  0  0  0  0
  -28.0668  -31.8456   26.5456 H   0  0  0  0  0  0
  -28.2609  -38.0100   24.7524 H   0  0  0  0  0  0
  -28.1040  -36.2640   24.6271 H   0  0  0  0  0  0
  -27.2301  -37.1459   25.8875 H   0  0  0  0  0  0
  -20.9284  -29.8792   21.6940 H   0  0  0  0  0  0
  -26.0147  -38.2868   24.1454 H   0  0  0  0  0  0
  -29.3387  -22.7851   18.6403 H   0  0  0  0  0  0
  -27.5247  -22.8577   20.4770 H   0  0  0  0  0  0
  -27.8348  -24.2256   19.4072 H   0  0  0  0  0  0
  -26.6439  -24.3583   20.6904 H   0  0  0  0  0  0
  -28.1591  -23.0017   22.9607 H   0  0  0  0  0  0
  -27.3250  -24.5274   23.0872 H   0  0  0  0  0  0
  -29.0151  -24.4220   23.5643 H   0  0  0  0  0  0
  -31.7175  -19.1236   20.9799 H   0  0  0  0  0  0
  -30.3551  -19.4770   22.0198 H   0  0  0  0  0  0
  -30.3906  -17.3040   19.8529 H   0  0  0  0  0  0
  -29.0223  -17.6572   20.8726 H   0  0  0  0  0  0
  -30.4439  -24.1279   20.0849 H   0  0  0  0  0  0
  -30.8279  -24.3053   21.7480 H   0  0  0  0  0  0
  -29.8628  -21.9037   22.1700 H   0  0  0  0  0  0
  -31.4099  -22.1258   21.4335 H   0  0  0  0  0  0
  -31.7087  -16.6405   21.9742 H   0  0  0  0  0  0
  -30.2286  -16.8559   22.8748 H   0  0  0  0  0  0
  -29.7665  -26.3774   21.5836 H   0  0  0  0  0  0
  -28.1419  -26.4547   22.1453 H   0  0  0  0  0  0
  -29.3758  -14.8870   22.0607 H   0  0  0  0  0  0
  1 25  1  0  0  0
  1 30  2  0  0  0
  1 85  1  0  0  0
  2  3  1  0  0  0
  2 25  1  0  0  0
  2 86  1  0  0  0
  2 87  1  0  0  0
  3  4  1  0  0  0
  3 88  1  0  0  0
  3 89  1  0  0  0
  4  5  1  0  0  0
  4 90  1  0  0  0
  4 91  1  0  0  0
  5  6  1  0  0  0
  5 26  1  0  0  0
  5 92  1  0  0  0
  6 25  1  0  0  0
  6 93  1  0  0  0
  6 94  1  0  0  0
  7  8  2  0  0  0
  7 26  1  0  0  0
  7 29  1  0  0  0
  8  9  1  0  0  0
  8 22  1  0  0  0
  9 10  1  0  0  0
  9 27  2  0  0  0
 10 11  2  0  0  0
 10 15  1  0  0  0
 11 12  1  0  0  0
 11 95  1  0  0  0
 12 13  2  0  0  0
 12 96  1  0  0  0
 13 14  1  0  0  0
 13 31  1  0  0  0
 14 15  2  0  0  0
 14 97  1  0  0  0
 15 98  1  0  0  0
 16 17  2  0  0  0
 16 21  1  0  0  0
 16 31  1  0  0  0
 17 18  1  0  0  0
 17 99  1  0  0  0
 18 19  2  0  0  0
 18100  1  0  0  0
 19 20  1  0  0  0
 19 24  1  0  0  0
 20 21  2  0  0  0
 20101  1  0  0  0
 21 23  1  0  0  0
 22 28  1  0  0  0
 22 32  2  0  0  0
 26 27  1  0  0  0
 28102  1  0  0  0
 28103  1  0  0  0
 29104  1  0  0  0
 29105  1  0  0  0
 33 34  1  0  0  0
 33 66  1  0  0  0
 33 70  2  0  0  0
 34 36  1  0  0  0
 34 59  1  0  0  0
 34106  1  0  0  0
 35 44  2  0  0  0
 35 45  1  0  0  0
 35 68  1  0  0  0
 36 56  1  0  0  0
 36107  1  0  0  0
 37 39  1  0  0  0
 37 47  1  0  0  0
 37 66  1  0  0  0
 37108  1  0  0  0
 38 43  2  0  0  0
 38 46  1  0  0  0
 38 47  1  0  0  0
 39 64  1  0  0  0
 39 67  2  0  0  0
 40 52  1  0  0  0
 40 53  2  0  0  0
 40 58  1  0  0  0
 41109  1  0  0  0
 41110  1  0  0  0
 41111  1  0  0  0
 41 48  1  0  0  0
 42 43  1  0  0  0
 42 66  1  0  0  0
 42112  1  0  0  0
 42113  1  0  0  0
 43 44  1  0  0  0
 44114  1  0  0  0
 45 46  2  0  0  0
 45115  1  0  0  0
 46116  1  0  0  0
 47117  1  0  0  0
 47118  1  0  0  0
 48 56  1  0  0  0
 48 65  1  0  0  0
 48119  1  0  0  0
 49 50  1  0  0  0
 49 53  1  0  0  0
 49 64  1  0  0  0
 49120  1  0  0  0
 50 51  1  0  0  0
 50121  1  0  0  0
 50122  1  0  0  0
 51 52  1  0  0  0
 51123  1  0  0  0
 51124  1  0  0  0
 52125  1  0  0  0
 52126  1  0  0  0
 53 54  1  0  0  0
 54 55  2  0  0  0
 54127  1  0  0  0
 55 57  1  0  0  0
 55128  1  0  0  0
 56 69  2  0  0  0
 57 58  2  0  0  0
 57129  1  0  0  0
 58130  1  0  0  0
 59 60  1  0  0  0
 59 61  1  0  0  0
 59 62  1  0  0  0
 60131  1  0  0  0
 60132  1  0  0  0
 60133  1  0  0  0
 61134  1  0  0  0
 61135  1  0  0  0
 61136  1  0  0  0
 62137  1  0  0  0
 62138  1  0  0  0
 62139  1  0  0  0
 63 65  1  0  0  0
 63140  1  0  0  0
 63141  1  0  0  0
 63142  1  0  0  0
 64143  1  0  0  0
 65144  1  0  0  0
 68 80  1  0  0  0
 71 82  2  0  0  0
 71 84  1  0  0  0
 71145  1  0  0  0
 72 75  1  0  0  0
 72 83  2  0  0  0
 72 84  1  0  0  0
 73146  1  0  0  0
 73147  1  0  0  0
 73148  1  0  0  0
 73 81  1  0  0  0
 74 81  1  0  0  0
 74149  1  0  0  0
 74150  1  0  0  0
 74151  1  0  0  0
 75 76  1  0  0  0
 75152  1  0  0  0
 75153  1  0  0  0
 76 79  1  0  0  0
 76154  1  0  0  0
 76155  1  0  0  0
 77 78  1  0  0  0
 77 81  1  0  0  0
 77156  1  0  0  0
 77157  1  0  0  0
 78 84  1  0  0  0
 78158  1  0  0  0
 78159  1  0  0  0
 79 85  1  0  0  0
 79160  1  0  0  0
 79161  1  0  0  0
 80 81  1  0  0  0
 80162  1  0  0  0
 80163  1  0  0  0
 82 83  1  0  0  0
 85164  1  0  0  0
M  ISO  4   1 100  68 101  80 101  85 100
M  END
> <chiral flag>
0

> <version>
0

> <s_m_source_file>
/data/baiqing/PycharmProjects/Reinvent-master-3.2/result/LINK_invent/BTK/process_docking_weight1_custom_sum_contain_oxygen_bond_distance_aromatic_linkinvent_7_9_3/rearranged_h_0078.sdf

> <i_m_source_file_index>
99

> <r_mmod_Potential_Energy-OPLS-2005>
-57.5816459655762

> <r_mmod_Stretch_Energy-OPLS-2005>
45.0342903137207

> <r_mmod_Bend_Energy-OPLS-2005>
120.115478515625

> <r_mmod_Torsional_Energy-OPLS-2005>
249.925918579102

> <r_mmod_Improper_Torsional_Energy-OPLS-2005>
2.07656168937683

> <r_mmod_Van_der_Waal_Energy-OPLS-2005>
129.606597900391

> <r_mmod_Electrostatic_Energy-OPLS-2005>
-373.952423095703

> <r_mmod_Solvation_Energy-OPLS-2005>
-240.320755004883

> <b_mmod_Minimization_Converged-OPLS-2005>
0

> <r_mmod_RMS_Derivative-OPLS-2005>
3.94680285453796

$$$$
99
                    3D
 Structure written by MMmdl.
155163  0  0  1  0            999 V2000
  -30.7231  -14.5575   20.4686 C   0  0  0  0  0  0
  -30.4026  -12.3283   19.4815 C   0  0  0  0  0  0
  -29.5094  -12.4973   18.2325 C   0  0  0  0  0  0
  -28.0238  -12.3725   18.6211 C   0  0  0  0  0  0
  -27.6490  -13.2381   19.8565 C   0  0  2  0  0  0
  -28.6877  -13.1140   20.9916 C   0  0  0  0  0  0
  -25.2505  -13.8215   20.5730 C   0  0  0  0  0  0
  -24.1799  -13.0434   20.9197 C   0  0  0  0  0  0
  -24.6400  -11.6920   20.8709 C   0  0  0  0  0  0
  -23.9083  -10.4284   21.0381 C   0  0  0  0  0  0
  -24.3633   -9.4191   21.9155 C   0  0  0  0  0  0
  -23.6298   -8.2233   22.0735 C   0  0  0  0  0  0
  -22.4268   -8.0282   21.3545 C   0  0  0  0  0  0
  -21.9910   -9.0261   20.4653 C   0  0  0  0  0  0
  -22.7245  -10.2134   20.3042 C   0  0  0  0  0  0
  -21.6857   -6.0740   22.5280 C   0  0  0  0  0  0
  -21.4034   -6.5637   23.8224 C   0  0  0  0  0  0
  -21.3668   -5.6778   24.9181 C   0  0  0  0  0  0
  -21.6040   -4.3043   24.7221 C   0  0  0  0  0  0
  -21.8819   -3.8143   23.4342 C   0  0  0  0  0  0
  -21.9188   -4.6966   22.3402 C   0  0  0  0  0  0
  -22.7812  -13.5218   21.1835 C   0  0  0  0  0  0
  -22.1643   -4.2147   21.0982 F   0  0  0  0  0  0
  -21.5616   -3.4526   25.7745 F   0  0  0  0  0  0
  -30.0183  -13.3862   20.4356 N   0  0  0  0  0  0
  -26.2965  -12.9458   20.3309 N   0  0  0  0  0  0
  -25.9346  -11.6581   20.5721 N   0  0  0  0  0  0
  -22.0466  -12.8252   22.0430 N   0  0  0  0  0  0
  -25.4150  -15.1955   20.4251 N   0  0  0  0  0  0
  -31.9161  -14.5790   20.1450 O   0  0  0  0  0  0
  -21.6616   -6.8886   21.4247 O   0  0  0  0  0  0
  -22.3499  -14.5494   20.6637 O   0  0  0  0  0  0
  -24.6201  -31.8694   23.2090 C   0  0  0  0  0  0
  -25.9088  -32.4837   23.8386 C   0  0  1  0  0  0
  -27.2108  -27.3642   20.1142 C   0  0  0  0  0  0
  -25.5931  -33.8635   24.2303 N   0  0  0  0  0  0
  -23.4117  -30.4958   21.5509 C   0  0  2  0  0  0
  -24.8557  -28.9695   20.1086 C   0  0  0  0  0  0
  -22.7451  -29.4664   22.4941 C   0  0  0  0  0  0
  -18.0281  -28.1392   22.8488 C   0  0  0  0  0  0
  -24.1485  -36.7289   23.2644 C   0  0  0  0  0  0
  -25.9513  -30.8143   21.3767 C   0  0  0  0  0  0
  -26.0244  -29.4489   20.7121 C   0  0  0  0  0  0
  -27.2072  -28.6586   20.7086 C   0  0  0  0  0  0
  -26.0208  -26.9400   19.4719 C   0  0  0  0  0  0
  -24.8530  -27.7170   19.4820 C   0  0  0  0  0  0
  -23.6237  -29.8445   20.1625 C   0  0  0  0  0  0
  -25.4122  -36.3109   24.0333 C   0  0  1  0  0  0
  -20.5885  -28.3683   23.1288 C   0  0  2  0  0  0
  -20.6778  -26.9410   22.5416 C   0  0  0  0  0  0
  -19.5747  -26.6380   21.5228 C   0  0  0  0  0  0
  -18.1921  -26.7935   22.1634 C   0  0  0  0  0  0
  -19.1535  -28.8849   23.2883 C   0  0  0  0  0  0
  -18.9467  -30.1451   23.8892 C   0  0  0  0  0  0
  -17.6475  -30.6597   24.0555 C   0  0  0  0  0  0
  -25.9068  -34.9489   23.5111 C   0  0  0  0  0  0
  -16.5358  -29.9105   23.6331 C   0  0  0  0  0  0
  -16.7266  -28.6518   23.0351 C   0  0  0  0  0  0
  -26.4472  -31.6650   25.0748 C   0  0  0  0  0  0
  -25.3702  -31.3806   26.1471 C   0  0  0  0  0  0
  -27.0342  -30.3085   24.6208 C   0  0  0  0  0  0
  -27.6028  -32.4414   25.7514 C   0  0  0  0  0  0
  -27.5578  -37.1804   24.8466 C   0  0  0  0  0  0
  -21.4169  -29.3047   22.3679 N   0  0  0  0  0  0
  -26.4292  -37.3803   23.9411 N   0  0  0  0  0  0
  -24.6794  -31.0756   22.1013 N   0  0  0  0  0  0
  -23.4216  -28.8210   23.2998 O   0  0  0  0  0  0
  -28.3164  -26.5128   20.2014 O   0  0  0  0  0  0
  -26.5621  -34.8935   22.4672 O   0  0  0  0  0  0
  -23.5377  -32.1459   23.7436 O   0  0  0  0  0  0
  -29.2875  -16.4381   21.6013 C   0  0  0  0  0  0
  -30.0506  -15.9344   20.5131 C   0  0  0  0  0  0
  -29.8898  -18.0537   19.5070 C   0  0  0  0  0  0
  -29.1027  -18.5463   20.5838 C   0  0  0  0  0  0
  -30.2725  -18.9162   18.3157 C   0  0  0  0  0  0
  -28.4000  -19.9308   20.5295 C   0  0  0  0  0  0
  -29.1902  -21.2492   20.8656 C   0  0  0  0  0  0
  -28.4000  -22.5355   20.4135 C   0  0  0  0  0  0
  -28.9896  -23.9807   20.6350 C   0  0  0  0  0  0
  -28.0149  -25.0820   20.0896 C   0  0  0  0  0  0
  -28.8150  -17.7246   21.6341 N   0  0  0  0  0  0
  -30.3480  -16.7752   19.4775 N   0  0  0  0  0  0
  -31.4558  -12.3640   19.1994 H   0  0  0  0  0  0
  -30.2539  -11.3473   19.9349 H   0  0  0  0  0  0
  -29.7678  -11.7497   17.4813 H   0  0  0  0  0  0
  -29.6948  -13.4709   17.7747 H   0  0  0  0  0  0
  -27.8249  -11.3214   18.8311 H   0  0  0  0  0  0
  -27.3926  -12.6352   17.7727 H   0  0  0  0  0  0
  -27.6624  -14.2752   19.5197 H   0  0  0  0  0  0
  -28.6654  -12.1115   21.4214 H   0  0  0  0  0  0
  -28.4442  -13.7961   21.8046 H   0  0  0  0  0  0
  -25.2788   -9.5650   22.4723 H   0  0  0  0  0  0
  -23.9995   -7.4622   22.7465 H   0  0  0  0  0  0
  -21.0820   -8.8802   19.8981 H   0  0  0  0  0  0
  -22.3695  -10.9674   19.6149 H   0  0  0  0  0  0
  -21.2033   -7.6148   23.9735 H   0  0  0  0  0  0
  -21.1486   -6.0503   25.9087 H   0  0  0  0  0  0
  -22.0580   -2.7607   23.2838 H   0  0  0  0  0  0
  -22.4085  -11.9957   22.4889 H   0  0  0  0  0  0
  -21.1071  -13.1283   22.2595 H   0  0  0  0  0  0
  -24.6454  -15.8415   20.5577 H   0  0  0  0  0  0
  -26.2698  -15.6541   20.1357 H   0  0  0  0  0  0
  -26.7161  -32.5509   23.1143 H   0  0  0  0  0  0
  -25.0082  -33.9811   25.0442 H   0  0  0  0  0  0
  -22.6999  -31.3131   21.4157 H   0  0  0  0  0  0
  -23.3773  -35.9596   23.3328 H   0  0  0  0  0  0
  -24.3558  -36.8887   22.2052 H   0  0  0  0  0  0
  -23.7208  -37.6486   23.6654 H   0  0  0  0  0  0
  -26.0889  -31.5876   20.6196 H   0  0  0  0  0  0
  -26.8306  -30.8517   22.0093 H   0  0  0  0  0  0
  -28.0994  -29.0212   21.1995 H   0  0  0  0  0  0
  -25.9498  -25.9874   18.9690 H   0  0  0  0  0  0
  -23.9557  -27.3396   19.0115 H   0  0  0  0  0  0
  -23.7443  -30.6273   19.4117 H   0  0  0  0  0  0
  -22.7416  -29.2778   19.8594 H   0  0  0  0  0  0
  -25.1298  -36.1965   25.0823 H   0  0  0  0  0  0
  -20.9971  -28.3275   24.1415 H   0  0  0  0  0  0
  -20.5705  -26.2296   23.3619 H   0  0  0  0  0  0
  -21.6641  -26.7471   22.1191 H   0  0  0  0  0  0
  -19.6912  -25.6292   21.1264 H   0  0  0  0  0  0
  -19.6687  -27.3186   20.6758 H   0  0  0  0  0  0
  -17.4195  -26.6672   21.4036 H   0  0  0  0  0  0
  -18.0308  -26.0096   22.9045 H   0  0  0  0  0  0
  -19.7951  -30.7252   24.2274 H   0  0  0  0  0  0
  -17.5045  -31.6285   24.5145 H   0  0  0  0  0  0
  -15.5364  -30.3011   23.7660 H   0  0  0  0  0  0
  -15.8667  -28.0842   22.7079 H   0  0  0  0  0  0
  -24.5813  -30.7241   25.7770 H   0  0  0  0  0  0
  -24.8968  -32.3004   26.4925 H   0  0  0  0  0  0
  -25.7987  -30.8915   27.0227 H   0  0  0  0  0  0
  -26.2941  -29.6841   24.1186 H   0  0  0  0  0  0
  -27.4010  -29.7327   25.4715 H   0  0  0  0  0  0
  -27.8806  -30.4401   23.9463 H   0  0  0  0  0  0
  -27.2617  -33.3699   26.2104 H   0  0  0  0  0  0
  -28.3811  -32.7031   25.0338 H   0  0  0  0  0  0
  -28.0735  -31.8562   26.5420 H   0  0  0  0  0  0
  -28.2606  -38.0089   24.7522 H   0  0  0  0  0  0
  -28.1058  -36.2627   24.6289 H   0  0  0  0  0  0
  -27.2286  -37.1442   25.8862 H   0  0  0  0  0  0
  -20.9328  -29.8754   21.6887 H   0  0  0  0  0  0
  -26.0179  -38.2872   24.1443 H   0  0  0  0  0  0
  -29.0827  -15.8305   22.4701 H   0  0  0  0  0  0
  -30.9289  -19.7289   18.6303 H   0  0  0  0  0  0
  -29.3905  -19.3463   17.8443 H   0  0  0  0  0  0
  -30.8012  -18.3406   17.5533 H   0  0  0  0  0  0
  -27.5272  -19.8822   21.1818 H   0  0  0  0  0  0
  -27.9810  -20.0261   19.5267 H   0  0  0  0  0  0
  -30.1558  -21.2357   20.3615 H   0  0  0  0  0  0
  -29.4072  -21.2799   21.9346 H   0  0  0  0  0  0
  -28.1973  -22.4349   19.3460 H   0  0  0  0  0  0
  -27.4172  -22.5031   20.8878 H   0  0  0  0  0  0
  -29.9558  -24.0693   20.1377 H   0  0  0  0  0  0
  -29.1669  -24.1405   21.7001 H   0  0  0  0  0  0
  -27.0736  -24.8905   20.6083 H   0  0  0  0  0  0
  -27.8437  -24.8704   19.0346 H   0  0  0  0  0  0
  1 25  1  0  0  0
  1 30  2  0  0  0
  1 72  1  0  0  0
  2  3  1  0  0  0
  2 25  1  0  0  0
  2 83  1  0  0  0
  2 84  1  0  0  0
  3  4  1  0  0  0
  3 85  1  0  0  0
  3 86  1  0  0  0
  4  5  1  0  0  0
  4 87  1  0  0  0
  4 88  1  0  0  0
  5  6  1  0  0  0
  5 26  1  0  0  0
  5 89  1  0  0  0
  6 25  1  0  0  0
  6 90  1  0  0  0
  6 91  1  0  0  0
  7  8  2  0  0  0
  7 26  1  0  0  0
  7 29  1  0  0  0
  8  9  1  0  0  0
  8 22  1  0  0  0
  9 10  1  0  0  0
  9 27  2  0  0  0
 10 11  2  0  0  0
 10 15  1  0  0  0
 11 12  1  0  0  0
 11 92  1  0  0  0
 12 13  2  0  0  0
 12 93  1  0  0  0
 13 14  1  0  0  0
 13 31  1  0  0  0
 14 15  2  0  0  0
 14 94  1  0  0  0
 15 95  1  0  0  0
 16 17  2  0  0  0
 16 21  1  0  0  0
 16 31  1  0  0  0
 17 18  1  0  0  0
 17 96  1  0  0  0
 18 19  2  0  0  0
 18 97  1  0  0  0
 19 20  1  0  0  0
 19 24  1  0  0  0
 20 21  2  0  0  0
 20 98  1  0  0  0
 21 23  1  0  0  0
 22 28  1  0  0  0
 22 32  2  0  0  0
 26 27  1  0  0  0
 28 99  1  0  0  0
 28100  1  0  0  0
 29101  1  0  0  0
 29102  1  0  0  0
 33 34  1  0  0  0
 33 66  1  0  0  0
 33 70  2  0  0  0
 34 36  1  0  0  0
 34 59  1  0  0  0
 34103  1  0  0  0
 35 44  2  0  0  0
 35 45  1  0  0  0
 35 68  1  0  0  0
 36 56  1  0  0  0
 36104  1  0  0  0
 37 39  1  0  0  0
 37 47  1  0  0  0
 37 66  1  0  0  0
 37105  1  0  0  0
 38 43  2  0  0  0
 38 46  1  0  0  0
 38 47  1  0  0  0
 39 64  1  0  0  0
 39 67  2  0  0  0
 40 52  1  0  0  0
 40 53  2  0  0  0
 40 58  1  0  0  0
 41106  1  0  0  0
 41107  1  0  0  0
 41108  1  0  0  0
 41 48  1  0  0  0
 42 43  1  0  0  0
 42 66  1  0  0  0
 42109  1  0  0  0
 42110  1  0  0  0
 43 44  1  0  0  0
 44111  1  0  0  0
 45 46  2  0  0  0
 45112  1  0  0  0
 46113  1  0  0  0
 47114  1  0  0  0
 47115  1  0  0  0
 48 56  1  0  0  0
 48 65  1  0  0  0
 48116  1  0  0  0
 49 50  1  0  0  0
 49 53  1  0  0  0
 49 64  1  0  0  0
 49117  1  0  0  0
 50 51  1  0  0  0
 50118  1  0  0  0
 50119  1  0  0  0
 51 52  1  0  0  0
 51120  1  0  0  0
 51121  1  0  0  0
 52122  1  0  0  0
 52123  1  0  0  0
 53 54  1  0  0  0
 54 55  2  0  0  0
 54124  1  0  0  0
 55 57  1  0  0  0
 55125  1  0  0  0
 56 69  2  0  0  0
 57 58  2  0  0  0
 57126  1  0  0  0
 58127  1  0  0  0
 59 60  1  0  0  0
 59 61  1  0  0  0
 59 62  1  0  0  0
 60128  1  0  0  0
 60129  1  0  0  0
 60130  1  0  0  0
 61131  1  0  0  0
 61132  1  0  0  0
 61133  1  0  0  0
 62134  1  0  0  0
 62135  1  0  0  0
 62136  1  0  0  0
 63 65  1  0  0  0
 63137  1  0  0  0
 63138  1  0  0  0
 63139  1  0  0  0
 64140  1  0  0  0
 65141  1  0  0  0
 68 80  1  0  0  0
 71 72  2  0  0  0
 71 81  1  0  0  0
 71142  1  0  0  0
 72 82  1  0  0  0
 73 74  1  0  0  0
 73 75  1  0  0  0
 73 82  2  0  0  0
 74 76  1  0  0  0
 74 81  2  0  0  0
 75143  1  0  0  0
 75144  1  0  0  0
 75145  1  0  0  0
 76 77  1  0  0  0
 76146  1  0  0  0
 76147  1  0  0  0
 77 78  1  0  0  0
 77148  1  0  0  0
 77149  1  0  0  0
 78 79  1  0  0  0
 78150  1  0  0  0
 78151  1  0  0  0
 79 80  1  0  0  0
 79152  1  0  0  0
 79153  1  0  0  0
 80154  1  0  0  0
 80155  1  0  0  0
M  ISO  4   1 100  68 101  72 100  80 101
M  END
> <chiral flag>
0

> <version>
0

> <s_m_source_file>
/data/baiqing/PycharmProjects/Reinvent-master-3.2/result/LINK_invent/BTK/process_docking_weight1_custom_sum_contain_oxygen_bond_distance_aromatic_linkinvent_7_9_3/rearranged_h_0078.sdf

> <i_m_source_file_index>
100

> <r_mmod_Potential_Energy-OPLS-2005>
210.671783447266

> <r_mmod_Stretch_Energy-OPLS-2005>
60.8338394165039

> <r_mmod_Bend_Energy-OPLS-2005>
133.029846191406

> <r_mmod_Torsional_Energy-OPLS-2005>
199.772659301758

> <r_mmod_Improper_Torsional_Energy-OPLS-2005>
10.1508083343506

> <r_mmod_Van_der_Waal_Energy-OPLS-2005>
152.21533203125

> <r_mmod_Electrostatic_Energy-OPLS-2005>
-180.279922485352

> <r_mmod_Solvation_Energy-OPLS-2005>
-205.535766601562

> <b_mmod_Minimization_Converged-OPLS-2005>
0

> <r_mmod_RMS_Derivative-OPLS-2005>
3.34770822525024

$$$$
